#------------------------------------------------------------------------------
#$Date: 2019-11-23 05:42:13 +0200 (Sat, 23 Nov 2019) $
#$Revision: 232253 $
#$URL: file:///home/coder/svn-repositories/cod/cif/4/34/72/4347298.cif $
#------------------------------------------------------------------------------
#
# This file is available in the Crystallography Open Database (COD),
# http://www.crystallography.net/
#
# All data on this site have been placed in the public domain by the
# contributors.
#
data_4347298
loop_
_publ_author_name
'Otake, Ken-ichi'
'Otsubo, Kazuya'
'Sugimoto, Kunihisa'
'Fujiwara, Akihiko'
'Kitagawa, Hiroshi'
_publ_section_title
;
 Neutral-Type One-Dimensional Mixed-Valence Halogen-Bridged Platinum Chain
 Complexes with Large Charge-Transfer Band Gaps.
;
_journal_issue                   5
_journal_name_full               'Inorganic chemistry'
_journal_page_first              2620
_journal_page_last               2626
_journal_paper_doi               10.1021/acs.inorgchem.5b02980
_journal_volume                  55
_journal_year                    2016
_chemical_absolute_configuration ad
_chemical_formula_moiety         'C8 H14 I N4 Pt'
_chemical_formula_sum            'C8 H14 I N4 Pt'
_chemical_formula_weight         488.22
_space_group_crystal_system      orthorhombic
_space_group_IT_number           18
_space_group_name_Hall           'P 2 2ab'
_space_group_name_H-M_alt        'P 21 21 2'
_atom_sites_solution_hydrogens   geom
_atom_sites_solution_primary     direct
_atom_sites_solution_secondary   difmap
_cell_angle_alpha                90.0000
_cell_angle_beta                 90.0000
_cell_angle_gamma                90.0000
_cell_formula_units_Z            2
_cell_length_a                   5.7631(4)
_cell_length_b                   9.9725(7)
_cell_length_c                   10.7081(8)
_cell_measurement_reflns_used    9258
_cell_measurement_temperature    100(2)
_cell_measurement_theta_max      29.17
_cell_measurement_theta_min      2.79
_cell_volume                     615.42(8)
_computing_cell_refinement       'APEX2 (Bruker, 2006)'
_computing_data_collection       'APEX2 (Bruker, 2006)'
_computing_data_reduction        'CrystalStructure 4.2 (Rigaku, 2015)'
_computing_molecular_graphics    'CrystalStructure 4.2'
_computing_publication_material  'CrystalStructure 4.2 (Rigaku, 2015)'
_computing_structure_refinement  'SHELXL Version 2014/3 (Sheldrick, 2008)'
_computing_structure_solution    'Il Milione (Burla, et al., 2007)'
_diffrn_ambient_temperature      100(2)
_diffrn_measured_fraction_theta_full 1.000
_diffrn_measured_fraction_theta_max 0.970
_diffrn_measurement_device_type  'Bruker APEX-II CCD'
_diffrn_measurement_method       'phi and omega scans'
_diffrn_radiation_monochromator  graphite
_diffrn_radiation_source         'sealed tube'
_diffrn_radiation_type           'Mo K\a'
_diffrn_radiation_wavelength     0.71073
_diffrn_reflns_av_R_equivalents  0.0191
_diffrn_reflns_Laue_measured_fraction_full 1.000
_diffrn_reflns_Laue_measured_fraction_max 0.970
_diffrn_reflns_limit_h_max       7
_diffrn_reflns_limit_h_min       -7
_diffrn_reflns_limit_k_max       13
_diffrn_reflns_limit_k_min       -13
_diffrn_reflns_limit_l_max       13
_diffrn_reflns_limit_l_min       -14
_diffrn_reflns_number            10781
_diffrn_reflns_point_group_measured_fraction_full 1.000
_diffrn_reflns_point_group_measured_fraction_max 0.951
_diffrn_reflns_theta_full        25.242
_diffrn_reflns_theta_max         29.322
_diffrn_reflns_theta_min         1.902
_diffrn_standards_number         0
_exptl_absorpt_coefficient_mu    13.835
_exptl_absorpt_correction_T_max  0.7459
_exptl_absorpt_correction_T_min  0.5272
_exptl_absorpt_correction_type   multi-scan
_exptl_absorpt_process_details   '(SADABS; Sheldrick, 1996)'
_exptl_crystal_colour            gold
_exptl_crystal_density_diffrn    2.634
_exptl_crystal_density_method    'not measured'
_exptl_crystal_description       needle
_exptl_crystal_F_000             442.00
_exptl_crystal_size_max          0.15
_exptl_crystal_size_mid          0.03
_exptl_crystal_size_min          0.02
_refine_diff_density_max         1.42
_refine_diff_density_min         -0.78
_refine_ls_abs_structure_details
;
 Flack x determined using 617 quotients [(I+)-(I-)]/[(I+)+(I-)]
 (Parsons, Flack and Wagner, Acta Cryst. B69 (2013) 249-259).
;
_refine_ls_abs_structure_Flack   0.033(8)
_refine_ls_extinction_method     none
_refine_ls_goodness_of_fit_ref   1.020
_refine_ls_hydrogen_treatment    constr
_refine_ls_number_parameters     69
_refine_ls_number_reflns         1608
_refine_ls_number_restraints     0
_refine_ls_R_factor_all          0.0108
_refine_ls_R_factor_gt           0.0105
_refine_ls_shift/su_max          0.005
_refine_ls_structure_factor_coef Fsqd
_refine_ls_weighting_details
'w = 1/[\s^2^(Fo^2^)+(0.0139P)^2^+0.3395P] where P=(Fo^2^+2Fc^2^)/3'
_refine_ls_weighting_scheme      calc
_refine_ls_wR_factor_gt          0.0268
_refine_ls_wR_factor_ref         0.0269
_reflns_Friedel_coverage         0.648
_reflns_Friedel_fraction_full    1.000
_reflns_Friedel_fraction_max     0.923
_reflns_number_gt                1574
_reflns_number_total             1608
_reflns_threshold_expression     F^2^>2.0\s(F^2^)
_cod_data_source_file            ic5b02980_si_006.cif
_cod_data_source_block           complex7
_cod_database_code               4347298
_shelxl_version_number           2014-3
_shelx_res_file
;
TITL OrthoP
CELL  0.71075 5.76310 9.97250 10.70810 90.00000 90.00000 90.00000
ZERR  2 0.00000 0.00000 0.00000 0.00000 0.00000 0.00000
LATT -1
SYMM    -X,    -Y,    +Z
SYMM .50+X, .50-Y,    -Z
SYMM .50-X, .50+Y,    -Z
SFAC C H I N PT
UNIT 16 28 2 8 2
L.S. 30
FMAP 2
PLAN 25
WPDB -2
HTAB
BOND $H
CONF
LIST 4
TEMP 23.0
ACTA
WGHT    0.013900    0.339500
FVAR       0.10599
PT1   5    0.000000    0.000000    1.001834    10.50000    0.00738    0.00829 =
         0.01885    0.00000    0.00000    0.00012
I1    3    0.468437   -0.001238    1.024586    10.50000    0.00891    0.01306 =
         0.01524    0.00439   -0.00034    0.00057
N1    4   -0.010120   -0.225613    1.202678    11.00000    0.01863    0.01563 =
         0.02400   -0.00097    0.00219   -0.00059
N2    4    0.006791    0.137721    0.853634    11.00000    0.01480    0.01172 =
         0.02033    0.00187   -0.00111   -0.00343
AFIX  23
H2A   2   -0.131494    0.176541    0.845764    11.00000   -1.20000
H2B   2    0.111321    0.201320    0.868959    11.00000   -1.20000
AFIX   0
C1    1   -0.005877   -0.140492    1.130964    11.00000    0.01033    0.01254 =
         0.02489   -0.00283    0.00099    0.00027
C2    1    0.067763    0.065569    0.735601    11.00000    0.01449    0.01449 =
         0.01998    0.00043    0.00051   -0.00025
AFIX  13
H2    2    0.233700    0.044217    0.737752    11.00000   -1.20000
AFIX   0
C3    1    0.020112    0.148134    0.619381    11.00000    0.02571    0.02056 =
         0.02271    0.00519   -0.00116   -0.00301
AFIX  23
H3A   2    0.117232    0.227574    0.619701    11.00000   -1.20000
H3B   2   -0.140760    0.176731    0.619014    11.00000   -1.20000
AFIX   0
C4    1    0.070054    0.065321    0.502491    11.00000    0.03744    0.03535 =
         0.02225    0.00548    0.00184   -0.00127
AFIX  23
H4A   2    0.234332    0.044510    0.498887    11.00000   -1.20000
H4B   2    0.030887    0.117379    0.428932    11.00000   -1.20000
AFIX   0
HKLF 4

REM  OrthoP
REM R1 =  0.0105 for    1574 Fo > 4sig(Fo)  and  0.0108 for all    1608 data
REM     69 parameters refined using      0 restraints

END

WGHT      0.0149      0.2541

REM Instructions for potential hydrogen bonds
EQIV $1 -x-1/2, y+1/2, -z+2
HTAB N2 N1_$1
EQIV $2 x-1/2, -y+1/2, -z+2
HTAB N2 I1_$2
EQIV $3 -x+1/2, y+1/2, -z+2
HTAB N2 I1_$3
HTAB N2 N1_$3

REM Highest difference peak  1.417,  deepest hole -0.784,  1-sigma level  0.102
Q1    1   0.1428  0.0009  1.0027  11.00000  0.05    1.42
Q2    1   0.3151  0.0005  1.0207  11.00000  0.05    0.70
Q3    1  -0.0042 -0.0775  1.0837  11.00000  0.05    0.51
Q4    1   0.1657  0.0004  1.0777  11.00000  0.05    0.48
Q5    1   0.0015  0.0511  0.9467  11.00000  0.05    0.41
Q6    1   0.1722  0.0012  0.9258  11.00000  0.05    0.39
Q7    1   0.5000  0.0000  1.2423  10.50000  0.05    0.36
Q8    1  -0.0009  0.0901  0.9115  11.00000  0.05    0.35
Q9    1   0.0027  0.0884  0.7887  11.00000  0.05    0.33
Q10   1   0.0070  0.0987  0.5639  11.00000  0.05    0.30
Q11   1   0.0009  0.0377  0.4966  11.00000  0.05    0.29
Q12   1   0.4976 -0.0680  1.0946  11.00000  0.05    0.29
Q13   1  -0.0043 -0.1697  1.2107  11.00000  0.05    0.26
Q14   1   0.0107  0.1076  0.6663  11.00000  0.05    0.24
Q15   1   0.0868 -0.2453  1.2259  11.00000  0.05    0.21
Q16   1  -0.0853 -0.2458  1.2253  11.00000  0.05    0.21
Q17   1   0.3780 -0.0016  1.1067  11.00000  0.05    0.20
Q18   1   0.0000  0.0000  0.7133  10.50000  0.05    0.20
Q19   1   0.0013 -0.2193  1.1413  11.00000  0.05    0.20
Q20   1   0.0801  0.1862  0.6146  11.00000  0.05    0.19
Q21   1  -0.0687  0.1854  0.6137  11.00000  0.05    0.19
Q22   1   0.5008 -0.0652  0.9529  11.00000  0.05    0.18
Q23   1  -0.1776  0.1530  0.6395  11.00000  0.05    0.18
Q24   1   0.1673  0.1525  0.6386  11.00000  0.05    0.18
Q25   1  -0.3423  0.1790  0.5168  11.00000  0.05    0.17
;
_shelx_res_checksum              76754
_shelx_hkl_file
;
   0   0  -1  587.93   19.67
   0   0   2  497.57   15.48
   0   0  -2  475.65   14.33
   0   0  -2  486.40   14.04
   0   0  -2  484.94   14.28
   0   0  -2  464.04   15.49
   0   0  -3  278.73    8.87
   0   0   3  274.48    8.86
   0   0   3  272.47    8.22
   0   0  -3  269.92    8.23
   0   0  -3  279.39    8.18
   0   0  -3  281.53    8.05
   0   0  -4  348.96   10.39
   0   0  -4  358.27   10.57
   0   0   4  359.43   11.44
   0   0   4  356.68   10.60
   0   0  -4  351.79   11.49
   0   0   4  367.22   10.42
   0   0  -5  323.28    9.37
   0   0   5  323.12    9.39
   0   0  -5  324.55    9.56
   0   0  -5  319.99   10.39
   0   0   5  323.81    9.57
   0   0   5  324.44   10.31
   0   0  -5  320.21    9.52
   0   0  -6  285.05    8.46
   0   0  -6  275.75    8.42
   0   0   6  283.31    8.46
   0   0  -6  294.43    9.15
   0   0   6  286.05    9.11
   0   0  -6  288.14    8.29
   0   0   6  281.06    8.29
   0   0   7  178.56    5.28
   0   0   7  181.18    5.40
   0   0  -7  179.91    5.28
   0   0   7  181.41    5.80
   0   0  -7  182.94    5.83
   0   0  -7  179.14    5.36
   0   0  -7  179.54    5.40
   0   0  -8  198.00    6.18
   0   0   8  189.22    5.60
   0   0   8  192.93    6.14
   0   0  -8  181.22    5.68
   0   0  -8  192.58    5.72
   0   0  -9   62.67    2.06
   0   0  -9   59.12    1.88
   0   0 -10   60.14    2.04
   0   0 -11   28.87    1.06
   0   0 -12   18.55    0.75
   0   0 -13   11.09    0.53
   0   0 -14   12.07    0.57
   0   1   0    0.01    0.01
   0  -1   0    0.02    0.01
   0   1   0    0.01    0.01
   0  -1   0    0.04    0.01
   0   1  -1    3.45    0.12
   0   1  -1    3.45    0.13
   0   1  -1    3.35    0.11
   0   1  -1    3.30    0.12
   0   1   1    3.48    0.13
   0  -1  -1    3.33    0.12
   0  -1   1    3.38    0.13
   0  -1   1    3.45    0.11
   0  -1   1    3.30    0.12
   0   1   1    3.43    0.11
   0  -1   1    3.53    0.11
   0   1  -2   24.03    0.73
   0   1   2   23.40    0.79
   0  -1   2   24.40    0.74
   0  -1  -2   24.45    0.74
   0  -1  -2   25.28    0.79
   0  -1   2   24.32    0.79
   0   1   2   25.06    0.72
   0   1  -2   24.22    0.72
   0   1   2   24.10    0.74
   0   1  -2   23.57    0.80
   0  -1  -2   23.54    0.74
   0   1  -2   23.23    0.73
   0  -1   2   24.07    0.72
   0   1  -3   30.29    1.04
   0  -1   3   30.42    0.96
   0   1   3   31.86    0.94
   0   1   3   31.10    0.96
   0   1   3   31.76    1.03
   0   1  -3   31.42    0.95
   0  -1   3   31.71    0.94
   0   1  -3   31.18    0.94
   0  -1  -3   32.43    1.03
   0   1  -3   29.66    0.95
   0  -1  -3   31.01    0.96
   0  -1   3   30.76    1.02
   0  -1  -3   32.09    0.93
   0  -1  -3   31.78    0.96
   0  -1  -4   28.96    0.89
   0   1   4   28.03    0.89
   0   1  -4   27.56    0.89
   0  -1  -4   29.42    0.96
   0  -1  -4   28.79    0.87
   0   1  -4   28.94    0.88
   0  -1  -4   28.77    0.89
   0  -1   4   28.10    0.90
   0   1  -4   27.37    0.96
   0  -1   4   28.96    0.95
   0   1   4   28.94    0.87
   0   1   4   28.94    0.95
   0  -1   4   29.40    0.87
   0   1  -4   27.59    0.87
   0  -1   5   33.70    1.10
   0   1   5   35.43    1.17
   0  -1   5   34.94    1.16
   0  -1  -5   36.02    1.18
   0   1  -5   35.55    1.08
   0   1  -5   35.19    1.09
   0  -1  -5   34.58    1.07
   0   1   5   34.71    1.10
   0  -1  -5   34.58    1.09
   0   1  -5   34.06    1.19
   0  -1  -5   36.46    1.10
   0   1  -5   35.03    1.07
   0   1   5   36.32    1.07
   0  -1  -6   42.55    1.34
   0   1   6   44.71    1.35
   0  -1   6   43.51    1.35
   0  -1  -6   42.23    1.35
   0  -1  -6   43.40    1.31
   0  -1   6   43.78    1.43
   0   1   6   43.34    1.44
   0   1  -6   43.12    1.31
   0   1  -6   43.34    1.32
   0  -1  -6   44.29    1.45
   0  -1   6   43.33    1.31
   0   1  -6   40.71    1.34
   0   1   6   43.04    1.31
   0   1  -6   43.24    1.46
   0   1   7   53.08    1.77
   0  -1  -7   53.71    1.62
   0   1  -7   53.73    1.79
   0   1   7   53.67    1.66
   0   1  -7   53.25    1.66
   0  -1  -7   53.03    1.66
   0  -1   7   53.93    1.67
   0   1  -7   53.95    1.63
   0  -1  -7   52.81    1.64
   0   1   7   54.01    1.62
   0  -1   7   52.24    1.76
   0  -1  -7   53.81    1.78
   0   1  -7   53.12    1.62
   0  -1   7   52.55    1.61
   0  -1  -8   29.16    1.02
   0   1   8   28.96    1.00
   0  -1  -8   28.30    0.95
   0   1  -8   29.55    1.03
   0  -1  -8   28.50    0.93
   0   1   8   28.54    0.92
   0   1  -8   29.05    0.92
   0   1  -8   28.39    0.95
   0   1  -9   27.20    0.99
   0  -1  -9   26.79    0.89
   0  -1  -9   27.26    0.97
   0  -1 -10   45.40    1.53
   0  -1 -10   43.91    1.41
   0   1 -10   43.11    1.54
   0  -1 -11   29.46    1.07
   0   1 -11   29.38    1.09
   0  -1 -12   20.14    0.82
   0   1 -12   22.20    0.85
   0  -1 -13   13.78    0.61
   0   1 -13   13.87    0.63
   0   1 -14    9.95    0.51
   0  -2   0  552.39   17.69
   0   2   0  602.41   19.17
   0   2   0  577.35   19.86
   0  -2   0  604.98   17.19
   0  -2   0  548.58   18.29
   0   2   0  579.76   17.72
   0   2  -1  501.06   16.69
   0  -2  -1  524.91   15.47
   0  -2   1  539.67   15.41
   0   2   1  510.03   16.74
   0   2  -1  547.56   15.45
   0   2   1  505.90   16.67
   0   2  -1  506.08   16.67
   0  -2   1  502.20   15.45
   0   2   1  538.15   15.15
   0  -2  -1  505.35   15.40
   0  -2   1  539.70   15.15
   0  -2   2  682.81   19.84
   0   2  -2  663.73   19.91
   0   2   2  671.83   21.52
   0   2   2  677.27   19.91
   0  -2   2  636.03   21.50
   0  -2   2  684.61   19.53
   0  -2   2  638.55   19.93
   0   2  -2  668.98   21.47
   0  -2  -2  680.42   19.53
   0   2  -2  639.44   19.51
   0  -2  -2  693.84   21.54
   0  -2  -2  677.95   19.87
   0   2  -2  707.49   21.58
   0  -2  -2  673.37   19.94
   0  -2  -3  531.86   16.44
   0   2  -3  506.28   16.48
   0   2  -3  525.11   16.40
   0   2   3  501.59   15.20
   0   2   3  507.16   14.93
   0  -2  -3  524.10   14.92
   0  -2   3  506.15   16.41
   0  -2   3  513.60   15.14
   0  -2  -3  511.15   15.24
   0  -2   3  507.24   15.23
   0   2  -3  497.94   15.15
   0   2  -3  507.85   14.92
   0   2   3  518.65   16.47
   0   2  -3  509.65   15.23
   0  -2   3  513.09   14.93
   0  -2  -3  510.22   15.18
   0  -2  -4  505.62   15.15
   0   2  -4  496.51   15.15
   0   2   4  507.01   16.41
   0   2  -4  521.70   14.88
   0  -2  -4  521.65   14.87
   0  -2   4  508.80   15.18
   0   2  -4  494.26   15.10
   0   2  -4  494.85   16.44
   0   2   4  510.31   15.17
   0  -2  -4  531.10   16.41
   0  -2  -4  517.56   15.23
   0   2   4  516.15   14.92
   0  -2   4  514.11   16.36
   0  -2  -5  208.82    6.03
   0  -2  -5  208.63    6.16
   0   2  -5  204.96    6.12
   0   2   5  207.50    6.03
   0  -2  -5  217.43    6.65
   0  -2   5  213.56    6.63
   0  -2   5  205.66    6.16
   0   2  -5  200.16    6.66
   0   2   5  202.24    6.16
   0  -2   5  206.49    6.03
   0   2   5  207.41    6.64
   0  -2  -5  204.36    6.14
   0   2  -5  201.95    6.15
   0   2  -5  208.54    6.03
   0  -2   6  217.34    6.85
   0  -2  -6  210.07    6.35
   0   2   6  214.07    6.86
   0  -2  -6  226.03    6.88
   0   2   6  213.66    6.24
   0  -2  -6  217.40    6.24
   0   2  -6  208.24    6.89
   0  -2   6  211.32    6.23
   0  -2   6  211.89    6.38
   0   2   6  217.17    6.37
   0   2  -6  215.23    6.33
   0  -2  -6  212.14    6.37
   0   2  -6  209.86    6.36
   0   2  -6  208.16    6.24
   0  -2  -7  181.37    5.61
   0   2  -7  172.97    5.16
   0   2  -7  170.02    5.19
   0   2   7  175.03    5.09
   0  -2   7  174.15    5.21
   0  -2   7  172.79    5.09
   0   2  -7  166.56    5.09
   0  -2   7  176.45    5.58
   0  -2  -7  174.61    5.20
   0   2  -7  171.97    5.63
   0  -2  -7  168.01    5.18
   0   2   7  179.54    5.60
   0   2  -8  139.41    4.49
   0  -2  -8  133.81    4.13
   0  -2   8  135.73    4.05
   0   2  -8  136.78    4.10
   0  -2  -8  142.87    4.47
   0   2   8  137.69    4.45
   0   2   8  135.32    4.06
   0   2  -9   66.39    2.26
   0   2   9   66.57    2.22
   0  -2  -9   68.85    2.23
   0  -2  -9   65.27    2.07
   0  -2 -10   47.32    1.57
   0   2 -10   50.82    1.73
   0  -2 -10   51.06    1.70
   0  -2 -11   33.42    1.14
   0   2 -11   35.18    1.26
   0  -2 -11   34.75    1.23
   0   2 -12   32.42    1.21
   0   2 -13    9.66    0.50
   0   2 -14    6.52    0.41
   0   3   0    0.01    0.02
   0   3   0    0.01    0.03
   0  -3   0    0.03    0.03
   0  -3   0    0.03    0.02
   0   3   0    0.02    0.02
   0  -3   0    0.06    0.03
   0   3   0    0.00    0.02
   0  -3   1    3.70    0.15
   0  -3  -1    3.83    0.15
   0   3   1    3.72    0.14
   0  -3   1    3.65    0.14
   0  -3  -1    3.69    0.14
   0   3  -1    3.61    0.15
   0   3  -1    3.74    0.14
   0   3  -1    3.64    0.15
   0   3  -1    3.90    0.14
   0   3   1    3.62    0.16
   0  -3  -1    3.68    0.15
   0   3   1    3.57    0.14
   0  -3   1    3.77    0.14
   0   3   1    3.66    0.14
   0   3   2    2.44    0.10
   0   3  -2    2.28    0.11
   0  -3  -2    2.41    0.10
   0  -3  -2    2.29    0.11
   0  -3   2    2.31    0.11
   0   3   2    2.32    0.11
   0  -3  -2    2.32    0.11
   0  -3   2    2.26    0.10
   0   3  -2    2.25    0.10
   0   3  -2    2.36    0.12
   0   3   2    2.33    0.12
   0  -3  -2    2.48    0.10
   0  -3   2    2.35    0.10
   0   3   2    2.32    0.10
   0   3  -2    2.46    0.11
   0   3   3   40.85    1.27
   0  -3  -3   41.45    1.27
   0   3  -3   42.77    1.36
   0  -3  -3   41.52    1.24
   0  -3  -3   40.65    1.27
   0   3   3   41.30    1.37
   0  -3   3   41.53    1.24
   0   3  -3   41.51    1.24
   0  -3   3   42.75    1.25
   0  -3   3   39.90    1.27
   0   3   3   41.81    1.24
   0   3  -3   40.17    1.26
   0   3  -3   42.88    1.38
   0  -3  -3   42.49    1.35
   0   3   4   24.11    0.73
   0  -3  -4   24.00    0.79
   0  -3  -4   23.50    0.76
   0   3  -4   23.58    0.73
   0   3   4   23.51    0.81
   0  -3   4   23.83    0.73
   0   3  -4   24.53    0.79
   0  -3   4   23.36    0.73
   0   3  -4   23.61    0.75
   0   3  -4   23.43    0.73
   0  -3   4   22.72    0.76
   0  -3   4   23.82    0.80
   0   3   4   22.99    0.75
   0  -3  -4   23.45    0.76
   0   3  -4   24.18    0.82
   0  -3  -4   23.58    0.73
   0   3   5   14.99    0.49
   0  -3  -5   15.64    0.53
   0   3   5   15.14    0.51
   0  -3  -5   15.06    0.51
   0   3   5   14.14    0.54
   0  -3   5   14.67    0.52
   0   3  -5   15.22    0.56
   0  -3  -5   15.21    0.49
   0  -3   5   15.01    0.54
   0  -3  -5   14.88    0.51
   0   3  -5   15.05    0.52
   0  -3   5   15.54    0.48
   0   3  -5   14.68    0.49
   0   3  -5   14.93    0.48
   0   3   6   43.77    1.35
   0  -3  -6   42.69    1.38
   0  -3   6   43.71    1.39
   0  -3   6   44.85    1.47
   0  -3   6   44.76    1.34
   0   3  -6   41.90    1.50
   0  -3  -6   45.98    1.48
   0  -3   6   43.90    1.34
   0   3  -6   44.28    1.38
   0  -3  -6   44.34    1.39
   0   3   6   43.44    1.48
   0   3  -6   45.13    1.35
   0  -3  -6   44.98    1.34
   0   3  -6   43.26    1.34
   0   3  -6   44.80    1.46
   0   3   6   44.99    1.38
   0   3  -7   36.19    1.10
   0  -3   7   36.45    1.09
   0   3  -7   34.35    1.10
   0   3   7   35.76    1.10
   0  -3  -7   36.16    1.20
   0  -3   7   34.38    1.14
   0   3  -7   34.81    1.23
   0   3   7   34.08    1.21
   0  -3  -7   34.58    1.14
   0  -3   7   35.43    1.10
   0  -3  -7   34.08    1.13
   0  -3   7   36.16    1.20
   0   3  -7   35.62    1.18
   0   3  -8   44.93    1.55
   0   3   8   43.87    1.39
   0   3   8   44.64    1.53
   0  -3  -8   46.85    1.52
   0  -3  -8   43.84    1.42
   0  -3  -9   40.76    1.36
   0   3  -9   39.93    1.40
   0   3   9   39.16    1.37
   0  -3  -9   38.57    1.28
   0  -3 -10   21.98    0.78
   0   3 -10   22.02    0.86
   0  -3 -11   22.66    0.81
   0   3 -11   22.46    0.89
   0   3 -12   12.74    0.59
   0   3 -13   13.25    0.62
   0  -4   0  371.79   10.93
   0   4   0  365.61   11.79
   0  -4   0  371.63   10.72
   0   4   0  365.31   10.92
   0   4   0  367.27   11.82
   0   4   0  373.48   10.74
   0  -4   0  356.40   10.91
   0   4  -1  443.84   13.07
   0  -4  -1  440.31   13.34
   0  -4   1  453.67   13.30
   0   4  -1  454.86   14.40
   0   4  -1  445.51   14.40
   0  -4  -1  459.46   13.35
   0   4  -1  439.95   13.32
   0   4   1  448.29   14.37
   0  -4   1  451.02   13.08
   0  -4   1  439.74   13.35
   0   4   1  444.49   13.31
   0  -4  -1  454.37   13.06
   0   4   1  444.88   14.44
   0   4   1  453.46   13.08
   0  -4  -2  412.27   11.91
   0   4  -2  403.44   12.89
   0   4  -2  406.43   12.86
   0   4  -2  383.43   11.66
   0  -4  -2  410.09   11.68
   0  -4   2  407.64   11.88
   0   4   2  399.79   11.70
   0   4   2  406.89   11.91
   0   4   2  401.58   12.84
   0  -4   2  386.60   11.92
   0  -4  -2  388.96   11.91
   0   4   2  399.42   12.84
   0  -4  -3  404.95   12.09
   0  -4  -3  417.15   12.18
   0   4  -3  418.62   13.22
   0  -4  -3  409.82   13.11
   0   4   3  401.76   12.12
   0   4   3  411.42   13.14
   0  -4   3  392.90   12.12
   0  -4   3  429.27   12.13
   0   4  -3  407.11   13.12
   0  -4   3  396.89   11.91
   0   4  -3  409.71   11.90
   0   4  -3  405.22   12.18
   0  -4  -3  414.50   11.92
   0   4  -4  453.28   14.14
   0  -4  -4  437.66   13.07
   0   4   4  444.57   14.16
   0  -4   4  425.66   13.08
   0   4  -4  441.55   12.88
   0  -4   4  447.49   13.07
   0  -4  -4  433.35   12.88
   0  -4  -4  440.99   13.14
   0  -4   4  437.79   12.87
   0   4   4  445.52   13.10
   0   4  -4  438.01   13.12
   0  -4  -4  456.37   14.15
   0   4   4  441.45   12.88
   0   4  -4  448.21   14.20
   0  -4  -5  270.39    8.32
   0   4  -5  280.55    8.33
   0  -4   5  284.99    8.28
   0   4  -5  275.10    9.02
   0  -4   5  279.13    8.17
   0  -4   5  270.99    8.34
   0   4  -5  288.37    8.97
   0   4   5  286.30    8.17
   0   4   5  272.62    8.99
   0   4  -5  264.21    8.17
   0  -4  -5  289.66    8.35
   0  -4  -5  290.76    8.99
   0  -4  -5  296.80    8.17
   0   4   6  181.60    5.26
   0  -4  -6  173.25    5.36
   0  -4   6  179.10    5.26
   0   4  -6  179.53    5.26
   0   4  -6  178.63    5.36
   0   4   6  177.73    5.79
   0  -4  -6  185.98    5.78
   0  -4   6  180.08    5.32
   0  -4  -6  183.25    5.38
   0  -4   6  178.93    5.38
   0  -4   6  181.74    5.78
   0   4  -6  174.67    5.81
   0   4  -6  179.51    5.76
   0   4  -7  102.18    3.41
   0  -4  -7   98.97    3.14
   0   4   7  103.56    3.07
   0   4   7  104.28    3.39
   0  -4  -7  108.54    3.37
   0  -4  -7  102.70    3.15
   0   4   8   72.37    2.38
   0   4   8   70.85    2.16
   0   4  -8   72.52    2.40
   0  -4  -8   69.42    2.21
   0   4  -9   79.60    2.67
   0   4   9   82.42    2.65
   0  -4  -9   76.18    2.46
   0  -4 -10   58.35    1.89
   0   4 -10   59.21    2.06
   0   4  10   60.81    2.03
   0   4 -11   38.64    1.36
   0  -4 -11   35.56    1.24
   0  -4 -12   19.51    0.75
   0   4 -12   20.57    0.83
   0   4 -13    7.49    0.43
   0   5   0    0.06    0.04
   0  -5   0    0.08    0.04
   0  -5   0    0.08    0.04
   0   5   0    0.12    0.04
   0  -5   0    0.08    0.03
   0   5   1    7.49    0.27
   0   5  -1    7.61    0.27
   0  -5   1    7.50    0.27
   0  -5  -1    7.49    0.28
   0   5   1    7.66    0.27
   0  -5   1    7.37    0.29
   0   5  -1    7.86    0.30
   0  -5  -1    7.79    0.29
   0   5  -1    7.60    0.28
   0   5  -1    7.53    0.28
   0  -5   1    7.61    0.26
   0  -5  -1    7.47    0.26
   0   5   1    7.82    0.31
   0   5   1    7.54    0.27
   0   5   2    9.55    0.34
   0  -5  -2    9.94    0.36
   0   5   2    9.90    0.39
   0  -5   2   10.08    0.34
   0   5  -2   10.08    0.37
   0   5  -2    9.91    0.37
   0  -5  -2    9.75    0.33
   0   5   2   10.08    0.35
   0  -5   2    9.65    0.36
   0  -5   2   10.11    0.34
   0   5  -2   10.35    0.35
   0   5   2   10.27    0.35
   0   5  -2    9.73    0.34
   0  -5  -3    5.73    0.21
   0  -5  -3    5.57    0.24
   0   5   3    5.39    0.25
   0   5  -3    5.65    0.22
   0  -5   3    5.25    0.23
   0  -5   3    5.51    0.21
   0   5  -3    5.37    0.24
   0   5   3    5.54    0.21
   0   5  -3    5.55    0.24
   0  -5   3    5.58    0.21
   0  -5  -3    5.70    0.21
   0   5   3    5.36    0.22
   0   5   3    5.80    0.22
   0   5  -3    5.49    0.22
   0  -5  -3    5.62    0.23
   0  -5  -4   13.44    0.48
   0   5   4   12.97    0.51
   0   5  -4   13.34    0.45
   0   5  -4   13.63    0.47
   0  -5  -4   13.76    0.47
   0  -5  -4   13.32    0.45
   0   5  -4   13.80    0.51
   0  -5   4   13.76    0.45
   0   5   4   13.63    0.47
   0  -5   4   13.00    0.48
   0  -5  -4   13.65    0.48
   0   5  -4   13.55    0.49
   0  -5   4   13.73    0.45
   0   5  -5   29.10    1.02
   0   5  -5   29.45    0.99
   0   5   5   28.84    0.91
   0   5  -5   28.56    0.91
   0  -5  -5   29.72    0.97
   0  -5  -5   27.91    0.94
   0  -5   5   28.88    0.91
   0  -5   5   29.92    0.90
   0   5  -5   29.13    0.93
   0  -5   5   29.00    0.95
   0  -5  -5   28.97    0.95
   0   5   5   29.07    1.02
   0  -5   6   33.28    1.07
   0  -5   6   33.33    1.02
   0   5   6   32.81    1.03
   0   5  -6   31.50    1.14
   0   5  -6   32.31    1.03
   0  -5  -6   33.80    1.07
   0   5  -6   33.85    1.11
   0  -5  -6   32.00    1.06
   0   5   6   32.00    1.14
   0   5  -7   32.64    1.18
   0   5   7   33.55    1.06
   0  -5  -7   33.50    1.09
   0   5   7   33.06    1.17
   0  -5  -7   33.85    1.10
   0   5   8   30.01    1.05
   0  -5  -8   28.98    0.98
   0   5  -8   28.34    1.06
   0  -5  -9   25.75    0.89
   0   5  -9   24.82    0.96
   0   5   9   25.75    0.95
   0   5 -10   21.61    0.85
   0   5  10   21.89    0.84
   0  -5 -10   21.09    0.79
   0  -5 -11   19.84    0.74
   0   5 -11   19.34    0.80
   0  -5 -12   15.98    0.65
   0   5 -12   16.10    0.71
   0   5 -13   11.58    0.58
   0  -6   0  341.89   10.18
   0   6   0  356.23    9.97
   0   6   0  341.94   10.96
   0  -6   0  345.37    9.96
   0  -6   0  337.22   10.13
   0   6   0  337.75   10.16
   0   6   0  341.13   10.97
   0   6  -1  373.62   10.94
   0   6   1  380.21   10.94
   0  -6   1  371.61   10.95
   0  -6  -1  357.18   10.91
   0  -6   1  364.25   10.96
   0   6  -1  367.26   11.85
   0  -6   1  374.80   10.73
   0   6  -1  366.79   10.76
   0   6   1  374.61   10.78
   0  -6  -1  381.57   10.75
   0   6  -1  368.69   11.82
   0   6   1  357.21   11.82
   0   6   1  368.20   11.81
   0  -6   2  330.13    9.91
   0   6   2  324.95   10.73
   0   6   2  345.92    9.93
   0  -6  -2  335.64    9.74
   0  -6  -2  323.10    9.91
   0   6   2  344.89    9.74
   0  -6   2  341.60    9.74
   0   6   2  331.85   10.71
   0  -6   2  324.67    9.94
   0   6  -2  347.17    9.93
   0   6  -2  328.97   10.73
   0   6  -2  328.85    9.74
   0   6  -2  336.16   10.72
   0  -6  -2  349.55    9.96
   0   6  -3  288.74    8.51
   0  -6   3  297.84    8.64
   0  -6   3  288.21    8.69
   0  -6   3  288.59    8.51
   0  -6  -3  296.09    8.70
   0   6  -3  291.62    9.36
   0   6   3  291.12    8.51
   0   6  -3  301.64    9.38
   0  -6  -3  285.67    8.66
   0   6  -3  304.79    8.68
   0   6   3  283.09    9.38
   0   6  -4  156.87    5.10
   0  -6   4  160.64    4.68
   0   6   4  162.02    4.63
   0   6  -4  161.07    5.08
   0  -6  -4  153.90    4.72
   0  -6   4  154.69    4.73
   0   6   4  155.85    5.11
   0  -6  -4  159.87    4.74
   0   6  -4  154.20    4.62
   0   6   5  203.85    5.90
   0   6  -5  203.36    6.51
   0  -6  -5  201.19    6.04
   0   6  -5  201.50    5.90
   0  -6   5  201.77    6.03
   0  -6  -5  194.76    6.01
   0   6  -5  203.90    6.47
   0   6   5  199.87    6.51
   0  -6   5  202.97    5.97
   0   6  -6  157.57    5.09
   0   6   6  159.42    4.61
   0   6   6  153.93    5.08
   0  -6  -6  151.87    4.70
   0   6  -6  154.45    5.04
   0  -6  -6  160.75    4.72
   0   6  -7  131.47    4.24
   0   6   7  128.85    4.22
   0  -6  -7  126.70    3.91
   0  -6  -8   85.56    2.72
   0   6   8   91.68    2.93
   0   6  -8   86.28    2.94
   0   6   9   59.63    1.98
   0   6  -9   56.72    1.99
   0  -6  -9   55.97    1.84
   0  -6 -10   31.31    1.10
   0   6  10   32.49    1.18
   0   6 -11   22.74    0.92
   0  -6 -11   22.64    0.85
   0   6 -12   12.02    0.58
   0  -6 -12   11.53    0.53
   0  -6 -13   14.41    0.63
   0   7   0    0.09    0.05
   0  -7   0    0.14    0.06
   0  -7   0    0.13    0.06
   0   7   0    0.06    0.06
   0  -7   1    0.19    0.06
   0   7   1    0.23    0.06
   0   7  -1    0.34    0.06
   0   7  -1    0.17    0.05
   0  -7   1    0.24    0.07
   0   7  -1    0.24    0.07
   0  -7  -1    0.18    0.06
   0  -7  -1    0.19    0.07
   0   7   1    0.25    0.07
   0  -7   2    3.89    0.19
   0   7   2    4.07    0.19
   0  -7  -2    4.05    0.21
   0   7   2    3.84    0.22
   0  -7  -2    3.98    0.21
   0  -7   2    4.06    0.21
   0   7  -2    3.99    0.21
   0   7  -2    4.18    0.20
   0   7  -2    3.94    0.19
   0   7  -3    6.47    0.29
   0  -7   3    6.28    0.25
   0   7  -3    5.84    0.25
   0   7   3    6.10    0.30
   0  -7   3    6.20    0.28
   0  -7  -3    6.17    0.28
   0   7   3    6.30    0.26
   0   7  -3    6.33    0.28
   0  -7  -3    6.20    0.28
   0   7  -4   24.88    0.87
   0   7  -4   23.76    0.79
   0  -7  -4   25.65    0.84
   0   7   4   24.46    0.90
   0  -7  -4   24.92    0.83
   0   7  -4   25.56    0.88
   0  -7   4   24.27    0.84
   0  -7   4   24.39    0.79
   0   7  -5   28.68    1.03
   0   7  -5   28.67    1.01
   0  -7  -5   28.24    0.97
   0   7   5   28.96    1.04
   0   7   5   30.46    0.93
   0   7   6    9.17    0.43
   0  -7  -6   10.03    0.41
   0   7  -6    9.56    0.42
   0  -7  -7   17.54    0.64
   0   7  -7   16.65    0.68
   0   7   7   17.17    0.68
   0   7  -8   22.34    0.88
   0   7   8   23.18    0.88
   0  -7  -8   22.99    0.82
   0   7   9   26.46    0.98
   0  -7  -9   25.13    0.92
   0   7  -9   25.16    0.98
   0  -7 -10   20.09    0.76
   0   7  10   20.12    0.81
   0   7 -10   19.13    0.81
   0  -7 -11   12.72    0.57
   0   7 -11   12.75    0.60
   0  -7 -12   16.15    0.68
   0  -8   0  252.33    7.33
   0   8   0  238.48    7.20
   0   8   0  248.74    7.94
   0  -8   0  246.60    7.37
   0   8  -1  270.76    7.81
   0  -8   1  271.15    7.94
   0   8  -1  269.91    8.58
   0   8  -1  270.18    8.60
   0   8   1  265.41    7.81
   0   8   1  265.10    8.61
   0  -8  -1  266.33    7.99
   0  -8   1  264.14    7.99
   0  -8  -1  265.20    7.95
   0  -8  -2  205.96    6.33
   0   8  -2  211.82    6.22
   0   8   2  215.85    6.22
   0   8   2  209.36    6.86
   0   8  -2  214.20    6.85
   0  -8   2  211.49    6.32
   0  -8   2  214.54    6.37
   0   8  -2  215.99    6.83
   0   8   3  180.45    5.26
   0   8  -3  182.77    5.78
   0  -8  -3  178.09    5.37
   0   8  -3  178.77    5.79
   0   8   3  175.46    5.81
   0  -8   3  179.09    5.34
   0  -8  -4  116.11    3.61
   0  -8   4  117.80    3.57
   0   8   4  116.72    3.90
   0   8  -4  123.79    3.88
   0   8  -4  120.06    3.88
   0   8   4  118.31    3.53
   0   8  -5  165.13    5.20
   0  -8  -5  156.24    4.82
   0   8   5  155.80    5.21
   0   8  -5  161.84    5.18
   0  -8  -6  115.03    3.66
   0   8  -6  127.66    3.96
   0   8   6  117.05    3.95
   0   8  -7  100.01    3.18
   0  -8  -7   90.19    2.94
   0   8   7   94.92    3.18
   0   8   8   58.01    2.02
   0  -8  -8   57.85    1.89
   0   8  -8   59.41    2.02
   0  -8  -9   50.69    1.71
   0   8  -9   51.90    1.83
   0   8   9   53.39    1.84
   0   8 -10   28.22    1.10
   0  -8 -10   27.73    1.03
   0   8  10   29.08    1.10
   0   8  11   17.78    0.75
   0  -8 -11   16.05    0.69
   0   8 -11   16.03    0.73
   0  -9   0   -0.01    0.07
   0   9   0    0.01    0.08
   0   9  -1    4.71    0.27
   0  -9  -1    4.74    0.25
   0   9   1    4.73    0.27
   0  -9   1    5.10    0.24
   0   9   2    2.67    0.21
   0  -9   2    2.82    0.18
   0   9  -2    2.92    0.20
   0  -9  -2    2.85    0.19
   0  -9  -3    3.18    0.21
   0   9  -3    3.40    0.22
   0   9   3    3.21    0.23
   0  -9   3    3.41    0.20
   0   9  -3    3.28    0.20
   0   9   4    7.18    0.37
   0   9  -4    7.39    0.34
   0   9  -4    7.50    0.35
   0  -9  -4    7.13    0.35
   0   9  -5   15.73    0.62
   0   9   5   14.92    0.64
   0  -9  -5   15.12    0.60
   0   9  -5   16.40    0.62
   0  -9  -6   18.41    0.71
   0   9  -6   19.87    0.74
   0   9   6   18.73    0.77
   0  -9  -7   13.31    0.57
   0   9  -7   14.81    0.60
   0   9   7   13.93    0.62
   0   9  -8   15.74    0.67
   0  -9  -8   15.16    0.64
   0   9   8   15.67    0.68
   0  -9  -9   15.06    0.66
   0   9   9   16.41    0.72
   0   9  -9   17.22    0.72
   0   9  10   11.60    0.58
   0   9 -10   11.80    0.58
   0  -9 -10   10.87    0.54
   0   9  11   14.23    0.68
   0 -10   0  119.46    3.56
   0  10   0  114.21    3.85
   0 -10  -1  155.52    4.69
   0 -10   1  154.63    4.68
   0  10   1  157.09    5.08
   0  10  -1  154.00    5.07
   0  10   2  154.54    5.07
   0 -10   2  154.57    4.66
   0 -10  -2  155.13    4.69
   0  10  -2  155.49    5.06
   0  10  -3  148.39    4.81
   0  10   3  147.26    4.83
   0 -10  -3  145.59    4.46
   0  10   4  131.17    4.31
   0 -10  -4  128.06    3.98
   0  10  -4  131.56    4.28
   0  10   5  102.57    3.44
   0 -10  -6   73.56    2.36
   0  10   6   74.10    2.55
   0  10  -6   75.25    2.51
   0  10   7   55.47    1.95
   0 -10  -7   53.60    1.80
   0  10  -7   56.28    1.92
   0 -10  -8   32.39    1.17
   0  10  -8   33.49    1.23
   0  10   8   32.41    1.24
   0  10   9   41.14    1.53
   0  10  -9   41.55    1.51
   0 -10  -9   40.12    1.42
   0  11   0    0.12    0.12
   0 -11   0    0.03    0.10
   0  11  -1    0.13    0.12
   0  11   1    0.35    0.13
   0 -11  -1    0.49    0.12
   0 -11   1    0.40    0.12
   0  11   2    0.80    0.15
   0  11  -2    0.76    0.14
   0 -11  -2    0.96    0.15
   0 -11  -3    5.74    0.32
   0  11  -3    5.33    0.32
   0  11   3    5.19    0.34
   0  11   4    7.34    0.42
   0  11  -4    7.32    0.39
   0 -11  -4    7.82    0.39
   0  11   5    7.17    0.41
   0 -11  -5    6.95    0.37
   0  11   6    8.57    0.47
   0 -11  -6    9.00    0.45
   0  11   7    9.70    0.51
   0 -11  -7    9.54    0.48
   0  12   0  100.19    3.35
   0 -12   0   98.69    3.08
   0 -12  -1   99.52    3.06
   0  12  -1   97.10    3.31
   0  12   1   98.56    3.32
   0 -12  -2  105.30    3.19
   0  12   2   99.37    3.45
   0 -12  -3  102.32    3.15
   0  12   3   98.86    3.40
   0  12   4   87.07    2.98
   0  12   5   68.19    2.39
   0  13   0    0.22    0.15
   0  13   1    0.45    0.16
   0 -13  -1    0.40    0.15
   0  13  -1    0.41    0.16
   0  13   2    3.34    0.30
   0 -13  -2    3.33    0.28
   0  13  -2    2.97    0.29
   0  13  -3    2.23    0.25
   0 -13  -3    1.87    0.23
   1   0   0    0.02    0.02
   1   0   0    0.05    0.02
   1   0   0    0.00    0.02
   1   0  -1   10.73    0.35
   1   0  -1   10.85    0.37
  -1   0  -1   10.79    0.33
  -1   0  -1   10.93    0.33
   1   0  -1   11.08    0.36
  -1   0   1   11.00    0.33
   1   0   1   11.03    0.38
  -1   0   1   10.46    0.33
   1   0  -1   10.85    0.34
   1   0   1   11.09    0.33
  -1   0  -2    0.39    0.04
  -1   0  -2    0.38    0.03
   1   0   2    0.41    0.04
  -1   0   2    0.35    0.03
   1   0  -2    0.37    0.03
  -1   0   2    0.45    0.03
   1   0  -2    0.30    0.04
  -1   0  -2    0.28    0.03
   1   0  -2    0.36    0.04
   1   0   2    0.34    0.05
   1   0  -3   22.62    0.72
   1   0   3   21.00    0.67
  -1   0   3   21.20    0.65
   1   0  -3   20.71    0.67
  -1   0  -3   21.50    0.73
  -1   0   3   21.72    0.70
   1   0  -3   21.82    0.68
   1   0   3   21.56    0.74
  -1   0  -3   21.38    0.65
  -1   0  -3   21.55    0.65
   1   0   4   28.88    0.99
  -1   0   4   29.79    0.95
  -1   0  -4   28.58    0.91
  -1   0  -4   28.56    0.89
  -1   0  -4   29.38    0.98
  -1   0   4   29.22    0.89
   1   0  -4   28.86    0.91
  -1   0  -4   29.01    0.89
   1   0  -4   30.49    0.98
   1   0   4   29.21    0.91
   1   0  -4   29.43    0.91
   1   0   5   14.46    0.50
  -1   0  -5   14.64    0.48
  -1   0  -5   15.09    0.54
   1   0  -5   15.16    0.53
   1   0   5   14.75    0.54
  -1   0   5   14.33    0.48
  -1   0  -5   15.12    0.47
  -1   0   5   14.69    0.50
   1   0  -5   14.39    0.50
   1   0  -5   14.39    0.49
  -1   0  -5   14.08    0.49
  -1   0  -6   16.42    0.61
   1   0  -6   17.26    0.57
  -1   0  -6   16.93    0.57
   1   0  -6   16.56    0.54
   1   0   6   15.90    0.57
   1   0  -6   16.13    0.57
  -1   0  -6   16.83    0.55
   1   0  -6   16.49    0.61
  -1   0  -6   17.63    0.54
   1   0   6   16.39    0.61
  -1   0   6   17.29    0.57
  -1   0   6   17.28    0.55
   1   0   7   11.88    0.45
  -1   0  -7   13.17    0.42
   1   0  -7   10.54    0.46
  -1   0   7   12.00    0.42
   1   0  -7   11.68    0.44
  -1   0  -7   12.57    0.43
   1   0   7   11.99    0.48
  -1   0  -7   12.45    0.48
   1   0  -7   11.79    0.44
  -1   0   8   39.32    1.21
  -1   0  -8   39.19    1.21
   1   0  -8   39.23    1.24
   1   0  -8   36.72    1.33
  -1   0  -8   39.59    1.20
  -1   0  -8   38.89    1.34
   1   0   8   37.53    1.25
   1   0  -8   39.25    1.24
   1   0   8   38.74    1.34
   1   0  -9   33.07    1.08
  -1   0   9   32.42    1.05
   1   0  -9   32.58    1.16
   1   0  -9   32.91    1.07
   1   0   9   32.65    1.15
  -1   0  -9   33.08    1.17
  -1   0 -10    5.86    0.31
   1   0 -10    5.45    0.31
   1   0 -10    5.87    0.29
   1   0 -10    5.76    0.29
  -1   0  10    5.55    0.27
  -1   0 -11    6.42    0.35
   1   0 -11    6.52    0.32
   1   0 -11    6.34    0.34
   1   0 -12    5.46    0.33
  -1   0 -12    5.39    0.33
  -1   0 -13    7.02    0.39
   1   0 -13    7.02    0.40
  -1   0 -14    4.74    0.33
   1   1   0  206.61    6.13
   1   1   0  196.59    6.61
  -1  -1   0  206.71    6.01
  -1  -1   0  199.02    6.12
   1   1   0  205.21    6.64
  -1   1   0  203.79    6.60
  -1   1   0  208.57    6.63
   1  -1   0  214.47    6.63
   1   1   1   23.63    0.73
   1   1   1   23.37    0.74
  -1   1  -1   22.40    0.72
  -1  -1   1   22.52    0.65
   1  -1  -1   22.39    0.68
   1  -1  -1   23.49    0.72
  -1   1  -1   22.71    0.65
   1  -1  -1   23.39    0.67
  -1   1  -1   23.82    0.65
  -1  -1   1   22.40    0.67
   1   1   1   23.51    0.66
  -1   1   1   20.72    0.72
   1  -1   1   20.66    0.66
  -1   1   1   20.83    0.65
  -1  -1  -1   20.85    0.65
   1  -1   1   21.63    0.67
   1   1  -1   20.70    0.66
   1   1  -1   21.28    0.72
  -1  -1  -1   20.12    0.66
   1   1  -1   20.18    0.67
   1  -1   1   21.76    0.73
   1   1  -1   20.85    0.72
  -1   1   1   20.90    0.65
   1  -1  -2   26.17    0.86
   1  -1  -2   27.84    0.91
  -1  -1   2   26.77    0.83
   1   1   2   27.76    0.93
  -1   1  -2   26.52    0.83
   1   1   2   26.79    0.93
   1  -1  -2   28.37    0.85
  -1   1  -2   27.50    0.92
   1   1   2   28.15    0.85
   1   1  -2   27.50    0.85
  -1  -1  -2   29.05    0.83
   1   1  -2   27.39    0.85
  -1  -1  -2   28.24    0.92
  -1   1   2   28.59    0.83
  -1  -1  -2   28.09    0.84
   1  -1   2   29.07    0.85
   1   1  -2   28.70    0.92
   1  -1   2   29.15    0.93
  -1   1   2   28.27    0.91
   1   1   3   11.13    0.44
   1  -1  -3   11.36    0.40
  -1   1  -3   11.60    0.43
  -1   1  -3   11.11    0.38
  -1  -1   3   11.62    0.38
   1  -1  -3   11.97    0.39
   1  -1  -3   12.32    0.41
   1   1   3   11.80    0.39
   1   1  -3   12.10    0.39
  -1   1   3   12.10    0.38
   1   1  -3   11.83    0.40
  -1  -1  -3   12.05    0.42
   1   1  -3   12.98    0.43
  -1  -1  -3   12.37    0.38
   1  -1   3   12.33    0.44
  -1  -1  -3   11.65    0.38
   1  -1   3   14.08    0.40
  -1   1   3   12.02    0.41
   1  -1  -4   35.10    1.06
   1   1   4   34.40    1.16
   1   1   4   34.71    1.07
   1  -1  -4   36.49    1.14
  -1   1  -4   34.95    1.16
   1   1   4   34.08    1.04
  -1   1  -4   35.49    1.04
  -1  -1   4   34.17    1.04
  -1   1  -4   36.44    1.04
   1  -1  -4   33.45    1.07
  -1   1  -4   34.59    1.06
  -1   1   4   33.03    1.03
   1  -1   4   33.91    1.07
  -1  -1  -4   34.65    1.05
   1   1  -4   34.94    1.15
  -1  -1  -4   34.14    1.15
   1  -1   4   34.02    1.03
  -1  -1  -4   33.96    1.04
   1   1  -4   34.21    1.06
  -1  -1  -4   33.95    1.07
   1  -1   4   34.24    1.16
  -1   1   4   34.13    1.12
   1   1  -4   32.95    1.06
  -1  -1   5   31.56    0.97
   1   1   5   31.31    0.95
  -1   1  -5   33.14    1.06
  -1  -1   5   30.66    0.94
  -1   1  -5   31.55    0.93
  -1  -1   5   31.57    1.00
  -1   1  -5   29.86    0.96
   1   1   5   31.28    1.05
   1  -1  -5   31.85    0.97
  -1   1  -5   30.72    0.94
   1  -1  -5   31.09    1.04
   1  -1  -5   29.65    0.97
   1   1   5   31.39    0.97
   1  -1   5   29.47    1.05
   1   1  -5   30.08    0.97
  -1   1   5   30.71    0.94
   1  -1   5   30.19    0.97
   1   1  -5   30.27    0.97
  -1   1   5   32.07    1.02
   1   1  -5   29.96    0.93
  -1  -1  -5   30.40    0.95
   1   1  -5   30.89    1.05
  -1  -1  -5   30.80    1.04
  -1  -1  -5   29.06    0.94
   1  -1   5   29.17    0.94
  -1  -1  -5   30.80    0.97
  -1   1  -6   55.12    1.66
  -1  -1   6   55.88    1.78
  -1  -1   6   54.11    1.66
   1  -1  -6   54.00    1.70
   1  -1  -6   53.26    1.70
   1   1   6   54.55    1.70
   1  -1  -6   51.85    1.82
  -1   1  -6   55.96    1.85
  -1   1  -6   54.70    1.69
   1   1   6   55.48    1.84
  -1   1  -6   56.76    1.66
  -1  -1  -6   55.68    1.68
  -1  -1  -6   56.73    1.83
   1   1  -6   54.14    1.65
  -1  -1  -6   54.42    1.66
  -1   1   6   57.81    1.80
   1   1  -6   55.99    1.70
   1   1  -6   54.44    1.84
   1   1  -6   55.16    1.69
  -1   1   6   54.34    1.66
  -1  -1  -6   57.46    1.70
   1  -1   6   54.51    1.83
   1  -1   6   56.45    1.71
   1  -1  -7   53.46    1.73
  -1   1  -7   55.15    1.88
   1  -1  -7   50.12    1.86
   1   1   7   54.62    1.87
   1  -1  -7   53.33    1.73
  -1  -1   7   56.84    1.69
  -1   1  -7   57.41    1.69
   1   1   7   56.79    1.75
  -1   1  -7   57.79    1.70
   1   1  -7   56.98    1.74
  -1   1   7   54.24    1.69
   1  -1   7   57.02    1.87
  -1  -1  -7   58.09    1.88
   1   1  -7   55.25    1.73
   1   1  -7   53.12    1.87
  -1  -1  -7   58.75    1.70
  -1  -1  -7   57.72    1.71
  -1   1   7   58.85    1.84
   1  -1   7   57.80    1.75
  -1   1  -8   80.38    2.64
   1   1   8   80.80    2.45
   1  -1  -8   78.12    2.62
   1  -1  -8   79.48    2.44
   1   1   8   81.13    2.63
  -1  -1   8   79.13    2.38
   1  -1  -8   79.71    2.43
  -1   1  -8   78.89    2.38
   1  -1   8   77.36    2.44
   1   1  -8   79.25    2.42
   1   1  -8   80.20    2.43
   1  -1   8   81.36    2.62
  -1   1   8   77.04    2.37
  -1  -1  -8   80.23    2.63
  -1  -1  -8   79.98    2.38
  -1  -1  -8   79.44    2.40
   1   1  -8   74.87    2.63
   1   1   9   36.59    1.25
   1  -1  -9   35.52    1.16
   1  -1  -9   35.49    1.25
   1  -1  -9   36.05    1.16
  -1   1  -9   36.32    1.26
  -1  -1   9   35.13    1.13
  -1  -1  -9   35.88    1.25
   1  -1   9   36.93    1.25
   1   1  -9   33.78    1.25
  -1   1   9   33.98    1.12
   1   1  -9   35.88    1.16
   1   1  -9   36.02    1.15
   1  -1 -10   46.66    1.51
   1  -1 -10   45.97    1.50
   1  -1 -10   48.54    1.62
   1   1  10   46.86    1.62
  -1  -1  10   46.78    1.47
  -1   1 -10   46.55    1.63
   1   1 -10   47.55    1.49
   1   1 -10   46.46    1.63
  -1  -1 -10   46.61    1.62
  -1   1  10   46.20    1.46
  -1   1 -11   40.59    1.46
   1  -1 -11   40.76    1.35
   1  -1 -11   41.98    1.45
  -1  -1 -11   40.52    1.45
   1   1 -11   41.52    1.47
   1  -1 -12   45.06    1.56
  -1   1 -12   43.11    1.57
   1   1 -12   44.83    1.58
  -1  -1 -12   43.75    1.56
  -1   1 -13   35.34    1.33
   1   1 -13   37.03    1.34
  -1  -1 -13   36.05    1.32
   1   1 -14   39.37    1.46
  -1  -2   0    3.12    0.11
   1   2   0    3.08    0.13
  -1  -2   0    3.28    0.12
  -1   2   0    3.01    0.11
   1  -2   0    2.97    0.12
   1   2   0    3.07    0.11
   1  -2   0    2.90    0.14
   1  -2   0    3.09    0.11
  -1   2   0    2.97    0.13
  -1   2   0    3.20    0.12
   1   2   0    3.09    0.13
  -1  -2   1   15.65    0.48
   1   2   1   15.85    0.53
   1   2   1   15.39    0.49
  -1   2  -1   15.62    0.53
  -1   2  -1   15.64    0.53
  -1  -2   1   15.96    0.49
   1  -2  -1   14.92    0.50
   1   2   1   15.75    0.54
  -1   2  -1   15.80    0.47
  -1  -2  -1   15.89    0.48
   1  -2   1   16.12    0.55
  -1   2   1   15.80    0.47
   1   2  -1   16.33    0.54
  -1  -2  -1   15.63    0.49
   1   2  -1   15.38    0.53
  -1   2   1   15.64    0.53
   1   2  -1   15.70    0.49
   1  -2   1   15.48    0.48
  -1  -2   2   15.78    0.50
   1   2   2   16.40    0.54
   1  -2  -2   15.61    0.52
   1  -2  -2   16.04    0.50
  -1  -2   2   15.70    0.48
   1   2   2   16.11    0.56
   1  -2  -2   15.59    0.51
  -1   2  -2   15.47    0.54
  -1   2  -2   16.08    0.49
   1   2   2   15.84    0.50
  -1   2   2   15.63    0.48
   1   2  -2   15.90    0.54
   1  -2   2   15.98    0.50
  -1   2   2   15.77    0.53
   1   2  -2   15.81    0.50
  -1  -2  -2   15.74    0.54
  -1  -2  -2   16.06    0.48
   1   2  -2   15.47    0.50
   1  -2   2   15.64    0.55
  -1  -2  -2   15.57    0.50
   1   2  -2   15.86    0.52
  -1   2  -3    0.94    0.09
  -1   2  -3    0.80    0.06
   1   2   3    0.94    0.07
   1  -2  -3    0.78    0.06
  -1  -2   3    0.82    0.06
   1  -2  -3    0.86    0.08
   1  -2  -3    0.85    0.05
  -1  -2   3    0.88    0.07
   1   2   3    0.86    0.07
   1   2   3    0.97    0.09
   1   2   3    0.82    0.07
  -1  -2  -3    0.65    0.06
   1   2  -3    0.61    0.06
   1  -2   3    0.57    0.07
  -1   2   3    0.65    0.05
  -1  -2  -3    0.68    0.06
  -1  -2  -3    0.74    0.06
   1   2  -3    0.75    0.07
   1   2  -3    0.48    0.05
  -1  -2  -3    0.61    0.06
   1   2  -3    0.61    0.04
  -1   2   3    0.52    0.06
   1  -2   3    0.59    0.06
  -1   2  -4    9.57    0.30
   1   2   4    9.78    0.38
  -1   2  -4    9.30    0.33
  -1  -2   4    9.19    0.34
  -1  -2   4    9.74    0.33
   1  -2  -4    9.45    0.34
   1  -2  -4    9.60    0.35
   1   2   4    9.45    0.34
   1   2   4    9.81    0.33
  -1   2  -4    9.23    0.38
   1  -2  -4    9.72    0.36
  -1   2   4    9.83    0.35
   1  -2   4    9.45    0.35
  -1   2   4    9.82    0.32
   1  -2   4   10.31    0.30
  -1  -2  -4    9.65    0.35
   1   2  -4    9.99    0.32
   1  -2   4    9.80    0.38
  -1  -2  -4   10.41    0.33
   1   2  -4   10.04    0.34
   1   2  -4   10.16    0.33
  -1  -2  -4   10.07    0.36
   1   2  -4   10.12    0.37
   1   2  -4    9.42    0.34
  -1  -2  -4   10.14    0.33
   1  -2  -5   32.65    1.04
   1   2   5   33.73    1.12
  -1  -2   5   32.77    1.00
   1  -2  -5   32.21    1.02
  -1  -2   5   32.70    1.02
   1  -2  -5   30.94    1.09
   1   2   5   33.49    1.00
  -1   2  -5   33.22    1.12
  -1   2  -5   32.64    0.98
  -1   2  -5   31.90    1.01
  -1   2  -5   32.42    1.00
   1   2   5   32.85    1.03
  -1   2   5   32.89    1.00
   1   2  -5   31.38    1.02
   1   2  -5   33.79    0.99
   1  -2   5   32.49    1.11
   1   2  -5   32.15    1.02
  -1  -2  -5   33.47    1.10
  -1  -2  -5   32.56    1.03
   1   2  -5   33.54    1.11
  -1   2   5   33.61    1.09
   1  -2   5   31.18    1.03
   1   2  -5   33.11    1.06
  -1  -2  -5   33.20    1.00
   1  -2   5   31.34    0.99
  -1  -2  -5   31.71    1.01
   1   2   6   24.36    0.80
   1   2   6   24.92    0.78
  -1   2  -6   24.36    0.78
  -1   2  -6   23.81    0.87
  -1   2  -6   25.79    0.75
  -1  -2   6   24.41    0.77
   1  -2  -6   21.00    0.83
   1   2   6   24.66    0.87
   1  -2  -6   24.13    0.80
   1  -2  -6   24.44    0.81
  -1   2  -6   24.46    0.77
   1  -2   6   24.61    0.86
   1   2  -6   24.86    0.79
  -1  -2  -6   24.07    0.77
  -1   2   6   24.90    0.77
  -1   2   6   24.16    0.83
  -1  -2  -6   24.83    0.85
   1   2  -6   23.81    0.86
  -1  -2  -6   24.67    0.80
   1  -2   6   24.68    0.77
   1   2  -6   25.07    0.79
  -1  -2  -6   25.29    0.78
   1  -2   6   23.84    0.81
  -1  -2   7   22.75    0.73
   1   2   7   22.68    0.76
  -1   2  -7   23.35    0.83
   1  -2  -7   23.63    0.77
   1   2   7   22.47    0.82
   1  -2  -7   21.55    0.80
   1  -2  -7   22.21    0.76
  -1   2  -7   23.24    0.74
   1   2  -7   22.18    0.82
   1   2  -7   23.50    0.75
  -1  -2  -7   23.76    0.75
  -1  -2  -7   22.74    0.81
   1  -2   7   22.81    0.82
  -1   2   7   22.71    0.79
  -1  -2  -7   22.99    0.73
   1  -2   7   22.72    0.77
  -1   2   7   22.58    0.73
   1   2  -7   22.08    0.76
  -1   2  -8   15.76    0.55
   1  -2  -8   15.10    0.59
   1   2   8   15.62    0.57
   1   2   8   15.87    0.61
  -1   2  -8   16.13    0.62
  -1  -2   8   15.33    0.54
   1  -2  -8   15.91    0.57
   1  -2  -8   15.41    0.57
   1   2  -8   15.71    0.56
  -1   2   8   15.86    0.55
   1   2  -8   15.14    0.62
   1  -2   8   15.57    0.58
   1   2  -8   16.29    0.56
   1  -2   8   16.40    0.61
  -1  -2  -8   16.46    0.61
  -1  -2  -8   16.23    0.55
   1  -2  -9   14.18    0.53
  -1  -2   9   13.70    0.49
   1  -2  -9   13.74    0.55
  -1   2  -9   14.10    0.57
   1   2   9   13.59    0.56
  -1  -2  -9   13.75    0.55
  -1  -2  -9   14.26    0.51
   1   2  -9   14.07    0.51
   1   2  -9   13.05    0.51
   1   2  -9   13.35    0.57
  -1   2   9   13.47    0.49
   1  -2   9   13.27    0.55
  -1   2 -10   13.29    0.57
   1  -2 -10   13.87    0.56
   1   2  10   13.14    0.56
   1  -2 -10   14.11    0.54
  -1   2  10   14.17    0.51
   1   2 -10   13.13    0.58
  -1  -2 -10   14.06    0.56
  -1   2 -11   11.35    0.52
   1  -2 -11   12.14    0.49
  -1  -2 -11   11.52    0.51
   1   2 -11   11.87    0.54
  -1   2 -12    9.62    0.48
   1  -2 -12    9.35    0.44
  -1  -2 -12    9.66    0.46
   1   2 -12   10.14    0.49
  -1   2 -13    3.90    0.30
  -1  -2 -13    4.16    0.29
   1   2 -13    4.30    0.32
   1   2 -14    0.98    0.21
   1  -3   0    2.31    0.10
  -1   3   0    2.28    0.09
  -1  -3   0    2.21    0.10
   1  -3   0    2.50    0.11
   1   3   0    2.43    0.12
   1   3   0    2.17    0.11
  -1   3   0    2.15    0.09
  -1  -3   0    2.24    0.11
  -1   3   0    2.20    0.12
  -1  -3   0    2.28    0.11
   1   3   0    2.22    0.10
  -1   3  -1   18.02    0.48
   1  -3  -1   18.24    0.51
  -1  -3   1   17.31    0.48
   1   3   1   18.15    0.53
   1  -3  -1   18.08    0.49
  -1  -3   1   17.69    0.50
  -1   3  -1   18.31    0.54
  -1   3  -1   17.74    0.53
   1   3  -1   13.69    0.48
  -1   3   1   13.66    0.47
   1   3  -1   13.38    0.47
  -1  -3  -1   13.41    0.49
  -1   3   1   14.04    0.53
   1  -3   1   13.59    0.49
   1   3  -1   13.62    0.52
   1  -3   1   13.39    0.48
   1   3  -1   13.39    0.53
  -1  -3  -1   13.81    0.49
  -1  -3  -1   13.80    0.47
  -1   3  -2   43.48    1.33
  -1  -3   2   44.60    1.33
   1  -3  -2   46.74    1.37
   1   3   2   44.49    1.49
  -1   3  -2   45.97    1.48
  -1  -3   2   44.53    1.36
   1   3   2   45.13    1.48
  -1  -3   2   43.92    1.37
   1  -3  -2   44.73    1.38
  -1   3  -2   42.90    1.48
   1   3   2   44.72    1.36
   1   3   2   45.74    1.34
   1   3  -2   46.05    1.46
  -1   3   2   45.37    1.33
   1   3  -2   45.37    1.36
   1   3  -2   45.50    1.48
   1  -3   2   44.18    1.34
  -1  -3  -2   46.75    1.37
   1   3  -2   45.26    1.33
   1  -3   2   45.16    1.49
  -1  -3  -2   44.90    1.33
  -1   3   2   46.31    1.47
  -1  -3  -2   43.62    1.36
   1   3   3   58.82    2.00
  -1  -3   3   58.78    1.79
  -1   3  -3   57.51    1.79
  -1   3  -3   56.31    1.99
  -1  -3   3   57.14    1.82
  -1   3  -3   59.99    1.98
   1  -3  -3   61.81    1.84
   1   3   3   57.29    1.98
  -1  -3   3   57.45    1.84
   1   3   3   56.86    1.80
   1  -3  -3   61.71    1.96
   1  -3  -3   58.00    1.85
   1   3   3   59.04    1.83
   1   3  -3   62.50    1.83
   1   3  -3   62.16    1.99
  -1   3   3   62.86    1.98
  -1  -3  -3   61.68    1.84
   1  -3   3   63.44    1.85
   1  -3   3   63.94    2.00
  -1  -3  -3   63.62    1.98
  -1  -3  -3   63.43    1.80
  -1  -3  -3   60.73    1.83
   1   3  -3   59.35    1.83
   1   3  -3   64.29    1.96
   1   3  -3   63.03    1.79
   1  -3   3   64.08    1.81
  -1   3   3   63.84    1.79
   1   3   4  100.79    3.24
   1   3   4  100.31    2.93
  -1  -3   4   97.72    2.99
  -1  -3   4   99.45    2.97
   1   3   4  100.76    2.99
   1  -3  -4   99.01    3.20
  -1   3  -4  104.54    2.98
  -1   3  -4  100.67    3.22
  -1   3  -4   98.25    3.24
   1  -3  -4   99.04    3.00
  -1   3  -4   97.97    2.92
   1  -3  -4  101.27    2.99
  -1  -3  -4   99.60    2.92
   1   3  -4   95.67    2.92
   1   3  -4  100.81    3.19
   1  -3   4   99.70    3.00
  -1  -3  -4   98.38    2.99
   1   3  -4  101.75    3.23
  -1   3   4  100.52    2.92
  -1   3   4  100.13    3.21
  -1  -3  -4   97.10    2.97
   1  -3   4   98.76    3.24
   1   3  -4   94.71    2.97
   1  -3   4  100.33    2.95
  -1  -3  -4   99.53    3.21
   1  -3  -5   24.94    0.86
  -1  -3   5   27.12    0.82
   1  -3  -5   28.54    0.84
  -1   3  -5   26.62    0.91
  -1  -3   5   26.91    0.83
  -1   3  -5   27.80    0.82
   1   3   5   27.48    0.83
   1  -3  -5   26.46    0.85
  -1   3  -5   27.19    0.81
  -1  -3   5   27.12    0.80
   1   3   5   27.15    0.91
   1   3  -5   24.16    0.82
   1   3  -5   24.79    0.84
  -1   3   5   24.99    0.88
  -1  -3  -5   25.54    0.88
   1  -3   5   25.52    0.90
   1  -3   5   25.13    0.84
  -1  -3  -5   24.23    0.80
   1  -3   5   25.43    0.78
  -1   3   5   24.69    0.80
   1   3  -5   25.45    0.82
   1   3  -5   24.15    0.89
   1   3  -5   23.41    0.79
  -1  -3  -5   23.77    0.81
   1  -3  -6   31.54    1.05
   1   3   6   32.91    1.06
  -1  -3   6   32.64    1.02
   1  -3  -6   31.56    1.07
  -1   3  -6   32.83    1.03
   1   3   6   32.41    1.15
  -1  -3   6   32.91    1.04
   1   3   6   33.35    1.03
  -1   3  -6   32.16    1.15
   1   3  -6   32.84    1.14
   1   3  -6   33.14    1.05
  -1  -3  -6   33.54    1.02
  -1   3   6   32.97    1.02
   1  -3   6   34.39    1.14
   1  -3   6   33.27    1.07
  -1   3   6   33.76    1.12
   1   3  -6   33.00    1.04
  -1  -3  -6   32.36    1.04
  -1  -3  -6   34.91    1.07
  -1  -3  -6   33.75    1.12
  -1   3  -7   34.37    1.19
   1   3   7   34.69    1.10
  -1  -3   7   32.07    1.06
   1   3   7   33.50    1.19
   1  -3  -7   33.03    1.10
  -1   3  -7   31.95    1.06
   1  -3  -7   33.51    1.10
   1  -3  -7   30.73    1.15
  -1   3   7   36.36    1.16
  -1  -3  -7   35.76    1.06
   1   3  -7   33.79    1.08
   1  -3   7   34.17    1.11
   1  -3   7   35.42    1.18
  -1  -3  -7   33.91    1.08
   1   3  -7   33.77    1.19
  -1   3   7   34.98    1.06
   1   3  -7   34.69    1.09
  -1  -3  -7   34.47    1.16
  -1   3  -8   36.84    1.26
   1  -3  -8   35.86    1.16
   1  -3  -8   36.06    1.17
  -1   3  -8   35.33    1.13
  -1  -3   8   35.10    1.12
   1   3   8   35.53    1.25
  -1  -3  -8   36.07    1.15
   1   3  -8   36.43    1.14
   1   3  -8   35.39    1.15
  -1  -3  -8   35.99    1.23
  -1   3   8   36.37    1.22
   1  -3   8   36.56    1.25
  -1   3   8   35.20    1.12
   1   3  -8   33.81    1.26
   1  -3   8   34.92    1.17
  -1  -3   9   45.34    1.45
   1   3   9   47.93    1.62
   1  -3  -9   47.67    1.51
   1  -3  -9   47.03    1.50
  -1   3  -9   47.33    1.62
   1   3  -9   47.64    1.47
   1   3  -9   43.61    1.62
  -1   3   9   45.43    1.45
  -1  -3  -9   47.36    1.60
  -1  -3  -9   46.89    1.48
  -1   3 -10   49.78    1.74
   1  -3 -10   50.73    1.62
   1   3  10   50.28    1.73
   1  -3 -10   49.76    1.62
  -1   3  10   50.73    1.57
  -1  -3 -10   50.77    1.59
   1   3 -10   48.01    1.75
  -1  -3 -10   50.51    1.72
   1  -3 -11   49.78    1.63
  -1   3 -11   49.43    1.76
  -1  -3 -11   51.24    1.74
  -1   3 -12   52.62    1.87
   1  -3 -12   53.06    1.73
   1   3 -12   53.79    1.89
   1  -3 -13   29.24    1.06
  -1   3 -13   30.33    1.16
   1   3 -13   31.00    1.18
   1   4   0    1.93    0.10
  -1   4   0    1.93    0.09
   1   4   0    1.85    0.10
   1  -4   0    1.83    0.10
   1  -4   0    2.04    0.11
  -1  -4   0    1.93    0.11
  -1   4   0    1.83    0.09
  -1  -4   0    1.88    0.09
  -1   4   0    1.91    0.11
  -1  -4   0    2.06    0.11
   1   4   0    2.12    0.12
   1   4   0    2.00    0.11
  -1  -4   1    2.72    0.13
  -1   4  -1    2.68    0.12
   1   4   1    2.68    0.12
  -1   4  -1    2.52    0.13
  -1  -4   1    2.66    0.13
   1  -4  -1    2.78    0.13
   1  -4  -1    2.53    0.12
   1   4   1    2.61    0.14
   1   4   1    2.73    0.12
   1   4   1    2.57    0.13
  -1  -4   1    2.60    0.11
  -1   4  -1    2.65    0.11
  -1   4   1    2.42    0.13
   1  -4   1    2.60    0.13
   1   4  -1    2.47    0.13
  -1   4   1    2.51    0.11
   1   4  -1    2.52    0.12
  -1  -4  -1    2.48    0.11
  -1  -4  -1    2.45    0.13
  -1  -4  -1    2.43    0.12
   1   4  -1    2.61    0.13
   1  -4   1    2.65    0.12
   1   4  -1    2.52    0.11
  -1   4  -2    3.43    0.14
  -1  -4   2    3.58    0.15
   1   4   2    3.54    0.18
   1   4   2    3.76    0.15
   1   4   2    3.47    0.15
   1  -4  -2    3.49    0.17
  -1  -4   2    3.57    0.15
   1  -4  -2    3.49    0.16
  -1   4  -2    3.70    0.16
   1   4   2    3.60    0.16
  -1   4  -2    3.47    0.17
   1   4  -2    3.50    0.14
  -1  -4  -2    3.42    0.16
  -1  -4  -2    3.70    0.16
   1   4  -2    3.43    0.15
  -1  -4  -2    3.69    0.15
   1   4  -2    3.64    0.17
  -1   4   2    3.57    0.14
   1  -4   2    3.40    0.16
   1   4  -2    3.68    0.16
   1  -4   2    3.49    0.14
  -1   4   2    3.43    0.17
   1  -4  -3   11.64    0.41
   1   4   3   11.82    0.41
   1   4   3   11.17    0.44
   1   4   3   11.56    0.38
  -1  -4   3   11.75    0.39
   1  -4  -3   11.61    0.40
  -1   4  -3   11.33    0.37
  -1  -4   3   11.45    0.38
  -1  -4   3   11.24    0.40
   1   4   3   11.31    0.39
  -1   4  -3   11.14    0.42
  -1   4  -3   11.27    0.42
   1   4  -3   10.91    0.38
   1  -4   3   11.03    0.39
   1  -4   3   11.24    0.36
   1   4  -3   11.58    0.40
  -1   4   3   10.69    0.41
   1   4  -3   11.42    0.42
   1   4  -3   11.15    0.37
   1  -4   3   10.59    0.44
  -1  -4  -3   11.27    0.40
  -1  -4  -3   11.41    0.39
  -1  -4  -3   11.62    0.41
  -1   4   3   11.61    0.37
  -1  -4  -3   11.41    0.38
   1  -4  -4   25.59    0.88
   1   4   4   26.47    0.94
   1  -4  -4   26.98    0.86
  -1  -4   4   27.61    0.85
  -1   4  -4   26.52    0.92
  -1   4  -4   25.47    0.93
  -1  -4   4   25.84    0.86
  -1   4  -4   27.23    0.84
   1   4   4   26.29    0.86
  -1  -4   4   27.08    0.84
   1  -4  -4   26.44    0.88
   1  -4   4   26.34    0.94
   1  -4   4   26.72    0.82
   1   4  -4   26.69    0.86
  -1  -4  -4   28.22    0.84
   1   4  -4   27.87    0.90
   1   4  -4   27.66    0.94
  -1   4   4   28.30    0.84
  -1   4   4   27.14    0.92
  -1  -4  -4   28.03    0.91
  -1  -4  -4   28.50    0.87
  -1  -4  -4   27.31    0.86
   1   4  -4   27.04    0.83
   1  -4   4   27.08    0.87
  -1  -4   5   22.33    0.71
   1   4   5   23.02    0.74
  -1  -4   5   23.47    0.72
   1  -4  -5   22.77    0.76
   1   4   5   23.69    0.72
  -1   4  -5   21.29    0.80
  -1   4  -5   22.78    0.71
   1   4   5   22.00    0.81
   1  -4  -5   22.43    0.74
  -1   4  -5   22.05    0.78
  -1   4   5   22.26    0.78
   1   4  -5   22.88    0.75
   1   4  -5   22.67    0.80
   1   4  -5   21.99    0.72
  -1   4   5   22.43    0.71
  -1  -4  -5   22.82    0.77
   1  -4   5   21.15    0.74
   1   4  -5   21.85    0.73
  -1  -4  -5   20.83    0.72
  -1  -4  -5   22.69    0.71
   1  -4   5   21.71    0.80
  -1   4  -6    7.99    0.36
   1   4   6    7.89    0.36
  -1  -4   6    8.70    0.31
  -1   4  -6    7.85    0.31
  -1  -4   6    8.32    0.31
  -1   4  -6    7.68    0.33
   1  -4  -6    7.82    0.33
   1  -4  -6    8.11    0.35
  -1   4   6    7.68    0.34
  -1  -4  -6    8.36    0.33
   1  -4   6    8.03    0.36
  -1  -4  -6    8.34    0.32
   1   4  -6    8.73    0.36
   1   4  -6    8.69    0.32
   1   4  -6    8.14    0.32
  -1   4   6    8.20    0.31
  -1  -4  -6    8.63    0.31
  -1  -4   7   15.35    0.51
   1  -4  -7   14.49    0.53
  -1   4  -7   14.29    0.55
  -1   4  -7   14.63    0.58
  -1  -4   7   14.81    0.51
   1   4   7   14.78    0.59
   1   4   7   14.31    0.53
  -1   4  -7   14.81    0.51
   1  -4  -7   15.17    0.55
   1   4  -7   15.46    0.52
   1   4  -7   14.55    0.58
   1  -4   7   14.67    0.58
   1  -4   7   14.15    0.54
  -1  -4  -7   14.52    0.51
  -1   4   7   14.86    0.51
  -1   4   7   14.25    0.55
  -1  -4  -7   14.74    0.55
  -1  -4  -7   14.56    0.53
   1  -4  -8   14.97    0.57
  -1  -4   8   15.72    0.54
  -1   4  -8   14.51    0.61
  -1   4  -8   15.36    0.58
  -1   4  -8   15.02    0.54
   1  -4  -8   15.40    0.58
   1   4   8   15.63    0.62
  -1   4   8   15.57    0.59
  -1  -4  -8   15.75    0.59
   1  -4   8   14.75    0.58
   1   4  -8   15.95    0.55
  -1   4   8   15.04    0.54
  -1  -4  -8   15.54    0.56
   1   4  -8   14.94    0.62
   1  -4   8   15.68    0.61
   1   4   9   15.38    0.63
   1  -4  -9   15.71    0.59
  -1   4  -9   15.53    0.63
   1  -4  -9   15.24    0.58
  -1  -4  -9   15.30    0.60
  -1  -4  -9   15.65    0.57
  -1   4   9   15.62    0.55
   1   4  -9   14.27    0.63
  -1   4 -10   15.39    0.65
   1  -4 -10   15.83    0.61
   1   4  10   15.89    0.65
  -1  -4 -10   16.15    0.59
  -1   4  10   15.46    0.58
   1   4 -10   15.23    0.66
  -1   4 -11    7.46    0.40
   1  -4 -11    7.71    0.38
   1   4  11    7.48    0.40
   1   4 -11    6.93    0.40
   1  -4 -12    8.18    0.41
  -1   4 -12    8.21    0.44
   1   4 -12    7.44    0.44
  -1   4 -13    5.57    0.37
   1  -4 -13    5.24    0.34
   1   4 -13    4.68    0.36
   1  -5   0   17.92    0.59
   1   5   0   18.00    0.59
  -1  -5   0   18.49    0.60
   1   5   0   17.70    0.57
   1  -5   0   18.04    0.59
   1   5   0   18.87    0.65
  -1   5   0   17.97    0.57
  -1  -5   0   17.99    0.57
  -1  -5   0   17.45    0.59
  -1   5   0   19.59    0.61
  -1   5   0   18.14    0.64
   1   5   0   17.48    0.63
   1   5   1   30.09    0.98
  -1  -5   1   29.99    0.91
  -1   5  -1   30.92    0.99
   1   5   1   30.53    0.91
  -1   5  -1   32.07    0.97
   1  -5  -1   31.11    0.92
   1   5   1   29.87    0.89
  -1   5  -1   30.51    0.89
  -1  -5   1   31.67    0.93
   1   5   1   30.63    1.00
   1  -5  -1   30.78    0.92
  -1  -5  -1   27.11    0.92
   1   5  -1   28.20    0.91
  -1   5   1   27.47    0.94
   1  -5   1   27.50    0.90
   1   5  -1   26.40    0.98
  -1  -5  -1   26.76    0.91
  -1   5   1   28.62    0.89
  -1  -5  -1   27.88    0.89
   1  -5   1   27.68    0.92
  -1   5   1   27.59    0.99
   1   5  -1   27.13    0.98
   1   5   2   19.76    0.72
  -1  -5   2   19.65    0.65
   1   5   2   19.74    0.65
  -1   5  -2   21.52    0.70
  -1   5  -2   19.70    0.70
   1   5   2   19.67    0.69
   1  -5  -2   20.69    0.66
  -1   5  -2   19.50    0.63
   1  -5  -2   19.53    0.66
  -1  -5   2   19.55    0.63
  -1  -5   2   19.92    0.66
   1   5  -2   19.71    0.70
   1   5  -2   20.17    0.63
   1  -5   2   20.34    0.63
   1  -5   2   20.38    0.66
  -1  -5  -2   19.73    0.63
   1   5  -2   20.21    0.70
  -1  -5  -2   19.78    0.65
  -1   5   2   20.75    0.63
  -1   5   2   20.86    0.71
   1   5  -2   20.72    0.65
   1  -5  -3   29.76    0.96
   1   5   3   27.73    1.04
   1  -5  -3   28.08    0.96
  -1   5  -3   29.00    1.02
   1   5   3   29.77    0.95
  -1  -5   3   29.20    0.92
  -1   5  -3   29.12    0.92
  -1  -5   3   28.62    0.96
  -1   5  -3   29.75    1.02
   1   5   3   30.15    0.93
   1   5   3   29.04    1.01
  -1  -5   3   29.13    0.94
   1   5  -3   30.89    1.03
  -1  -5  -3   31.79    1.01
  -1  -5  -3   30.78    0.92
   1  -5   3   31.87    0.92
   1  -5   3   30.85    0.96
  -1  -5  -3   29.42    0.95
  -1  -5  -3   31.44    0.96
  -1   5   3   31.00    0.92
   1   5  -3   31.72    1.01
  -1   5   3   30.68    1.03
   1   5  -3   31.08    0.95
  -1  -5   4   32.54    1.00
   1  -5  -4   32.73    1.04
   1   5   4   32.81    1.01
   1  -5  -4   33.05    1.02
  -1   5  -4   32.67    0.99
  -1   5  -4   32.95    1.09
   1   5   4   31.21    1.11
  -1  -5   4   32.11    0.98
  -1   5  -4   31.89    1.09
   1   5   4   32.04    1.08
  -1   5   4   31.48    0.98
   1   5  -4   31.37    0.98
   1   5  -4   32.13    1.07
   1   5  -4   31.26    1.01
  -1  -5  -4   32.66    0.98
  -1  -5  -4   32.30    1.07
   1  -5   4   31.73    0.97
   1  -5   4   30.60    1.02
  -1   5   4   31.12    1.09
  -1  -5  -4   30.60    1.01
   1   5  -4   30.42    1.09
  -1  -5   5   49.64    1.48
   1  -5  -5   49.76    1.53
   1  -5  -5   49.52    1.54
   1   5   5   48.66    1.66
   1   5   5   49.70    1.49
  -1   5  -5   50.59    1.63
  -1  -5   5   49.72    1.50
  -1   5  -5   50.37    1.48
  -1   5  -5   49.29    1.65
   1   5  -5   48.35    1.60
  -1  -5  -5   48.84    1.61
   1  -5   5   46.74    1.65
   1  -5   5   47.13    1.53
  -1  -5  -5   47.87    1.52
   1   5  -5   47.88    1.52
  -1  -5  -5   47.13    1.48
   1   5  -5   48.30    1.65
  -1   5   5   48.79    1.63
  -1  -5   6   35.78    1.13
   1  -5  -6   34.66    1.18
  -1   5  -6   36.25    1.24
  -1   5  -6   35.21    1.13
  -1  -5   6   34.87    1.14
   1  -5  -6   36.94    1.17
  -1   5  -6   35.40    1.26
   1   5   6   34.45    1.27
   1   5   6   37.05    1.17
   1  -5   6   38.30    1.19
   1  -5   6   37.71    1.27
  -1  -5  -6   37.21    1.22
   1   5  -6   36.17    1.16
  -1  -5  -6   35.23    1.16
  -1   5   6   35.99    1.13
  -1   5   6   37.11    1.25
   1   5  -6   38.12    1.27
  -1  -5  -6   37.17    1.13
   1  -5  -7   28.75    1.00
  -1   5  -7   28.99    1.03
  -1   5  -7   29.11    1.06
  -1   5  -7   29.25    0.95
   1   5   7   28.10    1.07
  -1  -5   7   28.79    0.95
  -1  -5   7   29.08    0.95
   1   5  -7   30.09    0.98
   1   5  -7   29.19    1.07
   1  -5   7   30.89    1.00
  -1  -5  -7   30.55    0.98
  -1   5   7   31.22    1.05
  -1   5   7   30.39    0.95
   1  -5   7   30.36    1.07
  -1  -5  -7   30.49    1.03
   1   5   8   29.85    1.10
   1  -5  -8   30.31    1.03
  -1   5  -8   29.69    1.09
   1  -5  -8   31.57    1.02
  -1   5  -8   30.11    1.06
  -1   5   8   30.50    0.98
  -1  -5  -8   29.07    1.00
  -1   5   8   30.25    1.07
   1  -5  -9   47.88    1.51
   1   5   9   47.69    1.63
   1  -5  -9   45.61    1.51
  -1   5  -9   46.06    1.62
  -1   5   9   46.97    1.45
  -1  -5  -9   45.39    1.49
   1   5  -9   41.19    1.61
  -1   5   9   48.17    1.59
   1   5  10   45.72    1.61
  -1   5 -10   46.32    1.61
   1  -5 -10   44.30    1.49
  -1  -5 -10   45.61    1.48
   1   5 -10   44.36    1.62
   1  -5 -11   41.15    1.40
   1   5  11   41.78    1.50
  -1   5 -11   42.86    1.51
   1   5 -11   40.04    1.51
  -1  -5 -11   42.04    1.38
   1  -5 -12   29.31    1.08
  -1   5 -12   31.78    1.18
   1   5 -12   30.16    1.18
   1  -5 -13   34.18    1.22
  -1  -6   0    0.32    0.05
   1   6   0    0.34    0.05
   1  -6   0    0.32    0.06
  -1   6   0    0.32    0.04
  -1   6   0    0.29    0.05
  -1   6   0    0.29    0.06
   1   6   0    0.33    0.07
  -1  -6   0    0.31    0.06
   1  -6   0    0.39    0.07
  -1  -6   0    0.35    0.06
   1   6   0    0.33    0.06
   1   6   0    0.35    0.06
  -1  -6   1    2.59    0.15
  -1   6  -1    2.18    0.14
   1   6   1    2.52    0.14
  -1   6  -1    2.47    0.12
   1   6   1    2.68    0.13
  -1   6  -1    2.56    0.13
  -1  -6   1    2.51    0.13
   1   6   1    2.38    0.16
   1   6   1    2.42    0.14
  -1  -6   1    2.35    0.14
   1  -6  -1    2.61    0.15
   1  -6  -1    2.50    0.15
   1  -6   1    2.41    0.14
  -1  -6  -1    2.29    0.14
  -1   6   1    2.33    0.15
   1  -6   1    2.43    0.14
  -1  -6  -1    2.36    0.13
   1   6  -1    2.28    0.14
  -1  -6  -1    2.40    0.15
   1   6  -1    2.42    0.15
   1   6  -1    2.44    0.13
  -1   6   1    2.58    0.13
   1   6  -1    2.53    0.13
  -1  -6   2    2.84    0.15
   1   6   2    3.07    0.16
   1  -6  -2    2.75    0.17
   1   6   2    2.82    0.15
   1   6   2    3.24    0.15
  -1   6  -2    2.62    0.14
  -1   6  -2    3.18    0.15
  -1   6  -2    2.65    0.16
  -1  -6   2    3.06    0.17
  -1  -6   2    2.85    0.14
   1  -6  -2    3.03    0.16
   1   6   2    2.96    0.18
   1   6  -2    3.01    0.15
   1  -6   2    2.83    0.14
  -1  -6  -2    2.78    0.14
   1   6  -2    3.14    0.17
  -1  -6  -2    3.01    0.17
   1   6  -2    2.76    0.16
  -1   6   2    2.88    0.17
   1   6  -2    2.85    0.15
  -1  -6  -2    3.10    0.16
   1  -6   2    2.78    0.16
  -1   6   2    2.79    0.14
   1   6   3    8.93    0.39
  -1   6  -3    8.90    0.37
   1  -6  -3    8.59    0.35
  -1   6  -3    9.06    0.33
   1   6   3    9.26    0.33
  -1   6  -3    9.19    0.36
   1   6   3    9.39    0.35
  -1  -6   3    8.89    0.32
   1  -6  -3    9.09    0.36
   1   6   3    9.41    0.34
  -1  -6   3    9.16    0.33
  -1   6   3    8.57    0.37
  -1  -6  -3    9.01    0.34
   1   6  -3    9.12    0.37
   1  -6   3    8.91    0.32
   1   6  -3    9.37    0.36
  -1   6   3    8.76    0.32
   1   6  -3    8.78    0.34
  -1  -6  -3    9.14    0.35
   1  -6   3    8.72    0.35
   1   6   4    5.12    0.22
  -1  -6   4    4.87    0.21
  -1  -6   4    4.62    0.21
  -1   6  -4    5.02    0.24
   1  -6  -4    4.78    0.23
  -1   6  -4    4.58    0.23
   1   6   4    4.59    0.26
  -1   6  -4    4.67    0.21
   1  -6  -4    4.64    0.24
   1   6   4    4.99    0.22
  -1  -6  -4    5.22    0.21
   1   6  -4    5.23    0.23
   1   6  -4    4.87    0.24
  -1  -6  -4    5.27    0.23
   1  -6   4    4.51    0.23
  -1   6   4    4.81    0.24
  -1  -6  -4    5.15    0.21
  -1   6   4    4.86    0.21
  -1   6  -5    6.64    0.31
   1  -6  -5    6.77    0.32
   1   6   5    6.70    0.33
  -1   6  -5    7.01    0.32
  -1  -6   5    7.25    0.28
  -1   6  -5    7.04    0.28
  -1  -6  -5    6.90    0.28
  -1  -6  -5    7.14    0.28
   1   6  -5    6.94    0.32
  -1   6   5    6.98    0.28
   1  -6   5    6.88    0.31
  -1  -6  -5    6.78    0.30
   1   6  -5    6.57    0.29
  -1   6   5    6.48    0.31
   1   6   6   23.29    0.87
   1  -6  -6   23.43    0.80
  -1   6  -6   23.09    0.86
  -1  -6   6   24.13    0.76
   1  -6  -6   23.10    0.81
  -1   6  -6   23.03    0.83
  -1   6  -6   22.71    0.76
  -1   6   6   22.79    0.84
   1   6  -6   23.56    0.86
  -1  -6  -6   24.17    0.80
   1  -6   6   22.69    0.80
  -1   6  -7   14.93    0.55
  -1   6  -7   15.45    0.60
  -1  -6   7   16.70    0.55
   1   6   7   14.41    0.62
   1  -6  -7   15.03    0.59
  -1   6  -7   16.10    0.63
   1  -6  -7   15.10    0.58
   1  -6   7   15.08    0.59
  -1  -6  -7   15.91    0.58
   1   6  -7   15.82    0.63
  -1   6   7   15.77    0.55
  -1   6   7   16.37    0.62
  -1   6  -8   12.05    0.51
   1  -6  -8   11.84    0.48
   1  -6  -8   11.53    0.49
   1   6   8   11.57    0.52
   1   6  -8   11.64    0.52
  -1   6   8   10.79    0.48
  -1  -6  -8   11.71    0.47
   1  -6  -9    9.27    0.42
   1  -6  -9    8.92    0.43
  -1   6  -9    9.05    0.45
   1   6   9    9.74    0.46
  -1  -6  -9    9.24    0.41
   1   6  -9    9.14    0.46
  -1   6   9    9.10    0.43
  -1   6 -10    8.73    0.44
   1  -6 -10    8.05    0.42
   1   6  10    8.66    0.45
  -1  -6 -10    8.33    0.40
   1   6 -10    8.27    0.44
   1  -6 -11    9.34    0.46
  -1   6 -11    9.16    0.48
   1   6  11    8.93    0.48
  -1  -6 -11    9.88    0.45
   1   6 -11    9.64    0.50
  -1   6 -12    3.63    0.31
   1  -6 -12    3.97    0.30
  -1  -6 -12    4.24    0.30
   1   6 -12    3.92    0.33
   1   7   0   22.84    0.81
   1   7   0   22.75    0.78
   1  -7   0   21.61    0.75
   1  -7   0   22.84    0.74
  -1   7   0   21.97    0.80
  -1   7   0   23.07    0.72
  -1  -7   0   22.16    0.72
  -1  -7   0   22.34    0.74
   1   7   1   29.38    1.03
  -1  -7   1   28.49    0.93
  -1   7  -1   30.75    0.98
   1   7   1   29.73    0.93
  -1   7  -1   29.04    0.91
   1  -7  -1   29.90    0.95
   1  -7  -1   29.93    0.95
  -1   7  -1   29.36    1.02
   1   7   1   29.29    0.99
  -1  -7   1   29.94    0.91
  -1   7   1   29.75    0.91
   1   7  -1   29.32    0.94
  -1   7   1   28.32    1.02
  -1  -7  -1   28.02    0.94
   1   7  -1   28.61    1.02
   1  -7   1   28.39    0.95
   1   7  -1   28.10    1.00
  -1  -7  -1   28.19    0.91
   1  -7   1   29.22    0.93
  -1   7  -2   26.46    0.83
   1   7   2   26.10    0.90
  -1  -7   2   26.61    0.86
   1   7   2   26.72    0.86
  -1   7  -2   26.24    0.93
   1  -7  -2   25.87    0.87
  -1   7  -2   28.09    0.90
   1   7   2   26.32    0.95
   1  -7  -2   27.29    0.88
  -1  -7   2   26.74    0.84
   1  -7   2   26.78    0.87
   1  -7   2   26.93    0.85
  -1  -7  -2   26.29    0.83
   1   7  -2   26.25    0.93
   1   7  -2   25.82    0.92
  -1   7   2   24.94    0.83
   1   7  -2   26.94    0.86
  -1  -7  -2   25.33    0.86
  -1   7   2   25.78    0.93
  -1   7  -3   22.36    0.77
   1   7   3   21.59    0.81
  -1   7  -3   21.22    0.71
  -1  -7   3   21.35    0.72
   1  -7  -3   21.55    0.75
   1   7   3   21.22    0.76
  -1   7  -3   22.17    0.79
  -1  -7   3   20.98    0.71
   1   7   3   21.88    0.73
   1  -7  -3   22.53    0.75
  -1  -7  -3   21.59    0.70
  -1   7   3   22.04    0.79
   1  -7   3   22.49    0.75
   1   7  -3   21.93    0.78
   1  -7   3   23.03    0.71
  -1   7   3   22.61    0.71
  -1  -7  -3   21.85    0.74
   1   7  -3   22.00    0.78
  -1   7  -4    4.57    0.23
   1  -7  -4    4.59    0.23
   1   7   4    4.32    0.26
  -1  -7   4    4.39    0.21
   1  -7  -4    4.74    0.25
  -1   7  -4    4.73    0.21
  -1  -7   4    4.69    0.22
  -1   7  -4    4.81    0.23
   1   7  -4    4.07    0.22
  -1   7   4    4.28    0.21
   1   7  -4    4.02    0.21
  -1  -7  -4    3.83    0.22
   1   7  -4    4.49    0.24
  -1   7   4    4.73    0.25
   1  -7   4    4.25    0.23
  -1   7  -5   29.91    0.99
  -1   7  -5   28.38    0.89
   1  -7  -5   28.52    0.93
  -1   7  -5   28.15    0.98
  -1  -7   5   28.36    0.90
   1   7   5   26.27    1.01
   1  -7  -5   27.96    0.95
   1  -7   5   28.15    0.94
  -1  -7  -5   26.34    0.92
  -1   7   5   27.16    0.99
  -1   7   5   27.75    0.89
   1   7  -5   26.27    0.99
   1  -7  -6   32.39    1.12
   1  -7  -6   33.53    1.12
  -1   7  -6   33.61    1.18
   1   7   6   32.57    1.21
  -1  -7   6   33.62    1.08
  -1   7  -6   34.89    1.08
  -1   7  -6   34.71    1.19
   1   7  -6   32.56    1.19
  -1  -7  -6   33.13    1.11
   1  -7   6   35.26    1.13
  -1   7   6   33.65    1.19
  -1   7   6   34.25    1.07
  -1   7  -7   47.70    1.64
   1  -7  -7   47.53    1.57
   1   7   7   47.13    1.69
  -1   7  -7   48.22    1.67
   1  -7  -7   49.88    1.56
   1   7  -7   47.67    1.67
  -1   7   7   49.29    1.51
  -1   7   7   49.25    1.67
  -1  -7  -7   47.31    1.55
  -1   7  -8   41.43    1.46
   1   7   8   40.52    1.47
   1  -7  -8   42.54    1.37
   1  -7  -8   39.56    1.36
  -1  -7  -8   41.11    1.35
  -1   7   8   41.23    1.31
  -1   7   8   41.48    1.45
   1   7  -8   39.91    1.46
  -1   7  -9   32.82    1.21
   1  -7  -9   32.98    1.15
   1   7   9   32.61    1.22
   1   7  -9   32.38    1.22
  -1   7   9   33.06    1.19
  -1  -7  -9   32.85    1.12
  -1   7 -10   24.29    0.94
   1   7  10   24.03    0.95
   1  -7 -10   23.51    0.89
  -1  -7 -10   23.65    0.87
   1   7 -10   23.61    0.95
  -1   7 -11   26.04    1.02
   1   7  11   26.30    1.04
   1  -7 -11   25.27    0.96
   1   7 -11   24.88    1.03
  -1  -7 -11   26.24    0.95
   1  -7 -12   23.11    0.91
  -1  -7 -12   24.30    0.91
  -1  -8   0    0.03    0.07
   1  -8   0    0.00    0.06
   1   8   0    0.00    0.06
   1   8   0    0.00    0.08
  -1   8   0    0.03    0.05
   1  -8   0   -0.03    0.06
  -1   8   0    0.13    0.08
  -1  -8   1    0.08    0.07
   1   8   1    0.06    0.06
   1  -8  -1    0.02    0.07
   1  -8  -1    0.03    0.07
  -1   8  -1    0.06    0.05
  -1   8  -1    0.06    0.07
   1   8   1    0.03    0.08
   1   8  -1   -0.01    0.06
  -1   8   1   -0.01    0.07
   1   8  -1   -0.02    0.07
  -1  -8  -1    0.00    0.07
   1  -8   1    0.09    0.07
  -1   8   1    0.07    0.06
   1  -8   1    0.04    0.07
   1  -8  -2    1.69    0.15
  -1   8  -2    1.60    0.15
   1  -8  -2    1.39    0.14
  -1  -8   2    1.57    0.14
   1   8   2    1.68    0.17
  -1   8  -2    1.51    0.12
   1   8  -2    1.71    0.14
   1  -8   2    1.60    0.13
  -1  -8  -2    1.74    0.15
  -1   8   2    1.64    0.12
   1  -8   2    1.60    0.15
   1   8  -2    1.47    0.15
  -1   8   2    1.51    0.15
  -1  -8   3    7.87    0.32
   1  -8  -3    7.27    0.34
  -1   8  -3    7.35    0.30
  -1   8  -3    7.33    0.34
   1  -8  -3    7.52    0.33
  -1   8  -3    8.27    0.33
   1   8   3    7.52    0.37
  -1  -8  -3    7.62    0.33
   1   8  -3    7.73    0.35
   1   8  -3    7.67    0.34
   1  -8   3    7.80    0.34
  -1   8   3    7.62    0.35
  -1   8   3    7.40    0.30
  -1   8  -4    5.37    0.27
  -1   8  -4    4.99    0.24
   1   8   4    5.18    0.30
   1  -8  -4    5.30    0.27
  -1   8  -4    5.35    0.26
  -1  -8   4    5.49    0.24
   1  -8  -4    4.92    0.27
   1   8  -4    5.12    0.27
   1   8  -4    5.05    0.26
  -1   8   4    5.23    0.24
  -1  -8  -4    5.11    0.27
   1  -8   4    4.98    0.27
  -1   8   4    5.05    0.28
   1  -8  -5    4.18    0.26
   1  -8  -5    4.11    0.24
  -1   8  -5    4.55    0.22
  -1   8  -5    4.47    0.25
   1   8   5    4.27    0.27
  -1   8  -5    4.09    0.24
  -1  -8   5    4.27    0.22
  -1   8   5    4.55    0.23
   1   8  -5    4.54    0.26
  -1  -8  -5    4.22    0.25
   1  -8   5    4.22    0.25
  -1   8   5    4.05    0.26
   1   8   6   10.52    0.49
  -1   8  -6   11.09    0.47
  -1   8  -6   10.68    0.46
   1  -8  -6   11.16    0.46
   1  -8  -6   10.38    0.46
   1   8  -6   11.21    0.48
  -1  -8  -6   11.14    0.45
  -1   8   6   10.86    0.42
  -1   8   6   10.66    0.48
  -1   8  -7   11.76    0.52
   1  -8  -7   11.51    0.51
   1   8   7   12.11    0.55
  -1  -8  -7   11.83    0.50
  -1   8   7   11.76    0.52
   1   8  -7   11.96    0.53
  -1   8   7   12.09    0.46
   1   8   8   10.48    0.51
   1  -8  -8   10.37    0.48
  -1   8  -8   10.41    0.49
  -1  -8  -8   10.39    0.46
  -1   8   8   10.51    0.49
   1   8  -8   10.48    0.49
  -1   8  -9    7.89    0.42
   1   8   9    8.59    0.45
   1  -8  -9    7.08    0.40
   1   8  -9    7.64    0.42
  -1  -8  -9    7.91    0.40
  -1   8   9    7.82    0.42
   1  -8 -10    6.39    0.39
  -1   8 -10    6.46    0.39
   1   8  10    6.47    0.41
   1   8 -10    6.56    0.40
  -1  -8 -10    7.18    0.38
   1   8  11    4.76    0.37
   1  -8 -11    4.72    0.34
  -1  -8 -11    4.66    0.33
  -1   9   0   13.59    0.55
  -1   9   0   13.98    0.49
   1  -9   0   14.49    0.52
   1   9   0   13.66    0.57
  -1  -9   0   12.61    0.51
   1  -9  -1   22.17    0.78
   1  -9  -1   22.71    0.77
  -1   9  -1   21.46    0.82
  -1  -9   1   21.53    0.76
   1   9   1   21.57    0.84
   1  -9   1   22.55    0.77
   1   9  -1   21.51    0.79
  -1   9   1   22.31    0.83
   1   9  -1   22.50    0.83
  -1  -9  -1   21.66    0.76
   1  -9   1   23.23    0.76
  -1   9   1   21.99    0.73
  -1  -9   2   13.27    0.51
   1  -9  -2   14.36    0.54
  -1   9  -2   13.47    0.56
   1   9   2   13.95    0.59
  -1   9  -2   14.30    0.50
   1  -9  -2   14.74    0.55
  -1  -9  -2   13.29    0.52
   1   9  -2   14.47    0.57
  -1   9   2   13.85    0.57
   1   9  -2   13.74    0.54
  -1   9   2   14.17    0.50
  -1   9  -3   14.95    0.52
   1   9   3   15.17    0.62
  -1  -9   3   14.71    0.53
  -1   9  -3   14.65    0.58
   1  -9  -3   15.30    0.56
   1  -9  -3   15.06    0.57
   1  -9   3   14.58    0.56
   1   9  -3   13.81    0.58
  -1  -9  -3   13.49    0.55
  -1   9   3   13.81    0.59
  -1   9   3   14.71    0.52
   1   9  -3   14.53    0.57
   1  -9  -4   17.98    0.66
  -1  -9   4   16.91    0.61
   1  -9  -4   18.14    0.66
  -1   9  -4   17.81    0.68
  -1   9  -4   18.01    0.62
   1   9   4   16.52    0.70
  -1   9   4   17.81    0.61
   1  -9   4   18.07    0.66
  -1  -9  -4   17.34    0.65
  -1   9   4   17.14    0.69
   1   9  -4   16.88    0.67
  -1   9  -5   31.14    1.05
   1  -9  -5   28.51    1.00
   1   9   5   28.07    1.08
  -1   9  -5   28.25    1.05
  -1   9   5   29.60    1.07
  -1   9   5   28.82    0.95
  -1  -9  -5   28.43    0.99
   1   9  -5   28.65    1.05
  -1   9  -6   25.62    0.91
  -1   9  -6   24.25    0.90
   1  -9  -6   23.95    0.88
   1   9   6   23.62    0.94
  -1   9   6   24.86    0.82
   1   9  -6   24.34    0.92
  -1  -9  -6   23.03    0.86
  -1   9   6   23.68    0.92
   1   9   7   20.83    0.88
   1  -9  -7   21.73    0.82
  -1   9  -7   22.93    0.85
  -1  -9  -7   20.87    0.80
   1   9  -7   22.17    0.86
  -1   9   7   22.51    0.87
  -1   9  -8   16.59    0.68
   1   9   8   16.30    0.71
   1  -9  -8   16.31    0.67
  -1   9   8   15.70    0.68
  -1  -9  -8   15.39    0.64
   1   9  -8   15.95    0.69
  -1   9  -9   33.22    1.25
   1  -9  -9   32.24    1.19
   1   9   9   33.44    1.28
   1   9  -9   33.51    1.26
  -1  -9  -9   32.86    1.17
  -1   9   9   35.24    1.26
  -1   9 -10   29.51    1.12
   1  -9 -10   28.36    1.07
   1   9  10   28.83    1.15
  -1   9  10   29.41    1.13
  -1  -9 -10   28.25    1.05
   1   9 -10   28.49    1.13
  -1 -10   0    0.04    0.09
  -1  10   0    0.07    0.07
   1 -10   0    0.01    0.09
  -1  10   0    0.07    0.10
   1 -10   0    0.08    0.09
   1  10   0    0.00    0.10
  -1  10  -1    0.01    0.07
   1 -10  -1   -0.06    0.08
   1 -10  -1   -0.07    0.09
  -1 -10   1    0.06    0.09
   1  10   1   -0.03    0.09
  -1  10  -1    0.00    0.09
  -1  10   1    0.04    0.10
  -1  10   1   -0.04    0.07
   1 -10   1    0.02    0.08
   1  10  -1   -0.05    0.10
   1 -10   1   -0.02    0.09
  -1 -10  -1    0.07    0.10
  -1 -10   2    2.92    0.19
   1 -10  -2    2.90    0.22
  -1  10  -2    2.62    0.21
   1  10   2    2.72    0.24
   1 -10  -2    2.62    0.21
   1  10  -2    3.06    0.23
  -1 -10  -2    2.49    0.20
  -1  10   2    2.56    0.21
  -1  10   2    2.51    0.18
  -1 -10   3    2.72    0.19
   1 -10  -3    2.46    0.21
  -1  10  -3    1.97    0.19
   1 -10  -3    2.65    0.21
   1  10   3    2.51    0.24
   1  10  -3    2.69    0.22
  -1  10   3    2.12    0.21
  -1 -10  -3    2.31    0.20
  -1  10   3    2.27    0.17
   1 -10  -4    4.44    0.28
   1  10   4    4.19    0.30
  -1  10  -4    4.28    0.27
  -1 -10   4    4.45    0.24
   1  10  -4    4.60    0.27
  -1 -10  -4    4.47    0.27
  -1  10   4    3.85    0.27
   1 -10  -5    5.83    0.33
   1  10   5    6.21    0.36
  -1  10  -5    5.62    0.32
  -1  10   5    5.45    0.34
  -1 -10  -5    6.05    0.33
   1  10  -5    5.62    0.32
   1  10   6    4.65    0.32
   1 -10  -6    4.51    0.30
  -1  10   6    4.17    0.30
   1  10  -6    4.63    0.29
  -1 -10  -6    4.89    0.30
   1 -10  -7    7.63    0.42
   1  10   7    7.99    0.44
   1  10  -7    7.94    0.42
  -1  10   7    7.37    0.42
  -1 -10  -7    8.01    0.41
   1  10   8    4.21    0.34
   1 -10  -8    3.55    0.30
  -1  10  -8    4.68    0.31
  -1 -10  -8    4.05    0.30
   1  10  -8    4.31    0.32
  -1  10   8    3.84    0.31
  -1  10  -9    4.10    0.32
   1  10   9    4.11    0.35
  -1  10   9    4.43    0.33
   1  10  -9    4.07    0.33
  -1  11   0    3.33    0.25
  -1 -11   0    3.24    0.23
   1 -11   0    3.61    0.24
   1  11   0    3.37    0.27
   1 -11  -1    9.57    0.44
  -1 -11   1    9.06    0.41
   1  11   1    8.55    0.46
  -1  11  -1    8.61    0.43
   1  11  -1    9.96    0.47
  -1  11   1    9.93    0.46
  -1 -11  -1    9.33    0.41
  -1  11  -2   18.73    0.74
   1  11   2   17.91    0.76
  -1 -11   2   17.80    0.67
   1 -11  -2   18.70    0.70
   1  11  -2   17.80    0.74
  -1 -11  -2   17.14    0.68
  -1  11   2   17.89    0.74
  -1 -11   3   23.08    0.82
   1 -11  -3   23.80    0.86
  -1  11  -3   23.62    0.90
   1  11   3   23.68    0.93
  -1  11   3   22.37    0.90
  -1 -11  -3   21.89    0.83
   1  11   4   20.33    0.87
  -1  11  -4   21.52    0.85
   1 -11  -4   22.72    0.82
  -1  11   4   21.66    0.87
  -1 -11  -4   21.52    0.80
  -1  11  -5   13.79    0.61
   1 -11  -5   13.61    0.59
   1  11   5   13.36    0.64
  -1  11   5   14.44    0.63
  -1 -11  -5   13.87    0.58
   1  11   6   14.26    0.66
   1 -11  -6   15.12    0.63
   1  11  -6   14.02    0.61
  -1  11   6   14.10    0.64
  -1 -11  -6   13.45    0.60
   1  11   7   15.53    0.70
   1 -11  -7   15.91    0.67
  -1 -11  -7   14.47    0.64
   1  11  -7   14.81    0.66
  -1  11   7   15.27    0.69
   1  11  -8   14.30    0.65
  -1  12   0    0.28    0.14
  -1 -12   0    0.09    0.12
   1  12   0    0.10    0.14
  -1 -12   1    0.29    0.13
   1  12   1    0.42    0.16
  -1  12  -1    0.31    0.14
   1 -12  -1    0.35    0.14
  -1 -12  -1    0.52    0.14
  -1  12   1    0.36    0.14
   1  12  -1    0.40    0.17
   1  12   2    0.59    0.18
  -1  12  -2    0.45    0.15
   1 -12  -2    0.65    0.16
  -1 -12   2    0.42    0.14
  -1  12   2    0.59    0.16
   1  12  -2    0.45    0.17
  -1 -12  -2    0.55    0.15
   1  12   3    1.56    0.23
   1 -12  -3    1.46    0.20
  -1  12  -3    1.40    0.19
  -1 -12  -3    1.48    0.19
  -1  12   3    1.27    0.19
  -1  12  -4    2.53    0.25
   1  12   4    2.60    0.28
   1 -12  -4    2.60    0.26
  -1  12   4    2.51    0.25
  -1 -12  -4    2.84    0.26
   1  12   5    4.00    0.33
   1 -12  -5    3.86    0.31
  -1  12   5    3.62    0.31
  -1 -12  -5    3.89    0.30
   1  13   0   18.89    0.83
  -1 -13   0   18.73    0.74
  -1  13   0   19.33    0.81
  -1 -13   1    9.78    0.47
  -1  13  -1    9.93    0.51
   1  13   1    9.90    0.54
   1  13  -1   10.66    0.55
   1  13   2    7.83    0.48
  -1  13  -2    7.89    0.44
   1 -13  -2    8.65    0.44
  -1  13  -3    8.57    0.47
  -1  13  -4   10.34    0.53
   2   0   0 1000.00   30.43
  -2   0   0  924.80   29.99
   2   0   0  915.92   33.07
   2   0  -1  505.85   15.46
   2   0   1  501.03   15.50
  -2   0  -1  504.30   15.39
   2   0  -1  513.83   16.76
  -2   0  -1  526.09   15.67
  -2   0  -1  518.33   16.77
  -2   0  -1  543.93   15.25
   2   0   1  530.92   15.53
   2   0   1  530.75   16.77
   2   0   1  515.45   15.41
   2   0  -1  528.79   16.69
   2   0  -2  353.76   10.73
  -2   0  -2  355.25   11.64
   2   0  -2  363.71   10.76
   2   0   2  377.55   10.77
  -2   0   2  357.79   10.56
  -2   0  -2  357.55   10.53
   2   0  -2  373.08   11.60
   2   0  -2  361.30   11.67
   2   0   2  353.50   11.70
   2   0  -2  363.24   10.77
  -2   0  -2  353.59   10.70
   2   0   2  359.63   10.75
  -2   0   2  363.78   11.59
  -2   0  -2  373.13   10.56
  -2   0   2  356.16   10.53
   2   0  -3  256.58    7.47
  -2   0   3  249.45    8.08
  -2   0  -3  247.68    8.16
   2   0   3  253.64    7.53
  -2   0   3  249.66    7.34
  -2   0  -3  248.47    7.36
   2   0  -3  266.21    8.13
  -2   0   3  249.40    7.37
   2   0   3  252.85    8.09
   2   0  -3  251.85    7.51
   2   0  -3  254.49    7.47
  -2   0  -3  248.01    7.47
   2   0  -4  260.26    8.10
   2   0  -4  256.77    7.48
   2   0  -4  249.58    7.49
   2   0   4  254.50    7.54
  -2   0   4  251.06    8.09
  -2   0  -4  252.00    7.45
   2   0  -4  254.24    7.49
   2   0   4  246.94    8.11
  -2   0   4  247.20    7.37
  -2   0  -4  253.22    8.11
  -2   0   4  260.01    7.34
  -2   0  -4  246.78    7.36
  -2   0   5  261.83    7.78
  -2   0  -5  280.11    7.89
   2   0  -5  279.80    8.58
  -2   0  -5  267.86    8.59
  -2   0  -5  267.20    7.78
   2   0   5  264.53    8.60
   2   0   5  264.84    7.94
  -2   0   5  269.25    8.56
   2   0  -5  257.02    7.93
   2   0  -5  262.75    7.94
  -2   0  -6  214.30    6.92
   2   0  -6  212.99    6.40
  -2   0  -6  227.44    6.35
   2   0   6  213.28    6.93
  -2   0  -6  210.69    6.27
   2   0   6  205.65    6.40
  -2   0   6  211.78    6.27
   2   0  -6  229.80    6.92
   2   0  -6  207.67    6.40
   2   0  -7  144.61    4.49
  -2   0  -7  150.50    4.39
   2   0  -7  148.52    4.48
   2   0   7  146.94    4.86
  -2   0  -7  150.93    4.85
   2   0  -7  154.11    4.85
  -2   0   7  150.15    4.39
   2   0   7  148.48    4.49
   2   0   8  134.61    4.04
  -2   0  -8  131.66    4.36
   2   0   8  134.68    4.36
   2   0  -8  131.40    4.03
   2   0  -8  130.71    4.35
  -2   0   8  132.58    3.94
  -2   0  -8  137.64    3.94
   2   0  -8  132.64    4.02
   2   0  -9   60.06    1.85
   2   0   9   61.29    2.02
  -2   0  -9   59.12    2.01
   2   0  -9   52.66    1.99
   2   0   9   59.66    1.86
  -2   0  -9   58.55    1.80
   2   0  -9   59.42    1.86
  -2   0   9   59.82    1.80
  -2   0  10   47.73    1.51
   2   0 -10   50.83    1.56
  -2   0 -10   46.44    1.68
   2   0 -10   49.15    1.57
   2   0  10   47.87    1.69
  -2   0 -11   25.96    0.96
   2   0 -11   25.26    0.89
  -2   0  11   24.10    0.84
   2   0 -11   23.36    0.95
   2   0  11   25.88    0.96
  -2   0 -12   14.80    0.63
   2   0 -12   14.28    0.63
   2   0 -12   13.70    0.58
  -2   0 -13   11.44    0.54
   2  -1   0    3.62    0.15
   2   1   0    3.78    0.16
   2   1   0    3.78    0.17
  -2  -1   0    3.66    0.12
   2   1   0    3.68    0.12
   2   1   0    3.54    0.15
   2   1   0    3.55    0.13
   2  -1   0    3.53    0.17
   2  -1   0    3.76    0.16
  -2  -1   0    3.67    0.12
  -2  -1   0    3.55    0.14
   2   1   1    0.22    0.03
   2  -1  -1    0.24    0.05
  -2   1  -1    0.24    0.02
   2   1   1    0.22    0.05
  -2  -1   1    0.25    0.03
   2   1   1    0.27    0.05
   2  -1  -1    0.27    0.04
   2  -1  -1    0.19    0.04
  -2  -1   1    0.35    0.05
  -2   1  -1    0.21    0.02
  -2  -1   1    0.30    0.03
  -2   1  -1    0.22    0.04
   2   1   1    0.26    0.03
   2   1  -1    0.39    0.03
   2   1  -1    0.40    0.03
  -2   1   1    0.46    0.05
   2   1  -1    0.46    0.05
   2   1  -1    0.43    0.05
   2   1  -1    0.46    0.05
   2  -1   1    0.38    0.03
   2  -1   1    0.41    0.03
   2  -1   1    0.38    0.06
  -2  -1  -1    0.40    0.04
  -2  -1  -1    0.44    0.04
  -2  -1  -1    0.38    0.03
   2  -1   1    0.36    0.02
   2  -1   1    0.45    0.05
   2   1   2   12.35    0.39
   2  -1  -2   11.84    0.43
  -2   1  -2   11.89    0.37
   2  -1  -2   12.14    0.42
   2  -1  -2   12.31    0.37
  -2   1  -2   11.98    0.37
  -2  -1   2   12.07    0.37
   2   1   2   11.87    0.45
  -2  -1   2   12.24    0.37
   2  -1  -2   11.66    0.41
   2   1   2   12.28    0.38
  -2   1  -2   11.72    0.43
   2  -1  -2   12.44    0.37
   2   1  -2   12.15    0.38
   2   1  -2   11.84    0.38
  -2  -1  -2   12.13    0.37
   2   1  -2   12.04    0.41
   2   1  -2   11.95    0.41
  -2  -1  -2   12.12    0.43
  -2   1   2   12.18    0.36
  -2  -1  -2   12.32    0.39
  -2   1   2   12.07    0.36
   2  -1   2   11.42    0.38
   2   1  -2   12.05    0.43
  -2   1   2   12.13    0.42
   2  -1   2   12.21    0.38
   2  -1   2   12.23    0.45
   2  -1  -3   14.71    0.51
   2  -1  -3   14.69    0.50
   2   1   3   13.46    0.54
   2   1   3   14.92    0.54
  -2  -1   3   14.84    0.46
  -2   1  -3   14.17    0.46
  -2  -1   3   14.93    0.46
  -2   1  -3   15.27    0.45
  -2  -1   3   14.66    0.49
   2   1   3   14.54    0.47
   2  -1  -3   14.89    0.47
   2  -1  -3   14.77    0.47
  -2   1  -3   14.60    0.53
  -2  -1  -3   15.62    0.47
   2   1  -3   14.59    0.47
   2   1  -3   15.19    0.49
   2   1  -3   14.88    0.52
  -2   1   3   15.26    0.50
  -2  -1  -3   14.75    0.53
  -2  -1  -3   14.56    0.46
  -2   1   3   14.49    0.45
  -2   1   3   15.43    0.45
   2  -1   3   15.19    0.55
   2  -1   3   14.79    0.48
   2   1  -3   15.16    0.50
   2  -1  -4   20.78    0.67
  -2  -1   4   21.49    0.66
  -2   1  -4   20.91    0.66
   2  -1  -4   20.61    0.70
  -2   1  -4   20.70    0.74
   2   1   4   21.13    0.68
   2   1   4   20.94    0.76
   2  -1  -4   22.16    0.68
  -2   1  -4   21.55    0.64
   2  -1  -4   22.18    0.72
  -2   1   4   20.86    0.65
   2  -1   4   20.84    0.68
  -2  -1  -4   21.53    0.66
   2   1  -4   21.49    0.70
   2   1  -4   20.63    0.68
  -2  -1  -4   20.63    0.74
  -2  -1  -4   21.69    0.66
   2   1  -4   21.50    0.74
  -2   1   4   21.55    0.65
  -2   1   4   21.76    0.71
   2  -1   4   21.34    0.76
  -2   1  -5   28.55    0.86
   2   1   5   28.36    0.91
  -2   1  -5   27.44    0.98
   2  -1  -5   27.40    0.93
   2   1   5   27.72    1.00
   2  -1  -5   27.42    0.90
   2  -1  -5   29.55    0.97
  -2   1  -5   28.62    0.88
  -2  -1   5   28.61    0.88
  -2   1   5   28.41    0.88
  -2  -1  -5   29.82    0.88
   2  -1   5   28.51    1.01
  -2   1   5   29.92    0.94
   2   1  -5   28.75    0.91
   2   1  -5   29.97    0.98
  -2  -1  -5   28.48    0.98
  -2  -1  -5   28.74    0.88
   2   1  -5   28.23    0.92
   2  -1   5   28.25    0.91
  -2   1  -6   27.69    1.00
   2  -1  -6   28.12    0.92
  -2   1  -6   28.17    0.89
  -2  -1   6   29.23    0.89
   2  -1  -6   27.87    0.94
   2   1   6   28.56    1.02
   2  -1  -6   30.17    0.98
   2   1   6   27.76    0.92
   2   1  -6   28.94    0.92
   2  -1   6   27.67    0.93
  -2   1   6   28.62    0.89
   2   1  -6   27.88    0.93
  -2  -1  -6   29.02    1.00
  -2  -1  -6   28.06    0.89
   2   1  -6   29.84    1.00
   2  -1   6   28.47    1.02
  -2  -1  -6   29.98    0.89
   2  -1  -7   34.76    1.17
  -2  -1   7   34.13    1.06
  -2   1  -7   34.25    1.19
  -2   1  -7   33.47    1.06
   2  -1  -7   32.87    1.11
   2  -1  -7   33.23    1.09
   2   1   7   33.46    1.10
   2   1   7   33.86    1.20
  -2  -1  -7   34.75    1.18
  -2   1   7   33.43    1.06
   2   1  -7   33.99    1.09
   2  -1   7   33.14    1.10
  -2  -1  -7   33.62    1.06
   2  -1   7   32.91    1.20
   2   1  -7   33.59    1.10
  -2  -1  -7   35.83    1.06
   2   1  -7   36.03    1.19
   2  -1  -8   21.69    0.82
  -2   1  -8   23.11    0.85
   2   1   8   23.05    0.78
   2   1   8   22.96    0.85
  -2   1  -8   21.94    0.74
   2  -1  -8   23.08    0.77
   2  -1  -8   23.31    0.79
  -2  -1   8   23.41    0.75
  -2  -1  -8   22.88    0.84
   2  -1   8   21.62    0.85
  -2  -1  -8   22.41    0.75
  -2   1   8   22.46    0.74
   2   1  -8   22.43    0.77
   2   1  -8   22.83    0.84
   2   1  -8   22.89    0.78
  -2   1  -9   21.42    0.73
   2   1   9   21.66    0.83
  -2  -1   9   21.59    0.72
   2   1   9   21.45    0.76
  -2   1  -9   20.83    0.82
   2  -1  -9   21.16    0.75
   2  -1  -9   18.70    0.79
   2  -1  -9   21.53    0.77
   2   1  -9   21.77    0.75
   2  -1   9   22.47    0.77
   2  -1   9   22.05    0.83
   2   1  -9   20.73    0.82
   2   1  -9   22.99    0.77
  -2   1   9   22.11    0.73
  -2  -1  -9   21.99    0.82
  -2  -1  -9   22.91    0.74
   2   1  10   31.44    1.10
   2  -1 -10   24.89    1.05
   2  -1 -10   30.71    1.02
  -2  -1  10   29.15    0.96
  -2   1 -10   29.88    1.09
   2  -1 -10   30.27    1.00
   2   1 -10   27.06    1.08
  -2  -1 -10   29.81    1.09
   2   1 -10   29.77    1.00
  -2   1  10   29.54    0.96
   2   1 -10   30.61    1.00
   2  -1  10   31.01    1.10
  -2   1 -11   20.93    0.83
   2  -1 -11   20.98    0.78
  -2  -1  11   20.95    0.74
   2  -1 -11   21.12    0.77
   2   1  11   21.20    0.84
   2   1 -11   21.16    0.77
  -2   1  11   21.49    0.74
   2   1 -11   20.56    0.84
   2   1 -11   21.66    0.77
  -2  -1 -11   21.12    0.83
  -2   1 -12   15.38    0.68
   2  -1 -12   16.01    0.64
   2   1 -12   16.24    0.70
  -2  -1 -12   16.36    0.68
   2  -1 -13   10.30    0.49
   2   1 -13   10.54    0.53
  -2  -1 -13   10.89    0.52
  -2  -1 -14    7.88    0.45
   2   2   0  383.24   11.36
  -2  -2   0  380.60   11.35
   2  -2   0  383.05   11.38
   2  -2   0  404.00   11.43
  -2   2   0  385.55   11.16
   2  -2   0  394.63   12.32
  -2  -2   0  376.73   11.14
   2  -2   0  374.47   12.34
  -2   2   0  382.97   12.31
  -2  -2   0  378.64   11.14
  -2   2   0  386.73   12.33
  -2   2   0  373.89   11.18
   2   2   0  362.58   12.37
   2   2   0  383.29   12.29
   2  -2   0  384.22   11.35
  -2  -2   1  387.89   11.79
   2  -2  -1  402.61   12.86
  -2  -2   1  395.36   11.56
  -2   2  -1  396.21   11.58
   2   2   1  388.71   12.86
   2   2   1  402.18   12.83
  -2   2  -1  395.22   12.78
   2   2   1  409.28   11.81
   2  -2  -1  417.04   12.78
   2  -2  -1  404.49   11.86
  -2  -2   1  392.42   11.56
   2  -2  -1  407.10   11.83
  -2   2  -1  389.09   11.55
   2  -2  -1  397.63   11.81
  -2  -2  -1  403.04   11.80
   2  -2   1  392.91   11.77
   2   2  -1  393.07   12.85
   2   2  -1  384.31   11.78
   2  -2   1  398.32   11.76
  -2   2   1  400.72   11.58
   2   2  -1  396.11   11.80
   2  -2   1  397.16   11.82
   2   2  -1  406.11   12.78
  -2   2   1  385.21   11.58
   2   2  -1  380.63   11.73
  -2  -2  -1  403.25   11.57
  -2   2   1  394.02   12.76
   2  -2   1  390.65   12.83
   2  -2  -2  466.86   14.78
   2  -2  -2  465.43   13.67
   2  -2  -2  451.74   13.76
  -2   2  -2  476.72   13.39
   2   2   2  453.23   14.87
   2   2   2  464.30   13.70
   2   2   2  448.17   14.86
  -2  -2   2  445.57   13.66
   2  -2  -2  471.83   13.70
  -2  -2   2  463.76   13.39
  -2   2  -2  462.34   14.86
  -2   2  -2  438.43   13.43
  -2  -2  -2  460.34   13.42
   2  -2   2  452.10   13.62
  -2  -2  -2  471.37   13.66
   2   2  -2  487.94   14.78
   2   2  -2  451.07   14.83
   2  -2   2  462.12   13.65
   2  -2   2  452.79   13.70
   2   2  -2  442.23   13.62
   2   2  -2  461.48   13.65
  -2   2   2  469.98   14.79
  -2   2   2  466.97   13.40
   2  -2   2  460.07   14.73
  -2   2   2  463.11   13.41
   2  -2  -3  397.98   12.64
   2  -2  -3  397.40   11.71
  -2   2  -3  397.03   12.73
  -2   2  -3  373.39   11.46
   2  -2  -3  381.81   11.67
  -2  -2   3  383.02   11.70
   2   2   3  393.95   11.71
   2   2   3  393.59   12.58
  -2  -2   3  390.70   11.47
   2  -2  -3  377.24   11.71
   2   2   3  402.13   12.64
  -2   2   3  404.79   12.66
   2  -2   3  395.24   11.71
   2   2  -3  393.20   11.68
   2   2  -3  397.70   12.73
   2   2  -3  393.53   11.72
  -2  -2  -3  397.59   11.68
   2   2  -3  407.91   12.61
  -2   2   3  389.63   11.43
  -2  -2  -3  391.44   12.62
  -2  -2  -3  388.06   11.46
  -2   2   3  405.89   11.47
   2  -2   3  393.08   12.69
   2  -2  -4  324.36    9.71
  -2   2  -4  321.74    9.56
   2   2   4  332.29    9.78
  -2  -2   4  321.29    9.55
   2  -2  -4  327.81    9.77
  -2   2  -4  325.70   10.51
   2   2   4  326.47   10.51
   2  -2  -4  330.85    9.71
   2  -2  -4  333.02   10.55
   2   2  -4  322.05    9.74
   2  -2   4  324.23   10.51
  -2   2   4  333.49    9.51
  -2   2   4  334.30    9.57
  -2  -2  -4  328.63   10.53
   2  -2   4  333.10    9.72
   2   2  -4  341.95   10.56
   2   2  -4  314.00    9.69
  -2  -2  -4  328.31    9.55
  -2  -2  -4  321.35    9.70
  -2   2   4  334.58   10.55
  -2   2  -5  188.09    5.50
   2   2   5  186.50    6.09
   2  -2  -5  185.16    5.62
  -2   2  -5  188.94    6.08
   2   2   5  190.34    5.61
   2  -2  -5  206.55    6.05
   2  -2  -5  184.20    5.61
  -2  -2   5  187.88    5.50
   2   2  -5  184.01    5.61
   2   2  -5  190.41    6.07
   2  -2   5  188.38    6.09
  -2   2   5  183.74    5.49
  -2   2   5  197.11    6.03
  -2  -2  -5  187.48    6.07
  -2  -2  -5  189.07    5.58
   2   2  -5  177.29    5.60
   2  -2   5  182.71    5.62
  -2  -2  -5  192.76    5.50
  -2   2  -6  168.44    5.61
   2  -2  -6  169.87    5.17
   2  -2  -6  168.80    5.19
   2   2   6  172.69    5.18
  -2  -2   6  172.02    5.07
   2  -2  -6  180.24    5.57
  -2   2  -6  171.74    5.07
   2   2   6  171.69    5.61
  -2  -2  -6  173.67    5.59
  -2  -2  -6  173.49    5.07
   2   2  -6  172.26    5.17
   2  -2   6  168.95    5.18
  -2   2   6  185.99    5.55
   2  -2   6  170.15    5.61
  -2   2   6  169.18    5.06
   2   2  -6  176.89    5.60
  -2  -2  -6  176.32    5.14
   2   2  -6  173.01    5.17
   2  -2  -7  146.69    4.72
   2  -2  -7  144.21    4.41
  -2  -2   7  147.08    4.30
  -2   2  -7  143.69    4.30
   2  -2  -7  145.43    4.39
   2   2   7  143.40    4.77
   2   2   7  144.36    4.39
  -2   2  -7  143.75    4.76
   2   2  -7  145.56    4.39
  -2  -2  -7  148.06    4.74
   2   2  -7  150.18    4.76
   2  -2   7  146.16    4.40
  -2   2   7  147.81    4.29
  -2  -2  -7  150.11    4.36
   2   2  -7  144.37    4.39
   2  -2   7  144.62    4.76
  -2  -2  -7  147.07    4.30
   2  -2  -8  107.35    3.28
   2  -2  -8  106.49    3.29
  -2  -2   8  108.42    3.20
  -2   2  -8  108.24    3.20
   2  -2  -8  103.57    3.52
   2   2   8  109.38    3.56
   2   2   8  111.58    3.29
  -2   2  -8  107.68    3.56
  -2   2   8  103.66    3.20
   2  -2   8  106.90    3.29
   2   2  -8  109.10    3.28
   2   2  -8  107.68    3.56
  -2  -2  -8  108.52    3.54
   2   2  -8  105.01    3.27
  -2  -2  -8  109.38    3.24
  -2  -2  -8  108.78    3.20
   2  -2   8  108.49    3.55
   2   2   9   63.09    2.09
   2  -2  -9   60.99    1.93
  -2  -2   9   62.04    1.86
   2  -2  -9   62.45    1.92
  -2   2  -9   59.70    2.07
   2   2   9   65.26    1.93
  -2   2  -9   60.95    1.86
   2   2  -9   55.95    2.07
   2   2  -9   59.71    1.91
  -2  -2  -9   60.89    1.86
   2  -2   9   61.64    1.93
   2   2  -9   61.11    1.91
   2  -2   9   60.48    2.08
  -2  -2  -9   59.00    2.05
  -2   2   9   58.02    1.85
   2  -2 -10   41.97    1.37
  -2  -2  10   40.69    1.32
   2  -2 -10   41.31    1.38
   2   2  10   42.77    1.49
  -2   2 -10   40.04    1.48
   2   2 -10   44.37    1.37
   2   2 -10   43.31    1.37
  -2   2  10   41.16    1.32
   2  -2  10   43.55    1.49
  -2  -2 -10   42.19    1.47
   2   2 -10   37.84    1.48
   2   2  11   31.42    1.14
   2  -2 -11   30.58    1.04
  -2  -2  11   29.55    1.00
  -2   2 -11   29.94    1.13
   2  -2 -11   30.44    1.06
  -2  -2 -11   30.07    1.12
  -2   2  11   29.68    1.00
   2   2 -11   29.42    1.14
   2   2 -11   30.34    1.03
   2  -2 -12   24.62    0.92
  -2   2 -12   25.52    0.99
   2   2 -12   25.87    1.01
  -2  -2 -12   25.55    0.98
   2  -2 -13    9.49    0.48
  -2   2 -13   10.83    0.52
  -2  -2 -13   10.66    0.52
   2   2 -13   10.67    0.54
  -2  -2 -14    6.54    0.39
   2   2 -14    6.34    0.42
  -2   3   0    3.57    0.14
   2   3   0    3.54    0.17
   2   3   0    3.43    0.14
   2  -3   0    3.40    0.13
  -2   3   0    3.58    0.12
  -2  -3   0    3.33    0.13
  -2   3   0    3.28    0.12
  -2   3   0    3.46    0.17
   2  -3   0    3.43    0.18
   2  -3   0    3.47    0.13
  -2  -3   0    3.37    0.15
   2   3   0    3.40    0.17
   2  -3   0    3.44    0.15
  -2  -3   1    2.58    0.13
   2  -3  -1    2.76    0.14
  -2   3  -1    2.89    0.14
   2   3   1    2.74    0.15
  -2   3  -1    2.65    0.11
   2   3   1    2.87    0.17
   2   3   1    2.97    0.13
  -2   3  -1    2.74    0.11
   2  -3  -1    2.78    0.12
  -2   3  -1    2.86    0.15
  -2  -3   1    2.65    0.12
   2  -3  -1    2.87    0.11
   2  -3   1    3.19    0.12
   2  -3   1    3.15    0.13
   2   3  -1    3.01    0.12
   2   3  -1    3.16    0.15
  -2   3   1    2.95    0.11
   2  -3   1    3.14    0.17
  -2  -3  -1    3.16    0.12
  -2   3   1    3.08    0.11
  -2   3   1    3.21    0.12
   2   3  -1    3.13    0.15
  -2  -3  -1    3.05    0.14
  -2   3   1    3.16    0.15
   2  -3   1    3.13    0.13
  -2   3  -2    2.03    0.09
  -2   3  -2    2.01    0.09
   2   3   2    2.02    0.10
  -2  -3   2    2.11    0.10
   2  -3  -2    1.80    0.12
   2  -3  -2    2.07    0.09
  -2   3  -2    2.12    0.12
  -2  -3   2    2.01    0.12
  -2   3  -2    1.95    0.13
   2  -3  -2    1.88    0.09
   2   3   2    1.96    0.12
   2   3   2    2.04    0.14
   2  -3  -2    1.95    0.10
   2  -3   2    1.98    0.15
  -2  -3  -2    1.92    0.09
   2   3  -2    2.04    0.10
   2   3  -2    1.99    0.12
  -2  -3  -2    2.00    0.11
  -2   3   2    1.86    0.09
   2  -3   2    1.93    0.11
   2  -3   2    2.06    0.09
   2  -3   2    1.87    0.09
  -2   3   2    1.88    0.11
   2   3  -2    2.13    0.11
  -2   3   2    1.85    0.08
  -2  -3   3   19.79    0.63
  -2   3  -3   20.05    0.71
   2  -3  -3   20.14    0.68
   2  -3  -3   20.20    0.64
   2   3   3   20.14    0.74
   2  -3  -3   19.82    0.67
   2   3   3   20.37    0.71
   2  -3  -3   19.75    0.64
  -2  -3   3   19.63    0.65
  -2   3  -3   19.79    0.63
   2   3   3   19.44    0.64
   2   3  -3   20.94    0.68
   2  -3   3   20.27    0.65
  -2   3   3   20.03    0.69
   2   3  -3   19.92    0.64
  -2  -3  -3   20.89    0.65
  -2  -3  -3   20.46    0.63
   2  -3   3   20.80    0.74
  -2   3   3   20.82    0.62
   2   3  -3   20.53    0.71
   2   3  -3   20.06    0.66
  -2   3   3   20.44    0.62
  -2  -3  -3   20.37    0.70
   2   3   4   20.11    0.71
   2   3   4   19.78    0.73
   2   3   4   20.83    0.65
   2  -3  -4   19.79    0.65
  -2   3  -4   19.92    0.71
  -2   3  -4   20.03    0.62
   2  -3  -4   20.22    0.68
  -2  -3   4   20.69    0.65
   2  -3  -4   20.50    0.64
   2   3  -4   18.89    0.70
  -2   3   4   19.41    0.68
   2  -3   4   19.15    0.65
  -2  -3  -4   19.64    0.64
  -2  -3  -4   19.28    0.62
   2  -3   4   18.38    0.72
  -2  -3  -4   19.59    0.69
   2   3  -4   19.00    0.65
   2   3  -4   20.13    0.65
  -2   3   4   18.93    0.61
   2  -3  -5   15.88    0.55
  -2  -3   5   15.19    0.52
   2   3   5   15.85    0.62
   2  -3  -5   15.77    0.58
  -2   3  -5   14.95    0.52
  -2   3  -5   15.28    0.60
  -2  -3   5   15.25    0.54
   2  -3  -5   15.17    0.54
   2   3   5   15.27    0.54
  -2  -3  -5   16.57    0.59
   2   3  -5   17.00    0.60
  -2   3   5   17.05    0.57
  -2  -3  -5   16.86    0.53
   2   3  -5   16.55    0.56
  -2   3   5   16.76    0.52
   2  -3   5   16.60    0.62
  -2  -3  -5   16.43    0.53
   2   3  -5   16.33    0.54
   2  -3   5   16.42    0.56
   2   3   6   30.09    0.99
  -2  -3   6   31.69    0.99
   2   3   6   31.58    1.10
   2  -3  -6   29.87    0.98
  -2  -3   6   31.68    0.96
  -2   3  -6   29.80    1.08
  -2   3  -6   30.29    0.96
   2  -3  -6   31.09    1.02
   2  -3   6   29.35    1.00
   2   3  -6   30.61    1.08
  -2   3   6   32.41    1.04
  -2  -3  -6   30.40    0.97
   2   3  -6   30.22    0.98
  -2   3   6   30.46    0.95
  -2  -3  -6   30.44    1.06
   2   3  -6   31.48    1.00
  -2  -3  -6   31.06    0.96
   2  -3   6   29.94    1.09
   2  -3  -7   24.64    0.84
  -2   3  -7   25.59    0.83
  -2  -3   7   26.04    0.85
  -2  -3   7   26.17    0.82
   2   3   7   25.90    0.95
   2   3   7   25.64    0.85
   2  -3  -7   25.36    0.88
  -2   3  -7   25.45    0.93
   2   3  -7   25.67    0.93
  -2   3   7   25.59    0.82
  -2  -3  -7   26.25    0.91
   2  -3   7   25.09    0.94
   2  -3   7   24.67    0.86
  -2  -3  -7   24.88    0.82
  -2  -3  -7   25.54    0.83
   2   3  -7   25.74    0.85
   2   3  -7   26.00    0.85
  -2  -3   8   34.79    1.08
   2   3   8   35.20    1.12
   2  -3  -8   33.40    1.11
  -2   3  -8   33.67    1.08
  -2   3  -8   33.17    1.21
   2   3   8   35.21    1.23
   2  -3  -8   34.41    1.14
  -2   3   8   33.10    1.07
   2  -3   8   33.57    1.22
   2   3  -8   35.61    1.12
   2   3  -8   33.79    1.22
  -2  -3  -8   35.01    1.09
   2   3  -8   34.34    1.11
   2  -3   8   33.10    1.13
  -2  -3  -8   33.42    1.19
  -2  -3  -8   32.91    1.08
   2   3   9   29.88    1.11
  -2   3  -9   28.27    1.09
   2  -3  -9   29.92    1.03
   2  -3  -9   30.30    1.01
  -2   3  -9   29.78    0.98
  -2  -3   9   29.16    0.97
   2  -3   9   30.83    1.11
   2   3  -9   31.08    1.01
   2   3  -9   30.64    1.01
   2   3  -9   29.88    1.11
   2  -3   9   30.30    1.03
  -2   3   9   30.08    0.97
  -2  -3  -9   30.16    1.08
  -2  -3  10   16.64    0.59
  -2   3 -10   16.12    0.67
   2  -3 -10   16.26    0.62
   2   3  10   16.29    0.68
   2  -3 -10   16.79    0.65
   2   3 -10   17.18    0.62
   2   3 -10   15.08    0.68
   2   3 -10   17.40    0.63
  -2  -3 -10   16.41    0.66
  -2   3  10   15.59    0.59
  -2   3 -11   16.07    0.68
   2  -3 -11   16.29    0.63
   2   3  11   16.67    0.69
   2  -3 -11   16.49    0.65
  -2  -3 -11   15.78    0.66
   2   3 -11   15.12    0.69
  -2   3  11   15.64    0.59
   2   3  12   11.36    0.54
  -2   3 -12   10.75    0.53
   2  -3 -12   11.43    0.51
  -2  -3 -12   10.73    0.51
   2   3 -12   11.18    0.55
   2  -3 -13   11.08    0.52
  -2   3 -13   10.35    0.53
   2   3 -13   11.24    0.57
   2  -4   0  268.80    8.03
   2   4   0  276.68    8.05
  -2   4   0  280.19    7.91
  -2   4   0  262.30    8.72
   2  -4   0  260.06    8.02
   2  -4   0  274.16    8.05
  -2  -4   0  272.09    7.90
  -2   4   0  273.13    7.93
  -2   4   0  260.80    8.74
  -2  -4   0  276.88    8.05
   2   4   0  274.34    8.69
   2   4   0  275.35    8.70
  -2  -4   1  338.63    9.72
  -2  -4   1  330.91    9.84
   2   4   1  343.70   10.72
   2   4   1  330.25    9.95
   2   4   1  346.69   10.73
  -2   4  -1  329.62    9.74
  -2   4  -1  334.28   10.72
  -2   4  -1  343.96    9.71
   2  -4  -1  335.23    9.89
  -2   4  -1  340.95   10.72
   2  -4  -1  332.74    9.94
   2  -4  -1  336.11    9.86
   2   4  -1  333.10   10.79
  -2   4   1  324.26    9.72
  -2  -4  -1  325.42    9.73
  -2   4   1  324.30   10.72
   2   4  -1  333.27    9.93
   2  -4   1  333.35    9.95
   2  -4   1  333.02    9.89
   2  -4   1  315.56    9.91
  -2   4   1  321.03   10.71
  -2   4   1  351.39    9.70
  -2  -4  -1  339.24    9.91
   2  -4   1  342.12   10.69
   2   4  -1  315.51   10.71
   2   4   2  310.53    9.73
   2  -4  -2  309.36    9.00
  -2   4  -2  308.57    9.80
  -2   4  -2  298.06    9.72
   2  -4  -2  300.76    8.98
  -2  -4   2  295.13    9.00
   2  -4  -2  305.18    9.03
  -2  -4   2  308.30    8.85
   2   4   2  297.38    9.03
  -2   4  -2  303.08    8.87
   2   4   2  317.72    9.74
  -2   4   2  302.94    8.86
   2  -4   2  307.15    9.74
  -2  -4  -2  305.57    9.00
   2  -4   2  304.27    8.99
  -2   4   2  315.26    8.80
   2   4  -2  284.95    9.75
   2  -4   2  303.48    8.99
  -2   4   2  298.92    9.77
   2   4  -2  302.62    8.99
  -2  -4  -2  297.86    8.84
   2   4  -2  302.25    9.76
   2   4   3  314.24   10.04
   2   4   3  319.39   10.05
  -2   4  -3  308.64    9.15
   2   4   3  314.36    9.27
   2  -4  -3  311.07    9.29
  -2  -4   3  310.17    9.13
  -2   4  -3  298.88   10.03
  -2  -4   3  312.47    9.25
   2  -4  -3  312.76    9.28
  -2   4  -3  304.74   10.06
   2  -4   3  315.40   10.05
  -2   4   3  319.88   10.12
  -2  -4  -3  312.17    9.11
   2   4  -3  312.47    9.29
  -2  -4  -3  324.51   10.03
   2  -4   3  323.13    9.24
   2   4  -3  315.50   10.04
   2   4  -3  284.77   10.04
  -2   4   3  311.56    9.11
  -2  -4  -3  323.54    9.25
   2  -4   3  324.13    9.28
  -2   4  -4  331.81    9.70
   2   4   4  340.39   10.67
  -2   4  -4  328.23   10.66
   2  -4  -4  334.78    9.88
   2   4   4  325.48   10.65
  -2  -4   4  331.25    9.82
  -2  -4   4  331.73    9.65
   2  -4  -4  337.40    9.85
  -2   4  -4  334.98   10.64
   2   4   4  335.18    9.84
  -2  -4  -4  329.22    9.81
  -2  -4  -4  334.87    9.65
  -2   4   4  330.16    9.68
  -2   4   4  338.58   10.64
   2  -4   4  338.42   10.66
  -2  -4  -4  337.41   10.64
   2  -4   4  322.89    9.85
   2   4  -4  323.14    9.82
   2   4  -4  335.85   10.66
   2   4  -4  322.03    9.84
   2  -4  -5  229.34    6.76
   2   4   5  227.69    6.74
   2  -4  -5  226.20    6.74
   2   4   5  230.07    7.32
  -2   4  -5  223.01    6.61
  -2   4  -5  227.26    7.30
  -2  -4   5  232.19    6.72
  -2  -4   5  231.95    6.61
  -2   4  -5  234.58    7.29
   2   4  -5  232.62    7.31
   2  -4   5  222.11    6.75
   2  -4   5  229.32    7.32
  -2  -4  -5  222.90    7.28
  -2   4   5  224.66    7.26
  -2  -4  -5  218.94    6.71
  -2  -4  -5  221.75    6.60
   2   4  -5  221.71    6.73
  -2   4   5  219.93    6.60
   2   4  -5  225.44    6.74
   2   4   6  152.09    4.44
  -2  -4   6  151.81    4.35
   2   4   6  145.50    4.83
  -2   4  -6  147.01    4.80
  -2  -4   6  146.24    4.42
   2  -4  -6  146.46    4.46
  -2   4  -6  145.92    4.35
  -2   4  -6  144.04    4.81
   2  -4  -6  144.15    4.44
   2  -4   6  148.43    4.83
  -2   4   6  146.68    4.34
   2   4  -6  146.21    4.43
  -2   4   6  151.20    4.77
  -2  -4  -6  145.13    4.78
  -2  -4  -6  149.55    4.34
   2  -4   6  147.25    4.45
   2   4  -6  151.01    4.81
  -2  -4  -6  148.60    4.42
   2   4  -6  149.54    4.44
  -2  -4   7   86.46    2.71
   2   4   7   88.74    2.97
  -2   4  -7   87.31    2.95
   2  -4  -7   88.35    2.75
  -2   4  -7   85.53    2.66
   2  -4  -7   86.67    2.72
  -2   4   7   93.39    2.91
   2   4  -7   90.94    2.72
  -2  -4  -7   89.85    2.66
  -2  -4  -7   90.08    2.70
   2  -4   7   87.93    2.74
   2   4  -7   89.04    2.96
  -2   4   7   89.08    2.65
   2  -4   7   90.78    2.97
  -2  -4  -7   89.91    2.92
   2  -4  -8   59.26    1.94
  -2  -4   8   60.97    1.90
  -2  -4   8   61.09    1.86
   2  -4  -8   63.32    1.92
  -2   4  -8   61.01    2.08
   2   4   8   61.40    2.09
  -2   4  -8   60.68    1.87
   2   4  -8   61.74    1.91
  -2  -4  -8   60.12    1.86
   2  -4   8   62.53    1.94
   2   4  -8   57.99    2.08
  -2   4   8   61.04    1.86
   2  -4   8   61.57    2.09
  -2  -4  -8   60.95    1.89
   2   4  -8   60.55    1.91
  -2  -4  -8   61.47    2.05
   2  -4  -9   70.54    2.22
  -2  -4   9   68.92    2.13
   2   4   9   72.33    2.39
  -2   4  -9   67.43    2.37
  -2   4  -9   70.28    2.14
   2  -4  -9   70.52    2.19
  -2  -4   9   69.57    2.17
  -2  -4  -9   70.73    2.35
   2  -4   9   70.18    2.38
   2   4  -9   69.86    2.19
  -2   4   9   69.84    2.13
   2   4  -9   65.60    2.37
  -2  -4  -9   70.31    2.16
   2   4  -9   71.07    2.18
   2  -4   9   70.14    2.21
   2   4  10   54.93    1.82
   2  -4 -10   52.37    1.67
  -2   4 -10   52.03    1.80
   2  -4 -10   52.67    1.69
  -2  -4  10   48.35    1.63
  -2  -4  10   49.34    1.61
   2   4 -10   49.05    1.81
  -2  -4 -10   52.84    1.77
  -2   4  10   51.14    1.61
   2   4  11   34.22    1.26
   2  -4 -11   33.52    1.16
   2  -4 -11   34.50    1.18
  -2   4  11   34.36    1.12
   2   4 -11   30.45    1.25
  -2  -4 -11   35.33    1.24
   2  -4 -12   19.89    0.77
  -2   4 -12   19.17    0.81
   2   4  12   20.61    0.83
   2   4 -12   18.20    0.82
   2  -4 -13    7.71    0.43
   2   4 -13    7.23    0.45
   2  -5   0    1.69    0.12
  -2   5   0    1.70    0.09
   2   5   0    1.64    0.12
   2   5   0    1.72    0.11
   2   5   0    1.62    0.13
  -2  -5   0    1.69    0.11
   2  -5   0    1.66    0.11
  -2   5   0    1.64    0.12
  -2  -5   0    1.75    0.10
  -2   5   0    1.88    0.09
   2  -5  -1    5.81    0.23
   2   5   1    5.88    0.28
  -2  -5   1    5.97    0.22
   2   5   1    6.01    0.26
  -2  -5   1    5.80    0.24
   2  -5  -1    5.90    0.25
   2   5   1    5.87    0.23
  -2   5  -1    5.94    0.23
  -2   5  -1    5.73    0.26
  -2   5  -1    5.44    0.21
   2   5  -1    5.82    0.26
   2  -5   1    5.60    0.23
   2   5  -1    5.99    0.26
  -2  -5  -1    6.04    0.22
  -2   5   1    5.89    0.26
  -2  -5  -1    5.85    0.24
   2  -5   1    5.82    0.23
   2   5  -1    5.95    0.23
  -2   5   1    5.96    0.21
   2   5   2    7.23    0.32
   2   5   2    6.94    0.29
  -2   5  -2    6.51    0.24
  -2  -5   2    6.73    0.27
  -2  -5   2    6.74    0.25
  -2   5  -2    6.74    0.28
   2  -5  -2    7.06    0.26
   2  -5  -2    6.79    0.29
   2   5   2    6.97    0.27
  -2   5  -2    6.28    0.29
   2   5  -2    7.02    0.26
   2   5  -2    6.77    0.29
  -2  -5  -2    7.07    0.27
   2  -5   2    6.47    0.26
   2   5  -2    6.59    0.29
   2  -5   2    6.64    0.25
  -2   5   2    6.37    0.28
  -2   5   2    6.87    0.24
  -2  -5  -2    6.82    0.25
   2  -5  -3    5.53    0.26
   2   5   3    4.95    0.22
  -2   5  -3    5.22    0.25
   2  -5  -3    5.00    0.22
  -2   5  -3    5.28    0.21
   2   5   3    5.31    0.24
   2   5   3    5.63    0.28
  -2  -5   3    5.16    0.23
  -2   5  -3    4.89    0.24
  -2  -5   3    5.03    0.21
   2   5  -3    5.06    0.23
   2   5  -3    5.60    0.25
  -2   5   3    5.57    0.25
   2  -5   3    5.00    0.28
   2  -5   3    5.67    0.23
  -2   5   3    5.31    0.21
   2   5  -3    5.23    0.22
  -2  -5  -3    5.59    0.23
  -2  -5  -3    5.47    0.21
  -2   5  -4   11.16    0.38
   2  -5  -4   11.16    0.40
   2   5   4   11.34    0.40
   2   5   4   11.49    0.47
  -2  -5   4   11.64    0.38
  -2   5  -4   11.38    0.44
   2  -5  -4   11.98    0.44
  -2   5  -4   11.27    0.43
   2   5   4   11.16    0.43
  -2  -5   4   10.99    0.40
   2   5  -4   10.09    0.39
  -2  -5  -4   10.22    0.41
   2   5  -4   10.55    0.43
  -2   5   4   10.67    0.42
  -2  -5  -4   10.47    0.39
  -2   5   4    9.78    0.37
   2  -5   4    9.78    0.45
   2  -5   4    9.62    0.40
  -2  -5  -4   10.25    0.37
  -2  -5   5   19.34    0.66
   2  -5  -5   18.69    0.66
   2   5   5   19.48    0.75
   2   5   5   19.38    0.66
  -2   5  -5   18.60    0.71
  -2  -5   5   19.03    0.63
   2  -5  -5   19.28    0.69
  -2   5  -5   18.83    0.64
   2   5   5   19.30    0.71
  -2   5  -5   18.78    0.72
  -2  -5  -5   19.88    0.66
  -2  -5  -5   20.21    0.70
  -2   5   5   19.21    0.70
  -2  -5  -5   20.56    0.64
  -2   5   5   20.28    0.63
   2   5  -5   19.77    0.66
   2   5  -5   20.09    0.73
   2  -5   5   18.93    0.67
   2  -5   5   19.62    0.75
  -2   5  -6   24.89    0.83
   2  -5  -6   25.92    0.89
  -2   5  -6   24.61    0.92
  -2   5  -6   25.63    0.93
  -2  -5   6   25.90    0.85
   2   5   6   26.22    0.96
   2  -5  -6   25.19    0.85
   2  -5   6   25.62    0.87
  -2  -5  -6   25.81    0.90
   2   5  -6   25.30    0.85
   2   5  -6   26.28    0.94
  -2  -5  -6   25.87    0.84
   2  -5   6   25.53    0.95
  -2   5   6   24.70    0.81
  -2  -5  -6   25.43    0.82
  -2   5   6   26.05    0.90
  -2   5  -7   25.07    0.84
   2   5   7   25.45    0.97
  -2  -5   7   25.01    0.83
  -2   5  -7   24.80    0.94
   2  -5  -7   25.48    0.90
  -2  -5   7   25.91    0.85
   2   5   7   25.83    0.87
  -2   5  -7   24.02    0.92
   2  -5  -7   25.69    0.87
  -2  -5  -7   26.68    0.91
   2   5  -7   27.20    0.87
  -2  -5  -7   26.16    0.86
   2   5  -7   25.68    0.95
  -2   5   7   25.24    0.83
  -2   5   7   26.26    0.91
   2   5  -7   24.86    0.86
   2  -5   7   25.55    0.96
   2  -5   7   25.92    0.89
  -2   5  -8   22.53    0.77
  -2  -5   8   24.14    0.79
  -2   5  -8   22.58    0.85
  -2   5  -8   22.67    0.86
   2   5   8   22.81    0.89
  -2  -5   8   23.13    0.77
   2  -5  -8   23.62    0.80
   2  -5  -8   22.93    0.83
  -2   5   8   22.26    0.76
   2   5  -8   23.44    0.80
   2   5  -8   22.41    0.87
   2  -5   8   22.10    0.82
  -2  -5  -8   23.23    0.79
   2  -5   8   21.85    0.88
   2   5  -8   23.32    0.79
  -2  -5  -8   23.05    0.84
   2   5   9   19.74    0.81
   2  -5  -9   20.17    0.73
  -2   5  -9   18.70    0.76
  -2   5  -9   19.76    0.79
  -2  -5   9   19.67    0.71
   2  -5  -9   19.23    0.75
  -2   5  -9   19.59    0.70
  -2  -5  -9   20.71    0.72
   2  -5   9   20.09    0.80
  -2  -5  -9   20.14    0.76
   2   5  -9   21.83    0.73
   2   5  -9   19.18    0.80
   2   5  -9   21.07    0.73
   2  -5   9   19.96    0.75
  -2   5   9   20.40    0.70
   2  -5 -10   16.82    0.66
  -2   5 -10   16.79    0.71
   2   5  10   18.03    0.74
   2  -5 -10   17.45    0.69
  -2  -5 -10   18.37    0.65
  -2   5  10   16.51    0.62
   2   5 -10   16.71    0.73
  -2   5 -11   15.88    0.69
   2   5  11   16.61    0.71
   2  -5 -11   16.13    0.66
   2  -5 -11   16.24    0.65
  -2   5  11   15.72    0.60
   2   5 -11   14.99    0.70
  -2   5 -12   13.19    0.60
   2   5  12   12.89    0.61
   2  -5 -12   12.64    0.58
   2   5 -12   11.77    0.61
  -2   6   0  251.12    7.79
  -2  -6   0  276.14    7.79
  -2  -6   0  272.90    7.93
  -2   6   0  266.99    8.58
   2  -6   0  259.93    7.93
   2   6   0  271.97    8.60
   2  -6   0  260.99    7.94
   2   6   0  277.26    8.59
   2   6   0  269.26    7.94
  -2  -6   1  269.83    7.97
   2  -6  -1  276.17    8.14
   2   6   1  265.79    8.13
  -2   6  -1  269.33    7.96
  -2   6  -1  292.32    8.77
  -2  -6   1  279.08    8.12
   2   6   1  275.34    8.79
  -2   6  -1  272.59    8.78
   2  -6  -1  271.14    8.13
   2   6   1  280.39    8.81
  -2  -6  -1  278.26    8.12
   2  -6   1  270.69    8.14
   2   6  -1  273.43    8.80
   2   6  -1  276.03    8.80
  -2   6   1  280.48    7.97
  -2   6   1  269.71    8.78
  -2  -6  -1  275.98    7.97
   2  -6   1  254.99    8.11
   2   6  -1  272.10    8.13
  -2  -6   2  257.17    7.54
  -2   6  -2  260.21    7.54
  -2   6  -2  256.06    8.32
   2  -6  -2  256.88    7.70
   2  -6  -2  267.95    7.71
   2   6   2  254.53    7.69
   2   6   2  266.94    8.35
  -2   6  -2  272.29    8.31
   2   6   2  255.29    8.32
  -2  -6   2  262.20    7.68
   2  -6   2  258.87    7.70
  -2   6   2  255.28    8.31
  -2  -6  -2  266.26    7.69
   2   6  -2  257.41    8.33
   2   6  -2  239.64    8.31
  -2  -6  -2  257.33    7.54
  -2   6   2  256.40    7.54
   2   6  -2  261.80    7.70
   2  -6  -3  230.37    6.75
   2   6   3  225.94    6.73
  -2  -6   3  231.15    6.72
   2   6   3  231.16    7.31
  -2   6  -3  223.68    7.27
   2   6   3  226.93    7.27
   2  -6  -3  228.56    6.74
  -2  -6   3  221.76    6.59
  -2   6  -3  223.97    6.59
  -2   6  -3  227.05    7.27
  -2   6   3  232.89    6.59
  -2   6   3  226.79    7.27
   2   6  -3  199.49    7.25
  -2  -6  -3  230.77    6.72
  -2  -6  -3  223.28    6.59
   2  -6   3  225.56    6.74
   2   6  -3  233.16    7.29
   2   6  -3  224.64    6.73
  -2  -6   4  137.49    4.16
  -2   6  -4  139.86    4.59
   2   6   4  146.46    4.25
  -2   6  -4  140.74    4.16
   2  -6  -4  143.45    4.26
   2   6   4  145.05    4.63
  -2  -6   4  140.48    4.24
   2  -6  -4  145.23    4.28
   2   6   4  143.85    4.60
  -2   6  -4  140.50    4.60
   2   6  -4  140.05    4.25
  -2   6   4  140.61    4.59
  -2  -6  -4  141.23    4.16
  -2  -6  -4  141.49    4.25
  -2   6   4  137.08    4.15
  -2  -6  -4  142.41    4.58
   2   6  -4  139.81    4.60
   2  -6   4  141.64    4.26
   2   6   5  157.65    5.21
  -2   6  -5  157.16    4.69
   2  -6  -5  160.39    4.80
   2   6   5  160.59    5.18
  -2   6  -5  157.98    5.18
  -2  -6   5  161.35    4.78
   2  -6  -5  163.67    4.83
  -2   6  -5  160.28    5.18
   2   6   5  165.65    4.80
  -2  -6   5  154.42    4.69
  -2  -6  -5  165.69    4.70
  -2   6   5  159.19    5.17
  -2  -6  -5  155.40    5.16
   2   6  -5  161.02    4.79
   2   6  -5  158.53    5.19
  -2  -6  -5  156.93    4.78
  -2   6   5  159.88    4.69
   2  -6   5  161.20    5.22
   2  -6   5  156.69    4.81
   2  -6  -6  129.48    3.98
  -2   6  -6  130.08    4.30
  -2   6  -6  131.99    4.30
   2   6   6  133.34    3.98
  -2  -6   6  129.04    3.96
  -2  -6   6  127.90    3.89
  -2   6  -6  129.68    3.89
   2  -6  -6  130.17    4.01
   2   6   6  125.62    4.33
   2   6  -6  132.60    3.98
  -2   6   6  128.88    3.88
  -2  -6  -6  131.27    3.97
   2  -6   6  137.49    4.00
  -2  -6  -6  132.69    3.89
  -2  -6  -6  131.23    4.27
   2   6  -6  135.49    4.32
  -2   6   6  138.70    4.28
   2  -6   6  131.37    4.33
  -2  -6   7  111.01    3.36
  -2   6  -7  110.26    3.70
   2  -6  -7  109.01    3.47
  -2  -6   7  109.96    3.41
  -2   6  -7  114.46    3.37
  -2   6  -7  112.02    3.72
   2  -6  -7  112.15    3.44
   2   6   7  109.22    3.74
  -2   6   7  117.79    3.70
  -2  -6  -7  110.77    3.42
   2   6  -7  117.11    3.44
  -2  -6  -7  112.86    3.68
   2  -6   7  115.72    3.47
  -2   6   7  113.27    3.36
   2  -6   7  112.61    3.75
   2   6  -7  115.55    3.74
  -2   6  -8   83.18    2.75
  -2   6  -8   81.93    2.48
  -2  -6   8   80.62    2.52
   2  -6  -8   79.96    2.57
   2   6   8   80.71    2.78
  -2   6  -8   79.58    2.73
  -2  -6   8   81.16    2.48
   2  -6  -8   83.84    2.55
   2  -6   8   82.49    2.57
   2   6  -8   81.86    2.54
  -2   6   8   82.87    2.48
   2  -6   8   83.00    2.78
  -2   6   8   86.29    2.73
  -2  -6  -8   81.24    2.53
   2   6  -8   78.91    2.76
  -2   6  -9   53.19    1.77
   2  -6  -9   50.07    1.67
   2   6   9   49.90    1.79
   2  -6  -9   52.04    1.64
  -2  -6  -9   50.63    1.62
   2   6  -9   48.13    1.78
  -2   6   9   48.71    1.58
  -2   6 -10   29.96    1.12
   2  -6 -10   30.13    1.05
   2   6  10   29.16    1.14
   2  -6 -10   29.27    1.07
  -2   6  10   30.50    1.00
   2   6 -10   27.71    1.13
  -2  -6 -10   31.17    1.03
   2   6  11   21.65    0.87
   2  -6 -11   19.73    0.80
  -2   6 -11   20.97    0.85
   2   6 -11   19.57    0.86
   2   6  12   12.98    0.63
   2  -6 -12   12.86    0.60
  -2   7   0    0.08    0.05
   2   7   0    0.10    0.05
   2   7   0    0.08    0.08
  -2  -7   0    0.03    0.06
   2  -7   0    0.06    0.06
  -2  -7   0    0.01    0.05
  -2   7   0    0.10    0.07
   2  -7   0    0.20    0.08
   2   7   0    0.06    0.06
   2  -7  -1    0.04    0.06
   2   7   1    0.06    0.08
   2   7   1   -0.01    0.05
  -2  -7   1    0.07    0.06
   2  -7  -1    0.10    0.07
   2   7   1    0.00    0.06
  -2   7  -1    0.06    0.07
  -2   7  -1    0.07    0.05
  -2  -7   1   -0.01    0.05
  -2  -7  -1    0.00    0.05
  -2  -7  -1   -0.02    0.06
   2   7  -1    0.04    0.06
   2   7  -1    0.00    0.06
  -2   7   1   -0.04    0.06
  -2   7   1    0.05    0.05
   2  -7   1    0.04    0.06
   2  -7   1    0.07    0.06
   2   7  -1    0.06    0.07
  -2  -7   2    3.56    0.17
   2   7   2    3.43    0.19
  -2  -7   2    3.30    0.19
   2  -7  -2    3.51    0.21
   2   7   2    3.16    0.22
   2   7   2    3.23    0.18
  -2   7  -2    3.51    0.17
   2  -7  -2    3.26    0.19
  -2   7  -2    3.14    0.19
  -2  -7  -2    3.12    0.16
  -2   7   2    2.94    0.16
   2   7  -2    3.01    0.20
   2   7  -2    3.32    0.20
  -2   7   2    3.16    0.19
   2  -7   2    3.48    0.19
  -2  -7  -2    3.57    0.20
   2   7  -2    3.44    0.18
   2  -7  -3    5.81    0.29
  -2   7  -3    5.40    0.28
   2   7   3    5.61    0.26
  -2   7  -3    5.28    0.23
   2  -7  -3    5.48    0.26
  -2  -7   3    5.64    0.26
   2   7   3    6.04    0.32
  -2  -7   3    5.46    0.24
  -2   7  -3    5.84    0.26
  -2  -7  -3    5.83    0.27
  -2   7   3    5.58    0.27
   2  -7   3    5.59    0.26
   2   7  -3    5.81    0.28
  -2   7   3    5.35    0.23
  -2  -7  -3    5.26    0.23
   2   7  -3    4.75    0.26
   2   7   4   18.50    0.74
   2  -7  -4   18.94    0.68
  -2   7  -4   18.80    0.68
   2  -7  -4   18.55    0.65
   2   7   4   18.59    0.68
  -2  -7   4   18.75    0.62
  -2   7  -4   18.02    0.70
  -2   7  -4   18.08    0.62
  -2  -7   4   19.21    0.64
  -2  -7  -4   18.89    0.65
   2  -7   4   18.30    0.66
   2   7  -4   19.09    0.71
  -2  -7  -4   17.80    0.62
  -2   7   4   18.60    0.61
  -2  -7  -4   18.47    0.67
   2   7  -4   18.73    0.64
  -2   7   4   17.37    0.69
  -2  -7   5   20.31    0.69
  -2   7  -5   19.51    0.76
  -2  -7   5   19.59    0.67
   2   7   5   20.16    0.70
  -2   7  -5   20.30    0.75
   2   7   5   19.98    0.79
  -2   7  -5   19.39    0.67
   2  -7  -5   19.60    0.71
   2   7   5   20.05    0.74
   2  -7  -5   19.93    0.74
   2   7  -5   21.45    0.71
   2  -7   5   20.64    0.72
  -2  -7  -5   20.38    0.71
  -2  -7  -5   20.77    0.73
  -2   7   5   20.08    0.67
  -2   7   5   20.61    0.75
   2   7  -5   20.74    0.77
  -2  -7   6    8.67    0.35
   2   7   6    7.98    0.40
  -2   7  -6    7.60    0.37
   2  -7  -6    7.61    0.35
  -2   7  -6    7.28    0.33
   2  -7  -6    8.09    0.39
  -2   7  -6    8.32    0.38
  -2   7   6    8.06    0.37
  -2   7   6    7.67    0.32
  -2  -7  -6    7.89    0.35
   2  -7   6    7.52    0.36
   2   7  -6    8.11    0.39
   2  -7  -7   14.36    0.56
  -2   7  -7   13.97    0.53
  -2   7  -7   14.64    0.59
  -2   7  -7   13.57    0.58
  -2  -7   7   14.69    0.54
   2  -7  -7   14.46    0.59
   2   7   7   14.05    0.62
  -2   7   7   14.60    0.58
  -2   7   7   14.49    0.52
  -2  -7  -7   14.75    0.55
   2   7  -7   14.44    0.61
   2  -7   7   13.86    0.57
   2  -7  -8   16.86    0.67
  -2   7  -8   18.66    0.73
  -2   7  -8   17.55    0.70
   2  -7  -8   18.12    0.71
  -2   7  -8   17.40    0.64
   2   7   8   18.63    0.76
   2  -7   8   18.04    0.69
  -2   7   8   17.10    0.63
  -2  -7  -8   18.05    0.67
  -2   7   8   18.27    0.71
   2   7  -8   18.28    0.75
   2  -7  -9   18.43    0.75
   2  -7  -9   19.12    0.73
   2   7   9   19.30    0.82
  -2   7  -9   19.88    0.79
  -2  -7  -9   20.50    0.73
  -2   7   9   19.24    0.69
   2   7  -9   19.03    0.80
  -2   7 -10   18.09    0.74
   2   7  10   17.25    0.76
   2  -7 -10   15.98    0.70
  -2  -7 -10   17.20    0.67
  -2   7  10   17.38    0.65
   2   7 -10   16.62    0.75
   2   7  11   11.17    0.56
   2  -7 -11   10.19    0.52
  -2  -7 -11   10.53    0.49
   2   7 -11   10.05    0.55
   2  -8   0  206.75    6.54
   2   8   0  230.76    7.11
   2  -8   0  218.93    6.56
   2   8   0  220.77    6.55
  -2  -8   0  215.32    6.42
  -2  -8   0  219.42    6.54
   2   8   0  231.47    7.08
  -2   8   0  210.67    7.07
  -2   8   0  219.90    6.41
   2   8   1  214.56    6.36
   2  -8  -1  209.50    6.38
  -2  -8   1  215.69    6.36
   2   8   1  223.95    6.92
   2   8   1  221.76    6.88
   2  -8  -1  210.16    6.38
  -2   8  -1  206.31    6.23
  -2  -8   1  213.96    6.24
  -2   8  -1  200.77    6.88
   2   8  -1  216.08    6.90
   2   8  -1  220.84    6.88
   2   8  -1  219.03    6.37
  -2   8   1  207.46    6.88
   2  -8   1  209.61    6.38
  -2  -8  -1  211.03    6.23
  -2  -8  -1  215.40    6.36
  -2   8   1  206.18    6.23
   2   8   2  177.00    5.13
   2  -8  -2  176.69    5.16
  -2  -8   2  169.08    5.02
  -2   8  -2  170.57    5.02
  -2  -8   2  169.96    5.12
  -2   8  -2  164.54    5.54
   2  -8  -2  167.15    5.14
   2   8   2  175.50    5.58
   2   8   2  176.68    5.54
  -2   8   2  163.43    5.54
   2   8  -2  164.75    5.55
  -2   8   2  166.58    5.02
  -2  -8  -2  171.11    5.13
   2   8  -2  172.93    5.13
  -2  -8  -2  174.77    5.02
   2   8  -2  172.62    5.55
   2  -8   2  172.85    5.14
   2   8   3  144.30    4.61
   2  -8  -3  149.43    4.31
  -2  -8   3  143.45    4.18
  -2   8  -3  143.90    4.18
  -2   8  -3  135.07    4.61
  -2  -8   3  139.91    4.26
   2  -8  -3  139.58    4.28
   2   8   3  144.10    4.66
  -2  -8  -3  136.71    4.18
  -2   8   3  138.51    4.62
   2  -8   3  141.20    4.29
   2   8  -3  144.34    4.27
  -2  -8  -3  143.41    4.28
  -2   8   3  136.64    4.17
   2   8  -3  144.62    4.62
   2   8   4  110.79    3.57
   2  -8  -4  106.69    3.27
   2  -8  -4  110.33    3.30
  -2  -8   4  106.57    3.19
  -2   8  -4  107.12    3.18
  -2   8  -4  102.78    3.52
  -2  -8   4  104.19    3.24
  -2   8   4  105.83    3.18
  -2   8   4  105.78    3.52
   2   8  -4  108.38    3.53
   2  -8   4  108.99    3.28
  -2  -8  -4  105.95    3.26
   2  -8  -5  127.79    3.95
  -2   8  -5  136.31    4.22
  -2   8  -5  122.57    4.22
  -2   8  -5  127.48    3.82
   2  -8  -5  127.99    3.92
   2   8   5  129.12    4.27
  -2  -8   5  128.36    3.89
  -2  -8  -5  130.26    3.91
   2  -8   5  131.67    3.93
   2   8  -5  127.34    4.23
  -2   8   5  129.27    3.82
  -2   8   5  127.51    4.22
   2  -8  -6  104.10    3.22
  -2   8  -6  102.21    3.10
  -2  -8   6  102.08    3.15
   2  -8  -6  104.56    3.19
   2   8   6  103.72    3.48
  -2   8  -6   99.65    3.42
  -2   8  -6  107.77    3.43
   2  -8   6  108.43    3.21
  -2   8   6  104.32    3.10
  -2  -8  -6  101.74    3.17
   2   8  -6  100.63    3.44
  -2   8   6  103.39    3.42
  -2   8  -7   86.42    2.84
   2  -8  -7   83.73    2.67
  -2   8  -7   84.90    2.57
   2   8   7   82.25    2.88
  -2   8  -7   79.34    2.82
   2  -8  -7   87.33    2.65
  -2  -8   7   83.37    2.60
  -2   8   7   84.85    2.83
  -2  -8  -7   84.39    2.63
   2   8  -7   83.89    2.86
   2  -8   7   88.82    2.67
  -2   8   7   85.75    2.56
  -2   8  -8   59.12    1.98
   2   8   8   57.06    2.02
  -2   8  -8   55.35    1.96
   2  -8  -8   56.29    1.87
  -2  -8  -8   55.24    1.82
  -2   8   8   58.85    1.97
  -2   8   8   56.74    1.77
   2   8  -8   56.29    1.99
  -2   8  -9   45.42    1.60
   2  -8  -9   43.60    1.52
   2   8   9   44.67    1.64
  -2   8   9   44.50    1.43
  -2  -8  -9   44.63    1.48
   2   8  -9   44.50    1.63
   2   8  10   25.95    1.07
  -2   8 -10   27.24    1.04
   2  -8 -10   26.21    0.99
   2   8 -10   25.93    1.06
  -2  -8 -10   26.44    0.96
  -2  -8 -11   15.54    0.66
  -2   9   0    0.09    0.09
  -2  -9   0    0.01    0.07
   2   9   0    0.04    0.10
   2   9   0    0.00    0.08
  -2   9   0    0.00    0.06
   2  -9   0    0.02    0.09
   2  -9   0   -0.09    0.06
   2  -9  -1    2.76    0.21
  -2  -9   1    2.94    0.19
   2  -9  -1    3.12    0.20
  -2   9  -1    2.78    0.20
  -2   9  -1    2.97    0.18
   2   9   1    2.93    0.24
   2  -9   1    3.01    0.20
  -2   9   1    2.98    0.17
  -2  -9  -1    2.89    0.20
   2   9  -1    3.16    0.21
   2   9  -1    3.45    0.24
  -2   9   1    2.93    0.21
   2   9   2    2.14    0.22
  -2  -9   2    2.34    0.17
  -2   9  -2    2.06    0.15
  -2   9  -2    1.93    0.18
   2  -9  -2    2.17    0.19
   2  -9  -2    2.08    0.18
   2  -9   2    2.30    0.18
  -2  -9  -2    2.23    0.18
   2   9  -2    2.33    0.20
   2   9  -2    2.37    0.18
  -2   9   2    2.18    0.16
  -2   9   2    1.94    0.18
   2  -9  -3    3.06    0.23
  -2   9  -3    2.64    0.21
   2  -9  -3    2.80    0.20
  -2   9  -3    2.99    0.18
   2   9   3    2.97    0.25
  -2  -9   3    3.12    0.20
   2   9  -3    3.16    0.21
  -2   9   3    2.50    0.17
  -2  -9  -3    2.99    0.21
  -2   9   3    2.84    0.22
   2  -9   3    3.15    0.22
  -2   9  -4    5.09    0.30
   2  -9  -4    5.64    0.32
   2   9   4    5.66    0.35
  -2   9  -4    5.42    0.26
   2  -9  -4    5.24    0.29
  -2  -9   4    5.15    0.27
   2   9  -4    6.03    0.31
  -2   9   4    5.73    0.31
   2  -9   4    5.90    0.31
  -2   9   4    5.98    0.26
  -2  -9  -4    5.67    0.29
   2  -9  -5   11.35    0.48
  -2   9  -5   10.08    0.49
  -2  -9   5   11.51    0.45
   2   9   5   11.83    0.55
   2  -9  -5   11.66    0.51
  -2   9  -5   11.46    0.44
  -2   9   5   11.09    0.50
   2  -9   5   11.22    0.49
  -2  -9  -5   11.42    0.48
   2   9  -5   11.45    0.50
  -2   9  -6   16.11    0.58
   2   9   6   16.04    0.69
  -2  -9   6   15.59    0.59
   2  -9  -6   16.09    0.65
  -2   9  -6   14.59    0.64
   2   9  -6   16.72    0.66
  -2   9   6   15.62    0.57
   2  -9   6   15.31    0.63
  -2  -9  -6   15.52    0.61
  -2   9   6   15.67    0.65
  -2   9  -7   10.61    0.51
   2   9   7   12.25    0.58
   2  -9  -7   11.71    0.53
   2  -9  -7   11.34    0.50
  -2  -9  -7   11.56    0.50
   2   9  -7   12.52    0.55
  -2   9   7   11.07    0.52
  -2   9   7   11.64    0.47
  -2   9  -8   11.16    0.53
   2  -9  -8   11.51    0.52
   2  -9  -8   11.52    0.55
   2   9   8   11.91    0.59
  -2  -9  -8   11.88    0.52
  -2   9   8   11.64    0.48
   2   9  -8   12.15    0.56
  -2   9   8   12.17    0.55
   2  -9  -9   12.30    0.58
   2   9   9   12.06    0.62
  -2   9  -9   12.72    0.58
   2   9  -9   11.80    0.59
  -2  -9  -9   12.64    0.55
  -2   9 -10    9.91    0.51
  -2  -9 -10   10.02    0.49
   2  10   0  105.93    3.40
   2 -10   0  101.32    3.12
  -2  10   0   96.47    3.35
  -2 -10   0  102.39    3.10
  -2  10   0   99.19    3.02
   2 -10  -1  126.79    3.91
   2 -10  -1  126.38    3.91
   2  10   1  134.39    4.26
  -2  10  -1  121.64    4.21
  -2 -10   1  128.45    3.89
  -2  10  -1  127.00    3.80
  -2 -10  -1  132.33    3.90
   2  10  -1  134.54    4.25
  -2  10   1  126.10    3.80
  -2  10   1  122.40    4.21
   2  10   2  134.91    4.32
  -2 -10   2  128.20    3.94
  -2  10  -2  124.56    4.27
   2 -10  -2  134.12    3.98
  -2  10  -2  128.47    3.86
   2 -10   2  130.51    3.97
   2  10  -2  132.15    4.26
  -2 -10  -2  130.12    3.95
   2  10  -2  130.43    4.30
  -2  10   2  124.40    4.27
  -2 -10   3  125.99    3.79
   2 -10  -3  131.75    3.85
  -2  10  -3  119.36    4.11
   2  10   3  132.12    4.17
  -2  10  -3  123.77    3.71
   2 -10  -3  125.83    3.83
   2 -10   3  124.96    3.83
  -2  10   3  120.51    3.71
  -2 -10  -3  122.72    3.81
   2  10  -3  125.71    4.11
  -2  10   3  119.74    4.11
   2 -10  -4  117.42    3.64
   2 -10  -4  122.45    3.67
  -2  10  -4  113.12    3.91
   2  10   4  120.68    3.97
  -2  10  -4  118.28    3.54
  -2 -10  -4  116.90    3.63
   2  10  -4  119.73    3.91
  -2  10   4  113.26    3.91
   2 -10   4  123.86    3.66
  -2  10  -5   81.69    2.88
  -2 -10   5   83.33    2.65
   2  10   5   88.05    2.94
   2 -10  -5   86.25    2.72
  -2  10  -5   83.65    2.60
  -2 -10  -5   85.92    2.68
  -2  10   5   88.49    2.89
   2  10  -5   87.89    2.89
  -2  10  -6   63.01    2.24
   2 -10  -6   65.26    2.09
   2  10   6   64.67    2.30
   2 -10  -6   65.54    2.13
   2  10  -6   66.20    2.25
  -2  10   6   64.54    2.02
  -2  10   6   66.27    2.25
  -2 -10  -6   66.93    2.10
   2  10   7   47.78    1.78
  -2  10  -7   47.65    1.73
   2 -10  -7   49.43    1.66
  -2 -10  -7   48.91    1.62
  -2  10   7   48.32    1.56
   2  10  -7   50.90    1.75
  -2  10   7   49.58    1.74
   2  10   8   30.23    1.23
   2 -10  -8   31.24    1.16
  -2 -10  -8   30.84    1.11
   2  10  -8   31.74    1.20
  -2  10   8   32.57    1.20
  -2  10   9   37.77    1.41
  -2 -11   0    0.18    0.12
   2  11   0    0.24    0.14
  -2  11   0    0.12    0.12
  -2  11   0    0.07    0.09
   2 -11   0    0.15    0.11
   2  11   1    0.49    0.16
   2 -11  -1    0.39    0.12
  -2 -11   1    0.42    0.13
  -2  11  -1    0.38    0.11
  -2  11  -1    0.44    0.13
   2  11  -1    0.34    0.16
  -2 -11  -1    0.33    0.13
  -2  11   1    0.34    0.10
   2 -11   1    0.36    0.12
  -2  11   1    0.23    0.13
  -2 -11   2    0.81    0.15
  -2  11  -2    0.48    0.14
   2 -11  -2    0.76    0.15
   2 -11  -2    1.01    0.17
   2  11   2    0.79    0.17
  -2  11  -2    0.68    0.12
  -2 -11  -2    0.65    0.14
   2 -11   2    0.58    0.13
  -2  11   2    0.58    0.12
  -2  11   2    0.52    0.14
   2 -11  -3    4.70    0.31
  -2 -11   3    4.92    0.28
   2  11   3    4.86    0.35
   2 -11  -3    4.24    0.28
  -2  11  -3    4.45    0.26
  -2  11  -3    4.19    0.29
  -2  11   3    4.09    0.29
  -2 -11  -3    4.22    0.28
  -2  11   3    4.32    0.25
   2 -11  -4    5.42    0.32
   2  11   4    6.04    0.40
   2 -11  -4    5.71    0.37
  -2 -11   4    5.64    0.31
  -2  11  -4    5.26    0.34
  -2 -11  -4    6.22    0.35
  -2  11   4    5.84    0.30
  -2  11   4    6.22    0.35
   2  11  -4    6.23    0.34
   2 -11  -5    6.00    0.38
   2 -11  -5    5.43    0.33
  -2  11  -5    5.26    0.34
   2  11   5    5.61    0.39
  -2  11   5    5.26    0.34
  -2 -11  -5    5.64    0.33
  -2  11   5    4.84    0.28
   2  11  -5    5.86    0.35
  -2  11  -6    6.55    0.39
   2  11   6    7.92    0.47
   2 -11  -6    8.05    0.44
  -2 -11  -6    7.22    0.40
  -2  11   6    7.35    0.42
   2  11  -6    7.65    0.42
  -2  11   7    8.06    0.46
   2  11  -7    9.21    0.49
   2  12   0   90.22    3.10
   2  12   1   85.76    2.87
  -2 -12   1   82.22    2.61
  -2  12  -1   78.97    2.82
  -2  12   1   81.04    2.82
  -2 -12  -1   86.75    2.62
  -2  12  -2   84.35    2.88
  -2  12   2   84.98    2.88
  -2  12  -3   85.43    2.96
  -2 -12   3   86.76    2.72
   2 -12  -3   91.01    2.79
  -2  12   3   83.86    2.96
  -2 -12  -3   88.33    2.75
   2  12   4   77.99    2.73
  -2  12  -5   55.76    2.05
   2 -12  -5   61.20    1.97
  -2  12  -6   44.15    1.60
   2  13   0    0.14    0.17
   2  13   1    0.40    0.20
  -2 -13   1    0.25    0.16
  -2 -13   2    2.16    0.22
   3   0   0    0.02    0.04
  -3   0   0    0.01    0.03
   3   0   0    0.03    0.04
   3   0   0    0.02    0.04
  -3   0  -1    0.28    0.04
   3   0   1    0.32    0.07
  -3   0  -1    0.26    0.02
   3   0   1    0.39    0.03
   3   0  -1    0.25    0.05
   3   0  -1    0.24    0.06
   3   0   1    0.26    0.06
  -3   0  -1    0.31    0.03
   3   0  -1    0.20    0.05
   3   0   1    0.25    0.05
  -3   0  -1    0.24    0.05
   3   0   1    0.22    0.02
  -3   0  -2    0.10    0.03
  -3   0  -2    0.04    0.02
   3   0  -2    0.09    0.04
   3   0  -2    0.06    0.02
   3   0   2    0.04    0.05
   3   0  -2    0.02    0.04
   3   0   2    0.05    0.03
   3   0   2    0.07    0.03
  -3   0   2    0.06    0.02
   3   0  -2    0.07    0.02
  -3   0   2    0.10    0.02
   3   0   2    0.09    0.05
  -3   0  -2    0.05    0.03
   3   0  -2    0.09    0.05
  -3   0  -2    0.03    0.04
   3   0  -3    8.95    0.30
  -3   0  -3    8.81    0.30
  -3   0   3    9.38    0.29
   3   0  -3    9.07    0.30
  -3   0  -3    9.52    0.30
   3   0   3    8.58    0.31
   3   0   3    9.18    0.32
  -3   0   3    9.21    0.33
  -3   0   3    9.19    0.29
  -3   0  -3    9.95    0.31
   3   0  -3    9.16    0.35
   3   0  -3    8.71    0.34
   3   0   3    9.07    0.39
  -3   0  -3    8.87    0.36
   3   0   3    8.93    0.37
   3   0  -3    9.09    0.34
  -3   0  -4   12.22    0.38
   3   0  -4   11.83    0.40
  -3   0   4   12.47    0.41
   3   0  -4   11.72    0.44
   3   0   4   11.55    0.49
   3   0  -4   11.53    0.44
  -3   0  -4   11.91    0.46
  -3   0  -4   11.89    0.39
  -3   0   4   12.08    0.39
   3   0  -4   11.98    0.40
   3   0   4   11.77    0.41
   3   0  -5    6.92    0.26
  -3   0  -5    6.91    0.31
   3   0   5    6.69    0.27
  -3   0   5    7.03    0.25
   3   0  -5    6.87    0.30
  -3   0  -5    7.10    0.26
   3   0  -5    7.01    0.29
   3   0   5    6.64    0.34
   3   0  -6    8.60    0.33
   3   0   6    8.59    0.34
   3   0  -6    8.89    0.37
   3   0   6    8.69    0.41
  -3   0   6    9.25    0.32
  -3   0  -6    8.70    0.32
   3   0  -6    9.17    0.37
  -3   0  -6    9.11    0.38
  -3   0  -7    8.07    0.36
   3   0  -7    8.05    0.35
   3   0  -7    7.80    0.32
   3   0   7    7.33    0.39
  -3   0  -7    8.25    0.32
   3   0  -7    8.26    0.36
  -3   0   7    8.12    0.31
   3   0  -8   16.54    0.61
   3   0   8   16.85    0.63
   3   0  -8   18.31    0.68
  -3   0  -8   17.79    0.60
   3   0  -8   17.76    0.65
  -3   0   8   17.50    0.59
   3   0   8   17.22    0.71
  -3   0  -8   17.22    0.68
  -3   0   9   14.59    0.51
  -3   0  -9   13.50    0.57
   3   0   9   13.82    0.61
   3   0  -9   13.99    0.52
   3   0  -9   13.59    0.55
   3   0  -9   13.38    0.57
   3   0   9   13.62    0.54
  -3   0  -9   14.31    0.51
  -3   0 -10    3.48    0.25
   3   0 -10    3.33    0.25
   3   0  10    3.13    0.24
   3   0  10    2.98    0.27
   3   0 -10    3.50    0.22
   3   0 -10    3.35    0.24
  -3   0 -10    3.56    0.22
  -3   0  10    3.62    0.21
  -3   0  11    2.97    0.21
   3   0 -11    2.94    0.22
   3   0 -11    3.15    0.25
   3   0  11    2.76    0.26
  -3   0 -11    3.11    0.26
   3   0 -12    2.59    0.21
   3   0  12    2.02    0.24
  -3   0 -12    2.43    0.23
  -3   0  12    2.19    0.19
   3   0 -12    2.53    0.25
   3   0 -13    3.07    0.27
  -3   0 -13    3.53    0.30
   3   1   0   78.14    2.31
   3   1   0   75.43    2.33
  -3  -1   0   79.83    2.26
  -3  -1   0   75.46    2.32
   3   1   0   77.95    2.54
   3  -1   0   78.21    2.53
   3   1   0   78.02    2.53
   3   1   0   79.46    2.31
   3  -1   0   76.76    2.33
   3  -1   0   77.91    2.54
  -3  -1   0   74.85    2.26
   3   1   1   41.55    1.36
   3   1   1   41.45    1.36
   3   1   1   41.72    1.22
  -3  -1   1   39.42    1.18
   3  -1  -1   43.04    1.35
  -3  -1   1   41.47    1.18
   3  -1  -1   41.21    1.24
  -3   1  -1   41.26    1.22
  -3   1  -1   41.65    1.34
   3  -1  -1   42.09    1.34
   3   1   1   41.89    1.21
  -3  -1   1   40.44    1.24
   3   1  -1   38.33    1.20
  -3  -1  -1   38.11    1.18
  -3  -1  -1   37.56    1.23
   3   1  -1   37.61    1.24
   3   1  -1   39.60    1.34
   3  -1   1   39.71    1.36
   3  -1   1   38.99    1.22
   3   1  -1   38.69    1.35
  -3  -1  -1   39.43    1.19
   3   1  -1   39.80    1.21
  -3   1  -2   30.82    1.08
   3   1   2   31.14    0.97
   3  -1  -2   30.71    1.01
   3  -1  -2   31.66    1.08
  -3   1  -2   31.06    0.94
  -3  -1   2   30.92    0.95
   3  -1  -2   30.77    1.07
  -3  -1   2   30.03    0.94
   3   1   2   30.69    0.98
  -3   1  -2   30.63    0.97
  -3  -1   2   29.58    1.00
  -3   1  -2   30.27    0.94
   3  -1   2   32.62    1.11
  -3   1   2   33.50    1.06
  -3  -1  -2   32.25    0.95
   3   1  -2   32.60    0.97
   3  -1   2   33.96    1.10
   3  -1   2   32.60    0.96
  -3  -1  -2   33.70    0.96
   3   1  -2   31.36    1.01
   3   1  -2   33.26    1.06
   3  -1   2   33.64    0.97
  -3  -1  -2   32.10    0.98
  -3  -1  -2   32.81    1.09
   3   1  -2   32.88    0.97
   3   1  -2   32.68    1.08
   3  -1   2   33.13    0.97
  -3  -1   3   24.15    0.74
  -3   1  -3   25.45    0.75
   3  -1  -3   24.92    0.81
  -3  -1   3   24.75    0.74
   3   1   3   24.97    0.87
   3   1   3   23.86    0.88
   3  -1  -3   25.58    0.75
  -3   1  -3   24.76    0.85
   3   1   3   24.11    0.76
   3   1   3   25.10    0.78
   3  -1  -3   25.53    0.84
  -3   1  -3   25.72    0.75
   3  -1  -3   25.44    0.75
  -3   1  -3   23.69    0.74
  -3  -1  -3   24.63    0.76
  -3   1   3   25.17    0.82
   3   1  -3   24.90    0.82
   3  -1   3   23.66    0.88
   3   1  -3   22.96    0.80
  -3   1   3   23.98    0.73
   3   1  -3   24.33    0.85
   3  -1   3   24.00    0.76
   3  -1   3   24.61    0.77
  -3   1   3   24.75    0.73
  -3  -1  -3   23.99    0.86
  -3  -1  -3   23.92    0.74
   3   1  -3   24.05    0.76
   3   1   4   26.01    0.94
   3  -1  -4   28.34    0.81
  -3  -1   4   26.49    0.79
   3  -1  -4   27.22    0.89
   3   1   4   26.01    0.82
   3  -1  -4   26.49    0.86
  -3   1  -4   25.89    0.90
   3  -1  -4   26.63    0.81
  -3   1  -4   25.61    0.79
  -3  -1  -4   24.81    0.79
   3   1  -4   25.93    0.81
  -3  -1  -4   25.43    0.90
   3  -1   4   24.93    0.82
  -3   1   4   26.57    0.86
   3  -1   4   24.93    0.93
  -3   1   4   25.27    0.78
   3   1  -4   24.54    0.85
  -3  -1  -4   25.61    0.80
   3   1  -4   24.72    0.89
   3  -1  -5   38.20    1.18
  -3   1  -5   37.86    1.16
   3  -1  -5   37.88    1.23
  -3  -1   5   37.55    1.15
   3  -1  -5   39.46    1.28
   3   1   5   38.69    1.19
  -3   1  -5   38.20    1.30
   3   1   5   37.23    1.33
  -3  -1  -5   37.65    1.16
  -3  -1  -5   38.12    1.30
   3   1  -5   36.63    1.22
   3  -1   5   37.84    1.33
   3   1  -5   39.23    1.30
  -3   1   5   38.00    1.15
   3   1  -5   36.75    1.18
   3  -1   5   38.04    1.20
  -3  -1  -5   38.91    1.16
   3  -1  -6   44.83    1.46
   3  -1  -6   46.84    1.53
  -3   1  -6   44.36    1.39
   3   1   6   45.84    1.43
   3   1   6   45.41    1.59
   3  -1  -6   44.69    1.42
  -3  -1   6   45.69    1.39
  -3   1  -6   45.71    1.56
   3  -1   6   45.55    1.59
   3   1  -6   48.08    1.55
   3  -1   6   45.72    1.44
  -3  -1  -6   46.24    1.39
   3   1  -6   46.74    1.43
  -3  -1  -6   44.89    1.55
   3   1  -6   44.34    1.45
  -3   1   6   46.39    1.38
   3   1   7   47.44    1.70
   3  -1  -7   48.56    1.53
  -3  -1   7   48.63    1.49
  -3   1  -7   47.70    1.66
   3  -1  -7   46.36    1.56
   3   1   7   48.62    1.54
  -3   1  -7   47.04    1.49
   3  -1  -7   50.07    1.64
  -3  -1  -7   49.89    1.66
   3  -1   7   48.44    1.70
  -3   1   7   49.97    1.49
   3   1  -7   50.21    1.53
  -3  -1  -7   50.18    1.49
   3   1  -7   50.06    1.66
   3  -1   7   47.88    1.54
   3   1  -7   48.01    1.56
   3  -1  -8   53.63    1.67
   3  -1  -8   54.15    1.80
   3   1   8   51.36    1.85
  -3   1  -8   51.83    1.82
   3   1   8   54.55    1.69
   3  -1  -8   54.07    1.71
  -3   1  -8   54.52    1.63
  -3  -1   8   52.49    1.62
   3   1  -8   54.94    1.82
  -3  -1  -8   51.99    1.81
  -3  -1  -8   54.06    1.63
   3  -1   8   52.09    1.85
   3   1  -8   51.86    1.69
  -3   1   8   52.28    1.62
   3  -1   8   52.98    1.69
   3   1  -8   52.50    1.67
   3   1   9   37.80    1.21
   3  -1  -9   36.56    1.22
  -3   1  -9   38.48    1.16
   3  -1  -9   36.96    1.19
  -3   1  -9   35.31    1.30
   3   1   9   38.72    1.33
  -3  -1   9   36.85    1.15
  -3  -1  -9   34.28    1.28
   3   1  -9   34.85    1.29
   3  -1   9   35.64    1.32
   3   1  -9   36.30    1.18
  -3   1   9   34.41    1.14
   3   1  -9   34.72    1.21
   3  -1   9   36.08    1.20
  -3  -1  -9   35.49    1.15
   3   1  10   36.13    1.22
  -3   1 -10   34.00    1.31
   3  -1 -10   35.77    1.20
   3   1  10   36.08    1.33
   3  -1 -10   36.71    1.24
  -3  -1  10   34.71    1.16
  -3   1 -10   35.58    1.16
  -3  -1 -10   38.50    1.18
   3  -1  10   37.03    1.22
   3   1 -10   36.91    1.20
   3   1 -10   34.57    1.31
  -3  -1 -10   35.33    1.30
   3   1 -10   37.34    1.23
  -3   1  10   35.89    1.16
   3  -1  10   37.52    1.34
   3  -1 -11   33.88    1.13
  -3   1 -11   30.19    1.18
   3  -1 -11   32.51    1.08
  -3  -1  11   31.33    1.04
   3   1  11   32.50    1.21
  -3  -1 -11   30.93    1.18
  -3   1  11   32.37    1.05
   3  -1  11   32.44    1.20
   3   1 -11   32.93    1.08
   3   1 -11   27.39    1.17
   3   1 -11   31.85    1.11
  -3  -1  12   29.21    0.99
   3  -1 -12   29.85    1.03
   3  -1 -12   29.75    1.06
  -3   1 -12   29.70    1.13
   3   1  12   30.18    1.15
  -3   1  12   30.00    0.99
   3   1 -12   31.27    1.06
  -3  -1 -12   29.08    1.13
   3   1 -12   25.25    1.11
   3  -1 -13   29.61    1.10
  -3   1  13   29.52    1.03
   3   1 -13   31.40    1.10
  -3  -1 -13   30.99    1.18
  -3  -2   0    3.88    0.14
  -3   2   0    3.98    0.19
   3  -2   0    3.93    0.17
   3   2   0    3.90    0.19
   3   2   0    3.86    0.15
   3  -2   0    3.72    0.18
  -3  -2   0    3.92    0.17
   3   2   0    3.99    0.15
  -3   2   0    3.91    0.17
   3   2   0    4.15    0.20
  -3  -2   0    3.97    0.14
   3  -2   0    3.92    0.20
   3   2   1    5.74    0.26
   3   2   1    5.55    0.20
   3   2   1    5.43    0.19
  -3   2  -1    5.47    0.23
   3   2   1    5.57    0.25
   3  -2  -1    5.75    0.25
  -3  -2   1    5.30    0.18
   3  -2  -1    5.71    0.23
   3  -2  -1    5.78    0.23
  -3  -2   1    5.53    0.19
  -3   2  -1    5.32    0.18
  -3  -2   1    5.25    0.22
  -3   2  -1    5.54    0.17
   3  -2   1    5.73    0.19
   3   2  -1    5.80    0.24
   3  -2   1    5.24    0.20
   3   2  -1    5.31    0.23
   3  -2   1    5.59    0.24
   3   2  -1    4.94    0.19
  -3  -2  -1    5.40    0.21
   3   2  -1    5.41    0.19
   3  -2   1    5.39    0.18
  -3   2   1    5.46    0.23
  -3  -2  -1    5.38    0.19
  -3  -2  -1    5.53    0.19
   3   2  -1    5.68    0.25
  -3   2  -2    5.41    0.19
  -3  -2   2    5.70    0.24
   3  -2  -2    5.44    0.19
   3  -2  -2    5.78    0.23
  -3   2  -2    5.73    0.20
   3   2   2    5.82    0.28
  -3  -2   2    5.80    0.19
   3   2   2    5.48    0.26
   3  -2  -2    5.58    0.25
   3   2   2    5.41    0.20
  -3   2  -2    5.73    0.19
   3  -2  -2    5.73    0.24
   3  -2  -2    5.73    0.19
  -3   2  -2    5.54    0.24
   3   2  -2    5.69    0.24
  -3   2   2    5.83    0.18
  -3  -2  -2    5.89    0.21
   3   2  -2    5.53    0.20
  -3   2   2    5.68    0.23
   3   2  -2    5.90    0.23
   3  -2   2    5.40    0.27
   3  -2   2    5.82    0.20
  -3  -2  -2    5.70    0.20
  -3  -2  -2    5.79    0.22
  -3   2   2    5.56    0.18
   3  -2   2    5.56    0.19
   3  -2   2    5.55    0.21
   3   2  -2    5.70    0.25
  -3  -2   3    2.27    0.10
  -3   2  -3    2.08    0.13
   3  -2  -3    2.05    0.11
   3   2   3    2.11    0.11
  -3   2  -3    2.12    0.10
   3  -2  -3    1.92    0.14
  -3  -2   3    2.05    0.13
   3   2   3    2.16    0.15
   3   2   3    2.12    0.16
   3  -2  -3    2.08    0.10
   3  -2  -3    2.06    0.10
  -3   2   3    2.09    0.09
   3   2  -3    1.89    0.10
   3  -2   3    1.92    0.11
  -3  -2  -3    1.84    0.13
   3   2  -3    2.08    0.11
  -3  -2  -3    2.00    0.10
   3  -2   3    1.78    0.09
   3   2  -3    1.97    0.14
  -3   2   3    1.94    0.12
   3   2  -3    1.89    0.14
   3  -2   3    1.89    0.15
  -3  -2  -3    2.12    0.12
  -3   2   3    1.92    0.09
  -3   2  -4    3.45    0.16
   3   2   4    3.32    0.16
   3   2   4    3.86    0.23
   3  -2  -4    3.52    0.20
  -3  -2   4    3.63    0.19
   3  -2  -4    3.46    0.15
   3  -2  -4    3.47    0.17
  -3  -2   4    3.71    0.16
   3   2   4    3.63    0.21
  -3   2  -4    3.42    0.19
   3   2  -4    3.99    0.16
  -3   2   4    3.79    0.17
   3   2  -4    4.13    0.20
  -3  -2  -4    4.01    0.17
   3  -2   4    3.59    0.23
   3   2  -4    3.64    0.20
  -3  -2  -4    3.91    0.20
   3  -2   4    3.62    0.17
  -3   2   4    3.67    0.15
  -3  -2  -4    3.75    0.16
   3   2   5   10.49    0.47
  -3   2  -5   10.86    0.44
   3  -2  -5   10.84    0.43
   3  -2  -5   11.02    0.41
  -3  -2   5   11.21    0.38
   3   2   5   11.09    0.40
  -3   2  -5   10.65    0.38
   3  -2  -5   10.75    0.38
  -3  -2  -5   11.42    0.38
  -3   2   5   11.09    0.40
   3   2  -5   11.24    0.44
   3  -2   5   10.33    0.40
   3  -2   5   10.70    0.47
  -3   2   5   10.56    0.37
  -3  -2  -5   11.09    0.38
   3   2  -5   11.04    0.39
  -3  -2  -5   10.97    0.44
   3   2  -5   11.28    0.42
   3  -2  -6   13.18    0.49
   3   2   6   12.87    0.56
   3  -2  -6   13.13    0.47
   3   2   6   13.36    0.48
   3  -2  -6   13.28    0.52
  -3   2  -6   13.34    0.53
  -3   2  -6   13.32    0.46
  -3  -2   6   13.65    0.45
   3  -2   6   12.39    0.55
  -3  -2  -6   13.74    0.45
   3  -2   6   12.79    0.48
  -3   2   6   13.42    0.45
   3   2  -6   13.78    0.50
   3   2  -6   14.01    0.53
   3   2  -6   13.49    0.47
  -3  -2  -6   12.65    0.52
  -3  -2  -6   13.25    0.45
   3   2   7   11.78    0.53
  -3  -2   7   12.01    0.42
   3  -2  -7   11.91    0.48
  -3   2  -7   12.04    0.43
   3  -2  -7   11.12    0.44
  -3   2  -7   11.92    0.50
   3   2   7   11.14    0.44
  -3   2   7   11.56    0.42
  -3  -2  -7   11.44    0.48
  -3  -2  -7   12.36    0.43
   3  -2   7   11.86    0.46
   3   2  -7   11.66    0.46
   3   2  -7   12.04    0.44
   3   2  -7   12.17    0.49
   3  -2   7   11.80    0.52
   3  -2  -8    7.60    0.37
  -3  -2   8    8.14    0.32
   3   2   8    7.79    0.41
   3  -2  -8    7.56    0.33
  -3   2  -8    7.63    0.38
  -3   2  -8    7.73    0.32
   3   2   8    7.48    0.34
  -3   2   8    7.89    0.32
  -3  -2  -8    7.81    0.37
   3   2  -8    8.22    0.37
  -3  -2  -8    8.06    0.33
   3  -2   8    7.81    0.41
   3   2  -8    8.40    0.34
   3   2  -8    8.41    0.39
   3  -2   8    8.06    0.36
   3  -2  -9    6.17    0.34
   3   2   9    6.65    0.38
   3   2   9    6.79    0.33
  -3  -2   9    6.67    0.29
  -3   2  -9    6.88    0.30
   3  -2  -9    6.58    0.31
  -3   2  -9    6.51    0.35
   3  -2   9    5.76    0.36
  -3  -2  -9    6.23    0.33
  -3   2   9    5.82    0.28
   3   2  -9    6.33    0.33
  -3  -2  -9    6.53    0.29
   3  -2   9    5.97    0.31
   3   2  -9    6.24    0.35
   3   2  -9    6.26    0.30
   3  -2 -10    7.37    0.35
  -3  -2  10    7.97    0.34
   3   2  10    7.15    0.37
  -3   2 -10    7.49    0.34
  -3   2 -10    7.21    0.40
   3   2  10    7.93    0.43
   3  -2 -10    7.82    0.39
   3  -2  10    6.86    0.36
   3   2 -10    7.55    0.41
  -3   2  10    7.67    0.34
  -3  -2 -10    7.65    0.39
  -3  -2 -10    7.66    0.34
   3   2 -10    8.21    0.38
   3   2 -10    7.96    0.36
   3  -2  10    7.61    0.42
  -3  -2  11    7.30    0.32
  -3   2 -11    6.00    0.36
   3  -2 -11    6.25    0.36
   3   2  11    6.43    0.40
   3  -2 -11    6.70    0.34
  -3  -2 -11    6.31    0.36
   3   2 -11    5.62    0.37
   3   2 -11    7.04    0.37
  -3   2  11    6.51    0.31
   3  -2  11    6.37    0.40
   3   2 -11    6.74    0.34
   3  -2 -12    4.58    0.30
   3   2  12    4.39    0.35
   3  -2 -12    4.78    0.32
  -3  -2  12    4.94    0.28
  -3   2 -12    4.34    0.32
   3   2 -12    4.92    0.29
  -3  -2 -12    4.58    0.32
   3   2 -12    5.07    0.32
   3   2 -12    4.05    0.33
  -3   2  12    4.62    0.28
   3  -2 -13    1.57    0.22
   3  -2 -13    1.89    0.20
  -3   2  13    1.76    0.19
  -3  -2 -13    1.96    0.23
   3   2 -13    1.73    0.25
  -3   3   0    9.54    0.27
   3  -3   0    8.85    0.37
   3   3   0    8.18    0.29
  -3  -3   0    8.10    0.29
  -3  -3   0    8.47    0.32
  -3   3   0    8.89    0.27
  -3   3   0    9.17    0.35
   3  -3   0    8.95    0.29
   3   3   0    8.33    0.36
   3   3   0    8.11    0.35
   3  -3   0    9.02    0.28
   3   3   0    8.20    0.30
  -3   3   0    8.83    0.32
   3  -3   0    9.21    0.32
  -3   3  -1   27.19    0.74
  -3  -3   1   25.69    0.79
   3  -3  -1   28.22    0.80
   3   3   1   25.83    0.77
  -3   3  -1   28.04    0.73
   3   3   1   26.99    0.88
   3   3   1   26.07    0.87
   3  -3  -1   26.95    0.75
  -3  -3   1   26.11    0.75
   3  -3  -1   27.86    0.88
  -3   3  -1   27.57    0.87
   3  -3  -1   27.06    0.75
  -3   3  -1   27.54    0.84
   3  -3   1   23.50    0.76
  -3   3   1   20.87    0.72
  -3  -3  -1   21.10    0.74
   3  -3   1   22.70    0.87
   3   3  -1   20.44    0.85
  -3   3   1   23.49    0.73
   3   3  -1   20.98    0.76
   3   3  -1   22.66    0.85
  -3   3   1   22.39    0.84
   3  -3   1   22.93    0.76
  -3  -3  -1   20.99    0.77
  -3   3   1   22.31    0.82
   3  -3   1   22.50    0.74
   3   3   2   38.13    1.38
  -3   3  -2   40.72    1.37
  -3   3  -2   40.00    1.20
   3  -3  -2   41.28    1.27
  -3  -3   2   38.07    1.20
   3   3   2   39.66    1.23
   3  -3  -2   42.28    1.33
   3   3   2   37.98    1.37
   3  -3  -2   41.61    1.22
  -3   3  -2   41.51    1.20
   3  -3  -2   39.80    1.22
  -3  -3   2   38.63    1.26
  -3   3  -2   40.86    1.35
  -3  -3  -2   39.44    1.21
  -3   3   2   42.50    1.19
   3   3  -2   42.47    1.34
   3  -3   2   40.94    1.39
  -3  -3  -2   39.55    1.24
   3  -3   2   41.99    1.24
   3  -3   2   40.91    1.22
   3   3  -2   38.57    1.26
  -3   3   2   39.68    1.19
   3   3  -2   39.26    1.23
   3  -3   2   42.70    1.22
  -3   3   2   41.30    1.35
   3   3  -2   39.20    1.36
   3  -3  -3   51.84    1.57
  -3   3  -3   50.26    1.73
   3  -3  -3   49.54    1.62
  -3  -3   3   48.88    1.55
  -3  -3   3   48.12    1.60
   3  -3  -3   50.93    1.70
   3   3   3   50.27    1.59
   3   3   3   48.42    1.76
  -3   3  -3   50.04    1.55
   3  -3  -3   52.24    1.58
  -3  -3  -3   53.29    1.59
   3   3  -3   55.58    1.70
   3  -3   3   55.67    1.78
   3  -3   3   55.89    1.60
  -3  -3  -3   53.60    1.55
  -3   3   3   53.71    1.54
  -3   3   3   55.40    1.72
   3   3  -3   51.84    1.62
   3   3  -3   51.69    1.74
  -3  -3  -3   53.81    1.74
   3   3  -3   51.92    1.58
  -3   3  -4   60.94    1.80
   3   3   4   58.02    2.01
   3  -3  -4   60.85    1.83
   3  -3  -4   60.70    1.88
   3   3   4   59.32    1.84
   3   3   4   58.71    2.04
  -3  -3   4   58.56    1.86
  -3   3  -4   60.33    2.00
  -3   3   4   60.16    1.78
  -3  -3  -4   59.87    2.00
   3  -3   4   63.10    1.85
   3   3  -4   58.82    1.86
  -3  -3  -4   60.45    1.80
  -3   3   4   65.24    1.98
   3   3  -4   58.88    2.01
   3  -3   4   61.65    2.05
  -3  -3  -4   58.82    1.83
  -3  -3   5   32.78    1.00
  -3   3  -5   33.56    1.13
   3  -3  -5   34.95    1.02
   3   3   5   33.33    1.03
  -3   3  -5   33.74    1.00
   3   3   5   32.94    1.17
  -3  -3   5   33.51    1.05
   3  -3  -5   34.28    1.08
  -3  -3  -5   30.23    0.99
   3  -3   5   32.17    1.04
   3   3  -5   31.38    1.02
   3  -3   5   32.14    1.16
   3   3  -5   30.37    1.12
  -3  -3  -5   30.02    1.11
   3   3  -5   29.37    1.05
  -3   3   5   33.44    1.09
  -3  -3  -5   31.22    1.01
  -3   3   5   31.72    0.99
  -3  -3   6   30.91    1.04
  -3  -3   6   31.58    1.00
   3   3   6   31.97    1.17
   3  -3  -6   31.91    1.08
   3  -3  -6   33.08    1.03
  -3   3  -6   31.00    1.13
  -3   3  -6   32.09    1.00
   3   3   6   31.78    1.03
  -3  -3  -6   31.98    1.00
  -3  -3  -6   32.36    1.01
  -3   3   6   33.01    0.99
  -3  -3  -6   32.24    1.12
   3   3  -6   32.44    1.13
   3  -3   6   33.17    1.17
   3  -3   6   32.28    1.05
   3   3  -6   31.21    1.05
   3   3  -6   31.52    1.02
  -3   3  -7   32.42    1.04
  -3  -3   7   32.32    1.03
   3  -3  -7   32.30    1.06
  -3  -3   7   32.87    1.08
   3   3   7   32.22    1.07
  -3   3  -7   31.71    1.17
   3   3   7   31.02    1.20
   3  -3  -7   32.05    1.11
   3  -3   7   32.86    1.20
  -3  -3  -7   32.99    1.04
   3  -3   7   33.33    1.09
   3   3  -7   32.85    1.17
  -3  -3  -7   33.99    1.16
  -3  -3  -7   33.82    1.04
   3   3  -7   33.95    1.07
   3   3  -7   33.63    1.09
  -3   3   7   33.51    1.03
  -3  -3   8   30.32    1.00
  -3   3  -8   30.34    0.96
   3  -3  -8   30.35    1.03
   3  -3  -8   30.24    0.98
  -3   3  -8   29.38    1.08
   3   3   8   30.11    1.11
  -3  -3   8   30.56    0.95
  -3  -3  -8   28.54    1.06
   3  -3   8   29.49    1.00
   3  -3   8   28.87    1.10
   3   3  -8   29.49    1.08
  -3  -3  -8   27.55    0.95
   3   3  -8   28.52    0.97
   3   3  -8   28.81    1.00
  -3   3   8   29.70    0.95
  -3  -3   9   40.59    1.26
   3  -3  -9   40.31    1.30
   3   3   9   41.36    1.32
  -3   3  -9   39.77    1.43
  -3  -3   9   39.66    1.31
  -3   3  -9   40.55    1.27
   3   3   9   41.20    1.46
   3  -3  -9   40.42    1.35
   3   3  -9   39.13    1.32
   3  -3   9   40.01    1.45
   3   3  -9   37.71    1.43
   3  -3   9   40.24    1.32
  -3  -3  -9   39.19    1.26
   3   3  -9   39.71    1.30
  -3   3   9   38.90    1.25
  -3  -3  -9   38.15    1.40
  -3  -3  10   38.87    1.31
   3   3  10   38.23    1.45
  -3  -3  10   38.51    1.26
  -3   3 -10   38.63    1.43
   3  -3 -10   38.98    1.31
  -3   3 -10   39.30    1.27
   3  -3 -10   39.84    1.35
   3   3 -10   41.21    1.33
   3   3 -10   41.28    1.31
  -3   3  10   39.55    1.27
   3   3 -10   38.40    1.45
   3  -3  10   41.00    1.34
  -3  -3 -10   39.69    1.41
   3  -3  10   41.56    1.46
   3  -3 -11   40.31    1.32
  -3   3 -11   37.50    1.42
  -3  -3  11   38.56    1.30
  -3  -3  11   39.01    1.27
   3  -3 -11   39.17    1.35
   3   3  11   39.50    1.45
   3   3 -11   40.61    1.31
  -3  -3 -11   37.63    1.41
   3  -3  11   39.97    1.45
   3   3 -11   36.46    1.44
  -3   3  11   39.81    1.27
   3   3 -11   40.18    1.32
   3  -3 -12   39.09    1.33
   3  -3 -12   39.30    1.30
   3   3  12   38.64    1.44
   3   3 -12   34.77    1.42
   3   3  13   24.54    1.00
   3   3 -13   22.65    0.99
  -3  -3 -13   24.11    0.97
   3  -4   0    0.98    0.09
   3   4   0    0.77    0.07
  -3  -4   0    0.88    0.07
   3  -4   0    0.76    0.07
  -3   4   0    0.78    0.09
   3  -4   0    0.67    0.10
   3  -4   0    0.83    0.06
   3   4   0    0.84    0.10
   3   4   0    0.82    0.10
  -3   4   0    0.72    0.06
  -3  -4   0    0.83    0.08
  -3   4   0    0.91    0.08
  -3  -4   1    1.38    0.11
   3   4   1    1.11    0.12
  -3   4  -1    1.50    0.13
   3  -4  -1    1.44    0.12
  -3   4  -1    1.26    0.08
   3   4   1    1.27    0.12
  -3   4  -1    1.36    0.10
   3   4   1    1.15    0.09
   3  -4  -1    1.32    0.08
  -3  -4   1    1.33    0.08
   3  -4  -1    1.32    0.07
  -3  -4  -1    1.09    0.11
   3   4  -1    1.06    0.11
   3   4  -1    1.13    0.09
   3  -4   1    1.21    0.09
  -3   4   1    1.36    0.08
  -3  -4  -1    1.14    0.08
  -3   4   1    1.19    0.11
  -3   4   1    1.08    0.07
   3  -4   1    1.17    0.09
   3  -4   1    1.25    0.14
   3   4  -1    1.38    0.13
  -3  -4   2    2.02    0.10
   3   4   2    1.94    0.15
   3  -4  -2    1.72    0.10
   3  -4  -2    2.05    0.14
   3   4   2    1.97    0.16
  -3  -4   2    1.91    0.13
  -3   4  -2    1.81    0.10
  -3   4  -2    1.96    0.13
  -3   4  -2    1.66    0.13
   3   4   2    1.63    0.11
  -3   4   2    1.88    0.09
   3   4  -2    1.96    0.15
  -3  -4  -2    1.80    0.12
  -3   4   2    1.64    0.13
   3   4  -2    2.11    0.14
   3   4  -2    1.71    0.11
  -3  -4  -2    1.83    0.10
   3  -4   2    1.81    0.16
   3  -4   2    1.79    0.11
   3   4   3    5.19    0.25
  -3   4  -3    5.10    0.20
   3  -4  -3    4.83    0.20
   3  -4  -3    5.18    0.25
  -3  -4   3    5.51    0.23
  -3  -4   3    5.03    0.20
  -3   4  -3    5.06    0.24
   3   4   3    4.98    0.21
  -3   4  -3    4.94    0.26
   3   4   3    5.23    0.28
  -3   4   3    4.68    0.23
  -3  -4  -3    5.24    0.22
   3  -4   3    5.04    0.22
  -3  -4  -3    5.11    0.20
   3   4  -3    4.89    0.25
  -3  -4  -3    5.39    0.25
   3   4  -3    4.83    0.21
  -3   4   3    4.80    0.19
   3  -4   3    4.67    0.28
   3  -4  -4   13.25    0.46
   3  -4  -4   13.07    0.51
  -3   4  -4   13.04    0.53
   3   4   4   13.10    0.56
  -3   4  -4   13.02    0.45
  -3  -4   4   13.56    0.49
  -3   4  -4   13.14    0.52
   3   4   4   13.32    0.53
   3   4   4   12.99    0.47
  -3  -4   4   13.67    0.45
  -3   4   4   13.73    0.50
   3   4  -4   13.59    0.53
   3   4  -4   13.59    0.47
  -3  -4  -4   13.65    0.52
   3   4  -4   13.58    0.50
  -3  -4  -4   14.18    0.45
  -3   4   4   13.52    0.44
   3  -4   4   13.30    0.56
   3  -4   4   13.58    0.48
  -3  -4  -4   13.99    0.47
   3  -4  -5   11.73    0.47
   3   4   5   11.66    0.42
  -3  -4   5   11.75    0.41
   3   4   5   12.03    0.51
  -3   4  -5   11.60    0.41
  -3   4  -5   11.16    0.47
   3   4   5   11.74    0.48
  -3  -4   5   11.67    0.44
   3  -4  -5   11.32    0.41
   3  -4   5   10.67    0.50
   3   4  -5   11.80    0.45
  -3  -4  -5   11.83    0.42
   3   4  -5   11.33    0.42
  -3  -4  -5   11.03    0.40
  -3   4   5   11.22    0.44
  -3  -4  -5   11.53    0.46
  -3   4   5   11.37    0.39
   3   4  -5   11.57    0.48
   3  -4   5   11.68    0.44
   3   4   6    4.16    0.27
  -3   4  -6    3.48    0.19
   3  -4  -6    3.70    0.20
   3  -4  -6    3.99    0.24
  -3  -4   6    3.82    0.19
  -3   4  -6    3.52    0.23
   3   4   6    3.93    0.21
  -3  -4   6    3.56    0.21
   3   4  -6    3.62    0.23
   3   4  -6    3.97    0.22
  -3  -4  -6    3.67    0.19
  -3  -4  -6    3.75    0.21
   3  -4   6    3.30    0.21
  -3  -4  -6    4.14    0.20
   3  -4   6    3.24    0.24
   3   4  -6    3.49    0.19
  -3   4   6    3.51    0.19
  -3   4   6    3.47    0.17
   3   4   7    7.59    0.40
   3   4   7    7.60    0.33
  -3   4  -7    7.48    0.37
   3  -4  -7    6.89    0.32
   3  -4  -7    7.50    0.37
  -3   4  -7    7.62    0.31
  -3  -4   7    7.83    0.34
  -3   4   7    7.13    0.30
   3   4  -7    7.78    0.35
   3   4  -7    7.28    0.32
  -3  -4  -7    7.50    0.31
   3  -4   7    7.11    0.34
   3   4  -7    7.93    0.37
   3  -4   7    7.01    0.39
  -3  -4  -7    7.88    0.31
  -3  -4  -7    7.45    0.34
   3  -4  -8    8.14    0.40
  -3  -4   8    8.09    0.36
  -3   4  -8    7.59    0.39
  -3   4  -8    7.47    0.33
   3   4   8    8.17    0.42
   3   4   8    7.83    0.36
   3  -4  -8    7.57    0.35
   3  -4   8    7.72    0.37
  -3   4   8    8.29    0.33
   3   4  -8    8.06    0.40
  -3  -4  -8    7.98    0.33
   3  -4   8    7.45    0.41
  -3  -4  -8    8.16    0.37
   3   4  -8    8.86    0.38
   3  -4  -9    8.34    0.42
  -3  -4   9    8.78    0.36
  -3  -4   9    8.80    0.39
  -3   4  -9    8.79    0.36
   3   4   9    8.38    0.39
  -3   4  -9    8.21    0.42
   3   4   9    8.60    0.45
   3  -4  -9    7.95    0.37
  -3  -4  -9    8.36    0.39
   3   4  -9    8.43    0.37
  -3   4   9    8.25    0.35
   3  -4   9    7.48    0.38
   3   4  -9    7.79    0.42
   3  -4   9    7.28    0.43
   3   4  -9    8.65    0.40
  -3  -4  -9    8.27    0.36
  -3   4 -10    8.09    0.43
  -3  -4  10    8.72    0.39
  -3   4 -10    8.17    0.37
  -3  -4  10    8.72    0.38
   3  -4 -10    8.11    0.39
   3   4  10    9.03    0.47
   3  -4 -10    8.33    0.43
   3  -4  10    8.31    0.46
   3   4 -10    9.24    0.41
  -3  -4 -10    8.32    0.41
   3   4 -10    8.16    0.45
   3  -4  10    8.40    0.42
   3  -4 -11    3.55    0.26
  -3   4 -11    3.63    0.28
   3   4  11    4.16    0.33
   3  -4 -11    4.09    0.31
  -3  -4  11    4.38    0.27
  -3  -4  11    3.87    0.25
  -3   4  11    3.85    0.25
   3   4 -11    3.55    0.26
   3   4 -11    3.89    0.29
  -3  -4 -11    4.08    0.28
   3   4 -11    3.83    0.32
  -3   4 -12    3.91    0.31
   3  -4 -12    4.27    0.30
   3   4  12    4.21    0.34
   3  -4 -12    4.50    0.33
   3   4 -12    3.67    0.33
  -3  -4 -12    4.62    0.32
   3   5   0   21.69    0.84
  -3  -5   0   21.68    0.71
  -3   5   0   24.37    0.82
  -3   5   0   23.02    0.70
   3   5   0   22.43    0.82
   3  -5   0   24.77    0.76
  -3  -5   0   22.53    0.75
   3  -5   0   22.89    0.73
   3   5   0   22.61    0.74
   3   5   1   26.45    0.98
   3  -5  -1   29.17    0.89
  -3   5  -1   29.35    0.92
  -3  -5   1   26.75    0.84
  -3  -5   1   27.01    0.88
  -3   5  -1   28.46    0.95
   3   5   1   27.60    0.96
  -3   5  -1   27.85    0.82
   3  -5  -1   28.25    0.85
   3   5   1   27.13    0.86
   3   5  -1   24.52    0.85
   3  -5   1   29.02    0.86
   3  -5   1   26.93    0.85
  -3  -5  -1   25.18    0.87
   3   5  -1   25.26    0.95
  -3   5   1   25.93    0.82
  -3  -5  -1   25.44    0.83
   3   5  -1   24.84    0.95
  -3   5   1   27.07    0.94
   3  -5  -2   25.85    0.78
   3  -5  -2   24.64    0.83
   3   5   2   22.66    0.78
  -3  -5   2   23.32    0.80
   3   5   2   23.68    0.87
  -3   5  -2   25.98    0.88
   3   5   2   23.40    0.90
  -3  -5   2   24.23    0.76
  -3   5  -2   24.87    0.75
  -3   5  -2   25.66    0.85
  -3   5   2   25.25    0.86
   3   5  -2   24.72    0.87
   3   5  -2   23.98    0.78
   3  -5   2   24.94    0.79
   3  -5   2   25.20    0.91
   3   5  -2   23.92    0.87
  -3  -5  -2   23.93    0.80
  -3  -5  -2   22.84    0.76
  -3   5   2   24.24    0.75
   3   5   3   29.08    0.97
  -3   5  -3   30.32    0.94
  -3  -5   3   28.38    0.94
   3   5   3   27.91    1.10
  -3   5  -3   31.03    1.08
   3  -5  -3   30.32    1.02
  -3   5  -3   30.46    1.06
   3  -5  -3   30.61    0.97
  -3  -5   3   27.92    0.98
   3   5   3   28.44    1.07
   3  -5   3   33.69    1.12
  -3  -5  -3   30.77    0.95
  -3   5   3   32.60    1.06
   3  -5   3   33.46    0.98
   3   5  -3   31.29    0.97
  -3  -5  -3   30.90    0.98
  -3   5   3   31.98    0.93
   3   5  -3   30.34    1.07
  -3  -5   4   37.60    1.17
   3   5   4   37.18    1.20
  -3   5  -4   39.11    1.32
  -3  -5   4   38.75    1.22
  -3   5  -4   40.71    1.34
   3  -5  -4   39.52    1.26
  -3   5  -4   40.99    1.18
   3   5   4   37.91    1.33
   3  -5  -4   39.40    1.21
   3   5   4   38.49    1.37
   3  -5   4   39.17    1.22
  -3  -5  -4   36.98    1.31
  -3  -5  -4   36.69    1.17
  -3  -5  -4   37.19    1.21
   3   5  -4   35.46    1.32
  -3   5   4   38.43    1.16
  -3   5   4   39.26    1.30
   3   5  -4   35.97    1.20
   3  -5   4   37.95    1.36
  -3   5  -5   43.46    1.41
   3  -5  -5   42.01    1.33
   3   5   5   41.23    1.45
   3  -5  -5   40.20    1.27
  -3  -5   5   41.44    1.25
  -3   5  -5   42.33    1.41
   3   5   5   40.06    1.40
  -3   5  -5   42.40    1.25
   3   5   5   41.88    1.28
  -3  -5   5   41.20    1.29
  -3  -5  -5   39.00    1.27
   3   5  -5   37.33    1.27
  -3  -5  -5   38.56    1.38
  -3   5   5   40.70    1.37
  -3   5   5   38.78    1.23
   3  -5   5   39.78    1.44
   3  -5   5   40.69    1.30
  -3  -5  -5   38.38    1.24
   3   5  -5   37.34    1.40
   3  -5  -6   32.57    1.12
   3  -5  -6   32.91    1.07
  -3   5  -6   31.78    1.17
  -3  -5   6   31.31    1.04
  -3  -5   6   30.86    1.07
   3   5   6   29.22    1.20
  -3   5  -6   32.13    1.17
  -3   5  -6   32.67    1.04
   3   5   6   31.64    1.07
  -3  -5  -6   33.53    1.04
  -3  -5  -6   32.76    1.06
  -3   5   6   34.30    1.03
  -3  -5  -6   33.53    1.15
  -3   5   6   35.35    1.14
   3  -5   6   35.12    1.10
   3   5  -6   33.43    1.18
   3  -5   6   33.51    1.22
   3   5  -6   34.41    1.07
   3  -5  -7   26.66    0.89
  -3  -5   7   25.14    0.89
  -3  -5   7   25.40    0.86
  -3   5  -7   26.44    0.98
  -3   5  -7   26.87    0.87
   3  -5  -7   26.06    0.94
  -3   5  -7   26.73    0.98
   3   5   7   24.52    1.01
   3   5   7   25.77    0.90
  -3  -5  -7   26.41    0.95
   3  -5   7   27.58    1.03
  -3  -5  -7   25.60    0.86
  -3  -5  -7   27.63    0.88
   3   5  -7   25.64    0.98
   3   5  -7   26.88    0.89
  -3   5   7   27.31    0.86
   3   5  -7   27.28    0.92
   3  -5   7   28.13    0.92
  -3  -5   8   28.01    0.96
  -3  -5   8   28.28    0.93
   3  -5  -8   29.68    0.96
   3  -5  -8   28.98    1.01
  -3   5  -8   28.70    1.05
  -3   5  -8   29.01    1.05
  -3   5  -8   29.30    0.93
   3   5   8   28.27    1.08
   3  -5   8   27.95    0.98
  -3  -5  -8   27.31    0.92
   3  -5   8   28.29    1.09
  -3  -5  -8   27.00    1.01
  -3  -5  -8   28.29    0.94
  -3   5   8   28.01    0.91
   3   5  -8   27.19    0.95
   3   5  -8   25.68    1.05
   3   5  -8   26.99    0.96
   3   5   9   36.56    1.38
  -3   5  -9   38.69    1.20
   3  -5  -9   38.21    1.24
  -3   5  -9   36.93    1.34
  -3  -5   9   37.46    1.20
  -3   5  -9   38.12    1.34
   3  -5  -9   37.43    1.28
  -3  -5   9   37.55    1.23
   3  -5   9   37.77    1.39
   3   5  -9   36.52    1.24
  -3   5   9   35.51    1.18
  -3  -5  -9   35.88    1.31
   3  -5   9   36.70    1.26
   3   5  -9   35.24    1.36
   3   5  -9   37.03    1.23
   3  -5 -10   36.56    1.30
  -3  -5  10   36.06    1.24
  -3   5 -10   36.40    1.35
   3  -5 -10   37.33    1.25
   3   5  10   37.20    1.40
  -3   5 -10   37.87    1.22
  -3   5 -10   36.74    1.36
   3  -5  10   37.68    1.40
  -3  -5 -10   36.10    1.33
   3   5 -10   37.00    1.25
  -3   5  10   36.28    1.20
   3   5 -10   39.43    1.27
   3   5 -10   36.55    1.38
   3  -5  10   37.66    1.28
   3   5  11   33.14    1.27
   3  -5 -11   33.65    1.14
   3  -5 -11   31.69    1.17
  -3   5 -11   32.57    1.23
  -3   5  11   32.84    1.09
   3   5 -11   31.69    1.26
   3   5  12   26.80    1.10
   3  -5 -12   27.53    1.00
   3  -6   0    0.07    0.05
  -3   6   0    0.09    0.04
  -3  -6   0    0.08    0.05
   3   6   0    0.08    0.08
   3   6   0    0.05    0.07
  -3  -6   0    0.06    0.07
   3  -6   0    0.15    0.07
   3   6   0    0.04    0.05
  -3   6   0    0.09    0.07
  -3   6  -1    1.57    0.11
  -3  -6   1    1.50    0.11
  -3   6  -1    1.76    0.14
   3  -6  -1    1.71    0.12
   3   6   1    1.70    0.17
   3  -6  -1    1.43    0.14
  -3  -6   1    1.57    0.13
   3   6   1    1.76    0.15
   3   6   1    1.59    0.12
  -3   6   1    1.55    0.13
  -3   6   1    1.54    0.10
  -3  -6  -1    1.72    0.14
   3   6  -1    1.58    0.16
  -3  -6  -1    1.49    0.11
   3   6  -1    1.55    0.15
   3  -6   1    1.59    0.12
   3   6  -1    1.59    0.12
  -3  -6   2    1.20    0.12
  -3   6  -2    1.12    0.12
   3   6   2    1.15    0.11
   3   6   2    1.10    0.15
  -3  -6   2    1.18    0.10
   3  -6  -2    1.01    0.10
   3   6   2    1.19    0.13
   3  -6  -2    1.33    0.13
  -3   6  -2    1.10    0.09
  -3   6   2    1.20    0.09
   3   6  -2    1.04    0.12
  -3  -6  -2    1.05    0.10
   3   6  -2    1.05    0.10
   3   6  -2    1.26    0.13
  -3  -6  -2    1.22    0.12
  -3   6   2    1.13    0.12
   3  -6   2    1.21    0.12
   3  -6  -3    3.29    0.22
  -3   6  -3    3.37    0.19
  -3   6  -3    2.95    0.20
   3   6   3    3.57    0.21
   3  -6  -3    3.05    0.17
   3   6   3    3.19    0.18
  -3  -6   3    3.41    0.19
  -3   6  -3    3.18    0.16
   3   6   3    3.41    0.25
  -3  -6   3    3.28    0.17
  -3   6   3    3.00    0.19
  -3  -6  -3    3.14    0.16
  -3  -6  -3    3.59    0.19
   3   6  -3    3.47    0.22
   3  -6   3    3.25    0.18
   3   6  -3    3.16    0.17
  -3   6   3    3.09    0.15
  -3  -6   4    3.05    0.19
   3   6   4    2.68    0.19
  -3   6  -4    2.71    0.19
   3  -6  -4    2.66    0.17
  -3  -6   4    2.90    0.16
   3   6   4    3.05    0.24
   3   6   4    2.83    0.17
  -3   6  -4    2.69    0.15
  -3   6  -4    2.72    0.20
   3  -6  -4    3.02    0.22
  -3  -6  -4    3.23    0.19
   3  -6   4    3.01    0.18
   3   6  -4    2.96    0.21
  -3   6   4    2.99    0.19
   3   6  -4    2.88    0.17
  -3  -6  -4    3.44    0.19
   3  -6   4    3.09    0.24
  -3  -6  -4    3.12    0.16
  -3   6   4    2.88    0.15
   3  -6  -5    4.54    0.23
  -3  -6   5    5.23    0.23
  -3   6  -5    5.01    0.27
   3  -6  -5    4.61    0.28
   3   6   5    5.12    0.24
   3   6   5    5.00    0.27
  -3   6  -5    4.54    0.23
  -3  -6   5    4.84    0.25
   3   6   5    5.34    0.32
  -3   6  -5    4.66    0.27
  -3   6   5    4.57    0.21
  -3   6   5    4.76    0.25
   3   6  -5    4.94    0.28
   3  -6   5    4.59    0.31
   3   6  -5    4.87    0.24
  -3  -6  -5    5.00    0.23
   3  -6   5    4.51    0.25
  -3  -6  -5    5.04    0.26
  -3  -6  -5    4.87    0.24
  -3   6  -6   11.46    0.51
   3  -6  -6   10.98    0.45
  -3  -6   6   11.65    0.46
   3   6   6   12.16    0.55
  -3   6  -6   11.34    0.44
   3   6   6   11.93    0.46
   3  -6  -6   11.60    0.51
  -3   6  -6   11.41    0.49
  -3  -6   6   12.16    0.44
  -3  -6  -6   11.79    0.48
  -3  -6  -6   11.82    0.43
  -3   6   6   11.67    0.42
   3   6  -6   11.63    0.45
   3   6  -6   12.02    0.51
  -3  -6  -6   12.03    0.45
   3  -6   6   11.33    0.47
   3  -6   6   11.13    0.54
  -3   6   6   11.55    0.47
  -3   6  -7    7.58    0.33
   3   6   7    8.08    0.42
  -3   6  -7    7.20    0.38
  -3  -6   7    8.03    0.35
  -3  -6   7    7.73    0.33
  -3   6  -7    7.84    0.38
   3  -6  -7    7.10    0.34
   3  -6  -7    7.78    0.39
   3   6   7    8.06    0.35
   3  -6   7    7.08    0.41
  -3  -6  -7    7.75    0.36
   3   6  -7    7.45    0.34
   3   6  -7    7.66    0.39
  -3  -6  -7    8.10    0.33
   3  -6   7    7.18    0.36
  -3  -6  -7    8.05    0.35
  -3  -6   8    6.63    0.30
  -3   6  -8    6.29    0.31
   3   6   8    6.40    0.38
  -3   6  -8    6.01    0.34
  -3   6  -8    5.89    0.34
   3  -6  -8    5.84    0.31
  -3  -6   8    6.84    0.32
   3  -6  -8    6.89    0.37
  -3  -6  -8    7.04    0.32
   3  -6   8    5.52    0.33
   3   6  -8    6.60    0.37
  -3  -6  -8    6.75    0.33
   3  -6   8    6.21    0.39
   3   6  -8    5.82    0.31
  -3   6   8    6.40    0.29
  -3   6  -9    5.26    0.32
  -3  -6   9    5.03    0.27
   3  -6  -9    5.00    0.34
  -3   6  -9    5.01    0.32
   3  -6  -9    5.10    0.30
   3   6   9    5.61    0.36
  -3   6  -9    4.88    0.28
  -3  -6   9    5.33    0.30
   3   6  -9    5.51    0.34
  -3  -6  -9    5.59    0.30
  -3  -6  -9    5.49    0.30
   3  -6   9    4.67    0.30
  -3   6   9    5.14    0.27
   3   6  -9    5.17    0.29
   3  -6   9    4.61    0.34
   3   6  10    4.01    0.33
   3  -6 -10    3.93    0.31
   3  -6 -10    3.70    0.27
  -3   6 -10    3.84    0.29
  -3   6 -10    3.46    0.24
  -3   6 -10    3.79    0.28
  -3   6  10    3.51    0.24
   3   6 -10    3.31    0.30
   3   6  11    5.33    0.39
  -3   6 -11    4.81    0.34
   3  -6 -11    4.29    0.31
   3  -6 -11    4.92    0.35
   3   6 -11    4.36    0.34
  -3   6  11    5.11    0.29
   3  -6 -12    1.92    0.22
  -3   6  12    2.12    0.21
  -3   7   0   33.75    1.00
   3   7   0   30.01    1.16
  -3  -7   0   31.93    1.05
  -3  -7   0   32.36    1.01
   3  -7   0   33.33    1.04
  -3   7   0   33.02    1.14
   3  -7   0   33.02    1.06
   3   7   0   32.51    1.14
   3   7   0   30.01    1.03
  -3   7  -1   28.53    0.97
   3  -7  -1   25.87    0.90
  -3  -7   1   25.50    0.88
  -3  -7   1   25.91    0.85
   3  -7  -1   27.24    0.87
   3   7   1   25.82    0.99
   3   7   1   26.47    0.87
  -3   7  -1   27.92    0.84
   3   7   1   28.12    0.97
   3   7  -1   26.59    0.87
  -3  -7  -1   26.68    0.85
   3   7  -1   26.31    0.96
  -3   7   1   28.08    0.96
  -3   7   1   27.78    0.84
   3  -7   1   27.23    0.88
  -3  -7  -1   25.90    0.89
   3   7  -1   22.50    0.96
   3  -7  -2   27.57    0.88
   3  -7  -2   26.55    0.92
   3   7   2   26.62    0.96
  -3  -7   2   25.24    0.88
   3   7   2   25.94    0.87
   3   7   2   26.00    1.00
  -3   7  -2   27.61    0.97
  -3   7  -2   27.63    0.84
  -3  -7   2   26.39    0.85
  -3  -7  -2   25.65    0.88
   3   7  -2   26.06    0.87
  -3   7   2   27.25    0.83
  -3  -7  -2   25.53    0.84
  -3   7   2   27.24    0.95
   3   7  -2   25.49    0.96
   3  -7   2   27.30    0.88
   3  -7  -3   22.04    0.72
   3   7   3   20.74    0.79
   3   7   3   19.57    0.83
  -3  -7   3   20.27    0.73
   3   7   3   20.56    0.72
  -3   7  -3   21.50    0.80
  -3  -7   3   20.40    0.69
   3  -7  -3   22.12    0.78
  -3   7  -3   21.57    0.69
   3   7  -3   21.50    0.72
  -3  -7  -3   21.26    0.73
  -3  -7  -3   19.84    0.69
  -3   7   3   22.22    0.69
   3  -7   3   22.85    0.73
  -3   7   3   22.20    0.78
   3   7  -3   19.94    0.79
  -3  -7   4    9.65    0.40
  -3   7  -4   10.45    0.45
  -3   7  -4   11.10    0.38
   3   7   4    9.80    0.39
  -3  -7   4    9.91    0.38
   3  -7  -4   11.09    0.40
   3   7   4    9.97    0.48
   3   7   4    9.14    0.42
   3  -7  -4   10.38    0.45
   3   7  -4    8.91    0.43
  -3   7   4    9.78    0.36
  -3   7   4   10.38    0.43
   3   7  -4    9.41    0.39
  -3  -7  -4    8.88    0.37
  -3  -7  -4    9.45    0.41
  -3  -7  -4    9.34    0.40
   3  -7   4   10.54    0.41
   3  -7  -5   23.52    0.79
  -3   7  -5   24.77    0.85
  -3   7  -5   23.88    0.87
   3   7   5   22.75    0.78
   3  -7  -5   23.99    0.85
   3   7   5   22.20    0.91
  -3  -7   5   22.57    0.76
  -3   7  -5   24.45    0.76
  -3  -7   5   22.31    0.79
   3   7   5   22.76    0.85
  -3  -7  -5   21.41    0.78
  -3  -7  -5   21.41    0.75
   3   7  -5   21.38    0.86
  -3   7   5   23.02    0.75
  -3  -7  -5   21.52    0.83
   3  -7   5   23.75    0.81
  -3   7   5   23.52    0.84
   3   7  -5   22.33    0.78
  -3  -7   6   30.71    1.05
  -3  -7   6   30.96    1.02
   3  -7  -6   33.20    1.12
   3   7   6   31.84    1.20
   3  -7  -6   32.83    1.06
  -3   7  -6   31.53    1.15
  -3   7  -6   32.93    1.02
  -3   7  -6   32.81    1.14
  -3   7   6   31.55    1.01
  -3  -7  -6   30.17    1.12
   3   7  -6   30.68    1.05
  -3   7   6   32.21    1.13
   3  -7   6   33.73    1.08
  -3  -7  -6   30.24    1.01
  -3  -7  -6   30.21    1.05
   3   7  -6   30.23    1.16
   3  -7  -7   41.28    1.42
   3  -7  -7   43.52    1.37
  -3  -7   7   40.58    1.35
  -3   7  -7   42.92    1.32
   3   7   7   38.33    1.51
  -3   7  -7   40.85    1.46
  -3  -7   7   41.19    1.32
  -3   7  -7   41.10    1.48
   3   7  -7   39.67    1.49
  -3  -7  -7   39.54    1.44
   3  -7   7   43.12    1.54
  -3   7   7   42.09    1.31
  -3   7   7   43.73    1.45
  -3  -7  -7   41.14    1.35
   3   7  -7   41.81    1.36
   3  -7   7   42.95    1.38
  -3   7  -8   41.79    1.46
   3   7   8   39.74    1.51
  -3  -7   8   41.30    1.35
  -3   7  -8   41.18    1.47
   3  -7  -8   40.60    1.41
  -3  -7   8   41.06    1.31
  -3   7  -8   42.08    1.32
   3  -7  -8   41.42    1.36
  -3   7   8   40.49    1.30
   3  -7   8   40.23    1.52
   3  -7   8   42.67    1.38
   3   7  -8   39.20    1.48
  -3  -7  -8   39.28    1.34
   3  -7  -9   26.57    0.93
  -3   7  -9   26.81    1.00
  -3   7  -9   26.65    0.89
   3   7   9   25.13    1.04
   3  -7  -9   26.00    0.97
  -3   7  -9   25.64    0.99
   3  -7   9   24.76    1.04
   3  -7   9   26.46    0.96
  -3   7   9   25.80    0.88
   3   7  -9   23.76    1.01
  -3  -7  -9   24.83    0.90
   3  -7 -10   21.14    0.83
   3  -7 -10   20.97    0.78
  -3   7 -10   21.34    0.84
   3   7  10   18.91    0.87
   3   7 -10   20.00    0.87
  -3   7  10   20.51    0.74
   3   8   0    0.10    0.07
  -3   8   0    0.14    0.06
  -3   8   0    0.16    0.09
   3   8   0    0.16    0.11
   3   8   0    0.14    0.09
   3  -8   0    0.10    0.07
  -3  -8   0    0.05    0.08
  -3  -8   0    0.06    0.06
  -3  -8   1    0.27    0.09
   3   8   1    0.26    0.08
   3  -8  -1    0.34    0.10
  -3   8  -1    0.21    0.09
  -3   8  -1    0.20    0.06
   3  -8  -1    0.37    0.08
   3   8   1    0.20    0.12
   3   8   1    0.19    0.09
  -3  -8   1    0.29    0.07
  -3  -8  -1    0.30    0.10
   3   8  -1    0.22    0.08
  -3   8   1    0.23    0.07
  -3  -8  -1    0.31    0.08
   3   8  -1    0.25    0.11
   3  -8   1    0.28    0.08
  -3   8   1    0.28    0.09
   3   8  -1    0.28    0.10
  -3  -8   2    0.75    0.09
  -3   8  -2    0.68    0.09
   3   8   2    0.94    0.16
   3  -8  -2    0.80    0.11
   3  -8  -2    0.99    0.14
   3   8   2    0.90    0.12
   3   8   2    0.62    0.10
  -3  -8   2    0.95    0.12
  -3   8  -2    0.81    0.13
  -3  -8  -2    0.76    0.09
   3   8  -2    0.82    0.10
   3  -8   2    0.83    0.11
  -3  -8  -2    0.76    0.11
  -3   8   2    0.73    0.09
  -3   8   2    0.68    0.12
   3   8  -2    0.92    0.13
   3  -8  -3    3.56    0.25
   3   8   3    3.12    0.26
  -3   8  -3    2.63    0.21
  -3  -8   3    3.34    0.19
  -3   8  -3    3.03    0.18
   3  -8  -3    2.63    0.19
   3   8   3    3.20    0.20
   3   8   3    3.33    0.22
  -3  -8   3    2.97    0.20
  -3  -8  -3    3.20    0.21
   3   8  -3    3.36    0.20
   3  -8   3    2.74    0.20
  -3   8   3    2.96    0.17
   3   8  -3    3.40    0.23
  -3  -8  -3    3.44    0.19
  -3   8   3    2.77    0.21
  -3  -8   4    2.98    0.20
  -3   8  -4    2.76    0.18
   3   8   4    3.39    0.21
  -3   8  -4    2.59    0.22
   3   8   4    3.49    0.22
  -3  -8   4    3.02    0.18
   3  -8  -4    2.79    0.19
   3  -8  -4    3.52    0.26
   3   8   4    3.47    0.28
  -3   8   4    2.82    0.21
  -3  -8  -4    3.22    0.21
  -3  -8  -4    3.32    0.22
  -3   8   4    3.07    0.18
   3   8  -4    2.97    0.23
  -3  -8  -4    2.99    0.18
   3   8  -4    3.18    0.20
   3  -8   4    2.98    0.22
   3  -8  -5    2.81    0.25
  -3   8  -5    2.32    0.18
  -3  -8   5    2.93    0.21
  -3  -8   5    2.99    0.18
  -3   8  -5    2.65    0.22
   3   8   5    3.24    0.28
   3  -8  -5    2.64    0.19
   3   8  -5    3.03    0.23
   3   8  -5    2.99    0.20
  -3  -8  -5    3.20    0.21
  -3  -8  -5    3.08    0.21
  -3  -8  -5    2.69    0.18
   3  -8   5    2.90    0.22
  -3   8   5    2.62    0.21
  -3  -8   6    5.30    0.27
   3  -8  -6    4.85    0.27
   3  -8  -6    5.36    0.33
   3   8   6    5.28    0.36
  -3   8  -6    4.81    0.30
  -3   8  -6    4.99    0.27
  -3  -8   6    5.47    0.29
  -3  -8  -6    5.46    0.29
   3  -8   6    4.80    0.30
  -3   8   6    4.77    0.29
  -3   8   6    4.92    0.25
   3   8  -6    5.69    0.33
   3   8  -6    5.38    0.28
  -3   8  -7    5.62    0.33
  -3  -8   7    5.86    0.31
  -3   8  -7    5.41    0.29
   3  -8  -7    5.99    0.36
  -3   8  -7    5.88    0.34
   3   8   7    5.70    0.39
   3  -8  -7    5.37    0.31
   3  -8   7    5.71    0.33
  -3  -8  -7    6.48    0.32
   3   8  -7    5.99    0.36
  -3   8   7    5.62    0.28
  -3   8   7    5.51    0.32
  -3   8  -8    5.97    0.36
  -3   8  -8    6.43    0.33
  -3   8  -8    6.57    0.37
   3  -8  -8    6.62    0.39
  -3  -8   8    7.00    0.35
   3   8   8    6.84    0.43
   3  -8  -8    6.64    0.34
  -3   8   8    6.27    0.31
   3  -8   8    6.76    0.38
   3   8  -8    6.46    0.40
  -3  -8  -8    6.74    0.35
  -3   8  -9    4.77    0.33
   3  -8  -9    5.34    0.36
   3   8   9    5.56    0.39
  -3   8  -9    5.01    0.33
   3  -8  -9    4.71    0.30
  -3  -8  -9    5.54    0.33
  -3   8   9    4.94    0.29
   3   8  -9    5.33    0.37
   3  -8 -10    2.81    0.26
  -3   8 -10    2.98    0.28
  -3  -8 -10    3.16    0.26
  -3   8  10    3.23    0.25
  -3   9   0   20.37    0.75
   3   9   0   19.24    0.74
   3   9   0   16.82    0.77
  -3  -9   0   18.62    0.65
   3  -9   0   19.77    0.68
  -3  -9   0   18.85    0.69
  -3   9   0   20.85    0.65
   3   9   0   18.12    0.67
   3  -9  -1   20.90    0.74
   3   9   1   20.46    0.73
   3   9   1   19.44    0.84
  -3   9  -1   21.49    0.70
  -3  -9   1   20.31    0.74
  -3   9  -1   21.66    0.81
   3   9   1   20.94    0.80
  -3   9   1   23.05    0.81
  -3  -9  -1   21.20    0.71
   3   9  -1   21.57    0.80
  -3   9   1   21.77    0.70
   3   9  -1   17.66    0.81
   3   9  -1   20.43    0.73
   3  -9   1   21.65    0.74
  -3  -9  -1   20.68    0.74
  -3   9  -2   16.02    0.64
   3   9   2   15.34    0.62
  -3   9  -2   15.47    0.54
   3  -9  -2   15.82    0.58
  -3  -9   2   14.25    0.58
   3   9   2   15.23    0.69
   3  -9  -2   15.43    0.63
  -3   9   2   15.89    0.64
  -3  -9  -2   15.66    0.55
  -3  -9  -2   14.85    0.59
  -3   9   2   15.76    0.54
   3   9  -2   15.48    0.63
   3  -9   2   16.58    0.59
   3   9  -2   15.73    0.58
   3   9   3   16.07    0.69
   3  -9  -3   16.94    0.60
  -3   9  -3   16.54    0.65
  -3   9  -3   17.80    0.56
   3  -9  -3   16.49    0.65
  -3  -9   3   15.11    0.58
  -3   9   3   15.75    0.64
   3  -9   3   16.32    0.60
  -3  -9  -3   13.69    0.58
  -3   9   3   15.16    0.55
   3   9  -3   14.15    0.57
   3   9  -3   13.13    0.62
   3  -9  -4   23.13    0.86
   3   9   4   21.56    0.92
   3  -9  -4   23.06    0.80
  -3   9  -4   23.00    0.87
  -3  -9   4   21.88    0.79
  -3   9  -4   23.11    0.76
   3  -9   4   22.81    0.81
   3   9  -4   21.16    0.86
  -3   9   4   23.14    0.75
  -3   9   4   23.48    0.86
  -3  -9  -4   21.51    0.80
   3   9  -4   21.37    0.78
   3   9   5   23.62    1.02
  -3   9  -5   26.09    0.86
  -3   9  -5   25.15    0.97
   3  -9  -5   26.04    0.96
  -3  -9   5   24.27    0.89
   3  -9  -5   25.60    0.90
  -3   9   5   26.52    0.96
   3   9  -5   24.81    0.97
   3  -9   5   26.85    0.92
  -3  -9  -5   25.27    0.90
  -3   9   5   26.72    0.85
  -3   9  -6   24.40    0.93
  -3   9  -6   25.48    0.82
  -3  -9   6   22.36    0.83
   3   9   6   22.22    0.97
   3  -9  -6   24.03    0.85
   3  -9  -6   24.86    0.91
  -3  -9  -6   22.78    0.85
  -3   9   6   23.16    0.80
  -3   9   6   24.31    0.91
   3  -9   6   24.32    0.87
   3   9  -6   21.85    0.92
  -3  -9   7   19.42    0.75
  -3   9  -7   22.39    0.74
   3  -9  -7   21.04    0.83
   3  -9  -7   21.43    0.77
  -3   9  -7   20.46    0.83
   3   9   7   19.62    0.88
  -3  -9  -7   19.27    0.77
   3  -9   7   21.81    0.80
   3   9  -7   19.52    0.84
  -3   9   7   20.90    0.82
  -3   9   7   20.60    0.73
   3  -9  -8   17.97    0.70
   3   9   8   17.28    0.81
  -3   9  -8   19.34    0.68
  -3   9  -8   17.82    0.75
   3  -9  -8   18.75    0.77
  -3  -9  -8   17.67    0.70
  -3   9   8   18.22    0.67
   3   9  -8   16.68    0.77
   3  -9  -9   26.35    0.96
  -3   9   9   25.83    0.90
  -3  -9  -9   25.56    0.95
  -3 -10   0    0.39    0.12
   3  10   0    0.37    0.15
   3  10   0    0.26    0.11
  -3  10   0    0.25    0.12
   3 -10   0    0.31    0.11
  -3  10   0    0.35    0.09
  -3  10  -1    0.06    0.10
  -3 -10   1   -0.06    0.10
   3  10   1    0.19    0.15
   3 -10  -1   -0.04    0.08
  -3  10  -1   -0.03    0.07
  -3  10   1   -0.01    0.09
   3 -10   1    0.07    0.09
  -3  10   1   -0.07    0.07
  -3 -10  -1    0.02    0.11
   3  10  -1    0.01    0.11
  -3  10  -2    1.35    0.13
   3 -10  -2    1.37    0.16
  -3  10  -2    1.44    0.17
  -3 -10   2    1.42    0.16
   3  10   2    1.62    0.22
  -3  10   2    1.52    0.15
   3 -10   2    1.11    0.14
  -3  10   2    1.36    0.17
  -3 -10  -2    1.48    0.17
   3  10  -2    1.78    0.19
  -3 -10   3    1.36    0.16
   3  10   3    1.20    0.21
  -3  10  -3    1.14    0.12
   3 -10  -3    1.04    0.19
   3 -10  -3    0.87    0.14
  -3  10  -3    0.91    0.16
   3 -10   3    0.98    0.14
  -3  10   3    0.92    0.12
  -3 -10  -3    1.11    0.15
  -3  10   3    0.91    0.15
   3  10  -3    1.00    0.16
  -3  10  -4    2.80    0.25
   3  10   4    3.32    0.29
  -3 -10   4    3.42    0.23
  -3  10  -4    3.07    0.22
   3 -10  -4    2.89    0.23
   3 -10  -4    3.48    0.29
  -3  10   4    2.84    0.20
   3 -10   4    3.13    0.25
  -3  10   4    2.76    0.24
  -3 -10  -4    3.23    0.24
   3  10  -4    3.29    0.26
   3 -10  -5    3.73    0.31
   3  10   5    3.57    0.31
  -3  10  -5    3.33    0.27
   3 -10  -5    2.94    0.24
  -3 -10   5    3.99    0.25
  -3  10  -5    3.67    0.23
  -3 -10  -5    4.13    0.27
  -3  10   5    3.23    0.26
  -3  10   5    3.60    0.22
   3 -10   5    3.59    0.27
   3  10  -5    3.96    0.28
  -3 -10   6    2.44    0.22
   3 -10  -6    2.20    0.21
   3  10   6    2.34    0.27
  -3  10  -6    2.03    0.22
  -3  10  -6    2.02    0.19
   3 -10  -6    2.43    0.26
   3  10  -6    2.52    0.25
  -3 -10  -6    2.51    0.24
  -3  10   6    1.95    0.21
  -3  10   6    2.11    0.19
   3 -10   6    2.12    0.21
   3 -10  -7    4.30    0.33
  -3  10  -7    3.79    0.29
   3  10   7    4.01    0.36
   3 -10  -7    3.75    0.28
  -3  10  -7    3.87    0.26
  -3 -10  -7    4.46    0.30
   3  10  -7    4.24    0.32
  -3  10   7    3.65    0.29
  -3  10   7    4.05    0.25
   3 -10  -8    2.69    0.24
  -3  10  -8    2.35    0.24
  -3  10   8    2.49    0.22
  -3  11   0    5.97    0.28
   3 -11   0    5.85    0.31
   3  11   0    5.24    0.38
  -3 -11   0    4.96    0.31
  -3  11   0    5.83    0.34
  -3 -11   1    8.99    0.46
  -3  11  -1   10.63    0.52
  -3  11  -1   11.19    0.44
   3 -11  -1   10.75    0.48
   3  11   1    9.05    0.55
  -3  11   1   12.59    0.45
  -3  11   1   12.45    0.54
   3 -11   1   12.63    0.50
  -3  11  -2   20.01    0.68
   3  11   2   18.98    0.84
  -3  11  -2   19.90    0.78
   3 -11  -2   19.12    0.72
  -3 -11   2   18.98    0.71
   3  11  -2   18.26    0.76
  -3 -11  -2   17.64    0.72
  -3  11   2   18.58    0.67
  -3  11   2   18.80    0.77
   3 -11   2   18.22    0.72
   3  11   3   25.09    1.01
  -3  11  -3   24.66    0.94
   3 -11  -3   24.37    0.87
  -3  11  -3   25.02    0.82
  -3 -11  -3   21.76    0.86
   3  11  -3   21.85    0.91
   3 -11   3   23.22    0.87
  -3  11   3   23.05    0.81
  -3  11   3   23.60    0.93
   3 -11  -4   22.17    0.84
  -3  11  -4   22.85    0.91
  -3 -11   4   21.54    0.83
   3 -11  -4   22.96    0.91
  -3  11  -4   24.29    0.80
   3 -11   4   23.68    0.86
  -3  11   4   23.70    0.91
  -3 -11  -4   21.77    0.84
   3  11  -4   21.85    0.90
  -3  11   4   23.21    0.79
  -3  11  -5   14.33    0.65
   3 -11  -5   15.80    0.67
  -3  11  -5   15.67    0.58
  -3 -11   5   13.02    0.58
   3  11   5   13.09    0.69
  -3 -11  -5   14.89    0.62
   3  11  -5   13.74    0.64
  -3  11   5   16.17    0.67
  -3  11  -6   14.38    0.65
   3 -11  -6   15.20    0.67
   3 -11  -6   14.45    0.60
   3  11  -6   13.22    0.64
  -3  11   6   14.07    0.64
   3 -12   0    0.98    0.16
  -3  12   0    1.13    0.15
  -3 -12   0    1.03    0.17
   3 -12  -1    0.20    0.12
  -3 -12   1    0.15    0.13
  -3  12  -1    0.11    0.09
   3  12   1    0.16    0.18
  -3  12   1    0.19    0.10
   3 -12   1    0.18    0.12
  -3 -12  -1    0.37    0.15
   3  12   2    0.52    0.20
   3 -12  -2    0.24    0.12
  -3 -12   2    0.31    0.15
  -3  12  -2    0.29    0.11
  -3  12   2    0.46    0.11
   3 -12   2    0.42    0.13
   3  12   3    0.80    0.22
  -3 -12   3    0.75    0.16
  -3  12  -3    0.91    0.14
   3 -12  -3    0.71    0.16
  -3  12   3    0.85    0.14
   3 -12   3    0.78    0.17
   3 -12  -4    1.63    0.19
  -3 -12   4    1.67    0.20
  -3  12   4    1.93    0.19
   4   0   0  341.38   11.05
  -4   0   0  347.43   10.14
   4   0   0  334.86   10.14
   4   0   0  348.81   11.00
   4   0   1  268.94    8.50
   4   0   1  260.88    7.82
   4   0   1  260.38    8.49
   4   0  -1  261.33    8.49
  -4   0  -1  259.09    7.68
  -4   0  -1  263.93    8.49
   4   0   1  266.26    7.83
   4   0  -1  261.66    7.83
  -4   0   1  260.93    7.82
  -4   0  -1  278.88    7.69
   4   0   1  256.57    7.83
   4   0  -1  265.43    8.48
  -4   0  -1  269.60    7.81
   4   0  -2  186.21    5.60
  -4   0  -2  184.07    5.45
  -4   0  -2  193.56    5.56
   4   0   2  185.68    6.08
   4   0  -2  183.75    6.06
   4   0   2  188.20    5.57
   4   0  -2  192.51    6.04
   4   0  -2  193.64    5.58
   4   0   2  184.83    5.56
  -4   0  -2  184.55    6.06
  -4   0   3  150.76    4.36
   4   0   3  151.48    4.87
   4   0  -3  145.08    4.43
   4   0  -3  147.78    4.49
   4   0   3  148.47    4.45
   4   0  -3  151.41    4.82
   4   0   3  147.94    4.88
  -4   0  -3  155.82    4.44
   4   0  -3  150.35    4.45
  -4   0  -3  145.81    4.36
  -4   0  -3  149.33    4.85
   4   0  -3  150.63    4.85
   4   0  -4  131.91    3.92
   4   0  -4  131.47    3.87
  -4   0  -4  128.76    3.80
  -4   0   4  128.46    3.79
   4   0   4  128.67    4.27
  -4   0  -4  129.34    4.23
   4   0  -4  129.08    4.22
   4   0   4  130.37    3.88
   4   0   5  152.33    5.08
  -4   0  -5  151.98    5.03
   4   0  -5  158.02    5.03
  -4   0  -5  154.88    4.54
   4   0  -5  155.53    4.63
   4   0  -5  152.59    4.67
  -4   0   5  155.50    4.53
   4   0   5  158.62    4.64
  -4   0  -6  122.67    4.06
  -4   0  -6  124.36    3.65
   4   0   6  122.47    4.11
  -4   0   6  124.31    3.65
   4   0   6  123.68    3.74
   4   0  -6  122.29    3.78
   4   0  -6  127.89    4.05
   4   0  -6  123.24    3.72
   4   0  -7   96.81    3.10
  -4   0  -7   91.87    3.11
   4   0   7   93.13    2.87
  -4   0   7   93.09    2.78
   4   0   7   93.62    3.16
   4   0  -7   91.89    2.90
   4   0  -7   92.94    2.85
  -4   0  -7   95.42    2.79
  -4   0  -8   74.42    2.27
   4   0  -8   77.09    2.52
   4   0   8   76.25    2.58
   4   0  -8   72.79    2.36
  -4   0   8   74.86    2.26
  -4   0  -8   73.35    2.53
   4   0   8   75.67    2.34
   4   0  -8   75.77    2.32
   4   0  -9   47.12    1.61
  -4   0  -9   48.66    1.71
   4   0   9   49.24    1.59
  -4   0   9   48.66    1.51
   4   0  -9   49.74    1.56
   4   0   9   49.02    1.76
  -4   0  -9   48.96    1.53
  -4   0 -10   33.82    1.26
   4   0  10   34.28    1.17
   4   0 -10   34.54    1.14
  -4   0 -10   34.01    1.11
  -4   0  10   33.66    1.10
   4   0  10   34.53    1.30
   4   0 -10   33.23    1.19
  -4   0 -11   19.29    0.82
  -4   0  11   19.52    0.70
   4   0 -11   20.37    0.74
   4   0 -11   20.02    0.79
   4   0  11   20.15    0.86
   4   0  12   11.12    0.58
   4   0 -12   11.28    0.49
  -4   0  12   10.46    0.46
  -4   0 -12   10.47    0.55
   4   0 -12   11.31    0.53
  -4   1   0    2.40    0.15
   4   1   0    2.04    0.14
   4   1   0    2.25    0.09
  -4  -1   0    2.17    0.09
   4  -1   0    2.19    0.15
  -4   1   0    2.13    0.14
   4   1   0    2.30    0.16
   4  -1   0    2.09    0.17
   4  -1   0    2.31    0.14
   4   1   0    2.24    0.09
  -4  -1   0    2.33    0.09
   4   1   0    2.50    0.17
  -4  -1   0    2.03    0.13
   4  -1  -1    0.48    0.08
   4   1   1    0.64    0.10
   4  -1  -1    0.41    0.09
  -4  -1   1    0.50    0.04
   4   1   1    0.54    0.05
   4   1   1    0.47    0.09
  -4   1  -1    0.36    0.06
   4  -1  -1    0.40    0.07
   4   1   1    0.47    0.05
  -4  -1   1    0.41    0.07
  -4  -1   1    0.48    0.04
  -4   1  -1    0.48    0.08
   4   1  -1    0.47    0.08
   4  -1   1    0.52    0.08
   4  -1   1    0.51    0.07
   4   1  -1    0.54    0.05
   4   1  -1    0.68    0.09
   4   1  -1    0.55    0.08
   4   1  -1    0.61    0.05
   4  -1   1    0.50    0.09
  -4  -1  -1    0.44    0.07
  -4  -1  -1    0.55    0.05
  -4  -1  -1    0.53    0.05
   4   1   2    3.41    0.21
   4  -1  -2    3.70    0.20
  -4   1  -2    3.83    0.20
   4   1   2    3.84    0.15
   4   1   2    3.79    0.23
   4  -1  -2    3.52    0.19
  -4   1  -2    3.72    0.16
  -4  -1   2    3.72    0.14
   4  -1  -2    3.42    0.19
  -4   1  -2    3.76    0.14
  -4   1  -2    3.49    0.13
  -4  -1   2    3.58    0.19
  -4  -1  -2    4.12    0.21
   4  -1   2    3.82    0.14
   4  -1   2    3.67    0.14
   4   1  -2    3.67    0.14
   4   1  -2    3.85    0.21
  -4  -1  -2    3.71    0.14
   4   1  -2    3.81    0.14
   4  -1   2    3.73    0.23
  -4   1   2    3.87    0.19
   4   1  -2    3.71    0.20
  -4  -1  -2    3.75    0.17
   4   1  -2    3.81    0.20
   4  -1   2    3.91    0.21
   4  -1  -3    4.27    0.21
  -4   1  -3    4.15    0.22
   4  -1  -3    4.44    0.22
  -4  -1   3    4.33    0.16
  -4   1  -3    4.02    0.16
   4  -1  -3    4.13    0.16
   4   1   3    4.12    0.23
   4  -1  -3    4.22    0.16
   4   1   3    4.38    0.26
   4  -1  -3    4.36    0.23
   4   1   3    4.07    0.17
  -4  -1   3    4.33    0.22
  -4  -1  -3    4.37    0.17
  -4  -1  -3    4.59    0.19
   4  -1   3    4.56    0.18
   4  -1   3    4.26    0.26
   4   1  -3    4.48    0.23
   4   1  -3    4.42    0.23
  -4   1   3    4.71    0.20
  -4   1   3    4.28    0.15
   4   1  -3    4.58    0.17
  -4   1   3    4.39    0.15
  -4  -1  -3    4.29    0.23
  -4  -1   4    8.84    0.29
  -4   1  -4    7.95    0.36
   4   1   4    8.39    0.38
   4   1   4    8.24    0.31
   4  -1  -4    8.34    0.35
   4   1   4    8.28    0.40
  -4   1  -4    8.24    0.29
   4  -1  -4    8.30    0.29
   4  -1  -4    8.22    0.34
  -4  -1  -4    8.24    0.29
  -4   1   4    8.19    0.28
   4   1  -4    8.33    0.35
   4  -1   4    8.23    0.31
   4   1  -4    8.60    0.36
   4   1  -4    8.36    0.30
  -4  -1  -4    8.57    0.37
   4  -1   4    7.88    0.40
  -4  -1  -4    8.49    0.30
  -4  -1   5   12.56    0.42
   4   1   5   12.64    0.45
  -4   1  -5   12.53    0.43
   4  -1  -5   12.82    0.50
  -4   1  -5   12.58    0.50
   4  -1  -5   12.49    0.43
   4   1   5   12.22    0.55
   4  -1  -5   12.78    0.49
   4  -1   5   12.46    0.45
   4   1  -5   12.31    0.49
   4   1  -5   13.02    0.50
  -4   1   5   12.92    0.42
  -4  -1  -5   12.46    0.43
   4   1  -5   12.98    0.44
   4  -1   5   11.75    0.54
  -4  -1  -5   12.38    0.50
   4   1   6    9.59    0.47
  -4   1  -6    9.67    0.43
   4  -1  -6    9.75    0.43
   4   1   6    9.77    0.38
   4  -1  -6   10.41    0.41
   4  -1  -6    9.99    0.37
  -4  -1   6   10.30    0.36
  -4   1  -6    9.92    0.36
  -4   1   6    9.81    0.35
  -4  -1  -6    9.71    0.36
   4  -1   6    9.14    0.38
  -4  -1  -6    9.93    0.43
   4  -1   6    9.45    0.47
   4   1  -6    9.72    0.37
   4   1  -6   10.23    0.43
   4   1  -6   10.42    0.43
  -4  -1   7   12.88    0.45
   4   1   7   12.59    0.48
   4  -1  -7   12.26    0.52
  -4   1  -7   12.39    0.53
   4   1   7   13.24    0.58
   4  -1  -7   12.02    0.46
  -4   1  -7   11.59    0.45
   4   1  -7   12.70    0.47
   4  -1   7   12.31    0.48
   4   1  -7   12.40    0.51
  -4  -1  -7   12.96    0.53
  -4  -1  -7   12.78    0.45
  -4   1   7   12.85    0.44
   4  -1   7   12.49    0.57
   4   1  -7   13.24    0.53
   4   1   8   11.14    0.44
   4   1   8   11.05    0.53
  -4   1  -8   11.20    0.42
   4  -1  -8   10.81    0.47
  -4   1  -8   10.62    0.48
  -4  -1   8   11.05    0.41
   4  -1  -8   11.30    0.42
  -4  -1  -8   10.71    0.41
  -4   1   8    9.91    0.39
  -4  -1  -8   10.28    0.47
   4   1  -8   10.45    0.47
   4  -1   8   10.57    0.52
   4   1  -8   10.53    0.42
   4  -1   8   10.00    0.44
   4   1  -8   10.72    0.48
   4  -1  -9   11.08    0.45
  -4   1  -9   11.37    0.44
  -4   1  -9   10.28    0.51
   4   1   9   10.93    0.47
  -4  -1   9   10.97    0.43
   4   1   9   11.57    0.56
   4  -1  -9   11.16    0.50
   4  -1   9   12.01    0.56
   4  -1   9   11.86    0.48
  -4  -1  -9   11.56    0.45
   4   1  -9   11.63    0.51
  -4   1   9   11.49    0.43
   4   1  -9   12.15    0.52
   4   1  -9   11.18    0.45
  -4  -1  -9   11.11    0.51
   4   1  10   12.56    0.61
   4  -1 -10   12.13    0.50
   4  -1 -10   12.71    0.56
  -4   1 -10   13.39    0.50
   4   1  10   12.87    0.53
  -4   1 -10   11.90    0.57
  -4  -1  10   13.15    0.48
  -4  -1 -10   12.53    0.50
   4  -1  10   11.56    0.52
   4  -1  10   12.63    0.61
  -4   1  10   11.97    0.48
  -4  -1 -10   12.96    0.57
   4   1 -10   12.74    0.57
   4   1 -10   12.67    0.50
   4   1 -10   12.52    0.55
   4  -1 -11   10.15    0.45
   4   1  11   10.23    0.47
   4   1  11   10.00    0.54
   4  -1 -11   10.57    0.50
  -4   1 -11    9.13    0.50
  -4  -1  11   10.83    0.43
  -4   1 -11    9.36    0.42
  -4   1  11    9.68    0.42
   4   1 -11   10.24    0.44
   4   1 -11    9.65    0.48
   4  -1  11   10.20    0.54
   4  -1  11    9.58    0.46
  -4  -1 -11   10.25    0.50
   4  -1 -12    8.77    0.42
  -4  -1  12    9.01    0.40
   4  -1 -12    8.86    0.47
   4   1  12    8.35    0.50
   4   1 -12    8.68    0.42
   4   1 -12    8.61    0.46
  -4   1  12    9.11    0.40
   4  -1  12    8.83    0.51
   4   2   0  187.41    5.65
  -4  -2   0  189.67    5.54
   4  -2   0  191.44    5.67
  -4  -2   0  190.47    5.67
  -4   2   0  187.90    6.14
   4   2   0  194.48    6.17
   4  -2   0  188.62    6.15
  -4   2   0  189.20    6.14
   4  -2   0  192.44    6.17
   4   2   0  194.88    6.16
  -4  -2   1  209.41    6.08
   4  -2  -1  216.25    6.74
   4  -2  -1  211.65    6.22
   4  -2  -1  213.98    6.75
  -4   2  -1  196.40    6.09
   4   2   1  212.68    6.20
  -4   2  -1  209.76    6.74
   4   2   1  221.81    6.77
  -4  -2   1  208.95    6.22
  -4   2  -1  222.54    6.20
   4   2  -1  201.79    6.75
   4   2  -1  216.71    6.74
   4  -2   1  208.46    6.20
  -4  -2  -1  205.80    6.08
   4  -2   1  205.53    6.20
   4  -2   1  206.30    6.21
  -4  -2  -1  208.59    6.21
   4  -2   1  207.19    6.75
  -4   2   1  204.02    6.72
   4  -2   1  205.28    6.76
   4   2  -1  208.99    6.20
   4   2  -1  203.86    6.23
  -4   2   1  206.75    6.73
   4  -2  -2  220.70    7.24
   4   2   2  224.02    7.27
   4  -2  -2  230.64    7.24
  -4   2  -2  207.03    6.54
  -4  -2   2  223.97    6.69
   4  -2  -2  225.80    6.70
  -4  -2   2  224.23    6.54
   4   2   2  225.04    7.27
   4   2   2  226.28    6.67
  -4   2  -2  216.56    7.24
  -4  -2  -2  232.94    6.67
  -4  -2  -2  228.34    7.26
   4  -2   2  228.01    7.28
   4  -2   2  221.71    6.67
   4   2  -2  224.65    6.70
   4   2  -2  232.94    7.22
  -4  -2  -2  227.30    6.54
  -4   2   2  230.91    7.22
   4   2  -2  223.57    7.26
   4   2  -2  225.90    6.66
   4  -2  -3  206.34    6.08
   4  -2  -3  206.83    6.60
   4  -2  -3  204.36    6.13
  -4  -2   3  199.63    6.11
   4   2   3  205.40    6.65
   4   2   3  201.77    6.09
   4   2   3  206.13    6.64
  -4   2  -3  195.21    5.97
  -4   2  -3  197.58    6.61
   4  -2  -3  205.10    6.08
  -4   2   3  204.76    5.96
  -4  -2  -3  209.86    5.97
   4   2  -3  209.79    6.09
   4  -2   3  205.99    6.10
  -4  -2  -3  209.34    6.08
   4   2  -3  207.30    6.63
  -4   2   3  209.43    6.58
  -4  -2  -3  208.26    6.63
   4  -2   3  203.79    6.65
   4   2  -3  204.91    6.12
  -4  -2   4  158.70    4.76
  -4   2  -4  154.75    5.14
   4  -2  -4  159.68    4.78
   4  -2  -4  161.36    4.72
  -4   2  -4  153.14    4.63
   4   2   4  157.25    4.73
  -4  -2   4  160.00    4.63
   4   2   4  159.68    5.17
   4  -2  -4  155.03    5.12
   4   2   4  158.10    5.19
   4   2  -4  159.38    4.77
  -4   2   4  153.62    4.62
  -4  -2  -4  166.99    4.72
  -4  -2  -4  157.60    4.63
  -4  -2  -4  159.38    5.15
   4  -2   4  156.88    4.74
   4   2  -4  161.16    4.72
   4  -2   4  157.96    5.18
   4   2  -4  160.55    5.15
  -4   2  -5  117.14    3.91
   4   2   5  118.38    3.96
  -4  -2   5  120.01    3.62
   4   2   5  120.64    3.60
  -4  -2   5  120.76    3.51
   4  -2  -5  119.77    3.58
   4  -2  -5  119.91    3.64
  -4   2  -5  119.19    3.52
  -4   2   5  117.74    3.50
   4   2  -5  119.74    3.63
   4  -2   5  116.29    3.95
  -4  -2  -5  118.29    3.91
   4   2  -5  122.00    3.59
   4  -2   5  118.69    3.60
   4   2  -5  122.24    3.92
  -4  -2  -5  120.62    3.52
  -4   2  -6  101.98    3.37
   4  -2  -6  101.70    3.09
   4  -2  -6  101.44    3.15
  -4  -2   6  103.23    3.02
  -4   2  -6  100.37    3.03
   4   2   6  101.39    3.10
   4   2   6  102.23    3.42
  -4  -2   6  101.27    3.13
   4   2  -6  105.08    3.38
   4  -2   6  103.12    3.11
  -4  -2  -6  100.45    3.37
   4   2  -6  100.97    3.13
  -4   2   6  104.05    3.02
   4  -2   6  100.82    3.42
  -4  -2  -6  103.05    3.03
   4   2  -6  102.99    3.09
   4  -2  -7   89.11    2.75
   4   2   7   89.73    3.05
  -4  -2   7   89.36    2.68
   4   2   7   90.15    2.76
  -4   2  -7   88.25    3.00
   4  -2  -7   88.54    2.81
  -4   2  -7   88.41    2.69
  -4  -2   7   86.98    2.78
  -4   2   7   92.09    2.68
   4   2  -7   89.14    2.79
  -4  -2  -7   88.92    2.99
   4   2  -7   94.94    3.01
   4  -2   7   90.48    3.05
   4  -2   7   91.17    2.77
   4   2  -7   91.95    2.75
  -4  -2  -7   91.85    2.69
   4   2   8   67.79    2.05
  -4   2  -8   65.33    1.98
   4  -2  -8   66.00    2.03
   4  -2  -8   65.84    2.09
   4   2   8   65.36    2.27
  -4   2  -8   64.60    2.22
  -4  -2   8   64.70    1.97
   4  -2   8   65.20    2.27
   4   2  -8   62.77    2.06
  -4   2   8   63.42    1.97
   4   2  -8   67.33    2.23
  -4  -2  -8   64.68    1.98
   4   2  -8   64.34    2.02
   4  -2   8   64.40    2.05
  -4  -2  -8   63.11    2.21
   4   2   9   46.02    1.68
  -4   2  -9   47.79    1.46
   4  -2  -9   47.70    1.49
  -4  -2   9   46.51    1.45
   4   2   9   47.98    1.51
   4  -2  -9   46.53    1.55
  -4   2  -9   45.55    1.64
  -4  -2  -9   47.38    1.46
  -4  -2  -9   45.56    1.63
   4   2  -9   44.76    1.53
  -4   2   9   43.64    1.44
   4   2  -9   44.93    1.64
   4   2  -9   46.33    1.49
   4  -2   9   46.73    1.69
   4  -2   9   46.17    1.51
  -4  -2  10   30.25    1.02
   4  -2 -10   29.36    1.11
  -4   2 -10   29.16    1.17
   4   2  10   30.38    1.21
   4  -2 -10   30.32    1.06
  -4   2 -10   30.57    1.04
  -4   2  10   31.70    1.03
   4  -2  10   32.51    1.23
   4   2 -10   32.01    1.11
   4  -2  10   33.64    1.10
   4   2 -10   30.96    1.19
   4   2 -10   33.22    1.07
  -4  -2 -10   30.94    1.17
  -4  -2 -10   33.32    1.05
   4  -2 -11   23.78    0.85
   4   2  11   23.64    0.98
  -4  -2  11   23.33    0.81
  -4   2 -11   23.56    0.95
   4  -2 -11   22.95    0.90
  -4   2  11   23.67    0.81
   4   2 -11   23.97    0.85
   4   2 -11   21.49    0.94
   4   2 -11   24.15    0.89
  -4  -2 -11   23.24    0.93
   4  -2  11   24.05    0.99
  -4  -2  12   18.99    0.76
   4   2  12   19.58    0.86
  -4  -2 -12   18.76    0.81
   4   2 -12   18.33    0.76
   4  -2  12   20.17    0.86
   4   2 -12   19.04    0.73
  -4   3   0    2.01    0.13
  -4   3   0    2.21    0.16
   4  -3   0    1.92    0.08
   4  -3   0    2.11    0.17
   4   3   0    1.88    0.11
   4  -3   0    1.95    0.09
  -4   3   0    2.11    0.08
   4   3   0    1.92    0.16
   4  -3   0    1.98    0.13
   4   3   0    1.99    0.16
  -4  -3   0    1.92    0.10
  -4   3   0    1.93    0.08
   4  -3   0    1.65    0.14
  -4  -3   0    1.92    0.14
   4   3   1    0.80    0.11
   4  -3  -1    0.71    0.09
   4  -3  -1    0.64    0.04
  -4   3  -1    0.75    0.09
  -4   3  -1    0.79    0.06
   4  -3  -1    0.60    0.10
   4  -3  -1    0.65    0.05
   4   3   1    0.71    0.07
  -4  -3   1    0.68    0.07
   4   3   1    0.71    0.11
  -4  -3   1    0.62    0.09
  -4   3  -1    0.72    0.10
   4  -3  -1    0.83    0.09
  -4   3   1    0.87    0.09
   4   3  -1    1.00    0.07
   4   3  -1    1.00    0.11
  -4  -3  -1    0.79    0.07
   4  -3   1    0.97    0.13
  -4   3   1    0.80    0.04
  -4   3   1    0.91    0.10
   4  -3   1    0.94    0.07
   4   3  -1    0.89    0.11
  -4   3   1    0.94    0.05
   4  -3   1    0.91    0.09
  -4  -3  -1    0.80    0.09
  -4   3  -2    0.67    0.09
   4  -3  -2    0.67    0.10
   4   3   2    0.77    0.12
   4  -3  -2    0.74    0.08
   4  -3  -2    0.66    0.05
   4  -3  -2    0.72    0.06
  -4  -3   2    0.76    0.10
  -4  -3   2    0.73    0.07
   4   3   2    0.98    0.12
  -4   3  -2    0.68    0.06
   4   3   2    0.67    0.07
  -4  -3  -2    0.67    0.06
   4  -3   2    0.76    0.12
   4  -3   2    0.66    0.07
   4   3  -2    0.63    0.06
   4   3  -2    0.68    0.10
  -4  -3  -2    0.73    0.08
  -4   3   2    0.66    0.08
  -4   3   2    0.73    0.05
  -4  -3   3    6.38    0.29
   4  -3  -3    6.66    0.30
   4   3   3    6.64    0.32
  -4   3  -3    6.52    0.29
  -4   3  -3    6.10    0.23
   4   3   3    6.56    0.34
   4   3   3    6.43    0.25
   4  -3  -3    6.07    0.23
  -4  -3   3    6.59    0.24
   4  -3   3    6.05    0.25
   4   3  -3    6.45    0.31
   4   3  -3    6.59    0.30
  -4  -3  -3    6.16    0.24
  -4   3   3    6.63    0.28
  -4   3   3    6.07    0.21
  -4  -3  -3    6.70    0.26
  -4  -3  -3    6.23    0.30
   4  -3   3    6.04    0.34
   4   3  -3    6.37    0.24
   4   3   4    8.42    0.31
  -4  -3   4    8.40    0.35
  -4   3  -4    8.60    0.36
   4   3   4    7.74    0.40
   4  -3  -4    8.30    0.36
  -4   3  -4    8.18    0.30
   4  -3  -4    8.25    0.29
   4   3   4    8.39    0.38
  -4  -3   4    8.17    0.29
   4   3  -4    7.81    0.35
  -4   3   4    7.72    0.27
   4  -3   4    7.64    0.40
   4  -3   4    7.86    0.31
  -4  -3  -4    7.78    0.29
  -4  -3  -4    8.11    0.31
   4   3  -4    7.82    0.30
  -4  -3  -4    7.71    0.36
  -4   3   4    8.16    0.33
   4   3  -4    8.06    0.37
   4  -3  -5    6.83    0.29
   4  -3  -5    7.71    0.36
  -4   3  -5    7.49    0.35
   4   3   5    7.39    0.40
  -4   3  -5    7.09    0.29
   4   3   5    7.51    0.31
   4   3   5    7.78    0.38
  -4  -3   5    7.58    0.34
  -4  -3  -5    8.07    0.30
  -4  -3  -5    8.77    0.31
   4  -3   5    7.99    0.32
   4   3  -5    8.27    0.37
   4   3  -5    8.28    0.36
   4  -3   5    8.02    0.41
  -4   3   5    7.86    0.28
  -4  -3  -5    8.09    0.36
   4   3   6   12.28    0.57
   4  -3  -6   12.05    0.45
  -4  -3   6   12.41    0.44
  -4   3  -6   12.01    0.52
   4  -3  -6   11.78    0.51
  -4  -3   6   12.89    0.49
  -4   3  -6   12.23    0.44
   4   3   6   12.53    0.47
  -4  -3  -6   12.08    0.51
  -4   3   6   12.85    0.43
   4   3  -6   12.85    0.53
   4   3  -6   12.97    0.51
   4  -3   6   11.95    0.47
  -4  -3  -6   12.82    0.44
   4  -3   6   12.17    0.56
   4   3  -6   12.96    0.46
  -4  -3   7   11.23    0.46
   4   3   7   11.50    0.44
  -4  -3   7   11.39    0.41
  -4   3  -7   10.94    0.49
   4  -3  -7   10.83    0.42
   4   3   7   10.57    0.52
   4  -3  -7   10.67    0.48
  -4   3  -7   10.47    0.41
  -4  -3  -7   11.19    0.41
   4  -3   7   10.58    0.52
   4  -3   7   10.28    0.44
  -4   3   7   10.46    0.39
   4   3  -7   11.01    0.42
   4   3  -7   11.39    0.47
   4   3  -7   11.57    0.49
  -4  -3  -7   10.92    0.47
   4   3   8   17.26    0.61
  -4   3  -8   16.08    0.57
  -4  -3   8   16.12    0.62
   4   3   8   16.41    0.71
  -4   3  -8   16.25    0.66
   4  -3  -8   16.19    0.65
   4  -3  -8   15.71    0.58
  -4  -3   8   16.58    0.56
  -4   3   8   14.68    0.55
  -4  -3  -8   16.16    0.57
   4  -3   8   14.66    0.60
   4   3  -8   15.86    0.58
  -4  -3  -8   15.33    0.64
   4   3  -8   16.37    0.67
   4   3  -8   16.23    0.63
   4  -3   8   14.42    0.69
  -4  -3   9   13.90    0.57
   4  -3  -9   13.10    0.54
  -4  -3   9   13.59    0.52
  -4   3  -9   13.79    0.62
  -4   3  -9   13.89    0.53
   4  -3  -9   13.46    0.60
   4   3   9   14.02    0.66
   4   3   9   14.51    0.57
   4   3  -9   14.77    0.59
  -4   3   9   13.90    0.52
   4  -3   9   14.38    0.66
   4   3  -9   14.67    0.63
  -4  -3  -9   15.16    0.54
   4   3  -9   14.28    0.55
  -4  -3  -9   14.03    0.60
   4  -3   9   14.82    0.58
   4  -3 -10    6.75    0.35
  -4   3 -10    6.92    0.34
   4   3  10    7.11    0.44
  -4  -3  10    6.73    0.32
   4  -3 -10    6.66    0.40
  -4   3 -10    7.38    0.41
   4   3  10    6.94    0.36
  -4  -3  10    7.03    0.37
   4   3 -10    7.24    0.39
   4  -3  10    6.91    0.37
  -4   3  10    6.95    0.33
   4   3 -10    6.97    0.34
  -4  -3 -10    7.08    0.38
   4   3 -10    6.98    0.41
   4  -3  10    6.93    0.43
  -4  -3 -10    7.42    0.34
  -4  -3  11    7.10    0.34
  -4   3 -11    7.50    0.36
  -4   3 -11    7.00    0.41
   4  -3 -11    7.08    0.42
   4   3  11    7.33    0.46
   4  -3 -11    7.50    0.37
  -4  -3  11    7.56    0.39
   4  -3  11    6.79    0.44
   4   3 -11    6.62    0.43
  -4   3  11    7.08    0.34
  -4  -3 -11    6.78    0.40
   4   3 -11    7.53    0.41
   4  -3  11    6.79    0.39
   4   3 -11    7.34    0.37
  -4  -3  12    6.34    0.32
   4   3 -12    5.58    0.33
   4   3 -12    4.86    0.39
   4  -3  12    5.44    0.40
   4   3 -12    5.72    0.36
  -4   4   0  147.69    4.55
   4   4   0  163.03    5.10
  -4  -4   0  157.58    4.58
   4  -4   0  156.47    5.11
   4  -4   0  161.83    4.68
   4   4   0  158.23    4.67
   4  -4   0  150.61    4.65
  -4  -4   0  153.79    4.68
  -4   4   0  156.87    5.08
   4   4   0  160.59    5.10
   4  -4  -1  170.79    5.22
   4   4   1  181.12    5.72
  -4   4  -1  177.99    5.68
  -4  -4   1  179.18    5.26
   4  -4  -1  180.08    5.26
   4   4   1  180.34    5.25
  -4  -4   1  179.48    5.14
   4   4   1  180.40    5.73
  -4   4  -1  176.62    5.12
  -4   4  -1  179.20    5.70
   4  -4   1  175.62    5.23
   4   4  -1  182.84    5.70
  -4   4   1  169.22    5.68
  -4  -4  -1  178.13    5.14
   4   4  -1  174.81    5.24
  -4  -4  -1  176.26    5.25
  -4   4   1  157.21    5.11
   4   4  -1  175.33    5.72
   4  -4   1  171.82    5.73
   4   4   2  168.04    5.47
  -4   4  -2  167.65    5.44
  -4  -4   2  167.37    4.90
  -4   4  -2  168.82    5.42
   4  -4  -2  170.32    5.03
  -4   4  -2  165.72    4.89
  -4  -4   2  167.21    5.02
   4   4   2  170.97    5.00
   4  -4  -2  162.71    4.98
   4   4  -2  165.13    5.00
   4   4  -2  168.97    5.45
  -4  -4  -2  170.33    4.90
   4  -4   2  167.65    5.48
  -4   4   2  165.51    5.41
   4  -4   2  168.49    5.00
  -4  -4  -2  172.12    5.01
  -4   4   2  164.78    4.88
  -4   4  -3  170.20    5.61
   4   4   3  172.95    5.15
  -4  -4   3  168.44    5.17
   4   4   3  172.53    5.62
   4   4   3  169.78    5.64
   4  -4  -3  168.66    5.13
  -4  -4   3  172.03    5.04
  -4   4  -3  170.23    5.58
   4  -4  -3  170.04    5.19
  -4   4  -3  169.83    5.04
  -4  -4  -3  174.53    5.05
  -4   4   3  169.15    5.02
   4   4  -3  174.12    5.61
  -4   4   3  174.60    5.57
   4   4  -3  174.20    5.15
   4  -4   3  178.31    5.16
   4  -4   3  176.62    5.65
  -4  -4  -3  175.86    5.61
  -4  -4  -3  177.68    5.15
  -4  -4   4  184.58    5.45
   4   4   4  188.68    6.10
  -4   4  -4  188.35    6.06
  -4  -4   4  186.32    5.59
   4   4   4  187.74    5.57
   4  -4  -4  186.67    5.55
  -4   4  -4  184.40    6.04
  -4   4  -4  185.44    5.45
   4   4   4  190.15    6.07
  -4   4   4  191.19    6.01
   4  -4   4  188.28    5.58
  -4  -4  -4  186.79    6.05
   4   4  -4  180.17    6.05
   4   4  -4  179.85    5.56
   4  -4   4  184.18    6.10
  -4  -4  -4  185.57    5.45
  -4  -4  -4  190.85    5.56
  -4   4   4  188.71    5.44
   4   4  -4  185.11    5.60
   4   4   5  134.19    3.93
  -4   4  -5  133.95    3.85
  -4  -4   5  128.82    3.95
   4   4   5  130.10    4.29
   4  -4  -5  133.03    3.92
   4   4   5  132.94    4.33
  -4   4  -5  132.08    4.27
   4  -4  -5  130.17    3.98
  -4  -4   5  132.96    3.84
  -4   4   5  129.05    3.83
  -4  -4  -5  128.03    3.84
   4   4  -5  128.60    3.92
  -4  -4  -5  128.16    4.27
   4  -4   5  125.06    4.32
   4   4  -5  128.60    3.96
   4   4  -5  126.82    4.28
   4  -4   5  129.73    3.94
  -4  -4  -5  135.27    3.92
  -4   4  -6   86.19    2.98
   4   4   6   92.21    2.76
  -4  -4   6   88.74    2.68
  -4   4  -6   87.26    2.68
   4   4   6   88.48    3.04
   4  -4  -6   89.69    2.81
   4  -4  -6   88.70    2.73
  -4  -4   6   87.90    2.77
   4   4  -6   92.63    2.75
  -4  -4  -6   91.96    2.69
   4   4  -6   90.33    3.00
  -4  -4  -6   94.30    2.73
   4  -4   6   90.55    2.77
   4  -4   6   89.34    3.05
  -4  -4  -6   89.09    2.98
   4   4  -6   90.49    2.79
  -4   4   6   89.31    2.67
  -4   4  -7   57.95    1.99
  -4  -4   7   57.73    1.77
   4   4   7   58.73    1.82
  -4   4  -7   56.49    1.77
   4   4   7   56.29    2.03
  -4  -4   7   56.69    1.84
   4  -4  -7   56.90    1.88
   4  -4  -7   56.80    1.81
  -4  -4  -7   58.23    1.97
   4   4  -7   59.36    1.86
   4  -4   7   58.56    1.84
   4  -4   7   57.17    2.04
  -4   4   7   57.38    1.75
   4   4  -7   59.35    1.81
   4   4  -7   58.21    2.00
  -4  -4  -7   58.28    1.77
   4  -4  -8   41.84    1.45
   4   4   8   44.92    1.40
   4  -4  -8   42.03    1.38
   4   4   8   42.37    1.57
  -4   4  -8   43.75    1.35
  -4   4  -8   43.14    1.52
  -4  -4   8   41.76    1.40
   4   4  -8   42.98    1.53
   4   4  -8   41.90    1.42
   4  -4   8   41.41    1.57
   4  -4   8   42.49    1.41
  -4  -4  -8   43.88    1.35
  -4   4   8   42.57    1.33
  -4  -4  -8   41.23    1.50
   4   4  -8   42.90    1.38
  -4   4  -9   47.53    1.71
  -4  -4   9   47.17    1.52
  -4  -4   9   47.93    1.58
   4  -4  -9   47.22    1.62
   4  -4  -9   48.87    1.56
  -4   4  -9   49.13    1.52
   4   4   9   47.78    1.76
  -4  -4  -9   49.83    1.53
  -4  -4  -9   46.80    1.69
   4   4  -9   48.21    1.73
   4   4  -9   48.21    1.59
   4  -4   9   48.10    1.59
   4  -4   9   48.83    1.76
  -4   4   9   47.89    1.51
   4   4  -9   48.41    1.56
   4   4  10   37.70    1.48
   4  -4 -10   38.14    1.37
  -4   4 -10   39.33    1.28
  -4  -4  10   37.34    1.32
  -4   4 -10   38.21    1.43
   4  -4 -10   39.08    1.31
  -4   4  10   39.62    1.26
   4   4 -10   39.39    1.34
   4  -4  10   41.28    1.35
  -4  -4 -10   39.92    1.42
   4  -4  10   40.21    1.49
  -4  -4 -10   40.39    1.28
  -4  -4  11   26.02    0.97
  -4   4 -11   27.27    0.93
  -4   4 -11   26.62    1.05
   4  -4 -11   26.26    1.02
   4  -4 -11   27.03    0.96
   4   4  11   26.20    1.10
   4   4 -11   26.74    0.99
   4  -4  11   28.05    1.11
  -4  -4 -11   26.79    1.04
   4   4 -11   25.67    1.08
  -4   4  11   27.18    0.92
  -4   5   0    0.57    0.06
  -4  -5   0    0.54    0.07
  -4   5   0    0.56    0.10
   4   5   0    0.73    0.12
  -4  -5   0    0.61    0.10
   4  -5   0    0.50    0.06
   4   5   0    0.53    0.07
   4   5   0    0.62    0.11
   4   5   1    1.58    0.16
  -4   5  -1    1.63    0.10
   4  -5  -1    1.70    0.11
   4   5   1    1.76    0.19
   4   5   1    1.67    0.12
  -4  -5   1    1.63    0.14
  -4   5  -1    1.76    0.17
  -4  -5   1    1.66    0.11
   4  -5  -1    1.78    0.15
  -4   5   1    1.73    0.10
   4   5  -1    1.83    0.17
   4  -5   1    1.68    0.19
  -4  -5  -1    1.77    0.11
  -4   5   1    1.85    0.16
   4  -5   1    1.82    0.12
  -4  -5  -1    1.73    0.15
   4   5  -1    1.92    0.17
   4   5  -1    1.84    0.12
   4  -5  -2    2.92    0.19
  -4   5  -2    2.73    0.14
  -4   5  -2    2.82    0.20
   4   5   2    3.23    0.24
   4   5   2    2.79    0.16
  -4  -5   2    2.93    0.18
  -4  -5   2    2.86    0.15
   4  -5  -2    2.72    0.14
   4   5   2    2.75    0.20
   4   5  -2    2.91    0.21
  -4  -5  -2    3.11    0.16
   4   5  -2    3.05    0.16
  -4   5   2    2.85    0.13
   4  -5   2    2.68    0.15
  -4  -5  -2    3.32    0.18
   4  -5   2    2.76    0.23
  -4   5   2    2.95    0.19
  -4   5  -3    2.50    0.20
   4  -5  -3    2.83    0.15
   4   5   3    3.10    0.25
  -4   5  -3    2.95    0.15
  -4  -5   3    2.91    0.15
   4   5   3    2.92    0.17
   4   5   3    3.03    0.21
  -4   5  -3    3.00    0.19
  -4  -5   3    2.80    0.19
   4  -5  -3    3.17    0.21
  -4  -5  -3    3.57    0.19
  -4  -5  -3    2.89    0.16
   4   5  -3    3.07    0.17
  -4   5   3    3.15    0.19
  -4   5   3    2.93    0.14
   4   5  -3    3.19    0.22
   4  -5   3    3.09    0.24
   4  -5   3    2.77    0.17
  -4  -5  -3    3.25    0.21
  -4   5  -4    6.06    0.29
  -4  -5   4    6.16    0.24
   4   5   4    6.02    0.31
   4  -5  -4    5.59    0.24
   4   5   4    6.14    0.35
  -4  -5   4    5.86    0.28
  -4   5  -4    5.99    0.24
   4  -5  -4    6.13    0.31
   4   5   4    5.90    0.26
  -4   5  -4    5.84    0.31
  -4  -5  -4    5.20    0.24
   4   5  -4    5.27    0.24
   4  -5   4    4.61    0.32
  -4   5   4    4.92    0.26
   4   5  -4    5.10    0.30
   4  -5   4    4.60    0.25
  -4  -5  -4    5.34    0.29
  -4   5   4    4.73    0.21
  -4  -5  -4    5.43    0.26
   4   5   5    7.04    0.31
   4   5   5    7.30    0.41
   4  -5  -5    6.52    0.35
   4  -5  -5    6.73    0.29
  -4  -5   5    7.15    0.29
   4   5   5    7.39    0.36
  -4   5  -5    6.64    0.36
  -4   5  -5    6.60    0.34
  -4   5  -5    6.54    0.29
  -4  -5   5    6.78    0.33
   4   5  -5    7.41    0.36
  -4  -5  -5    7.70    0.35
   4  -5   5    7.23    0.32
  -4  -5  -5    7.42    0.31
  -4  -5  -5    7.26    0.29
  -4   5   5    7.41    0.33
   4   5  -5    7.32    0.30
   4  -5   5    6.89    0.40
  -4   5   5    7.06    0.27
   4   5   6   12.66    0.58
  -4   5  -6   10.90    0.52
   4  -5  -6   11.08    0.44
   4   5   6   12.29    0.47
  -4  -5   6   12.14    0.49
  -4   5  -6   11.52    0.44
   4  -5  -6   11.70    0.52
  -4  -5   6   12.06    0.44
  -4   5  -6   11.27    0.51
   4  -5   6   11.36    0.56
  -4  -5  -6   12.28    0.51
  -4   5   6   12.02    0.42
   4   5  -6   12.36    0.53
  -4  -5  -6   12.56    0.46
   4   5  -6   11.96    0.45
   4  -5   6   11.20    0.47
  -4  -5  -6   11.79    0.44
   4  -5  -7   11.57    0.46
   4   5   7   12.18    0.48
  -4   5  -7   11.29    0.53
   4   5   7   11.86    0.58
  -4   5  -7   11.27    0.45
  -4  -5   7   11.86    0.45
  -4   5  -7   11.15    0.53
   4  -5  -7   12.56    0.54
  -4  -5   7   11.89    0.49
   4   5  -7   12.91    0.51
  -4  -5  -7   12.81    0.46
   4  -5   7   11.04    0.58
  -4   5   7   11.65    0.43
  -4  -5  -7   12.61    0.46
   4   5  -7   11.49    0.54
   4   5  -7   12.20    0.47
  -4  -5  -7   12.48    0.52
   4  -5   7   11.62    0.49
   4  -5  -8   10.02    0.43
  -4   5  -8   10.01    0.42
  -4   5  -8    9.53    0.49
  -4   5  -8   10.17    0.49
   4  -5  -8    9.84    0.49
   4   5   8   10.83    0.45
  -4  -5   8   11.18    0.46
   4   5   8   10.67    0.54
  -4  -5   8   10.59    0.42
   4  -5   8    9.14    0.44
   4   5  -8   10.47    0.43
   4   5  -8   10.48    0.50
   4   5  -8   10.89    0.47
  -4   5   8    9.58    0.40
  -4  -5  -8    9.91    0.41
   4  -5   8    9.52    0.53
  -4  -5  -8   10.39    0.47
  -4   5  -9    8.26    0.45
   4  -5  -9    8.62    0.45
   4   5   9    8.88    0.50
  -4  -5   9    8.96    0.39
   4   5   9    9.12    0.42
   4  -5  -9    8.09    0.39
  -4  -5   9    8.94    0.43
  -4   5  -9    8.12    0.38
  -4   5  -9    7.65    0.44
   4   5  -9   10.08    0.45
  -4  -5  -9    9.61    0.40
   4  -5   9    8.70    0.43
  -4   5   9    8.53    0.38
   4  -5   9    8.68    0.50
   4   5  -9    9.51    0.48
  -4  -5  -9    8.88    0.43
  -4   5 -10    8.78    0.40
  -4   5 -10    9.18    0.47
  -4  -5  10    9.21    0.44
   4  -5 -10    8.79    0.48
  -4  -5  10    9.25    0.40
   4   5  10    9.86    0.53
  -4   5 -10    8.72    0.47
   4  -5 -10    8.77    0.42
   4  -5  10    7.91    0.50
   4   5 -10    8.86    0.41
  -4   5  10    8.77    0.39
  -4  -5 -10    9.28    0.45
   4  -5  10    7.65    0.43
   4   5 -10    9.17    0.45
   4   5 -10    9.11    0.50
  -4   5 -11    7.79    0.40
  -4  -5  11    8.56    0.43
  -4   5 -11    8.09    0.45
  -4  -5  11    8.51    0.40
   4  -5  11    7.98    0.44
   4   5 -11    8.82    0.45
   4  -5  11    7.61    0.50
  -4  -5 -11    8.46    0.44
   4   5 -11    8.25    0.41
  -4   6   0  164.71    5.44
  -4   6   0  162.30    4.89
  -4  -6   0  168.89    5.02
   4   6   0  167.01    5.47
  -4  -6   0  170.92    4.91
   4   6   0  167.27    5.01
   4   6   0  173.51    5.47
   4  -6   0  165.33    5.00
  -4  -6   1  150.40    4.49
   4  -6  -1  144.01    4.46
  -4   6  -1  145.77    4.86
  -4  -6   1  152.68    4.38
   4  -6  -1  149.48    4.49
  -4   6  -1  148.03    4.36
   4   6   1  151.91    4.88
   4   6   1  144.92    4.47
   4   6   1  147.02    4.90
   4  -6   1  149.76    4.46
  -4  -6  -1  148.31    4.48
  -4   6   1  144.67    4.36
   4   6  -1  154.47    4.88
   4   6  -1  150.46    4.47
  -4  -6  -1  154.24    4.38
  -4   6   1  149.29    4.85
   4   6   2  148.40    4.35
  -4   6  -2  142.91    4.24
   4  -6  -2  139.77    4.33
   4   6   2  146.06    4.78
  -4  -6   2  145.46    4.26
   4   6   2  148.32    4.75
  -4   6  -2  141.99    4.73
  -4  -6   2  142.55    4.36
   4   6  -2  149.56    4.75
  -4  -6  -2  147.20    4.36
  -4   6   2  144.85    4.71
   4   6  -2  145.24    4.35
   4  -6   2  141.97    4.34
  -4   6   2  141.64    4.24
  -4  -6  -2  146.82    4.26
   4  -6  -3  126.46    3.84
  -4   6  -3  124.41    3.76
   4   6   3  129.74    4.25
  -4  -6   3  126.57    3.77
  -4  -6   3  123.51    3.87
   4  -6  -3  122.58    3.90
  -4   6  -3  127.02    4.20
   4   6   3  129.97    4.21
   4   6   3  131.58    3.86
  -4  -6  -3  126.11    3.77
   4   6  -3  130.10    4.21
   4  -6   3  130.62    4.26
   4  -6   3  127.99    3.86
  -4   6   3  129.40    4.17
  -4  -6  -3  131.21    3.86
   4   6  -3  128.88    3.85
  -4   6   3  127.74    3.75
  -4  -6   4   95.27    2.98
   4   6   4   97.86    3.24
   4   6   4   99.52    3.29
   4  -6  -4   99.48    2.95
   4  -6  -4   94.13    3.02
  -4   6  -4   95.23    3.23
  -4   6  -4   96.86    2.88
  -4  -6   4   98.16    2.89
   4   6   4  101.17    2.96
  -4   6   4   93.04    2.87
   4  -6   4   93.46    3.28
  -4  -6  -4   96.59    3.22
   4   6  -4   96.73    3.24
  -4   6   4   97.40    3.19
   4   6  -4   99.34    2.96
  -4  -6  -4   99.84    2.96
  -4  -6  -4   97.32    2.90
   4  -6   4   97.08    2.97
  -4   6  -5   94.10    2.73
  -4  -6   5   91.51    2.73
   4  -6  -5   90.40    2.86
  -4   6  -5   90.20    3.06
  -4  -6   5   90.76    2.81
   4   6   5   92.22    2.80
  -4   6  -5   91.60    3.04
   4  -6  -5   90.92    2.78
   4   6   5   93.07    3.06
  -4  -6  -5   90.54    2.73
  -4  -6  -5   92.04    3.04
   4  -6   5   89.24    3.10
  -4   6   5   87.29    2.71
  -4   6   5   93.04    3.01
   4   6  -5   89.26    3.06
  -4  -6  -5   94.12    2.80
   4  -6   5   90.38    2.81
   4   6  -5   91.50    2.79
  -4  -6   6   82.16    2.51
   4   6   6   82.73    2.81
   4  -6  -6   81.45    2.64
  -4   6  -6   81.91    2.82
  -4  -6   6   82.55    2.59
  -4   6  -6   83.14    2.80
   4   6   6   80.95    2.57
  -4   6  -6   83.75    2.51
   4  -6  -6   80.88    2.56
   4  -6   6   85.34    2.59
   4   6  -6   84.96    2.57
  -4  -6  -6   85.59    2.57
   4  -6   6   83.02    2.87
   4   6  -6   82.98    2.82
  -4  -6  -6   82.71    2.79
  -4  -6  -6   86.02    2.51
  -4   6   6   85.48    2.50
  -4   6  -7   74.35    2.48
   4  -6  -7   71.93    2.35
   4   6   7   73.24    2.28
   4  -6  -7   70.86    2.27
  -4   6  -7   71.25    2.49
  -4  -6   7   70.91    2.29
  -4  -6   7   71.85    2.22
   4   6   7   71.08    2.54
  -4   6  -7   73.52    2.22
  -4  -6  -7   73.30    2.26
   4  -6   7   73.33    2.55
   4  -6   7   73.89    2.30
   4   6  -7   73.47    2.50
  -4   6   7   73.71    2.20
  -4  -6  -7   73.30    2.22
   4   6  -7   74.06    2.27
  -4  -6  -7   72.90    2.46
  -4   6  -8   60.34    2.15
   4  -6  -8   62.68    2.04
  -4  -6   8   61.83    1.92
  -4   6  -8   61.52    2.14
   4  -6  -8   63.98    1.96
   4   6   8   60.55    2.20
  -4   6  -8   63.16    1.92
  -4  -6   8   60.08    1.98
   4   6  -8   62.47    1.97
  -4  -6  -8   61.51    2.11
   4   6  -8   60.70    2.16
  -4  -6  -8   61.78    1.91
   4  -6   8   61.66    1.99
   4  -6   8   60.50    2.20
  -4   6   8   63.55    1.90
   4  -6  -9   33.36    1.21
   4   6   9   33.67    1.31
  -4   6  -9   32.40    1.25
   4  -6  -9   33.40    1.14
  -4   6  -9   33.60    1.25
  -4   6  -9   34.27    1.12
  -4  -6   9   33.29    1.16
   4   6  -9   32.94    1.14
   4  -6   9   35.30    1.33
   4   6  -9   32.18    1.27
  -4   6   9   34.01    1.10
  -4  -6  -9   32.14    1.22
   4  -6   9   34.30    1.18
  -4   6 -10   23.29    0.84
   4  -6 -10   23.75    0.87
  -4   6 -10   24.00    0.95
   4   6  10   23.33    1.00
   4  -6 -10   23.37    0.93
  -4  -6  10   22.15    0.87
  -4   6 -10   23.42    0.95
   4  -6  10   24.37    0.90
   4   6 -10   23.18    0.98
  -4   6  10   24.17    0.83
  -4  -6 -10   22.79    0.92
   4  -6  10   24.39    1.01
  -4  -6  11   15.64    0.66
  -4  -7   0    0.09    0.09
   4   7   0    0.09    0.07
   4  -7   0    0.11    0.06
  -4  -7   0    0.05    0.06
  -4   7   0    0.14    0.08
  -4   7   0    0.12    0.06
   4   7   0    0.11    0.10
   4   7   0    0.19    0.11
   4  -7  -1    0.16    0.06
  -4  -7   1    0.05    0.07
   4   7   1    0.04    0.10
  -4   7  -1    0.05    0.08
   4   7   1    0.10    0.07
  -4   7  -1    0.16    0.06
   4   7   1    0.04    0.11
  -4  -7   1    0.08    0.09
   4  -7   1   -0.01    0.06
   4   7  -1    0.07    0.10
   4   7  -1    0.04    0.07
  -4   7   1    0.12    0.09
  -4   7   1    0.15    0.06
  -4  -7  -1    0.04    0.07
  -4  -7  -1    0.17    0.09
   4   7   2    1.88    0.18
   4   7   2    1.52    0.20
  -4   7  -2    1.45    0.13
   4  -7  -2    1.47    0.13
  -4  -7   2    1.72    0.14
  -4  -7   2    1.62    0.16
   4   7   2    1.74    0.16
  -4   7  -2    1.52    0.16
   4  -7  -2    1.84    0.18
  -4  -7  -2    1.66    0.13
   4   7  -2    1.82    0.19
  -4   7   2    1.63    0.17
   4  -7   2    1.45    0.15
  -4  -7  -2    1.75    0.16
   4   7  -2    1.69    0.15
  -4   7   2    1.43    0.11
  -4  -7   3    3.61    0.19
  -4   7  -3    3.43    0.18
  -4  -7   3    3.84    0.23
   4  -7  -3    3.45    0.25
   4   7   3    3.78    0.22
   4   7   3    3.69    0.25
   4   7   3    3.64    0.29
   4  -7  -3    3.26    0.19
  -4   7  -3    3.35    0.24
   4   7  -3    3.87    0.25
  -4  -7  -3    3.54    0.19
   4   7  -3    3.68    0.20
  -4   7   3    3.49    0.23
  -4  -7  -3    3.51    0.22
   4  -7   3    3.20    0.20
  -4   7   3    3.16    0.17
   4   7   4    8.24    0.45
  -4   7  -4    7.41    0.32
   4  -7  -4    7.82    0.40
   4   7   4    8.28    0.40
  -4  -7   4    8.24    0.37
  -4  -7   4    7.95    0.32
  -4   7  -4    7.50    0.39
   4  -7  -4    7.48    0.33
   4   7   4    8.63    0.35
   4   7  -4    7.79    0.40
  -4  -7  -4    8.50    0.36
   4  -7   4    7.67    0.35
  -4  -7  -4    7.92    0.38
  -4   7   4    7.48    0.31
   4   7  -4    8.25    0.34
  -4   7   4    7.64    0.37
   4   7   5    7.69    0.39
   4   7   5    8.02    0.45
   4   7   5    7.63    0.34
  -4  -7   5    7.12    0.35
  -4   7  -5    6.48    0.37
   4  -7  -5    7.43    0.33
  -4   7  -5    6.89    0.31
   4  -7  -5    6.81    0.39
   4  -7   5    6.77    0.42
  -4  -7  -5    7.52    0.31
  -4  -7  -5    7.62    0.35
   4   7  -5    7.81    0.34
  -4   7   5    6.95    0.30
   4  -7   5    7.22    0.34
   4   7  -5    7.67    0.39
  -4  -7  -5    8.04    0.37
  -4   7   5    6.93    0.35
  -4   7  -6    3.99    0.29
   4   7   6    3.95    0.27
   4  -7  -6    3.64    0.23
   4   7   6    4.42    0.34
  -4  -7   6    3.99    0.26
   4   7   6    4.00    0.25
  -4  -7   6    4.09    0.23
  -4   7  -6    3.71    0.22
   4  -7  -6    4.09    0.30
   4   7  -6    4.35    0.25
  -4  -7  -6    4.40    0.24
  -4  -7  -6    4.07    0.26
  -4  -7  -6    4.65    0.25
  -4   7   6    3.79    0.21
   4   7  -6    4.49    0.30
   4  -7   6    3.73    0.26
   4  -7   6    3.16    0.31
  -4   7  -7    6.48    0.39
   4  -7  -7    6.66    0.35
   4   7   7    7.61    0.38
  -4   7  -7    6.96    0.34
  -4  -7   7    7.49    0.34
   4  -7  -7    7.66    0.43
  -4   7  -7    7.32    0.39
  -4  -7   7    7.82    0.38
   4   7   7    7.85    0.46
  -4   7   7    6.96    0.32
  -4  -7  -7    8.13    0.37
   4  -7   7    6.99    0.45
  -4  -7  -7    7.84    0.38
   4   7  -7    8.36    0.37
  -4  -7  -7    7.68    0.34
   4  -7   7    7.40    0.38
   4   7  -7    7.37    0.41
   4  -7  -8    8.65    0.46
   4   7   8    8.46    0.49
  -4  -7   8    8.08    0.37
   4  -7  -8    7.43    0.38
  -4   7  -8    7.58    0.43
  -4  -7   8    8.37    0.40
  -4   7  -8    7.93    0.42
  -4   7  -8    7.65    0.36
   4   7  -8    8.44    0.39
  -4  -7  -8    8.41    0.38
   4   7  -8    7.89    0.45
   4  -7   8    7.18    0.40
   4  -7   8    7.04    0.47
  -4  -7  -8    7.76    0.39
  -4   7   8    6.82    0.34
  -4   7  -9    8.66    0.40
   4  -7  -9    7.92    0.46
  -4  -7   9    8.71    0.42
   4   7   9    8.76    0.52
  -4   7  -9    7.46    0.44
   4  -7  -9    7.88    0.40
  -4   7  -9    8.55    0.45
  -4  -7   9    8.10    0.38
   4   7  -9    8.91    0.41
   4  -7   9    8.14    0.43
  -4   7   9    8.39    0.38
   4  -7   9    7.64    0.50
   4   7  -9    8.55    0.48
  -4   7 -10    9.45    0.50
  -4   7 -10    9.81    0.50
  -4   7 -10    9.44    0.44
   4  -7  10    9.27    0.55
   4  -7  10    9.53    0.48
   4   8   0  127.97    4.74
  -4   8   0  143.86    4.71
   4   8   0  155.94    4.75
  -4   8   0  142.28    4.23
   4  -8   0  141.78    4.34
  -4  -8   0  143.77    4.35
   4   8   0  148.05    4.35
  -4  -8   0  147.11    4.26
  -4   8  -1  119.51    4.05
   4   8   1  127.88    3.73
  -4   8  -1  118.73    3.63
   4   8   1  115.53    4.10
  -4  -8   1  122.42    3.74
  -4  -8   1  126.01    3.66
   4  -8  -1  114.44    3.72
   4   8   1  131.86    4.08
   4   8  -1  129.61    4.08
  -4   8   1  119.28    3.63
  -4  -8  -1  126.31    3.65
   4   8  -1  126.32    3.74
  -4   8   1  125.17    4.05
  -4  -8  -1  123.49    3.75
   4  -8   1  119.72    3.73
   4   8   2   99.27    3.47
   4   8   2  102.84    3.14
  -4   8  -2  101.59    3.05
  -4  -8   2  105.04    3.07
  -4   8  -2   98.99    3.41
  -4  -8   2  102.01    3.15
   4  -8  -2   98.21    3.13
   4   8   2  107.30    3.43
   4   8  -2  107.57    3.43
  -4  -8  -2  102.67    3.14
   4   8  -2  106.00    3.14
   4  -8   2  102.81    3.14
  -4   8   2   99.44    3.04
  -4  -8  -2  102.68    3.07
  -4   8   2  104.18    3.40
   4   8   3   87.25    2.85
   4  -8  -3   76.52    2.65
   4   8   3   88.85    2.61
   4   8   3   87.47    2.92
  -4   8  -3   84.94    2.53
  -4   8  -3   81.37    2.84
   4  -8  -3   82.67    2.60
  -4  -8   3   84.54    2.55
  -4   8   3   83.71    2.82
  -4   8   3   82.01    2.52
  -4  -8  -3   84.44    2.54
  -4  -8  -3   87.08    2.62
   4   8  -3   84.21    2.85
   4  -8   3   84.13    2.61
   4   8  -3   88.20    2.61
   4   8   4   80.55    2.69
   4  -8  -4   75.19    2.39
  -4  -8   4   77.04    2.34
   4  -8  -4   75.17    2.46
  -4   8  -4   75.67    2.32
   4   8   4   77.45    2.61
  -4   8  -4   74.39    2.61
  -4  -8   4   74.45    2.40
   4   8   4   77.79    2.39
  -4  -8  -4   78.52    2.40
   4  -8   4   76.87    2.40
  -4   8   4   76.05    2.58
   4   8  -4   80.94    2.40
  -4  -8  -4   79.65    2.59
  -4  -8  -4   75.65    2.33
  -4   8   4   75.96    2.31
   4   8  -4   77.40    2.62
   4   8   5   76.27    2.37
  -4   8  -5   73.82    2.59
  -4  -8   5   76.28    2.39
   4  -8  -5   72.21    2.36
  -4  -8   5   73.69    2.31
  -4   8  -5   74.38    2.30
   4  -8  -5   77.52    2.45
  -4  -8  -5   78.84    2.38
  -4   8   5   75.30    2.29
   4   8  -5   77.29    2.60
   4   8  -5   77.25    2.37
  -4   8   5   77.72    2.56
   4  -8   5   76.43    2.39
  -4  -8  -5   76.45    2.56
  -4  -8  -5   75.71    2.31
  -4   8  -6   67.05    2.38
   4  -8  -6   66.17    2.16
  -4  -8   6   69.73    2.12
   4  -8  -6   69.77    2.25
   4   8   6   72.55    2.46
  -4   8  -6   70.81    2.12
  -4  -8   6   67.02    2.18
  -4  -8  -6   68.74    2.17
   4   8  -6   68.18    2.38
   4  -8   6   70.36    2.19
  -4  -8  -6   67.88    2.11
   4   8  -6   69.58    2.17
  -4   8   6   66.79    2.10
  -4  -8  -6   69.91    2.34
  -4  -8   7   56.78    1.80
   4  -8  -7   57.27    1.85
   4   8   7   57.30    2.09
   4  -8  -7   58.91    1.94
  -4   8  -7   56.82    2.03
  -4  -8   7   55.88    1.86
  -4   8  -7   57.64    1.80
  -4  -8  -7   60.28    1.86
  -4   8   7   56.96    1.79
   4   8  -7   56.22    2.04
   4  -8   7   60.40    1.89
   4   8   8   46.61    1.75
   4  -8  -8   46.32    1.54
  -4   8  -8   47.14    1.50
  -4  -8   8   45.27    1.55
  -4   8  -8   44.38    1.68
  -4  -8  -8   47.79    1.54
  -4   8   8   48.50    1.49
   4  -8   8   48.05    1.58
   4   8  -8   46.77    1.71
  -4   8  -9   27.67    1.13
  -4   8  -9   29.39    1.01
   4  -8   9   30.46    1.08
   4   9   0   -0.01    0.12
  -4   9   0    0.02    0.07
  -4   9   0    0.14    0.11
   4  -9   0   -0.02    0.08
   4   9   0    0.00    0.09
  -4  -9   0   -0.01    0.10
  -4  -9   0   -0.03    0.08
  -4   9  -1    1.20    0.16
  -4   9  -1    1.08    0.12
  -4  -9   1    1.09    0.15
   4   9   1    1.04    0.16
  -4  -9   1    1.14    0.12
   4   9   1    1.12    0.20
   4   9   1    1.18    0.13
   4  -9  -1    0.95    0.12
   4   9  -1    1.22    0.17
  -4   9   1    1.17    0.16
  -4  -9  -1    1.03    0.15
   4  -9   1    1.09    0.13
   4   9  -1    1.02    0.13
  -4  -9  -1    1.19    0.13
  -4   9   1    1.10    0.11
   4   9   2    1.45    0.22
   4  -9  -2    1.32    0.14
  -4  -9   2    1.31    0.13
  -4   9  -2    0.92    0.15
  -4   9  -2    1.10    0.12
  -4  -9   2    1.12    0.14
   4   9   2    1.36    0.17
   4   9   2    1.23    0.15
   4   9  -2    1.42    0.18
  -4   9   2    0.94    0.11
  -4   9   2    1.07    0.16
  -4  -9  -2    1.16    0.13
  -4  -9  -2    1.22    0.16
   4  -9   2    1.26    0.15
   4   9  -2    1.21    0.14
   4  -9  -3    1.60    0.17
  -4   9  -3    1.53    0.19
  -4  -9   3    1.95    0.16
  -4  -9   3    1.80    0.18
   4   9   3    1.94    0.20
   4   9   3    2.05    0.19
  -4   9  -3    1.69    0.16
   4   9   3    1.80    0.24
  -4  -9  -3    1.77    0.16
   4   9  -3    1.79    0.17
   4   9  -3    2.03    0.22
  -4  -9  -3    1.83    0.18
  -4   9   3    1.60    0.15
  -4   9   3    1.80    0.20
   4  -9   3    1.62    0.17
   4  -9  -4    2.38    0.24
   4   9   4    2.09    0.20
  -4   9  -4    2.11    0.23
   4  -9  -4    1.90    0.18
  -4  -9   4    2.30    0.19
   4   9   4    2.49    0.23
   4   9   4    2.85    0.28
  -4   9  -4    2.08    0.18
  -4  -9   4    2.57    0.22
  -4  -9  -4    2.44    0.19
  -4   9   4    2.26    0.17
  -4  -9  -4    2.97    0.23
  -4  -9  -4    2.64    0.22
   4   9  -4    2.62    0.20
   4  -9   4    2.25    0.21
   4   9  -4    2.83    0.25
  -4   9   4    2.32    0.22
  -4  -9   5    5.09    0.30
   4  -9  -5    4.77    0.34
  -4   9  -5    4.42    0.31
   4   9   5    5.05    0.38
  -4   9  -5    4.60    0.26
  -4  -9   5    5.36    0.27
   4  -9  -5    3.93    0.26
  -4  -9  -5    4.69    0.29
  -4   9   5    4.19    0.24
   4   9  -5    5.03    0.29
   4  -9   5    4.16    0.30
   4   9  -5    5.17    0.34
  -4   9   5    4.14    0.29
  -4  -9   6    8.85    0.39
   4   9   6    9.05    0.53
  -4  -9   6    8.40    0.41
  -4   9  -6    8.29    0.38
   4  -9  -6    8.40    0.40
  -4   9  -6    8.57    0.45
   4   9  -6    8.83    0.41
  -4   9   6    8.51    0.37
  -4   9   6    8.73    0.44
   4   9  -6    8.82    0.47
  -4  -9  -6    9.15    0.42
   4  -9   6    7.99    0.43
   4  -9  -7    6.31    0.35
  -4   9  -7    6.66    0.34
  -4   9  -7    6.05    0.39
   4  -9  -7    6.77    0.43
   4   9   7    7.20    0.47
  -4  -9   7    6.98    0.37
  -4   9   7    6.17    0.32
   4   9  -7    7.03    0.42
  -4  -9  -7    7.10    0.37
   4  -9   7    5.91    0.38
  -4   9  -8    4.88    0.30
  -4  -9   8    5.77    0.34
   4  -9   8    5.46    0.36
  -4  -9  -8    6.19    0.36
   4 -10   0   64.99    2.14
  -4  10   0   65.75    2.32
   4  10   0   73.70    2.35
  -4  10   0   67.72    2.07
  -4 -10   0   66.65    2.15
   4  10   1   82.25    2.65
  -4  10  -1   74.80    2.35
  -4  10  -1   76.36    2.64
   4 -10  -1   72.29    2.42
  -4 -10   1   74.89    2.43
  -4  10   1   75.43    2.63
   4  10  -1   85.23    2.66
   4 -10   1   75.07    2.43
  -4  10   1   78.26    2.35
  -4 -10  -1   80.35    2.44
  -4  10  -2   80.95    2.47
   4  10   2   80.63    2.86
   4 -10  -2   78.94    2.55
   4  10   2   88.14    2.79
  -4  10  -2   78.60    2.78
  -4 -10   2   80.39    2.56
  -4  10   2   80.66    2.77
  -4  10   2   80.68    2.47
   4 -10   2   80.10    2.56
  -4 -10  -2   82.05    2.57
   4  10  -2   87.92    2.80
   4  10   3   84.92    2.86
  -4 -10   3   81.19    2.55
  -4  10  -3   81.82    2.46
   4 -10  -3   78.86    2.53
  -4  10  -3   78.91    2.76
   4 -10   3   81.51    2.55
   4  10  -3   86.05    2.78
  -4  10   3   77.63    2.45
  -4  10   3   78.46    2.74
  -4  10  -4   82.26    2.50
   4 -10  -4   79.47    2.58
  -4  10  -4   78.80    2.81
   4  10   4   89.14    2.92
  -4  10   4   81.06    2.50
   4 -10   4   83.86    2.60
  -4  10   4   81.96    2.79
  -4 -10  -4   81.71    2.59
   4  10  -4   83.69    2.83
  -4  10  -5   52.48    1.98
   4 -10  -5   51.83    1.81
  -4  10  -5   56.98    1.76
  -4 -10  -5   57.19    1.83
   4 -10   5   58.29    1.85
   4  10  -5   59.49    2.01
  -4  10   5   57.74    1.97
  -4  10  -6   44.94    1.43
  -4 -10   6   43.93    1.49
  -4  10   6   44.66    1.60
  -4  11   0    0.15    0.14
  -4  11   0    0.17    0.09
   4 -11   0    0.09    0.11
  -4 -11   0    0.29    0.14
   4 -11  -1    0.40    0.13
  -4  11  -1    0.33    0.14
  -4  11  -1    0.42    0.11
  -4 -11   1    0.42    0.14
  -4  11   1    0.25    0.10
   4 -11   1    0.33    0.12
  -4 -11  -1    0.28    0.14
  -4  11   1    0.32    0.14
   4  11  -1    0.23    0.14
   4 -11  -2    0.49    0.13
  -4 -11   2    0.54    0.14
   4  11   2    0.47    0.19
  -4  11  -2    0.46    0.11
  -4  11   2    0.24    0.13
   4  11  -2    0.47    0.16
  -4  11   2    0.30    0.11
   4 -11   2    0.48    0.14
   4 -11  -3    1.87    0.20
   4  11   3    2.45    0.30
  -4  11  -3    2.20    0.20
   4  11  -3    2.59    0.26
   4 -11   3    2.45    0.23
  -5   0   0    0.06    0.06
   5   0   0    0.10    0.07
   5   0   0    0.07    0.07
   5   0   0    0.06    0.08
  -5   0  -1    0.13    0.08
   5   0   1    0.17    0.08
   5   0  -1    0.15    0.07
   5   0  -1    0.06    0.08
   5   0   1    0.04    0.03
   5   0   1    0.05    0.09
  -5   0  -1    0.06    0.03
  -5   0   1    0.07    0.07
  -5   0  -1    0.03    0.06
   5   0  -1    0.04    0.07
   5   0   2   -0.01    0.07
   5   0  -2    0.02    0.07
  -5   0  -2   -0.05    0.07
  -5   0   2   -0.07    0.06
   5   0  -2    0.04    0.07
  -5   0  -2    0.03    0.03
   5   0   2    0.05    0.08
   5   0   2    0.02    0.04
  -5   0  -3    3.10    0.21
   5   0  -3    3.06    0.20
   5   0   3    2.79    0.21
  -5   0   3    2.94    0.20
   5   0   3    3.20    0.15
  -5   0   3    3.11    0.13
  -5   0  -3    3.04    0.13
   5   0  -3    2.85    0.20
   5   0   3    3.08    0.23
   5   0  -3    3.05    0.13
  -5   0  -4    2.06    0.17
   5   0   4    1.72    0.19
   5   0   4    1.94    0.13
   5   0  -4    2.28    0.18
   5   0  -4    2.10    0.17
  -5   0   4    2.08    0.11
   5   0  -4    2.06    0.12
  -5   0  -4    2.08    0.12
   5   0   5    0.69    0.09
   5   0  -5    0.50    0.11
   5   0  -5    0.71    0.08
   5   0   5    0.72    0.15
  -5   0  -5    0.59    0.08
   5   0  -5    0.59    0.12
  -5   0  -5    0.55    0.11
  -5   0   5    0.66    0.07
  -5   0   6    2.57    0.15
   5   0  -6    2.41    0.20
  -5   0  -6    2.52    0.20
   5   0   6    2.50    0.24
   5   0  -6    2.56    0.16
  -5   0  -6    2.50    0.16
   5   0   6    2.25    0.16
   5   0  -6    2.46    0.21
   5   0  -7    2.28    0.22
   5   0   7    2.17    0.18
  -5   0   7    2.29    0.15
  -5   0  -7    2.25    0.16
   5   0   7    2.42    0.24
   5   0  -7    2.30    0.16
  -5   0  -7    2.12    0.20
   5   0   8    3.59    0.32
  -5   0  -8    3.68    0.22
   5   0   8    3.68    0.24
   5   0  -8    4.11    0.28
   5   0  -8    3.77    0.22
  -5   0  -8    3.71    0.27
  -5   0   8    3.76    0.20
  -5   0  -9    2.71    0.24
   5   0  -9    2.69    0.26
   5   0  -9    2.81    0.20
  -5   0   9    2.68    0.18
   5   0   9    2.72    0.22
  -5   0  -9    2.80    0.20
   5   0   9    2.79    0.28
  -5   0  10    0.75    0.12
   5   0  10    0.81    0.21
   5   0 -10    0.81    0.18
  -5   0 -10    0.67    0.13
  -5   0 -10    0.80    0.17
   5   0  10    0.72    0.15
   5   0 -10    0.99    0.14
   5   0  11    0.41    0.15
  -5   0 -11    0.41    0.13
  -5  -1   0   47.68    1.44
   5   1   0   47.90    1.67
  -5  -1   0   48.56    1.52
   5  -1   0   48.19    1.52
   5   1   0   47.89    1.47
  -5   1   0   50.34    1.52
   5  -1   0   49.88    1.68
  -5   1   0   48.89    1.65
   5  -1   0   49.94    1.67
  -5  -1   1   45.62    1.37
   5   1   1   47.36    1.62
   5  -1  -1   47.77    1.61
  -5   1  -1   49.09    1.45
   5   1   1   45.21    1.41
  -5  -1   1   47.73    1.47
   5  -1  -1   48.06    1.60
   5  -1  -1   47.32    1.47
  -5   1  -1   48.30    1.59
  -5  -1  -1   44.65    1.59
  -5   1   1   46.20    1.46
   5   1  -1   46.21    1.40
  -5  -1  -1   47.14    1.45
   5  -1   1   47.31    1.63
   5   1  -1   47.36    1.60
   5   1  -1   45.52    1.60
   5   1  -1   45.33    1.47
   5  -1   1   46.47    1.60
  -5  -1  -1   44.46    1.38
   5  -1   1   45.98    1.45
   5   1   2   36.12    1.30
   5   1   2   34.23    1.12
   5  -1  -2   36.38    1.27
  -5   1  -2   37.21    1.28
  -5   1  -2   34.97    1.09
   5   1   2   35.23    1.31
  -5  -1   2   35.50    1.18
   5  -1  -2   36.75    1.19
  -5  -1   2   34.97    1.09
   5  -1  -2   36.88    1.28
  -5  -1  -2   37.43    1.15
  -5   1   2   39.32    1.26
   5  -1   2   37.87    1.32
  -5  -1  -2   36.81    1.29
   5   1  -2   37.38    1.11
   5  -1   2   37.48    1.12
   5  -1   2   38.05    1.30
   5   1  -2   37.91    1.19
   5   1  -2   36.12    1.29
  -5  -1  -2   36.68    1.10
   5   1   3   31.76    0.99
   5  -1  -3   33.03    1.06
  -5  -1   3   31.70    0.96
   5   1   3   31.50    1.15
  -5  -1   3   31.57    1.05
   5  -1  -3   33.00    0.97
  -5   1  -3   32.08    1.13
  -5   1  -3   31.69    0.96
   5  -1  -3   32.50    1.12
   5   1   3   31.69    1.17
   5   1  -3   31.66    1.06
  -5   1   3   32.21    0.95
   5  -1   3   31.38    1.18
  -5  -1  -3   32.00    0.97
   5  -1   3   31.39    0.99
   5   1  -3   31.66    1.13
   5   1  -3   31.03    0.98
  -5  -1  -3   31.62    1.13
  -5   1  -4   24.03    0.86
  -5   1  -4   23.68    0.73
   5   1   4   22.68    0.75
   5   1   4   23.39    0.91
   5   1   4   22.89    0.88
   5  -1  -4   24.25    0.73
  -5  -1   4   23.76    0.71
  -5  -1   4   22.98    0.80
   5  -1  -4   24.30    0.85
   5  -1  -4   23.20    0.81
   5   1  -4   21.99    0.73
   5   1  -4   22.09    0.85
  -5  -1  -4   22.00    0.72
  -5   1   4   23.26    0.71
   5   1  -4   22.14    0.81
  -5  -1  -4   22.80    0.86
   5  -1   4   22.92    0.75
   5  -1   4   22.42    0.90
  -5  -1   5   38.47    1.28
   5  -1  -5   38.99    1.30
  -5   1  -5   38.54    1.37
   5   1   5   38.16    1.23
   5  -1  -5   39.30    1.21
  -5  -1   5   39.86    1.19
  -5   1  -5   39.15    1.20
   5  -1   5   38.85    1.43
  -5  -1  -5   38.94    1.20
   5   1  -5   39.36    1.22
  -5   1   5   39.15    1.18
   5   1  -5   39.83    1.37
  -5  -1  -5   38.06    1.37
   5  -1   5   39.22    1.24
   5   1  -5   38.51    1.29
   5   1   6   38.26    1.23
   5  -1  -6   38.11    1.29
   5   1   6   37.79    1.42
  -5  -1   6   37.03    1.17
  -5   1  -6   39.10    1.36
   5  -1  -6   37.98    1.21
  -5  -1   6   38.42    1.28
  -5   1  -6   38.78    1.19
   5  -1   6   38.18    1.23
  -5  -1  -6   38.99    1.19
   5   1  -6   37.90    1.28
  -5  -1  -6   37.75    1.36
   5   1  -6   38.54    1.21
  -5   1   6   38.77    1.17
   5  -1   6   37.28    1.42
   5   1  -6   39.11    1.36
   5   1   7   37.68    1.44
   5  -1  -7   38.53    1.32
   5   1   7   37.09    1.25
  -5   1  -7   37.96    1.21
   5  -1  -7   38.71    1.23
  -5   1  -7   39.27    1.38
  -5  -1   7   36.66    1.19
   5  -1   7   38.37    1.44
  -5   1   7   39.27    1.20
   5   1  -7   39.82    1.38
   5   1  -7   39.07    1.23
   5   1  -7   38.97    1.31
   5  -1   7   39.24    1.26
  -5  -1  -7   38.55    1.38
  -5  -1  -7   39.23    1.21
  -5  -1   8   34.45    1.07
   5  -1  -8   34.20    1.11
  -5   1  -8   33.98    1.24
   5   1   8   34.41    1.13
   5  -1  -8   34.05    1.19
  -5   1  -8   34.89    1.09
   5   1   8   34.84    1.31
   5  -1   8   32.54    1.13
  -5  -1  -8   33.24    1.24
   5  -1   8   34.84    1.31
  -5  -1  -8   33.29    1.09
   5   1  -8   34.85    1.24
   5   1  -8   32.35    1.10
   5   1  -8   31.39    1.17
  -5   1   8   33.39    1.07
   5  -1  -9   31.51    1.05
   5  -1  -9   32.51    1.14
   5   1   9   31.86    1.25
  -5   1  -9   32.20    1.19
   5   1   9   32.16    1.09
  -5  -1   9   31.59    1.02
  -5   1  -9   33.36    1.04
  -5   1   9   30.25    1.02
   5  -1   9   31.16    1.25
   5   1  -9   30.42    1.05
  -5  -1  -9   29.97    1.17
  -5  -1  -9   31.20    1.04
   5   1  -9   30.91    1.12
   5  -1   9   31.64    1.09
  -5  -1  10   23.94    0.84
   5  -1 -10   24.91    0.88
  -5   1 -10   25.88    0.87
   5  -1 -10   24.37    0.95
   5   1  10   24.46    0.91
   5   1  10   24.01    1.04
  -5   1 -10   24.16    0.99
  -5  -1 -10   24.45    0.98
   5  -1  10   25.72    0.92
   5  -1  10   25.80    1.06
  -5   1  10   25.10    0.84
   5   1 -10   25.08    0.88
   5   1 -10   25.76    0.95
  -5  -1 -10   26.14    0.87
   5   2   0    1.58    0.17
  -5  -2   0    1.76    0.09
   5  -2   0    1.65    0.15
   5   2   0    1.63    0.16
  -5  -2   0    1.75    0.15
  -5   2   0    1.65    0.16
   5  -2   0    1.84    0.18
  -5   2   0    1.91    0.14
  -5   2   0    1.85    0.15
   5   2   0    1.85    0.10
   5  -2   0    1.79    0.15
   5  -2  -1    0.87    0.12
   5   2   1    0.81    0.08
  -5   2  -1    0.74    0.10
   5   2   1    0.85    0.12
   5  -2  -1    0.61    0.10
   5   2   1    0.72    0.13
   5  -2  -1    0.75    0.10
  -5  -2   1    0.73    0.10
  -5   2  -1    0.69    0.05
  -5  -2   1    0.74    0.07
  -5   2   1    0.72    0.10
   5  -2   1    0.73    0.11
   5   2  -1    0.91    0.12
  -5  -2  -1    0.75    0.07
   5   2  -1    0.65    0.11
   5  -2   1    0.76    0.06
  -5  -2  -1    0.68    0.09
   5   2  -1    0.82    0.07
   5  -2   1    0.80    0.13
  -5   2   1    0.71    0.11
  -5  -2   2    1.68    0.15
  -5  -2   2    1.48    0.09
   5  -2  -2    1.44    0.14
  -5   2  -2    1.68    0.15
   5  -2  -2    1.45    0.16
   5   2   2    1.76    0.19
  -5   2  -2    1.42    0.09
   5  -2  -2    1.33    0.13
   5   2   2    1.54    0.10
   5   2   2    1.54    0.17
  -5   2   2    1.51    0.14
  -5  -2  -2    1.38    0.15
  -5  -2  -2    1.51    0.10
   5   2  -2    1.60    0.10
   5  -2   2    1.48    0.10
   5  -2   2    1.55    0.17
   5   2  -2    1.52    0.15
  -5  -2  -2    1.66    0.13
   5   2  -2    1.46    0.16
   5   2   3    0.71    0.13
   5   2   3    0.66    0.14
   5  -2  -3    0.66    0.06
   5   2   3    0.73    0.08
  -5  -2   3    0.88    0.11
  -5   2  -3    0.71    0.11
  -5   2  -3    0.65    0.07
   5  -2  -3    0.73    0.12
  -5  -2   3    0.80    0.08
   5   2  -3    0.60    0.12
  -5  -2  -3    0.81    0.09
   5  -2   3    0.63    0.08
   5   2  -3    0.73    0.12
  -5  -2  -3    0.73    0.12
  -5  -2  -3    0.73    0.07
  -5   2   3    0.75    0.06
   5  -2   3    0.90    0.15
   5   2  -3    0.57    0.07
   5   2   4    0.44    0.07
   5   2   4    0.46    0.13
  -5   2  -4    0.42    0.07
   5  -2  -4    0.57    0.12
   5  -2  -4    0.44    0.06
  -5  -2   4    0.49    0.11
   5   2   4    0.42    0.11
  -5   2  -4    0.36    0.10
   5  -2   4    0.35    0.12
  -5  -2  -4    0.41    0.11
   5  -2   4    0.28    0.07
  -5   2   4    0.44    0.05
  -5  -2  -4    0.58    0.07
   5   2  -4    0.47    0.11
   5   2  -4    0.56    0.11
  -5  -2   5    1.66    0.11
  -5  -2   5    1.76    0.17
   5   2   5    1.81    0.21
   5   2   5    1.89    0.14
  -5   2  -5    1.58    0.17
   5  -2  -5    1.66    0.12
   5  -2  -5    1.44    0.16
  -5   2  -5    1.44    0.12
  -5  -2  -5    1.70    0.12
   5  -2   5    1.41    0.19
  -5   2   5    1.55    0.11
   5   2  -5    1.67    0.17
  -5  -2  -5    1.72    0.17
   5   2  -5    1.58    0.17
   5   2  -5    1.67    0.12
   5  -2   5    1.59    0.14
  -5   2  -6    3.39    0.24
  -5  -2   6    3.28    0.23
   5  -2  -6    3.64    0.19
  -5  -2   6    3.42    0.18
   5   2   6    3.14    0.28
   5  -2  -6    3.53    0.26
  -5   2  -6    3.41    0.19
   5   2   6    3.46    0.20
   5  -2   6    3.41    0.21
  -5  -2  -6    3.70    0.25
  -5   2   6    3.59    0.18
   5   2  -6    3.71    0.25
  -5  -2  -6    3.58    0.19
   5   2  -6    3.54    0.19
   5   2  -6    3.68    0.25
   5  -2   6    3.06    0.28
  -5   2  -7    3.24    0.24
   5   2   7    3.10    0.29
  -5  -2   7    3.16    0.18
   5  -2  -7    3.13    0.25
   5   2   7    3.16    0.21
  -5  -2   7    3.29    0.24
   5  -2  -7    2.96    0.18
  -5   2  -7    3.27    0.19
  -5  -2  -7    3.09    0.19
   5  -2   7    2.99    0.21
  -5   2   7    3.24    0.18
  -5  -2  -7    3.08    0.23
   5   2  -7    3.28    0.25
   5   2  -7    3.41    0.19
   5  -2   7    2.68    0.26
   5   2  -7    3.48    0.26
  -5  -2   8    1.42    0.14
  -5  -2   8    1.63    0.18
  -5   2  -8    1.40    0.18
   5  -2  -8    1.40    0.14
   5   2   8    1.67    0.16
   5   2   8    1.23    0.22
   5  -2  -8    1.31    0.19
  -5   2  -8    1.26    0.13
  -5  -2  -8    1.61    0.18
   5  -2   8    1.26    0.15
  -5  -2  -8    1.53    0.15
   5   2  -8    1.71    0.20
  -5   2   8    1.36    0.14
   5  -2   8    1.33    0.21
   5   2  -8    1.44    0.14
   5   2  -8    1.62    0.19
  -5   2  -9    1.02    0.16
   5   2   9    0.95    0.22
  -5  -2   9    0.96    0.15
   5  -2  -9    0.89    0.18
   5   2   9    1.18    0.15
  -5   2  -9    1.12    0.14
   5  -2  -9    1.01    0.14
  -5  -2   9    1.01    0.13
   5  -2   9    1.04    0.16
   5   2  -9    1.15    0.14
   5   2  -9    1.01    0.18
  -5  -2  -9    1.22    0.17
  -5  -2  -9    0.91    0.13
   5   2  -9    0.92    0.18
  -5   2   9    0.88    0.12
   5  -2   9    0.95    0.21
  -5   2 -10    1.83    0.21
   5  -2 -10    1.96    0.19
   5  -2 -10    2.11    0.24
  -5  -2  10    2.70    0.24
   5   2  10    2.55    0.23
   5   2  10    2.38    0.29
  -5   2 -10    2.05    0.20
  -5  -2  10    2.25    0.18
   5  -2  10    2.07    0.21
  -5  -2 -10    2.43    0.21
   5   2 -10    2.05    0.23
   5   2 -10    2.44    0.25
  -5  -2 -10    2.30    0.24
  -5   2  10    1.96    0.17
   5   2 -10    2.28    0.20
   5  -2  10    1.93    0.27
   5   2  11    1.97    0.22
  -5  -2 -11    2.01    0.20
   5  -3   0   18.65    0.56
  -5   3   0   17.90    0.68
   5  -3   0   18.19    0.68
  -5  -3   0   17.51    0.63
   5  -3   0   18.76    0.72
  -5   3   0   18.88    0.66
  -5  -3   0   17.57    0.57
   5   3   0   17.42    0.70
   5   3   0   16.54    0.69
   5   3   0   17.43    0.58
  -5   3  -1   35.54    1.14
  -5  -3   1   33.65    1.07
  -5   3  -1   34.08    0.97
  -5  -3   1   33.53    0.99
   5  -3  -1   35.64    1.07
  -5   3  -1   35.09    1.16
   5   3   1   33.17    1.18
   5   3   1   32.15    1.01
   5  -3  -1   34.88    1.18
   5   3   1   33.92    1.18
   5   3  -1   28.24    1.16
   5   3  -1   29.36    1.01
  -5  -3  -1   29.75    1.04
  -5  -3  -1   30.09    0.99
   5  -3   1   31.84    1.00
  -5   3   1   31.44    1.14
   5  -3   1   30.71    1.18
  -5  -3   2   39.66    1.22
  -5   3  -2   40.49    1.22
  -5  -3   2   39.81    1.31
  -5   3  -2   42.32    1.43
   5   3   2   40.21    1.44
   5  -3  -2   42.27    1.43
   5  -3  -2   40.95    1.23
  -5   3  -2   41.16    1.40
   5   3   2   39.73    1.45
   5  -3  -2   41.79    1.31
   5   3   2   39.26    1.26
   5   3  -2   40.07    1.25
  -5  -3  -2   39.68    1.42
  -5  -3  -2   40.99    1.29
   5  -3   2   42.15    1.47
   5  -3   2   42.45    1.25
  -5   3   2   39.51    1.20
  -5   3   2   42.16    1.39
  -5  -3  -2   40.31    1.23
   5   3  -2   37.80    1.42
   5   3   3   44.96    1.63
   5  -3  -3   46.92    1.42
   5   3   3   44.26    1.44
  -5   3  -3   46.69    1.59
   5  -3  -3   47.12    1.51
   5   3   3   44.88    1.66
  -5  -3   3   44.82    1.49
  -5  -3   3   45.56    1.40
  -5   3  -3   44.87    1.40
   5   3  -3   46.30    1.43
   5  -3   3   48.17    1.67
  -5   3   3   50.10    1.58
  -5  -3  -3   46.42    1.62
   5  -3   3   48.70    1.45
  -5  -3  -3   46.94    1.41
   5   3  -3   47.63    1.51
   5   3  -3   44.99    1.62
  -5   3   3   48.03    1.38
  -5  -3  -3   48.88    1.46
   5   3   4   45.37    1.45
   5   3   4   45.43    1.63
   5  -3  -4   46.94    1.42
   5  -3  -4   48.93    1.52
  -5  -3   4   44.92    1.49
  -5  -3   4   46.62    1.41
   5   3   4   44.96    1.66
  -5   3  -4   47.31    1.41
  -5   3  -4   49.00    1.61
   5  -3   4   47.78    1.46
  -5  -3  -4   48.03    1.46
  -5  -3  -4   45.77    1.62
  -5  -3  -4   46.17    1.41
  -5   3   4   47.40    1.39
   5   3  -4   45.18    1.51
   5   3  -4   43.59    1.61
   5   3  -4   46.71    1.44
   5   3   5   33.56    1.23
   5  -3  -5   34.30    1.15
  -5  -3   5   33.95    1.04
  -5  -3   5   33.67    1.12
  -5   3  -5   34.78    1.04
   5   3   5   33.08    1.26
   5  -3  -5   33.88    1.05
  -5   3  -5   34.78    1.20
   5   3   5   34.99    1.08
   5  -3   5   33.70    1.26
  -5  -3  -5   31.89    1.20
   5   3  -5   30.85    1.20
   5  -3   5   33.33    1.08
  -5   3   5   32.90    1.02
   5   3  -5   31.79    1.06
   5   3  -5   32.55    1.13
  -5  -3  -5   31.95    1.04
  -5   3  -6   29.33    1.06
   5   3   6   28.01    1.13
  -5   3  -6   29.75    0.93
   5  -3  -6   28.83    1.03
  -5  -3   6   28.10    0.99
   5   3   6   28.41    0.96
   5  -3  -6   29.47    0.94
  -5  -3   6   28.51    0.92
  -5  -3  -6   28.38    0.92
  -5   3   6   29.17    0.90
   5   3  -6   28.04    1.00
  -5  -3  -6   28.83    1.06
   5   3  -6   28.84    0.94
   5  -3   6   28.82    1.13
   5   3  -6   29.02    1.08
   5  -3   6   28.92    0.96
   5  -3  -7   27.27    1.00
   5   3   7   26.35    0.93
   5   3   7   26.49    1.09
  -5   3  -7   27.29    0.90
  -5  -3   7   26.76    0.97
   5  -3  -7   27.96    0.91
  -5   3  -7   27.50    1.03
  -5  -3  -7   27.79    1.03
   5   3  -7   26.90    0.98
  -5   3   7   28.87    0.88
  -5  -3  -7   28.59    0.90
   5  -3   7   27.17    1.10
   5   3  -7   28.29    1.05
   5  -3   7   27.42    0.94
   5   3   8   22.74    0.95
  -5   3  -8   22.83    0.89
   5   3   8   22.09    0.81
   5  -3  -8   22.97    0.88
  -5   3  -8   23.56    0.77
   5  -3  -8   23.29    0.79
  -5  -3   8   23.29    0.84
   5  -3   8   21.77    0.81
   5  -3   8   21.79    0.95
  -5   3   8   22.48    0.75
  -5  -3  -8   22.52    0.77
  -5  -3  -8   21.87    0.88
   5   3  -8   22.60    0.90
   5   3  -8   21.92    0.85
   5  -3  -9   31.47    1.13
   5  -3  -9   31.29    1.04
  -5   3  -9   32.26    1.02
   5   3   9   31.63    1.07
  -5  -3   9   30.01    1.08
  -5   3  -9   31.39    1.17
   5   3   9   30.56    1.23
  -5  -3   9   29.68    1.00
   5   3  -9   29.91    1.10
   5   3  -9   29.36    1.03
   5  -3   9   29.43    1.22
   5  -3   9   30.21    1.07
   5   3  -9   30.21    1.17
  -5  -3  -9   29.35    1.15
  -5  -3  -9   30.30    1.01
  -5   3   9   31.01    1.00
   5   3  10   27.09    1.15
   5  -3 -10   27.50    1.06
   5  -3 -10   27.72    0.98
  -5   3 -10   27.10    1.10
  -5  -3  10   25.54    1.01
  -5   3  10   28.76    0.94
   5   3 -10   28.62    1.04
   5   3 -10   27.84    1.11
  -5  -3 -10   30.44    0.97
   5  -3  10   29.06    1.17
   5   3 -10   28.19    0.98
  -5  -3 -10   28.49    1.09
  -5  -4   0    0.19    0.08
  -5  -4   0    0.10    0.05
   5   4   0    0.13    0.05
   5  -4   0    0.13    0.04
   5   4   0    0.19    0.10
   5   4   0    0.14    0.10
  -5   4   0    0.14    0.04
   5  -4   0    0.07    0.09
  -5   4   0    0.14    0.09
   5   4   1    0.43    0.11
  -5  -4   1    0.35    0.09
  -5  -4   1    0.38    0.06
   5   4   1    0.39    0.07
   5  -4  -1    0.53    0.10
   5  -4  -1    0.58    0.12
  -5   4  -1    0.45    0.05
   5  -4  -1    0.36    0.05
  -5   4  -1    0.50    0.11
   5   4   1    0.41    0.12
   5   4  -1    0.40    0.07
   5  -4   1    0.40    0.06
  -5   4   1    0.45    0.10
  -5   4   1    0.42    0.05
   5  -4   1    0.50    0.13
   5   4  -1    0.43    0.12
  -5  -4  -1    0.33    0.06
  -5  -4  -1    0.41    0.09
  -5  -4   2    0.48    0.07
   5  -4  -2    0.46    0.11
  -5   4  -2    0.44    0.06
  -5   4  -2    0.50    0.10
   5  -4  -2    0.39    0.05
  -5  -4   2    0.56    0.10
   5   4   2    0.46    0.13
   5   4   2    0.40    0.12
   5   4   2    0.40    0.07
  -5   4  -2    0.36    0.11
  -5   4   2    0.37    0.09
  -5  -4  -2    0.50    0.09
   5  -4   2    0.43    0.07
  -5  -4  -2    0.45    0.07
   5   4  -2    0.49    0.07
   5  -4   2    0.26    0.12
  -5   4   2    0.44    0.05
   5   4  -2    0.60    0.12
   5   4   3    1.08    0.11
   5   4   3    1.03    0.15
   5  -4  -3    1.06    0.09
  -5  -4   3    1.21    0.10
   5   4   3    1.27    0.18
  -5   4  -3    1.06    0.15
  -5  -4   3    1.11    0.13
   5  -4  -3    1.25    0.15
  -5   4  -3    1.06    0.12
  -5   4  -3    1.11    0.10
  -5   4   3    0.93    0.11
  -5  -4  -3    1.16    0.12
   5  -4   3    1.05    0.10
  -5   4   3    0.94    0.08
   5   4  -3    1.13    0.11
   5   4  -3    1.25    0.16
   5  -4   3    1.10    0.17
  -5  -4  -3    1.10    0.10
  -5  -4  -3    1.13    0.14
   5   4   4    3.61    0.29
   5  -4  -4    3.33    0.17
  -5  -4   4    3.87    0.24
  -5   4  -4    3.22    0.25
  -5  -4   4    3.74    0.18
  -5   4  -4    3.67    0.24
   5  -4  -4    3.82    0.26
   5   4   4    3.57    0.26
  -5   4  -4    3.38    0.18
   5   4   4    3.65    0.20
   5   4  -4    3.80    0.19
  -5   4   4    3.65    0.16
  -5  -4  -4    4.29    0.22
  -5  -4  -4    3.62    0.24
   5  -4   4    3.45    0.20
   5   4  -4    3.57    0.24
   5  -4   4    3.26    0.28
  -5  -4  -4    4.03    0.19
   5   4   5    2.88    0.24
   5   4   5    3.03    0.19
   5  -4  -5    2.83    0.16
  -5   4  -5    2.91    0.17
  -5   4  -5    2.66    0.21
   5   4   5    3.02    0.28
  -5   4  -5    2.49    0.23
   5  -4  -5    2.77    0.24
  -5  -4   5    3.04    0.21
  -5  -4   5    3.10    0.17
   5  -4   5    2.81    0.27
  -5  -4  -5    3.14    0.23
  -5   4   5    2.94    0.15
   5   4  -5    3.28    0.23
   5   4  -5    3.06    0.18
   5   4  -5    3.07    0.23
  -5  -4  -5    2.94    0.17
   5  -4   5    2.61    0.19
  -5  -4   6    0.34    0.12
  -5   4  -6    0.42    0.09
  -5  -4   6    0.64    0.10
  -5   4  -6    0.43    0.12
   5   4   6    0.47    0.10
   5   4   6    0.50    0.17
   5  -4  -6    0.33    0.08
   5  -4  -6    0.52    0.15
  -5   4   6    0.41    0.08
   5   4  -6    0.51    0.14
   5  -4   6    0.33    0.14
   5   4  -6    0.50    0.10
  -5  -4  -6    0.51    0.09
   5  -4   6    0.40    0.10
  -5  -4  -6    0.59    0.13
   5   4  -6    0.63    0.14
  -5  -4   7    1.43    0.17
  -5   4  -7    1.18    0.13
   5   4   7    1.13    0.22
   5  -4  -7    1.12    0.12
   5   4   7    1.27    0.15
  -5  -4   7    1.39    0.13
   5  -4  -7    1.30    0.20
  -5   4  -7    1.14    0.16
  -5  -4  -7    1.75    0.19
  -5   4   7    1.24    0.12
   5   4  -7    1.47    0.19
   5   4  -7    1.58    0.19
   5  -4   7    1.22    0.21
   5  -4   7    1.16    0.15
  -5  -4  -7    1.46    0.15
   5   4  -7    1.29    0.14
  -5  -4   8    1.63    0.15
  -5   4  -8    1.32    0.19
  -5  -4   8    2.12    0.21
   5   4   8    1.83    0.18
  -5   4  -8    1.78    0.17
   5  -4  -8    1.53    0.20
   5   4   8    1.85    0.26
   5  -4  -8    1.61    0.16
   5  -4   8    1.40    0.22
   5   4  -8    1.84    0.22
   5   4  -8    1.83    0.21
   5  -4   8    1.58    0.18
  -5   4   8    1.71    0.15
  -5  -4  -8    1.65    0.19
  -5  -4  -8    2.05    0.17
   5   4  -8    1.59    0.16
  -5   4  -9    2.03    0.19
  -5  -4   9    1.98    0.21
   5  -4  -9    2.00    0.19
   5  -4  -9    2.32    0.26
  -5  -4   9    2.09    0.18
  -5   4  -9    1.60    0.21
   5   4   9    2.51    0.29
   5   4   9    2.47    0.23
   5  -4   9    1.80    0.25
  -5  -4  -9    2.17    0.22
   5   4  -9    1.88    0.23
  -5   4   9    1.87    0.17
   5   4  -9    2.21    0.23
   5  -4   9    1.72    0.20
  -5  -4  -9    2.26    0.20
   5   4  -9    2.08    0.19
  -5   4 -10    2.25    0.21
   5   4  10    2.57    0.24
   5  -4  10    1.60    0.26
   5  -4  10    1.94    0.22
  -5  -4 -10    2.24    0.21
  -5   5   0   32.92    0.98
  -5  -5   0   33.33    1.08
   5   5   0   32.86    1.19
  -5  -5   0   32.46    1.01
   5   5   0   31.30    1.04
   5  -5   0   33.05    1.01
  -5   5   0   33.90    1.16
   5   5   0   30.31    1.18
   5   5   1   27.79    0.93
   5   5   1   27.59    1.07
   5   5   1   28.84    1.09
  -5  -5   1   27.78    0.97
  -5   5  -1   30.66    0.88
   5  -5  -1   28.95    0.91
  -5  -5   1   28.95    0.91
  -5   5  -1   30.89    1.07
   5   5  -1   26.08    1.06
   5  -5   1   29.27    0.92
  -5   5   1   29.10    0.88
   5  -5   1   30.31    1.11
  -5  -5  -1   29.05    0.96
  -5  -5  -1   28.94    0.91
   5   5  -1   28.45    0.93
  -5   5   1   29.99    1.05
  -5   5  -2   30.15    1.06
  -5   5  -2   29.77    0.88
   5   5   2   28.70    1.09
   5  -5  -2   31.14    0.99
   5   5   2   28.09    1.07
  -5  -5   2   27.31    0.96
   5   5   2   27.43    0.93
   5  -5  -2   29.35    0.90
  -5  -5   2   28.41    0.90
  -5  -5  -2   27.97    0.95
   5  -5   2   29.79    1.11
   5   5  -2   25.76    1.05
  -5   5   2   30.69    1.03
  -5  -5  -2   26.92    0.90
   5  -5   2   29.98    0.92
  -5   5   2   28.72    0.87
   5   5  -2   26.99    0.92
   5   5   3   28.90    1.16
   5   5   3   27.68    1.19
   5  -5  -3   31.55    1.00
  -5   5  -3   30.98    1.16
  -5   5  -3   33.00    0.98
  -5  -5   3   30.46    0.99
  -5  -5   3   29.64    1.06
   5   5   3   31.18    1.03
   5   5  -3   31.60    1.02
  -5   5   3   33.96    1.13
  -5  -5  -3   32.65    1.04
  -5   5   3   33.56    0.97
   5  -5   3   34.51    1.03
  -5  -5  -3   32.46    1.00
  -5  -5  -3   31.43    1.16
   5  -5   3   33.71    1.22
   5   5  -3   31.51    1.17
  -5  -5   4   38.88    1.30
   5  -5  -4   40.90    1.24
  -5  -5   4   40.21    1.22
   5   5   4   37.67    1.46
   5   5   4   38.54    1.42
   5   5   4   39.08    1.26
  -5   5  -4   42.32    1.22
   5  -5  -4   42.47    1.34
  -5   5  -4   40.44    1.42
  -5   5   4   38.93    1.19
   5   5  -4   37.09    1.41
  -5  -5  -4   37.13    1.26
  -5  -5  -4   38.48    1.22
   5  -5   4   39.69    1.47
  -5  -5  -4   38.95    1.40
   5   5  -4   37.81    1.25
   5  -5   4   40.00    1.26
   5   5   5   34.33    1.26
  -5  -5   5   35.44    1.08
   5  -5  -5   36.50    1.20
  -5   5  -5   35.90    1.23
   5  -5  -5   35.13    1.09
  -5   5  -5   35.91    1.27
   5   5   5   33.71    1.12
  -5   5  -5   37.39    1.08
  -5  -5   5   34.95    1.16
   5  -5   5   33.38    1.30
  -5   5   5   32.98    1.05
   5   5  -5   31.19    1.24
   5   5  -5   32.43    1.10
  -5  -5  -5   32.85    1.11
  -5  -5  -5   32.47    1.08
  -5  -5  -5   31.18    1.23
   5  -5   5   33.29    1.12
  -5   5  -6   28.66    1.07
  -5   5  -6   29.04    0.93
  -5  -5   6   27.92    0.93
   5   5   6   26.52    1.14
  -5  -5   6   27.97    1.00
  -5   5  -6   27.40    1.09
   5  -5  -6   27.85    1.04
   5  -5  -6   28.45    0.95
   5   5   6   28.39    0.97
   5   5  -6   28.15    1.09
   5  -5   6   29.70    1.15
  -5  -5  -6   29.18    0.94
   5  -5   6   29.96    0.98
  -5   5   6   29.79    0.91
  -5  -5  -6   29.14    1.07
   5   5  -6   29.45    0.96
  -5  -5   7   23.11    0.79
   5  -5  -7   23.10    0.80
  -5   5  -7   22.63    0.93
  -5   5  -7   23.60    0.92
   5  -5  -7   22.78    0.90
   5   5   7   22.24    0.98
  -5  -5   7   22.43    0.85
  -5   5  -7   23.83    0.79
   5   5   7   22.98    0.83
   5  -5   7   24.68    0.85
  -5  -5  -7   22.86    0.79
  -5   5   7   24.98    0.78
   5   5  -7   22.15    0.93
  -5  -5  -7   23.35    0.90
   5  -5   7   24.16    1.00
   5   5  -7   23.86    0.82
  -5  -5   8   24.62    0.84
  -5   5  -8   26.18    0.85
  -5   5  -8   25.18    1.00
  -5   5  -8   25.19    0.98
   5   5   8   23.98    0.89
   5  -5  -8   26.24    0.97
  -5  -5   8   25.31    0.92
   5  -5  -8   24.85    0.87
   5  -5   8   24.84    1.06
   5   5  -8   24.14    1.00
   5  -5   8   25.10    0.90
  -5  -5  -8   24.06    0.85
  -5   5   8   25.04    0.83
   5   5  -8   24.35    0.87
  -5  -5  -8   23.44    0.95
  -5   5  -9   25.83    1.04
  -5  -5   9   26.70    0.96
   5  -5  -9   26.51    0.91
   5  -5  -9   27.03    1.02
   5   5   9   24.73    1.08
  -5   5  -9   27.66    0.90
  -5   5  -9   26.85    1.03
  -5  -5  -9   24.32    0.99
   5   5  -9   25.15    1.05
   5   5  -9   24.30    0.96
  -5  -5  -9   25.61    0.89
   5   5  -9   25.20    0.91
  -5   5   9   25.57    0.87
   5  -5   9   24.58    1.09
  -5  -5 -10   26.86    0.94
   5   6   0   -0.01    0.06
  -5  -6   0    0.04    0.06
  -5   6   0   -0.02    0.05
  -5  -6   0    0.07    0.09
  -5   6   0   -0.01    0.08
   5   6   0   -0.02    0.09
   5  -6   0    0.01    0.06
  -5  -6   1    1.04    0.14
   5   6   1    1.05    0.16
   5   6   1    1.00    0.11
   5   6   1    1.18    0.17
   5  -6  -1    0.98    0.10
  -5   6  -1    1.02    0.10
  -5  -6   1    1.02    0.10
  -5   6  -1    1.02    0.14
  -5  -6  -1    0.94    0.10
   5   6  -1    1.08    0.11
   5  -6   1    0.97    0.10
  -5  -6  -1    1.13    0.14
  -5   6   1    1.15    0.10
   5   6  -1    1.06    0.16
  -5   6   1    1.16    0.14
  -5   6  -2    0.31    0.07
   5   6   2    0.22    0.12
   5   6   2    0.32    0.14
  -5  -6   2    0.40    0.11
   5   6   2    0.34    0.09
  -5  -6   2    0.28    0.07
   5  -6  -2    0.30    0.07
  -5   6  -2    0.29    0.11
   5  -6   2    0.19    0.07
   5   6  -2    0.31    0.08
   5  -6   2    0.30    0.13
   5   6  -2    0.30    0.12
  -5  -6  -2    0.40    0.08
  -5   6   2    0.30    0.10
  -5  -6  -2    0.19    0.09
  -5   6   2    0.24    0.06
  -5  -6   3    0.45    0.08
  -5  -6   3    0.45    0.11
  -5   6  -3    0.29    0.12
   5  -6  -3    0.39    0.13
   5   6   3    0.40    0.15
  -5   6  -3    0.29    0.07
   5   6   3    0.36    0.09
   5  -6  -3    0.35    0.08
   5   6   3    0.44    0.13
  -5  -6  -3    0.48    0.13
   5   6  -3    0.42    0.13
   5   6  -3    0.31    0.08
  -5   6   3    0.40    0.07
   5  -6   3    0.40    0.09
  -5  -6  -3    0.49    0.11
  -5   6   3    0.41    0.11
  -5  -6  -3    0.42    0.08
   5  -6   3    0.15    0.14
   5  -6  -4    0.72    0.16
  -5  -6   4    0.94    0.11
   5   6   4    0.77    0.12
   5   6   4    0.93    0.16
  -5   6  -4    0.69    0.15
   5   6   4    1.03    0.19
  -5   6  -4    0.71    0.09
  -5  -6   4    0.82    0.14
   5  -6  -4    0.74    0.10
  -5  -6  -4    1.08    0.13
  -5  -6  -4    1.12    0.16
  -5  -6  -4    0.89    0.11
   5   6  -4    0.84    0.11
  -5   6   4    0.86    0.13
  -5   6   4    0.85    0.09
   5   6  -4    0.66    0.15
   5  -6   4    0.74    0.11
   5  -6   4    0.75    0.18
   5   6   5    1.66    0.23
  -5   6  -5    1.57    0.18
  -5  -6   5    1.69    0.18
  -5  -6   5    1.61    0.14
   5  -6  -5    1.63    0.20
   5   6   5    1.68    0.20
  -5   6  -5    1.51    0.15
   5   6   5    1.59    0.16
   5  -6  -5    1.37    0.14
  -5   6   5    1.79    0.13
   5  -6   5    1.42    0.15
  -5  -6  -5    2.04    0.20
   5  -6   5    1.31    0.20
   5   6  -5    1.74    0.16
   5   6  -5    1.70    0.20
  -5  -6  -5    1.78    0.15
  -5  -6  -5    1.70    0.17
   5  -6  -6    2.64    0.19
   5   6   6    2.87    0.21
   5   6   6    3.00    0.26
  -5  -6   6    2.96    0.24
   5  -6  -6    2.59    0.26
   5   6   6    2.79    0.28
  -5  -6   6    3.05    0.19
  -5   6  -6    2.43    0.25
  -5   6  -6    2.41    0.19
   5  -6   6    2.37    0.27
  -5  -6  -6    2.83    0.19
  -5  -6  -6    3.15    0.24
   5   6  -6    2.85    0.20
   5   6  -6    2.44    0.25
   5  -6   6    2.59    0.21
  -5   6   6    2.78    0.17
  -5   6  -7    1.27    0.19
  -5   6  -7    1.66    0.19
   5   6   7    1.88    0.18
  -5  -6   7    1.98    0.20
  -5   6  -7    1.19    0.14
   5  -6  -7    1.56    0.22
  -5  -6   7    1.74    0.16
   5  -6  -7    1.61    0.16
   5   6   7    1.88    0.26
   5   6  -7    1.47    0.16
   5  -6   7    1.05    0.16
  -5  -6  -7    1.82    0.19
  -5   6   7    1.49    0.15
   5   6  -7    1.81    0.22
   5  -6   7    1.28    0.23
  -5  -6  -7    1.87    0.17
   5  -6  -8    1.61    0.16
   5  -6  -8    1.38    0.23
   5   6   8    1.64    0.18
   5   6   8    2.10    0.27
  -5   6  -8    1.78    0.21
  -5  -6   8    1.94    0.21
  -5   6  -8    1.61    0.16
  -5   6  -8    1.44    0.21
  -5  -6   8    1.86    0.18
   5   6  -8    2.12    0.20
  -5   6   8    1.63    0.16
   5   6  -8    2.19    0.25
   5  -6   8    1.17    0.24
  -5  -6  -8    1.99    0.19
  -5  -6  -8    1.78    0.20
   5  -6   8    1.25    0.18
  -5   6  -9    1.41    0.21
   5   6   9    1.69    0.20
  -5  -6  -9    1.90    0.21
  -5  -6  -9    1.67    0.17
  -5  -7   0   39.44    1.28
   5   7   0   40.32    1.48
  -5  -7   0   40.67    1.34
   5   7   0   38.95    1.31
  -5   7   0   42.76    1.26
  -5   7   0   43.87    1.47
   5  -7   0   41.64    1.30
  -5  -7   1   27.64    0.96
  -5   7  -1   29.30    0.88
   5   7   1   26.76    0.92
   5  -7  -1   27.95    0.91
  -5   7  -1   30.87    1.06
  -5  -7   1   27.69    0.90
   5   7   1   27.39    1.09
   5   7   1   28.03    1.06
  -5   7   1   29.65    1.04
  -5  -7  -1   26.24    0.95
   5   7  -1   25.21    1.05
  -5   7   1   29.24    0.88
  -5  -7  -1   27.34    0.90
   5   7  -1   26.42    0.92
   5  -7   1   28.40    0.92
   5  -7  -2   28.86    0.91
   5   7   2   27.58    0.92
  -5  -7   2   26.00    0.95
   5   7   2   23.93    1.07
  -5   7  -2   28.78    0.87
  -5   7  -2   28.54    1.04
  -5  -7   2   26.50    0.89
   5   7   2   26.60    1.05
  -5  -7  -2   27.34    0.94
   5  -7   2   28.09    0.91
   5   7  -2   26.31    0.91
  -5   7   2   30.19    1.02
  -5   7   2   28.81    0.87
   5   7  -2   26.09    1.04
  -5  -7  -2   27.14    0.89
  -5  -7   3   20.55    0.79
  -5   7  -3   23.55    0.88
  -5  -7   3   21.40    0.73
   5  -7  -3   22.65    0.75
   5   7   3   19.74    0.91
  -5   7  -3   23.07    0.72
   5   7   3   21.27    0.87
   5   7   3   21.98    0.77
  -5  -7  -3   21.78    0.78
  -5  -7  -3   21.47    0.86
  -5   7   3   23.24    0.71
   5   7  -3   21.25    0.76
   5   7  -3   20.33    0.87
  -5  -7  -3   20.93    0.73
   5  -7   3   23.78    0.77
  -5   7   3   24.12    0.85
  -5  -7   4   16.98    0.62
   5  -7  -4   18.35    0.63
   5  -7  -4   18.45    0.72
  -5   7  -4   18.09    0.75
  -5  -7   4   16.98    0.67
   5   7   4   17.93    0.75
   5   7   4   16.70    0.80
   5   7   4   16.84    0.64
  -5   7  -4   20.01    0.62
   5   7  -4   16.77    0.74
   5   7  -4   16.95    0.64
  -5  -7  -4   17.57    0.66
  -5   7   4   18.56    0.60
  -5   7   4   18.91    0.70
  -5  -7  -4   17.30    0.72
  -5  -7  -4   16.93    0.62
   5  -7   4   18.66    0.65
  -5  -7   5   19.54    0.69
   5  -7  -5   20.21    0.70
   5   7   5   19.32    0.88
  -5   7  -5   21.89    0.69
  -5   7  -5   21.08    0.83
   5   7   5   19.52    0.81
  -5  -7   5   20.19    0.75
   5  -7  -5   19.47    0.79
  -5  -7  -5   19.40    0.79
   5   7  -5   19.36    0.71
  -5   7   5   20.23    0.67
  -5  -7  -5   19.17    0.69
  -5  -7  -5   19.17    0.72
   5  -7   5   20.66    0.89
   5  -7   5   20.50    0.73
   5   7  -5   17.48    0.80
   5  -7  -6   27.07    1.03
   5   7   6   25.81    1.12
  -5   7  -6   29.51    0.91
   5   7   6   27.78    0.95
   5  -7  -6   28.08    0.93
   5   7   6   26.57    1.06
  -5  -7   6   27.11    0.91
  -5  -7   6   27.49    0.98
  -5   7  -6   28.48    1.08
  -5  -7  -6   25.95    1.03
   5  -7   6   27.90    1.14
  -5   7   6   27.23    0.89
  -5  -7  -6   26.94    0.95
   5  -7   6   28.91    0.96
  -5  -7  -6   26.83    0.91
   5   7  -6   25.68    1.06
   5   7  -6   26.26    0.94
   5  -7  -7   33.73    1.24
  -5  -7   7   32.64    1.18
   5   7   7   32.62    1.15
  -5   7  -7   33.96    1.29
   5  -7  -7   33.53    1.13
  -5  -7   7   32.44    1.11
  -5   7  -7   35.33    1.11
   5   7  -7   32.81    1.29
   5  -7   7   33.61    1.35
   5   7  -7   34.51    1.15
  -5   7   7   34.26    1.09
  -5  -7  -7   32.90    1.11
  -5  -7  -7   32.85    1.24
   5  -7   7   36.26    1.18
  -5  -7  -8   35.24    1.16
   5   7  -8   35.02    1.20
  -5  -7  -8   34.35    1.29
   5   8   0    0.03    0.09
   5  -8   0    0.15    0.08
   5   8   0   -0.05    0.12
  -5   8   0    0.10    0.10
  -5  -8   0    0.04    0.08
  -5   8   0    0.01    0.06
  -5  -8   0    0.02    0.10
  -5   8  -1    0.27    0.08
   5  -8  -1    0.26    0.09
   5   8   1    0.37    0.10
   5   8   1    0.37    0.14
  -5  -8   1    0.24    0.09
  -5   8  -1    0.36    0.12
  -5  -8   1    0.33    0.12
  -5   8   1    0.27    0.12
  -5  -8  -1    0.34    0.12
   5   8  -1    0.28    0.10
   5   8  -1    0.18    0.14
  -5   8   1    0.28    0.08
   5  -8   1    0.29    0.09
  -5  -8  -1    0.37    0.09
  -5   8  -2    0.11    0.12
   5   8   2    0.25    0.13
   5   8   2    0.17    0.15
   5  -8  -2    0.09    0.08
  -5   8  -2    0.23    0.08
  -5  -8   2    0.19    0.11
   5   8   2    0.18    0.10
  -5  -8   2    0.16    0.08
  -5   8   2    0.08    0.11
  -5  -8  -2    0.09    0.08
   5   8  -2    0.13    0.13
  -5  -8  -2    0.11    0.11
   5   8  -2    0.14    0.09
   5  -8   2    0.11    0.09
  -5   8   2    0.07    0.07
  -5  -8   3    0.46    0.13
   5   8   3    0.27    0.11
  -5  -8   3    0.48    0.10
  -5   8  -3    0.41    0.14
  -5   8  -3    0.44    0.09
   5  -8  -3    0.19    0.09
   5   8   3    0.31    0.17
   5   8   3    0.33    0.14
   5   8  -3    0.54    0.11
  -5  -8  -3    0.33    0.10
  -5   8   3    0.43    0.13
  -5   8   3    0.46    0.09
   5   8  -3    0.47    0.16
  -5  -8  -3    0.38    0.13
   5  -8   3    0.27    0.10
  -5  -8  -3    0.44    0.13
   5   8   4    1.34    0.19
  -5   8  -4    1.14    0.18
  -5  -8   4    1.12    0.13
   5   8   4    1.02    0.22
  -5   8  -4    1.11    0.12
  -5  -8   4    1.07    0.16
   5  -8  -4    0.94    0.13
   5   8   4    1.12    0.15
   5   8  -4    1.29    0.20
   5   8  -4    1.25    0.15
  -5   8   4    1.01    0.11
  -5  -8  -4    0.97    0.16
  -5  -8  -4    1.31    0.14
  -5   8   4    1.04    0.16
   5  -8   4    0.88    0.14
  -5  -8  -4    1.38    0.18
   5  -8  -5    1.13    0.20
   5   8   5    1.23    0.19
   5   8   5    1.26    0.16
  -5   8  -5    0.94    0.13
  -5   8  -5    1.01    0.18
  -5  -8   5    1.38    0.14
  -5  -8   5    1.29    0.18
   5   8   5    1.22    0.24
   5  -8  -5    1.13    0.14
  -5   8   5    0.96    0.12
   5   8  -5    1.34    0.15
  -5  -8  -5    1.45    0.15
  -5  -8  -5    1.21    0.17
   5   8  -5    1.06    0.20
  -5  -8  -5    1.25    0.18
   5  -8   5    1.00    0.16
   5   8   6    1.23    0.19
   5  -8  -6    0.68    0.13
  -5   8  -6    0.87    0.18
  -5  -8   6    1.32    0.18
  -5  -8   6    1.22    0.14
   5   8   6    1.29    0.25
   5  -8  -6    1.15    0.21
   5   8   6    0.89    0.15
  -5   8  -6    0.99    0.14
  -5   8   6    0.82    0.12
   5  -8   6    0.75    0.15
   5   8  -6    1.05    0.15
   5   8  -6    1.25    0.21
  -5  -8  -6    1.24    0.18
  -5  -8  -6    1.08    0.16
  -5  -8  -6    1.30    0.15
   5   8   7    1.05    0.17
  -5  -8   7    1.19    0.15
  -5  -8  -7    1.06    0.16
   5   8  -7    1.07    0.16
   5  -9   0   25.86    0.90
  -5   9   0   27.82    0.87
  -5   9   0   29.23    1.04
  -5  -9   0   26.86    0.89
  -5  -9   0   25.33    0.94
   5   9   0   25.38    0.91
   5   9   0   25.29    1.04
   5  -9  -1   21.95    0.79
   5   9   1   21.09    0.80
  -5   9  -1   22.73    0.90
  -5   9  -1   23.42    0.75
   5   9   1   22.40    0.91
  -5  -9   1   21.31    0.82
  -5   9   1   24.19    0.90
   5   9  -1   21.33    0.91
   5  -9   1   23.15    0.80
  -5  -9  -1   22.17    0.77
  -5  -9  -1   22.68    0.82
  -5   9   1   23.88    0.75
  -5   9  -2   19.26    0.76
   5   9   2   16.99    0.66
  -5   9  -2   19.96    0.63
   5   9   2   14.76    0.79
   5  -9  -2   18.58    0.66
   5   9   2   17.52    0.76
  -5  -9   2   16.96    0.68
  -5  -9   2   17.56    0.64
  -5  -9  -2   17.33    0.68
   5   9  -2   16.38    0.66
  -5  -9  -2   17.25    0.64
   5  -9   2   19.11    0.67
  -5   9   2   19.41    0.75
   5   9  -2   17.33    0.76
  -5   9   2   19.52    0.62
  -5   9  -3   19.11    0.77
   5  -9  -3   19.53    0.67
  -5   9  -3   19.87    0.63
   5   9   3   17.84    0.68
   5   9   3   15.49    0.80
   5   9   3   17.96    0.77
  -5  -9   3   18.64    0.70
  -5  -9  -3   16.62    0.73
   5  -9   3   17.96    0.67
  -5  -9  -3   16.92    0.68
   5   9  -3   16.49    0.67
   5   9  -3   16.20    0.76
  -5   9   3   17.95    0.62
  -5   9   3   18.55    0.74
  -5  -9   4   24.08    0.94
   5  -9  -4   25.84    0.91
   5   9   4   24.23    1.02
   5   9   4   23.34    1.09
  -5   9  -4   28.34    0.88
  -5  -9   4   25.77    0.89
  -5   9  -4   27.51    1.04
  -5  -9  -4   25.91    1.01
  -5   9   4   27.29    0.86
   5  -9   4   27.98    0.93
  -5  -9  -4   24.96    0.93
  -5   9   4   27.53    1.00
   5   9  -4   25.16    1.03
   5   9   5   20.17    0.94
   5   9   5   20.54    0.86
  -5  -9   5   20.51    0.74
   5   9  -5   21.69    0.78
  -5  -9  -5   20.81    0.79
  -5  -9  -5   21.64    0.85
   5  -9  -6   21.05    0.88
   5  10   0    0.23    0.12
  -5 -10   0    0.08    0.10
   5  10   0    0.19    0.15
  -5 -10   1    0.01    0.10
   5  10   1   -0.01    0.13
   5  10   1   -0.02    0.11
   5  10  -1   -0.02    0.10
  -5 -10  -1   -0.01    0.10
   5  10  -1    0.07    0.15
   5  10   2    0.52    0.14
  -5 -10   2    0.39    0.11
   5  10   2    0.43    0.17
  -5 -10  -2    0.51    0.12
   5  10  -2    0.54    0.17
   5  10  -2    0.43    0.12
   5  10   3    0.38    0.13
   5  10   3    0.29    0.15
   5  10   3    0.21    0.20
  -5 -10   3    0.28    0.12
  -5 -10  -3    0.50    0.15
  -5 -10  -3    0.28    0.11
   5  10  -3    0.34    0.12
   6   0   0  121.19    4.08
  -6   0   0  119.77    4.06
  -6   0   0  129.08    3.73
   6   0   0  123.39    4.08
  -6   0  -1  118.38    3.33
   6   0  -1  111.89    3.78
   6   0  -1  115.09    3.48
   6   0   1  113.60    3.80
   6   0   1  111.88    3.40
   6   0   1  113.11    3.79
  -6   0  -1  113.37    3.77
  -6   0   1  116.65    3.47
  -6   0  -2   83.06    2.43
  -6   0  -2   84.94    2.78
   6   0   2   80.68    2.48
   6   0  -2   83.93    2.47
  -6   0   2   85.91    2.56
   6   0   2   81.94    2.81
   6   0  -2   81.54    2.78
   6   0   2   80.68    2.79
   6   0  -2   81.96    2.56
  -6   0  -3   68.15    2.34
  -6   0  -3   67.75    2.04
  -6   0   3   68.82    2.02
   6   0   3   65.96    2.09
  -6   0   3   70.39    2.16
   6   0   3   69.26    2.39
   6   0  -3   70.32    2.18
   6   0  -3   68.53    2.34
   6   0  -3   70.52    2.07
   6   0   3   68.80    2.36
   6   0  -4   49.68    1.74
  -6   0  -4   50.34    1.75
  -6   0   4   49.77    1.62
  -6   0   4   50.96    1.49
   6   0  -4   49.60    1.63
   6   0   4   51.44    1.81
  -6   0  -4   48.90    1.51
   6   0  -4   51.48    1.53
   6   0   4   48.55    1.55
  -6   0  -5   74.35    2.29
   6   0   5   76.21    2.36
  -6   0  -5   76.46    2.60
   6   0   5   76.78    2.67
   6   0  -5   76.40    2.43
  -6   0   5   77.15    2.42
   6   0  -5   78.04    2.33
  -6   0   5   78.52    2.28
  -6   0   6   63.61    2.03
   6   0  -6   61.91    2.04
   6   0  -6   63.33    1.94
  -6   0  -6   63.59    1.92
  -6   0   6   63.25    1.89
  -6   0  -6   63.62    2.18
   6   0   6   61.47    1.97
   6   0   6   64.33    2.26
  -6   0   7   49.44    1.52
   6   0   7   49.23    1.84
   6   0   7   49.13    1.60
   6   0  -7   49.02    1.56
   6   0  -7   50.61    1.67
  -6   0  -7   49.41    1.76
  -6   0   7   50.19    1.65
  -6   0  -7   50.46    1.54
   6   0   8   39.10    1.29
  -6   0  -8   39.24    1.23
  -6   0   8   38.08    1.21
   6   0  -8   38.56    1.24
  -6   0  -8   38.03    1.41
   6   0  -8   37.00    1.34
   6  -1   0    0.72    0.13
   6   1   0    0.80    0.14
  -6  -1   0    0.70    0.11
  -6   1   0    0.89    0.13
   6   1   0    0.71    0.07
  -6  -1   0    0.75    0.07
  -6  -1   0    0.78    0.13
   6   1   0    0.59    0.13
   6  -1   0    0.58    0.14
  -6  -1   1    0.47    0.05
   6   1   1    0.44    0.13
  -6  -1   1    0.51    0.11
   6   1   1    0.48    0.06
   6  -1  -1    0.49    0.11
   6   1   1    0.34    0.12
  -6   1  -1    0.39    0.11
   6  -1  -1    0.52    0.12
  -6   1  -1    0.44    0.04
   6  -1   1    0.47    0.05
  -6  -1  -1    0.74    0.13
   6   1  -1    0.56    0.12
  -6  -1  -1    0.48    0.06
  -6   1   1    0.46    0.10
   6  -1   1    0.35    0.13
   6  -1   1    0.30    0.12
  -6   1   1    0.45    0.11
   6   1  -1    0.50    0.06
   6  -1  -2    0.62    0.12
   6   1   2    0.76    0.16
   6   1   2    0.47    0.13
  -6  -1   2    0.53    0.12
  -6   1  -2    0.63    0.12
  -6  -1   2    0.63    0.06
   6  -1  -2    0.67    0.13
  -6   1  -2    0.65    0.06
   6   1   2    0.61    0.07
  -6  -1  -2    0.67    0.13
   6  -1   2    0.76    0.14
  -6   1   2    0.72    0.12
   6   1  -2    0.83    0.08
  -6  -1  -2    0.74    0.07
   6  -1   2    0.60    0.15
   6   1  -2    0.67    0.12
   6  -1   2    0.67    0.07
   6   1  -2    0.79    0.14
  -6  -1   3    0.35    0.06
   6   1   3    0.26    0.07
   6  -1  -3    0.35    0.11
  -6  -1   3    0.17    0.10
  -6   1  -3    0.22    0.06
   6   1   3    0.26    0.13
   6   1   3    0.17    0.12
  -6   1  -3    0.23    0.10
  -6   1   3    0.46    0.12
  -6  -1  -3    0.38    0.12
   6  -1   3    0.21    0.14
   6  -1   3    0.30    0.07
   6   1  -3    0.39    0.12
  -6  -1  -3    0.36    0.06
   6   1  -3    0.39    0.06
  -6   1   3    0.38    0.05
   6   1  -3    0.40    0.12
  -6   1  -4    2.11    0.20
  -6  -1   4    2.03    0.20
  -6   1  -4    2.03    0.14
   6  -1  -4    2.19    0.21
   6  -1  -4    2.19    0.13
   6   1   4    1.78    0.23
   6   1   4    1.84    0.14
  -6  -1  -4    1.97    0.13
   6   1  -4    2.04    0.21
  -6   1   4    2.12    0.12
   6  -1   4    2.01    0.23
   6   1  -4    2.28    0.20
  -6   1   4    2.14    0.20
  -6  -1  -4    2.11    0.20
   6  -1   4    2.00    0.15
  -6  -1   5    3.91    0.18
   6   1   5    3.90    0.21
   6  -1  -5    4.05    0.28
  -6   1  -5    3.75    0.20
   6   1   5    4.31    0.33
  -6   1  -5    3.69    0.26
   6  -1  -5    3.86    0.19
  -6  -1   5    3.68    0.26
   6  -1   5    3.65    0.21
  -6   1   5    3.72    0.18
   6  -1   5    3.29    0.31
  -6  -1  -5    3.43    0.19
  -6  -1  -5    3.96    0.27
   6   1  -5    3.70    0.26
   6   1  -5    3.99    0.19
   6   1  -5    4.17    0.28
   6   1   6    1.71    0.16
   6   1   6    1.71    0.24
  -6   1  -6    1.53    0.18
  -6  -1   6    1.69    0.13
   6  -1  -6    1.56    0.19
  -6  -1   6    1.68    0.19
   6  -1  -6    1.74    0.14
  -6   1  -6    1.55    0.14
  -6  -1  -6    1.44    0.14
  -6   1   6    1.57    0.13
   6  -1   6    1.34    0.22
   6   1  -6    1.71    0.14
   6   1  -6    1.83    0.20
  -6  -1  -6    1.73    0.19
   6   1  -6    1.57    0.20
   6  -1   6    1.27    0.15
   6  -1  -7    2.13    0.16
   6  -1  -7    1.91    0.22
  -6  -1   7    1.99    0.15
  -6   1  -7    1.84    0.17
   6   1   7    1.90    0.17
  -6  -1   7    2.23    0.22
  -6   1  -7    2.13    0.22
   6   1   7    1.86    0.26
   6   1  -7    2.01    0.16
   6  -1   7    1.95    0.18
   6  -1   7    1.65    0.25
  -6  -1  -7    2.01    0.22
  -6  -1  -7    2.10    0.17
   6   1  -7    2.15    0.23
  -6   1   7    2.02    0.15
   6  -1  -8    2.86    0.27
   6  -1  -8    2.62    0.19
  -6  -1   8    2.83    0.18
  -6   1  -8    2.87    0.21
  -6   1  -8    2.68    0.26
  -6  -1   8    2.77    0.25
   6   1   8    3.05    0.23
   6   1   8    2.84    0.30
   6  -1   8    2.54    0.22
  -6  -1  -8    2.43    0.25
  -6  -1  -8    2.79    0.20
  -6   1   8    2.67    0.18
   6   1  -8    2.86    0.19
   6  -1   8    2.15    0.28
   6   1  -8    3.11    0.28
   6  -2   0   69.25    2.46
  -6   2   0   71.64    2.44
   6   2   0   72.58    2.49
   6   2   0   74.05    2.20
  -6   2   0   74.28    2.45
  -6  -2   0   74.09    2.26
  -6  -2   0   74.01    2.15
   6  -2   0   73.35    2.49
   6  -2  -1   92.09    3.12
  -6  -2   1   96.15    2.74
   6   2   1   95.75    2.80
  -6  -2   1   95.32    2.86
   6   2   1   94.56    3.13
   6   2   1   92.51    3.13
  -6   2  -1   95.45    3.11
  -6   2  -1   93.97    3.09
   6   2  -1   88.18    3.12
   6  -2   1   89.87    3.14
  -6  -2  -1   93.59    2.84
   6   2  -1   93.08    2.79
   6  -2   1   89.31    3.11
  -6   2   1   93.73    3.08
  -6  -2  -1   95.25    2.74
  -6  -2  -1   90.79    3.11
  -6   2  -2   94.86    3.23
   6   2   2   96.53    3.29
  -6  -2   2   98.73    3.00
  -6   2  -2   93.60    2.86
   6  -2  -2   94.57    3.00
  -6  -2   2   96.94    2.86
   6   2   2   94.55    3.28
   6   2   2   97.27    2.93
   6  -2   2   98.96    3.30
   6   2  -2  101.46    2.93
   6  -2   2   99.37    2.93
   6   2  -2   97.68    3.26
  -6  -2  -2  100.16    2.87
  -6  -2  -2   98.54    3.26
  -6   2   2  100.03    2.99
   6   2   3   91.28    3.10
  -6   2  -3   91.12    3.03
   6   2   3   88.16    3.07
  -6   2  -3   89.15    2.68
   6  -2  -3   90.98    2.82
  -6  -2   3   90.83    2.68
   6   2   3   91.61    2.75
  -6  -2   3   91.42    2.81
   6   2  -3   92.77    3.06
   6  -2   3   90.83    2.75
  -6  -2  -3   91.06    2.69
   6   2  -3   93.46    2.74
  -6  -2  -3   92.11    3.05
   6  -2   3   88.54    3.09
   6   2  -3   90.82    2.83
   6   2   4   66.70    2.33
   6  -2  -4   68.90    2.04
  -6  -2   4   68.35    2.01
  -6   2  -4   66.76    2.02
  -6  -2   4   68.22    2.14
  -6   2  -4   66.86    2.29
   6  -2  -4   68.76    2.15
   6   2   4   67.74    2.37
   6   2   4   67.07    2.07
   6   2  -4   66.31    2.31
   6   2  -4   68.67    2.05
  -6   2   4   67.91    1.99
   6  -2   4   67.98    2.08
  -6  -2  -4   67.56    2.31
  -6  -2  -4   65.32    2.02
   6  -2   4   66.81    2.36
   6   2  -4   66.82    2.15
  -6   2  -5   63.34    2.13
   6   2   5   61.51    2.20
  -6   2  -5   61.27    1.87
   6  -2  -5   62.82    1.89
   6   2   5   59.17    1.92
  -6  -2   5   62.15    1.86
   6  -2  -5   62.88    2.00
  -6  -2   5   61.98    1.98
  -6  -2  -5   61.00    2.13
   6  -2   5   61.47    2.20
  -6  -2  -5   61.61    1.87
   6   2  -5   61.62    1.90
  -6   2   5   63.77    1.85
   6   2  -5   61.69    2.14
   6   2  -5   61.50    2.00
   6  -2   5   62.03    1.93
  -6  -2   6   54.08    1.74
   6  -2  -6   53.90    1.65
  -6   2  -6   53.12    1.85
   6  -2  -6   54.50    1.76
  -6   2  -6   52.24    1.62
   6   2   6   52.73    1.94
   6   2   6   52.98    1.68
  -6  -2  -6   51.06    1.85
   6   2  -6   52.26    1.75
  -6  -2  -6   52.44    1.63
  -6   2   6   53.13    1.60
   6   2  -6   53.59    1.87
   6  -2   6   51.43    1.68
   6  -2   6   53.95    1.94
  -6   2  -7   47.07    1.70
   6  -2  -7   46.51    1.61
  -6  -2   7   45.24    1.58
   6  -2  -7   47.74    1.50
   6   2   7   46.48    1.78
  -6   2  -7   49.36    1.49
   6   2   7   46.36    1.54
   6   2  -7   47.55    1.60
   6  -2   7   47.78    1.54
  -6   2   7   48.16    1.46
  -6  -2  -7   48.52    1.49
   6   2  -7   48.46    1.71
  -6  -2  -7   48.70    1.70
   6  -2   7   48.17    1.79
   6   2   8   33.86    1.35
   6  -2  -8   33.44    1.22
  -6   2  -8   35.07    1.28
  -6   2  -8   34.35    1.11
   6  -2  -8   35.20    1.12
  -6  -2   8   33.43    1.08
   6   2   8   34.81    1.16
  -6  -2   8   33.45    1.19
  -6   2   8   34.42    1.08
   6  -2   8   32.41    1.15
   6   2  -8   33.99    1.12
   6   2  -8   32.88    1.21
   6   2  -8   34.11    1.29
   6  -2   8   31.86    1.34
  -6  -2  -8   33.09    1.10
  -6  -2  -8   34.71    1.28
  -6  -3   0    0.43    0.07
   6  -3   0    0.42    0.13
  -6  -3   0    0.41    0.10
   6   3   0    0.43    0.13
  -6   3   0    0.41    0.12
   6   3   0    0.35    0.07
   6  -3  -1    0.25    0.12
  -6  -3   1    0.04    0.10
   6   3   1    0.19    0.07
   6   3   1    0.25    0.13
   6   3   1    0.22    0.12
  -6  -3   1    0.28    0.06
  -6   3  -1    0.20    0.04
  -6   3  -1    0.20    0.11
   6  -3   1    0.29    0.13
   6   3  -1    0.32    0.12
   6   3  -1    0.37    0.07
  -6  -3  -1    0.32    0.10
  -6  -3  -1    0.20    0.06
   6  -3   1    0.22    0.05
  -6   3   1    0.24    0.11
  -6  -3   2    0.09    0.06
  -6   3  -2    0.07    0.05
  -6   3  -2    0.14    0.11
   6   3   2    0.08    0.12
  -6  -3   2    0.01    0.10
   6   3   2    0.03    0.07
   6  -3  -2    0.13    0.10
   6   3   2    0.16    0.13
  -6   3  -2    0.12    0.09
   6   3  -2    0.09    0.06
   6  -3   2    0.04    0.06
  -6  -3  -2    0.12    0.11
  -6  -3  -2    0.08    0.06
  -6  -3  -2    0.14    0.09
   6  -3   2    0.02    0.11
   6   3  -2    0.16    0.11
   6   3   3    1.07    0.11
  -6   3  -3    1.11    0.14
  -6   3  -3    1.04    0.10
   6  -3  -3    1.00    0.15
  -6  -3   3    1.04    0.10
  -6   3  -3    0.89    0.16
   6   3   3    1.24    0.18
  -6  -3   3    0.91    0.15
   6   3   3    1.17    0.19
   6  -3  -3    1.11    0.09
   6   3  -3    1.21    0.11
   6  -3   3    1.02    0.19
   6   3  -3    1.36    0.17
  -6   3   3    1.11    0.08
  -6  -3  -3    1.16    0.17
  -6  -3  -3    1.09    0.10
   6  -3   3    0.91    0.10
   6   3   4    1.59    0.14
  -6  -3   4    1.58    0.17
  -6   3  -4    1.69    0.18
   6   3   4    1.87    0.24
   6  -3  -4    1.45    0.18
   6  -3  -4    1.78    0.11
  -6   3  -4    1.58    0.13
   6   3   4    1.67    0.20
  -6  -3   4    1.75    0.12
   6   3  -4    1.93    0.21
  -6   3   4    1.45    0.10
  -6  -3  -4    1.56    0.13
   6  -3   4    1.37    0.14
   6  -3   4    1.30    0.21
  -6  -3  -4    1.44    0.18
   6   3  -4    1.57    0.13
   6   3  -4    1.57    0.18
  -6  -3   5    1.60    0.18
   6  -3  -5    1.68    0.20
  -6  -3   5    1.63    0.13
  -6   3  -5    1.46    0.14
   6   3   5    1.89    0.24
  -6   3  -5    1.62    0.19
   6  -3  -5    1.59    0.13
   6   3   5    1.60    0.15
   6   3   5    1.65    0.21
   6   3  -5    2.00    0.21
   6   3  -5    2.08    0.15
   6  -3   5    1.61    0.15
  -6  -3  -5    1.91    0.21
  -6  -3  -5    1.91    0.14
  -6   3   5    1.86    0.12
   6  -3   5    1.85    0.24
   6   3  -5    1.92    0.20
   6  -3  -6    2.65    0.17
   6  -3  -6    2.56    0.25
   6   3   6    2.53    0.19
   6   3   6    2.84    0.31
  -6  -3   6    2.81    0.24
  -6   3  -6    2.52    0.17
  -6  -3   6    2.67    0.17
  -6   3  -6    2.41    0.24
   6  -3   6    2.24    0.27
   6   3  -6    2.41    0.18
   6  -3   6    2.65    0.20
   6   3  -6    2.61    0.25
  -6  -3  -6    2.71    0.24
   6   3  -6    3.01    0.25
  -6   3   6    2.58    0.16
  -6  -3  -6    2.76    0.18
   6  -3  -7    2.57    0.19
   6  -3  -7    1.94    0.23
  -6   3  -7    2.63    0.24
  -6  -3   7    2.26    0.17
   6   3   7    2.56    0.30
  -6  -3   7    2.73    0.24
  -6   3  -7    2.41    0.18
   6   3   7    2.70    0.21
  -6  -3  -7    2.60    0.19
   6  -3   7    2.14    0.20
   6   3  -7    2.51    0.19
  -6  -3  -7    2.52    0.24
  -6   3   7    2.17    0.17
   6   3  -7    2.22    0.24
   6   3  -7    2.35    0.24
   6  -3   7    1.84    0.26
  -6   3  -8    4.46    0.33
   6   3   8    5.03    0.29
   6   3  -8    4.96    0.35
  -6  -3  -8    4.42    0.26
   6   3  -9    4.61    0.36
   6  -4   0   67.79    2.13
  -6  -4   0   73.30    2.22
   6   4   0   71.93    2.17
   6  -4   0   69.87    2.45
  -6  -4   0   72.57    2.12
  -6   4   0   69.22    2.08
  -6   4   0   72.08    2.40
  -6  -4   1   77.67    2.40
  -6  -4   1   79.41    2.30
  -6   4  -1   76.28    2.26
   6  -4  -1   75.75    2.31
   6   4   1   76.96    2.63
   6   4   1   77.74    2.34
  -6   4  -1   78.40    2.61
   6  -4   1   76.03    2.32
   6   4  -1   76.69    2.63
  -6  -4  -1   79.45    2.30
  -6   4   1   72.54    2.25
  -6  -4  -1   78.55    2.39
   6   4  -1   78.29    2.35
   6  -4   1   74.03    2.64
  -6   4   1   77.23    2.58
   6  -4  -2   76.84    2.33
   6   4   2   78.52    2.66
  -6  -4   2   79.98    2.42
   6   4   2   80.16    2.67
   6   4   2   78.46    2.37
  -6   4  -2   76.35    2.63
  -6   4  -2   76.03    2.29
  -6  -4   2   77.77    2.31
   6   4  -2   78.40    2.36
   6  -4   2   74.12    2.67
  -6  -4  -2   79.65    2.40
  -6   4   2   76.11    2.27
   6  -4   2   76.58    2.35
  -6  -4  -2   76.49    2.63
  -6  -4  -2   77.02    2.31
   6   4   3   78.87    2.75
   6   4   3   79.13    2.45
   6  -4  -3   79.50    2.52
  -6  -4   3   79.18    2.51
  -6   4  -3   77.63    2.72
  -6   4  -3   79.69    2.38
   6  -4  -3   77.88    2.42
   6   4   3   79.22    2.77
  -6  -4   3   79.93    2.39
  -6   4   3   81.68    2.36
  -6  -4  -3   82.74    2.73
   6  -4   3   81.71    2.45
   6  -4   3   79.46    2.78
  -6  -4  -3   83.42    2.40
   6   4  -3   82.65    2.45
   6   4  -3   80.02    2.74
  -6  -4  -3   81.46    2.47
  -6   4  -4   83.90    2.94
   6   4   4   84.70    3.00
  -6   4  -4   87.97    2.59
   6  -4  -4   87.80    2.73
   6   4   4   84.89    2.66
   6   4   4   87.78    2.97
   6  -4  -4   87.80    2.62
  -6  -4   4   88.02    2.59
  -6  -4   4   87.20    2.72
   6   4  -4   87.49    2.65
  -6  -4  -4   88.74    2.95
   6  -4   4   87.54    2.66
  -6  -4  -4   88.26    2.60
   6  -4   4   86.99    3.01
   6   4  -4   83.90    2.95
  -6   4   4   87.20    2.56
   6  -4  -5   65.65    2.10
  -6   4  -5   65.49    2.26
  -6  -4   5   67.44    2.08
   6   4   5   64.71    2.31
  -6  -4   5   65.03    1.95
  -6   4  -5   65.38    2.22
  -6   4  -5   67.01    1.96
   6  -4  -5   64.78    1.98
   6   4   5   64.93    2.27
   6   4   5   62.72    2.02
  -6  -4  -5   63.15    1.96
   6   4  -5   64.11    2.25
   6  -4   5   61.30    2.30
  -6   4   5   63.55    1.93
   6   4  -5   65.50    2.00
   6  -4   5   63.83    2.02
  -6  -4  -5   63.68    2.24
  -6   4  -6   45.70    1.64
   6   4   6   45.76    1.49
   6   4   6   44.90    1.73
   6  -4  -6   45.56    1.57
   6  -4  -6   45.91    1.46
  -6   4  -6   44.29    1.67
  -6  -4   6   46.24    1.54
  -6  -4   6   45.17    1.43
  -6   4  -6   46.37    1.44
   6   4  -6   46.95    1.68
   6  -4   6   44.72    1.73
  -6  -4  -6   46.28    1.44
   6  -4   6   47.21    1.50
   6   4  -6   47.70    1.47
  -6  -4  -6   48.54    1.66
  -6   4   6   47.14    1.41
  -6   4  -7   31.85    1.05
   6  -4  -7   31.62    1.06
  -6   4  -7   30.46    1.24
  -6  -4   7   31.61    1.04
  -6   4  -7   32.12    1.21
   6  -4  -7   30.79    1.17
   6   4   7   32.70    1.10
  -6  -4   7   32.57    1.14
   6   4  -7   32.89    1.24
  -6   4   7   32.58    1.02
   6   4  -7   32.24    1.16
   6  -4   7   31.93    1.10
   6  -4   7   31.20    1.30
  -6  -4  -7   33.14    1.22
   6   4  -7   33.47    1.07
  -6   4  -8   25.48    1.01
   6   4  -8   25.23    1.04
  -6   5   0    0.08    0.05
   6   5   0    0.00    0.11
  -6   5   0    0.06    0.10
  -6  -5   0    0.02    0.10
   6   5   0    0.04    0.07
   6  -5   0    0.10    0.06
  -6  -5   0    0.05    0.06
  -6  -5   1    0.20    0.11
  -6  -5   1    0.17    0.07
  -6   5  -1    0.24    0.06
   6   5   1    0.23    0.13
   6   5   1    0.21    0.08
   6  -5  -1    0.24    0.06
  -6   5  -1    0.17    0.12
  -6   5   1    0.23    0.05
  -6  -5  -1    0.30    0.11
   6  -5   1    0.18    0.14
  -6  -5  -1    0.23    0.08
   6   5  -1    0.25    0.08
  -6   5   1    0.19    0.11
   6  -5   1    0.19    0.07
   6   5  -1    0.30    0.13
   6   5   2    0.68    0.11
  -6   5  -2    0.63    0.15
   6   5   2    0.85    0.18
  -6  -5   2    0.88    0.14
   6   5   2    0.67    0.15
   6  -5  -2    0.66    0.08
  -6   5  -2    0.67    0.08
  -6  -5   2    0.63    0.09
   6  -5   2    0.72    0.17
  -6   5   2    0.76    0.13
  -6   5   2    0.75    0.07
   6   5  -2    0.79    0.10
   6   5  -2    0.87    0.17
   6  -5   2    0.75    0.09
  -6  -5  -2    0.71    0.10
  -6  -5  -2    0.78    0.13
  -6  -5  -2    0.81    0.15
  -6   5  -3    0.75    0.16
   6   5   3    1.01    0.20
   6   5   3    0.79    0.12
  -6   5  -3    0.65    0.09
   6   5   3    0.82    0.17
   6  -5  -3    0.73    0.09
  -6  -5   3    0.77    0.10
  -6  -5   3    0.81    0.14
   6  -5   3    0.70    0.10
  -6  -5  -3    0.82    0.16
   6   5  -3    0.88    0.11
   6  -5   3    0.73    0.18
  -6  -5  -3    0.82    0.10
   6   5  -3    1.04    0.18
  -6  -5  -3    0.81    0.13
  -6   5   3    0.67    0.08
   6   5   4    1.46    0.23
   6   5   4    1.51    0.20
   6   5   4    1.68    0.17
  -6   5  -4    1.39    0.12
  -6  -5   4    1.74    0.18
   6  -5  -4    1.75    0.20
   6  -5  -4    1.59    0.12
  -6   5  -4    1.38    0.18
  -6  -5   4    1.70    0.14
   6  -5   4    1.01    0.21
   6  -5   4    1.06    0.13
   6   5  -4    1.19    0.19
  -6  -5  -4    1.06    0.12
  -6  -5  -4    1.34    0.19
   6   5  -4    1.27    0.13
  -6   5   4    1.11    0.10
  -6   5  -5    1.12    0.12
  -6   5  -5    1.20    0.18
   6   5   5    1.40    0.15
   6   5   5    1.17    0.23
   6   5   5    1.48    0.21
  -6  -5   5    1.21    0.17
   6  -5  -5    1.10    0.18
  -6  -5   5    1.13    0.12
   6  -5  -5    1.09    0.12
   6  -5   5    1.23    0.22
  -6  -5  -5    1.48    0.14
   6   5  -5    1.59    0.16
   6   5  -5    1.68    0.21
  -6   5   5    1.21    0.12
  -6  -5  -5    1.50    0.19
   6  -5   5    1.32    0.15
   6   5   6    3.38    0.23
   6   5   6    3.29    0.34
  -6   5  -6    3.39    0.29
  -6  -5   6    3.49    0.21
  -6  -5   6    3.44    0.27
   6  -5  -6    3.12    0.29
  -6   5  -6    3.38    0.22
   6  -5  -6    3.07    0.20
   6  -5   6    2.76    0.31
   6   5  -6    3.35    0.29
  -6  -5  -6    3.58    0.21
  -6  -5  -6    3.39    0.28
   6  -5   6    3.02    0.23
  -6   5   6    3.06    0.18
   6   5  -6    3.49    0.22
  -6   5  -7    2.99    0.28
   6  -5  -7    2.81    0.28
   6   5   7    3.32    0.24
   6   5  -7    3.85    0.32
  -6  -5  -7    3.63    0.23
  -6   6   0   84.39    2.89
   6   6   0   84.45    2.63
  -6  -6   0   88.15    2.68
   6   6   0   86.55    2.94
  -6  -6   0   87.65    2.58
  -6   6   0   85.40    2.54
   6  -6   0   85.34    2.61
   6   6   1   69.67    2.41
  -6  -6   1   69.83    2.10
  -6   6  -1   66.63    2.06
  -6  -6   1   70.45    2.20
   6  -6  -1   66.76    2.11
   6   6   1   70.54    2.15
  -6   6  -1   67.75    2.37
  -6   6   1   69.77    2.36
   6  -6   1   66.88    2.12
   6   6  -1   69.85    2.41
   6   6  -1   69.42    2.15
  -6  -6  -1   70.61    2.18
  -6   6   1   69.81    2.06
  -6  -6  -1   73.04    2.10
   6   6   2   68.75    2.35
   6   6   2   67.70    2.37
   6  -6  -2   65.06    2.06
  -6  -6   2   64.09    2.13
   6   6   2   69.76    2.09
  -6  -6   2   69.30    2.04
  -6   6  -2   65.35    2.31
  -6   6  -2   64.80    2.01
   6   6  -2   69.08    2.09
  -6   6   2   66.13    2.00
   6   6  -2   67.11    2.34
   6  -6   2   66.52    2.38
  -6  -6  -2   69.36    2.04
  -6   6   2   68.38    2.29
  -6  -6  -2   67.72    2.12
  -6  -6  -2   68.65    2.33
   6  -6   2   65.23    2.07
  -6  -6   3   58.30    1.94
  -6  -6   3   60.93    1.85
  -6   6  -3   57.85    2.11
  -6   6  -3   59.14    1.83
   6   6   3   61.32    2.15
   6   6   3   62.16    1.91
   6  -6  -3   59.39    1.87
   6   6   3   60.23    2.18
   6  -6   3   59.57    2.18
   6  -6   3   61.01    1.89
  -6  -6  -3   61.47    2.12
  -6   6   3   60.88    1.82
  -6  -6  -3   63.82    1.93
  -6  -6  -3   60.08    1.85
   6   6  -3   62.51    1.90
   6   6  -3   61.67    2.14
   6   6   4   52.32    1.96
  -6   6  -4   53.21    1.63
   6  -6  -4   52.21    1.66
  -6   6  -4   53.39    1.90
   6   6   4   53.44    1.70
   6   6   4   55.18    1.92
  -6  -6   4   53.04    1.74
  -6  -6   4   53.99    1.65
  -6  -6  -4   53.03    1.65
   6   6  -4   52.83    1.69
   6  -6   4   53.40    1.69
  -6   6   4   52.32    1.61
   6  -6   4   52.74    1.97
  -6  -6  -4   53.46    1.89
  -6  -6  -4   55.81    1.71
  -6  -6   5   42.95    1.49
   6   6   5   46.50    1.64
  -6   6  -5   43.67    1.62
   6  -6  -5   44.44    1.53
  -6   6  -5   45.28    1.39
   6  -6  -5   43.46    1.41
  -6  -6   5   45.75    1.40
   6   6   5   43.19    1.69
   6   6   5   45.45    1.45
   6   6  -5   44.71    1.63
   6  -6   5   43.02    1.68
   6   6  -5   45.67    1.44
  -6   6   5   43.62    1.36
  -6  -6  -5   44.15    1.40
   6  -6   5   43.66    1.44
  -6  -6  -5   43.90    1.61
   6  -6  -6   43.08    1.56
   6   6   6   43.28    1.72
  -6  -6  -6   46.10    1.64
  -6  -6  -6   47.06    1.44
   6  -7   0   -0.05    0.08
   6   7   0    0.08    0.14
  -6   7   0    0.07    0.07
  -6  -7   0   -0.03    0.09
  -6  -7   0    0.06    0.11
  -6   7   0    0.01    0.11
   6   7   0   -0.07    0.09
  -6   7  -1    0.28    0.08
  -6  -7   1    0.32    0.13
   6   7   1    0.33    0.15
  -6  -7   1    0.31    0.09
   6  -7  -1    0.32    0.09
   6   7   1    0.45    0.11
  -6   7  -1    0.40    0.14
  -6   7   1    0.34    0.13
  -6   7   1    0.33    0.08
  -6  -7  -1    0.25    0.09
   6  -7   1    0.42    0.10
  -6  -7  -1    0.31    0.12
   6   7  -1    0.34    0.10
   6   7  -1    0.14    0.15
   6   7   2    0.76    0.18
  -6   7  -2    0.43    0.15
  -6  -7   2    0.55    0.10
   6   7   2    0.32    0.11
  -6   7  -2    0.47    0.08
   6  -7  -2    0.45    0.10
  -6  -7   2    0.56    0.14
   6   7  -2    0.52    0.17
  -6  -7  -2    0.44    0.13
  -6   7   2    0.50    0.09
  -6   7   2    0.52    0.14
   6   7  -2    0.49    0.11
   6  -7   2    0.46    0.10
  -6  -7  -2    0.55    0.10
  -6  -7   3    1.64    0.19
  -6  -7   3    1.85    0.16
   6   7   3    1.68    0.17
   6   7   3    1.94    0.23
  -6   7  -3    1.34    0.20
   6   7   3    2.05    0.26
   6  -7  -3    1.55    0.15
  -6   7  -3    1.85    0.16
   6   7  -3    1.76    0.22
  -6   7   3    1.56    0.13
  -6  -7  -3    1.83    0.18
  -6  -7  -3    1.80    0.21
   6  -7   3    1.37    0.15
  -6  -7  -3    1.74    0.16
   6   7  -3    2.05    0.18
   6   7   4    1.98    0.27
  -6  -7   4    2.19    0.17
  -6   7  -4    1.77    0.16
  -6  -7   4    2.16    0.22
  -6   7  -4    1.82    0.21
   6   7   4    2.09    0.24
   6  -7  -4    1.54    0.16
   6   7   4    2.05    0.20
   6  -7   4    1.96    0.20
   6   7  -4    2.23    0.19
   6   7  -4    2.01    0.24
  -6   7   4    1.80    0.15
  -6  -7  -4    1.89    0.18
  -6  -7  -4    2.18    0.24
  -6  -7  -4    2.23    0.21
   6   7   5    1.28    0.25
   6  -7  -6    0.98    0.21
   6   8   0   82.19    2.47
  -6   8   0   76.94    2.70
   6  -8   0   72.67    2.44
   6   8   0   81.91    2.76
  -6  -8   0   77.50    2.49
  -6  -8   0   84.03    2.41
   6   8   1   62.49    2.18
   6   8   1   63.61    1.95
  -6   8  -1   59.01    2.14
   6   8  -1   59.35    1.94
  -6  -8  -1   60.00    1.97
  -6  -8  -1   63.94    1.90
  -6   8   1   60.00    2.12
   6   8   2   51.07    1.65
  -6   8   2   50.22    1.80
  -6  -8  -2   49.50    1.66
  -6  -8  -2   53.16    1.60
  -6  -8  -3   44.41    1.47
   6   8   4   41.45    1.62
  -7   0   0    0.02    0.11
   7   0   0    0.07    0.12
   7   0   1    0.27    0.06
   7   0  -1    0.34    0.14
   7   0   1    0.22    0.13
  -7   0  -1    0.33    0.13
  -7   0   1    0.15    0.11
   7   0   1    0.35    0.15
  -7   0  -1    0.28    0.05
  -7   0   2    0.04    0.12
   7   0  -2    0.08    0.11
  -7   0  -2    0.05    0.11
   7   0   2    0.00    0.13
   7   0   2    0.08    0.12
   7   0  -2    0.08    0.11
   7   0   2    0.08    0.06
  -7   0   2    0.10    0.11
  -7   0  -2    0.03    0.05
  -7   0  -3    0.51    0.14
   7   0  -3    0.57    0.07
  -7   0   3    0.57    0.14
   7   0   3    0.49    0.09
   7   0  -3    0.69    0.15
  -7   0   3    0.59    0.06
   7   0   3    0.58    0.18
  -7   0  -3    0.49    0.08
  -7   0  -4    0.08    0.07
   7   0  -4   -0.08    0.12
  -7   0   4   -0.10    0.11
  -7   0   4    0.06    0.05
   7   0   4   -0.07    0.14
  -7   0  -4   -0.01    0.11
   7   0   4    0.01    0.08
   7   0  -4    0.00    0.05
  -7   0  -5    0.14    0.08
   7   0  -5    0.26    0.14
  -7   0  -5    0.25    0.13
   7   0   5    0.20    0.10
  -7   0   5    0.31    0.14
   7   0   5    0.14    0.17
   7   0  -5    0.26    0.08
   7  -1   0   41.50    1.49
  -7   1   0   40.78    1.46
  -7  -1   0   39.36    1.47
  -7  -1   0   41.77    1.22
   7   1   0   41.23    1.25
  -7  -1   1   47.17    1.49
   7   1   1   44.66    1.39
  -7  -1   1   45.55    1.35
   7   1   1   45.12    1.64
  -7   1  -1   47.02    1.62
  -7  -1   1   44.13    1.61
   7  -1   1   45.40    1.63
   7  -1   1   45.70    1.66
   7   1  -1   42.99    1.63
   7   1  -1   46.51    1.39
  -7  -1  -1   46.14    1.36
  -7  -1  -1   45.47    1.62
  -7  -1   2   38.84    1.15
  -7   1  -2   37.69    1.39
   7   1   2   36.56    1.42
   7   1   2   36.98    1.44
   7   1   2   38.57    1.20
  -7  -1   2   38.20    1.28
  -7   1  -2   37.39    1.16
   7  -1   2   40.05    1.20
   7  -1   2   39.00    1.45
  -7  -1  -2   38.91    1.40
   7   1  -2   37.97    1.41
  -7  -1  -2   39.16    1.17
   7   1  -2   40.11    1.18
  -7   1  -3   32.45    1.19
  -7   1  -3   32.59    0.99
   7   1   3   31.68    1.26
  -7  -1   3   33.78    0.98
   7   1   3   32.07    1.03
   7   1   3   31.21    1.23
  -7  -1   3   33.16    1.11
   7  -1  -3   33.92    1.13
  -7  -1  -3   31.28    0.99
   7  -1   3   30.77    1.25
  -7  -1  -3   31.83    1.20
  -7   1   3   32.56    1.11
   7   1  -3   32.90    1.00
   7   1  -3   32.00    1.12
   7  -1   3   31.65    1.03
   7   1  -3   30.12    1.20
  -7  -1   4   23.38    0.72
   7  -1  -4   24.57    0.87
   7   1   4   23.16    0.99
  -7  -1   4   23.64    0.85
   7   1   4   22.31    0.77
  -7   1  -4   23.29    0.74
  -7   1  -4   23.05    0.90
   7  -1  -4   23.37    0.72
  -7  -1  -4   22.27    0.74
  -7   1   4   22.87    0.84
   7   1  -4   22.91    0.74
  -7   1   4   23.08    0.70
   7  -1   4   21.45    0.97
   7   1  -4   22.33    0.86
   7   1  -4   22.08    0.92
  -7  -1  -4   22.34    0.91
   7  -1   4   23.05    0.78
  -7  -1   5   35.36    1.21
  -7  -1   5   34.86    1.07
   7   1   5   33.01    1.13
   7  -1  -5   35.42    1.09
  -7   1  -5   33.85    1.29
   7  -1  -5   35.31    1.23
   7   1   5   33.45    1.37
   7  -1   5   34.41    1.38
   7   1  -5   35.32    1.10
  -7   1   5   34.66    1.20
   7  -1   5   34.98    1.14
  -7  -1  -5   34.53    1.30
   7   1  -5   35.82    1.23
  -7   1   5   35.16    1.06
  -7  -2   0    0.15    0.13
   7   2   0    0.36    0.14
   7   2   0    0.20    0.07
  -7  -2   0    0.27    0.06
   7   2   1    0.00    0.12
   7   2   1   -0.04    0.06
  -7   2  -1   -0.05    0.11
  -7  -2   1   -0.01    0.05
  -7  -2   1   -0.03    0.10
  -7  -2  -1   -0.02    0.06
  -7  -2  -1    0.01    0.11
   7  -2   1    0.08    0.14
   7   2  -1   -0.02    0.06
   7   2  -1   -0.08    0.11
  -7   2  -2    0.03    0.13
  -7  -2   2    0.18    0.12
  -7   2  -2    0.11    0.06
   7   2   2    0.14    0.07
   7   2   2    0.06    0.13
   7   2   2    0.18    0.15
  -7  -2   2    0.20    0.06
   7   2  -2    0.08    0.12
   7   2  -2    0.30    0.07
  -7  -2  -2    0.21    0.13
   7  -2   2    0.17    0.07
   7  -2   2    0.22    0.16
  -7  -2  -2    0.22    0.07
   7   2   3    0.01    0.07
  -7  -2   3    0.08    0.06
   7   2   3    0.00    0.14
   7   2   3    0.03    0.14
  -7   2  -3    0.06    0.11
  -7   2  -3    0.05    0.06
  -7  -2   3   -0.06    0.11
   7  -2   3    0.14    0.16
   7   2  -3    0.07    0.13
   7  -2   3    0.01    0.07
  -7  -2  -3   -0.02    0.11
  -7  -2  -3    0.04    0.07
   7   2  -3    0.08    0.07
  -7   2  -4    0.09    0.08
   7  -2  -4    0.17    0.06
  -7  -2   4    0.18    0.07
   7   2   4    0.36    0.16
   7  -2  -4    0.30    0.14
   7   2   4    0.12    0.16
  -7  -2   4    0.16    0.13
  -7   2  -4    0.22    0.12
   7   2   4    0.08    0.08
   7   2  -4    0.19    0.13
  -7  -2  -4    0.14    0.08
   7   2  -4    0.26    0.08
   7  -2   4    0.20    0.09
   7  -2   4    0.17    0.17
  -7   2   4    0.24    0.06
  -7  -2  -4    0.23    0.13
  -7   2   4    0.34    0.13
   7   2  -4    0.10    0.13
  -7   2  -5    0.00    0.08
  -7   2  -5    0.15    0.13
  -7  -2   5    0.05    0.07
   7   2   5    0.09    0.17
   7  -2  -5    0.05    0.07
  -7  -2   5    0.06    0.12
   7  -2  -5   -0.05    0.13
   7  -2   5   -0.12    0.08
   7   2  -5   -0.02    0.13
   7   2  -5   -0.05    0.07
  -7   2   5    0.00    0.06
  -7   2   5   -0.04    0.12
  -7  -2  -5    0.03    0.11
   7  -2   5    0.11    0.17
   7   2  -5   -0.09    0.12
   7   2  -6    0.26    0.15
   7  -3   0   23.91    0.95
  -7  -3   0   21.61    0.90
  -7  -3   0   23.64    0.73
   7   3   0   22.65    0.75
   7   3   0   21.13    0.92
  -7  -3   0   23.84    0.82
  -7  -3   1   35.70    1.13
   7   3   1   32.97    1.04
  -7  -3   1   33.49    1.01
   7   3   1   31.21    1.25
  -7   3  -1   35.38    1.23
   7   3  -1   29.61    1.23
   7   3  -1   32.80    1.04
   7  -3   1   32.63    1.27
  -7  -3  -1   30.69    1.22
  -7  -3  -1   32.35    1.01
   7   3   2   36.93    1.47
  -7   3  -2   40.91    1.19
  -7  -3   2   40.21    1.21
  -7  -3   2   40.78    1.33
  -7   3  -2   41.02    1.45
   7   3   2   37.78    1.25
  -7  -3  -2   37.45    1.45
   7  -3   2   41.65    1.51
   7  -3   2   41.47    1.23
  -7  -3  -2   39.28    1.22
   7   3  -2   36.28    1.45
   7   3  -2   40.81    1.24
  -7   3  -3   43.67    1.56
  -7  -3   3   41.88    1.42
  -7  -3   3   42.98    1.30
   7   3   3   41.86    1.59
   7   3   3   41.48    1.57
   7   3   3   39.67    1.34
  -7   3  -3   44.11    1.29
   7   3  -3   40.39    1.55
   7  -3   3   44.03    1.62
  -7  -3  -3   41.54    1.54
   7   3  -3   42.49    1.33
  -7  -3  -3   41.68    1.31
   7  -3   3   45.11    1.34
   7   3   4   37.18    1.47
  -7   3  -4   40.23    1.21
   7   3   4   38.28    1.51
  -7  -3   4   38.73    1.34
   7   3   4   36.87    1.26
  -7  -3   4   38.58    1.21
   7  -3  -4   39.28    1.21
   7  -3  -4   40.72    1.35
  -7  -3  -4   38.26    1.22
  -7   3   4   41.45    1.18
  -7  -3  -4   39.31    1.45
   7  -3   4   40.17    1.53
   7   3  -4   39.80    1.24
   7   3  -4   38.13    1.46
   7  -3   4   40.70    1.26
   7  -3  -5   31.85    1.01
   7   3   5   30.87    1.29
   7  -3  -5   33.45    1.15
  -7   3  -5   31.51    1.19
   7   3  -5   30.85    1.22
  -7   3   5   31.78    0.98
   7  -4   0    0.10    0.05
  -7  -4   0    0.09    0.11
   7   4   0    0.05    0.13
   7   4   0    0.03    0.08
   7  -4   0    0.05    0.13
  -7  -4   0    0.21    0.08
  -7   4   0    0.18    0.13
   7   4   1    0.15    0.08
  -7  -4   1    0.10    0.11
  -7   4  -1    0.00    0.12
  -7   4  -1    0.09    0.05
  -7  -4   1    0.07    0.07
   7   4   1    0.14    0.14
  -7  -4  -1    0.09    0.07
   7   4  -1    0.10    0.14
   7  -4   1    0.24    0.16
   7  -4   1    0.11    0.06
   7   4  -1    0.09    0.08
  -7  -4  -1    0.12    0.11
  -7  -4  -1    0.15    0.14
   7   4   2   -0.10    0.13
  -7  -4   2    0.03    0.07
  -7  -4   2   -0.05    0.11
   7   4   2    0.04    0.08
  -7   4  -2   -0.07    0.05
  -7   4  -2   -0.10    0.12
   7  -4   2    0.10    0.15
  -7  -4  -2   -0.01    0.07
  -7  -4  -2   -0.04    0.12
   7  -4   2    0.01    0.07
   7   4  -2   -0.06    0.07
   7   4  -2   -0.10    0.13
   7  -4  -3    0.00    0.06
   7   4   3   -0.09    0.15
   7   4   3   -0.08    0.13
  -7  -4   3   -0.05    0.12
  -7  -4   3    0.03    0.07
  -7   4  -3    0.01    0.06
   7   4   3    0.01    0.08
  -7   4  -3   -0.12    0.12
   7   4  -3    0.04    0.14
  -7  -4  -3    0.06    0.13
   7   4  -3    0.06    0.08
  -7   4   3    0.04    0.05
  -7  -4  -3   -0.03    0.08
   7  -4   3    0.08    0.08
   7  -4   3    0.10    0.16
   7   4   4    0.30    0.19
   7  -4  -4    0.26    0.07
   7   4  -4    0.03    0.15
  -7   4   4    0.14    0.07
   7  -4  -5    0.19    0.15
  -7  -5   0   35.70    1.23
  -7   5   0   37.89    1.10
  -7   5   0   37.38    1.34
   7   5   0   33.02    1.37
   7  -5   0   37.18    1.13
   7  -5  -1   31.56    1.00
  -7  -5   1   30.83    1.11
  -7   5  -1   31.61    1.21
  -7   5  -1   31.89    0.97
   7  -5   1   32.61    1.27
   7  -5   1   32.49    1.01
  -7  -5  -1   32.90    1.10
   7  -5  -2   31.78    0.99
  -7  -5   2   30.05    1.09
  -7   5  -2   30.91    1.20
  -7   5  -2   32.75    0.97
  -7   5   2   31.50    0.95
   7  -5   2   30.78    1.00
   7  -5   2   31.35    1.26
  -7   5   3   32.48    0.99
   7   5   4   34.89    1.40
  -7   6   0    0.14    0.13
  -7  -6  -1    0.30    0.13
  -7  -6  -2    0.05    0.12
;
_shelx_hkl_checksum              53003
loop_
_space_group_symop_id
_space_group_symop_operation_xyz
1 +X,+Y,+Z
2 -X,-Y,+Z
3 1/2+X,1/2-Y,-Z
4 1/2-X,1/2+Y,-Z
loop_
_atom_site_label
_atom_site_type_symbol
_atom_site_fract_x
_atom_site_fract_y
_atom_site_fract_z
_atom_site_U_iso_or_equiv
_atom_site_adp_type
_atom_site_occupancy
_atom_site_site_symmetry_order
_atom_site_calc_flag
_atom_site_refinement_flags_posn
_atom_site_refinement_flags_adp
_atom_site_refinement_flags_occupancy
Pt1 Pt 0.0000 0.0000 1.00183(2) 0.01151(5) Uani 1 2 d S T P
I1 I 0.46844(14) -0.0012(3) 1.02459(3) 0.01240(17) Uani 0.5 1 d . . P
N1 N -0.0101(7) -0.2256(2) 1.2027(2) 0.0194(4) Uani 1 1 d . . .
N2 N 0.0068(12) 0.1377(2) 0.8536(2) 0.0156(4) Uani 1 1 d . . .
H2A H -0.1315 0.1765 0.8458 0.019 Uiso 1 1 calc R U .
H2B H 0.1113 0.2013 0.8690 0.019 Uiso 1 1 calc R U .
C1 C -0.0059(13) -0.1405(2) 1.1310(3) 0.0159(5) Uani 1 1 d . . .
C2 C 0.0678(4) 0.0656(3) 0.7356(3) 0.0163(6) Uani 1 1 d . . .
H2 H 0.2337 0.0442 0.7378 0.020 Uiso 1 1 calc R U .
C3 C 0.0201(9) 0.1481(3) 0.6194(3) 0.0230(6) Uani 1 1 d . . .
H3A H 0.1172 0.2276 0.6197 0.028 Uiso 1 1 calc R U .
H3B H -0.1408 0.1767 0.6190 0.028 Uiso 1 1 calc R U .
C4 C 0.0701(7) 0.0653(5) 0.5025(3) 0.0317(9) Uani 1 1 d . . .
H4A H 0.2343 0.0445 0.4989 0.038 Uiso 1 1 calc R U .
H4B H 0.0309 0.1174 0.4289 0.038 Uiso 1 1 calc R U .
loop_
_atom_site_aniso_label
_atom_site_aniso_U_11
_atom_site_aniso_U_22
_atom_site_aniso_U_33
_atom_site_aniso_U_23
_atom_site_aniso_U_13
_atom_site_aniso_U_12
Pt1 0.00738(7) 0.00829(8) 0.01885(8) 0.000 0.000 0.00012(7)
I1 0.0089(5) 0.01306(16) 0.01524(12) 0.0044(6) -0.00034(11) 0.0006(7)
N1 0.0186(10) 0.0156(9) 0.0240(11) -0.0010(8) 0.002(2) -0.0006(16)
N2 0.0148(10) 0.0117(9) 0.0203(10) 0.0019(7) -0.001(2) -0.003(2)
C1 0.0103(10) 0.0125(10) 0.0249(12) -0.0028(9) 0.001(3) 0.000(2)
C2 0.0145(12) 0.0145(13) 0.0200(16) 0.0004(12) 0.0005(8) -0.0003(9)
C3 0.0257(17) 0.0206(12) 0.0227(13) 0.0052(10) -0.0012(19) -0.0030(16)
C4 0.037(2) 0.035(2) 0.022(2) 0.0055(13) 0.0018(10) -0.0013(16)
loop_
_atom_type_symbol
_atom_type_description
_atom_type_scat_dispersion_real
_atom_type_scat_dispersion_imag
_atom_type_scat_source
C C 0.0033 0.0016
;
International Tables for Crystallography
(Vol. C, Tables 4.2.6.8 and 6.1.1.4)
;
H H 0.0000 0.0000
;
International Tables for Crystallography
(Vol. C, Table 6.1.1.4)
;
I I -0.4742 1.8119
;
International Tables for Crystallography
(Vol. C, Tables 4.2.6.8 and 6.1.1.4)
;
N N 0.0061 0.0033
;
International Tables for Crystallography
(Vol. C, Tables 4.2.6.8 and 6.1.1.4)
;
Pt Pt -1.7033 8.3905
;
International Tables for Crystallography
(Vol. C, Tables 4.2.6.8 and 6.1.1.4)
;
loop_
_geom_angle_atom_site_label_1
_geom_angle_atom_site_label_2
_geom_angle_atom_site_label_3
_geom_angle
_geom_angle_site_symmetry_1
_geom_angle_site_symmetry_3
C1 Pt1 C1 90.77(15) 2 .
C1 Pt1 N2 175.50(8) 2 2
C1 Pt1 N2 93.73(10) . 2
C1 Pt1 N2 93.73(10) 2 .
C1 Pt1 N2 175.50(8) . .
N2 Pt1 N2 81.77(11) 2 .
C1 Pt1 I1 87.2(2) 2 2
C1 Pt1 I1 85.6(2) . 2
N2 Pt1 I1 93.00(19) 2 2
N2 Pt1 I1 94.79(19) . 2
C1 Pt1 I1 85.6(2) 2 .
C1 Pt1 I1 87.2(2) . .
N2 Pt1 I1 94.79(19) 2 .
N2 Pt1 I1 93.00(19) . .
I1 Pt1 I1 169.687(14) 2 .
C1 Pt1 I1 85.7(2) 2 2_655
C1 Pt1 I1 88.0(2) . 2_655
N2 Pt1 I1 94.65(19) 2 2_655
N2 Pt1 I1 92.22(19) . 2_655
I1 Pt1 I1 170.284(13) 2 2_655
I1 Pt1 I1 0.78(7) . 2_655
C1 Pt1 I1 88.0(2) 2 1_455
C1 Pt1 I1 85.7(2) . 1_455
N2 Pt1 I1 92.22(19) 2 1_455
N2 Pt1 I1 94.65(19) . 1_455
I1 Pt1 I1 0.78(8) 2 1_455
I1 Pt1 I1 170.284(13) . 1_455
I1 Pt1 I1 170.906(13) 2_655 1_455
I1 I1 Pt1 173.4(6) 2_655 .
I1 I1 Pt1 5.8(6) 2_655 1_655
Pt1 I1 Pt1 170.284(13) . 1_655
C2 N2 Pt1 109.17(16) . .
C2 N2 H2A 109.8 . .
Pt1 N2 H2A 109.8 . .
C2 N2 H2B 109.8 . .
Pt1 N2 H2B 109.8 . .
H2A N2 H2B 108.3 . .
N1 C1 Pt1 177.5(2) . .
N2 C2 C3 112.9(2) . .
N2 C2 C2 107.0(2) . 2
C3 C2 C2 111.9(2) . 2
N2 C2 H2 108.3 . .
C3 C2 H2 108.3 . .
C2 C2 H2 108.3 2 .
C2 C3 C4 110.2(3) . .
C2 C3 H3A 109.6 . .
C4 C3 H3A 109.6 . .
C2 C3 H3B 109.6 . .
C4 C3 H3B 109.6 . .
H3A C3 H3B 108.1 . .
C3 C4 C4 111.1(3) . 2
C3 C4 H4A 109.4 . .
C4 C4 H4A 109.4 2 .
C3 C4 H4B 109.4 . .
C4 C4 H4B 109.4 2 .
H4A C4 H4B 108.0 . .
loop_
_geom_bond_atom_site_label_1
_geom_bond_atom_site_label_2
_geom_bond_distance
_geom_bond_site_symmetry_2
Pt1 C1 1.969(3) 2
Pt1 C1 1.969(3) .
Pt1 N2 2.099(2) 2
Pt1 N2 2.099(2) .
Pt1 I1 2.7106(8) 2
Pt1 I1 2.7106(8) .
Pt1 I1 3.0732(8) 2_655
Pt1 I1 3.0732(8) 1_455
I1 I1 0.3647(17) 2_655
I1 Pt1 3.0731(8) 1_655
N1 C1 1.145(3) .
N2 C2 1.496(4) .
N2 H2A 0.8900 .
N2 H2B 0.8900 .
C2 C3 1.517(4) .
C2 C2 1.523(5) 2
C2 H2 0.9800 .
C3 C4 1.527(5) .
C3 H3A 0.9700 .
C3 H3B 0.9700 .
C4 C4 1.533(9) 2
C4 H4A 0.9700 .
C4 H4B 0.9700 .
loop_
_geom_torsion_atom_site_label_1
_geom_torsion_atom_site_label_2
_geom_torsion_atom_site_label_3
_geom_torsion_atom_site_label_4
_geom_torsion
_geom_torsion_site_symmetry_1
_geom_torsion_site_symmetry_4
Pt1 N2 C2 C3 165.9(3) . .
Pt1 N2 C2 C2 42.4(4) . 2
N2 C2 C3 C4 -176.1(4) . .
C2 C2 C3 C4 -55.3(4) 2 .
C2 C3 C4 C4 56.0(5) . 2
