#------------------------------------------------------------------------------
#$Date: 2019-11-23 09:01:10 +0200 (Sat, 23 Nov 2019) $
#$Revision: 232625 $
#$URL: file:///home/coder/svn-repositories/cod/cif/4/34/79/4347994.cif $
#------------------------------------------------------------------------------
#
# This file is available in the Crystallography Open Database (COD),
# http://www.crystallography.net/
#
# All data on this site have been placed in the public domain by the
# contributors.
#
data_4347994
loop_
_publ_author_name
'Dolgopolova, Ekaterina A.'
'Rice, Allison M.'
'Smith, Mark D.'
'Shustova, Natalia B.'
_publ_section_title
;
 Photophysics, Dynamics, and Energy Transfer in Rigid Mimics of GFP-based
 Systems.
;
_journal_issue                   15
_journal_name_full               'Inorganic chemistry'
_journal_page_first              7257
_journal_page_last               7264
_journal_paper_doi               10.1021/acs.inorgchem.6b00835
_journal_volume                  55
_journal_year                    2016
_chemical_formula_moiety         'C12 H12 N2 O3'
_chemical_formula_sum            'C12 H12 N2 O3'
_chemical_formula_weight         232.24
_space_group_crystal_system      triclinic
_space_group_IT_number           2
_space_group_name_Hall           '-P 1'
_space_group_name_H-M_alt        'P -1'
_atom_sites_solution_hydrogens   mixed
_audit_creation_date             2016-01-28
_audit_creation_method
;
Olex2 1.2
(compiled 2015.09.30 svn.r3233 for OlexSys, GUI svn.r5103)
;
_cell_angle_alpha                79.6940(10)
_cell_angle_beta                 78.5020(10)
_cell_angle_gamma                78.2650(10)
_cell_formula_units_Z            2
_cell_length_a                   7.0858(2)
_cell_length_b                   7.1022(2)
_cell_length_c                   11.1505(4)
_cell_measurement_reflns_used    9911
_cell_measurement_temperature    100(2)
_cell_measurement_theta_max      28.32
_cell_measurement_theta_min      2.96
_cell_volume                     532.76(3)
_computing_cell_refinement       'SAINT v8.34A (Bruker, 2013)'
_computing_data_collection       'Bruker APEXII v2014.9-0 (Bruker, 2014)'
_computing_data_reduction        'SAINT v8.34A (Bruker, 2013)'
_computing_molecular_graphics    'Olex2 (Dolomanov et al., 2009)'
_computing_publication_material  'Olex2 (Dolomanov et al., 2009)'
_computing_structure_refinement  'XL (Sheldrick, 2008)'
_computing_structure_solution    'XT (Sheldrick, 2015)'
_diffrn_ambient_temperature      100(2)
_diffrn_detector                 'Bruker PHOTON-100 area detector'
_diffrn_detector_area_resol_mean 10.4
_diffrn_detector_type            'CMOS area detector'
_diffrn_measured_fraction_theta_full 0.998
_diffrn_measured_fraction_theta_max 0.998
_diffrn_measurement_device       'three-circle diffractometer'
_diffrn_measurement_device_type  'Bruker D8 Quest'
_diffrn_measurement_method       '\w and \f scans'
_diffrn_radiation_monochromator  'mirror optics'
_diffrn_radiation_probe          x-ray
_diffrn_radiation_type           MoK\a
_diffrn_radiation_wavelength     0.71073
_diffrn_reflns_av_R_equivalents  0.0276
_diffrn_reflns_av_unetI/netI     0.0126
_diffrn_reflns_Laue_measured_fraction_full 0.998
_diffrn_reflns_Laue_measured_fraction_max 0.998
_diffrn_reflns_limit_h_max       9
_diffrn_reflns_limit_h_min       -9
_diffrn_reflns_limit_k_max       9
_diffrn_reflns_limit_k_min       -9
_diffrn_reflns_limit_l_max       14
_diffrn_reflns_limit_l_min       -14
_diffrn_reflns_number            31101
_diffrn_reflns_point_group_measured_fraction_full 0.998
_diffrn_reflns_point_group_measured_fraction_max 0.998
_diffrn_reflns_theta_full        28.320
_diffrn_reflns_theta_max         28.321
_diffrn_reflns_theta_min         2.960
_diffrn_source                   'microfocus sealed X-ray tube'
_diffrn_source_type              'Incoatec I\ms'
_exptl_absorpt_coefficient_mu    0.106
_exptl_absorpt_correction_T_max  0.1876
_exptl_absorpt_correction_T_min  0.1614
_exptl_absorpt_correction_type   multi-scan
_exptl_absorpt_process_details
;
SADABS-2014/4 (Bruker,2014/4) was used for absorption correction.
wR2(int) was 0.1038 before and 0.0388 after correction.
The Ratio of minimum to maximum transmission is 0.8603.
The \l/2 correction factor is 0.00150.
;
_exptl_crystal_colour            yellow
_exptl_crystal_colour_primary    yellow
_exptl_crystal_density_diffrn    1.448
_exptl_crystal_description       plate
_exptl_crystal_F_000             244
_exptl_crystal_size_max          0.22
_exptl_crystal_size_mid          0.16
_exptl_crystal_size_min          0.03
_refine_diff_density_max         0.402
_refine_diff_density_min         -0.178
_refine_diff_density_rms         0.047
_refine_ls_extinction_coef       0.021(4)
_refine_ls_extinction_expression Fc^*^=kFc[1+0.001xFc^2^\l^3^/sin(2\q)]^-1/4^
_refine_ls_extinction_method     'SHELXL-2014/7 (Sheldrick 2014'
_refine_ls_goodness_of_fit_ref   1.046
_refine_ls_hydrogen_treatment    mixed
_refine_ls_matrix_type           full
_refine_ls_number_parameters     181
_refine_ls_number_reflns         2646
_refine_ls_number_restraints     0
_refine_ls_restrained_S_all      1.046
_refine_ls_R_factor_all          0.0389
_refine_ls_R_factor_gt           0.0326
_refine_ls_shift/su_max          0.000
_refine_ls_shift/su_mean         0.000
_refine_ls_structure_factor_coef Fsqd
_refine_ls_weighting_details
'w=1/[\s^2^(Fo^2^)+(0.0532P)^2^+0.1498P] where P=(Fo^2^+2Fc^2^)/3'
_refine_ls_weighting_scheme      calc
_refine_ls_wR_factor_gt          0.0884
_refine_ls_wR_factor_ref         0.0928
_reflns_Friedel_coverage         0.000
_reflns_number_gt                2323
_reflns_number_total             2646
_reflns_threshold_expression     'I > 2\s(I)'
_cod_data_source_file            ic6b00835_si_012.cif
_cod_data_source_block           ead2ohoh_0m
_cod_database_code               4347994
_shelx_space_group_comment
;
The symmetry employed for this shelxl refinement is uniquely defined
by the following loop, which should always be used as a source of
symmetry information in preference to the above space-group names.
They are only intended as comments.
;
_shelx_estimated_absorpt_t_max   0.997
_shelx_estimated_absorpt_t_min   0.977
_olex2_refinement_description
;
1. Fixed Uiso
 At 1.5 times of:
  All C(H,H,H) groups
2.a Idealised Me refined as rotating group:
 C4(H4A,H4B,H4C), C5(H5A,H5B,H5C)
;
_shelx_res_file
;
    ead2ohoh_0m.res created by SHELXL-2014/7

TITL ead2ohoh_0m_a.res in P-1
REM Old TITL EAD2OHOH_0m in P-1 #2
REM SHELXT solution in P-1
REM R1 0.097, Rweak 0.005, Alpha 0.052, Orientation as input
REM Formula found by SHELXT: C12 N2 O3
CELL 0.71073 7.0858 7.1022 11.1505 79.694 78.502 78.265
ZERR 2 0.0002 0.0002 0.0004 0.001 0.001 0.001
LATT 1
SFAC C H N O
UNIT 24 24 4 6
EQIV $1 -X,2-Y,1-Z

L.S. 7
PLAN  9
SIZE 0.03 0.16 0.22
TEMP -173.15
HTAB O2 N2
HTAB O3 O1_$1
BOND $H
fmap 2
MORE -1
ACTA 56.64
CONF
REM <olex2.extras>
REM <HklSrc "%.\\EAD2OHOH_0m.hkl">
REM </olex2.extras>

WGHT    0.053200    0.149800
EXTI    0.021146
FVAR       0.75009
O1    4   -0.044740    0.659020    0.785911    11.00000    0.02128    0.01388 =
         0.01889   -0.00481   -0.00232   -0.00162
O2    4    0.395814    0.308694    0.382135    11.00000    0.02842    0.01153 =
         0.01949   -0.00205    0.00199    0.00006
H2    2    0.339322    0.287548    0.470143    11.00000    0.05155
O3    4    0.345829    1.063445    0.140741    11.00000    0.02243    0.01536 =
         0.01813    0.00289    0.00108    0.00052
H3    2    0.262226    1.148722    0.184821    11.00000    0.04680
N1    3    0.064969    0.326260    0.802269    11.00000    0.01607    0.01265 =
         0.01364   -0.00080   -0.00244   -0.00282
N2    3    0.229862    0.294597    0.611692    11.00000    0.01511    0.01171 =
         0.01715   -0.00106   -0.00253   -0.00204
C1    1    0.043750    0.513957    0.740653    11.00000    0.01454    0.01403 =
         0.01522   -0.00168   -0.00453   -0.00372
C2    1    0.153201    0.492375    0.615298    11.00000    0.01304    0.01349 =
         0.01503   -0.00305   -0.00286   -0.00220
C3    1    0.177031    0.203298    0.721347    11.00000    0.01324    0.01381 =
         0.01723   -0.00252   -0.00345   -0.00236
C4    1    0.226775   -0.008588    0.760820    11.00000    0.01974    0.01245 =
         0.02263   -0.00002   -0.00308   -0.00180
AFIX 137
H4A   2    0.287507   -0.032122    0.834997    11.00000   -1.50000
H4B   2    0.318300   -0.068418    0.694289    11.00000   -1.50000
H4C   2    0.107448   -0.065485    0.779306    11.00000   -1.50000
AFIX   0
C5    1   -0.011670    0.271586    0.932256    11.00000    0.02267    0.01874 =
         0.01320    0.00001   -0.00205   -0.00484
AFIX 137
H5A   2    0.096681    0.232062    0.979071    11.00000   -1.50000
H5B   2   -0.081924    0.163112    0.941073    11.00000   -1.50000
H5C   2   -0.101383    0.382761    0.964175    11.00000   -1.50000
AFIX   0
C6    1    0.175179    0.644032    0.524250    11.00000    0.01385    0.01252 =
         0.01584   -0.00279   -0.00321   -0.00158
H6    2    0.109904    0.771003    0.547656    11.00000    0.02145
C7    1    0.276605    0.655803    0.396987    11.00000    0.01292    0.01387 =
         0.01568   -0.00185   -0.00356   -0.00207
C8    1    0.377710    0.498420    0.334075    11.00000    0.01459    0.01383 =
         0.01771   -0.00140   -0.00287   -0.00157
C9    1    0.466732    0.537845    0.210154    11.00000    0.01659    0.01709 =
         0.01776   -0.00433   -0.00087   -0.00046
H9    2    0.536778    0.426620    0.166770    11.00000    0.02279
C10   1    0.456194    0.724992    0.147640    11.00000    0.01519    0.02010 =
         0.01479   -0.00115   -0.00055   -0.00214
H10   2    0.516826    0.749276    0.061456    11.00000    0.02555
C11   1    0.354646    0.881381    0.208261    11.00000    0.01372    0.01487 =
         0.01719    0.00110   -0.00330   -0.00208
C12   1    0.268994    0.846486    0.330566    11.00000    0.01458    0.01372 =
         0.01628   -0.00159   -0.00281   -0.00126
H12   2    0.200908    0.958337    0.374987    11.00000    0.02202
HKLF 4

REM  ead2ohoh_0m_a.res in P-1
REM R1 =  0.0326 for    2323 Fo > 4sig(Fo)  and  0.0389 for all    2646 data
REM    181 parameters refined using      0 restraints

END

WGHT      0.0532      0.1498

REM Highest difference peak  0.402,  deepest hole -0.178,  1-sigma level  0.047
Q1    1   0.0999  0.5099  0.6759  11.00000  0.05    0.40
Q2    1   0.3171  0.8617  0.2753  11.00000  0.05    0.37
Q3    1   0.2237  0.6418  0.4619  11.00000  0.05    0.37
Q4    1   0.4317  0.5210  0.2757  11.00000  0.05    0.34
Q5    1   0.2874  0.7489  0.3651  11.00000  0.05    0.34
Q6    1   0.3960  0.8012  0.1811  11.00000  0.05    0.33
Q7    1   0.3345  0.5750  0.3751  11.00000  0.05    0.30
Q8    1   0.1656  0.5528  0.5624  11.00000  0.05    0.30
Q9    1   0.1169  0.2602  0.7648  11.00000  0.05    0.30
;
_shelx_res_checksum              73464
_shelx_hkl_file
;
  -1   0   0   48.83    1.03
  -1   0   0   47.13    1.02
  -1   0   0   47.65    1.05
  -1   0   0   47.26    1.03
  -1   0   0   48.60    0.98
   1   0   0   47.44    1.03
   1   0   0   48.17    0.98
   1   0   0   49.18    1.03
   1   0   0   48.28    1.05
   1   0   0   47.00    1.02
  -2   0   0    4.04    0.31
  -2   0   0    4.45    0.31
  -2   0   0    3.71    0.29
  -2   0   0    4.94    0.34
  -2   0   0    3.67    0.28
   2   0   0    3.72    0.28
   2   0   0    4.39    0.34
   2   0   0    4.62    0.33
   2   0   0    4.17    0.32
   2   0   0    4.33    0.19
  -3   0   0   88.42    2.08
  -3   0   0   91.10    1.99
  -3   0   0   92.12    2.04
  -3   0   0   90.05    1.85
  -3   0   0   92.69    2.09
  -3   0   0   92.66    2.05
  -3   0   0   81.57    2.19
  -3   0   0   81.41    2.11
   3   0   0   90.93    2.02
   3   0   0   89.66    2.04
   3   0   0   92.55    1.86
   3   0   0   83.78    2.19
   3   0   0   90.98    1.98
  -4   0   0    8.58    0.69
  -4   0   0    9.80    0.84
  -4   0   0   10.32    0.68
  -4   0   0    9.31    0.66
  -4   0   0   10.76    0.77
  -4   0   0    9.36    0.78
  -4   0   0    9.46    0.40
  -4   0   0   10.56    0.70
   4   0   0   10.33    0.80
   4   0   0    8.99    0.67
   4   0   0   10.06    0.82
   4   0   0    9.90    0.68
   4   0   0   10.69    0.65
   4   0   0    9.63    0.43
  -5   0   0   73.94    2.08
  -5   0   0   77.28    2.03
  -5   0   0   73.39    1.62
  -5   0   0   71.18    1.96
  -5   0   0   74.31    1.94
  -5   0   0   77.06    2.17
  -5   0   0   71.63    2.01
  -5   0   0   71.00    2.11
   5   0   0   76.67    1.87
   5   0   0   73.95    1.65
   5   0   0   75.27    1.92
   5   0   0   76.20    2.04
   5   0   0   74.55    2.05
   5   0   0   74.82    1.97
  -6   0   0    3.76    0.79
  -6   0   0    2.98    0.84
  -6   0   0    4.09    0.94
  -6   0   0    3.71    0.70
  -6   0   0    2.70    0.36
  -6   0   0    3.04    0.72
   6   0   0    2.87    0.38
   6   0   0    3.08    0.74
   6   0   0    3.95    0.78
   6   0   0    3.07    0.67
   6   0   0    3.84    0.83
   6   0   0    3.71    0.62
  -7   0   0   20.37    1.65
  -7   0   0   19.71    1.58
  -7   0   0   20.47    1.42
  -7   0   0   20.59    1.34
  -7   0   0   18.72    1.27
  -7   0   0   18.15    1.57
  -7   0   0   19.24    1.32
   7   0   0   18.01    1.49
   7   0   0   23.28    1.64
   7   0   0   20.38    1.35
   7   0   0   19.03    1.38
   7   0   0   15.46    1.15
  -8   0   0    0.19    1.35
  -8   0   0    1.10    1.39
  -8   0   0   -0.83    1.15
  -8   0   0    0.98    1.69
  -8   0   0    0.54    1.14
  -8   0   0   -0.41    1.28
  -8   0   0    0.72    1.33
   8   0   0    0.02    1.19
   8   0   0   -1.12    1.32
   8   0   0   -0.64    1.20
   8   0   0   -0.93    0.94
   8   0   0   -0.10    1.11
  -9   0   0   23.79    2.04
  -9   0   0   27.50    1.89
   9   0   0   28.11    2.03
   9   0   0   26.14    1.86
   8  -1   0    2.67    1.38
   8  -1   0    3.17    1.06
   8  -1   0   -0.12    1.59
   8  -1   0   -0.40    1.34
   8  -1   0    3.79    1.44
  -8   1   0    3.43    1.86
  -8   1   0    3.19    1.46
  -8   1   0    2.41    1.52
  -8   1   0    2.91    1.57
  -8   1   0    3.32    1.50
  -8   1   0    1.47    1.25
  -8   1   0    4.00    1.48
   7  -1   0   17.23    1.46
   7  -1   0   19.04    1.20
   7  -1   0   20.60    1.95
   7  -1   0   21.06    1.34
   7  -1   0   19.95    1.33
  -7   1   0   19.00    1.45
  -7   1   0   14.87    1.35
  -7   1   0   17.65    1.28
  -7   1   0   19.77    1.42
  -7   1   0   18.77    1.66
  -7   1   0   17.42    1.27
  -7   1   0   18.68    1.43
   6  -1   0  143.53    3.53
   6  -1   0  145.42    3.69
   6  -1   0  143.90    3.52
  -6   1   0  145.61    3.56
  -6   1   0  151.19    3.71
  -6   1   0  148.96    3.88
  -6   1   0  141.56    3.49
  -6   1   0  148.14    3.63
  -6   1   0  147.03    3.72
   5  -1   0    4.39    0.76
   5  -1   0    3.03    0.54
   5  -1   0    4.37    0.62
   5  -1   0    6.33    0.69
   5  -1   0    5.10    0.31
   5  -1   0    3.82    0.76
  -5   1   0    4.90    0.76
  -5   1   0    3.77    0.69
  -5   1   0    4.68    0.71
  -5   1   0    4.51    0.83
  -5   1   0    5.07    0.35
  -5   1   0    4.85    0.77
  -5   1   0    4.16    0.60
  -5   1   0    3.80    0.61
   4  -1   0    1.34    0.42
   4  -1   0    0.70    0.42
   4  -1   0    1.14    0.54
   4  -1   0    1.00    0.51
   4  -1   0    0.57    0.39
   4  -1   0    0.78    0.19
  -4   1   0    0.23    0.44
  -4   1   0    0.77    0.43
  -4   1   0    1.20    0.49
  -4   1   0    0.57    0.23
  -4   1   0    0.46    0.56
  -4   1   0    0.44    0.37
  -4   1   0    0.61    0.48
  -4   1   0    0.58    0.49
   3  -1   0  276.00    5.57
   3  -1   0  281.00    5.86
   3  -1   0  285.01    5.77
   3  -1   0  282.70    5.77
   3  -1   0  283.32    5.82
   3  -1   0  278.36    5.76
  -3   1   0  281.71    5.76
  -3   1   0  282.37    5.77
  -3   1   0  278.24    5.77
  -3   1   0  280.26    5.88
  -3   1   0  271.53    5.78
  -3   1   0  273.58    5.85
  -3   1   0  270.27    5.58
  -3   1   0  274.66    5.81
   2  -1   0  335.30    6.95
   2  -1   0  349.05    6.95
   2  -1   0  343.81    7.01
   2  -1   0  342.76    6.94
   2  -1   0  335.79    6.82
   2  -1   0  349.20    7.02
   2  -1   0  339.91    6.98
  -2   1   0  348.33    6.95
  -2   1   0  347.52    6.99
  -2   1   0  328.14    6.83
  -2   1   0  346.10    7.02
  -2   1   0  343.49    6.93
  -2   1   0  338.37    6.93
  -2   1   0  345.90    7.02
  -2   1   0  338.61    6.96
   1  -1   0   53.20    1.19
   1  -1   0   52.80    1.19
   1  -1   0   52.41    1.24
   1  -1   0   52.57    1.24
   1  -1   0   53.10    1.16
   1  -1   0   51.43    1.21
   1  -1   0   52.95    1.12
  -1   1   0   51.82    1.19
  -1   1   0   52.60    1.19
  -1   1   0   54.44    1.22
  -1   1   0   52.01    1.14
  -1   1   0   52.99    1.24
  -1   1   0   51.71    1.16
   0  -1   0  599.59   12.17
   0  -1   0  603.25   12.11
   0  -1   0  619.87   12.25
   0  -1   0  618.53   12.23
   0   1   0  598.15   12.12
   0   1   0  608.93   12.14
   0   1   0  615.12   12.22
   0   1   0  590.83   12.10
  -1  -1   0  281.00    5.62
  -1  -1   0  277.45    5.64
  -1  -1   0  290.25    5.64
  -1  -1   0  291.19    5.62
  -1  -1   0  282.00    5.65
  -1  -1   0  284.61    5.66
   1   1   0  279.03    5.58
   1   1   0  280.56    5.65
   1   1   0  283.72    5.65
   1   1   0  278.91    5.59
   1   1   0  273.19    5.58
   1   1   0  279.07    5.59
  -2  -1   0 1162.61   23.90
  -2  -1   0 1206.74   23.84
  -2  -1   0 1201.30   23.76
  -2  -1   0 1215.18   23.82
  -2  -1   0 1215.20   23.87
  -2  -1   0 1175.34   23.71
  -2  -1   0 1194.45   23.82
   2   1   0 1172.86   23.83
   2   1   0 1211.85   23.87
   2   1   0 1189.07   23.74
   2   1   0 1190.16   23.77
   2   1   0 1158.06   23.71
   2   1   0 1216.17   23.74
   2   1   0 1215.68   23.79
  -3  -1   0    8.61    0.51
  -3  -1   0    8.39    0.51
  -3  -1   0    7.72    0.37
  -3  -1   0    8.11    0.62
  -3  -1   0    8.10    0.42
  -3  -1   0    7.37    0.42
  -3  -1   0    7.79    0.47
   3   1   0    7.73    0.37
   3   1   0    7.90    0.67
   3   1   0    8.93    0.48
   3   1   0    7.84    0.41
   3   1   0    7.72    0.49
   3   1   0    7.97    0.39
  -4  -1   0   12.92    0.75
  -4  -1   0   14.05    0.76
  -4  -1   0   14.02    0.51
  -4  -1   0   13.21    0.91
  -4  -1   0   12.50    0.70
  -4  -1   0   13.66    0.67
  -4  -1   0   14.31    0.66
   4   1   0   14.02    0.57
   4   1   0   14.57    0.72
   4   1   0   12.70    0.72
   4   1   0   14.67    0.60
   4   1   0   14.83    0.62
   4   1   0   13.67    0.75
  -5  -1   0    9.18    0.68
  -5  -1   0    6.78    0.56
  -5  -1   0    7.08    0.73
  -5  -1   0    8.84    0.75
  -5  -1   0    8.30    0.71
  -5  -1   0    8.95    0.53
  -5  -1   0    7.60    0.63
  -5  -1   0    7.83    0.61
   5   1   0    8.20    0.64
   5   1   0    8.67    0.61
   5   1   0    8.10    0.65
   5   1   0    9.20    0.66
   5   1   0    9.07    0.72
   5   1   0    8.89    0.64
  -6  -1   0  115.56    2.85
  -6  -1   0  115.72    3.01
  -6  -1   0  114.21    2.84
  -6  -1   0  117.99    2.51
  -6  -1   0  117.30    2.77
  -6  -1   0  111.83    3.25
  -6  -1   0  116.86    2.90
   6   1   0  122.00    2.85
   6   1   0  113.94    2.58
   6   1   0  121.51    2.64
   6   1   0  101.51    3.39
   6   1   0  120.31    2.71
  -7  -1   0    4.98    1.00
  -7  -1   0    3.19    0.89
  -7  -1   0    1.89    1.16
  -7  -1   0    4.21    0.48
  -7  -1   0    2.99    0.81
  -7  -1   0    2.26    1.14
  -7  -1   0    3.79    0.86
  -7  -1   0    3.05    0.89
   7   1   0    3.30    0.69
   7   1   0    3.22    0.83
   7   1   0    3.25    0.75
   7   1   0    2.89    0.92
  -8  -1   0    7.62    0.61
  -8  -1   0    6.18    1.07
  -8  -1   0    7.07    1.49
  -8  -1   0    7.15    1.20
  -8  -1   0    6.79    1.62
  -8  -1   0    5.22    1.36
  -8  -1   0    7.60    1.20
  -8  -1   0    7.10    1.18
   8   1   0    6.70    1.11
   8   1   0    6.75    0.93
   8   1   0    6.68    1.22
   8   1   0    9.49    0.92
   8   1   0    5.96    1.06
  -9  -1   0   89.99    3.21
  -9  -1   0   86.49    3.43
   9   1   0   89.41    3.08
   9   1   0   81.81    2.68
   9   1   0   88.25    2.99
   9   1   0   86.88    2.69
   8  -2   0    4.80    1.58
   8  -2   0    4.41    2.01
   8  -2   0    4.55    1.73
  -8   2   0    3.79    1.55
  -8   2   0    6.95    1.71
  -8   2   0    4.66    1.65
  -8   2   0    5.85    1.77
  -8   2   0    5.10    1.79
  -8   2   0    5.05    2.04
  -8   2   0    5.88    1.87
   7  -2   0    3.70    1.03
   7  -2   0    2.42    1.29
   7  -2   0    3.60    1.20
   7  -2   0    0.70    1.05
   7  -2   0    4.01    1.40
  -7   2   0    1.66    1.11
  -7   2   0    2.79    1.46
  -7   2   0    2.59    1.19
  -7   2   0    2.38    1.14
  -7   2   0    2.45    1.36
  -7   2   0    3.84    1.30
  -7   2   0    2.14    1.23
   6  -2   0    7.91    0.91
   6  -2   0    6.12    1.09
   6  -2   0    7.47    0.97
   6  -2   0    7.38    1.14
  -6   2   0    7.46    1.11
  -6   2   0    5.80    0.96
  -6   2   0    8.32    1.12
  -6   2   0    7.66    1.27
  -6   2   0    8.71    0.98
  -6   2   0    7.50    1.10
   5  -2   0   71.34    2.33
   5  -2   0   74.11    2.12
   5  -2   0   73.63    2.36
   5  -2   0   72.55    2.14
   5  -2   0   71.89    2.11
   5  -2   0   71.87    1.59
  -5   2   0   74.03    2.09
  -5   2   0   74.11    2.44
  -5   2   0   73.78    2.31
  -5   2   0   74.92    2.15
  -5   2   0   70.48    2.30
  -5   2   0   71.04    2.19
  -5   2   0   72.99    2.13
   4  -2   0  257.93    5.55
   4  -2   0  264.24    5.65
   4  -2   0  257.87    5.55
   4  -2   0  260.78    5.25
   4  -2   0  263.35    5.72
   4  -2   0  265.04    5.58
  -4   2   0  265.76    5.76
  -4   2   0  262.09    5.53
  -4   2   0  256.81    5.59
  -4   2   0  252.79    5.64
  -4   2   0  255.85    5.70
  -4   2   0  258.83    5.56
  -4   2   0  256.52    5.51
   3  -2   0   43.75    1.05
   3  -2   0   43.58    1.47
   3  -2   0   44.50    1.26
   3  -2   0   44.60    1.43
   3  -2   0   43.07    1.33
   3  -2   0   45.23    1.47
   3  -2   0   40.86    1.31
  -3   2   0   44.60    1.46
  -3   2   0   45.28    1.25
  -3   2   0   43.13    1.33
  -3   2   0   44.77    1.43
  -3   2   0   46.65    1.47
  -3   2   0   43.49    1.24
  -3   2   0   43.92    1.30
   2  -2   0   26.15    0.72
   2  -2   0   26.37    0.88
   2  -2   0   24.39    0.98
   2  -2   0   26.39    0.96
   2  -2   0   25.08    0.88
   2  -2   0   27.31    1.00
   2  -2   0   26.28    0.83
  -2   2   0   26.36    0.96
  -2   2   0   25.96    0.80
  -2   2   0   26.19    0.98
  -2   2   0   26.03    0.78
  -2   2   0   26.02    0.99
  -2   2   0   26.57    0.88
  -2   2   0   25.23    0.86
   1  -2   0  185.33    3.83
   1  -2   0  182.93    3.89
   1  -2   0  184.41    3.80
   1  -2   0  180.61    3.86
   1  -2   0  181.83    3.83
   1  -2   0  181.64    3.89
  -1   2   0  185.11    3.88
  -1   2   0  182.85    3.70
  -1   2   0  183.35    3.79
  -1   2   0  186.43    3.86
  -1   2   0  181.75    3.82
  -1   2   0  184.96    3.82
   0  -2   0   76.50    1.72
   0  -2   0   71.91    1.79
   0  -2   0   69.37    1.78
   0  -2   0   77.98    1.67
   0  -2   0   80.97    1.67
   0  -2   0   79.34    1.70
   0   2   0   79.42    1.66
   0   2   0   76.73    1.72
   0   2   0   79.76    1.69
   0   2   0   78.33    1.66
  -1  -2   0   25.98    0.66
  -1  -2   0   24.97    0.64
  -1  -2   0   25.83    0.66
  -1  -2   0   26.53    0.64
  -1  -2   0   25.81    0.67
  -1  -2   0   26.42    0.62
  -1  -2   0   25.18    0.64
   1   2   0   25.81    0.67
   1   2   0   25.22    0.59
   1   2   0   26.90    0.61
   1   2   0   26.19    0.67
   1   2   0   25.79    0.65
   1   2   0   26.10    0.64
   1   2   0   25.21    0.66
  -2  -2   0   31.92    0.87
  -2  -2   0   32.61    0.72
  -2  -2   0   32.09    0.75
  -2  -2   0   32.76    0.75
  -2  -2   0   32.81    0.75
  -2  -2   0   33.12    0.74
  -2  -2   0   32.42    0.89
   2   2   0   32.31    0.72
   2   2   0   32.39    0.73
   2   2   0   32.15    0.73
   2   2   0   31.78    0.88
   2   2   0   32.20    0.72
   2   2   0   30.65    0.92
  -3  -2   0   94.06    2.10
  -3  -2   0   91.21    1.97
  -3  -2   0   92.70    2.06
  -3  -2   0   92.03    1.95
  -3  -2   0   93.11    1.96
  -3  -2   0   92.18    1.99
  -3  -2   0   91.12    2.16
   3   2   0   92.37    1.96
   3   2   0   94.27    2.20
   3   2   0   91.99    2.08
   3   2   0   92.58    1.92
   3   2   0   93.50    1.91
   3   2   0   93.71    1.95
  -4  -2   0    4.18    0.36
  -4  -2   0    3.59    0.55
  -4  -2   0    4.08    0.35
  -4  -2   0    4.51    0.46
  -4  -2   0    4.47    0.38
  -4  -2   0    4.34    0.36
  -4  -2   0    4.22    0.38
   4   2   0    4.51    0.38
   4   2   0    4.70    0.28
   4   2   0    4.43    0.38
   4   2   0    3.99    0.43
   4   2   0    4.12    0.37
  -5  -2   0   18.52    0.77
  -5  -2   0   19.53    0.86
  -5  -2   0   18.51    1.23
  -5  -2   0   19.35    0.91
  -5  -2   0   17.80    0.85
  -5  -2   0   18.69    1.02
  -5  -2   0   18.71    0.82
   5   2   0   19.04    0.66
   5   2   0   17.51    0.88
   5   2   0   18.62    0.88
   5   2   0   18.01    0.68
   5   2   0   18.87    0.84
  -6  -2   0  129.92    3.50
  -6  -2   0  138.43    3.15
  -6  -2   0  134.73    3.06
  -6  -2   0  137.49    2.96
  -6  -2   0  135.72    3.18
   6   2   0  139.58    3.07
   6   2   0  129.89    2.95
   6   2   0  138.09    2.91
  -7  -2   0   81.25    2.78
  -7  -2   0   80.38    2.64
  -7  -2   0   79.56    2.20
  -7  -2   0   80.61    2.35
  -7  -2   0   81.51    1.98
  -7  -2   0   77.53    2.27
  -7  -2   0   82.24    2.35
  -7  -2   0   82.89    2.68
   7   2   0   78.99    1.95
   7   2   0   80.26    2.16
   7   2   0   77.36    1.95
   7   2   0   79.61    2.23
  -8  -2   0    5.57    1.06
  -8  -2   0    3.71    1.51
  -8  -2   0    4.78    0.78
  -8  -2   0    5.81    1.10
  -8  -2   0    4.38    0.94
  -8  -2   0    4.94    1.51
  -8  -2   0    5.89    1.38
  -8  -2   0    5.34    1.07
   8   2   0    4.92    0.73
   8   2   0    4.55    0.70
   8   2   0    5.69    1.00
   8   2   0    4.00    0.85
  -9  -2   0    2.04    1.36
  -9  -2   0    2.24    1.93
  -9  -2   0    2.46    1.39
  -9  -2   0    2.56    0.79
   9   2   0    3.09    1.34
   9   2   0    1.72    1.01
   9   2   0    1.57    0.83
   9   2   0    2.14    0.87
   8  -3   0    7.89    2.11
   8  -3   0    7.08    3.22
  -8   3   0    7.02    1.95
  -8   3   0    8.03    1.80
  -8   3   0   13.28    2.47
  -8   3   0    6.14    2.33
  -8   3   0    8.36    2.18
  -8   3   0   14.65    3.06
   7  -3   0    0.04    1.63
   7  -3   0   -1.22    1.60
   7  -3   0    0.45    1.41
   7  -3   0    1.19    1.37
   7  -3   0   -0.98    1.28
  -7   3   0    0.25    1.45
  -7   3   0    2.23    1.30
  -7   3   0    2.09    1.25
  -7   3   0    0.94    2.01
  -7   3   0    0.75    1.26
  -7   3   0    0.27    1.50
  -7   3   0   -0.72    1.55
   6  -3   0   62.64    2.78
   6  -3   0   61.22    3.37
   6  -3   0   62.11    2.40
   6  -3   0   55.46    2.33
   6  -3   0   58.66    1.43
   6  -3   0   58.32    2.51
  -6   3   0   64.73    2.63
  -6   3   0   60.93    2.96
  -6   3   0   63.09    2.33
  -6   3   0   63.23    2.80
  -6   3   0   60.34    2.39
  -6   3   0   61.25    2.71
   5  -3   0    3.08    0.40
   5  -3   0    2.79    0.80
   5  -3   0    3.16    0.99
   5  -3   0    3.75    1.04
   5  -3   0    2.08    0.79
  -5   3   0    3.20    0.75
  -5   3   0    3.99    0.98
  -5   3   0    8.69    2.05
  -5   3   0    3.45    0.77
  -5   3   0    3.50    0.92
  -5   3   0    3.08    0.82
  -5   3   0    3.20    1.04
   4  -3   0  111.66    3.03
   4  -3   0  106.90    3.01
   4  -3   0  110.48    2.75
   4  -3   0  111.36    2.82
   4  -3   0  112.53    2.41
   4  -3   0  112.66    2.82
   4  -3   0  111.87    2.95
  -4   3   0  112.43    2.79
  -4   3   0  108.07    2.95
  -4   3   0  110.48    3.03
  -4   3   0  110.38    2.70
  -4   3   0  109.29    2.63
  -4   3   0  110.86    2.94
  -4   3   0  108.10    2.84
   3  -3   0   64.57    1.54
   3  -3   0   64.80    1.93
   3  -3   0   62.88    1.97
   3  -3   0   62.33    1.83
   3  -3   0   65.06    1.82
   3  -3   0   62.94    1.97
  -3   3   0   64.15    1.83
  -3   3   0   62.84    1.95
  -3   3   0   65.79    1.99
  -3   3   0   60.72    1.60
  -3   3   0   63.92    1.68
  -3   3   0   66.31    1.96
  -3   3   0   65.77    1.80
   2  -3   0   15.21    0.97
   2  -3   0   13.86    0.95
   2  -3   0   15.38    0.95
   2  -3   0   14.57    0.68
   2  -3   0   14.45    0.74
   2  -3   0   15.24    0.88
   2  -3   0   16.62    0.88
  -2   3   0   15.24    0.86
  -2   3   0   15.66    0.95
  -2   3   0   14.56    0.80
  -2   3   0   14.55    0.94
  -2   3   0   14.59    0.60
  -2   3   0   15.43    0.71
  -2   3   0   14.82    0.99
   1  -3   0   14.97    0.64
   1  -3   0   14.31    0.78
   1  -3   0   14.53    0.73
   1  -3   0   14.35    0.73
   1  -3   0   15.45    0.83
  -1   3   0   15.47    0.70
  -1   3   0   14.35    0.60
  -1   3   0   15.33    0.38
  -1   3   0   14.83    0.69
  -1   3   0   14.66    0.77
  -1   3   0   14.95    0.82
  -1   3   0   14.58    0.81
  -1   3   0   14.69    0.42
   0  -3   0  293.01    5.96
   0  -3   0  299.90    5.97
   0  -3   0  288.69    6.04
   0  -3   0  289.26    5.99
   0  -3   0  291.45    6.04
   0  -3   0  290.21    6.00
   0  -3   0  276.12    5.99
   0   3   0  296.83    5.98
   0   3   0  289.82    6.02
   0   3   0  297.14    5.95
   0   3   0  291.80    5.93
  -1  -3   0  426.64    8.54
  -1  -3   0  416.62    8.61
  -1  -3   0  423.48    8.52
  -1  -3   0  412.97    8.54
  -1  -3   0  419.33    8.43
  -1  -3   0  423.21    8.56
  -1  -3   0  426.84    8.50
  -1  -3   0  426.82    8.54
   1   3   0  426.05    8.52
   1   3   0  435.28    8.52
   1   3   0  425.02    8.48
   1   3   0  418.07    8.45
   1   3   0  425.03    8.54
   1   3   0  427.64    8.46
   1   3   0  424.07    8.54
  -2  -3   0   14.83    0.60
  -2  -3   0   15.22    0.70
  -2  -3   0   15.73    0.55
  -2  -3   0   15.31    0.54
  -2  -3   0   15.59    0.50
  -2  -3   0   14.94    0.47
  -2  -3   0   15.61    0.60
  -2  -3   0   15.81    0.51
   2   3   0   14.96    0.51
   2   3   0   14.48    0.50
   2   3   0   15.11    0.42
   2   3   0   15.36    0.44
   2   3   0   14.49    0.68
  -3  -3   0    4.99    0.45
  -3  -3   0    4.48    0.30
  -3  -3   0    4.23    0.45
  -3  -3   0    4.35    0.31
  -3  -3   0    4.09    0.38
  -3  -3   0    4.14    0.36
  -3  -3   0    4.37    0.35
  -4  -3   0    6.59    0.64
  -4  -3   0    8.95    0.61
  -4  -3   0    7.72    0.48
  -4  -3   0    6.60    0.52
  -4  -3   0    8.10    0.51
  -4  -3   0    7.38    0.46
  -4  -3   0    6.81    0.47
  -4  -3   0    7.77    0.56
  -5  -3   0   22.52    0.96
  -5  -3   0   22.94    0.88
  -5  -3   0   23.70    0.83
  -5  -3   0   23.00    0.86
  -5  -3   0   20.47    1.14
  -5  -3   0   23.02    1.34
  -5  -3   0   24.35    0.91
  -6  -3   0   19.51    1.09
  -6  -3   0   19.69    1.06
  -6  -3   0   19.60    1.63
  -6  -3   0   19.05    1.00
  -6  -3   0   18.83    0.99
  -6  -3   0   18.66    0.96
  -6  -3   0   19.51    1.35
  -7  -3   0   18.60    1.47
  -7  -3   0   26.60    1.86
  -7  -3   0   22.28    1.38
  -7  -3   0   23.37    1.28
  -7  -3   0   22.69    1.47
  -7  -3   0   21.34    1.27
  -7  -3   0   23.53    1.23
  -8  -3   0    5.78    1.09
  -8  -3   0    4.23    0.79
  -8  -3   0    5.67    0.98
  -8  -3   0    5.71    1.45
  -8  -3   0    5.18    0.94
  -8  -3   0    5.55    1.49
  -8  -3   0    6.06    0.89
  -8  -3   0    5.34    1.59
  -9  -3   0    1.86    1.26
  -9  -3   0    4.79    1.89
  -9  -3   0    2.61    0.96
   7  -4   0    3.45    1.90
   7  -4   0    5.08    1.75
   7  -4   0    2.07    2.06
   7  -4   0    1.35    1.74
   7  -4   0    3.96    2.00
  -7   4   0    5.33    2.03
  -7   4   0    4.94    2.02
  -7   4   0    0.31    1.90
  -7   4   0    2.91    1.36
  -7   4   0    5.18    1.67
  -7   4   0    4.33    2.51
  -7   4   0    3.25    1.68
   6  -4   0   37.07    1.36
   6  -4   0   34.61    2.93
   6  -4   0   38.42    2.25
   6  -4   0   38.04    2.61
   6  -4   0   35.54    2.50
   6  -4   0   34.17    1.17
   6  -4   0   31.01    2.42
  -6   4   0   33.99    2.74
  -6   4   0   32.31    2.23
  -6   4   0   35.54    2.41
  -6   4   0   31.70    2.32
  -6   4   0   39.23    2.70
   5  -4   0  113.14    3.58
   5  -4   0  113.69    2.70
   5  -4   0  111.90    2.57
   5  -4   0  112.12    3.18
   5  -4   0  116.37    3.49
   5  -4   0  116.17    3.30
   5  -4   0  118.28    3.34
  -5   4   0  113.94    3.62
  -5   4   0  118.04    3.34
  -5   4   0  112.49    2.88
  -5   4   0  114.06    3.04
  -5   4   0  110.53    3.49
  -5   4   0  114.27    3.20
  -5   4   0  113.93    3.49
   4  -4   0   66.15    2.37
   4  -4   0   64.36    2.08
   4  -4   0   66.27    1.72
   4  -4   0   70.53    2.27
   4  -4   0   64.90    2.44
   4  -4   0   68.18    2.45
  -4   4   0   63.72    2.03
  -4   4   0   65.81    2.23
  -4   4   0   64.56    1.83
  -4   4   0   66.48    2.15
  -4   4   0   68.40    2.45
  -4   4   0   67.95    2.49
   3  -4   0    5.85    0.68
   3  -4   0    5.72    0.76
   3  -4   0    6.96    0.73
   3  -4   0    6.83    0.92
   3  -4   0    6.33    0.84
   3  -4   0    7.37    0.59
   3  -4   0    8.04    1.00
  -3   4   0    5.39    0.59
  -3   4   0    7.35    0.52
  -3   4   0    6.95    0.75
  -3   4   0    7.38    0.92
  -3   4   0    6.68    0.91
  -3   4   0    6.91    0.50
  -3   4   0    5.65    0.66
  -3   4   0    8.01    0.92
   2  -4   0    1.72    0.65
   2  -4   0    2.12    0.50
   2  -4   0    1.36    0.90
   2  -4   0    2.34    0.60
   2  -4   0    1.87    0.46
   2  -4   0    1.94    0.56
   2  -4   0    1.65    0.47
  -2   4   0    2.08    0.29
  -2   4   0    1.54    0.47
  -2   4   0    2.19    0.63
  -2   4   0    1.43    0.55
  -2   4   0    1.40    0.41
  -2   4   0    2.35    0.25
  -2   4   0    2.15    0.47
  -2   4   0    1.65    0.56
   1  -4   0   42.48    1.41
   1  -4   0   42.78    1.47
   1  -4   0   43.18    1.40
   1  -4   0   44.22    1.36
   1  -4   0   43.38    1.25
  -1   4   0   44.01    1.46
  -1   4   0   42.25    1.41
  -1   4   0   42.55    1.22
  -1   4   0   42.22    1.39
  -1   4   0   42.89    1.27
  -1   4   0   41.72    1.32
   0  -4   0   82.11    1.93
   0  -4   0   80.85    2.07
   0  -4   0   80.84    2.01
   0  -4   0   81.73    1.97
   0  -4   0   81.58    2.02
   0  -4   0   83.96    2.00
   0  -4   0   82.15    2.05
   0   4   0   83.30    1.96
   0   4   0   81.13    2.05
   0   4   0   80.61    1.89
   0   4   0   82.66    2.03
   0   4   0   81.53    1.96
   0   4   0   81.72    1.92
  -1  -4   0  114.97    2.38
  -1  -4   0  118.88    2.71
  -1  -4   0  118.39    2.65
  -1  -4   0  114.73    2.60
  -1  -4   0  116.65    2.62
  -1  -4   0  113.62    2.63
  -1  -4   0  117.00    2.60
  -1  -4   0  117.86    2.58
   1   4   0  120.28    2.59
   1   4   0  116.97    2.52
   1   4   0  120.43    2.59
   1   4   0  117.29    2.60
   1   4   0  117.53    2.49
   1   4   0  117.16    2.62
  -2  -4   0  196.05    4.17
  -2  -4   0  195.44    4.06
  -2  -4   0  197.72    4.13
  -2  -4   0  196.96    4.13
  -2  -4   0  197.71    4.13
  -2  -4   0  194.73    4.09
  -2  -4   0  194.17    4.27
  -2  -4   0  196.87    4.08
   2   4   0  202.09    4.10
   2   4   0  198.48    4.07
   2   4   0  193.96    4.08
   2   4   0  200.13    4.02
  -3  -4   0  316.60    6.59
  -3  -4   0  324.82    6.67
  -3  -4   0  319.70    6.44
  -3  -4   0  321.75    6.57
  -3  -4   0  320.44    6.47
  -3  -4   0  316.56    6.49
  -3  -4   0  311.35    6.43
  -3  -4   0  317.29    6.48
  -4  -4   0   47.57    1.17
  -4  -4   0   48.17    1.22
  -4  -4   0   46.84    1.51
  -4  -4   0   47.20    1.42
  -4  -4   0   46.98    1.50
  -4  -4   0   48.29    1.16
  -4  -4   0   47.78    1.21
  -4  -4   0   47.33    1.22
  -4  -4   0   48.25    1.20
  -5  -4   0    0.30    0.53
  -5  -4   0    0.67    0.40
  -5  -4   0    0.04    0.34
  -5  -4   0    0.43    0.68
  -5  -4   0    0.06    0.37
  -5  -4   0    0.28    0.37
  -5  -4   0    0.34    0.59
  -6  -4   0   20.58    1.55
  -6  -4   0   23.94    1.73
  -6  -4   0   24.27    1.28
  -6  -4   0   24.30    1.05
  -6  -4   0   22.33    0.90
  -6  -4   0   21.93    1.09
  -6  -4   0   22.92    0.98
  -6  -4   0   22.88    1.03
  -7  -4   0    4.95    0.82
  -7  -4   0    4.13    0.66
  -7  -4   0    4.89    0.79
  -7  -4   0    5.16    0.67
  -7  -4   0    4.41    0.71
  -7  -4   0    3.86    0.56
  -7  -4   0    5.38    1.28
  -7  -4   0    3.54    1.04
  -8  -4   0   19.13    1.47
  -8  -4   0   20.71    1.14
  -8  -4   0   19.32    1.43
  -8  -4   0   22.70    1.93
  -8  -4   0   20.03    1.69
  -8  -4   0   20.25    1.99
  -8  -4   0   19.44    1.57
  -8  -4   0   17.97    1.76
  -8  -4   0   22.11    1.66
   6  -5   0    0.07    1.83
   6  -5   0    2.07    0.91
   6  -5   0    2.23    0.73
   6  -5   0   -0.51    1.74
   6  -5   0    0.37    1.77
   6  -5   0    1.12    1.59
   6  -5   0    1.35    2.08
  -6   5   0   -1.24    1.39
  -6   5   0    0.13    1.73
  -6   5   0   -1.02    1.56
  -6   5   0    3.10    1.48
  -6   5   0    1.64    2.17
  -6   5   0    1.81    1.17
  -6   5   0   -1.17    1.76
  -6   5   0    3.61    2.29
   5  -5   0  116.03    3.97
   5  -5   0   93.74    5.28
   5  -5   0  114.48    2.76
   5  -5   0  118.27    3.44
   5  -5   0  115.25    3.76
   5  -5   0  114.82    2.92
   5  -5   0  121.25    3.69
  -5   5   0  116.64    2.91
  -5   5   0  113.50    3.53
  -5   5   0  117.33    2.88
  -5   5   0  115.73    3.31
  -5   5   0  115.46    3.86
  -5   5   0  119.92    3.66
  -5   5   0  114.37    4.07
  -5   5   0  114.50    3.81
   4  -5   0   13.33    1.44
   4  -5   0   11.05    1.06
   4  -5   0   12.16    1.53
   4  -5   0   10.76    0.80
   4  -5   0   12.48    1.23
   4  -5   0   11.27    0.95
   4  -5   0   13.00    1.30
   4  -5   0   11.35    1.45
  -4   5   0   13.38    1.05
  -4   5   0   11.79    0.73
  -4   5   0    9.40    1.32
  -4   5   0   12.69    1.19
  -4   5   0   11.35    1.45
  -4   5   0   10.16    1.20
  -4   5   0   11.87    1.20
  -4   5   0   11.82    0.74
   3  -5   0  353.12    7.47
   3  -5   0  347.31    7.38
   3  -5   0  343.00    7.19
   3  -5   0  350.97    7.64
   3  -5   0  333.67    7.64
   3  -5   0  344.79    7.48
   3  -5   0  346.17    7.24
   3  -5   0  339.06    7.53
  -3   5   0  348.22    6.93
  -3   5   0  348.75    7.58
  -3   5   0  343.72    7.50
  -3   5   0  340.74    6.95
  -3   5   0  339.75    7.38
  -3   5   0  345.16    7.28
  -3   5   0  338.21    7.59
  -3   5   0  335.41    7.40
   2  -5   0  139.38    3.43
   2  -5   0  138.83    3.53
   2  -5   0  143.98    3.33
   2  -5   0  138.74    3.60
   2  -5   0  139.22    3.61
   2  -5   0  137.41    3.46
   2  -5   0  140.77    3.31
   2  -5   0  140.89    3.29
  -2   5   0  141.08    3.26
  -2   5   0  140.28    3.34
  -2   5   0  140.23    3.50
  -2   5   0  142.33    3.58
  -2   5   0  142.17    3.50
  -2   5   0  143.14    3.39
   1  -5   0  109.46    2.65
   1  -5   0  108.31    2.74
   1  -5   0  109.12    2.69
   1  -5   0  112.37    2.79
   1  -5   0  112.81    2.79
   1  -5   0  109.79    2.85
   1  -5   0  105.35    2.87
  -1   5   0  111.49    2.69
  -1   5   0  107.09    2.59
  -1   5   0  106.88    2.83
  -1   5   0  111.01    2.78
  -1   5   0  111.87    2.77
  -1   5   0  108.44    2.63
   0  -5   0  449.79    9.53
   0  -5   0  466.30    9.48
   0  -5   0  471.73    9.56
   0  -5   0  462.40    9.63
   0  -5   0  473.32    9.52
   0  -5   0  455.58    9.56
   0  -5   0  461.09    9.61
   0   5   0  460.87    9.41
   0   5   0  456.14    9.49
   0   5   0  471.40    9.53
   0   5   0  459.02    9.46
   0   5   0  467.38    9.49
   0   5   0  459.49    9.58
  -1  -5   0   20.37    0.96
  -1  -5   0   21.63    1.12
  -1  -5   0   20.52    1.09
  -1  -5   0   20.56    0.98
  -1  -5   0   19.59    0.92
  -1  -5   0   19.86    1.00
  -1  -5   0   21.40    1.01
   1   5   0   20.96    0.96
   1   5   0   20.24    0.80
   1   5   0   19.90    1.03
   1   5   0   20.17    0.90
   1   5   0   19.97    1.00
   1   5   0   20.16    0.75
  -2  -5   0   10.29    0.82
  -2  -5   0    9.36    0.82
  -2  -5   0    9.95    0.74
  -2  -5   0    9.85    0.77
  -2  -5   0   10.28    0.77
  -2  -5   0   10.54    0.51
  -2  -5   0    9.96    0.72
  -2  -5   0    8.40    0.61
   2   5   0   10.06    0.78
   2   5   0   10.36    0.48
   2   5   0   11.16    0.56
   2   5   0    9.76    0.74
   2   5   0   10.96    0.72
  -3  -5   0    5.77    0.54
  -3  -5   0    5.94    0.45
  -3  -5   0    5.66    0.51
  -3  -5   0    5.67    0.60
  -3  -5   0    5.99    0.46
  -3  -5   0    4.72    0.49
  -3  -5   0    5.45    0.48
  -3  -5   0    5.16    0.71
  -4  -5   0   20.52    0.83
  -4  -5   0   21.81    0.93
  -4  -5   0   21.30    0.88
  -4  -5   0   21.22    1.30
  -4  -5   0   21.86    1.13
  -4  -5   0   20.43    1.12
  -4  -5   0   22.20    0.89
  -4  -5   0   20.82    0.81
  -5  -5   0   61.55    1.61
  -5  -5   0   61.94    1.54
  -5  -5   0   63.92    1.63
  -5  -5   0   64.29    1.95
  -5  -5   0   65.04    2.01
  -5  -5   0   63.38    1.61
  -5  -5   0   64.29    2.02
  -5  -5   0   63.27    1.58
  -6  -5   0   11.76    0.91
  -6  -5   0   14.86    1.19
  -6  -5   0   10.67    0.89
  -6  -5   0   12.48    1.03
  -6  -5   0    9.95    0.94
  -6  -5   0   11.58    0.99
  -6  -5   0   10.45    1.13
  -6  -5   0   10.66    0.87
  -6  -5   0   11.30    0.92
  -7  -5   0   39.03    1.37
  -7  -5   0   38.22    2.43
  -7  -5   0   43.32    2.37
  -7  -5   0   36.79    1.34
  -7  -5   0   38.96    1.64
  -7  -5   0   38.29    1.91
  -7  -5   0   39.49    1.50
  -7  -5   0   38.56    2.08
  -7  -5   0   40.20    1.32
  -8  -5   0   16.27    1.36
  -8  -5   0   17.86    1.40
  -8  -5   0   18.92    1.41
  -8  -5   0   14.81    1.77
  -8  -5   0   13.64    1.87
  -8  -5   0   19.61    1.59
  -8  -5   0   16.65    0.98
   5  -6   0    3.03    1.91
   5  -6   0    0.51    1.71
   5  -6   0    3.12    1.01
   5  -6   0    0.45    1.36
   5  -6   0    4.20    1.91
   5  -6   0    3.03    1.18
   5  -6   0    1.54    2.17
  -5   6   0    5.63    1.71
  -5   6   0    0.69    1.34
  -5   6   0    0.58    1.95
  -5   6   0    1.15    1.84
  -5   6   0   -0.78    2.04
  -5   6   0    2.09    0.78
  -5   6   0    4.66    1.63
  -5   6   0    3.12    0.82
   4  -6   0   12.89    1.08
   4  -6   0   15.16    1.22
   4  -6   0   14.04    1.55
   4  -6   0   14.59    1.42
   4  -6   0   10.76    1.69
   4  -6   0   12.68    1.58
   4  -6   0   11.25    1.60
   4  -6   0    9.20    1.55
  -4   6   0   13.92    1.44
  -4   6   0   14.34    0.90
  -4   6   0   13.80    1.70
  -4   6   0   16.83    1.81
  -4   6   0   14.63    0.89
  -4   6   0   12.60    1.70
  -4   6   0   12.98    1.29
  -4   6   0   13.89    1.44
   3  -6   0   16.36    1.47
   3  -6   0   13.88    1.27
   3  -6   0   15.14    1.45
   3  -6   0   17.00    1.29
   3  -6   0   16.09    1.58
   3  -6   0   17.24    1.10
   3  -6   0   19.49    1.22
   3  -6   0   17.53    1.71
  -3   6   0   16.35    1.16
  -3   6   0   14.41    1.06
  -3   6   0   16.91    1.44
  -3   6   0   16.29    1.56
  -3   6   0   13.02    1.32
  -3   6   0   15.52    1.25
   2  -6   0   35.46    1.68
   2  -6   0   34.15    1.88
   2  -6   0   35.01    2.07
   2  -6   0   34.05    1.97
   2  -6   0   32.01    1.64
   2  -6   0   32.62    2.01
   2  -6   0   32.06    1.69
   2  -6   0   36.01    2.01
  -2   6   0   33.48    2.03
  -2   6   0   36.48    1.75
  -2   6   0   32.04    1.92
  -2   6   0   32.97    1.53
  -2   6   0   34.74    1.64
  -2   6   0   31.55    1.92
   1  -6   0   33.51    1.84
   1  -6   0   33.29    1.64
   1  -6   0   33.97    1.74
   1  -6   0   31.40    1.79
   1  -6   0   30.96    1.59
   1  -6   0   31.49    1.50
  -1   6   0   28.09    1.58
  -1   6   0   32.35    1.38
  -1   6   0   28.30    2.06
  -1   6   0   32.64    1.43
  -1   6   0   31.17    1.72
   0  -6   0  266.01    5.99
   0  -6   0  284.60    5.91
   0  -6   0  265.76    5.88
   0  -6   0  269.80    5.94
   0  -6   0  242.63    6.28
   0  -6   0  280.17    5.86
   0  -6   0  266.76    5.87
   0   6   0  269.98    5.80
   0   6   0  270.24    5.75
   0   6   0  268.69    5.84
   0   6   0  271.26    5.75
   0   6   0  262.38    6.00
  -1  -6   0   69.90    2.00
  -1  -6   0   72.57    2.06
  -1  -6   0   68.11    2.07
  -1  -6   0   67.02    1.94
  -1  -6   0   69.74    2.15
  -1  -6   0   67.41    2.12
  -1  -6   0   70.27    2.00
   1   6   0   69.45    2.00
   1   6   0   67.95    1.90
   1   6   0   70.29    1.79
   1   6   0   69.94    1.92
   1   6   0   65.94    1.99
  -2  -6   0    0.59    0.66
  -2  -6   0    1.21    0.60
  -2  -6   0    0.70    0.53
  -2  -6   0    1.04    1.33
  -2  -6   0    0.45    0.66
  -2  -6   0    0.71    0.63
  -2  -6   0    0.16    0.89
  -2  -6   0    0.60    0.26
   2   6   0    1.31    0.59
   2   6   0    0.21    0.38
   2   6   0    0.58    0.56
   2   6   0    0.43    0.50
   2   6   0    0.74    0.51
  -3  -6   0   24.36    1.11
  -3  -6   0   24.73    0.93
  -3  -6   0   23.46    1.13
  -3  -6   0   23.75    1.28
  -3  -6   0   25.29    1.21
  -3  -6   0   24.62    1.06
  -3  -6   0   25.11    1.55
  -3  -6   0   23.87    1.23
   3   6   0   23.28    0.90
  -4  -6   0    0.87    0.87
  -4  -6   0    2.10    0.55
  -4  -6   0    1.61    0.59
  -4  -6   0    2.36    0.49
  -4  -6   0    0.61    0.70
  -4  -6   0    2.32    0.63
  -4  -6   0    2.63    0.61
  -4  -6   0    2.06    0.53
  -5  -6   0    6.00    0.69
  -5  -6   0    6.49    0.68
  -5  -6   0    6.69    0.59
  -5  -6   0    5.91    0.68
  -5  -6   0    5.95    0.63
  -5  -6   0    6.04    0.93
  -5  -6   0    6.33    1.05
  -5  -6   0    4.93    0.88
  -5  -6   0    6.84    0.69
  -6  -6   0   13.09    1.05
  -6  -6   0   12.74    1.11
  -6  -6   0   15.64    1.25
  -6  -6   0   14.48    1.31
  -6  -6   0   14.15    1.33
  -6  -6   0   14.90    1.08
  -6  -6   0   14.15    1.28
  -6  -6   0   13.52    1.16
  -6  -6   0   14.06    0.81
  -7  -6   0   50.59    1.87
  -7  -6   0   48.73    2.87
  -7  -6   0   53.86    1.72
  -7  -6   0   50.88    1.72
  -7  -6   0   55.89    1.81
  -7  -6   0   53.59    1.62
  -7  -6   0   51.89    2.87
  -7  -6   0   56.67    2.59
  -7  -6   0   52.35    2.54
  -8  -6   0    0.04    0.96
  -8  -6   0    0.17    1.48
  -8  -6   0   -0.19    1.35
  -8  -6   0   -2.16    1.93
   4  -7   0   56.51    2.85
   4  -7   0   55.38    3.57
   4  -7   0   59.16    3.81
   4  -7   0   54.97    3.92
   4  -7   0   63.35    2.56
   4  -7   0   52.98    3.66
   4  -7   0   54.54    3.99
   4  -7   0   57.27    3.08
  -4   7   0   49.06    3.73
  -4   7   0   61.86    2.90
  -4   7   0   62.53    3.78
  -4   7   0   59.45    3.85
  -4   7   0   59.49    3.32
  -4   7   0   53.21    3.24
   3  -7   0   29.23    1.81
   3  -7   0   22.04    1.89
   3  -7   0   27.68    2.24
   3  -7   0   25.41    2.13
   3  -7   0   26.23    1.67
   3  -7   0   28.16    2.02
   3  -7   0   24.13    2.05
   3  -7   0   25.26    1.81
  -3   7   0   33.55    2.75
  -3   7   0   25.90    1.99
  -3   7   0   27.57    2.31
  -3   7   0   26.08    2.07
  -3   7   0   28.57    2.34
  -3   7   0   25.41    2.08
   2  -7   0    0.89    1.21
   2  -7   0    0.21    1.09
   2  -7   0    0.47    1.31
   2  -7   0    1.85    1.26
   2  -7   0    2.28    1.16
   2  -7   0    0.90    1.09
   2  -7   0    1.67    1.16
   2  -7   0   -0.08    1.32
  -2   7   0    1.27    0.96
  -2   7   0    1.39    1.32
  -2   7   0    2.14    1.26
  -2   7   0   -0.86    1.02
  -2   7   0    1.48    0.93
  -2   7   0    2.05    1.16
   1  -7   0    3.35    1.11
   1  -7   0    3.30    1.16
   1  -7   0    3.92    0.99
   1  -7   0    1.65    0.99
   1  -7   0    1.97    1.06
   1  -7   0    2.49    1.12
   1  -7   0    3.63    1.07
   1  -7   0    3.68    1.08
  -1   7   0    3.58    1.13
  -1   7   0    2.43    0.91
  -1   7   0    5.05    0.99
  -1   7   0    3.58    0.88
  -1   7   0    2.48    1.62
  -1   7   0    3.21    0.92
   0  -7   0   17.78    1.25
   0  -7   0   21.55    1.54
   0  -7   0   19.08    1.33
   0  -7   0   17.22    1.26
   0  -7   0   18.64    1.36
   0  -7   0   18.93    1.48
   0  -7   0   15.77    1.21
   0   7   0   18.87    1.69
   0   7   0   17.67    1.27
   0   7   0   17.94    1.40
   0   7   0   19.26    1.31
   0   7   0   17.36    1.52
   0   7   0   17.00    1.32
  -1  -7   0   75.77    2.28
  -1  -7   0   78.22    2.45
  -1  -7   0   78.61    2.60
  -1  -7   0   76.33    2.57
  -1  -7   0   77.16    2.31
  -1  -7   0   78.80    2.37
   1   7   0   79.89    2.39
   1   7   0   78.94    2.05
   1   7   0   72.70    2.50
   1   7   0   72.68    2.23
   1   7   0   75.61    2.30
   1   7   0   72.81    1.94
  -2  -7   0   -1.15    0.86
  -2  -7   0   -0.28    0.72
  -2  -7   0   -0.17    0.83
  -2  -7   0    0.67    0.75
  -2  -7   0   -0.18    0.68
  -2  -7   0    0.52    0.75
  -2  -7   0   -0.57    0.96
   2   7   0   -0.24    0.69
   2   7   0    0.30    0.67
   2   7   0    0.32    0.41
   2   7   0   -0.25    0.87
   2   7   0    1.44    0.77
   2   7   0    0.84    0.50
  -3  -7   0   42.27    1.67
  -3  -7   0   44.84    1.90
  -3  -7   0   45.50    1.85
  -3  -7   0   44.83    1.19
  -3  -7   0   43.06    2.21
  -3  -7   0   44.21    1.70
  -3  -7   0   45.76    1.58
  -3  -7   0   43.03    1.80
   3   7   0   42.96    1.14
  -4  -7   0   42.74    2.29
  -4  -7   0   37.71    1.52
  -4  -7   0   37.88    1.39
  -4  -7   0   38.80    1.41
  -4  -7   0   38.45    1.90
  -4  -7   0   42.01    1.72
  -4  -7   0   38.01    1.61
  -4  -7   0   42.12    1.74
  -5  -7   0   10.62    1.36
  -5  -7   0    9.65    0.77
  -5  -7   0   10.17    0.99
  -5  -7   0    9.15    0.92
  -5  -7   0   11.14    1.00
  -5  -7   0    9.77    0.90
  -5  -7   0   10.08    1.19
  -5  -7   0    9.25    0.90
  -6  -7   0  122.52    3.10
  -6  -7   0  122.41    3.04
  -6  -7   0  131.40    3.23
  -6  -7   0  124.79    3.00
  -6  -7   0  126.56    3.73
  -6  -7   0  136.26    3.91
  -6  -7   0  131.76    3.10
  -6  -7   0  125.63    3.47
  -7  -7   0    1.64    0.96
  -7  -7   0    1.09    1.63
  -7  -7   0    1.80    1.02
  -7  -7   0    1.49    1.64
  -7  -7   0    0.21    1.06
   3  -8   0    9.89    1.89
   3  -8   0    5.69    2.03
   3  -8   0   10.65    1.73
   3  -8   0    6.37    2.69
   3  -8   0    6.60    2.45
   3  -8   0    6.30    2.40
  -3   8   0   10.96    2.31
  -3   8   0    9.60    1.88
   2  -8   0    9.62    1.71
   2  -8   0    9.07    1.80
   2  -8   0    9.84    1.92
   2  -8   0    6.52    1.96
   2  -8   0   10.40    1.64
   2  -8   0   10.60    2.08
   2  -8   0    8.75    1.57
   2  -8   0    3.62    1.88
  -2   8   0    6.76    1.85
  -2   8   0    7.89    1.44
  -2   8   0    7.65    1.55
  -2   8   0   10.00    1.46
  -2   8   0    9.04    1.65
  -2   8   0    9.24    1.79
   1  -8   0    3.38    1.67
   1  -8   0    3.01    1.59
   1  -8   0    4.49    1.53
   1  -8   0    3.46    1.45
   1  -8   0    2.21    1.40
   1  -8   0    4.01    1.48
   1  -8   0    3.69    1.49
   1  -8   0    3.82    1.70
  -1   8   0    2.70    1.48
  -1   8   0    4.64    1.18
  -1   8   0    3.03    1.33
  -1   8   0    4.29    1.12
  -1   8   0    2.21    1.63
  -1   8   0    4.75    1.25
   0  -8   0    1.43    1.39
   0  -8   0    2.95    1.19
   0  -8   0    3.25    1.22
   0  -8   0    1.60    1.40
   0  -8   0   -0.13    1.18
   0  -8   0   -0.41    1.28
   0  -8   0    2.43    1.41
   0  -8   0    3.03    1.42
   0   8   0    1.68    1.03
   0   8   0    0.85    1.20
   0   8   0    0.56    1.04
   0   8   0    1.95    1.37
   0   8   0    3.13    1.14
   0   8   0    1.19    0.88
  -1  -8   0    3.14    1.00
  -1  -8   0    3.82    1.23
  -1  -8   0    3.69    1.05
  -1  -8   0    1.99    1.35
  -1  -8   0    2.33    1.34
  -1  -8   0    3.74    1.22
  -1  -8   0    4.56    1.36
   1   8   0    3.75    1.01
   1   8   0    3.38    0.70
   1   8   0    2.16    1.22
   1   8   0    2.95    1.01
   1   8   0    3.36    1.07
   1   8   0    2.92    0.81
  -2  -8   0    3.59    0.96
  -2  -8   0    3.30    1.13
  -2  -8   0    2.37    1.20
  -2  -8   0    2.12    0.99
  -2  -8   0    4.57    1.14
  -2  -8   0    3.17    1.26
  -2  -8   0    3.90    1.37
   2   8   0    5.22    0.93
   2   8   0    4.08    0.60
   2   8   0    3.06    0.67
   2   8   0    3.61    1.07
   2   8   0    4.01    0.90
  -3  -8   0    4.88    1.14
  -3  -8   0    3.26    1.09
  -3  -8   0    3.81    0.90
  -3  -8   0    3.01    1.02
  -3  -8   0    5.55    1.21
  -3  -8   0    2.76    1.18
  -3  -8   0    4.47    1.47
  -4  -8   0    2.79    1.57
  -4  -8   0    6.20    0.65
  -4  -8   0    4.44    1.19
  -4  -8   0    6.33    0.92
  -4  -8   0    4.85    1.25
  -4  -8   0    5.72    1.28
  -4  -8   0    3.16    1.12
  -4  -8   0    4.71    0.99
  -5  -8   0    8.11    1.45
  -5  -8   0    8.76    1.75
  -5  -8   0    9.14    1.05
  -5  -8   0    9.25    1.01
  -5  -8   0    7.63    1.26
  -5  -8   0    9.74    1.23
  -5  -8   0    8.68    1.13
  -5  -8   0    8.27    1.21
  -6  -8   0    9.68    1.42
  -6  -8   0    9.90    1.39
  -6  -8   0   10.21    1.12
   0  -9   0   -1.35    2.03
   0  -9   0    3.07    2.06
   0  -9   0    0.77    1.88
   0  -9   0    0.57    2.01
   0  -9   0   -1.39    1.74
   0  -9   0    0.60    2.67
   0   9   0    1.04    1.45
   0   9   0   -0.31    1.24
   0   9   0    1.50    1.95
  -1  -9   0   96.17    4.37
  -1  -9   0  107.26    3.75
  -1  -9   0  127.56    6.71
  -1  -9   0  120.47    4.79
  -1  -9   0   96.54    3.89
  -1  -9   0  119.25    4.20
  -1  -9   0  109.35    4.26
   1   9   0  103.22    3.40
   1   9   0  109.67    3.57
   1   9   0  112.27    3.61
   1   9   0  108.01    3.50
   1   9   0  108.81    3.02
  -2  -9   0    2.24    1.58
  -2  -9   0    2.53    1.50
  -2  -9   0    7.07    1.83
  -2  -9   0    3.19    2.01
  -2  -9   0   -0.30    1.29
  -2  -9   0    0.31    2.33
   2   9   0    2.56    1.29
   2   9   0    4.40    1.28
   2   9   0    2.85    1.07
   2   9   0    3.98    0.87
  -3  -9   0    3.12    1.44
  -3  -9   0    4.73    2.71
  -3  -9   0   -0.41    1.69
  -3  -9   0    2.17    1.86
  -3  -9   1    0.93    1.62
   2   9  -1    0.18    1.29
   2   9  -1    0.44    1.37
  -2  -9   1   -0.14    1.73
  -2  -9   1    4.90    2.85
   1   9  -1    2.99    1.42
   1   9  -1    0.69    1.79
   1   9  -1    1.94    1.15
  -1  -9   1    4.25    1.81
  -1  -9   1    5.21    3.11
  -1  -9   1    1.95    1.84
   0   9  -1    2.15    1.53
   0  -9   1    0.63    2.01
   0  -9   1    0.26    2.03
   0  -9   1   -3.27    1.90
   0  -9   1   -3.99    1.99
  -5  -8   1    3.46    1.07
  -5  -8   1    3.60    1.05
  -5  -8   1    5.12    1.26
  -5  -8   1    3.73    1.78
  -5  -8   1    6.87    1.39
  -5  -8   1    5.75    1.54
  -4  -8   1    0.10    1.27
  -4  -8   1    0.84    1.04
  -4  -8   1    1.60    1.06
  -4  -8   1    0.35    1.12
  -4  -8   1   -1.62    1.53
  -4  -8   1    0.95    1.22
  -4  -8   1   -0.24    0.65
  -4  -8   1    0.19    0.95
   3   8  -1    5.38    1.25
   3   8  -1    4.96    0.87
   3   8  -1    6.26    0.73
   3   8  -1    6.06    0.68
  -3  -8   1    5.92    1.04
  -3  -8   1    8.27    1.39
  -3  -8   1    5.54    0.49
  -3  -8   1    7.54    1.27
  -3  -8   1    5.91    1.11
  -3  -8   1    7.49    1.51
  -3  -8   1    5.32    1.17
  -3  -8   1    7.06    1.27
   2   8  -1    0.46    0.76
   2   8  -1   -0.84    0.87
   2   8  -1   -0.27    1.15
   2   8  -1    1.53    0.95
  -2  -8   1   -0.49    1.12
  -2  -8   1    0.65    1.04
  -2  -8   1   -0.73    1.38
  -2  -8   1    1.35    1.13
  -2  -8   1   -0.36    0.91
  -2  -8   1    1.20    1.23
  -2  -8   1    0.51    1.20
   1   8  -1    0.55    1.01
   1   8  -1    0.43    0.85
   1   8  -1    0.09    0.69
   1   8  -1    1.62    1.14
   1   8  -1    0.40    0.98
   1   8  -1    0.34    1.23
  -1  -8   1   -0.74    0.97
  -1  -8   1    2.15    1.09
  -1  -8   1    1.28    1.22
  -1  -8   1   -0.60    1.63
  -1  -8   1    0.96    1.32
  -1  -8   1   -0.26    1.18
  -1  -8   1    2.00    1.40
   0   8  -1    2.63    1.11
   0   8  -1    5.02    1.38
   0   8  -1    2.28    0.89
   0   8  -1    3.86    1.06
   0   8  -1    2.56    1.26
   0   8  -1    2.28    1.08
   0  -8   1    4.46    1.45
   0  -8   1    2.00    1.41
   0  -8   1    1.91    1.21
   0  -8   1    3.05    1.58
   0  -8   1    4.40    1.45
   0  -8   1    4.95    1.71
   0  -8   1    4.29    1.24
  -1   8  -1   36.17    2.28
  -1   8  -1   42.96    2.33
  -1   8  -1   44.01    3.01
  -1   8  -1   42.04    2.20
  -1   8  -1   37.23    2.48
  -1   8  -1   35.24    2.81
   1  -8   1   41.92    3.28
   1  -8   1   38.73    2.72
   1  -8   1   42.29    3.12
   1  -8   1   39.22    2.79
   1  -8   1   39.93    2.74
   1  -8   1   42.20    2.75
   1  -8   1   37.74    2.66
   1  -8   1   42.80    3.06
  -2   8  -1    1.24    1.44
  -2   8  -1    1.45    1.87
  -2   8  -1    1.34    1.64
  -2   8  -1    2.98    1.42
  -2   8  -1    2.95    1.33
  -2   8  -1    1.90    1.84
   2  -8   1    0.56    1.60
   2  -8   1    1.63    1.58
   2  -8   1    2.05    1.63
   2  -8   1   -1.30    1.91
   2  -8   1    1.86    1.55
   2  -8   1    1.54    1.95
   2  -8   1    0.62    2.02
   2  -8   1    5.09    1.74
  -3   8  -1    5.25    2.21
  -3   8  -1    4.06    1.83
   3  -8   1    4.02    1.83
   3  -8   1    2.76    2.27
   3  -8   1    2.33    1.62
   3  -8   1    5.76    2.61
   3  -8   1    4.55    1.99
   3  -8   1    3.32    2.64
  -6  -7   1    4.30    1.41
  -6  -7   1    4.97    1.06
  -6  -7   1    2.88    1.52
  -6  -7   1    3.60    0.93
  -6  -7   1    3.92    0.97
  -6  -7   1    5.84    1.21
  -5  -7   1    6.17    1.20
  -5  -7   1    5.97    1.00
  -5  -7   1    6.19    1.36
  -5  -7   1    5.02    0.97
  -5  -7   1    5.13    0.91
  -5  -7   1    6.43    0.85
  -5  -7   1    5.30    0.75
  -5  -7   1    7.15    0.93
  -4  -7   1   65.99    2.06
  -4  -7   1   65.69    1.91
  -4  -7   1   69.41    2.25
  -4  -7   1   64.28    2.68
  -4  -7   1   66.73    2.37
  -4  -7   1   64.08    2.05
  -4  -7   1   62.56    2.09
  -4  -7   1   62.92    1.84
   3   7  -1   31.59    1.12
   3   7  -1   31.63    1.11
   3   7  -1   30.30    1.47
   3   7  -1   31.19    1.31
  -3  -7   1   30.67    1.56
  -3  -7   1   31.51    1.82
  -3  -7   1   30.67    1.61
  -3  -7   1   32.71    1.69
  -3  -7   1   33.71    1.73
  -3  -7   1   34.93    2.12
  -3  -7   1   31.56    1.30
  -3  -7   1   32.15    1.42
   2   7  -1   25.06    1.63
   2   7  -1   26.70    1.40
   2   7  -1   22.64    1.48
   2   7  -1   26.48    1.16
   2   7  -1   24.50    1.01
  -2  -7   1   27.32    1.94
  -2  -7   1   25.92    1.59
  -2  -7   1   27.30    1.40
  -2  -7   1   27.76    1.64
  -2  -7   1   25.14    1.60
  -2  -7   1   21.50    1.64
  -2  -7   1   24.29    1.75
   1   7  -1    0.17    0.54
   1   7  -1    0.82    0.63
   1   7  -1    0.69    0.81
   1   7  -1    1.40    0.91
   1   7  -1    0.42    0.89
   1   7  -1   -0.64    0.97
  -1  -7   1    0.35    0.85
  -1  -7   1    0.30    0.99
  -1  -7   1    0.88    0.86
  -1  -7   1    1.54    0.80
  -1  -7   1    1.13    0.90
  -1  -7   1    0.97    0.98
  -1  -7   1    0.82    0.76
   0   7  -1   20.99    1.49
   0   7  -1   20.61    1.44
   0   7  -1   20.40    1.55
   0   7  -1   21.19    1.85
   0   7  -1   16.59    1.27
   0   7  -1   19.85    1.32
   0  -7   1   22.92    1.86
   0  -7   1   22.90    1.91
   0  -7   1   22.81    1.83
   0  -7   1   20.49    1.63
   0  -7   1   19.13    1.25
   0  -7   1   22.02    1.41
   0  -7   1   20.96    1.37
  -1   7  -1    5.73    1.25
  -1   7  -1    5.76    0.99
  -1   7  -1    3.95    0.98
  -1   7  -1    5.14    0.93
   1  -7   1    5.87    1.06
   1  -7   1    6.38    1.36
   1  -7   1    5.62    1.12
   1  -7   1    5.30    1.20
   1  -7   1    3.87    1.13
   1  -7   1    6.84    1.22
   1  -7   1    5.97    1.33
  -2   7  -1   -1.04    1.07
  -2   7  -1   -0.18    1.29
  -2   7  -1   -0.65    0.95
  -2   7  -1    0.57    1.19
  -2   7  -1    0.94    1.14
  -2   7  -1    0.12    1.32
   2  -7   1    1.37    1.29
   2  -7   1   -1.83    0.98
   2  -7   1    0.07    1.11
   2  -7   1   -0.08    1.36
   2  -7   1   -0.68    1.08
   2  -7   1   -1.34    1.24
   2  -7   1   -0.80    1.12
   2  -7   1   -0.58    1.08
  -3   7  -1    3.30    1.22
  -3   7  -1    0.51    1.24
  -3   7  -1    1.12    1.63
  -3   7  -1    2.84    1.20
  -3   7  -1    0.38    1.52
  -3   7  -1    0.97    1.32
   3  -7   1    1.73    1.49
   3  -7   1    0.37    1.71
   3  -7   1    3.04    1.55
   3  -7   1    5.27    1.80
   3  -7   1    3.09    1.59
   3  -7   1    0.49    1.35
   3  -7   1   -0.20    1.22
   3  -7   1    1.32    1.16
  -4   7  -1    6.15    2.17
  -4   7  -1    6.87    1.97
  -4   7  -1    6.51    1.92
  -4   7  -1    5.24    1.75
  -4   7  -1    5.82    1.51
  -4   7  -1    3.43    1.75
   4  -7   1    3.79    2.12
   4  -7   1    3.41    2.25
   4  -7   1    3.07    1.49
   4  -7   1    4.41    2.07
   4  -7   1    7.11    1.46
   4  -7   1    5.49    1.34
   4  -7   1    6.74    2.01
   4  -7   1    5.02    2.10
  -7  -6   1  103.97    2.75
  -7  -6   1  101.85    3.45
  -7  -6   1  106.77    3.74
  -7  -6   1  107.61    3.44
  -7  -6   1  109.91    2.87
  -7  -6   1  114.11    3.64
  -7  -6   1  112.63    2.97
  -6  -6   1   27.40    1.45
  -6  -6   1   30.18    2.09
  -6  -6   1   26.29    1.38
  -6  -6   1   27.38    1.37
  -6  -6   1   30.53    2.11
  -6  -6   1   28.85    2.21
  -6  -6   1   27.83    1.98
  -5  -6   1   15.14    1.01
  -5  -6   1   13.55    1.04
  -5  -6   1   15.93    0.87
  -5  -6   1   17.09    1.15
  -5  -6   1   14.31    1.12
  -5  -6   1   15.07    1.20
  -5  -6   1   15.40    1.21
  -5  -6   1   14.34    1.15
  -5  -6   1   15.80    1.24
  -4  -6   1   57.39    1.61
  -4  -6   1   59.70    2.18
  -4  -6   1   59.01    1.80
  -4  -6   1   55.78    1.71
  -4  -6   1   57.05    1.94
  -4  -6   1   59.11    1.66
  -4  -6   1   57.79    1.74
  -4  -6   1   54.40    1.66
   3   6  -1    1.27    0.61
   3   6  -1    1.50    0.52
   3   6  -1    1.19    0.41
   3   6  -1    1.38    0.39
  -3  -6   1    1.62    0.65
  -3  -6   1    1.04    0.63
  -3  -6   1    0.46    0.53
  -3  -6   1    0.71    0.76
  -3  -6   1    1.51    0.59
  -3  -6   1    1.20    0.60
  -3  -6   1    0.92    0.44
  -3  -6   1    1.96    0.52
   2   6  -1    0.72    0.43
   2   6  -1    0.52    0.77
   2   6  -1    1.13    0.68
   2   6  -1    1.39    0.53
   2   6  -1    0.99    0.36
  -2  -6   1    0.96    0.59
  -2  -6   1    0.74    0.30
  -2  -6   1    1.29    0.61
  -2  -6   1    1.09    0.60
  -2  -6   1    0.09    0.55
  -2  -6   1    1.05    0.73
  -2  -6   1    0.14    0.67
  -2  -6   1    1.09    0.64
   1   6  -1   78.30    1.97
   1   6  -1   75.61    1.87
   1   6  -1   78.49    2.23
   1   6  -1   75.94    2.04
  -1  -6   1   77.65    2.17
  -1  -6   1   79.32    2.21
  -1  -6   1   76.02    2.13
  -1  -6   1   77.69    2.85
  -1  -6   1   70.23    2.53
  -1  -6   1   75.64    2.15
   0   6  -1    7.13    0.67
   0   6  -1    5.51    0.66
   0   6  -1    6.44    0.93
   0   6  -1    5.40    0.72
   0   6  -1    7.13    0.77
   0  -6   1    6.82    0.87
   0  -6   1    7.88    0.85
   0  -6   1    6.03    0.81
   0  -6   1    5.22    0.86
   0  -6   1    7.57    0.86
   0  -6   1    6.80    0.75
   0  -6   1    5.73    0.92
  -1   6  -1   43.09    2.13
  -1   6  -1   52.41    1.91
  -1   6  -1   51.33    1.72
  -1   6  -1   43.46    3.04
  -1   6  -1   55.29    2.08
  -1   6  -1   52.34    1.77
   1  -6   1   50.61    1.83
   1  -6   1   52.31    2.01
   1  -6   1   55.27    2.11
   1  -6   1   52.67    2.59
   1  -6   1   54.08    2.06
   1  -6   1   51.86    2.21
   1  -6   1   52.27    1.91
  -2   6  -1   27.81    2.04
  -2   6  -1   31.25    1.86
  -2   6  -1   29.25    1.62
  -2   6  -1   29.37    1.74
  -2   6  -1   30.25    1.94
  -2   6  -1   29.73    1.54
   2  -6   1   29.94    1.95
   2  -6   1   27.20    1.78
   2  -6   1   30.60    1.62
   2  -6   1   30.13    1.99
   2  -6   1   30.63    2.05
   2  -6   1   30.26    1.64
   2  -6   1   28.26    1.90
   2  -6   1   30.95    2.00
  -3   6  -1    6.72    0.94
  -3   6  -1    5.58    1.38
  -3   6  -1    8.75    1.14
  -3   6  -1    7.31    1.29
  -3   6  -1    6.70    1.33
  -3   6  -1    6.09    1.13
   3  -6   1    6.62    1.24
   3  -6   1   10.10    1.60
   3  -6   1    7.45    1.00
   3  -6   1    8.38    1.31
   3  -6   1    8.02    1.34
   3  -6   1    6.95    1.01
   3  -6   1    7.55    1.43
   3  -6   1    7.91    1.15
  -4   6  -1   -0.93    0.47
  -4   6  -1    1.40    1.30
  -4   6  -1    0.07    1.20
  -4   6  -1    0.23    1.07
  -4   6  -1   -1.57    1.55
  -4   6  -1   -0.40    0.56
  -4   6  -1    2.72    1.54
  -4   6  -1   -1.06    1.44
   4  -6   1    0.20    1.34
   4  -6   1    0.08    1.34
   4  -6   1   -1.39    0.85
   4  -6   1    1.16    1.43
   4  -6   1    1.23    0.98
   4  -6   1   -0.96    1.18
   4  -6   1    1.79    1.39
   4  -6   1    2.36    1.66
  -5   6  -1   16.32    1.97
  -5   6  -1   25.53    2.40
  -5   6  -1   14.25    1.90
  -5   6  -1   16.31    1.76
  -5   6  -1   19.60    1.35
  -5   6  -1   18.53    2.29
  -5   6  -1   18.50    1.49
  -5   6  -1   14.22    1.50
   5  -6   1   19.25    2.13
   5  -6   1   15.55    2.22
   5  -6   1   17.18    2.04
   5  -6   1   20.12    2.24
   5  -6   1   18.84    1.18
   5  -6   1   16.33    1.71
   5  -6   1   17.71    2.01
   5  -6   1   19.72    1.31
  -8  -5   1   73.25    2.30
  -8  -5   1   81.05    3.00
  -8  -5   1   80.28    2.56
  -8  -5   1   77.48    3.68
  -8  -5   1   81.13    2.90
  -7  -5   1    0.47    1.03
  -7  -5   1    0.41    0.70
  -7  -5   1    0.16    0.76
  -7  -5   1   -0.41    1.26
  -7  -5   1    0.55    0.84
  -7  -5   1    1.54    1.14
  -7  -5   1    0.08    1.26
  -6  -5   1   79.97    2.47
  -6  -5   1   84.35    2.04
  -6  -5   1   80.13    2.48
  -6  -5   1   83.72    2.66
  -6  -5   1   81.44    2.63
  -6  -5   1   79.41    2.14
  -6  -5   1   83.02    2.12
  -5  -5   1   62.71    2.03
  -5  -5   1   61.64    1.59
  -5  -5   1   63.12    1.96
  -5  -5   1   61.20    1.62
  -5  -5   1   62.84    1.68
  -5  -5   1   62.08    1.52
  -5  -5   1   58.39    2.00
  -5  -5   1   61.33    1.50
  -4  -5   1    1.46    0.58
  -4  -5   1    2.21    0.48
  -4  -5   1    1.13    0.47
  -4  -5   1    1.51    0.68
  -4  -5   1    1.14    0.56
  -4  -5   1    1.56    0.43
  -4  -5   1    1.89    0.43
   3   5  -1    0.25    0.31
   3   5  -1   -0.34    0.59
   3   5  -1   -0.47    0.32
   3   5  -1   -0.23    0.39
   3   5  -1    0.23    0.47
  -3  -5   1   -0.48    0.59
  -3  -5   1    0.17    0.41
  -3  -5   1    0.62    0.51
  -3  -5   1   -0.08    0.39
  -3  -5   1   -0.28    0.39
  -3  -5   1    0.08    0.42
  -3  -5   1    0.71    0.39
  -3  -5   1   -0.72    0.37
   2   5  -1    2.68    0.42
   2   5  -1    2.21    0.50
   2   5  -1    2.93    0.39
   2   5  -1    2.14    0.53
   2   5  -1    2.23    0.50
  -2  -5   1    2.61    0.49
  -2  -5   1    2.53    0.31
  -2  -5   1    2.27    0.45
  -2  -5   1    1.70    0.56
  -2  -5   1    2.08    0.48
  -2  -5   1    2.43    0.46
  -2  -5   1    2.15    0.47
  -2  -5   1    2.70    0.49
   1   5  -1   31.49    1.03
   1   5  -1   31.35    1.10
   1   5  -1   31.08    0.95
   1   5  -1   29.66    1.23
   1   5  -1   30.61    1.10
   1   5  -1   29.17    1.26
   1   5  -1   31.19    0.90
  -1  -5   1   30.39    1.16
  -1  -5   1   30.13    1.15
  -1  -5   1   31.12    1.29
  -1  -5   1   30.18    1.15
  -1  -5   1   30.15    1.25
  -1  -5   1   31.38    0.73
  -1  -5   1   29.38    1.21
  -1  -5   1   31.99    1.12
   0   5  -1   36.12    1.29
   0   5  -1   36.41    1.48
   0   5  -1   35.96    1.25
   0   5  -1   36.05    1.17
   0   5  -1   35.62    1.23
   0   5  -1   34.50    1.44
   0  -5   1   35.03    1.37
   0  -5   1   36.42    1.38
   0  -5   1   38.34    1.37
   0  -5   1   37.08    1.44
   0  -5   1   36.78    1.35
   0  -5   1   36.22    1.47
   0  -5   1   36.22    1.24
  -1   5  -1    1.09    0.52
  -1   5  -1    0.38    0.67
  -1   5  -1    1.05    0.69
  -1   5  -1    0.65    0.56
  -1   5  -1    0.16    0.47
  -1   5  -1   -0.02    0.51
   1  -5   1    1.22    0.63
   1  -5   1    0.27    0.55
   1  -5   1    0.99    0.69
   1  -5   1    0.80    0.61
   1  -5   1    1.05    0.59
   1  -5   1    1.45    0.64
   1  -5   1    1.10    0.52
  -2   5  -1  685.79   14.00
  -2   5  -1  697.09   14.18
  -2   5  -1  700.98   14.27
  -2   5  -1  681.31   14.03
  -2   5  -1  685.62   14.09
  -2   5  -1  701.76   14.18
   2  -5   1  685.39   14.25
   2  -5   1  683.59   14.29
   2  -5   1  685.85   14.12
   2  -5   1  697.71   14.15
   2  -5   1  692.45   14.16
   2  -5   1  678.77   13.98
   2  -5   1  680.32   14.04
  -3   5  -1   78.71    2.62
  -3   5  -1   76.21    2.20
  -3   5  -1   78.45    2.59
  -3   5  -1   76.15    1.84
  -3   5  -1   76.30    1.75
  -3   5  -1   78.57    2.38
  -3   5  -1   75.55    2.35
  -3   5  -1   80.78    2.61
   3  -5   1   78.47    2.33
   3  -5   1   78.00    2.15
   3  -5   1   75.15    2.59
   3  -5   1   77.03    2.72
   3  -5   1   79.80    2.67
   3  -5   1   77.94    2.53
   3  -5   1   78.12    2.16
   3  -5   1   75.59    2.45
  -4   5  -1   55.76    1.54
  -4   5  -1   56.28    2.67
  -4   5  -1   55.54    2.25
  -4   5  -1   52.65    1.63
  -4   5  -1   53.76    2.02
  -4   5  -1   53.11    2.19
  -4   5  -1   48.14    2.56
  -4   5  -1   52.81    2.58
   4  -5   1   54.25    2.62
   4  -5   1   53.50    1.81
   4  -5   1   51.11    1.69
   4  -5   1   56.40    2.40
   4  -5   1   53.29    2.10
   4  -5   1   45.93    2.50
   4  -5   1   50.72    2.70
   4  -5   1   53.63    2.32
  -5   5  -1   62.37    3.20
  -5   5  -1   64.90    2.65
  -5   5  -1   64.24    3.17
  -5   5  -1   61.95    2.79
  -5   5  -1   61.80    2.06
  -5   5  -1   62.37    1.96
  -5   5  -1   62.11    3.66
  -5   5  -1   61.78    2.44
   5  -5   1   62.86    3.18
   5  -5   1   63.30    1.94
   5  -5   1   61.67    3.17
   5  -5   1   61.02    1.80
   5  -5   1   49.40    4.60
   5  -5   1   64.40    2.94
   5  -5   1   61.63    2.84
   5  -5   1   55.79    2.51
  -6   5  -1    0.62    1.11
  -6   5  -1   -0.07    1.41
  -6   5  -1   -1.62    1.90
  -6   5  -1   -1.15    1.92
  -6   5  -1   -1.06    1.38
  -6   5  -1   -0.58    2.18
  -6   5  -1   -1.72    1.32
  -6   5  -1   -0.57    1.56
   6  -5   1    0.08    1.76
   6  -5   1   -1.26    1.72
   6  -5   1    0.33    1.82
   6  -5   1    0.92    0.66
   6  -5   1    0.08    1.64
   6  -5   1   -0.12    0.77
   6  -5   1    0.96    1.59
  -8  -4   1   16.39    1.84
  -8  -4   1   17.59    1.17
  -8  -4   1   19.15    1.87
  -8  -4   1   18.61    1.49
  -8  -4   1   18.25    1.73
  -8  -4   1   18.03    1.27
  -7  -4   1    0.01    0.73
  -7  -4   1   -0.57    0.82
  -7  -4   1   -0.29    1.10
  -7  -4   1    0.87    0.83
  -7  -4   1   -1.40    1.16
  -7  -4   1   -0.97    0.67
  -6  -4   1    3.69    0.40
  -6  -4   1    4.74    0.65
  -6  -4   1    3.86    0.97
  -6  -4   1    5.01    0.65
  -6  -4   1    3.59    0.85
  -6  -4   1    4.32    0.74
  -6  -4   1    5.53    0.58
  -6  -4   1    4.54    0.44
  -5  -4   1    8.23    0.72
  -5  -4   1    9.47    0.57
  -5  -4   1    9.41    0.61
  -5  -4   1    7.97    1.41
  -5  -4   1   11.16    0.79
  -5  -4   1    9.62    0.79
  -5  -4   1    8.53    0.86
   4   4  -1   52.77    1.25
   4   4  -1   51.36    1.23
   4   4  -1   49.56    1.23
   4   4  -1   51.80    1.75
   4   4  -1   50.55    1.25
  -4  -4   1   52.26    1.51
  -4  -4   1   50.89    1.36
  -4  -4   1   49.88    1.57
  -4  -4   1   50.72    1.33
  -4  -4   1   49.06    1.56
  -4  -4   1   51.45    1.28
  -4  -4   1   50.25    1.29
  -4  -4   1   50.94    1.22
  -4  -4   1   50.31    1.21
   3   4  -1   44.79    1.18
   3   4  -1   44.20    1.44
   3   4  -1   45.37    1.12
   3   4  -1   44.18    1.09
   3   4  -1   45.53    1.19
  -3  -4   1   45.05    1.21
  -3  -4   1   43.62    1.27
  -3  -4   1   44.10    1.14
  -3  -4   1   46.58    1.15
  -3  -4   1   43.18    1.41
  -3  -4   1   43.98    1.19
  -3  -4   1   44.18    1.15
  -3  -4   1   45.62    1.30
   2   4  -1  126.21    2.74
   2   4  -1  127.11    2.67
   2   4  -1  122.53    2.61
   2   4  -1  125.49    2.76
   2   4  -1  125.33    2.76
   2   4  -1  127.72    2.66
  -2  -4   1  122.56    2.75
  -2  -4   1  120.70    2.78
  -2  -4   1  125.80    2.71
  -2  -4   1  126.34    2.70
  -2  -4   1  122.39    2.87
  -2  -4   1  124.10    2.66
  -2  -4   1  126.24    2.71
  -2  -4   1  124.38    2.76
   1   4  -1  369.34    7.57
   1   4  -1  371.85    7.61
   1   4  -1  381.77    7.57
   1   4  -1  366.91    7.51
   1   4  -1  372.82    7.63
   1   4  -1  366.55    7.66
   1   4  -1  373.04    7.49
  -1  -4   1  379.41    7.71
  -1  -4   1  369.20    7.66
  -1  -4   1  377.95    7.67
  -1  -4   1  371.79    7.61
  -1  -4   1  374.69    7.61
  -1  -4   1  378.01    7.60
  -1  -4   1  363.82    7.44
  -1  -4   1  368.59    7.62
   0   4  -1  127.46    2.86
   0   4  -1  127.74    2.80
   0   4  -1  127.88    2.97
   0   4  -1  128.35    2.84
   0  -4   1  129.43    2.91
   0  -4   1  127.06    2.90
   0  -4   1  131.01    2.89
   0  -4   1  127.26    2.97
   0  -4   1  131.34    2.91
   0  -4   1  129.71    2.96
   0  -4   1  125.96    2.84
   0  -4   1  126.21    2.59
  -1   4  -1   31.52    1.14
  -1   4  -1   33.57    1.06
  -1   4  -1   30.63    1.09
  -1   4  -1   33.61    1.21
  -1   4  -1   33.89    1.28
  -1   4  -1   32.92    1.32
   1  -4   1   30.60    1.28
   1  -4   1   33.60    1.12
   1  -4   1   31.85    1.27
   1  -4   1   31.45    1.07
   1  -4   1   32.22    1.29
   1  -4   1   33.33    1.22
   1  -4   1   32.64    1.21
  -2   4  -1   70.82    1.63
  -2   4  -1   70.50    2.08
  -2   4  -1   70.20    1.94
  -2   4  -1   70.49    2.04
  -2   4  -1   71.85    1.83
  -2   4  -1   68.01    1.90
  -2   4  -1   70.60    1.54
  -2   4  -1   70.58    2.14
   2  -4   1   69.80    2.11
   2  -4   1   71.14    1.82
   2  -4   1   74.08    1.88
   2  -4   1   70.90    1.99
   2  -4   1   72.31    2.11
   2  -4   1   72.33    2.05
   2  -4   1   69.11    1.99
  -3   4  -1   26.13    1.60
  -3   4  -1   27.35    1.32
  -3   4  -1   35.46    2.07
  -3   4  -1   25.33    1.52
  -3   4  -1   24.36    0.88
  -3   4  -1   26.50    1.15
  -3   4  -1   26.78    1.33
  -3   4  -1   25.90    1.02
   3  -4   1   25.54    1.37
   3  -4   1   23.03    1.79
   3  -4   1   24.71    1.50
   3  -4   1   24.79    1.07
   3  -4   1   25.62    1.07
   3  -4   1   25.52    1.44
   3  -4   1   26.31    1.52
   3  -4   1   25.73    1.26
  -4   4  -1   94.09    2.69
  -4   4  -1   94.89    2.42
  -4   4  -1   98.39    2.56
  -4   4  -1  101.29    2.99
  -4   4  -1   95.29    2.33
  -4   4  -1   97.81    2.94
  -4   4  -1   95.46    2.70
   4  -4   1   99.12    2.96
   4  -4   1   94.44    2.27
   4  -4   1   96.72    2.79
   4  -4   1   96.29    2.97
   4  -4   1   99.44    2.92
   4  -4   1   97.60    2.32
   4  -4   1   97.73    2.63
  -5   4  -1    0.43    0.93
  -5   4  -1   -0.41    0.76
  -5   4  -1    1.20    1.14
  -5   4  -1   -1.77    1.12
  -5   4  -1    0.47    0.87
  -5   4  -1   -0.62    1.13
  -5   4  -1   -0.42    0.74
  -5   4  -1   -1.25    1.01
   5  -4   1    0.68    1.05
   5  -4   1    0.01    1.08
   5  -4   1    0.46    0.57
   5  -4   1   -0.43    1.14
   5  -4   1   -0.75    1.18
   5  -4   1   -1.00    0.92
   5  -4   1    0.66    0.95
   5  -4   1    0.04    0.44
  -6   4  -1   49.18    4.01
  -6   4  -1   48.41    2.16
  -6   4  -1   48.27    2.33
  -6   4  -1   42.78    2.54
  -6   4  -1   49.38    2.81
  -6   4  -1   47.62    2.88
   6  -4   1   50.11    3.06
   6  -4   1   50.85    2.97
   6  -4   1   51.45    2.70
   6  -4   1   48.29    2.47
   6  -4   1   50.94    2.79
  -7   4  -1   51.54    3.80
  -7   4  -1   54.54    3.85
  -7   4  -1   48.53    2.79
  -7   4  -1   45.61    2.77
  -7   4  -1   47.58    4.34
  -7   4  -1   45.96    3.22
  -7   4  -1   44.60    2.96
  -7   4  -1   46.66    3.40
   7  -4   1   45.37    3.69
   7  -4   1   40.66    3.11
   7  -4   1   50.69    3.28
   7  -4   1   53.25    3.74
   7  -4   1   50.24    3.44
   8   3  -1   29.02    1.66
   8   3  -1   34.71    1.36
   8   3  -1   29.79    1.20
   8   3  -1   31.66    1.30
  -8  -3   1   35.82    1.65
  -8  -3   1   30.70    1.43
  -8  -3   1   31.24    1.97
  -8  -3   1   30.65    2.59
  -8  -3   1   33.28    2.88
  -8  -3   1   29.94    2.05
  -8  -3   1   31.54    1.87
  -8  -3   1   34.31    2.23
   7   3  -1   20.87    0.98
   7   3  -1   20.50    1.35
   7   3  -1   19.85    1.02
   7   3  -1   21.74    1.17
  -7  -3   1   21.86    1.88
  -7  -3   1   21.54    1.04
  -7  -3   1   21.18    1.47
  -7  -3   1   22.95    1.36
  -7  -3   1   21.76    1.52
  -7  -3   1   20.07    1.27
  -7  -3   1   18.08    1.47
   6   3  -1    4.33    0.73
   6   3  -1    4.77    0.46
   6   3  -1    4.19    0.58
   6   3  -1    4.62    0.63
   6   3  -1    4.55    0.48
  -6  -3   1    4.44    0.66
  -6  -3   1    4.83    0.87
  -6  -3   1    5.19    0.50
  -6  -3   1    4.96    0.66
  -6  -3   1    5.11    0.57
  -6  -3   1    4.54    0.62
  -6  -3   1    3.32    0.90
   5   3  -1    9.46    0.75
   5   3  -1   10.59    0.78
   5   3  -1    9.58    0.63
   5   3  -1   10.11    0.62
   5   3  -1    9.66    0.59
   5   3  -1    9.19    0.93
  -5  -3   1    9.25    0.65
  -5  -3   1    9.89    0.71
  -5  -3   1   10.45    0.77
  -5  -3   1    9.82    0.50
  -5  -3   1    9.82    0.79
  -5  -3   1    9.71    0.83
  -5  -3   1    9.49    0.76
  -5  -3   1   10.34    0.61
   4   3  -1   17.54    0.66
   4   3  -1   17.80    1.16
   4   3  -1   18.16    0.66
   4   3  -1   18.47    0.95
   4   3  -1   17.38    0.76
   4   3  -1   18.54    0.73
  -4  -3   1   18.62    0.86
  -4  -3   1   17.33    0.68
  -4  -3   1   18.27    0.73
  -4  -3   1   18.57    0.94
  -4  -3   1   18.34    1.02
  -4  -3   1   17.90    0.58
  -4  -3   1   17.12    0.56
  -4  -3   1   18.14    0.69
   3   3  -1  171.35    3.53
   3   3  -1  170.51    3.51
   3   3  -1  170.96    3.71
   3   3  -1  174.88    3.74
   3   3  -1  170.06    3.50
   3   3  -1  166.81    3.53
  -3  -3   1  168.54    3.50
  -3  -3   1  169.30    3.66
  -3  -3   1  168.65    3.64
  -3  -3   1  167.83    3.46
  -3  -3   1  170.34    3.67
  -3  -3   1  168.89    3.55
  -3  -3   1  172.45    3.57
  -3  -3   1  168.95    3.46
  -3  -3   1  170.12    3.52
   2   3  -1  327.29    6.64
   2   3  -1  333.08    6.60
   2   3  -1  330.15    6.62
   2   3  -1  329.96    6.69
   2   3  -1  321.41    6.56
   2   3  -1  327.86    6.77
   2   3  -1  324.70    6.56
  -2  -3   1  324.33    6.64
  -2  -3   1  322.98    6.58
  -2  -3   1  334.05    6.74
  -2  -3   1  324.74    6.68
  -2  -3   1  325.90    6.61
  -2  -3   1  325.78    6.59
  -2  -3   1  325.68    6.63
  -2  -3   1  327.53    6.64
   1   3  -1    3.66    0.34
   1   3  -1    3.36    0.29
   1   3  -1    4.46    0.38
   1   3  -1    4.38    0.39
   1   3  -1    4.69    0.31
   1   3  -1    4.52    0.41
   1   3  -1    4.53    0.32
   1   3  -1    4.44    0.33
  -1  -3   1    4.30    0.40
  -1  -3   1    4.67    0.45
  -1  -3   1    3.83    0.32
  -1  -3   1    4.25    0.33
  -1  -3   1    4.86    0.41
  -1  -3   1    4.06    0.32
  -1  -3   1    4.69    0.46
  -1  -3   1    4.13    0.29
   0   3  -1   99.07    2.13
   0   3  -1   99.12    2.26
   0   3  -1   97.27    1.99
   0   3  -1   98.46    2.15
   0   3  -1   98.24    2.16
   0  -3   1   96.78    2.19
   0  -3   1   94.70    2.23
   0  -3   1   95.77    1.98
   0  -3   1   95.94    2.15
   0  -3   1   98.51    2.21
   0  -3   1   97.33    2.20
   0  -3   1   96.32    2.24
   0  -3   1   98.61    2.18
  -1   3  -1  644.57   12.96
  -1   3  -1  670.10   13.06
  -1   3  -1  638.64   13.01
  -1   3  -1  643.35   13.10
  -1   3  -1  642.54   12.98
  -1   3  -1  633.56   12.78
  -1   3  -1  652.28   13.05
   1  -3   1  648.10   13.01
   1  -3   1  642.70   13.02
   1  -3   1  651.67   13.04
   1  -3   1  633.38   12.97
   1  -3   1  642.02   13.10
   1  -3   1  651.55   13.10
   1  -3   1  647.89   12.96
  -2   3  -1   11.96    0.94
  -2   3  -1   12.67    0.90
  -2   3  -1   14.35    0.69
  -2   3  -1   11.80    0.77
  -2   3  -1   12.38    0.50
  -2   3  -1   11.52    0.78
  -2   3  -1   13.14    0.96
   2  -3   1   11.90    0.65
   2  -3   1   12.31    0.70
   2  -3   1   11.94    0.91
   2  -3   1   12.70    0.90
   2  -3   1   17.38    1.22
   2  -3   1   12.83    0.94
   2  -3   1   11.97    0.83
  -3   3  -1   34.13    1.30
  -3   3  -1   31.73    1.09
  -3   3  -1   34.51    1.46
  -3   3  -1   30.22    1.41
  -3   3  -1   33.82    1.47
  -3   3  -1   32.46    1.02
  -3   3  -1   33.87    1.28
  -3   3  -1   32.51    1.14
   3  -3   1   35.55    1.39
   3  -3   1   32.56    1.47
   3  -3   1   34.56    1.41
   3  -3   1   32.37    1.27
   3  -3   1   33.02    0.98
   3  -3   1   32.15    1.18
   3  -3   1   32.03    1.27
   3  -3   1   32.33    1.00
  -4   3  -1    2.39    0.67
  -4   3  -1    1.86    0.58
  -4   3  -1    2.65    0.58
  -4   3  -1    2.34    0.77
  -4   3  -1    2.57    0.74
  -4   3  -1    2.37    0.71
  -4   3  -1    2.84    0.86
   4  -3   1    2.10    0.73
   4  -3   1    3.01    0.61
   4  -3   1    2.19    0.41
   4  -3   1    3.03    0.74
   4  -3   1    2.23    0.66
   4  -3   1    2.37    0.36
   4  -3   1    3.07    0.78
   4  -3   1    2.90    0.78
  -5   3  -1    6.66    0.83
  -5   3  -1    7.18    0.86
  -5   3  -1    7.64    0.97
  -5   3  -1    8.56    1.13
  -5   3  -1    7.16    1.10
  -5   3  -1    5.87    0.96
  -5   3  -1    6.29    1.08
   5  -3   1    5.05    1.00
   5  -3   1    6.89    0.49
   5  -3   1    6.37    0.93
   5  -3   1    7.12    0.51
   5  -3   1    6.91    0.92
   5  -3   1    5.61    1.04
   5  -3   1    5.71    0.92
  -6   3  -1   20.29    1.69
  -6   3  -1   23.16    2.16
  -6   3  -1   21.07    1.49
  -6   3  -1   21.02    1.79
  -6   3  -1   15.09    2.34
  -6   3  -1   19.84    1.36
   6  -3   1   21.81    1.81
   6  -3   1   17.89    1.40
   6  -3   1   17.54    1.38
   6  -3   1   20.43    1.39
   6  -3   1   24.17    1.66
  -7   3  -1   27.65    1.84
  -7   3  -1   25.37    1.88
  -7   3  -1   26.92    2.25
  -7   3  -1   28.08    2.40
  -7   3  -1   30.22    2.06
  -7   3  -1   28.64    2.07
  -7   3  -1   23.96    1.64
   7  -3   1   24.77    1.63
   7  -3   1   24.40    1.90
   7  -3   1   28.36    2.07
   7  -3   1   28.41    1.89
   7  -3   1   29.78    1.88
  -8   3  -1   64.57    5.04
  -8   3  -1   59.10    3.72
  -8   3  -1   69.86    3.51
  -8   3  -1   64.40    4.07
  -8   3  -1   66.29    4.06
  -8   3  -1   65.78    4.48
   8  -3   1   73.20    4.57
   8  -3   1   65.65    3.96
   9   2  -1    0.33    1.24
   9   2  -1   -0.89    0.97
  -9  -2   1    0.99    1.25
  -9  -2   1    0.44    0.98
   8   2  -1    8.93    1.24
   8   2  -1    8.91    0.86
   8   2  -1    9.34    1.10
   8   2  -1    8.83    0.85
  -8  -2   1    7.07    1.50
  -8  -2   1   10.46    1.75
  -8  -2   1    7.54    1.30
  -8  -2   1    6.47    1.59
  -8  -2   1    8.44    1.12
  -8  -2   1    9.87    0.94
  -8  -2   1   10.42    1.20
  -8  -2   1    8.30    0.81
   7   2  -1    0.72    0.87
   7   2  -1    0.25    0.73
   7   2  -1   -0.11    0.59
   7   2  -1    0.57    0.57
   7   2  -1    1.11    0.73
  -7  -2   1    0.00    0.94
  -7  -2   1    1.35    1.13
  -7  -2   1    1.41    0.58
  -7  -2   1    0.37    0.76
  -7  -2   1   -1.00    0.77
  -7  -2   1    0.92    0.80
  -7  -2   1   -1.16    1.02
  -7  -2   1   -0.15    0.62
   6   2  -1   11.76    0.91
   6   2  -1   16.62    1.07
   6   2  -1   14.17    1.21
   6   2  -1   15.53    0.84
   6   2  -1   14.12    1.12
  -6  -2   1   14.66    0.90
  -6  -2   1   15.14    0.93
  -6  -2   1   14.89    1.12
  -6  -2   1   11.89    0.92
  -6  -2   1   15.70    1.15
  -6  -2   1   15.90    1.12
  -6  -2   1   16.55    1.14
   5   2  -1  191.12    4.09
   5   2  -1  190.86    3.98
   5   2  -1  193.27    4.07
   5   2  -1  188.40    4.08
   5   2  -1  187.59    4.38
   5   2  -1  190.20    3.93
  -5  -2   1  186.52    4.05
  -5  -2   1  188.16    4.00
  -5  -2   1  185.34    4.19
  -5  -2   1  186.60    3.94
  -5  -2   1  189.69    4.28
  -5  -2   1  189.35    4.03
  -5  -2   1  184.96    4.08
   4   2  -1    2.45    0.44
   4   2  -1    1.83    0.37
   4   2  -1    2.13    0.58
   4   2  -1    2.63    0.32
   4   2  -1    2.49    0.29
   4   2  -1    2.00    0.39
  -4  -2   1    2.99    0.37
  -4  -2   1    1.44    0.40
  -4  -2   1    1.86    0.33
  -4  -2   1    1.72    0.37
  -4  -2   1    2.10    0.28
  -4  -2   1    1.52    0.49
  -4  -2   1    2.44    0.33
   3   2  -1   22.55    0.65
   3   2  -1   23.64    0.74
   3   2  -1   23.02    0.81
   3   2  -1   23.01    0.66
   3   2  -1   22.43    0.96
   3   2  -1   21.79    0.71
  -3  -2   1   22.47    0.76
  -3  -2   1   23.22    0.87
  -3  -2   1   22.43    0.66
  -3  -2   1   21.68    0.58
  -3  -2   1   23.05    0.67
  -3  -2   1   23.05    0.81
  -3  -2   1   21.15    0.70
   2   2  -1  107.93    2.25
   2   2  -1  106.85    2.35
   2   2  -1  106.79    2.36
   2   2  -1  106.66    2.22
   2   2  -1  106.07    2.23
   2   2  -1  108.29    2.25
  -2  -2   1  105.71    2.32
  -2  -2   1  107.04    2.25
  -2  -2   1  106.83    2.23
  -2  -2   1  107.98    2.27
  -2  -2   1  105.86    2.17
  -2  -2   1  104.61    2.32
   1   2  -1  265.91    5.40
   1   2  -1  273.65    5.45
   1   2  -1  264.57    5.40
   1   2  -1  272.49    5.48
   1   2  -1  268.61    5.44
   1   2  -1  264.06    5.46
   1   2  -1  275.56    5.43
  -1  -2   1  268.22    5.42
  -1  -2   1  267.49    5.50
  -1  -2   1  274.86    5.44
  -1  -2   1  268.09    5.41
  -1  -2   1  270.73    5.46
  -1  -2   1  272.09    5.42
  -1  -2   1  274.30    5.47
  -1  -2   1  265.35    5.45
   0   2  -1    5.28    0.35
   0   2  -1    5.04    0.42
   0   2  -1    5.19    0.37
   0   2  -1    3.75    0.34
   0   2  -1    5.83    0.32
   0   2  -1    5.13    0.21
   0   2  -1    4.40    0.38
   0   2  -1    4.85    0.32
   0  -2   1    5.06    0.32
   0  -2   1    4.84    0.39
   0  -2   1    5.38    0.38
   0  -2   1    5.57    0.40
   0  -2   1    5.28    0.36
   0  -2   1    5.67    0.36
   0  -2   1    5.36    0.39
   0  -2   1    5.98    0.20
  -1   2  -1  128.77    2.75
  -1   2  -1  130.16    2.83
  -1   2  -1  131.77    2.84
  -1   2  -1  130.58    2.79
  -1   2  -1  130.94    2.78
  -1   2  -1  129.64    2.86
  -1   2  -1  129.24    2.64
   1  -2   1  130.00    2.73
   1  -2   1  126.13    2.81
   1  -2   1  130.20    2.76
   1  -2   1  131.92    2.80
   1  -2   1  131.40    2.79
   1  -2   1  130.04    2.85
   1  -2   1  128.82    2.86
  -2   2  -1  393.61    8.10
  -2   2  -1  403.05    8.14
  -2   2  -1  399.97    8.03
  -2   2  -1  391.80    8.15
  -2   2  -1  404.86    8.23
   2  -2   1  403.60    8.23
   2  -2   1  397.40    8.11
   2  -2   1  401.08    8.17
   2  -2   1  390.66    8.01
   2  -2   1  403.35    8.15
   2  -2   1  406.06    8.18
   2  -2   1  398.39    8.24
  -3   2  -1   -0.42    0.46
  -3   2  -1   -0.25    0.45
  -3   2  -1    0.13    0.33
  -3   2  -1   -0.63    0.38
  -3   2  -1   -0.25    0.46
  -3   2  -1    0.19    0.36
  -3   2  -1   -0.01    0.38
   3  -2   1   -0.09    0.34
   3  -2   1   -0.43    0.38
   3  -2   1   -0.06    0.44
   3  -2   1    0.17    0.47
   3  -2   1    0.07    0.38
   3  -2   1    0.79    0.44
   3  -2   1   -0.05    0.20
  -4   2  -1    9.62    0.83
  -4   2  -1    9.02    0.71
  -4   2  -1    8.50    0.68
  -4   2  -1    9.64    0.77
  -4   2  -1    8.28    0.81
  -4   2  -1    8.45    0.64
  -4   2  -1    9.97    0.87
   4  -2   1    8.64    0.76
   4  -2   1   10.69    0.80
   4  -2   1    7.13    0.70
   4  -2   1    6.70    0.57
   4  -2   1    8.43    0.81
   4  -2   1    9.18    0.70
   4  -2   1    8.47    0.39
  -5   2  -1    8.03    0.97
  -5   2  -1    9.39    1.10
  -5   2  -1    6.19    0.81
  -5   2  -1    7.00    0.77
  -5   2  -1    7.39    0.94
  -5   2  -1    7.71    0.78
  -5   2  -1    7.31    0.82
   5  -2   1    7.16    0.83
   5  -2   1    8.17    0.78
   5  -2   1    6.20    0.89
   5  -2   1    7.80    0.80
   5  -2   1    5.43    0.73
  -6   2  -1   27.61    1.59
  -6   2  -1   21.83    1.68
  -6   2  -1   25.59    2.13
  -6   2  -1   25.57    1.77
  -6   2  -1   24.71    2.03
  -6   2  -1   24.55    2.19
  -6   2  -1   23.58    1.82
   6  -2   1   23.09    1.90
   6  -2   1   21.62    1.59
   6  -2   1   25.58    1.98
   6  -2   1   24.86    1.56
   6  -2   1   25.62    1.74
  -7   2  -1   28.95    2.80
  -7   2  -1   27.77    2.32
  -7   2  -1   29.19    2.12
  -7   2  -1   27.84    2.13
  -7   2  -1   30.17    2.32
  -7   2  -1   29.45    2.25
  -7   2  -1   25.06    1.77
   7  -2   1   28.78    1.99
   7  -2   1   29.78    1.85
   7  -2   1   25.63    2.33
   7  -2   1   28.61    2.21
   7  -2   1   27.09    1.92
  -8   2  -1    2.16    2.26
  -8   2  -1    1.63    1.80
  -8   2  -1    0.63    1.64
  -8   2  -1    3.00    1.55
  -8   2  -1    1.49    1.56
  -8   2  -1    0.79    1.76
  -8   2  -1    2.40    1.65
   8  -2   1    1.75    1.69
   8  -2   1    1.27    1.57
   8  -2   1    1.31    1.75
   8  -2   1    4.34    1.56
   9   1  -1    2.36    1.24
   9   1  -1   -1.37    1.42
   9   1  -1    1.56    1.57
  -9  -1   1    4.71    2.70
  -9  -1   1    1.47    1.42
   8   1  -1    1.60    0.92
   8   1  -1    0.69    1.13
   8   1  -1    1.00    1.28
   8   1  -1    1.17    0.88
   8   1  -1   -1.35    0.93
  -8  -1   1    0.57    1.45
  -8  -1   1   -0.40    0.92
  -8  -1   1    1.43    1.40
  -8  -1   1    0.64    1.12
  -8  -1   1    1.19    1.68
  -8  -1   1   -2.11    1.25
  -8  -1   1    1.11    0.67
  -8  -1   1   -0.48    1.11
   7   1  -1    0.69    0.59
   7   1  -1   -0.40    0.66
   7   1  -1    0.00    0.67
   7   1  -1    0.47    0.82
   7   1  -1    0.00    0.69
   7   1  -1   -0.60    0.96
  -7  -1   1   -0.08    0.50
  -7  -1   1    1.09    0.68
  -7  -1   1    2.22    1.07
  -7  -1   1   -0.18    0.86
  -7  -1   1    1.06    1.13
  -7  -1   1   -0.28    0.79
  -7  -1   1   -0.06    0.77
  -7  -1   1   -0.13    0.94
   6   1  -1   50.84    1.47
   6   1  -1   50.99    1.48
   6   1  -1   51.39    1.48
   6   1  -1   49.27    1.82
   6   1  -1   50.13    1.75
  -6  -1   1   47.71    1.95
  -6  -1   1   54.11    1.54
  -6  -1   1   49.78    1.74
  -6  -1   1   50.18    1.35
  -6  -1   1   50.98    1.76
  -6  -1   1   46.71    2.39
  -6  -1   1   48.75    1.93
  -6  -1   1   46.85    2.03
   5   1  -1    3.27    0.61
   5   1  -1    3.50    0.44
   5   1  -1    3.27    0.56
   5   1  -1    3.03    0.43
   5   1  -1    3.32    0.43
   5   1  -1    1.76    0.70
  -5  -1   1    2.40    0.55
  -5  -1   1    2.98    0.52
  -5  -1   1    3.73    0.57
  -5  -1   1    3.99    0.41
  -5  -1   1    1.92    0.50
  -5  -1   1    3.14    0.44
  -5  -1   1    4.43    0.67
   4   1  -1  187.12    3.87
   4   1  -1  190.78    3.85
   4   1  -1  188.92    4.01
   4   1  -1  186.38    3.89
   4   1  -1  180.44    4.12
   4   1  -1  187.76    3.98
  -4  -1   1  186.71    4.02
  -4  -1   1  181.34    3.93
  -4  -1   1  182.85    4.07
  -4  -1   1  188.94    3.87
  -4  -1   1  183.73    3.99
  -4  -1   1  178.73    3.93
  -4  -1   1  189.09    3.85
   3   1  -1  263.71    5.58
   3   1  -1  265.21    5.40
   3   1  -1  270.73    5.44
   3   1  -1  267.43    5.36
   3   1  -1  263.65    5.44
   3   1  -1  276.91    5.50
   3   1  -1  268.75    5.47
  -3  -1   1  260.53    5.37
  -3  -1   1  266.67    5.44
  -3  -1   1  269.26    5.55
  -3  -1   1  263.21    5.48
  -3  -1   1  264.78    5.43
  -3  -1   1  261.40    5.50
  -3  -1   1  267.21    5.41
   2   1  -1   48.77    1.00
   2   1  -1   46.27    1.09
   2   1  -1   48.83    1.06
   2   1  -1   48.42    1.11
   2   1  -1   47.46    1.12
   2   1  -1   46.86    1.08
   2   1  -1   46.79    1.19
  -2  -1   1   46.02    1.00
  -2  -1   1   47.52    1.13
  -2  -1   1   46.38    1.16
  -2  -1   1   45.76    1.10
  -2  -1   1   47.20    1.09
  -2  -1   1   47.76    1.07
  -2  -1   1   47.77    1.08
   1   1  -1   21.43    0.63
   1   1  -1   18.77    0.51
   1   1  -1   18.84    0.56
   1   1  -1   20.57    0.50
   1   1  -1   20.82    0.55
   1   1  -1   20.63    0.52
  -1  -1   1   20.49    0.49
  -1  -1   1   20.96    0.55
  -1  -1   1   20.85    0.53
  -1  -1   1   20.94    0.54
  -1  -1   1   20.85    0.51
  -1  -1   1   20.91    0.52
   0   1  -1    2.52    0.20
   0   1  -1    2.82    0.18
   0   1  -1    2.76    0.23
   0   1  -1    2.73    0.21
   0   1  -1    2.83    0.14
   0   1  -1    2.54    0.20
   0   1  -1    2.57    0.18
   0   1  -1    2.62    0.23
   0  -1   1    2.84    0.21
   0  -1   1    2.53    0.20
   0  -1   1    2.80    0.22
   0  -1   1    2.72    0.22
   0  -1   1    2.60    0.18
   0  -1   1    2.54    0.22
   0  -1   1    2.35    0.19
  -1   1  -1   26.82    0.64
  -1   1  -1   25.61    0.67
  -1   1  -1   26.57    0.70
  -1   1  -1   27.97    0.72
  -1   1  -1   26.60    0.74
  -1   1  -1   26.00    0.75
  -1   1  -1   26.20    0.74
   1  -1   1   28.08    0.71
   1  -1   1   27.53    0.68
   1  -1   1   27.78    0.63
   1  -1   1   27.31    0.75
   1  -1   1   26.80    0.73
   1  -1   1   26.25    0.71
   1  -1   1   26.86    0.75
  -2   1  -1    5.89    0.53
  -2   1  -1    6.75    0.46
  -2   1  -1    6.55    0.52
  -2   1  -1    6.05    0.52
  -2   1  -1    7.07    0.45
  -2   1  -1    6.80    0.40
   2  -1   1    6.73    0.45
   2  -1   1    6.46    0.26
   2  -1   1    6.61    0.51
   2  -1   1    5.80    0.45
   2  -1   1    6.83    0.40
   2  -1   1    6.79    0.26
   2  -1   1    6.62    0.53
  -3   1  -1   12.46    0.63
  -3   1  -1   12.47    0.67
  -3   1  -1   13.79    0.77
  -3   1  -1   13.12    0.74
  -3   1  -1   13.59    0.71
  -3   1  -1   12.61    0.78
  -3   1  -1   12.70    0.77
   3  -1   1   12.26    0.74
   3  -1   1   12.37    0.68
   3  -1   1   13.32    0.77
   3  -1   1   12.44    0.76
   3  -1   1   12.93    0.63
   3  -1   1   12.83    0.67
  -4   1  -1  311.01    6.58
  -4   1  -1  300.48    6.45
  -4   1  -1  308.58    6.57
  -4   1  -1  307.93    6.51
  -4   1  -1  309.73    6.45
  -4   1  -1  305.28    6.46
  -4   1  -1  308.18    6.49
   4  -1   1  314.17    6.49
   4  -1   1  316.42    6.47
   4  -1   1  309.41    6.54
   4  -1   1  310.60    6.45
   4  -1   1  305.26    6.42
  -5   1  -1   85.32    2.28
  -5   1  -1   87.81    2.38
  -5   1  -1   85.38    2.24
  -5   1  -1   85.06    2.26
  -5   1  -1   83.54    2.39
  -5   1  -1   85.71    2.36
  -5   1  -1   86.18    2.46
   5  -1   1   85.41    2.34
   5  -1   1   77.58    2.50
   5  -1   1   87.66    2.25
   5  -1   1   87.57    2.25
  -6   1  -1    0.16    0.82
  -6   1  -1   -0.62    0.76
  -6   1  -1   -0.17    0.87
  -6   1  -1    0.33    0.73
  -6   1  -1   -0.01    0.94
  -6   1  -1    0.10    0.74
  -6   1  -1    0.15    0.90
   6  -1   1   -0.03    0.71
   6  -1   1   -0.19    0.74
   6  -1   1    0.28    1.12
   6  -1   1   -1.37    0.84
   6  -1   1   -0.10    0.74
  -7   1  -1    2.32    1.13
  -7   1  -1    1.83    0.99
  -7   1  -1    1.84    1.21
  -7   1  -1    4.01    1.14
  -7   1  -1    3.41    1.38
  -7   1  -1    1.33    1.05
  -7   1  -1    2.05    1.03
   7  -1   1    1.47    1.03
   7  -1   1    3.31    1.14
   7  -1   1    2.92    0.94
   7  -1   1    2.57    1.04
   7  -1   1    1.93    0.92
  -8   1  -1   11.36    1.59
  -8   1  -1    6.48    1.45
  -8   1  -1    7.83    1.49
  -8   1  -1    6.78    1.52
  -8   1  -1    9.51    1.62
  -8   1  -1   12.73    2.08
  -8   1  -1    5.77    1.58
   8  -1   1   10.11    1.47
   8  -1   1    9.26    1.63
   8  -1   1    9.75    1.47
   8  -1   1    8.01    1.44
   8  -1   1   10.04    1.26
  -9   0   1  112.80    4.65
   8   0  -1    7.72    1.12
   8   0  -1    5.39    1.41
   8   0  -1    3.34    1.40
   8   0  -1    8.07    1.57
   8   0  -1    6.83    1.39
  -8   0   1    6.10    1.36
  -8   0   1    6.83    0.69
  -8   0   1    6.58    1.32
  -8   0   1    5.25    1.52
  -8   0   1    5.74    1.07
  -8   0   1    7.56    1.90
  -8   0   1    6.32    1.42
  -8   0   1    8.85    1.56
   7   0  -1   13.05    1.10
   7   0  -1   15.99    1.03
   7   0  -1   17.06    1.09
   7   0  -1   14.94    1.32
   7   0  -1   15.91    1.29
   7   0  -1   17.96    1.00
  -7   0   1   14.42    1.32
  -7   0   1   15.97    1.23
  -7   0   1   16.33    1.30
  -7   0   1   15.52    0.95
  -7   0   1   16.96    1.25
  -7   0   1   16.22    1.09
  -7   0   1   15.98    1.36
  -7   0   1   17.96    1.61
   6   0  -1   -0.11    0.83
   6   0  -1   -0.82    0.60
   6   0  -1   -0.65    0.40
   6   0  -1    1.18    0.72
   6   0  -1   -0.34    0.66
   6   0  -1   -0.49    0.57
  -6   0   1   -0.39    0.71
  -6   0   1   -0.03    0.39
  -6   0   1    0.16    0.74
  -6   0   1   -0.17    0.59
  -6   0   1   -0.29    0.72
  -6   0   1    0.00    0.94
  -6   0   1    0.33    0.62
  -6   0   1   -0.44    0.76
   5   0  -1   35.59    1.45
   5   0  -1   36.48    1.03
   5   0  -1   36.81    1.21
   5   0  -1   36.73    1.25
   5   0  -1   36.51    1.33
   5   0  -1   36.56    1.49
  -5   0   1   36.11    1.39
  -5   0   1   37.35    1.00
  -5   0   1   39.52    1.49
  -5   0   1   34.56    1.34
  -5   0   1   34.89    1.22
  -5   0   1   35.51    1.34
  -5   0   1   37.18    1.44
  -5   0   1   37.04    1.62
   4   0  -1   91.32    2.31
   4   0  -1   89.85    2.23
   4   0  -1   88.72    2.15
   4   0  -1   93.10    2.09
   4   0  -1   89.28    1.96
  -4   0   1   92.51    2.24
  -4   0   1   92.44    2.19
  -4   0   1   88.11    2.07
  -4   0   1   91.96    1.95
  -4   0   1   88.74    2.17
  -4   0   1   87.13    2.15
  -4   0   1   90.31    2.23
   3   0  -1  562.43   11.24
   3   0  -1  540.38   11.10
   3   0  -1  557.04   11.05
   3   0  -1  545.82   11.16
   3   0  -1  574.47   11.20
  -3   0   1  548.77   11.10
  -3   0   1  553.36   11.17
  -3   0   1  553.06   11.18
  -3   0   1  554.54   11.20
  -3   0   1  560.83   11.16
  -3   0   1  547.10   11.21
  -3   0   1  557.27   11.04
   2   0  -1  225.85    4.67
   2   0  -1  232.75    4.70
   2   0  -1  234.54    4.79
   2   0  -1  232.92    4.74
   2   0  -1  235.72    4.76
  -2   0   1  229.63    4.76
  -2   0   1  228.10    4.69
  -2   0   1  233.29    4.75
  -2   0   1  228.37    4.73
  -2   0   1  233.67    4.78
  -2   0   1  236.84    4.67
  -2   0   1  233.25    4.75
   1   0  -1  108.45    2.33
   1   0  -1  110.89    2.29
   1   0  -1  113.82    2.32
   1   0  -1  111.78    2.34
   1   0  -1  115.93    2.30
   1   0  -1  115.01    2.32
  -1   0   1  112.58    2.33
  -1   0   1  113.96    2.32
  -1   0   1  113.00    2.29
  -1   0   1  113.40    2.33
  -1   0   1  116.06    2.30
  -1   0   1  113.24    2.35
  -1   0   1  113.40    2.32
  -1   0  -1   16.56    0.48
  -1   0  -1   18.14    0.48
  -1   0  -1   18.10    0.45
  -1   0  -1   18.45    0.46
  -1   0  -1   18.09    0.46
  -1   0  -1   18.68    0.48
   1   0   1   17.47    0.45
   1   0   1   18.31    0.48
   1   0   1   18.05    0.47
   1   0   1   17.30    0.39
   1   0   1   18.18    0.45
  -2   0  -1 5553.12  108.57
  -2   0  -1 5533.29  108.60
  -2   0  -1 5559.64  108.78
  -2   0  -1 5470.00  108.79
  -2   0  -1 5446.71  108.77
   2   0   1 5531.55  108.70
   2   0   1 5433.05  108.72
   2   0   1 5351.92  108.52
   2   0   1 5467.81  108.79
   2   0   1 5377.48  108.53
   2   0   1 5480.80  108.82
  -3   0  -1    2.88    0.32
  -3   0  -1    2.63    0.36
  -3   0  -1    3.49    0.37
  -3   0  -1    3.45    0.39
  -3   0  -1    3.04    0.41
  -3   0  -1    2.65    0.32
  -3   0  -1    4.01    0.36
   3   0   1    3.05    0.34
   3   0   1    3.59    0.34
   3   0   1    3.36    0.30
   3   0   1    3.30    0.33
   3   0   1    2.87    0.32
  -4   0  -1    8.08    0.77
  -4   0  -1    7.99    0.70
  -4   0  -1    7.72    0.63
  -4   0  -1    7.41    0.57
  -4   0  -1    8.31    0.64
  -4   0  -1    8.12    0.67
  -4   0  -1    5.84    0.49
   4   0   1    7.30    0.54
   4   0   1    7.91    0.68
   4   0   1    8.45    0.62
   4   0   1    8.57    0.66
   4   0   1    8.32    0.69
  -5   0  -1   19.91    1.04
  -5   0  -1   19.09    1.14
  -5   0  -1   20.48    1.04
  -5   0  -1   20.91    1.24
  -5   0  -1   18.33    1.23
  -5   0  -1   17.16    1.21
  -5   0  -1   17.63    1.30
   5   0   1   20.30    1.01
   5   0   1   21.54    0.93
   5   0   1   21.45    1.07
   5   0   1   20.34    1.01
   5   0   1   20.36    1.11
  -6   0  -1   50.98    1.73
  -6   0  -1   46.73    1.77
  -6   0  -1   46.54    1.98
  -6   0  -1   48.37    1.82
  -6   0  -1   47.43    1.98
   6   0   1   50.23    1.56
   6   0   1   51.75    1.72
   6   0   1   48.27    1.65
  -7   0  -1    5.13    0.95
  -7   0  -1    4.39    1.18
  -7   0  -1    3.48    1.08
  -7   0  -1    4.18    1.05
  -7   0  -1    3.21    0.99
   7   0   1    3.55    0.93
   7   0   1    4.93    0.91
   7   0   1    2.61    0.97
   7   0   1    4.72    0.77
   7   0   1    3.78    0.90
  -8   0  -1    1.65    1.46
  -8   0  -1   -0.99    1.27
  -8   0  -1    1.41    1.46
  -8   0  -1    2.20    1.33
  -8   0  -1   -0.01    1.66
  -8   0  -1    0.22    1.13
   8   0   1   -0.04    0.95
   8   0   1    1.30    1.15
   8   0   1    0.10    1.23
   8   0   1   -1.35    1.10
   8   0   1    0.89    1.14
  -9   0  -1    3.71    1.66
  -9   0  -1   -0.35    2.88
  -9   0  -1   -1.90    1.78
   9   0   1   -1.96    1.52
   9   0   1   -1.32    1.26
   9   0   1    0.47    1.44
   8  -1  -1   18.91    1.48
   8  -1  -1   17.21    1.96
   8  -1  -1   14.15    1.60
   8  -1  -1   19.09    1.61
   8  -1  -1   18.76    1.78
  -8   1   1   16.08    1.45
  -8   1   1   17.98    1.75
  -8   1   1   19.53    2.37
  -8   1   1   16.63    1.79
  -8   1   1   17.47    1.75
  -8   1   1   19.27    1.75
  -8   1   1   17.25    1.78
   7  -1  -1   10.25    0.62
   7  -1  -1    9.92    1.36
   7  -1  -1    8.97    1.50
   7  -1  -1   12.06    1.24
   7  -1  -1   10.84    1.41
  -7   1   1    8.65    1.30
  -7   1   1    9.32    1.26
  -7   1   1   10.78    1.29
  -7   1   1   10.17    0.69
  -7   1   1   10.07    1.61
  -7   1   1    9.45    1.16
  -7   1   1   11.27    1.27
  -7   1   1    8.62    1.25
   6  -1  -1    3.13    1.02
   6  -1  -1    2.50    0.79
   6  -1  -1    1.47    0.67
   6  -1  -1    3.11    0.42
   6  -1  -1    2.43    0.77
   6  -1  -1    1.87    0.99
  -6   1   1    3.34    0.90
  -6   1   1    2.07    0.87
  -6   1   1    2.94    0.87
  -6   1   1    2.35    0.88
  -6   1   1    2.19    0.46
  -6   1   1    2.34    1.11
  -6   1   1    2.60    0.82
  -6   1   1    1.74    0.71
   5  -1  -1   37.54    1.41
   5  -1  -1   38.21    1.43
   5  -1  -1   39.93    1.37
   5  -1  -1   39.13    1.69
   5  -1  -1   38.96    1.03
   5  -1  -1   37.92    1.68
  -5   1   1   38.60    1.36
  -5   1   1   40.25    1.78
  -5   1   1   36.71    1.06
  -5   1   1   38.76    1.59
  -5   1   1   38.59    1.44
  -5   1   1   36.81    1.48
  -5   1   1   37.93    1.53
  -5   1   1   40.27    1.62
   4  -1  -1  221.34    4.81
   4  -1  -1  216.32    4.72
   4  -1  -1  222.80    4.87
   4  -1  -1  225.17    4.70
   4  -1  -1  224.24    4.49
   4  -1  -1  219.81    4.68
  -4   1   1  219.77    4.88
  -4   1   1  220.37    4.74
  -4   1   1  216.67    4.77
  -4   1   1  215.00    4.75
  -4   1   1  220.46    4.69
  -4   1   1  216.17    4.83
  -4   1   1  223.12    4.73
  -4   1   1  220.91    4.51
   3  -1  -1  106.07    2.16
   3  -1  -1  102.98    2.46
   3  -1  -1  103.50    2.33
   3  -1  -1  100.63    2.31
   3  -1  -1  102.95    2.38
   3  -1  -1  101.55    2.42
   3  -1  -1  104.69    2.32
  -3   1   1  103.84    2.47
  -3   1   1  102.39    2.43
  -3   1   1  103.03    2.39
  -3   1   1  101.94    2.31
  -3   1   1  100.55    2.17
  -3   1   1  100.75    2.35
  -3   1   1  102.24    2.33
  -3   1   1  101.51    2.33
   2  -1  -1   65.10    1.50
   2  -1  -1   62.96    1.56
   2  -1  -1   64.61    1.48
   2  -1  -1   62.59    1.50
   2  -1  -1   64.98    1.38
   2  -1  -1   64.26    1.48
   2  -1  -1   64.49    1.59
  -2   1   1   63.68    1.57
  -2   1   1   61.60    1.50
  -2   1   1   61.86    1.53
  -2   1   1   65.44    1.48
  -2   1   1   63.42    1.59
  -2   1   1   62.46    1.47
  -2   1   1   61.90    1.46
  -2   1   1   64.55    1.39
   1  -1  -1    1.19    0.19
   1  -1  -1    0.80    0.15
   1  -1  -1    0.74    0.13
   1  -1  -1    0.58    0.21
   1  -1  -1    0.87    0.16
   1  -1  -1    0.57    0.21
   1  -1  -1    0.82    0.15
  -1   1   1    0.93    0.15
  -1   1   1    0.91    0.20
  -1   1   1    0.86    0.21
  -1   1   1    0.76    0.14
  -1   1   1    0.86    0.32
  -1   1   1    0.97    0.14
  -1   1   1    1.03    0.18
  -1   1   1    2.16    0.38
   0  -1  -1 1875.99   37.73
   0  -1  -1 1806.31   38.12
   0  -1  -1 1763.42   38.25
   0  -1  -1 1944.69   38.04
   0  -1  -1 1957.88   37.97
   0  -1  -1 1981.76   38.08
   0  -1  -1 1950.67   38.05
   0  -1  -1 1912.70   37.88
   0   1   1 1902.66   37.88
   0   1   1 1901.84   38.07
   0   1   1 1944.91   38.05
   0   1   1 1925.43   38.03
   0   1   1 1890.78   37.74
   0   1   1 1924.71   37.92
  -2  -1  -1 1269.84   25.25
  -2  -1  -1 1285.06   25.57
  -2  -1  -1 1235.46   25.30
  -2  -1  -1 1272.45   25.22
  -2  -1  -1 1293.84   25.30
  -2  -1  -1 1271.35   25.37
   2   1   1 1245.33   25.16
   2   1   1 1288.48   25.51
   2   1   1 1265.40   25.22
   2   1   1 1292.81   25.20
  -3  -1  -1    3.85    0.33
  -3  -1  -1    4.49    0.38
  -3  -1  -1    5.09    0.42
  -3  -1  -1    4.27    0.34
  -3  -1  -1    4.41    0.35
  -3  -1  -1    3.69    0.29
  -3  -1  -1    4.42    0.45
  -3  -1  -1    4.74    0.34
   3   1   1    4.35    0.33
   3   1   1    4.34    0.29
   3   1   1    4.47    0.36
   3   1   1    4.36    0.28
   3   1   1    3.80    0.29
  -4  -1  -1  306.06    6.23
  -4  -1  -1  301.29    6.08
  -4  -1  -1  300.63    6.22
  -4  -1  -1  303.29    6.27
  -4  -1  -1  309.65    6.38
  -4  -1  -1  297.74    6.19
  -4  -1  -1  304.64    6.29
  -4  -1  -1  300.45    6.26
   4   1   1  301.90    6.20
   4   1   1  304.39    6.12
   4   1   1  309.36    6.20
   4   1   1  296.33    6.17
   4   1   1  300.20    6.26
  -5  -1  -1   69.62    1.88
  -5  -1  -1   72.20    1.94
  -5  -1  -1   68.60    1.84
  -5  -1  -1   73.11    1.93
  -5  -1  -1   70.89    1.83
  -5  -1  -1   70.62    1.56
  -5  -1  -1   71.16    2.08
  -5  -1  -1   72.05    1.81
   5   1   1   73.30    1.79
   5   1   1   72.79    1.80
   5   1   1   68.80    1.77
   5   1   1   71.75    1.66
   5   1   1   71.13    1.87
  -6  -1  -1   17.73    0.63
  -6  -1  -1   14.33    1.11
  -6  -1  -1   18.77    1.18
  -6  -1  -1   17.26    1.21
  -6  -1  -1   15.43    1.23
  -6  -1  -1   16.86    1.23
  -6  -1  -1   18.47    1.12
  -6  -1  -1   17.87    1.40
   6   1   1   17.63    1.03
   6   1   1   17.09    1.13
   6   1   1   15.49    1.23
   6   1   1   16.46    0.88
   6   1   1   17.14    1.06
  -7  -1  -1   14.00    1.06
  -7  -1  -1   11.92    1.07
  -7  -1  -1   11.71    1.25
  -7  -1  -1   14.29    1.34
  -7  -1  -1   12.93    1.07
  -7  -1  -1   14.26    1.03
  -7  -1  -1   13.97    1.19
   7   1   1   13.66    0.95
   7   1   1   12.82    0.99
   7   1   1   13.61    0.93
   7   1   1   13.06    1.05
   7   1   1   12.07    0.99
  -8  -1  -1   10.89    1.29
  -8  -1  -1   10.27    1.40
  -8  -1  -1    9.65    1.15
  -8  -1  -1    9.40    1.58
  -8  -1  -1   11.87    1.30
  -8  -1  -1   14.60    1.64
  -8  -1  -1   10.82    1.24
   8   1   1   11.08    0.93
   8   1   1   11.78    1.07
   8   1   1   10.22    1.16
  -9  -1  -1    0.31    1.40
  -9  -1  -1    0.94    1.60
  -9  -1  -1    1.26    1.62
  -9  -1  -1    0.96    2.07
  -9  -1  -1    0.40    2.00
  -9  -1  -1    0.44    1.75
  -9  -1  -1   -0.71    2.92
   9   1   1   -0.02    1.19
   9   1   1   -0.28    1.34
   9   1   1    0.89    1.03
   9   1   1    1.50    1.01
   8  -2  -1   24.84    2.32
   8  -2  -1   38.11    3.03
   8  -2  -1   27.31    2.31
   8  -2  -1   29.94    1.88
   8  -2  -1   30.16    2.08
  -8   2   1   32.17    2.28
  -8   2   1   28.61    2.53
  -8   2   1   35.46    2.89
  -8   2   1   25.71    2.35
  -8   2   1   32.37    2.08
  -8   2   1   29.10    1.86
  -8   2   1   32.15    2.17
   7  -2  -1   24.03    1.81
   7  -2  -1   22.51    1.51
   7  -2  -1   20.97    1.80
   7  -2  -1   20.22    1.39
   7  -2  -1   19.66    1.46
  -7   2   1   21.72    1.54
  -7   2   1   23.72    2.26
  -7   2   1   20.21    1.41
  -7   2   1   19.00    1.78
  -7   2   1   19.74    1.63
  -7   2   1   20.53    1.66
  -7   2   1   24.17    1.56
   6  -2  -1    0.83    0.93
   6  -2  -1    0.45    0.75
   6  -2  -1   -0.03    0.79
   6  -2  -1    0.77    1.13
   6  -2  -1   -0.14    0.39
   6  -2  -1   -0.65    1.05
  -6   2   1    0.04    1.01
  -6   2   1   -0.51    0.98
  -6   2   1    0.71    0.87
  -6   2   1    0.55    0.96
  -6   2   1   -0.12    0.84
  -6   2   1    0.25    1.20
   5  -2  -1    3.34    0.91
   5  -2  -1    2.94    0.73
   5  -2  -1    2.76    0.37
   5  -2  -1    2.36    0.64
   5  -2  -1    2.05    0.68
   5  -2  -1    3.31    0.86
  -5   2   1    2.70    0.64
  -5   2   1    1.89    0.81
  -5   2   1    2.15    0.77
  -5   2   1    3.85    0.69
  -5   2   1    3.15    0.48
  -5   2   1    2.35    0.74
  -5   2   1    2.58    0.94
  -5   2   1    3.34    0.68
   4  -2  -1   32.17    1.30
   4  -2  -1   33.99    1.51
   4  -2  -1   34.42    0.91
   4  -2  -1   30.65    1.51
   4  -2  -1   33.83    1.27
   4  -2  -1   32.21    1.25
  -4   2   1   31.70    1.34
  -4   2   1   31.86    1.58
  -4   2   1   32.06    1.00
  -4   2   1   32.67    1.41
  -4   2   1   33.48    1.43
  -4   2   1   31.45    1.23
  -4   2   1   35.30    1.26
  -4   2   1   31.92    1.22
   3  -2  -1   29.30    1.07
   3  -2  -1   29.14    1.07
   3  -2  -1   29.45    1.25
   3  -2  -1   29.70    0.82
   3  -2  -1   29.52    1.01
   3  -2  -1   28.87    1.24
  -3   2   1   29.90    1.10
  -3   2   1   29.69    1.19
  -3   2   1   30.50    1.05
  -3   2   1   30.21    1.29
  -3   2   1   29.34    0.98
  -3   2   1   29.69    0.99
  -3   2   1   28.95    0.88
  -3   2   1   31.37    1.20
   2  -2  -1  732.63   14.74
   2  -2  -1  755.11   14.78
   2  -2  -1  724.72   14.86
   2  -2  -1  729.66   14.69
   2  -2  -1  730.17   14.81
   2  -2  -1  742.43   14.78
   2  -2  -1  728.25   14.66
   2  -2  -1  734.05   14.87
  -2   2   1  740.07   14.73
  -2   2   1  754.96   14.79
  -2   2   1  752.32   14.87
  -2   2   1  723.96   14.68
  -2   2   1  724.15   14.66
  -2   2   1  730.61   14.76
  -2   2   1  737.22   14.86
   1  -2  -1   49.46    1.16
   1  -2  -1   48.04    1.21
   1  -2  -1   46.96    1.08
   1  -2  -1   48.49    1.28
   1  -2  -1   47.57    1.25
   1  -2  -1   48.41    1.27
   1  -2  -1   49.10    1.15
   1  -2  -1   48.98    1.21
  -1   2   1   46.44    1.19
  -1   2   1   49.73    1.28
  -1   2   1   47.38    1.05
  -1   2   1   49.02    1.24
  -1   2   1   48.60    1.14
  -1   2   1   47.70    1.26
  -1   2   1   48.55    1.20
   0  -2  -1   39.06    0.92
   0  -2  -1   38.10    0.94
   0  -2  -1   39.66    0.89
   0  -2  -1   34.74    0.97
   0  -2  -1   39.12    0.97
   0  -2  -1   37.53    0.96
   0   2   1   38.33    0.89
   0   2   1   40.78    0.96
   0   2   1   39.18    0.94
   0   2   1   35.63    1.05
   0   2   1   36.90    0.90
  -1  -2  -1   69.69    1.47
  -1  -2  -1   69.12    1.47
  -1  -2  -1   69.10    1.52
  -1  -2  -1   69.13    1.50
  -1  -2  -1   69.07    1.45
  -1  -2  -1   68.68    1.48
   1   2   1   70.36    1.51
   1   2   1   69.28    1.41
   1   2   1   70.67    1.42
   1   2   1   69.91    1.44
   1   2   1   70.31    1.43
   1   2   1   71.73    1.50
  -2  -2  -1    7.71    0.49
  -2  -2  -1    7.59    0.44
  -3  -2  -1   13.62    0.56
  -3  -2  -1   13.49    0.45
  -3  -2  -1   13.48    0.47
  -3  -2  -1   14.14    0.60
  -3  -2  -1   13.91    0.52
  -3  -2  -1   14.12    0.41
  -3  -2  -1   13.13    0.74
  -4  -2  -1    0.14    0.28
  -4  -2  -1   -0.32    0.32
  -4  -2  -1    0.61    0.45
  -4  -2  -1    0.13    0.27
  -4  -2  -1   -0.08    0.29
  -4  -2  -1   -0.07    0.27
  -4  -2  -1    0.58    0.30
   4   2   1   -0.02    0.14
  -5  -2  -1  171.70    3.82
  -5  -2  -1  171.78    3.64
  -5  -2  -1  176.06    3.96
  -5  -2  -1  168.16    3.64
  -5  -2  -1  168.15    3.65
  -5  -2  -1  175.40    3.71
  -5  -2  -1  168.65    3.70
   5   2   1  168.39    3.50
   5   2   1  173.85    3.55
   5   2   1  171.23    3.48
   5   2   1  166.78    3.53
  -6  -2  -1    9.03    0.70
  -6  -2  -1    8.93    1.61
  -6  -2  -1    8.25    0.52
  -6  -2  -1    9.36    0.85
  -6  -2  -1    8.36    0.70
  -6  -2  -1    7.04    0.67
  -6  -2  -1    8.80    0.74
   6   2   1    8.47    0.72
   6   2   1    8.43    0.57
   6   2   1    7.94    0.59
   6   2   1    7.85    0.59
  -7  -2  -1    1.52    0.79
  -7  -2  -1    2.78    0.95
  -7  -2  -1    1.55    0.74
  -7  -2  -1    1.32    0.96
  -7  -2  -1    2.61    1.14
  -7  -2  -1    0.89    0.74
  -7  -2  -1    2.31    0.78
  -7  -2  -1    0.70    0.45
   7   2   1    1.10    0.49
   7   2   1    0.95    0.52
   7   2   1    1.82    0.61
   7   2   1    1.03    0.44
  -8  -2  -1   53.44    2.68
  -8  -2  -1   53.03    2.17
  -8  -2  -1   54.97    1.49
  -8  -2  -1   59.26    2.78
  -8  -2  -1   48.30    2.94
  -8  -2  -1   57.66    2.23
  -8  -2  -1   52.41    2.18
  -8  -2  -1   58.97    2.28
   8   2   1   55.80    1.56
   8   2   1   52.41    1.54
   8   2   1   56.97    1.67
   8   2   1   54.12    1.80
  -9  -2  -1    5.61    1.43
  -9  -2  -1    7.05    1.90
  -9  -2  -1    6.46    1.42
  -9  -2  -1    3.55    1.69
  -9  -2  -1    5.61    2.19
  -9  -2  -1    5.48    1.43
   9   2   1    6.43    1.00
   9   2   1    6.92    0.73
   9   2   1    7.18    0.85
   9   2   1    7.07    0.78
   8  -3  -1   74.26    4.06
  -8   3   1   66.94    4.11
  -8   3   1   65.91    4.47
  -8   3   1   67.54    3.42
  -8   3   1   66.13    3.75
  -8   3   1   75.06    5.27
   7  -3  -1   54.11    2.79
   7  -3  -1   59.78    3.02
   7  -3  -1   58.67    3.38
   7  -3  -1   54.29    3.47
   7  -3  -1   60.90    2.77
  -7   3   1   53.67    2.80
  -7   3   1   55.08    3.15
  -7   3   1   52.31    2.51
  -7   3   1   55.21    2.73
  -7   3   1   50.98    3.07
  -7   3   1   59.44    3.81
  -7   3   1   51.54    3.14
   6  -3  -1    5.35    1.01
   6  -3  -1    7.51    1.44
   6  -3  -1    6.14    1.47
   6  -3  -1    5.71    1.22
   6  -3  -1    3.32    1.11
   6  -3  -1    5.70    0.52
  -6   3   1    5.46    1.23
  -6   3   1    4.75    1.29
  -6   3   1    5.58    1.08
  -6   3   1    4.22    1.06
  -6   3   1    6.79    1.04
  -6   3   1    4.31    1.56
  -6   3   1    7.25    1.40
   5  -3  -1   22.19    1.42
   5  -3  -1   21.35    1.54
   5  -3  -1   23.06    1.95
   5  -3  -1   23.92    1.58
   5  -3  -1   25.00    1.85
   5  -3  -1   22.42    0.90
  -5   3   1   23.09    1.80
  -5   3   1   23.57    1.97
  -5   3   1   25.08    1.37
  -5   3   1   24.61    1.45
  -5   3   1   22.21    1.76
  -5   3   1   23.93    1.67
  -5   3   1   23.42    1.84
   4  -3  -1   11.43    0.84
   4  -3  -1   11.45    1.04
   4  -3  -1   11.39    0.69
   4  -3  -1   11.44    1.02
   4  -3  -1   16.63    1.33
   4  -3  -1   14.44    1.21
  -4   3   1   12.04    1.01
  -4   3   1    9.54    1.04
  -4   3   1   13.72    1.10
  -4   3   1    9.96    0.77
  -4   3   1   12.14    0.95
  -4   3   1   13.69    1.05
  -4   3   1   12.44    0.94
   3  -3  -1   86.05    1.96
   3  -3  -1   84.44    2.39
   3  -3  -1   84.98    2.23
   3  -3  -1   86.32    2.14
   3  -3  -1   86.95    2.23
   3  -3  -1   84.77    2.34
  -3   3   1   85.56    2.34
  -3   3   1   84.23    2.22
  -3   3   1   84.47    2.30
  -3   3   1   85.59    2.37
  -3   3   1   86.86    2.17
  -3   3   1   84.14    1.99
  -3   3   1   85.98    2.10
   2  -3  -1   74.58    1.75
   2  -3  -1   76.85    1.99
   2  -3  -1   76.10    2.05
   2  -3  -1   72.93    2.01
   2  -3  -1   76.04    1.83
   2  -3  -1   73.90    1.90
   2  -3  -1   74.17    1.89
  -2   3   1   73.71    1.65
  -2   3   1   74.53    1.78
  -2   3   1   75.29    1.95
  -2   3   1   73.65    1.88
  -2   3   1   71.33    1.98
  -2   3   1   74.70    1.87
  -2   3   1   73.41    1.99
   1  -3  -1   58.70    1.42
   1  -3  -1   57.49    1.49
   1  -3  -1   58.04    1.59
   1  -3  -1   56.11    1.54
   1  -3  -1   58.32    1.47
   1  -3  -1   57.03    1.43
   1  -3  -1   55.96    1.57
  -1   3   1   59.06    1.52
  -1   3   1   56.87    1.54
  -1   3   1   57.64    1.46
  -1   3   1   56.61    1.46
  -1   3   1   58.39    1.39
  -1   3   1   57.42    1.20
  -1   3   1   57.98    1.55
   0  -3  -1  166.39    3.48
   0  -3  -1  168.05    3.46
   0  -3  -1  170.26    3.52
   0  -3  -1  169.86    3.56
   0  -3  -1  145.31    3.65
   0  -3  -1  144.57    3.58
   0   3   1  168.60    3.51
   0   3   1  168.25    3.50
   0   3   1  170.83    3.50
   0   3   1  168.98    3.45
   0   3   1  168.89    3.53
   0   3   1  165.63    3.45
  -1  -3  -1   37.36    0.93
  -1  -3  -1   37.09    0.98
  -1  -3  -1   36.43    0.99
  -1  -3  -1   36.72    0.95
  -1  -3  -1   35.69    0.97
  -1  -3  -1   36.10    0.96
  -1  -3  -1   35.31    0.86
   1   3   1   36.48    0.92
   1   3   1   36.72    0.96
   1   3   1   37.31    0.94
   1   3   1   36.33    0.86
   1   3   1   37.27    0.88
   1   3   1   36.95    0.93
  -2  -3  -1   56.76    1.33
  -2  -3  -1   55.53    1.22
  -2  -3  -1   55.98    1.34
  -2  -3  -1   55.30    1.31
  -2  -3  -1   54.93    1.43
  -2  -3  -1   55.87    1.20
  -2  -3  -1   55.76    1.22
  -2  -3  -1   55.61    1.24
  -3  -3  -1   19.94    0.82
  -3  -3  -1   20.67    0.66
  -3  -3  -1   21.29    0.53
  -3  -3  -1   21.37    0.88
  -3  -3  -1   20.58    0.55
  -3  -3  -1   21.19    0.56
  -4  -3  -1   15.88    0.55
  -4  -3  -1   16.97    0.58
  -4  -3  -1   15.81    1.02
  -4  -3  -1   14.87    0.66
  -4  -3  -1   16.71    0.54
  -4  -3  -1   15.48    0.79
  -4  -3  -1   16.64    0.84
  -5  -3  -1    8.03    0.63
  -5  -3  -1    8.72    0.60
  -5  -3  -1    8.51    0.61
  -5  -3  -1    8.52    0.71
  -5  -3  -1    9.48    0.71
  -5  -3  -1    8.28    0.64
  -5  -3  -1    9.11    0.85
  -6  -3  -1    3.73    1.02
  -6  -3  -1    4.95    0.63
  -6  -3  -1    5.27    0.56
  -6  -3  -1    4.61    0.57
  -6  -3  -1    5.14    0.57
  -6  -3  -1    5.57    0.62
  -7  -3  -1   53.08    1.74
  -7  -3  -1   53.38    1.79
  -7  -3  -1   51.33    2.13
  -7  -3  -1   52.57    1.57
  -7  -3  -1   54.89    2.44
  -7  -3  -1   48.52    1.64
  -7  -3  -1   49.78    1.74
  -7  -3  -1   54.21    2.07
  -8  -3  -1   29.35    2.40
  -8  -3  -1   26.13    1.91
  -8  -3  -1   23.86    1.70
  -8  -3  -1   26.59    1.65
  -8  -3  -1   24.87    1.29
  -8  -3  -1   26.36    1.75
  -8  -3  -1   26.04    1.76
  -8  -3  -1   24.74    1.84
  -9  -3  -1   -0.50    1.61
  -9  -3  -1    0.00    1.35
  -9  -3  -1    2.78    1.32
  -9  -3  -1    0.99    0.82
  -9  -3  -1    4.07    1.30
   7  -4  -1   24.62    2.25
   7  -4  -1   30.86    2.53
   7  -4  -1   21.55    2.07
   7  -4  -1   25.36    2.37
   7  -4  -1   21.54    2.01
  -7   4   1   26.58    2.29
  -7   4   1   24.61    2.59
  -7   4   1   20.46    2.25
  -7   4   1   21.97    2.30
  -7   4   1   22.95    2.00
  -7   4   1   21.69    1.95
  -7   4   1   26.56    1.66
   6  -4  -1   44.22    2.51
   6  -4  -1   54.10    3.22
   6  -4  -1   47.28    2.78
   6  -4  -1   46.69    1.48
   6  -4  -1   52.12    3.20
   6  -4  -1   46.57    2.63
  -6   4   1   50.10    2.07
  -6   4   1   47.39    2.92
  -6   4   1   48.05    2.95
  -6   4   1   42.09    3.54
  -6   4   1   44.49    2.79
  -6   4   1   53.40    2.44
  -6   4   1   46.15    2.56
   5  -4  -1   52.79    2.36
   5  -4  -1   50.61    1.46
   5  -4  -1   49.32    2.13
   5  -4  -1   49.84    2.64
   5  -4  -1   45.48    2.65
   5  -4  -1   50.35    2.29
  -5   4   1   50.55    1.74
  -5   4   1   48.46    2.17
  -5   4   1   53.19    2.05
  -5   4   1   49.14    2.45
  -5   4   1   50.05    2.48
  -5   4   1   47.71    2.73
  -5   4   1   48.60    2.41
   4  -4  -1   63.14    2.07
   4  -4  -1   71.43    2.45
   4  -4  -1   60.40    2.72
   4  -4  -1   67.08    2.26
   4  -4  -1   67.57    2.52
   4  -4  -1   64.95    1.73
  -4   4   1   68.08    2.19
  -4   4   1   66.99    2.28
  -4   4   1   68.10    2.40
  -4   4   1   71.27    2.56
  -4   4   1   59.40    2.70
  -4   4   1   63.59    1.79
  -4   4   1   64.13    2.40
   3  -4  -1   19.56    0.95
   3  -4  -1   20.42    1.14
   3  -4  -1   19.19    1.52
   3  -4  -1   20.70    1.51
   3  -4  -1   20.71    1.32
   3  -4  -1   19.39    1.56
   3  -4  -1   20.60    1.30
  -3   4   1   20.44    1.04
  -3   4   1   20.27    1.31
  -3   4   1   20.27    1.43
  -3   4   1   20.53    1.44
  -3   4   1   20.10    0.83
  -3   4   1   19.35    1.23
  -3   4   1   19.58    1.50
   2  -4  -1    2.30    0.48
   2  -4  -1    3.60    0.65
   2  -4  -1    2.08    0.67
   2  -4  -1    2.32    0.65
   2  -4  -1    2.76    0.48
   2  -4  -1    3.07    0.69
   2  -4  -1    2.83    0.58
  -2   4   1    1.98    0.58
  -2   4   1    2.14    0.44
  -2   4   1    3.33    0.69
  -2   4   1    2.43    0.51
  -2   4   1    2.17    0.26
  -2   4   1    2.38    0.56
  -2   4   1    3.22    0.66
   1  -4  -1   32.21    1.12
   1  -4  -1   31.97    1.29
   1  -4  -1   31.05    1.27
   1  -4  -1   32.92    1.33
   1  -4  -1   33.61    1.20
   1  -4  -1   33.20    1.06
   1  -4  -1   32.48    1.17
  -1   4   1   32.53    1.14
  -1   4   1   33.38    1.14
  -1   4   1   32.95    1.25
  -1   4   1   35.47    1.26
  -1   4   1   33.26    1.03
  -1   4   1   33.02    1.22
   0  -4  -1   81.64    2.06
   0  -4  -1   81.06    1.96
   0  -4  -1   78.55    1.99
   0  -4  -1   82.78    1.91
   0   4   1   81.43    2.00
   0   4   1   83.71    1.97
   0   4   1   81.16    1.89
   0   4   1   81.69    1.98
   0   4   1   82.23    1.96
   0   4   1   79.99    1.88
  -1  -4  -1  330.59    6.86
  -1  -4  -1  325.29    6.62
  -1  -4  -1  338.17    6.86
  -1  -4  -1  327.87    6.86
  -1  -4  -1  336.07    6.79
  -1  -4  -1  335.42    6.81
  -1  -4  -1  325.22    6.62
  -1  -4  -1  331.63    6.81
   1   4   1  338.44    6.78
   1   4   1  337.56    6.80
   1   4   1  334.66    6.75
   1   4   1  333.49    6.80
   1   4   1  336.93    6.82
   1   4   1  331.71    6.71
  -2  -4  -1   40.59    1.10
  -2  -4  -1   41.46    1.09
  -2  -4  -1   42.79    1.06
  -2  -4  -1   43.03    1.09
  -2  -4  -1   43.04    1.16
  -2  -4  -1   40.75    1.16
  -2  -4  -1   40.48    1.10
  -2  -4  -1   41.82    1.31
   2   4   1   43.51    0.98
   2   4   1   43.39    1.13
   2   4   1   42.30    0.96
   2   4   1   43.23    0.93
  -3  -4  -1   77.44    1.83
  -3  -4  -1   73.74    1.94
  -3  -4  -1   75.86    1.64
  -3  -4  -1   76.51    1.67
  -3  -4  -1   74.76    1.67
  -3  -4  -1   74.11    1.63
  -3  -4  -1   74.74    1.77
  -3  -4  -1   76.62    1.87
  -4  -4  -1  203.55    4.23
  -4  -4  -1  198.55    4.14
  -4  -4  -1  206.11    4.44
  -4  -4  -1  203.74    4.41
  -4  -4  -1  202.02    4.34
  -4  -4  -1  201.04    4.11
  -4  -4  -1  203.34    4.23
  -4  -4  -1  198.54    4.10
  -4  -4  -1  203.94    4.13
  -5  -4  -1    8.60    0.76
  -5  -4  -1    7.41    0.84
  -5  -4  -1    6.99    0.51
  -5  -4  -1    8.26    0.70
  -5  -4  -1    8.71    0.59
  -5  -4  -1    7.53    0.56
  -5  -4  -1    7.55    0.59
  -6  -4  -1    4.34    0.66
  -6  -4  -1    3.89    0.52
  -6  -4  -1    3.34    0.93
  -6  -4  -1    3.27    0.77
  -6  -4  -1    5.02    0.63
  -6  -4  -1    4.36    0.47
  -6  -4  -1    3.46    0.50
  -6  -4  -1    4.68    0.57
  -7  -4  -1   -0.73    0.69
  -7  -4  -1    0.06    0.70
  -7  -4  -1    0.51    0.56
  -7  -4  -1   -1.18    1.02
  -7  -4  -1   -0.99    1.17
  -7  -4  -1   -1.17    0.89
  -7  -4  -1    0.33    0.74
  -8  -4  -1    3.71    1.41
  -8  -4  -1    3.43    1.34
  -8  -4  -1    1.61    0.79
  -8  -4  -1    1.91    0.87
  -8  -4  -1    1.95    0.84
  -8  -4  -1   -0.14    0.98
  -8  -4  -1    1.27    1.15
  -8  -4  -1    0.05    1.63
  -9  -4  -1   18.25    1.31
  -9  -4  -1   13.30    1.52
  -9  -4  -1   20.37    1.47
  -9  -4  -1   15.90    1.80
   6  -5  -1    0.21    0.82
   6  -5  -1   -1.13    1.98
   6  -5  -1   -1.50    1.80
   6  -5  -1   -1.51    1.65
   6  -5  -1   -0.01    1.82
   6  -5  -1    0.21    1.05
   6  -5  -1   -1.08    1.57
  -6   5   1    0.83    1.23
  -6   5   1    1.85    1.45
  -6   5   1   -0.67    1.70
  -6   5   1   -0.72    1.76
  -6   5   1    0.16    2.71
  -6   5   1    2.84    1.69
   5  -5  -1   13.83    1.55
   5  -5  -1   14.24    2.76
   5  -5  -1   15.77    1.23
   5  -5  -1   17.90    1.52
   5  -5  -1   16.25    1.68
   5  -5  -1   18.49    2.06
  -5   5   1   16.52    1.38
  -5   5   1   17.69    1.33
  -5   5   1   12.80    1.61
  -5   5   1   15.07    1.45
  -5   5   1   13.22    1.68
  -5   5   1   10.64    1.69
   4  -5  -1   38.55    2.39
   4  -5  -1   32.32    2.06
   4  -5  -1   30.95    2.35
   4  -5  -1   32.61    1.37
   4  -5  -1   29.74    1.81
   4  -5  -1   35.55    2.16
  -4   5   1   32.88    1.94
  -4   5   1   31.70    2.08
  -4   5   1   34.02    2.40
  -4   5   1   31.89    1.19
  -4   5   1   34.29    2.29
  -4   5   1   33.62    1.69
  -4   5   1   28.41    2.23
   3  -5  -1   50.46    2.27
   3  -5  -1   49.27    2.31
   3  -5  -1   50.64    2.19
   3  -5  -1   50.07    1.84
   3  -5  -1   48.97    1.65
   3  -5  -1   50.34    2.06
   3  -5  -1   48.37    2.04
  -3   5   1   48.00    2.12
  -3   5   1   49.51    1.31
  -3   5   1   50.27    2.00
  -3   5   1   48.83    1.24
  -3   5   1   51.64    1.76
  -3   5   1   52.42    1.94
  -3   5   1   51.20    2.13
  -3   5   1   48.85    2.20
   2  -5  -1  104.87    2.61
   2  -5  -1   96.70    2.91
   2  -5  -1  103.13    2.74
   2  -5  -1  102.32    2.84
   2  -5  -1  103.69    2.59
   2  -5  -1  103.01    2.94
   2  -5  -1  106.25    2.79
  -2   5   1  104.82    2.86
  -2   5   1  105.40    2.69
  -2   5   1  102.43    2.65
  -2   5   1  105.27    2.56
  -2   5   1  102.83    2.83
  -2   5   1  108.58    2.82
   1  -5  -1  156.91    3.83
   1  -5  -1  162.74    3.71
   1  -5  -1  156.74    3.74
   1  -5  -1  159.42    3.75
   1  -5  -1  163.23    3.62
   1  -5  -1  161.87    3.85
   1  -5  -1  163.87    3.68
  -1   5   1  160.25    3.62
  -1   5   1  161.91    3.57
  -1   5   1  160.48    3.67
  -1   5   1  160.18    3.79
  -1   5   1  161.23    3.73
  -1   5   1  164.92    3.75
   0  -5  -1    3.06    0.74
   0  -5  -1    1.82    0.54
   0  -5  -1    2.02    0.61
   0  -5  -1    2.70    0.57
   0  -5  -1    1.57    0.72
   0  -5  -1    2.60    0.45
   0   5   1    2.84    0.49
   0   5   1    2.08    0.61
   0   5   1    3.19    0.53
   0   5   1    2.64    0.60
   0   5   1    3.30    0.47
   0   5   1    2.15    0.45
  -1  -5  -1   96.02    2.44
  -1  -5  -1   97.29    2.37
  -1  -5  -1   98.90    2.38
  -1  -5  -1   91.69    2.30
  -1  -5  -1   98.14    2.29
  -1  -5  -1   97.59    2.29
  -1  -5  -1   96.15    2.40
   1   5   1   96.73    2.14
   1   5   1   96.47    2.19
   1   5   1   94.04    2.26
   1   5   1   96.30    2.26
   1   5   1   99.24    2.30
   1   5   1   96.61    2.28
  -2  -5  -1    2.47    0.46
  -2  -5  -1    2.94    0.59
  -2  -5  -1    2.68    0.48
  -2  -5  -1    2.30    0.44
  -2  -5  -1    2.24    0.42
  -2  -5  -1    2.29    0.43
  -2  -5  -1    2.30    0.31
  -2  -5  -1    2.47    0.48
   2   5   1    2.42    0.44
   2   5   1    2.56    0.34
   2   5   1    2.73    0.38
   2   5   1    3.04    0.28
   2   5   1    3.01    0.25
  -3  -5  -1   96.67    2.23
  -3  -5  -1   96.93    2.49
  -3  -5  -1   96.46    2.18
  -3  -5  -1   97.97    2.29
  -3  -5  -1   95.86    2.14
  -3  -5  -1   96.03    2.15
  -3  -5  -1   95.85    2.21
  -3  -5  -1   95.92    2.33
  -4  -5  -1   65.86    1.79
  -4  -5  -1   63.71    1.50
  -4  -5  -1   64.62    1.53
  -4  -5  -1   63.07    1.67
  -4  -5  -1   63.28    1.48
  -4  -5  -1   62.33    1.94
  -4  -5  -1   64.55    1.54
  -4  -5  -1   63.88    1.80
  -5  -5  -1   40.78    1.64
  -5  -5  -1   40.36    1.30
  -5  -5  -1   38.71    1.09
  -5  -5  -1   41.46    1.55
  -5  -5  -1   42.71    1.11
  -5  -5  -1   41.70    1.13
  -5  -5  -1   43.00    1.67
  -5  -5  -1   40.76    1.31
  -6  -5  -1    0.55    0.54
  -6  -5  -1    1.30    0.51
  -6  -5  -1    0.30    0.86
  -6  -5  -1   -0.29    0.89
  -6  -5  -1    0.33    0.59
  -6  -5  -1    1.00    0.92
  -6  -5  -1    1.45    0.45
  -6  -5  -1    0.74    0.43
  -6  -5  -1    0.10    0.75
  -7  -5  -1   13.12    1.10
  -7  -5  -1   11.62    1.41
  -7  -5  -1   13.81    0.95
  -7  -5  -1   13.20    1.06
  -7  -5  -1   13.02    1.10
  -7  -5  -1   13.74    0.89
  -7  -5  -1   14.95    1.42
  -7  -5  -1   13.74    0.93
  -8  -5  -1    4.84    1.58
  -8  -5  -1    3.21    0.80
  -8  -5  -1    3.52    1.12
  -8  -5  -1    2.59    0.84
  -8  -5  -1    4.20    1.37
  -8  -5  -1    3.75    1.05
  -8  -5  -1    1.39    1.07
  -8  -5  -1    4.20    1.68
   5  -6  -1    0.70    2.08
   5  -6  -1   -3.88    2.96
   5  -6  -1    0.49    1.83
   5  -6  -1    0.47    0.97
   5  -6  -1    3.76    1.61
   5  -6  -1   -4.18    3.31
   5  -6  -1    1.43    1.24
  -5   6   1    0.14    1.91
  -5   6   1   -0.03    0.74
  -5   6   1    0.25    0.87
  -5   6   1   -0.14    1.77
  -5   6   1    3.52    2.05
  -5   6   1    3.17    1.34
  -5   6   1    0.76    1.54
  -5   6   1   -1.32    1.51
   4  -6  -1   10.68    2.23
   4  -6  -1   10.20    1.04
   4  -6  -1    7.17    1.15
   4  -6  -1   10.70    1.54
   4  -6  -1   11.04    1.59
   4  -6  -1   10.53    1.81
   4  -6  -1    9.99    1.21
  -4   6   1    9.96    1.59
  -4   6   1   11.85    1.82
  -4   6   1    7.39    1.18
  -4   6   1    9.20    0.59
  -4   6   1   12.09    1.64
  -4   6   1    8.17    1.59
  -4   6   1    9.44    0.65
  -4   6   1    9.64    1.35
   3  -6  -1    2.22    1.13
   3  -6  -1    1.15    0.85
   3  -6  -1    3.40    1.22
   3  -6  -1    0.40    0.96
   3  -6  -1    1.30    0.97
   3  -6  -1    0.75    1.20
   3  -6  -1    2.06    0.99
   3  -6  -1    1.74    1.24
  -3   6   1    3.59    0.96
  -3   6   1    1.35    0.82
  -3   6   1    1.86    1.30
  -3   6   1    2.14    1.14
  -3   6   1    1.25    1.09
  -3   6   1    3.91    1.18
   2  -6  -1   22.09    1.50
   2  -6  -1   21.79    1.84
   2  -6  -1   23.58    1.91
   2  -6  -1   21.90    1.92
   2  -6  -1   22.00    1.47
   2  -6  -1   21.22    1.64
   2  -6  -1   23.00    1.68
  -2   6   1   20.78    1.76
  -2   6   1   18.09    1.51
  -2   6   1   21.29    1.80
  -2   6   1   24.44    1.77
  -2   6   1   25.36    1.39
  -2   6   1   21.63    1.50
   1  -6  -1  115.65    4.02
   1  -6  -1  129.49    3.19
   1  -6  -1  113.64    3.24
   1  -6  -1  122.16    3.31
   1  -6  -1  127.10    3.16
   1  -6  -1  125.04    3.25
   1  -6  -1  125.37    3.15
   1  -6  -1  120.77    3.34
  -1   6   1  125.42    3.09
  -1   6   1  124.94    3.33
  -1   6   1  117.22    3.01
   0  -6  -1  332.23    7.36
   0  -6  -1  348.84    7.29
   0  -6  -1  347.64    7.32
   0  -6  -1  335.79    7.21
   0  -6  -1  334.02    7.33
   0  -6  -1  347.84    7.18
   0  -6  -1  335.97    7.26
   0   6   1  343.16    7.21
   0   6   1  345.44    7.21
   0   6   1  332.32    7.25
   0   6   1  342.25    7.16
   0   6   1  338.19    7.13
  -1  -6  -1   -0.46    0.56
  -1  -6  -1    1.09    0.63
  -1  -6  -1    0.09    0.49
  -1  -6  -1    0.17    0.62
  -1  -6  -1    1.30    0.74
  -1  -6  -1   -0.07    0.59
  -1  -6  -1    0.59    0.62
   1   6   1   -0.13    0.37
   1   6   1    0.19    0.43
   1   6   1   -0.03    0.51
   1   6   1    0.38    0.56
   1   6   1   -0.75    0.50
   1   6   1    0.97    0.64
  -2  -6  -1  108.19    2.86
  -2  -6  -1  104.87    2.57
  -2  -6  -1  106.41    2.28
  -2  -6  -1  106.63    2.70
  -2  -6  -1  112.66    2.71
  -2  -6  -1  106.66    2.25
  -2  -6  -1  110.65    2.65
  -2  -6  -1  107.22    2.59
   2   6   1  110.11    2.36
   2   6   1  106.75    2.61
   2   6   1  109.40    2.31
   2   6   1  108.85    2.45
   2   6   1  112.37    2.46
   2   6   1  106.68    2.58
  -3  -6  -1    7.54    0.64
  -3  -6  -1    5.62    1.08
  -3  -6  -1    6.97    0.72
  -3  -6  -1    7.65    0.69
  -3  -6  -1    7.99    0.61
  -3  -6  -1    7.79    0.71
  -3  -6  -1    7.56    0.86
  -3  -6  -1    8.19    0.56
  -4  -6  -1   -0.35    0.63
  -4  -6  -1    0.57    0.81
  -4  -6  -1    1.02    0.60
  -4  -6  -1    0.00    0.43
  -4  -6  -1    0.49    0.54
  -4  -6  -1   -0.38    0.44
  -4  -6  -1   -0.28    0.58
  -4  -6  -1   -0.20    0.48
  -5  -6  -1    0.14    0.83
  -5  -6  -1    1.03    0.58
  -5  -6  -1    0.71    0.51
  -5  -6  -1    0.77    0.76
  -5  -6  -1   -0.23    0.80
  -5  -6  -1    0.91    0.43
  -5  -6  -1    0.48    0.65
  -5  -6  -1    0.88    0.49
  -5  -6  -1    0.62    0.52
  -6  -6  -1    7.46    1.11
  -6  -6  -1    7.66    0.74
  -6  -6  -1    7.42    0.67
  -6  -6  -1    7.45    1.20
  -6  -6  -1    6.87    1.06
  -6  -6  -1    6.52    0.60
  -6  -6  -1    6.46    0.78
  -6  -6  -1    6.21    0.62
  -6  -6  -1    8.92    1.19
  -7  -6  -1    7.48    1.36
  -7  -6  -1    8.48    0.85
  -7  -6  -1    5.77    1.25
  -7  -6  -1    5.70    1.44
  -7  -6  -1    7.73    0.71
  -7  -6  -1    5.55    0.89
  -7  -6  -1    9.56    1.53
  -7  -6  -1    4.94    1.22
  -8  -6  -1   40.33    1.59
  -8  -6  -1   42.71    2.48
  -8  -6  -1   42.01    1.68
  -8  -6  -1   40.47    2.12
  -8  -6  -1   39.27    2.53
  -8  -6  -1   41.54    2.15
  -8  -6  -1   44.49    2.05
   4  -7  -1    6.91    1.97
   4  -7  -1    9.36    1.31
   4  -7  -1    9.78    1.76
   4  -7  -1    3.89    1.96
   4  -7  -1    4.99    2.37
   4  -7  -1    8.79    1.57
   4  -7  -1    2.81    2.12
  -4   7   1    5.05    1.94
  -4   7   1    5.79    1.60
  -4   7   1    8.34    1.95
  -4   7   1    8.80    2.05
  -4   7   1    9.51    2.03
  -4   7   1    5.63    1.41
   3  -7  -1   35.68    2.98
   3  -7  -1   33.69    2.68
   3  -7  -1   30.02    2.45
   3  -7  -1   34.46    3.02
   3  -7  -1   35.54    3.13
   3  -7  -1   40.46    3.00
   3  -7  -1   33.42    2.13
   3  -7  -1   37.41    2.47
  -3   7   1   31.31    2.43
  -3   7   1   33.92    2.87
  -3   7   1   37.41    2.50
  -3   7   1   34.85    2.14
  -3   7   1   34.58    2.10
  -3   7   1   32.92    2.12
   2  -7  -1    7.22    1.15
   2  -7  -1    8.28    1.47
   2  -7  -1    8.65    1.49
   2  -7  -1    6.99    1.48
   2  -7  -1    7.24    1.31
   2  -7  -1    5.92    1.34
   2  -7  -1    9.07    1.20
   2  -7  -1    8.92    1.27
  -2   7   1    9.38    1.44
  -2   7   1    7.91    1.09
  -2   7   1    8.53    1.13
  -2   7   1    9.85    1.42
  -2   7   1    7.27    1.28
  -2   7   1    8.48    1.15
   1  -7  -1    8.21    1.35
   1  -7  -1    7.20    1.18
   1  -7  -1    6.24    1.02
   1  -7  -1    8.67    1.25
   1  -7  -1    7.58    1.11
   1  -7  -1    7.28    1.17
   1  -7  -1    5.74    1.21
   1  -7  -1    6.39    1.14
  -1   7   1    9.02    1.08
  -1   7   1    9.34    1.32
  -1   7   1    6.06    0.89
  -1   7   1    6.98    1.15
  -1   7   1    9.28    1.00
  -1   7   1    6.95    0.97
   0  -7  -1    1.17    0.97
   0  -7  -1    2.84    0.83
   0  -7  -1    1.37    1.01
   0  -7  -1    1.65    0.97
   0  -7  -1    1.96    0.95
   0  -7  -1    1.91    1.01
   0  -7  -1    2.29    1.05
   0  -7  -1    2.09    0.97
   0   7   1    1.67    0.71
   0   7   1    1.13    0.88
   0   7   1    2.06    1.00
   0   7   1    0.80    0.68
   0   7   1    1.56    0.65
   0   7   1    2.11    0.87
  -1  -7  -1   10.11    0.94
  -1  -7  -1   10.48    1.17
  -1  -7  -1    8.99    1.02
  -1  -7  -1    9.86    1.02
  -1  -7  -1    8.33    0.82
  -1  -7  -1    9.65    1.01
  -1  -7  -1   10.22    1.08
   1   7   1   11.17    0.91
   1   7   1   10.12    0.90
   1   7   1   11.56    0.99
   1   7   1    8.51    0.83
   1   7   1   10.06    0.95
   1   7   1   11.20    0.90
  -2  -7  -1   17.88    1.23
  -2  -7  -1   19.07    1.36
  -2  -7  -1   16.61    1.15
  -2  -7  -1   18.44    1.41
  -2  -7  -1   18.44    1.39
  -2  -7  -1   17.68    1.28
  -2  -7  -1   15.92    1.27
   2   7   1   16.82    0.76
   2   7   1   17.25    1.17
   2   7   1   16.87    0.86
   2   7   1   18.25    1.27
   2   7   1   17.00    1.04
   2   7   1   17.30    1.31
  -3  -7  -1  122.72    3.00
  -3  -7  -1  123.53    3.13
  -3  -7  -1  124.68    3.14
  -3  -7  -1  124.98    3.01
  -3  -7  -1  119.11    2.65
  -3  -7  -1  122.03    2.93
  -3  -7  -1  127.79    3.17
  -3  -7  -1  127.13    3.47
  -3  -7  -1  122.17    2.71
  -4  -7  -1    0.78    0.72
  -4  -7  -1    0.26    0.78
  -4  -7  -1    0.80    0.60
  -4  -7  -1    1.39    0.83
  -4  -7  -1    0.09    0.57
  -4  -7  -1    1.01    0.64
  -4  -7  -1    2.11    1.13
  -4  -7  -1    0.60    0.87
  -5  -7  -1    8.07    1.32
  -5  -7  -1    8.25    0.76
  -5  -7  -1    6.65    1.08
  -5  -7  -1    8.51    0.93
  -5  -7  -1    6.60    0.84
  -5  -7  -1    7.65    0.67
  -5  -7  -1    7.02    0.83
  -5  -7  -1    8.04    0.96
  -6  -7  -1   39.14    1.54
  -6  -7  -1   41.53    2.34
  -6  -7  -1   41.73    2.58
  -6  -7  -1   40.04    1.68
  -6  -7  -1   37.97    1.82
  -6  -7  -1   38.63    2.21
  -6  -7  -1   37.02    1.56
  -7  -7  -1    0.15    0.83
  -7  -7  -1   -1.56    0.88
  -7  -7  -1    0.63    1.63
  -7  -7  -1   -0.52    1.05
  -7  -7  -1    1.04    0.99
  -7  -7  -1    0.78    0.80
  -7  -7  -1   -1.25    1.43
  -7  -7  -1    1.33    1.60
  -7  -7  -1   -2.44    1.44
   3  -8  -1   17.62    1.70
   3  -8  -1   14.72    2.29
   3  -8  -1   13.97    2.45
   3  -8  -1   14.78    2.81
   3  -8  -1   17.19    2.04
   3  -8  -1   15.96    2.12
   3  -8  -1   14.47    2.07
  -3   8   1   16.35    2.33
  -3   8   1   15.44    1.93
  -3   8   1   13.22    1.94
   2  -8  -1    1.38    1.81
   2  -8  -1    1.20    1.72
   2  -8  -1    2.88    1.88
   2  -8  -1    2.28    1.42
   2  -8  -1    1.70    1.49
   2  -8  -1    2.48    2.03
   2  -8  -1    2.34    1.52
   2  -8  -1    1.42    1.63
  -2   8   1    5.28    1.74
  -2   8   1    4.27    1.74
  -2   8   1    3.26    1.35
  -2   8   1    3.92    1.52
  -2   8   1    1.61    1.23
   1  -8  -1    4.39    1.39
   1  -8  -1    5.69    1.53
   1  -8  -1    4.87    1.46
   1  -8  -1    2.30    1.70
   1  -8  -1    5.79    1.54
   1  -8  -1    6.22    1.38
   1  -8  -1    5.34    1.58
   1  -8  -1    2.46    1.47
  -1   8   1    1.20    1.09
  -1   8   1    3.99    1.19
  -1   8   1    4.24    1.40
  -1   8   1    3.49    1.52
  -1   8   1    4.36    1.12
  -1   8   1    3.28    1.25
   0  -8  -1   -0.11    1.28
   0  -8  -1    0.84    1.15
   0  -8  -1    0.22    1.87
   0  -8  -1   -0.21    1.35
   0  -8  -1    0.88    1.37
   0  -8  -1    0.17    1.25
   0  -8  -1   -0.22    1.39
   0  -8  -1   -0.20    1.36
   0   8   1   -1.15    0.92
   0   8   1   -0.46    1.29
   0   8   1    0.66    0.85
   0   8   1   -1.07    1.04
   0   8   1   -0.05    1.12
   0   8   1    0.08    0.90
  -1  -8  -1   25.13    1.89
  -1  -8  -1   24.42    1.88
  -1  -8  -1   24.60    2.20
  -1  -8  -1   26.16    2.29
  -1  -8  -1   30.54    2.29
  -1  -8  -1   20.66    1.68
  -1  -8  -1   27.79    1.80
  -1  -8  -1   24.39    2.00
   1   8   1   23.50    1.25
   1   8   1   26.46    1.95
   1   8   1   26.63    1.74
   1   8   1   27.13    1.89
   1   8   1   25.92    1.40
   1   8   1   23.62    1.79
  -2  -8  -1   19.79    1.86
  -2  -8  -1   20.23    1.62
  -2  -8  -1   19.61    1.37
  -2  -8  -1   25.33    2.11
  -2  -8  -1   25.64    1.75
  -2  -8  -1   16.54    1.20
  -2  -8  -1   24.70    2.17
   2   8   1   20.28    1.46
   2   8   1   19.19    1.29
   2   8   1   20.83    1.68
   2   8   1   19.95    1.06
   2   8   1   20.26    0.94
  -3  -8  -1   15.94    1.39
  -3  -8  -1   16.34    1.23
  -3  -8  -1   15.43    1.07
  -3  -8  -1   16.16    1.38
  -3  -8  -1   17.28    1.25
  -3  -8  -1   17.95    1.64
  -3  -8  -1   14.98    1.29
  -4  -8  -1   20.37    1.48
  -4  -8  -1   22.71    1.85
  -4  -8  -1   20.78    1.27
  -4  -8  -1   17.71    1.32
  -4  -8  -1   22.37    1.96
  -4  -8  -1   18.87    1.06
  -4  -8  -1   21.94    1.56
  -4  -8  -1   19.26    1.43
  -4  -8  -1   21.00    1.78
  -5  -8  -1   28.43    1.71
  -5  -8  -1   33.01    2.05
  -5  -8  -1   32.37    1.68
  -5  -8  -1   31.37    2.09
  -5  -8  -1   30.86    1.81
  -5  -8  -1   28.45    1.47
  -5  -8  -1   30.92    1.90
  -5  -8  -1   35.34    2.96
  -6  -8  -1    7.55    1.26
  -6  -8  -1    8.68    1.95
  -6  -8  -1    9.57    1.33
  -6  -8  -1   10.98    1.80
  -6  -8  -1    7.82    0.90
  -6  -8  -1    8.89    1.40
  -6  -8  -1    8.64    1.26
  -6  -8  -1    7.15    1.14
   1  -9  -1    7.31    2.05
   1  -9  -1    7.46    2.13
   1  -9  -1    7.46    2.17
   0  -9  -1   -0.96    1.90
   0  -9  -1    2.00    1.71
   0  -9  -1    0.08    1.85
   0  -9  -1    0.81    1.88
   0  -9  -1    2.35    1.95
   0  -9  -1   -1.08    1.95
   0   9   1    1.34    1.87
   0   9   1   -1.76    1.44
   0   9   1    0.97    1.37
   0   9   1    0.03    1.24
   0   9   1   -1.28    1.71
  -1  -9  -1   55.95    3.56
  -1  -9  -1   48.51    3.52
  -1  -9  -1   44.87    3.07
  -1  -9  -1   46.31    3.47
  -1  -9  -1   51.32    2.99
  -1  -9  -1   52.14    3.06
  -1  -9  -1   45.40    2.89
  -1  -9  -1   48.38    3.57
   1   9   1   46.78    2.56
   1   9   1   47.53    1.99
   1   9   1   48.08    2.67
   1   9   1   49.33    2.59
   1   9   1   42.10    2.33
  -2  -9  -1    6.98    2.06
  -2  -9  -1    4.87    1.94
  -2  -9  -1    4.24    1.34
  -2  -9  -1    5.96    1.83
  -2  -9  -1    5.96    1.44
  -2  -9  -1    7.27    1.83
  -2  -9  -1    6.86    1.52
   2   9   1    6.97    0.78
   2   9   1    6.20    1.07
   2   9   1    6.81    1.32
   2   9   1    5.56    0.89
  -3  -9  -1    0.45    1.31
  -3  -9  -1    1.15    1.46
  -3  -9  -1    0.51    1.74
  -3  -9  -1    4.51    1.62
  -3  -9  -1   -0.57    1.32
  -4  -9  -1    6.63    1.30
  -4  -9  -1    8.54    1.80
  -4  -9  -1    8.31    1.73
  -4  -9  -1    4.50    2.24
   1   9  -2   47.17    2.70
   1   9  -2   43.39    3.14
  -1  -9   2   45.69    3.45
  -5  -8   2    4.33    1.13
  -5  -8   2    2.32    2.39
  -5  -8   2    0.97    1.20
  -4  -8   2   -1.09    1.02
  -4  -8   2   -0.09    1.65
  -4  -8   2   -1.47    1.33
  -4  -8   2    0.10    1.36
  -4  -8   2    0.68    1.02
  -4  -8   2   -0.48    1.17
  -4  -8   2    0.08    0.79
  -4  -8   2    1.24    1.26
   3   8  -2    1.93    0.75
   3   8  -2    1.95    1.02
   3   8  -2    2.54    1.21
   3   8  -2    1.86    0.83
  -3  -8   2    3.57    1.27
  -3  -8   2    2.25    1.34
  -3  -8   2    2.33    1.15
  -3  -8   2   -0.07    1.14
  -3  -8   2    0.60    1.53
  -3  -8   2    2.85    0.57
  -3  -8   2    0.98    1.23
  -3  -8   2    2.66    1.03
   2   8  -2    6.36    1.02
   2   8  -2    6.66    0.95
   2   8  -2    4.67    1.33
   2   8  -2    5.16    1.18
  -2  -8   2    7.50    1.21
  -2  -8   2    6.38    1.30
  -2  -8   2    5.16    1.31
  -2  -8   2    7.78    1.54
  -2  -8   2    5.74    1.37
  -2  -8   2    5.44    1.54
  -2  -8   2    5.53    1.26
   1   8  -2    8.06    1.40
   1   8  -2   10.59    1.09
   1   8  -2    7.21    0.85
   1   8  -2    6.56    1.45
   1   8  -2   11.02    1.18
   1   8  -2    9.05    1.29
  -1  -8   2   10.10    1.49
  -1  -8   2    9.19    1.55
  -1  -8   2    8.46    1.25
  -1  -8   2    9.45    1.50
  -1  -8   2   11.89    1.72
  -1  -8   2   11.07    1.46
  -1  -8   2    8.10    1.18
   0   8  -2    2.19    1.19
   0   8  -2    1.68    1.48
   0   8  -2    1.73    1.07
   0   8  -2    3.65    1.23
   0   8  -2    2.30    0.94
   0   8  -2    2.38    1.57
   0  -8   2    4.19    1.27
   0  -8   2    3.21    1.49
   0  -8   2    2.86    1.61
   0  -8   2    1.84    1.52
   0  -8   2    4.36    1.48
   0  -8   2    0.45    1.41
   0  -8   2    3.80    1.38
  -1   8  -2   45.74    2.61
  -1   8  -2   45.08    2.34
  -1   8  -2   47.32    2.51
  -1   8  -2   40.51    3.17
  -1   8  -2   50.17    2.53
  -1   8  -2   50.13    3.33
   1  -8   2   44.51    2.85
   1  -8   2   51.02    3.62
   1  -8   2   51.12    3.20
   1  -8   2   49.17    2.90
   1  -8   2   49.03    2.95
   1  -8   2   49.12    3.25
   1  -8   2   49.22    3.15
  -2   8  -2    0.62    1.62
  -2   8  -2   -0.87    1.53
  -2   8  -2    0.35    1.41
  -2   8  -2    0.17    1.51
  -2   8  -2   -2.44    1.82
  -2   8  -2   -2.16    1.74
   2  -8   2    0.21    1.63
   2  -8   2    3.62    2.37
   2  -8   2   -3.40    1.77
   2  -8   2   -1.15    1.84
   2  -8   2    2.15    2.06
   2  -8   2    0.62    1.65
   2  -8   2   -1.19    1.61
   2  -8   2   -0.08    1.83
  -6  -7   2   24.55    1.97
  -6  -7   2   25.23    1.58
  -6  -7   2   22.97    1.92
  -6  -7   2   26.69    2.39
  -6  -7   2   24.09    1.92
  -6  -7   2   26.63    2.09
  -5  -7   2   13.34    1.13
  -5  -7   2   12.04    1.37
  -5  -7   2   14.44    1.55
  -5  -7   2   15.27    1.26
  -5  -7   2   13.67    0.98
  -5  -7   2   11.75    1.14
  -5  -7   2   12.24    1.06
   4   7  -2   17.67    1.11
   4   7  -2   16.86    1.08
  -4  -7   2   17.48    1.30
  -4  -7   2   17.79    1.27
  -4  -7   2   17.26    1.13
  -4  -7   2   16.59    1.17
  -4  -7   2   14.43    1.18
  -4  -7   2   16.88    1.30
  -4  -7   2   17.10    1.47
  -4  -7   2   16.79    1.33
   3   7  -2   29.64    1.72
   3   7  -2   28.08    1.24
   3   7  -2   26.82    1.54
   3   7  -2   27.66    1.22
  -3  -7   2   27.81    2.11
  -3  -7   2   30.99    1.85
  -3  -7   2   30.16    1.57
  -3  -7   2   27.64    1.66
  -3  -7   2   33.13    1.84
  -3  -7   2   27.59    1.06
  -3  -7   2   31.41    1.72
  -3  -7   2   30.80    1.49
   2   7  -2    3.39    0.69
   2   7  -2    2.57    0.72
   2   7  -2    2.17    1.03
   2   7  -2    2.37    0.90
  -2  -7   2    3.34    0.81
  -2  -7   2    3.12    0.90
  -2  -7   2    3.28    0.92
  -2  -7   2    3.23    0.90
  -2  -7   2    1.87    0.89
  -2  -7   2    2.82    0.38
  -2  -7   2    3.25    1.11
  -2  -7   2    3.32    1.02
   1   7  -2   20.63    1.41
   1   7  -2   21.49    1.78
   1   7  -2   20.12    1.33
   1   7  -2   18.44    1.15
   1   7  -2   20.36    1.38
   1   7  -2   21.42    1.28
  -1  -7   2   21.44    1.96
  -1  -7   2   21.18    1.66
  -1  -7   2   21.23    1.55
  -1  -7   2   23.04    1.91
  -1  -7   2   20.11    1.28
  -1  -7   2   24.22    1.72
  -1  -7   2   18.20    1.30
   0   7  -2   18.09    1.55
   0   7  -2   14.46    0.95
   0   7  -2   14.69    1.07
   0   7  -2   16.99    1.43
   0   7  -2   18.93    1.43
   0   7  -2   17.62    1.46
   0  -7   2   18.37    1.23
   0  -7   2   17.25    1.40
   0  -7   2   17.55    1.34
   0  -7   2   16.81    1.29
   0  -7   2   15.87    1.33
   0  -7   2   17.56    1.44
   0  -7   2   15.79    1.24
  -1   7  -2   30.60    1.87
  -1   7  -2   27.29    1.77
  -1   7  -2   29.39    1.95
  -1   7  -2   28.70    2.30
  -1   7  -2   26.64    2.37
  -1   7  -2   29.81    1.72
   1  -7   2   27.05    2.07
   1  -7   2   29.04    2.04
   1  -7   2   31.93    2.32
   1  -7   2   28.56    2.28
   1  -7   2   28.57    2.01
   1  -7   2   30.02    2.27
   1  -7   2   28.69    2.46
  -2   7  -2    8.66    1.12
  -2   7  -2    9.41    1.30
  -2   7  -2   13.55    1.33
  -2   7  -2   13.45    1.81
  -2   7  -2   10.79    1.66
  -2   7  -2   12.42    1.43
   2  -7   2    9.78    1.47
   2  -7   2    9.72    1.24
   2  -7   2   10.62    1.45
   2  -7   2    9.52    1.54
   2  -7   2   12.93    1.36
   2  -7   2   13.15    1.32
   2  -7   2   13.18    1.53
  -3   7  -2   13.09    1.43
  -3   7  -2   16.24    1.64
  -3   7  -2   15.64    1.70
  -3   7  -2   14.88    2.07
  -3   7  -2   17.89    1.82
  -3   7  -2   17.39    1.96
   3  -7   2   17.19    2.11
   3  -7   2   18.89    1.87
   3  -7   2   15.22    1.90
   3  -7   2   13.56    1.98
   3  -7   2   16.01    1.67
   3  -7   2   17.31    1.49
   3  -7   2   13.41    1.37
   3  -7   2   17.33    1.83
  -4   7  -2   -3.29    1.67
  -4   7  -2   -0.39    1.98
  -4   7  -2   -0.73    2.22
  -4   7  -2   -0.52    1.84
  -4   7  -2    0.38    1.46
  -4   7  -2    1.88    2.11
   4  -7   2   -1.33    1.33
   4  -7   2    0.19    2.37
   4  -7   2    1.29    1.36
   4  -7   2    0.74    1.61
   4  -7   2    0.35    1.93
   4  -7   2   -0.43    1.84
   4  -7   2    0.29    2.05
  -7  -6   2   97.37    3.40
  -7  -6   2   94.61    2.91
  -7  -6   2  105.07    4.22
  -7  -6   2   86.48    3.32
  -7  -6   2   94.91    2.81
  -7  -6   2   90.21    2.63
  -7  -6   2   90.74    3.41
  -6  -6   2   31.52    1.64
  -6  -6   2   33.43    2.38
  -6  -6   2   28.08    1.76
  -6  -6   2   30.02    2.10
  -6  -6   2   26.41    1.54
  -6  -6   2   29.08    2.08
  -6  -6   2   31.01    2.24
  -5  -6   2   16.42    1.08
  -5  -6   2   16.15    1.39
  -5  -6   2   14.39    1.14
  -5  -6   2   18.28    1.33
  -5  -6   2   15.00    1.21
  -5  -6   2   15.05    1.27
  -5  -6   2   15.53    1.35
   4   6  -2  164.92    3.66
   4   6  -2  165.56    3.56
   4   6  -2  163.46    3.63
   4   6  -2  165.38    3.54
  -4  -6   2  167.48    3.95
  -4  -6   2  167.55    3.59
  -4  -6   2  168.59    3.72
  -4  -6   2  169.71    3.84
  -4  -6   2  162.72    3.69
  -4  -6   2  167.41    3.85
  -4  -6   2  163.54    3.74
  -4  -6   2  167.79    4.10
   3   6  -2    0.68    0.75
   3   6  -2    0.63    0.64
   3   6  -2    0.72    0.78
   3   6  -2    0.82    0.49
   3   6  -2    0.63    0.48
  -3  -6   2    0.27    0.58
  -3  -6   2    0.59    0.69
  -3  -6   2    0.34    0.62
  -3  -6   2    0.01    0.67
  -3  -6   2    0.95    0.46
  -3  -6   2    0.57    0.84
  -3  -6   2    0.30    0.58
  -3  -6   2    1.58    0.60
   2   6  -2  101.38    2.42
   2   6  -2   96.60    2.60
   2   6  -2  100.97    2.38
   2   6  -2   98.24    2.38
   2   6  -2   97.75    2.63
  -2  -6   2   95.46    2.47
  -2  -6   2  104.49    2.56
  -2  -6   2   98.94    2.58
  -2  -6   2   98.88    2.76
  -2  -6   2   98.75    2.50
  -2  -6   2   99.30    2.58
  -2  -6   2   98.55    2.68
  -2  -6   2   96.71    2.16
   1   6  -2  118.16    2.77
   1   6  -2  116.19    3.03
   1   6  -2  117.56    2.87
   1   6  -2  112.83    2.65
   1   6  -2  113.11    2.99
   1   6  -2  114.07    2.79
   1   6  -2  116.30    2.55
  -1  -6   2  121.33    3.05
  -1  -6   2  113.75    3.09
  -1  -6   2  120.83    2.91
  -1  -6   2  114.31    2.42
  -1  -6   2  116.98    2.89
  -1  -6   2  115.51    2.98
  -1  -6   2  113.11    2.94
   0   6  -2    0.32    0.62
   0   6  -2    0.82    0.65
   0   6  -2    0.72    0.84
   0   6  -2    1.96    0.92
   0   6  -2    0.61    0.65
   0   6  -2    0.79    0.54
   0  -6   2    1.65    0.74
   0  -6   2    0.49    0.89
   0  -6   2    0.24    0.78
   0  -6   2    0.39    0.62
   0  -6   2    0.98    0.74
   0  -6   2    0.39    0.86
   0  -6   2   -0.01    0.80
  -1   6  -2  106.28    3.17
  -1   6  -2  111.24    3.07
  -1   6  -2  110.30    2.91
  -1   6  -2  106.69    2.76
  -1   6  -2  109.46    2.77
  -1   6  -2   97.21    3.03
   1  -6   2  106.30    2.97
   1  -6   2  107.57    3.15
   1  -6   2  109.19    2.88
   1  -6   2  110.02    3.09
   1  -6   2  109.37    3.00
   1  -6   2  107.64    2.84
  -2   6  -2   42.70    2.46
  -2   6  -2   48.57    2.37
  -2   6  -2   47.21    1.94
  -2   6  -2   48.43    1.86
  -2   6  -2   44.17    2.03
  -2   6  -2   48.79    2.15
   2  -6   2   50.79    2.23
   2  -6   2   45.03    2.17
   2  -6   2   49.57    2.02
   2  -6   2   45.78    2.50
   2  -6   2   47.87    2.45
   2  -6   2   47.21    1.90
   2  -6   2   49.84    2.25
  -3   6  -2    0.17    1.04
  -3   6  -2    1.55    1.29
  -3   6  -2    1.27    1.34
  -3   6  -2    0.71    0.34
  -3   6  -2    0.58    0.85
  -3   6  -2    0.06    1.21
  -3   6  -2    2.73    1.08
   3  -6   2    2.49    0.92
   3  -6   2   -0.30    1.28
   3  -6   2   -0.48    1.07
   3  -6   2    0.26    1.11
   3  -6   2    0.55    0.90
   3  -6   2    1.35    1.18
   3  -6   2   -0.14    1.27
   3  -6   2    0.67    0.92
  -4   6  -2    3.08    1.70
  -4   6  -2    2.07    0.52
  -4   6  -2    1.32    0.69
  -4   6  -2    2.08    1.12
  -4   6  -2    2.45    1.47
  -4   6  -2    2.07    1.20
  -4   6  -2    0.81    1.28
  -4   6  -2   -0.70    1.67
   4  -6   2    0.57    1.71
   4  -6   2    0.63    1.18
   4  -6   2    2.77    0.92
   4  -6   2    1.52    0.98
   4  -6   2    1.93    1.22
   4  -6   2    1.80    1.47
   4  -6   2    2.41    1.53
   4  -6   2    0.19    1.43
  -5   6  -2    5.74    2.21
  -5   6  -2    6.24    1.88
  -5   6  -2    4.95    1.01
  -5   6  -2    5.00    1.62
  -5   6  -2    4.71    1.39
  -5   6  -2    3.12    1.84
  -5   6  -2    6.11    2.17
  -5   6  -2    5.87    0.79
   5  -6   2    5.95    1.07
   5  -6   2    7.66    1.98
   5  -6   2    7.61    1.85
   5  -6   2    6.13    2.23
   5  -6   2    3.28    2.02
   5  -6   2    3.08    2.15
   5  -6   2    2.44    1.33
   5  -6   2    5.22    1.02
  -8  -5   2   -0.19    1.61
  -8  -5   2    0.63    1.41
  -8  -5   2   -0.08    1.83
  -7  -5   2  241.66    5.85
  -7  -5   2  245.60    5.35
  -7  -5   2  239.87    5.22
  -7  -5   2  239.35    5.38
  -7  -5   2  237.20    5.78
  -7  -5   2  246.80    5.59
  -7  -5   2  236.48    5.68
  -6  -5   2    9.61    1.14
  -6  -5   2   10.18    0.86
  -6  -5   2    7.49    1.18
  -6  -5   2   10.36    1.10
  -6  -5   2   10.02    0.78
  -6  -5   2    9.23    0.84
  -6  -5   2    9.67    1.06
   5   5  -2   58.03    2.45
   5   5  -2   59.29    1.60
   5   5  -2   59.21    1.53
   5   5  -2   65.32    1.83
  -5  -5   2   61.05    1.69
  -5  -5   2   57.94    1.74
  -5  -5   2   59.03    1.98
  -5  -5   2   60.29    1.66
  -5  -5   2   60.65    2.08
   4   5  -2  129.07    3.28
   4   5  -2  128.85    2.90
   4   5  -2  125.39    2.91
   4   5  -2  129.97    2.85
   4   5  -2  128.28    2.82
  -4  -5   2  128.44    3.33
  -4  -5   2  128.84    2.89
  -4  -5   2  129.20    2.99
  -4  -5   2  128.69    3.00
  -4  -5   2  128.37    2.90
  -4  -5   2  129.26    3.10
  -4  -5   2  132.31    2.98
  -4  -5   2  128.41    2.75
  -4  -5   2  128.47    2.70
   3   5  -2   44.51    1.40
   3   5  -2   43.92    1.21
   3   5  -2   45.10    1.46
   3   5  -2   44.34    1.60
   3   5  -2   44.75    1.26
  -3  -5   2   42.75    1.32
  -3  -5   2   43.32    1.63
  -3  -5   2   43.68    1.31
  -3  -5   2   44.17    1.26
  -3  -5   2   43.31    1.39
  -3  -5   2   43.88    1.49
  -3  -5   2   43.43    1.28
  -3  -5   2   43.64    1.41
   2   5  -2   26.42    0.96
   2   5  -2   24.60    1.23
   2   5  -2   24.06    1.12
   2   5  -2   25.47    0.94
   2   5  -2   26.90    1.20
  -2  -5   2   24.92    1.28
  -2  -5   2   26.28    1.07
  -2  -5   2   25.66    1.12
  -2  -5   2   25.73    0.81
  -2  -5   2   24.81    1.11
  -2  -5   2   26.70    1.05
  -2  -5   2   24.18    1.02
  -2  -5   2   25.45    1.17
   1   5  -2   55.70    1.74
   1   5  -2   55.28    1.58
   1   5  -2   55.37    1.74
   1   5  -2   55.04    1.42
   1   5  -2   57.17    1.53
   1   5  -2   57.61    1.54
   1   5  -2   56.70    1.42
  -1  -5   2   55.38    1.26
  -1  -5   2   55.64    1.71
  -1  -5   2   56.30    1.61
  -1  -5   2   51.95    1.91
  -1  -5   2   49.72    1.80
  -1  -5   2   54.86    1.59
  -1  -5   2   56.25    1.62
  -1  -5   2   54.51    1.67
   0   5  -2    3.94    0.73
   0   5  -2    4.50    0.36
   0   5  -2    4.51    0.61
   0   5  -2    4.14    0.51
   0   5  -2    4.74    0.57
   0  -5   2    4.09    0.62
   0  -5   2    3.93    0.70
   0  -5   2    4.45    0.67
   0  -5   2    4.16    0.63
   0  -5   2    4.51    0.57
   0  -5   2    4.55    0.30
   0  -5   2    4.78    0.63
   0  -5   2    3.69    0.60
  -1   5  -2   22.44    1.24
  -1   5  -2   23.43    1.46
  -1   5  -2   24.31    1.15
  -1   5  -2   22.96    0.65
  -1   5  -2   24.58    1.23
  -1   5  -2   25.48    1.13
  -1   5  -2   22.85    1.50
   1  -5   2   22.65    1.44
   1  -5   2   24.35    1.16
   1  -5   2   23.26    1.21
   1  -5   2   24.05    1.36
   1  -5   2   22.32    1.31
   1  -5   2   22.34    1.32
   1  -5   2   22.49    1.50
  -2   5  -2  199.39    4.58
  -2   5  -2  197.44    4.71
  -2   5  -2  191.30    4.39
  -2   5  -2  196.62    4.48
  -2   5  -2  193.53    3.99
  -2   5  -2  197.95    4.63
  -2   5  -2  195.93    4.09
  -2   5  -2  200.51    4.42
   2  -5   2  192.86    4.57
   2  -5   2  200.14    4.37
   2  -5   2  204.24    4.59
   2  -5   2  194.05    4.74
   2  -5   2  196.70    4.65
   2  -5   2  198.17    4.56
  -3   5  -2   27.36    1.65
  -3   5  -2   27.75    2.01
  -3   5  -2   28.59    2.03
  -3   5  -2   29.70    1.94
  -3   5  -2   28.34    0.89
  -3   5  -2   29.56    1.46
  -3   5  -2   28.24    1.60
  -3   5  -2   27.73    1.12
   3  -5   2   26.99    1.35
   3  -5   2   27.60    1.55
   3  -5   2   29.59    1.68
   3  -5   2   30.24    1.97
   3  -5   2   28.00    1.91
   3  -5   2   29.43    1.81
   3  -5   2   27.86    1.36
  -4   5  -2  151.43    3.71
  -4   5  -2  149.40    3.42
  -4   5  -2  146.88    4.20
  -4   5  -2  147.06    3.87
  -4   5  -2  149.66    3.28
  -4   5  -2  157.85    4.23
  -4   5  -2  143.14    3.87
  -4   5  -2  155.16    4.20
   4  -5   2  143.46    4.25
   4  -5   2  153.49    3.46
   4  -5   2  145.53    3.80
   4  -5   2  153.37    4.04
   4  -5   2  151.57    3.96
   4  -5   2  149.08    4.20
   4  -5   2  151.82    4.04
   4  -5   2  145.28    3.41
  -5   5  -2   35.84    2.52
  -5   5  -2   34.83    2.98
  -5   5  -2   29.39    2.31
  -5   5  -2   34.62    1.56
  -5   5  -2   41.01    3.09
  -5   5  -2   33.44    1.82
  -5   5  -2   37.86    2.95
  -5   5  -2   34.16    2.14
   5  -5   2   34.12    1.49
   5  -5   2   33.96    2.80
   5  -5   2   33.66    2.93
   5  -5   2   35.30    2.56
   5  -5   2   36.74    2.62
   5  -5   2   32.45    2.30
   5  -5   2   33.15    2.14
   5  -5   2   31.49    1.39
  -6   5  -2    2.43    1.67
  -6   5  -2    0.59    1.47
  -6   5  -2    6.13    2.03
  -6   5  -2    1.05    2.32
  -6   5  -2    1.74    1.86
  -6   5  -2    1.96    1.86
  -6   5  -2    0.75    1.13
   6  -5   2    0.20    1.58
   6  -5   2   -1.05    1.76
   6  -5   2    0.29    1.61
   6  -5   2    0.15    1.53
   6  -5   2    3.59    1.86
  -8  -4   2   36.33    1.93
  -8  -4   2   37.44    2.15
  -8  -4   2   36.86    2.28
  -8  -4   2   33.39    2.25
  -8  -4   2   33.49    2.17
  -8  -4   2   35.55    2.06
   7   4  -2    3.47    0.77
  -7  -4   2    2.72    0.89
  -7  -4   2    4.77    0.79
  -7  -4   2    6.05    0.92
  -7  -4   2    3.43    1.30
  -7  -4   2    4.84    0.98
  -7  -4   2    4.82    1.32
   6   4  -2   16.67    1.03
   6   4  -2   17.28    0.97
   6   4  -2   19.06    1.25
   6   4  -2   18.05    1.20
   6   4  -2   16.59    1.00
  -6  -4   2   18.41    1.52
  -6  -4   2   18.95    1.31
  -6  -4   2   18.88    1.27
  -6  -4   2   15.21    1.19
  -6  -4   2   17.31    1.21
   5   4  -2   37.96    1.32
   5   4  -2   36.24    1.19
   5   4  -2   39.24    1.27
   5   4  -2   38.96    1.70
   5   4  -2   36.92    1.20
   5   4  -2   36.17    1.97
  -5  -4   2   37.80    1.46
  -5  -4   2   38.89    1.30
  -5  -4   2   38.19    1.19
  -5  -4   2   36.69    1.57
  -5  -4   2   39.90    1.46
  -5  -4   2   38.33    1.28
  -5  -4   2   36.70    1.65
   4   4  -2   40.22    1.18
   4   4  -2   37.37    1.64
   4   4  -2   39.79    1.20
   4   4  -2   40.15    1.58
   4   4  -2   39.44    1.20
   4   4  -2   40.38    1.19
  -4  -4   2   38.30    1.41
  -4  -4   2   38.21    1.16
  -4  -4   2   37.40    1.26
  -4  -4   2   39.32    1.21
  -4  -4   2   38.92    1.14
  -4  -4   2   40.66    1.41
  -4  -4   2   39.28    1.35
   3   4  -2  154.31    3.30
   3   4  -2  150.35    3.53
   3   4  -2  155.50    3.28
   3   4  -2  151.46    3.23
   3   4  -2  149.92    3.33
   3   4  -2  154.71    3.48
  -3  -4   2  152.48    3.18
  -3  -4   2  154.55    3.35
  -3  -4   2  154.12    3.27
  -3  -4   2  153.47    3.33
  -3  -4   2  152.84    3.39
  -3  -4   2  152.04    3.46
  -3  -4   2  151.92    3.33
  -3  -4   2  151.89    3.28
   2   4  -2    9.48    0.78
   2   4  -2    8.47    0.65
   2   4  -2   11.25    0.80
   2   4  -2    9.71    0.54
   2   4  -2   10.51    0.57
   2   4  -2   10.14    0.75
   2   4  -2   11.24    0.63
  -2  -4   2   10.83    0.85
  -2  -4   2   10.17    0.66
  -2  -4   2    9.32    0.70
  -2  -4   2   10.47    0.72
  -2  -4   2    9.94    0.57
  -2  -4   2   10.31    0.64
  -2  -4   2   10.11    0.63
  -2  -4   2    9.48    0.72
   1   4  -2   73.00    1.75
   1   4  -2   67.91    1.63
   1   4  -2   70.32    1.83
   1   4  -2   70.66    1.68
   1   4  -2   70.94    1.64
   1   4  -2   69.97    1.84
   1   4  -2   73.02    1.71
  -1  -4   2   70.48    1.81
  -1  -4   2   68.51    1.72
  -1  -4   2   70.33    1.83
  -1  -4   2   68.35    1.74
  -1  -4   2   69.18    1.54
  -1  -4   2   72.62    1.75
   0   4  -2   10.84    0.65
   0   4  -2   11.49    0.93
   0   4  -2   10.81    0.47
   0   4  -2   11.41    0.73
   0   4  -2   11.91    0.71
   0   4  -2   10.22    0.74
   0   4  -2   10.03    0.91
   0  -4   2    9.77    0.41
   0  -4   2    8.61    0.80
   0  -4   2    9.59    0.68
   0  -4   2    9.95    0.77
   0  -4   2   10.48    0.86
   0  -4   2   11.21    0.80
   0  -4   2   10.57    0.79
   0  -4   2    9.86    0.80
  -1   4  -2   12.18    0.85
  -1   4  -2   12.85    1.08
  -1   4  -2   11.09    0.78
  -1   4  -2   11.88    0.91
  -1   4  -2   11.76    0.44
  -1   4  -2   10.67    0.80
  -1   4  -2   11.18    0.74
   1  -4   2   11.52    0.82
   1  -4   2   11.20    1.09
   1  -4   2   12.79    1.01
   1  -4   2   12.60    0.95
   1  -4   2   11.12    0.95
   1  -4   2   11.49    0.75
   1  -4   2   11.57    0.91
  -2   4  -2   96.00    2.53
  -2   4  -2   96.25    2.05
  -2   4  -2   98.22    2.59
  -2   4  -2   94.81    2.33
  -2   4  -2   93.43    2.63
  -2   4  -2   92.91    2.37
  -2   4  -2   96.64    2.45
   2  -4   2   96.06    2.38
   2  -4   2   96.89    2.46
   2  -4   2   98.68    2.60
   2  -4   2   97.23    2.49
   2  -4   2   93.33    2.61
   2  -4   2   97.73    2.29
   2  -4   2   99.30    2.55
  -3   4  -2   68.52    2.06
  -3   4  -2   63.47    1.75
  -3   4  -2   69.44    2.20
  -3   4  -2   67.38    2.00
  -3   4  -2   66.47    1.88
  -3   4  -2   65.65    2.25
  -3   4  -2   67.55    1.60
  -3   4  -2   67.15    2.25
   3  -4   2   65.18    1.92
   3  -4   2   66.60    2.10
   3  -4   2   66.00    2.13
   3  -4   2   67.04    2.19
   3  -4   2   68.03    1.75
   3  -4   2   66.55    2.25
   3  -4   2   64.18    1.77
  -4   4  -2    3.18    1.07
  -4   4  -2    4.14    0.58
  -4   4  -2    4.43    0.89
  -4   4  -2    4.38    0.73
  -4   4  -2    3.43    1.01
  -4   4  -2    3.86    1.03
  -4   4  -2    4.69    0.76
  -4   4  -2    5.75    0.92
   4  -4   2    4.40    0.55
   4  -4   2    4.24    0.88
   4  -4   2    4.45    0.57
   4  -4   2    3.58    0.85
   4  -4   2    5.14    0.94
   4  -4   2    2.72    0.93
   4  -4   2    3.51    0.92
   4  -4   2    3.44    0.71
  -5   4  -2  230.00    5.62
  -5   4  -2  226.74    5.07
  -5   4  -2  221.99    5.55
  -5   4  -2  231.75    5.19
  -5   4  -2  234.47    4.95
  -5   4  -2  222.45    5.33
  -5   4  -2  219.55    5.59
  -5   4  -2  228.03    5.36
   5  -4   2  229.07    5.63
   5  -4   2  227.55    4.73
   5  -4   2  220.03    5.22
   5  -4   2  230.31    5.56
   5  -4   2  224.45    5.40
   5  -4   2  224.24    4.69
   5  -4   2  228.77    5.37
   5  -4   2  227.99    5.48
  -6   4  -2   37.17    3.33
  -6   4  -2   36.00    2.28
  -6   4  -2   45.59    2.30
  -6   4  -2   36.95    2.57
  -6   4  -2   35.53    2.50
  -6   4  -2   38.14    2.63
  -6   4  -2   41.06    2.97
  -6   4  -2   42.00    2.94
   6  -4   2   40.93    2.57
   6  -4   2   40.14    2.41
   6  -4   2   43.55    2.73
   6  -4   2   46.04    2.88
   6  -4   2   47.84    2.84
  -7   4  -2   34.44    2.70
  -7   4  -2   33.07    2.89
  -7   4  -2   34.87    2.58
  -7   4  -2   41.13    2.38
  -7   4  -2   29.83    2.28
  -7   4  -2   33.52    2.55
  -7   4  -2   31.13    2.19
  -7   4  -2   34.24    2.85
   7  -4   2   32.89    2.18
   7  -4   2   34.95    2.46
   7  -4   2   37.42    2.52
   7  -4   2   39.21    2.42
   7  -4   2   35.25    2.19
   8   3  -2    2.88    0.81
   8   3  -2    1.60    1.34
  -8  -3   2    1.59    0.95
  -8  -3   2    3.91    1.60
  -8  -3   2    2.86    1.02
  -8  -3   2    1.81    1.28
  -8  -3   2    1.70    1.07
  -8  -3   2    1.92    1.55
   7   3  -2    6.83    1.01
   7   3  -2    9.20    1.09
   7   3  -2    8.64    0.77
   7   3  -2    8.40    0.74
   7   3  -2    7.98    0.88
  -7  -3   2    8.32    0.94
  -7  -3   2   11.21    1.34
  -7  -3   2    7.41    0.97
  -7  -3   2    8.61    1.23
  -7  -3   2    8.30    0.88
  -7  -3   2    9.65    0.92
   6   3  -2   72.19    2.13
   6   3  -2   73.13    2.06
   6   3  -2   78.95    2.79
   6   3  -2   74.33    1.88
   6   3  -2   75.51    1.90
   6   3  -2   72.30    2.22
  -6  -3   2   73.98    2.08
  -6  -3   2   75.36    1.99
  -6  -3   2   75.98    2.07
  -6  -3   2   78.91    2.47
  -6  -3   2   76.59    2.36
  -6  -3   2   79.42    2.13
   5   3  -2   21.84    1.21
   5   3  -2   22.02    1.60
   5   3  -2   21.09    0.90
   5   3  -2   22.10    1.12
   5   3  -2   21.13    1.05
   5   3  -2   20.36    0.89
  -5  -3   2   22.08    1.01
  -5  -3   2   19.95    1.34
  -5  -3   2   18.78    1.03
  -5  -3   2   21.18    1.24
  -5  -3   2   19.64    0.99
  -5  -3   2   19.80    0.92
   4   3  -2    7.64    0.63
   4   3  -2    8.58    0.76
   4   3  -2    8.17    0.50
   4   3  -2    8.50    0.67
   4   3  -2    8.74    0.56
   4   3  -2    7.81    0.79
  -4  -3   2    9.35    0.78
  -4  -3   2    8.24    0.51
  -4  -3   2    8.63    0.69
  -4  -3   2    7.66    0.65
  -4  -3   2    7.39    0.66
  -4  -3   2    7.68    0.64
   3   3  -2    7.17    0.58
   3   3  -2    6.17    0.62
   3   3  -2    6.51    0.60
   3   3  -2    7.06    0.55
   3   3  -2    6.60    0.56
   3   3  -2    6.38    0.56
  -3  -3   2    5.68    0.49
  -3  -3   2    6.57    0.48
  -3  -3   2    6.75    0.56
  -3  -3   2    6.62    0.50
  -3  -3   2    4.88    0.48
  -3  -3   2    6.69    0.59
  -3  -3   2    6.20    0.51
   2   3  -2    1.66    0.33
   2   3  -2    1.61    0.41
   2   3  -2    1.83    0.32
   2   3  -2    2.29    0.40
   2   3  -2    2.31    0.30
   2   3  -2    1.90    0.27
   2   3  -2    1.78    0.20
  -2  -3   2    1.94    0.24
  -2  -3   2    1.86    0.26
  -2  -3   2    2.04    0.30
  -2  -3   2    1.49    0.29
  -2  -3   2    2.39    0.35
  -2  -3   2    1.65    0.37
  -2  -3   2    1.72    0.30
  -2  -3   2    1.89    0.31
   1   3  -2  372.77    7.55
   1   3  -2  376.77    7.41
   1   3  -2  374.63    7.48
   1   3  -2  374.89    7.46
   1   3  -2  369.21    7.49
   1   3  -2  378.58    7.42
   1   3  -2  373.05    7.54
   1   3  -2  370.51    7.41
  -1  -3   2  371.37    7.43
  -1  -3   2  364.44    7.37
  -1  -3   2  330.53    7.57
  -1  -3   2  375.18    7.52
  -1  -3   2  377.90    7.45
  -1  -3   2  335.79    7.61
  -1  -3   2  375.61    7.54
  -1  -3   2  361.33    7.47
   0   3  -2  414.41    8.24
   0   3  -2  412.56    8.26
   0   3  -2  402.09    8.07
   0   3  -2  405.73    8.20
   0   3  -2  406.42    8.30
   0   3  -2  394.86    8.25
   0   3  -2  399.38    8.17
   0   3  -2  409.57    8.20
   0  -3   2  402.05    8.21
   0  -3   2  401.82    8.28
   0  -3   2  400.74    8.20
   0  -3   2  409.43    8.23
   0  -3   2  393.26    8.06
   0  -3   2  410.71    8.22
   0  -3   2  403.44    8.28
   0  -3   2  403.37    8.23
  -1   3  -2   67.39    1.65
  -1   3  -2   68.70    1.70
  -1   3  -2   66.38    1.78
  -1   3  -2   67.79    1.74
  -1   3  -2   66.71    1.62
  -1   3  -2   68.72    1.45
   1  -3   2   68.66    1.71
   1  -3   2   67.83    1.73
   1  -3   2   69.15    1.79
   1  -3   2   68.85    1.63
   1  -3   2   68.14    1.80
   1  -3   2   67.25    1.71
   1  -3   2   66.69    1.63
   1  -3   2   66.07    1.49
  -2   3  -2   11.14    0.51
  -2   3  -2    9.06    0.69
  -2   3  -2   12.11    1.01
  -2   3  -2   11.34    0.80
  -2   3  -2   11.88    0.83
  -2   3  -2   11.87    0.91
  -2   3  -2   10.83    0.69
   2  -3   2   12.47    0.72
   2  -3   2   16.54    1.47
   2  -3   2   12.26    0.85
   2  -3   2   10.87    0.84
   2  -3   2   11.43    0.63
   2  -3   2   12.00    0.89
   2  -3   2   11.74    0.91
  -3   3  -2  100.81    2.40
  -3   3  -2   99.81    2.26
  -3   3  -2   99.79    2.63
  -3   3  -2  101.35    2.53
  -3   3  -2   98.99    2.48
  -3   3  -2  100.54    2.70
   3  -3   2  103.62    2.46
   3  -3   2  102.07    2.65
   3  -3   2   99.21    2.24
   3  -3   2   98.88    2.67
   3  -3   2  102.31    2.54
   3  -3   2  103.66    2.59
  -4   3  -2   19.83    1.14
  -4   3  -2   18.78    1.46
  -4   3  -2   19.60    1.52
  -4   3  -2   19.53    1.10
  -4   3  -2   17.50    1.29
  -4   3  -2   18.40    1.27
  -4   3  -2   17.23    0.98
  -4   3  -2   19.57    1.51
   4  -3   2   17.95    1.27
   4  -3   2   17.56    0.72
   4  -3   2   15.33    1.02
   4  -3   2   17.47    1.44
   4  -3   2   19.13    0.74
   4  -3   2   18.42    1.49
   4  -3   2   18.85    1.10
   4  -3   2   18.95    1.27
  -5   3  -2    0.04    0.78
  -5   3  -2    1.40    0.77
  -5   3  -2    0.38    1.03
  -5   3  -2   -0.32    0.85
  -5   3  -2    0.25    0.72
  -5   3  -2   -0.37    0.66
  -5   3  -2   -0.14    0.96
  -5   3  -2    1.48    1.05
   5  -3   2    0.05    0.89
   5  -3   2   -0.91    0.78
   5  -3   2   -0.15    0.95
   5  -3   2   -0.38    0.85
   5  -3   2   -0.13    0.82
   5  -3   2    0.14    0.69
  -6   3  -2   24.46    2.07
  -6   3  -2   19.68    2.14
  -6   3  -2   20.04    1.58
  -6   3  -2   21.20    1.29
  -6   3  -2   13.68    2.25
  -6   3  -2   20.36    1.44
  -6   3  -2   21.82    1.38
   6  -3   2   22.39    1.64
   6  -3   2   19.17    1.32
   6  -3   2   17.90    1.36
   6  -3   2   20.26    1.45
   6  -3   2   18.37    1.34
  -7   3  -2   36.52    3.54
  -7   3  -2   40.37    2.60
  -7   3  -2   38.45    2.76
  -7   3  -2   40.51    3.20
  -7   3  -2   40.76    2.65
  -7   3  -2   38.36    2.52
  -7   3  -2   43.79    2.79
  -7   3  -2   37.66    2.57
   7  -3   2   45.92    2.84
   7  -3   2   41.24    2.55
   7  -3   2   42.35    2.89
   7  -3   2   41.27    2.93
   7  -3   2   39.59    2.59
  -8   3  -2   12.64    2.32
  -8   3  -2   13.66    2.84
  -8   3  -2    6.40    1.86
  -8   3  -2   17.40    2.58
  -8   3  -2    7.89    1.98
  -8   3  -2   12.43    2.56
  -8   3  -2    6.20    1.87
   8  -3   2   15.94    3.01
   8  -3   2    8.23    2.10
   8   2  -2   10.86    1.40
   8   2  -2    9.78    1.17
   8   2  -2    9.33    0.98
   8   2  -2   10.43    1.29
   8   2  -2    6.08    0.92
  -8  -2   2    7.41    0.94
  -8  -2   2   10.16    1.25
  -8  -2   2   10.39    1.17
  -8  -2   2   11.41    1.62
  -8  -2   2    8.58    1.78
  -8  -2   2    6.35    1.56
  -8  -2   2    7.23    1.39
  -8  -2   2    9.74    0.84
   7   2  -2    1.53    0.79
   7   2  -2    0.16    0.66
   7   2  -2    0.94    0.87
   7   2  -2    0.80    0.67
   7   2  -2    0.33    0.99
  -7  -2   2    1.20    0.91
  -7  -2   2    0.42    0.80
  -7  -2   2    0.88    0.67
  -7  -2   2    0.88    0.51
  -7  -2   2   -0.14    0.99
  -7  -2   2   -0.27    0.74
  -7  -2   2    1.37    1.11
   6   2  -2   29.22    2.09
   6   2  -2   31.34    1.58
   6   2  -2   32.87    1.23
   6   2  -2   32.73    1.20
   6   2  -2   33.91    1.45
   6   2  -2   32.68    1.48
  -6  -2   2   33.91    1.36
  -6  -2   2   33.85    1.47
  -6  -2   2   32.03    1.22
  -6  -2   2   33.77    1.04
  -6  -2   2   34.67    1.48
  -6  -2   2   35.62    1.76
  -6  -2   2   33.22    1.64
   5   2  -2   76.03    2.32
   5   2  -2   75.18    1.98
   5   2  -2   73.57    1.77
   5   2  -2   72.62    1.82
   5   2  -2   74.54    1.94
   5   2  -2   73.50    1.98
  -5  -2   2   72.61    1.83
  -5  -2   2   72.00    1.93
  -5  -2   2   73.92    1.85
  -5  -2   2   74.64    2.04
  -5  -2   2   70.57    1.63
  -5  -2   2   73.55    2.13
  -5  -2   2   72.81    1.90
   4   2  -2  150.01    3.47
   4   2  -2  146.30    3.20
   4   2  -2  147.77    3.15
   4   2  -2  151.73    3.28
   4   2  -2  145.85    3.24
   4   2  -2  148.12    3.29
  -4  -2   2  149.87    3.37
  -4  -2   2  148.07    3.19
  -4  -2   2  148.00    3.26
  -4  -2   2  150.46    3.34
  -4  -2   2  148.23    3.21
  -4  -2   2  149.35    3.23
   3   2  -2    1.36    0.27
   3   2  -2    1.17    0.32
   3   2  -2    1.98    0.37
   3   2  -2    1.28    0.28
   3   2  -2    1.35    0.45
   3   2  -2    0.76    0.31
  -3  -2   2    1.59    0.38
  -3  -2   2    1.12    0.31
  -3  -2   2    1.19    0.29
  -3  -2   2    1.25    0.27
  -3  -2   2    1.18    0.26
   2   2  -2   59.13    1.36
   2   2  -2   59.18    1.48
   2   2  -2   60.35    1.40
   2   2  -2   58.68    1.37
   2   2  -2   61.06    1.41
  -2  -2   2   60.00    1.35
  -2  -2   2   61.26    1.42
  -2  -2   2   60.01    1.37
  -2  -2   2   59.43    1.40
  -2  -2   2   62.03    1.45
  -2  -2   2   57.98    1.42
   1   2  -2  111.52    2.36
   1   2  -2  110.62    2.40
   1   2  -2  112.26    2.32
   1   2  -2  114.59    2.39
   1   2  -2  113.43    2.45
  -1  -2   2  112.40    2.36
  -1  -2   2  111.81    2.40
  -1  -2   2  113.81    2.40
  -1  -2   2  111.57    2.33
  -1  -2   2  112.23    2.44
  -1  -2   2  113.68    2.38
  -1  -2   2  109.85    2.41
  -1  -2   2  114.82    2.44
   0   2  -2   25.10    0.70
   0   2  -2   24.25    0.69
   0   2  -2   24.96    0.61
   0   2  -2   26.23    0.75
   0   2  -2   25.94    0.80
   0   2  -2   24.10    0.77
   0   2  -2   24.48    0.73
   0   2  -2   23.92    0.69
   0  -2   2   25.11    0.73
   0  -2   2   24.32    0.68
   0  -2   2   25.00    0.71
   0  -2   2   24.38    0.77
   0  -2   2   24.30    0.74
   0  -2   2   24.88    0.60
   0  -2   2   25.75    0.78
  -1   2  -2   35.40    1.07
  -1   2  -2   35.27    0.97
  -1   2  -2   34.36    0.91
  -1   2  -2   34.90    0.90
  -1   2  -2   33.79    0.93
  -1   2  -2   35.14    0.80
  -1   2  -2   33.75    1.01
  -1   2  -2   34.92    1.01
   1  -2   2   35.08    0.89
   1  -2   2   33.73    1.03
   1  -2   2   33.97    0.97
   1  -2   2   32.94    0.83
   1  -2   2   34.60    1.02
   1  -2   2   34.41    0.96
   1  -2   2   34.46    0.91
  -2   2  -2  107.43    2.55
  -2   2  -2  107.58    2.42
  -2   2  -2  112.24    2.51
  -2   2  -2  110.06    2.35
  -2   2  -2  110.94    2.55
  -2   2  -2  112.89    2.61
   2  -2   2  110.00    2.56
   2  -2   2  109.86    2.59
   2  -2   2  109.32    2.43
   2  -2   2  107.77    2.50
   2  -2   2  111.38    2.33
   2  -2   2  110.22    2.49
   2  -2   2  109.62    2.50
  -3   2  -2   11.40    0.66
  -3   2  -2   11.30    0.69
  -3   2  -2   11.55    0.92
  -3   2  -2   12.33    0.81
  -3   2  -2   12.97    0.99
  -3   2  -2   12.25    0.85
  -3   2  -2   11.85    0.99
   3  -2   2   11.54    0.72
   3  -2   2   11.67    0.47
   3  -2   2   10.94    0.93
   3  -2   2   11.80    0.93
   3  -2   2   11.48    0.49
   3  -2   2   11.31    0.79
   3  -2   2   12.19    0.90
   3  -2   2   12.04    0.82
  -4   2  -2   29.79    1.14
  -4   2  -2   30.41    1.31
  -4   2  -2   28.11    1.27
  -4   2  -2   31.23    1.42
  -4   2  -2   31.58    1.30
  -4   2  -2   28.77    1.47
  -4   2  -2   29.69    1.44
   4  -2   2   30.78    1.42
   4  -2   2   28.92    1.29
   4  -2   2   30.21    1.37
   4  -2   2   29.24    1.23
   4  -2   2   29.67    1.18
   4  -2   2   30.98    1.36
  -5   2  -2   37.61    1.61
  -5   2  -2   37.25    1.84
  -5   2  -2   41.42    1.51
  -5   2  -2   34.97    1.61
  -5   2  -2   38.74    1.65
  -5   2  -2   41.79    1.86
  -5   2  -2   39.30    1.85
   5  -2   2   37.96    1.77
   5  -2   2   37.96    1.54
   5  -2   2   37.56    1.62
   5  -2   2   39.63    1.73
   5  -2   2   41.74    1.75
   5  -2   2   37.16    1.53
  -6   2  -2   52.24    2.00
  -6   2  -2   48.89    3.44
  -6   2  -2   55.03    2.42
  -6   2  -2   54.03    2.13
  -6   2  -2   54.32    2.19
  -6   2  -2   56.67    2.34
   6  -2   2   53.21    2.02
   6  -2   2   51.01    2.16
   6  -2   2   55.06    2.01
   6  -2   2   52.69    2.27
   6  -2   2   52.18    2.23
  -7   2  -2    8.01    1.56
  -7   2  -2    6.94    1.30
  -7   2  -2    7.03    1.39
  -7   2  -2    7.28    1.24
  -7   2  -2    4.96    1.18
  -7   2  -2    6.01    1.28
  -7   2  -2    4.16    1.62
   7  -2   2    7.04    1.12
   7  -2   2    8.42    1.41
   7  -2   2    6.72    1.17
   7  -2   2    5.49    1.30
   7  -2   2    6.96    1.30
  -8   2  -2   24.78    2.00
  -8   2  -2   24.56    2.01
  -8   2  -2   24.35    2.16
  -8   2  -2   23.24    1.91
  -8   2  -2   24.31    2.24
  -8   2  -2   27.52    2.65
  -8   2  -2   19.85    1.94
   8  -2   2   22.47    1.77
   8  -2   2   20.98    1.97
   8  -2   2   24.13    1.90
   8  -2   2   18.92    1.67
   8  -2   2   25.44    1.99
   8   1  -2    2.65    1.04
   8   1  -2   -0.83    1.44
   8   1  -2    1.76    1.29
   8   1  -2    0.25    0.98
   8   1  -2    1.78    0.93
   8   1  -2    1.42    0.95
  -8  -1   2    3.54    1.84
  -8  -1   2   -0.28    1.18
  -8  -1   2    2.09    1.58
  -8  -1   2    2.73    0.88
  -8  -1   2    1.69    0.77
  -8  -1   2    1.59    1.45
   7   1  -2    2.13    0.74
   7   1  -2    1.19    0.70
   7   1  -2    2.52    0.81
   7   1  -2    3.02    1.00
   7   1  -2    1.50    1.11
   7   1  -2    1.65    0.72
  -7  -1   2    2.08    0.89
  -7  -1   2    1.19    0.62
  -7  -1   2    1.71    1.01
  -7  -1   2    1.47    1.10
  -7  -1   2    1.69    1.26
  -7  -1   2    1.33    0.68
   6   1  -2   31.74    1.25
   6   1  -2   28.83    1.31
   6   1  -2   32.48    1.58
   6   1  -2   31.34    1.25
   6   1  -2   30.06    2.02
   6   1  -2   30.85    1.66
   6   1  -2   31.12    1.16
  -6  -1   2   32.62    1.71
  -6  -1   2   30.91    1.63
  -6  -1   2   31.42    1.13
  -6  -1   2   32.29    1.42
  -6  -1   2   33.09    1.18
   5   1  -2  114.55    2.99
   5   1  -2  113.94    2.61
   5   1  -2  111.45    2.65
   5   1  -2  112.81    2.79
   5   1  -2  111.71    2.81
   5   1  -2  114.76    2.59
   5   1  -2  113.30    2.51
  -5  -1   2  113.16    2.80
  -5  -1   2  115.89    2.55
  -5  -1   2  117.75    2.69
  -5  -1   2  117.71    2.87
  -5  -1   2  115.10    2.52
   4   1  -2  417.13    8.37
   4   1  -2  404.83    8.25
   4   1  -2  413.71    8.34
   4   1  -2  416.41    8.57
   4   1  -2  411.74    8.40
   4   1  -2  416.01    8.49
   4   1  -2  412.46    8.44
  -4  -1   2  401.12    8.26
  -4  -1   2  416.79    8.33
  -4  -1   2  409.76    8.46
  -4  -1   2  407.72    8.50
  -4  -1   2  411.58    8.39
   3   1  -2  244.87    4.92
   3   1  -2  245.73    5.09
   3   1  -2  237.80    4.98
   3   1  -2  234.61    4.82
   3   1  -2  243.15    4.96
   3   1  -2  240.51    5.03
   3   1  -2  237.96    4.97
  -3  -1   2  242.80    4.95
  -3  -1   2  238.99    4.93
  -3  -1   2  240.66    5.03
  -3  -1   2  238.03    5.00
  -3  -1   2  237.75    4.82
   2   1  -2    9.56    0.46
   2   1  -2    9.61    0.55
   2   1  -2    9.75    0.48
   2   1  -2    9.70    0.46
  -2  -1   2   10.92    0.48
  -2  -1   2    9.61    0.43
  -2  -1   2    9.60    0.48
  -2  -1   2    9.40    0.51
  -2  -1   2    9.10    0.44
  -2  -1   2    9.91    0.44
   1   1  -2  390.50    8.95
   1   1  -2  455.54    8.92
   1   1  -2  462.78    8.95
   1   1  -2  409.30    8.98
   1   1  -2  465.47    8.97
  -1  -1   2  459.66    8.96
  -1  -1   2  458.37    8.96
  -1  -1   2  458.83    8.94
  -1  -1   2  452.55    8.93
  -1  -1   2  460.14    8.95
   0   1  -2   28.33    0.65
   0   1  -2   28.21    0.68
   0   1  -2   28.88    0.70
   0   1  -2   28.21    0.71
   0   1  -2   28.13    0.74
   0   1  -2   27.74    0.68
   0   1  -2   28.03    0.72
   0   1  -2   28.16    0.67
   0  -1   2   28.48    0.73
   0  -1   2   27.93    0.65
   0  -1   2   28.02    0.67
   0  -1   2   28.22    0.69
   0  -1   2   26.91    0.67
   0  -1   2   28.01    0.69
   0  -1   2   28.55    0.73
  -1   1  -2   -0.38    0.18
  -1   1  -2   -0.37    0.13
  -1   1  -2   -0.20    0.19
  -1   1  -2   -0.23    0.16
  -1   1  -2   -0.44    0.17
  -1   1  -2   -0.11    0.19
  -1   1  -2   -0.38    0.14
  -1   1  -2   -0.27    0.13
   1  -1   2   -0.14    0.20
   1  -1   2   -0.32    0.12
   1  -1   2   -0.56    0.12
   1  -1   2   -0.11    0.14
   1  -1   2   -0.20    0.19
   1  -1   2   -0.13    0.18
   1  -1   2   -0.20    0.19
   1  -1   2   -0.28    0.16
  -2   1  -2    6.51    0.41
  -2   1  -2    6.49    0.46
  -2   1  -2    6.73    0.52
  -2   1  -2    6.02    0.53
  -2   1  -2    7.19    0.55
  -2   1  -2    7.05    0.42
   2  -1   2    6.30    0.48
   2  -1   2    6.58    0.26
   2  -1   2    6.43    0.50
   2  -1   2    6.56    0.54
   2  -1   2    6.62    0.50
   2  -1   2    6.38    0.50
   2  -1   2    6.43    0.41
  -3   1  -2   53.93    1.35
  -3   1  -2   52.26    1.39
  -3   1  -2   52.04    1.48
  -3   1  -2   52.00    1.43
  -3   1  -2   52.20    1.48
  -3   1  -2   52.41    1.46
   3  -1   2   53.19    1.48
   3  -1   2   53.14    1.45
   3  -1   2   52.65    1.42
   3  -1   2   53.06    1.37
   3  -1   2   52.51    1.41
   3  -1   2   53.15    1.38
  -4   1  -2    1.16    0.41
  -4   1  -2    0.35    0.46
  -4   1  -2   -0.03    0.51
  -4   1  -2    1.48    0.44
  -4   1  -2    1.09    0.54
  -4   1  -2    1.44    0.51
  -4   1  -2    1.21    0.44
   4  -1   2    1.07    0.48
   4  -1   2    1.67    0.43
   4  -1   2    1.77    0.47
   4  -1   2    1.14    0.49
   4  -1   2    1.06    0.50
   4  -1   2    1.64    0.44
  -5   1  -2    3.08    0.63
  -5   1  -2    2.38    0.61
  -5   1  -2    3.99    0.63
  -5   1  -2    2.86    0.73
  -5   1  -2    2.33    0.68
  -5   1  -2    1.81    0.75
  -5   1  -2    1.72    0.73
   5  -1   2    2.54    0.56
   5  -1   2    3.08    0.67
   5  -1   2    1.90    0.63
  -6   1  -2  175.66    4.20
  -6   1  -2  181.70    4.44
  -6   1  -2  183.56    4.36
  -6   1  -2  177.84    4.23
  -6   1  -2  185.22    4.40
  -6   1  -2  173.60    4.39
  -6   1  -2  181.84    4.19
   6  -1   2  170.02    4.15
   6  -1   2  184.37    4.22
   6  -1   2  182.91    4.24
   6  -1   2  180.98    4.19
   6  -1   2  182.04    4.12
  -7   1  -2    9.79    1.36
  -7   1  -2    9.31    1.31
  -7   1  -2    9.01    1.15
  -7   1  -2    6.71    1.17
  -7   1  -2    8.68    1.18
  -7   1  -2    8.81    1.14
  -7   1  -2   10.12    1.45
   7  -1   2    9.24    1.08
   7  -1   2    7.22    0.97
   7  -1   2    8.19    0.98
   7  -1   2    7.81    1.16
   7  -1   2    9.65    1.14
  -8   1  -2    7.09    1.45
  -8   1  -2    5.62    1.50
  -8   1  -2    8.66    1.49
  -8   1  -2    5.24    1.61
  -8   1  -2    3.39    1.66
  -8   1  -2    5.65    1.49
  -8   1  -2    5.43    1.94
   8  -1   2    6.89    1.30
   8  -1   2    5.40    1.49
   8  -1   2    7.12    1.34
   8  -1   2    7.25    1.22
   8  -1   2    8.64    1.46
  -9   1  -2    3.77    2.18
  -9   1  -2   -0.40    1.95
   9  -1   2    1.22    1.90
   8   0  -2   15.41    1.29
   8   0  -2   12.72    1.80
   8   0  -2   15.92    1.04
   8   0  -2   13.63    1.31
   8   0  -2   10.98    1.58
  -8   0   2   12.83    1.48
  -8   0   2   12.40    1.67
  -8   0   2   14.52    0.97
  -8   0   2   13.19    1.22
  -8   0   2   11.27    1.62
  -8   0   2   13.01    1.75
  -8   0   2   14.40    1.62
  -8   0   2   12.70    2.15
   7   0  -2  298.41    6.65
   7   0  -2  282.04    6.50
   7   0  -2  290.50    6.29
   7   0  -2  293.02    6.13
   7   0  -2  292.68    6.29
   7   0  -2  296.58    6.64
  -7   0   2  289.39    6.48
  -7   0   2  296.19    6.61
  -7   0   2  283.16    6.26
  -7   0   2  308.18    6.96
  -7   0   2  294.97    6.13
  -7   0   2  290.20    6.56
  -7   0   2  292.04    6.59
  -7   0   2  290.41    6.59
   6   0  -2    6.39    0.74
   6   0  -2    7.67    1.05
   6   0  -2    6.65    0.61
   6   0  -2    7.17    0.85
   6   0  -2    6.90    0.91
   6   0  -2    6.46    0.75
  -6   0   2    6.93    0.94
  -6   0   2    6.14    0.79
  -6   0   2    7.57    0.89
  -6   0   2    6.12    0.69
  -6   0   2    4.41    1.74
  -6   0   2    7.68    0.58
  -6   0   2    6.34    0.98
  -6   0   2    5.97    0.89
   5   0  -2    9.80    0.72
   5   0  -2   11.10    0.84
   5   0  -2    9.88    0.71
   5   0  -2   12.18    0.94
   5   0  -2    8.43    0.90
  -5   0   2   11.63    0.70
  -5   0   2   10.56    0.82
  -5   0   2   11.60    0.91
  -5   0   2   10.27    0.79
  -5   0   2    9.94    0.83
  -5   0   2   10.91    0.74
  -5   0   2   10.57    0.78
   4   0  -2   68.61    1.91
   4   0  -2   55.22    2.06
   4   0  -2   66.64    1.63
   4   0  -2   69.90    1.58
   4   0  -2   69.50    1.76
   4   0  -2   67.58    1.70
   4   0  -2   69.97    1.86
  -4   0   2   68.45    1.77
  -4   0   2   67.91    1.80
  -4   0   2   67.66    1.57
  -4   0   2   66.31    1.76
  -4   0   2   65.82    1.76
  -4   0   2   69.75    1.62
  -4   0   2   66.32    1.81
   3   0  -2   38.45    1.08
   3   0  -2   39.01    1.05
   3   0  -2   39.55    1.23
   3   0  -2   38.30    1.18
   3   0  -2   40.00    1.21
   3   0  -2   39.59    0.99
   3   0  -2   37.25    0.99
  -3   0   2   39.13    1.11
  -3   0   2   39.49    1.10
  -3   0   2   40.41    1.16
  -3   0   2   38.56    0.98
  -3   0   2   36.48    1.08
  -3   0   2   38.11    1.14
  -3   0   2   38.84    0.98
   2   0  -2   12.56    0.50
   2   0  -2   13.03    0.57
   2   0  -2   13.03    0.60
   2   0  -2   11.66    0.43
   2   0  -2   12.60    0.44
   2   0  -2   12.72    0.49
  -2   0   2   11.42    0.52
  -2   0   2   11.74    0.51
  -2   0   2   11.77    0.52
  -2   0   2   11.65    0.41
  -2   0   2   12.43    0.44
  -2   0   2   12.34    0.49
   1   0  -2   37.56    0.92
   1   0  -2   38.45    0.85
   1   0  -2   37.62    0.95
   1   0  -2   39.91    0.91
   1   0  -2   39.68    0.91
   1   0  -2   38.99    0.93
  -1   0   2   38.66    0.84
  -1   0   2   39.42    0.89
  -1   0   2   38.39    0.92
  -1   0   2   39.30    0.91
  -1   0   2   37.66    0.91
  -1   0   2   38.02    0.91
   0   0  -2 1732.34   34.62
   0   0  -2 1732.79   34.67
   0   0  -2 1755.13   34.62
   0   0  -2 1754.78   34.76
   0   0  -2 1770.68   34.82
   0   0   2 1791.43   34.64
   0   0   2 1757.57   34.67
   0   0   2 1702.33   34.44
   0   0   2 1707.56   34.67
   0   0   2 1712.70   34.62
   0   0   2 1713.66   34.74
  -1   0  -2   61.08    1.19
  -1   0  -2   59.51    1.23
  -1   0  -2   56.49    1.20
  -1   0  -2   52.07    1.26
  -1   0  -2   50.76    1.29
  -1   0  -2   58.81    1.26
  -1   0  -2   57.43    1.24
   1   0   2   55.50    1.21
   1   0   2   58.32    1.20
   1   0   2   58.78    1.19
   1   0   2   56.98    1.25
   1   0   2   57.66    1.24
  -2   0  -2  440.51    8.74
  -2   0  -2  428.91    8.69
  -2   0  -2  433.98    8.69
  -2   0  -2  427.74    8.70
  -2   0  -2  436.97    8.72
  -2   0  -2  431.31    8.73
  -2   0  -2  435.31    8.73
   2   0   2  438.29    8.69
   2   0   2  439.32    8.71
   2   0   2  433.82    8.73
   2   0   2  433.08    8.73
   2   0   2  427.52    8.68
   2   0   2  435.05    8.70
  -3   0  -2  106.72    2.43
  -3   0  -2  109.68    2.39
  -3   0  -2  110.28    2.45
  -3   0  -2  106.36    2.37
  -3   0  -2  107.03    2.41
  -3   0  -2  107.20    2.42
   3   0   2  107.47    2.41
   3   0   2  112.00    2.41
   3   0   2  109.71    2.39
   3   0   2  110.82    2.39
   3   0   2  107.28    2.35
   3   0   2  108.60    2.36
  -4   0  -2    5.18    0.53
  -4   0  -2    5.27    0.55
  -4   0  -2    5.47    0.51
  -4   0  -2    4.00    0.49
  -4   0  -2    3.84    0.44
  -4   0  -2    5.03    0.49
  -4   0  -2    4.21    0.57
   4   0   2    4.76    0.46
   4   0   2    4.18    0.45
   4   0   2    4.56    0.46
   4   0   2    3.97    0.41
   4   0   2    4.43    0.44
  -5   0  -2   21.93    1.30
  -5   0  -2   21.39    1.12
  -5   0  -2   21.32    1.20
  -5   0  -2   20.25    1.18
  -5   0  -2   19.13    1.19
  -5   0  -2   20.65    1.03
  -5   0  -2   20.74    1.04
   5   0   2   20.34    1.01
   5   0   2   20.67    1.02
   5   0   2   20.49    1.04
   5   0   2   21.51    1.07
   5   0   2   20.43    0.94
  -6   0  -2    3.77    0.76
  -6   0  -2    3.61    0.73
  -6   0  -2    4.91    0.89
  -6   0  -2    4.10    0.83
  -6   0  -2    4.39    0.82
  -6   0  -2    4.29    0.80
  -6   0  -2    3.26    0.71
   6   0   2    4.29    0.66
   6   0   2    4.11    0.61
   6   0   2    4.78    0.72
   6   0   2    4.03    0.77
  -7   0  -2   10.44    1.30
  -7   0  -2   11.41    1.31
  -7   0  -2    8.04    1.17
  -7   0  -2   10.16    1.18
  -7   0  -2    7.99    0.96
  -7   0  -2    9.33    1.10
  -7   0  -2   10.91    1.13
   7   0   2    8.84    0.94
   7   0   2   10.66    1.01
   7   0   2   10.78    0.90
   7   0   2   11.82    1.04
  -8   0  -2   67.27    2.78
  -8   0  -2   68.93    3.37
  -8   0  -2   66.18    2.62
  -8   0  -2   66.15    2.79
  -8   0  -2   63.25    2.82
  -8   0  -2   64.47    3.25
  -8   0  -2   65.46    3.15
   8   0   2   65.26    2.58
   8   0   2   66.97    2.58
   8   0   2   66.45    2.47
   8   0   2   66.62    2.22
   8   0   2   65.38    2.58
  -9   0  -2    6.84    1.87
  -9   0  -2    4.71    2.24
  -9   0  -2    4.54    1.67
   9   0   2    6.05    1.40
   9   0   2    5.29    1.29
   9   0   2    4.54    1.65
   8  -1  -2   59.54    3.05
   8  -1  -2   72.28    3.72
   8  -1  -2   68.78    2.03
   8  -1  -2   70.22    3.00
   8  -1  -2   69.07    2.77
   8  -1  -2   72.74    3.50
  -8   1   2   70.76    2.06
  -8   1   2   70.58    3.22
  -8   1   2   74.35    3.38
  -8   1   2   70.48    3.32
  -8   1   2   75.17    4.43
  -8   1   2   70.00    2.76
  -8   1   2   65.39    3.36
  -8   1   2   62.93    3.15
   7  -1  -2   55.17    2.45
   7  -1  -2   66.33    2.90
   7  -1  -2   60.87    2.34
   7  -1  -2   57.58    1.70
  -7   1   2   61.69    2.56
  -7   1   2   58.41    2.20
  -7   1   2   63.68    2.48
  -7   1   2   58.09    2.55
  -7   1   2   65.57    3.28
  -7   1   2   62.41    2.62
  -7   1   2   59.21    1.76
  -7   1   2   59.15    2.45
   6  -1  -2    0.70    0.63
   6  -1  -2   -0.93    0.95
   6  -1  -2   -0.43    0.44
   6  -1  -2   -0.94    1.04
   6  -1  -2    0.44    0.76
   6  -1  -2   -0.07    0.77
  -6   1   2   -0.48    0.78
  -6   1   2   -0.07    0.51
  -6   1   2    0.11    0.86
  -6   1   2   -0.66    0.82
  -6   1   2    0.36    1.26
  -6   1   2    0.26    0.89
  -6   1   2   -0.27    0.66
  -6   1   2    0.26    0.82
   5  -1  -2   30.79    1.37
   5  -1  -2   27.44    1.60
   5  -1  -2   30.21    0.97
   5  -1  -2   29.52    1.63
   5  -1  -2   30.69    1.34
   5  -1  -2   30.44    1.64
   5  -1  -2   32.14    1.26
  -5   1   2   32.06    1.47
  -5   1   2   30.89    1.36
  -5   1   2   30.96    1.44
  -5   1   2   31.90    1.25
  -5   1   2   30.09    1.03
  -5   1   2   30.58    1.50
  -5   1   2   30.02    1.68
  -5   1   2   29.04    1.41
   4  -1  -2    0.91    0.57
   4  -1  -2    0.35    0.44
   4  -1  -2    0.74    0.29
   4  -1  -2    0.91    0.59
   4  -1  -2    1.07    0.44
   4  -1  -2    0.58    0.54
   4  -1  -2    0.84    0.42
  -4   1   2    0.76    0.46
  -4   1   2    0.72    0.46
  -4   1   2    0.97    0.42
  -4   1   2    0.90    0.59
  -4   1   2    0.95    0.52
  -4   1   2    1.25    0.50
  -4   1   2    1.43    0.46
  -4   1   2    0.56    0.33
   3  -1  -2   23.99    1.06
   3  -1  -2   23.04    0.87
   3  -1  -2   25.31    0.89
   3  -1  -2   25.33    0.90
   3  -1  -2   25.68    1.05
   3  -1  -2   25.93    1.01
   3  -1  -2   25.00    0.74
  -3   1   2   23.89    0.85
  -3   1   2   25.87    0.90
  -3   1   2   27.24    1.00
  -3   1   2   30.47    0.92
  -3   1   2   26.61    1.03
  -3   1   2   24.78    0.95
  -3   1   2   24.75    0.77
   2  -1  -2  119.69    2.55
   2  -1  -2  119.27    2.62
   2  -1  -2  115.81    2.52
   2  -1  -2  118.86    2.47
   2  -1  -2  115.64    2.55
   2  -1  -2  114.50    2.52
  -2   1   2  113.36    2.61
  -2   1   2  118.62    2.48
  -2   1   2  118.15    2.51
  -2   1   2  116.39    2.57
  -2   1   2  117.79    2.52
  -2   1   2  119.04    2.53
  -2   1   2  119.56    2.57
   1  -1  -2   23.81    0.63
   1  -1  -2   24.12    0.70
   1  -1  -2   23.42    0.62
   1  -1  -2   24.26    0.65
   1  -1  -2   24.18    0.66
   1  -1  -2   22.65    0.62
   1  -1  -2   23.76    0.73
  -1   1   2   23.86    0.67
  -1   1   2   23.17    0.60
  -1   1   2   23.79    0.61
  -1   1   2   24.03    0.68
  -1   1   2   22.75    0.64
  -1   1   2   24.85    0.64
   0  -1  -2    1.13    0.16
   0  -1  -2    1.31    0.12
   0  -1  -2    1.02    0.15
   0  -1  -2    1.06    0.16
   0  -1  -2    1.11    0.14
   0  -1  -2    0.97    0.15
   0  -1  -2    1.39    0.13
   0   1   2    1.19    0.15
   0   1   2    0.97    0.14
   0   1   2    0.76    0.14
   0   1   2    1.05    0.15
   0   1   2    0.99    0.09
  -1  -1  -2   -0.02    0.08
  -1  -1  -2   -0.02    0.08
  -1  -1  -2   -0.03    0.07
  -1  -1  -2    0.05    0.11
  -1  -1  -2   -0.08    0.12
   1   1   2   -0.05    0.07
   1   1   2    0.04    0.08
   1   1   2   -0.05    0.12
   1   1   2    0.01    0.07
   1   1   2   -0.11    0.14
  -2  -1  -2 9999.00  197.60
  -3  -1  -2   19.04    0.55
  -3  -1  -2   19.21    0.66
  -3  -1  -2   20.06    0.70
  -3  -1  -2   19.13    0.64
  -3  -1  -2   20.75    0.69
  -3  -1  -2   19.51    0.66
  -3  -1  -2   19.19    0.60
   3   1   2   19.61    0.66
   3   1   2   20.31    0.67
   3   1   2   20.19    0.56
   3   1   2   20.08    0.54
   3   1   2   19.66    0.55
  -4  -1  -2  148.33    3.07
  -4  -1  -2  151.19    3.25
  -4  -1  -2  147.85    3.21
  -4  -1  -2  150.20    3.29
  -4  -1  -2  152.75    3.30
  -4  -1  -2  149.08    3.41
  -4  -1  -2  149.52    3.28
  -4  -1  -2  149.56    3.28
   4   1   2  155.13    3.28
   4   1   2  150.62    3.13
   4   1   2  152.50    3.18
   4   1   2  149.36    3.15
   4   1   2  152.76    3.25
  -5  -1  -2   80.69    2.07
  -5  -1  -2   80.60    2.07
  -5  -1  -2   82.81    2.12
  -5  -1  -2   81.32    1.71
  -5  -1  -2   80.06    2.09
  -5  -1  -2   84.51    2.31
  -5  -1  -2   78.56    2.04
  -5  -1  -2   80.72    1.99
   5   1   2   83.20    2.00
   5   1   2   81.62    2.06
   5   1   2   83.16    1.85
   5   1   2   80.73    1.91
   5   1   2   81.96    2.00
  -6  -1  -2   -0.14    0.59
  -6  -1  -2    0.18    0.61
  -6  -1  -2    0.72    0.62
  -6  -1  -2   -0.53    0.56
  -6  -1  -2   -0.89    0.81
  -6  -1  -2    0.26    0.65
  -6  -1  -2    0.63    0.71
   6   1   2    0.57    0.55
   6   1   2   -0.70    0.52
   6   1   2    0.05    0.47
   6   1   2   -0.63    0.40
   6   1   2    0.55    0.54
  -7  -1  -2   61.24    2.54
  -7  -1  -2   59.40    2.00
  -7  -1  -2   61.12    2.12
  -7  -1  -2   57.75    2.32
  -7  -1  -2   61.32    2.13
  -7  -1  -2   59.86    2.10
  -7  -1  -2   59.27    2.19
   7   1   2   61.57    1.68
   7   1   2   58.47    1.96
   7   1   2   58.03    1.97
   7   1   2   57.45    1.85
   7   1   2   59.39    1.81
  -8  -1  -2    6.99    1.29
  -8  -1  -2    7.64    1.62
  -8  -1  -2    7.44    1.23
  -8  -1  -2    7.45    1.31
  -8  -1  -2    7.34    1.20
  -8  -1  -2    7.81    1.16
  -8  -1  -2    8.72    1.54
   8   1   2    8.25    0.83
   8   1   2    8.24    1.10
   8   1   2    8.36    0.90
   8   1   2    9.72    1.05
  -9  -1  -2    7.63    1.79
  -9  -1  -2    6.80    1.93
  -9  -1  -2    6.70    1.64
  -9  -1  -2    8.58    1.65
  -9  -1  -2    6.29    1.80
  -9  -1  -2    8.82    1.67
  -9  -1  -2    8.42    2.24
   9   1   2    7.08    1.17
   9   1   2    6.53    1.46
   9   1   2    8.31    1.32
   9   1   2    5.49    1.05
   9   1   2    6.17    1.00
   8  -2  -2    2.87    2.18
   8  -2  -2    3.83    1.83
   8  -2  -2   -2.64    1.93
   8  -2  -2    5.21    1.73
   8  -2  -2    0.36    1.36
  -8   2   2    7.21    1.67
  -8   2   2    8.11    1.99
  -8   2   2    8.82    2.58
  -8   2   2    8.52    2.04
  -8   2   2    5.79    1.52
  -8   2   2    6.14    1.73
  -8   2   2    7.61    2.09
   7  -2  -2    5.12    1.57
   7  -2  -2    8.01    1.33
   7  -2  -2    6.82    0.69
   7  -2  -2    4.65    1.30
   7  -2  -2    5.79    1.63
   7  -2  -2    7.00    1.24
  -7   2   2    6.83    1.41
  -7   2   2    7.79    1.20
  -7   2   2    9.11    1.32
  -7   2   2    6.86    1.76
  -7   2   2    7.85    1.52
  -7   2   2    6.95    1.39
  -7   2   2    6.62    1.34
   6  -2  -2    0.12    0.47
   6  -2  -2   -0.28    1.15
   6  -2  -2   -0.77    0.81
   6  -2  -2    0.98    0.87
   6  -2  -2   -0.85    1.18
   6  -2  -2   -1.50    0.87
  -6   2   2    1.31    0.86
  -6   2   2   -0.07    0.94
  -6   2   2    1.39    0.94
  -6   2   2   -2.43    0.95
  -6   2   2    0.45    0.62
  -6   2   2    1.32    1.06
  -6   2   2    0.49    0.85
  -6   2   2    1.03    1.29
   5  -2  -2   49.43    2.10
   5  -2  -2   46.25    1.28
   5  -2  -2   46.42    1.76
   5  -2  -2   49.88    2.09
   5  -2  -2   48.19    1.71
   5  -2  -2   47.50    1.73
  -5   2   2   47.90    1.85
  -5   2   2   48.10    1.69
  -5   2   2   46.15    1.40
  -5   2   2   47.42    1.66
  -5   2   2   47.19    1.93
  -5   2   2   46.56    1.88
  -5   2   2   47.97    2.22
  -5   2   2   47.33    1.66
   4  -2  -2  155.74    3.54
   4  -2  -2  161.81    3.57
   4  -2  -2  156.94    3.77
   4  -2  -2  155.13    3.59
   4  -2  -2  155.75    3.30
   4  -2  -2  155.41    3.71
   4  -2  -2  157.04    3.55
  -4   2   2  155.43    3.48
  -4   2   2  154.88    3.71
  -4   2   2  156.08    3.51
  -4   2   2  154.10    3.61
  -4   2   2  153.15    3.50
  -4   2   2  152.22    3.36
  -4   2   2  159.73    3.83
  -4   2   2  154.39    3.62
   3  -2  -2    8.29    0.61
   3  -2  -2    9.28    0.79
   3  -2  -2    9.09    0.73
   3  -2  -2    9.71    0.55
   3  -2  -2    9.64    0.78
   3  -2  -2    8.12    0.71
   3  -2  -2    9.41    0.72
  -3   2   2    7.08    0.66
  -3   2   2    9.31    0.78
  -3   2   2    9.64    0.90
  -3   2   2    8.57    0.68
  -3   2   2    8.94    0.60
  -3   2   2    8.07    0.71
  -3   2   2    7.98    0.65
  -3   2   2    8.73    0.70
   2  -2  -2   16.12    0.66
   2  -2  -2   16.54    0.87
   2  -2  -2   16.07    0.59
   2  -2  -2   15.40    0.72
   2  -2  -2   15.52    0.87
   2  -2  -2   14.84    0.67
   2  -2  -2   14.37    0.71
  -2   2   2   15.89    0.64
  -2   2   2   14.72    0.79
  -2   2   2   15.30    0.76
  -2   2   2   15.87    0.64
  -2   2   2   15.45    0.70
  -2   2   2   15.96    0.84
  -2   2   2   15.88    0.60
   1  -2  -2  602.80   12.27
   1  -2  -2  626.31   12.45
   1  -2  -2  621.68   12.37
   1  -2  -2  598.92   12.36
   1  -2  -2  617.22   12.40
   1  -2  -2  610.73   12.32
   1  -2  -2  611.98   12.33
  -1   2   2  627.32   12.44
  -1   2   2  624.62   12.36
  -1   2   2  624.83   12.37
  -1   2   2  610.00   12.37
  -1   2   2  616.93   12.31
  -1   2   2  626.88   12.35
  -1   2   2  603.22   12.24
  -1   2   2  629.51   12.42
   0  -2  -2  878.31   17.07
   0  -2  -2  859.94   16.88
   0  -2  -2  833.46   16.90
   0  -2  -2  828.52   16.89
   0  -2  -2  826.33   16.91
   0  -2  -2  846.28   16.90
   0  -2  -2  885.27   16.88
   0   2   2  835.56   16.91
   0   2   2  888.21   17.19
   0   2   2  849.63   16.87
   0   2   2  890.75   17.18
   0   2   2  877.26   17.04
   0   2   2  894.28   16.92
   0   2   2  819.99   16.94
   0   2   2  728.79   16.86
  -1  -2  -2   28.00    0.68
  -1  -2  -2   28.89    0.74
  -1  -2  -2   27.00    0.66
  -1  -2  -2   27.56    0.69
  -1  -2  -2   28.85    0.66
  -1  -2  -2   27.86    0.67
  -1  -2  -2   28.06    0.67
   1   2   2   28.76    0.62
   1   2   2   27.89    0.63
   1   2   2   28.82    0.67
   1   2   2   28.82    0.61
   1   2   2   28.80    0.64
  -3  -2  -2  222.76    4.58
  -3  -2  -2  222.17    4.44
  -3  -2  -2  222.59    4.45
  -3  -2  -2  224.55    4.46
  -3  -2  -2  216.60    4.59
  -3  -2  -2  223.05    4.58
  -4  -2  -2  184.19    3.97
  -4  -2  -2  185.71    4.10
  -4  -2  -2  185.68    3.86
  -4  -2  -2  186.58    3.86
  -4  -2  -2  181.09    3.83
  -4  -2  -2  184.83    3.81
  -4  -2  -2  189.39    3.94
  -4  -2  -2  185.91    3.86
  -5  -2  -2   -0.11    0.29
  -5  -2  -2   -0.15    0.41
  -5  -2  -2    0.07    0.41
  -5  -2  -2   -0.39    0.60
  -5  -2  -2   -0.02    0.35
  -5  -2  -2   -0.19    0.46
  -5  -2  -2    0.15    0.44
  -5  -2  -2    0.14    0.43
  -6  -2  -2    4.22    0.61
  -6  -2  -2    3.78    0.63
  -6  -2  -2    4.49    1.08
  -6  -2  -2    2.53    1.01
  -6  -2  -2    3.93    0.64
  -6  -2  -2    4.24    0.41
  -6  -2  -2    5.62    0.75
  -6  -2  -2    4.58    0.65
   6   2   2    4.65    0.34
   6   2   2    4.99    0.33
   6   2   2    4.25    0.36
   6   2   2    4.88    0.40
  -7  -2  -2   -0.42    0.73
  -7  -2  -2    1.33    0.80
  -7  -2  -2    0.66    0.38
  -7  -2  -2    0.37    0.74
  -7  -2  -2    1.25    0.89
  -7  -2  -2    0.58    1.10
  -7  -2  -2    1.34    0.91
  -7  -2  -2    0.67    0.75
   7   2   2    0.71    0.41
   7   2   2    0.95    0.39
   7   2   2    1.09    0.48
   7   2   2    0.71    0.47
  -8  -2  -2   51.48    2.16
  -8  -2  -2   52.99    2.64
  -8  -2  -2   55.10    2.21
  -8  -2  -2   56.62    2.62
  -8  -2  -2   55.16    2.26
  -8  -2  -2   54.01    2.96
   8   2   2   54.39    1.54
  -9  -2  -2    4.06    1.61
  -9  -2  -2    1.66    1.41
  -9  -2  -2    2.12    2.00
  -9  -2  -2    4.11    1.38
  -9  -2  -2    0.95    1.43
  -9  -2  -2    2.08    1.73
   7  -3  -2    2.09    1.84
   7  -3  -2    2.77    2.04
   7  -3  -2    3.06    1.55
   7  -3  -2    0.20    1.48
   7  -3  -2    2.40    0.70
   7  -3  -2    2.54    1.38
  -7   3   2    1.45    1.53
  -7   3   2    0.12    1.63
  -7   3   2    1.82    1.39
  -7   3   2   -0.42    1.40
  -7   3   2    1.45    1.22
  -7   3   2    3.03    2.06
  -7   3   2    1.09    1.54
   6  -3  -2   39.35    2.27
   6  -3  -2   38.89    2.19
   6  -3  -2   43.14    2.70
   6  -3  -2   40.99    2.14
   6  -3  -2   42.42    2.81
   6  -3  -2   38.71    1.29
  -6   3   2   41.09    2.09
  -6   3   2   38.17    2.03
  -6   3   2   35.82    2.41
  -6   3   2   41.03    2.47
  -6   3   2   42.07    2.44
  -6   3   2   44.01    3.01
  -6   3   2   40.47    1.88
   5  -3  -2   23.60    1.57
   5  -3  -2   22.80    2.07
   5  -3  -2   22.20    1.51
   5  -3  -2   21.18    0.98
   5  -3  -2   21.71    1.68
   5  -3  -2   22.48    1.55
  -5   3   2   23.80    1.36
  -5   3   2   20.00    1.43
  -5   3   2   23.83    1.81
  -5   3   2   23.58    2.13
  -5   3   2   20.77    1.78
  -5   3   2   22.32    1.75
   4  -3  -2    0.86    0.61
   4  -3  -2    1.83    0.83
   4  -3  -2    1.67    0.69
   4  -3  -2    1.34    0.88
   4  -3  -2    2.33    0.71
   4  -3  -2    1.22    0.45
  -4   3   2    1.61    0.56
  -4   3   2    2.25    0.54
  -4   3   2    2.50    0.75
  -4   3   2    0.87    0.75
  -4   3   2    2.49    0.76
  -4   3   2    1.71    0.86
  -4   3   2    2.43    0.66
   3  -3  -2  144.35    3.09
   3  -3  -2  141.76    3.30
   3  -3  -2  141.68    3.24
   3  -3  -2  145.43    3.45
   3  -3  -2  145.56    3.33
   3  -3  -2  142.89    3.18
  -3   3   2  139.11    3.26
  -3   3   2  143.30    3.08
  -3   3   2  144.32    3.20
  -3   3   2  137.88    3.32
  -3   3   2  144.64    3.36
  -3   3   2  139.20    3.48
   2  -3  -2  194.33    4.40
   2  -3  -2  193.90    4.11
   2  -3  -2  196.75    4.20
   2  -3  -2  195.42    4.26
   2  -3  -2  197.58    4.27
   2  -3  -2  197.87    4.15
   2  -3  -2  195.14    4.34
  -2   3   2  203.87    4.29
  -2   3   2  201.32    4.18
  -2   3   2  193.77    4.04
  -2   3   2  198.78    4.40
  -2   3   2  196.35    4.29
  -2   3   2  195.17    4.24
  -2   3   2  197.45    4.36
   1  -3  -2   13.05    0.82
   1  -3  -2   14.67    0.67
   1  -3  -2   13.25    0.85
   1  -3  -2   15.47    0.75
   1  -3  -2   13.43    0.82
   1  -3  -2   14.57    0.71
   1  -3  -2   13.40    0.49
   1  -3  -2   14.72    0.63
  -1   3   2   13.40    0.40
  -1   3   2   15.53    0.78
  -1   3   2   14.54    0.59
  -1   3   2   14.39    0.77
  -1   3   2   13.47    0.81
  -1   3   2   13.99    0.71
  -1   3   2   13.55    0.71
   0  -3  -2   35.33    1.04
   0  -3  -2   33.68    0.97
   0  -3  -2   33.70    1.05
   0  -3  -2   34.22    0.91
   0  -3  -2   35.18    0.76
   0  -3  -2   34.67    1.05
   0  -3  -2   35.32    1.02
   0  -3  -2   34.74    1.02
   0   3   2   34.68    1.00
   0   3   2   34.89    0.90
   0   3   2   35.94    1.00
   0   3   2   36.20    0.98
   0   3   2   35.32    0.76
   0   3   2   34.78    1.02
   0   3   2   34.53    0.95
  -1  -3  -2   28.76    0.77
  -1  -3  -2   29.63    0.86
  -1  -3  -2   28.51    0.77
  -1  -3  -2   27.80    0.83
  -1  -3  -2   29.33    0.68
  -1  -3  -2   29.44    0.83
  -1  -3  -2   28.76    0.81
   1   3   2   29.42    0.74
   1   3   2   29.59    0.83
   1   3   2   28.48    0.72
   1   3   2   28.47    0.71
   1   3   2   29.38    0.80
   1   3   2   28.43    0.72
  -2  -3  -2   95.27    2.05
  -2  -3  -2   93.89    1.94
  -2  -3  -2   95.35    2.08
  -2  -3  -2   95.12    1.97
  -2  -3  -2   91.35    1.96
  -2  -3  -2   94.70    1.97
  -3  -3  -2   41.62    1.23
  -3  -3  -2   39.32    1.16
  -4  -3  -2    4.33    0.36
  -4  -3  -2    5.04    0.48
  -4  -3  -2    4.11    0.46
  -4  -3  -2    4.03    0.34
  -4  -3  -2    4.88    0.35
  -4  -3  -2    4.63    0.60
  -4  -3  -2    4.88    0.43
  -5  -3  -2    0.59    0.49
  -5  -3  -2    0.81    0.34
  -5  -3  -2    0.84    0.67
  -5  -3  -2    0.91    0.44
  -5  -3  -2    0.40    0.32
  -5  -3  -2    0.59    0.34
  -5  -3  -2    0.16    0.42
  -6  -3  -2    0.23    0.46
  -6  -3  -2    0.50    0.50
  -6  -3  -2    0.47    0.65
  -6  -3  -2    0.00    0.56
  -6  -3  -2    0.56    0.44
  -6  -3  -2    0.64    0.61
  -7  -3  -2    0.06    0.73
  -7  -3  -2   -0.27    0.89
  -7  -3  -2   -0.16    0.86
  -7  -3  -2    1.03    1.18
  -7  -3  -2    0.24    0.51
  -7  -3  -2   -0.25    0.64
  -7  -3  -2    0.33    0.65
  -7  -3  -2   -1.12    0.68
  -8  -3  -2   20.56    1.55
  -8  -3  -2   17.47    1.62
  -8  -3  -2   21.56    1.26
  -8  -3  -2   19.67    1.57
  -8  -3  -2   18.12    1.13
  -8  -3  -2   21.44    2.11
  -8  -3  -2   17.68    1.76
  -8  -3  -2   17.53    1.29
  -9  -3  -2   38.37    2.63
  -9  -3  -2   38.36    1.43
  -9  -3  -2   45.35    2.42
  -9  -3  -2   33.10    2.41
  -9  -3  -2   40.94    2.69
  -9  -3  -2   39.16    3.28
  -9  -3  -2   40.68    2.99
  -9  -3  -2   38.36    1.89
   7  -4  -2    6.11    1.73
   7  -4  -2    9.44    2.44
   7  -4  -2    6.56    0.84
   7  -4  -2    7.56    2.33
   7  -4  -2    4.88    1.94
   7  -4  -2    6.31    1.83
  -7   4   2    6.54    2.44
  -7   4   2    6.61    1.42
  -7   4   2    5.82    1.73
  -7   4   2    8.60    2.80
  -7   4   2    5.90    2.04
  -7   4   2    5.00    1.76
   6  -4  -2   53.86    2.75
   6  -4  -2   51.47    1.69
   6  -4  -2   50.00    2.65
   6  -4  -2   59.16    3.40
   6  -4  -2   57.68    2.86
   6  -4  -2   55.03    3.37
  -6   4   2   54.01    2.07
  -6   4   2   48.18    2.51
  -6   4   2   52.17    3.02
  -6   4   2   51.75    2.49
  -6   4   2   56.08    3.18
  -6   4   2   49.75    4.15
  -6   4   2   50.22    2.87
   5  -4  -2    0.82    1.25
   5  -4  -2    0.97    0.96
   5  -4  -2    0.70    1.01
   5  -4  -2    0.54    1.14
   5  -4  -2    1.31    0.61
   5  -4  -2   -1.05    1.25
  -5   4   2    0.66    1.18
  -5   4   2    0.51    1.09
  -5   4   2    2.15    1.26
  -5   4   2    0.18    0.68
  -5   4   2    0.11    1.11
  -5   4   2    2.06    0.90
  -5   4   2   -0.62    0.93
   4  -4  -2  114.27    3.04
   4  -4  -2  118.26    2.75
   4  -4  -2  123.38    3.51
   4  -4  -2  120.77    3.43
   4  -4  -2  118.56    3.19
   4  -4  -2  121.36    3.47
  -4   4   2  119.68    3.31
  -4   4   2  117.05    2.75
  -4   4   2  118.37    3.09
  -4   4   2  122.25    3.23
  -4   4   2  119.18    3.26
  -4   4   2  121.04    3.47
   3  -4  -2    8.23    0.90
   3  -4  -2    7.67    0.63
   3  -4  -2    7.16    0.95
   3  -4  -2   12.64    1.61
   3  -4  -2    8.06    0.72
   3  -4  -2    6.30    0.79
  -3   4   2    8.05    0.65
  -3   4   2    7.98    0.99
  -3   4   2    8.45    0.70
  -3   4   2    7.45    0.79
  -3   4   2   12.05    1.43
  -3   4   2    8.12    0.90
  -3   4   2    8.66    0.85
   2  -4  -2  178.40    4.12
   2  -4  -2  174.76    4.04
   2  -4  -2  182.07    3.91
   2  -4  -2  179.64    3.94
   2  -4  -2  183.06    4.04
   2  -4  -2  178.50    4.18
   2  -4  -2  178.84    4.20
  -2   4   2  178.23    3.99
  -2   4   2  178.30    4.11
  -2   4   2  178.54    4.05
  -2   4   2  177.27    4.01
  -2   4   2  183.29    4.16
  -2   4   2  179.14    3.89
  -2   4   2  178.63    3.66
   1  -4  -2   22.92    1.19
   1  -4  -2   22.79    1.12
   1  -4  -2   21.82    0.96
   1  -4  -2   20.97    1.04
   1  -4  -2   23.66    0.90
   1  -4  -2   23.29    1.17
   1  -4  -2   20.99    0.99
  -1   4   2   23.34    1.12
  -1   4   2   22.87    1.03
  -1   4   2   21.53    1.04
  -1   4   2   23.50    0.98
  -1   4   2   21.45    0.99
  -1   4   2   22.64    0.85
   0  -4  -2    9.61    0.82
   0  -4  -2   11.14    0.77
   0  -4  -2   11.34    0.62
   0  -4  -2   11.02    0.84
   0  -4  -2   10.26    0.78
   0  -4  -2   11.17    0.71
   0  -4  -2   10.83    0.82
   0   4   2   10.74    0.66
   0   4   2   10.88    0.72
   0   4   2   10.23    0.74
   0   4   2   10.32    0.59
   0   4   2    9.81    0.71
   0   4   2    9.87    0.72
  -1  -4  -2    4.37    0.38
  -1  -4  -2    3.72    0.45
  -1  -4  -2    3.68    0.43
  -1  -4  -2    3.87    0.27
  -1  -4  -2    3.90    0.24
  -1  -4  -2    4.30    0.43
  -1  -4  -2    3.35    0.41
  -1  -4  -2    4.38    0.37
   1   4   2    4.31    0.31
   1   4   2    4.92    0.37
   1   4   2    4.50    0.37
   1   4   2    3.90    0.33
   1   4   2    3.37    0.38
   1   4   2    3.96    0.35
  -2  -4  -2   84.51    1.90
  -2  -4  -2   83.32    1.89
  -2  -4  -2   82.11    1.88
  -2  -4  -2   82.28    1.83
  -2  -4  -2   83.44    1.84
  -2  -4  -2   84.38    1.92
  -2  -4  -2   82.35    1.86
  -2  -4  -2   85.58    1.97
  -3  -4  -2  323.05    6.73
  -3  -4  -2  317.23    6.60
  -3  -4  -2  322.37    6.45
  -3  -4  -2  321.68    6.43
  -3  -4  -2  326.95    6.65
  -3  -4  -2  320.27    6.60
  -3  -4  -2  318.56    6.45
  -3  -4  -2  322.34    6.43
  -4  -4  -2   22.62    0.59
  -4  -4  -2   21.83    0.92
  -4  -4  -2   22.43    0.56
  -4  -4  -2   21.96    0.60
  -4  -4  -2   23.62    0.86
  -4  -4  -2   22.02    1.06
  -4  -4  -2   20.97    1.18
  -4  -4  -2   22.75    0.88
  -4  -4  -2   22.60    0.58
  -5  -4  -2    2.01    0.26
  -5  -4  -2    1.17    0.45
  -5  -4  -2    1.34    0.45
  -5  -4  -2    1.61    0.56
  -5  -4  -2    1.35    0.73
  -5  -4  -2    1.73    0.30
  -5  -4  -2    1.93    0.30
  -5  -4  -2    1.86    0.60
  -6  -4  -2   53.38    1.83
  -6  -4  -2   48.98    1.59
  -6  -4  -2   51.25    1.33
  -6  -4  -2   48.20    1.27
  -6  -4  -2   51.07    1.62
  -6  -4  -2   50.38    1.40
  -6  -4  -2   49.87    2.12
  -7  -4  -2   22.48    1.08
  -7  -4  -2   24.25    1.28
  -7  -4  -2   24.88    1.53
  -7  -4  -2   24.47    1.67
  -7  -4  -2   24.93    1.17
  -7  -4  -2   23.72    1.33
  -7  -4  -2   24.72    1.77
  -7  -4  -2   23.00    1.50
  -8  -4  -2   -0.22    1.00
  -8  -4  -2   -0.47    1.17
  -8  -4  -2    0.47    0.88
  -8  -4  -2   -0.89    0.79
  -8  -4  -2   -1.43    1.54
  -8  -4  -2   -0.26    1.29
  -8  -4  -2    0.43    0.91
  -8  -4  -2    0.39    0.76
  -9  -4  -2    2.81    1.14
  -9  -4  -2    4.69    2.01
  -9  -4  -2    1.96    0.99
  -9  -4  -2    2.58    1.49
  -9  -4  -2    4.11    1.49
   6  -5  -2    0.60    1.88
   6  -5  -2   -2.63    1.63
   6  -5  -2    3.87    2.11
   6  -5  -2    0.18    1.74
   6  -5  -2   -0.28    0.90
   6  -5  -2    1.36    2.11
  -6   5   2   -0.36    1.52
  -6   5   2   -1.15    4.64
  -6   5   2   -0.24    1.03
  -6   5   2    0.93    1.90
  -6   5   2    1.64    1.81
  -6   5   2    0.76    1.57
   5  -5  -2    3.15    0.81
   5  -5  -2    0.33    1.21
   5  -5  -2    0.73    1.44
   5  -5  -2    1.70    1.21
   5  -5  -2    3.45    1.75
  -5   5   2    2.55    1.45
  -5   5   2    1.97    1.54
  -5   5   2    3.41    1.23
  -5   5   2    1.85    1.43
  -5   5   2    2.75    1.67
  -5   5   2    2.73    0.77
  -5   5   2    2.71    1.04
   4  -5  -2   34.66    1.44
   4  -5  -2   33.37    1.84
   4  -5  -2   38.78    2.57
   4  -5  -2   35.71    2.22
   4  -5  -2   33.65    2.09
   4  -5  -2   35.88    2.50
  -4   5   2   34.46    2.23
  -4   5   2   36.65    1.71
  -4   5   2   33.95    1.21
  -4   5   2   33.68    2.24
  -4   5   2   41.00    2.59
  -4   5   2   30.73    2.24
  -4   5   2   34.62    1.94
   3  -5  -2  177.82    4.48
   3  -5  -2  179.17    4.33
   3  -5  -2  182.89    4.58
   3  -5  -2  181.83    4.04
   3  -5  -2  175.33    4.19
   3  -5  -2  180.40    4.36
  -3   5   2  180.40    4.37
  -3   5   2  186.78    4.53
  -3   5   2  181.31    3.74
  -3   5   2  178.59    4.45
  -3   5   2  175.13    4.22
  -3   5   2  184.46    4.32
   2  -5  -2  124.04    3.14
   2  -5  -2  127.57    3.04
   2  -5  -2  127.61    3.28
   2  -5  -2  127.94    3.20
   2  -5  -2  120.66    3.33
   2  -5  -2  124.59    3.36
   2  -5  -2  124.90    3.00
  -2   5   2  124.33    3.27
  -2   5   2  126.19    3.24
  -2   5   2  124.97    3.10
  -2   5   2  127.01    2.96
  -2   5   2  128.76    3.18
  -2   5   2  124.57    3.11
   1  -5  -2    1.85    0.69
   1  -5  -2    1.82    0.52
   1  -5  -2    2.32    0.73
   1  -5  -2    3.29    0.68
   1  -5  -2    1.14    0.55
   1  -5  -2    1.62    0.61
   1  -5  -2    1.44    0.71
  -1   5   2    2.31    0.60
  -1   5   2    2.08    0.57
  -1   5   2    1.71    0.45
  -1   5   2    1.80    0.62
  -1   5   2    1.22    0.75
   0  -5  -2   29.20    1.06
   0  -5  -2   24.71    1.30
   0  -5  -2   26.20    1.21
   0  -5  -2   27.40    1.24
   0  -5  -2   28.03    1.29
   0  -5  -2   27.22    1.28
   0  -5  -2   28.05    1.16
   0   5   2   27.17    1.10
   0   5   2   27.29    1.16
   0   5   2   27.68    1.16
   0   5   2   26.35    0.99
   0   5   2   25.92    1.00
   0   5   2   26.73    1.16
  -1  -5  -2   -0.23    0.43
  -1  -5  -2    0.02    0.47
  -1  -5  -2    0.89    0.38
  -1  -5  -2    0.38    0.44
  -1  -5  -2    0.00    0.39
  -1  -5  -2   -0.20    0.47
   1   5   2   -0.07    0.41
   1   5   2   -0.30    0.32
   1   5   2   -0.43    0.29
   1   5   2    0.24    0.35
   1   5   2    0.39    0.41
   1   5   2   -0.05    0.38
  -2  -5  -2   78.23    1.89
  -2  -5  -2   76.61    1.95
  -2  -5  -2   75.25    1.72
  -2  -5  -2   75.79    1.82
  -2  -5  -2   75.95    1.90
  -2  -5  -2   72.55    2.08
  -2  -5  -2   75.87    1.88
  -2  -5  -2   72.99    1.84
  -2  -5  -2   76.70    1.68
   2   5   2   76.24    1.59
   2   5   2   79.10    1.91
   2   5   2   77.94    1.63
   2   5   2   77.68    1.61
  -3  -5  -2   24.93    1.26
  -3  -5  -2   24.80    0.91
  -3  -5  -2   25.02    1.01
  -3  -5  -2   23.92    0.84
  -3  -5  -2   23.00    1.04
  -3  -5  -2   23.86    0.81
  -3  -5  -2   25.49    0.99
  -3  -5  -2   24.80    0.84
  -4  -5  -2   27.24    0.78
  -4  -5  -2   27.02    0.80
  -4  -5  -2   26.68    0.84
  -4  -5  -2   25.85    1.23
  -4  -5  -2   27.41    0.75
  -4  -5  -2   28.69    1.09
  -4  -5  -2   27.09    1.35
  -4  -5  -2   26.70    1.13
  -5  -5  -2  110.64    2.33
  -5  -5  -2  114.61    2.36
  -5  -5  -2  113.49    2.61
  -5  -5  -2  111.74    2.33
  -5  -5  -2  112.01    2.88
  -5  -5  -2  114.85    2.84
  -5  -5  -2   93.80    3.39
  -5  -5  -2  112.94    2.84
  -5  -5  -2  109.98    2.62
  -6  -5  -2   61.37    1.88
  -6  -5  -2   64.00    2.10
  -6  -5  -2   64.12    1.79
  -6  -5  -2   63.27    1.46
  -6  -5  -2   63.88    1.51
  -6  -5  -2   59.79    2.33
  -6  -5  -2   62.48    1.57
  -6  -5  -2   69.79    2.22
  -6  -5  -2   66.49    2.05
  -7  -5  -2   -0.46    1.20
  -7  -5  -2    1.20    0.68
  -7  -5  -2    0.01    0.68
  -7  -5  -2    1.22    0.45
  -7  -5  -2    1.75    0.82
  -7  -5  -2    2.19    0.54
  -7  -5  -2    1.41    1.09
  -7  -5  -2    1.15    1.11
  -7  -5  -2    1.25    0.81
  -8  -5  -2   13.08    1.30
  -8  -5  -2   16.42    1.91
  -8  -5  -2   13.45    1.20
  -8  -5  -2   14.38    0.94
  -8  -5  -2   11.84    1.22
  -8  -5  -2   14.96    1.71
  -8  -5  -2   13.23    1.00
   5  -6  -2    8.19    1.61
   5  -6  -2    6.18    2.01
   5  -6  -2    7.17    1.76
   5  -6  -2    7.64    1.12
   5  -6  -2    7.22    2.19
   5  -6  -2    3.69    2.14
  -5   6   2    7.35    0.82
  -5   6   2    5.59    1.87
  -5   6   2    6.51    1.67
  -5   6   2    8.22    1.92
  -5   6   2    6.86    1.41
  -5   6   2    7.83    1.92
  -5   6   2    7.25    1.04
  -5   6   2    6.11    2.22
   4  -6  -2    2.63    1.72
   4  -6  -2    3.71    1.52
   4  -6  -2    4.74    0.96
   4  -6  -2    4.21    2.19
   4  -6  -2    3.28    1.25
  -4   6   2    3.62    0.51
  -4   6   2    3.49    1.58
  -4   6   2    4.05    1.50
  -4   6   2    2.92    1.20
  -4   6   2    1.53    1.46
  -4   6   2    3.11    0.67
  -4   6   2    1.89    1.47
  -4   6   2    2.67    1.08
   3  -6  -2   99.23    3.00
   3  -6  -2  105.15    3.34
   3  -6  -2  110.16    3.47
   3  -6  -2   83.96    5.04
   3  -6  -2  108.56    3.27
  -3   6   2  106.98    3.17
  -3   6   2  104.14    2.85
  -3   6   2  101.33    3.03
  -3   6   2  104.66    3.52
  -3   6   2  106.94    3.25
  -3   6   2  104.02    3.27
   2  -6  -2    2.02    1.06
   2  -6  -2    1.04    0.92
   2  -6  -2    0.98    0.96
   2  -6  -2    0.94    1.09
   2  -6  -2   -0.07    1.00
   2  -6  -2    0.76    0.80
   2  -6  -2    0.55    1.13
  -2   6   2   -0.02    0.69
  -2   6   2    0.43    0.76
  -2   6   2    1.12    0.98
  -2   6   2    1.92    0.94
  -2   6   2    0.82    0.96
  -2   6   2    0.69    0.79
   1  -6  -2  200.51    4.68
   1  -6  -2  209.64    4.63
   1  -6  -2  201.61    4.59
   1  -6  -2  197.21    4.79
   1  -6  -2  201.58    4.80
   1  -6  -2  200.57    4.54
   1  -6  -2  201.20    4.68
  -1   6   2  202.25    4.47
  -1   6   2  179.76    4.90
  -1   6   2  203.97    4.57
  -1   6   2  196.75    4.70
  -1   6   2  200.74    4.42
   0  -6  -2  296.07    6.26
   0  -6  -2  293.44    6.34
   0  -6  -2  294.73    6.35
   0  -6  -2  288.25    6.39
   0  -6  -2  291.17    6.19
   0   6   2  277.95    6.28
   0   6   2  291.43    6.14
   0   6   2  292.14    6.19
   0   6   2  292.54    6.25
   0   6   2  292.37    6.21
  -1  -6  -2  127.80    3.11
  -1  -6  -2  125.43    3.20
  -1  -6  -2  127.18    2.99
  -1  -6  -2  127.09    3.21
  -1  -6  -2  126.33    3.09
  -1  -6  -2  123.57    3.11
  -1  -6  -2  120.91    3.02
  -1  -6  -2  122.44    2.94
   1   6   2  128.08    2.78
   1   6   2  127.94    2.83
   1   6   2  128.84    3.00
   1   6   2  123.79    2.90
   1   6   2  127.03    2.92
   1   6   2  128.80    2.90
  -2  -6  -2  459.15    9.31
  -2  -6  -2  465.22    9.38
  -2  -6  -2  465.94    9.58
  -2  -6  -2  435.11    9.55
  -2  -6  -2  455.41    9.32
  -2  -6  -2  473.52    9.45
  -2  -6  -2  462.74    9.42
  -2  -6  -2  448.35    9.05
   2   6   2  472.91    9.37
   2   6   2  447.02    9.10
   2   6   2  447.92    9.13
   2   6   2  454.22    9.35
   2   6   2  441.43    9.12
   2   6   2  446.74    9.08
  -3  -6  -2   46.66    1.37
  -3  -6  -2   47.29    1.50
  -3  -6  -2   46.45    1.54
  -3  -6  -2   49.98    1.63
  -3  -6  -2   45.86    1.43
  -3  -6  -2   48.17    1.31
  -3  -6  -2   47.96    1.36
  -4  -6  -2    0.48    0.86
  -4  -6  -2    0.86    0.48
  -4  -6  -2   -1.00    0.59
  -4  -6  -2    0.14    0.40
  -4  -6  -2    0.90    0.60
  -4  -6  -2    0.53    0.64
  -4  -6  -2    0.31    0.39
  -4  -6  -2    1.51    0.53
  -5  -6  -2    0.96    0.81
  -5  -6  -2    1.06    0.38
  -5  -6  -2    0.62    0.45
  -5  -6  -2    0.20    0.64
  -5  -6  -2    0.42    0.65
  -5  -6  -2    0.89    0.90
  -5  -6  -2   -0.05    0.49
  -5  -6  -2    1.20    0.42
  -5  -6  -2    1.23    0.75
  -6  -6  -2    7.86    0.85
  -6  -6  -2    7.93    0.54
  -6  -6  -2    6.21    1.15
  -6  -6  -2    8.01    0.54
  -6  -6  -2    7.81    0.60
  -6  -6  -2    6.44    0.83
  -6  -6  -2    6.95    1.11
  -6  -6  -2    6.98    0.97
  -6  -6  -2    8.10    1.10
  -7  -6  -2   18.99    1.16
  -7  -6  -2   18.24    1.43
  -7  -6  -2   19.36    1.51
  -7  -6  -2   20.87    1.47
  -7  -6  -2   22.31    1.68
  -7  -6  -2   18.93    0.92
  -7  -6  -2   18.85    1.57
  -7  -6  -2   14.67    1.62
  -8  -6  -2    0.02    1.47
  -8  -6  -2   -0.70    1.77
  -8  -6  -2    0.97    0.70
  -8  -6  -2   -0.51    1.32
  -8  -6  -2    0.21    1.66
  -8  -6  -2   -2.39    1.88
  -8  -6  -2    0.89    1.30
  -8  -6  -2   -0.37    0.97
   4  -7  -2   32.76    2.18
   4  -7  -2   33.40    2.44
   4  -7  -2   36.57    3.06
   4  -7  -2   30.74    2.44
   4  -7  -2   36.07    2.28
   4  -7  -2   37.72    2.88
   4  -7  -2   40.15    2.63
  -4   7   2   29.72    2.31
  -4   7   2   36.70    2.57
  -4   7   2   37.67    3.62
  -4   7   2   43.12    3.50
  -4   7   2   34.60    2.89
  -4   7   2   32.89    2.15
   3  -7  -2   -1.61    1.38
   3  -7  -2    0.59    1.64
   3  -7  -2    0.15    1.49
   3  -7  -2    2.20    1.15
   3  -7  -2   -0.01    1.37
   3  -7  -2   -0.89    1.52
   3  -7  -2   -2.98    1.27
  -3   7   2   -0.92    1.19
  -3   7   2    0.28    1.45
  -3   7   2   -0.38    1.52
  -3   7   2    0.23    1.11
  -3   7   2   -0.37    1.49
  -3   7   2    0.92    1.42
   2  -7  -2   42.38    2.23
   2  -7  -2   45.75    2.18
   2  -7  -2   43.04    2.75
   2  -7  -2   47.21    2.44
   2  -7  -2   43.59    2.72
   2  -7  -2   42.80    2.66
   2  -7  -2   45.63    2.71
   2  -7  -2   44.81    2.48
  -2   7   2   45.36    2.46
  -2   7   2   45.75    2.44
  -2   7   2   42.60    1.98
  -2   7   2   40.17    2.20
  -2   7   2   39.74    2.44
  -2   7   2   45.55    2.17
   1  -7  -2   -0.78    1.09
   1  -7  -2   -0.48    0.97
   1  -7  -2    1.91    0.96
   1  -7  -2   -0.95    1.10
   1  -7  -2   -0.02    1.01
   1  -7  -2    0.16    0.95
   1  -7  -2   -0.99    1.13
   1  -7  -2    1.98    1.16
  -1   7   2   -0.82    0.96
  -1   7   2    0.59    0.84
  -1   7   2   -0.32    0.86
  -1   7   2    0.89    0.78
  -1   7   2    1.20    0.92
  -1   7   2    0.26    1.01
   0  -7  -2    1.75    0.96
   0  -7  -2    2.22    1.05
   0  -7  -2    2.15    0.84
   0  -7  -2    1.74    0.98
   0  -7  -2    1.69    1.06
   0  -7  -2    1.59    1.01
   0   7   2    1.71    0.68
   0   7   2    2.51    0.83
   0   7   2    1.46    0.78
   0   7   2    2.29    0.72
   0   7   2    1.52    0.71
   0   7   2    1.38    0.92
  -1  -7  -2   31.53    1.67
  -1  -7  -2   34.00    1.86
  -1  -7  -2   31.68    1.89
  -1  -7  -2   31.69    1.99
  -1  -7  -2   29.78    1.62
  -1  -7  -2   29.73    1.47
  -1  -7  -2   31.78    1.76
  -1  -7  -2   33.16    1.82
   1   7   2   31.22    1.41
   1   7   2   34.16    1.60
   1   7   2   32.10    1.46
   1   7   2   29.85    1.24
   1   7   2   29.94    1.47
   1   7   2   32.38    1.15
  -2  -7  -2  175.43    4.00
  -2  -7  -2  176.07    4.04
  -2  -7  -2  182.40    4.02
  -2  -7  -2  175.62    4.10
  -2  -7  -2  181.20    4.38
  -2  -7  -2  176.07    4.17
   2   7   2  178.98    4.02
   2   7   2  160.13    4.21
   2   7   2  173.56    3.63
   2   7   2  175.49    3.72
   2   7   2  176.12    3.73
   2   7   2  176.41    3.67
  -3  -7  -2   57.57    1.46
  -3  -7  -2   59.44    1.77
  -3  -7  -2   59.41    1.46
  -3  -7  -2   60.50    2.06
  -3  -7  -2   58.34    1.96
  -3  -7  -2   60.06    1.87
  -3  -7  -2   60.20    2.43
  -3  -7  -2   59.76    1.84
  -3  -7  -2   59.84    2.00
  -4  -7  -2   -0.61    0.59
  -4  -7  -2   -0.62    0.74
  -4  -7  -2   -1.02    0.63
  -4  -7  -2   -0.29    0.64
  -4  -7  -2    0.69    1.11
  -4  -7  -2    0.46    0.62
  -4  -7  -2   -0.25    0.83
  -4  -7  -2    0.84    0.54
  -4  -7  -2   -0.91    0.76
  -5  -7  -2   26.66    2.15
  -5  -7  -2   22.71    1.78
  -5  -7  -2   23.82    1.14
  -5  -7  -2   25.62    1.68
  -5  -7  -2   24.56    1.39
  -5  -7  -2   21.12    1.00
  -5  -7  -2   24.26    1.24
  -5  -7  -2   22.47    1.61
  -6  -7  -2    0.09    1.34
  -6  -7  -2    2.43    0.98
  -6  -7  -2    1.03    1.14
  -6  -7  -2    1.34    0.91
  -6  -7  -2    2.50    1.37
  -6  -7  -2    0.72    1.14
  -6  -7  -2    2.37    0.75
  -6  -7  -2    2.32    0.56
  -7  -7  -2    0.63    1.17
  -7  -7  -2   -1.19    1.54
  -7  -7  -2   -3.80    1.32
  -7  -7  -2   -0.38    1.08
  -7  -7  -2    0.71    1.59
  -7  -7  -2    0.36    1.44
   3  -8  -2   -1.58    1.75
   3  -8  -2   -2.90    2.26
   3  -8  -2   -2.55    2.19
   3  -8  -2    0.04    1.90
   3  -8  -2    0.44    1.55
   3  -8  -2    3.91    2.14
  -3   8   2   -0.14    1.57
  -3   8   2    0.35    1.94
  -3   8   2   -0.68    1.57
   2  -8  -2   76.66    3.93
   2  -8  -2   81.11    3.56
   2  -8  -2   75.16    3.89
   2  -8  -2   84.67    3.59
   2  -8  -2   79.35    3.72
   2  -8  -2   78.71    3.21
   2  -8  -2   85.33    3.18
   2  -8  -2   82.89    4.14
  -2   8   2   79.76    3.25
  -2   8   2   78.58    3.04
  -2   8   2   79.24    2.90
  -2   8   2   71.17    3.40
   1  -8  -2   43.11    2.77
   1  -8  -2   39.83    3.18
   1  -8  -2   44.09    2.94
   1  -8  -2   41.41    2.70
   1  -8  -2   44.66    2.74
   1  -8  -2   41.05    3.05
   1  -8  -2   36.03    2.34
   1  -8  -2   45.07    2.89
  -1   8   2   44.17    2.61
  -1   8   2   40.09    2.52
  -1   8   2   42.97    2.14
  -1   8   2   43.99    2.17
  -1   8   2   45.88    2.55
  -1   8   2   43.77    2.32
   0  -8  -2    0.05    1.39
   0  -8  -2    0.96    1.38
   0  -8  -2   -0.66    1.35
   0  -8  -2    1.09    1.40
   0  -8  -2    1.71    1.24
   0  -8  -2   -1.63    1.52
   0  -8  -2   -0.30    1.11
   0   8   2   -0.02    0.93
   0   8   2    1.87    0.84
   0   8   2    0.89    1.13
   0   8   2    1.72    1.05
   0   8   2    1.20    0.91
   0   8   2   -0.18    1.03
  -1  -8  -2    4.02    1.26
  -1  -8  -2    0.34    1.22
  -1  -8  -2    1.04    1.42
  -1  -8  -2    2.95    1.25
  -1  -8  -2    1.63    1.02
  -1  -8  -2    0.64    0.93
  -1  -8  -2    1.41    1.23
  -1  -8  -2    2.65    1.08
   1   8   2    1.66    0.98
   1   8   2    3.08    1.00
   1   8   2    2.00    0.86
   1   8   2    1.45    0.66
   1   8   2    2.14    0.70
   1   8   2    0.93    0.94
  -2  -8  -2    1.94    1.16
  -2  -8  -2    1.01    0.99
  -2  -8  -2    2.25    1.40
  -2  -8  -2    1.57    1.04
  -2  -8  -2    0.60    0.88
  -2  -8  -2    2.52    1.18
  -2  -8  -2    3.29    0.95
  -2  -8  -2    1.71    1.36
   2   8   2    2.19    0.57
   2   8   2    2.30    0.67
   2   8   2    2.68    0.94
   2   8   2    2.24    0.50
   2   8   2    2.06    0.45
  -3  -8  -2   14.24    1.18
  -3  -8  -2   15.63    1.05
  -3  -8  -2   14.22    1.14
  -3  -8  -2   12.91    1.19
  -3  -8  -2   15.90    1.34
  -3  -8  -2   12.95    1.62
  -3  -8  -2   17.86    1.38
  -4  -8  -2    0.45    1.09
  -4  -8  -2    0.83    1.05
  -4  -8  -2    2.07    1.15
  -4  -8  -2    1.80    0.98
  -4  -8  -2    0.81    1.49
  -4  -8  -2    0.45    0.60
  -4  -8  -2    0.37    0.85
  -4  -8  -2    1.09    0.74
  -4  -8  -2    0.29    0.57
  -5  -8  -2    1.10    1.04
  -5  -8  -2    1.75    0.88
  -5  -8  -2    2.56    0.83
  -5  -8  -2    3.34    1.63
  -5  -8  -2    1.01    1.20
  -5  -8  -2    2.14    0.85
  -5  -8  -2    0.99    1.21
  -5  -8  -2    1.17    0.98
  -6  -8  -2   17.45    1.47
  -6  -8  -2   15.64    1.54
  -6  -8  -2   13.79    1.17
  -6  -8  -2   16.85    1.47
  -6  -8  -2   13.42    1.07
  -6  -8  -2   12.19    1.60
  -6  -8  -2   14.74    1.92
  -6  -8  -2   14.97    1.19
  -6  -8  -2   11.81    1.48
   1  -9  -2    9.66    2.07
   1  -9  -2    9.10    2.10
   1  -9  -2    8.28    2.12
   1  -9  -2   11.10    2.25
  -1   9   2    9.49    2.14
   0  -9  -2   15.29    2.26
   0  -9  -2   17.08    2.13
   0  -9  -2   18.40    2.22
   0  -9  -2   16.09    1.86
   0  -9  -2   17.33    1.98
   0  -9  -2   15.55    2.27
   0   9   2   12.91    1.65
   0   9   2   16.22    1.72
   0   9   2   16.09    1.60
   0   9   2   19.78    1.76
   0   9   2   18.41    1.45
  -1  -9  -2   -2.27    1.85
  -1  -9  -2    2.09    1.72
  -1  -9  -2    2.89    1.79
  -1  -9  -2    1.81    1.59
  -1  -9  -2    1.80    1.51
  -1  -9  -2    0.13    1.44
  -1  -9  -2    0.72    1.86
  -1  -9  -2    1.77    1.88
   1   9   2    1.65    1.08
   1   9   2    0.67    1.35
   1   9   2    2.49    1.27
   1   9   2    0.78    0.83
   1   9   2    0.74    0.89
   1   9   2    3.53    1.31
  -2  -9  -2    0.25    1.32
  -2  -9  -2    1.21    1.45
  -2  -9  -2   -2.36    1.83
  -2  -9  -2    1.46    1.72
  -2  -9  -2    0.42    1.70
  -2  -9  -2    1.43    1.34
  -2  -9  -2    0.29    1.45
  -2  -9  -2   -1.07    1.64
   2   9   2    0.13    1.26
   2   9   2   -0.09    0.57
   2   9   2   -0.08    0.77
  -3  -9  -2    6.76    2.21
  -3  -9  -2    5.70    1.36
  -3  -9  -2    8.67    1.35
  -3  -9  -2    8.22    1.48
  -3  -9  -2    8.19    1.69
  -3  -9  -2    7.19    1.64
  -3  -9  -2    9.09    2.10
  -4  -9  -2    0.40    1.11
  -4  -9  -2    2.45    1.52
  -4  -9  -2    1.61    1.51
  -4  -9  -2    0.14    1.61
   4   8  -3   15.37    1.13
   4   8  -3   13.27    1.07
   4   8  -3   12.79    1.33
   4   8  -3   13.70    0.97
  -4  -8   3   12.72    1.55
  -4  -8   3   17.23    2.40
  -4  -8   3   13.43    1.42
  -4  -8   3   14.29    1.14
  -4  -8   3   15.58    1.06
   3   8  -3    0.56    1.43
   3   8  -3    0.42    1.18
   3   8  -3    1.18    0.92
   3   8  -3    0.08    0.96
  -3  -8   3    0.94    1.66
  -3  -8   3    0.92    1.23
  -3  -8   3    0.25    0.67
  -3  -8   3   -0.33    1.18
  -3  -8   3   -1.32    1.30
  -3  -8   3   -0.46    1.49
  -3  -8   3    1.14    1.35
  -3  -8   3    1.25    1.13
   2   8  -3   20.08    1.68
   2   8  -3   21.76    1.79
   2   8  -3   18.77    1.61
   2   8  -3   17.48    1.67
   2   8  -3   18.84    1.25
  -2  -8   3   17.52    1.80
  -2  -8   3   17.39    1.55
  -2  -8   3   17.55    1.43
  -2  -8   3   17.43    1.65
  -2  -8   3   20.71    1.66
  -2  -8   3   18.06    1.86
  -2  -8   3   18.04    1.50
   1   8  -3    1.37    1.50
   1   8  -3    3.43    1.31
   1   8  -3    2.51    0.90
   1   8  -3    1.24    1.07
   1   8  -3    3.44    1.56
   1   8  -3    1.84    1.11
  -1  -8   3    2.18    1.34
  -1  -8   3    3.56    1.45
  -1  -8   3    0.88    1.73
  -1  -8   3    1.90    1.40
  -1  -8   3    1.18    1.48
  -1  -8   3    0.68    1.12
  -1  -8   3    1.59    1.19
   0   8  -3   -1.23    1.65
   0   8  -3    1.78    1.64
   0   8  -3    2.06    0.96
   0   8  -3    0.69    1.20
   0   8  -3    1.49    1.29
   0   8  -3   -0.02    1.16
   0  -8   3   -0.24    1.60
   0  -8   3    0.57    1.49
   0  -8   3    3.09    1.88
   0  -8   3    2.89    1.56
   0  -8   3   -0.75    1.39
   0  -8   3   -0.19    1.51
   0  -8   3    3.07    1.42
  -1   8  -3    7.45    1.44
  -1   8  -3    6.37    1.43
  -1   8  -3    5.96    1.99
  -1   8  -3    5.74    1.26
   1  -8   3    7.13    1.70
   1  -8   3    6.32    1.68
   1  -8   3    7.30    2.22
   1  -8   3    9.78    1.83
   1  -8   3    8.30    1.88
   1  -8   3    5.61    1.63
   1  -8   3    8.74    1.93
  -2   8  -3   -3.19    2.02
  -2   8  -3    1.74    3.13
  -2   8  -3    1.52    1.75
  -2   8  -3    0.76    1.58
   2  -8   3   -4.03    1.97
   2  -8   3    0.22    2.11
   2  -8   3    2.13    2.06
   2  -8   3    1.04    1.69
   2  -8   3   -0.34    1.30
   2  -8   3    0.51    1.93
  -6  -7   3    1.17    1.74
  -6  -7   3    2.68    1.41
  -6  -7   3    0.88    1.35
  -5  -7   3    3.78    1.21
  -5  -7   3    2.60    1.13
  -5  -7   3    3.08    1.55
  -5  -7   3    4.77    1.08
  -5  -7   3    3.16    0.98
  -5  -7   3    2.85    1.00
  -5  -7   3    2.33    1.29
   4   7  -3   10.11    1.16
   4   7  -3    9.14    1.01
   4   7  -3   11.51    0.89
   4   7  -3   11.65    0.88
  -4  -7   3    9.93    0.86
  -4  -7   3   12.07    1.27
  -4  -7   3    8.14    0.96
  -4  -7   3   11.45    1.47
  -4  -7   3   10.54    1.24
  -4  -7   3    9.81    1.12
  -4  -7   3    8.70    1.26
  -4  -7   3   10.41    0.78
   3   7  -3   20.98    1.72
   3   7  -3   20.10    1.31
   3   7  -3   20.57    1.32
   3   7  -3   22.70    1.40
   3   7  -3   22.53    1.39
  -3  -7   3   21.23    1.35
  -3  -7   3   20.92    1.46
  -3  -7   3   22.33    1.45
  -3  -7   3   16.35    1.22
  -3  -7   3   19.51    1.06
  -3  -7   3   21.24    1.60
  -3  -7   3   21.82    1.93
  -3  -7   3   19.10    1.70
   2   7  -3   13.06    1.02
   2   7  -3   12.84    0.93
   2   7  -3   12.20    1.22
   2   7  -3   13.53    1.30
   2   7  -3   13.61    0.91
  -2  -7   3   11.73    1.10
  -2  -7   3   12.66    1.19
  -2  -7   3   14.13    1.34
  -2  -7   3   13.43    0.81
  -2  -7   3   13.02    1.21
  -2  -7   3   13.03    1.08
  -2  -7   3   12.77    1.28
  -2  -7   3   12.53    1.04
   1   7  -3   -0.09    0.62
   1   7  -3   -1.28    1.06
   1   7  -3   -0.67    0.89
   1   7  -3    0.18    1.19
   1   7  -3    0.09    0.81
   1   7  -3    0.24    0.80
  -1  -7   3   -0.10    0.83
  -1  -7   3   -0.69    1.06
  -1  -7   3    0.62    0.38
  -1  -7   3    0.35    1.01
  -1  -7   3    0.85    1.05
  -1  -7   3    1.71    0.97
  -1  -7   3   -1.08    1.01
  -1  -7   3   -1.10    0.92
   0   7  -3    4.70    1.35
   0   7  -3    1.43    1.22
   0   7  -3    3.80    0.94
   0   7  -3    4.38    0.99
   0   7  -3    4.26    0.83
   0   7  -3    3.85    0.91
   0  -7   3    4.89    1.18
   0  -7   3    4.35    1.10
   0  -7   3    3.67    1.19
   0  -7   3    3.33    1.12
   0  -7   3    2.77    1.20
   0  -7   3    3.66    1.13
   0  -7   3    4.82    1.00
  -1   7  -3    0.69    0.92
  -1   7  -3   -1.04    1.35
  -1   7  -3    1.35    0.93
  -1   7  -3    0.09    1.36
  -1   7  -3    0.10    0.99
  -1   7  -3    0.06    1.02
   1  -7   3   -0.72    1.06
   1  -7   3   -1.15    1.17
   1  -7   3    1.13    1.19
   1  -7   3   -1.43    1.20
   1  -7   3   -0.49    1.17
   1  -7   3    0.82    1.20
   1  -7   3    0.54    1.12
  -2   7  -3   -0.84    1.57
  -2   7  -3    0.21    1.20
  -2   7  -3    0.52    1.21
  -2   7  -3   -3.48    1.38
  -2   7  -3    0.74    1.06
  -2   7  -3    1.79    1.34
   2  -7   3    1.77    1.31
   2  -7   3   -0.18    1.38
   2  -7   3   -1.96    1.58
   2  -7   3   -0.29    1.17
   2  -7   3    1.80    1.40
   2  -7   3    3.16    1.40
   2  -7   3   -1.01    1.42
  -3   7  -3    9.54    2.19
  -3   7  -3    9.37    1.56
  -3   7  -3    4.58    1.35
  -3   7  -3    5.64    1.65
  -3   7  -3    6.06    2.00
  -3   7  -3    5.12    1.57
   3  -7   3    6.85    1.37
   3  -7   3    5.25    2.12
   3  -7   3    8.37    1.38
   3  -7   3    8.61    1.95
   3  -7   3    5.38    1.77
   3  -7   3    5.42    1.48
   3  -7   3    8.30    2.00
   3  -7   3    3.35    1.69
  -4   7  -3    1.34    2.07
  -4   7  -3    4.42    1.96
  -4   7  -3    0.16    2.09
  -4   7  -3    1.65    2.06
  -4   7  -3    1.69    2.33
   4  -7   3    1.98    1.40
   4  -7   3    0.87    2.06
   4  -7   3    1.80    2.27
   4  -7   3    4.78    1.31
   4  -7   3   -1.74    2.46
   4  -7   3   -0.06    2.05
   4  -7   3   -1.42    2.66
  -7  -6   3   -1.50    1.53
  -7  -6   3   -0.18    1.53
  -7  -6   3   -0.66    1.63
  -6  -6   3   17.82    1.17
  -6  -6   3   21.78    1.73
  -6  -6   3   17.64    1.58
  -6  -6   3   21.59    1.71
  -6  -6   3   19.48    1.26
  -6  -6   3   20.61    1.49
  -6  -6   3   15.03    1.44
   5   6  -3   51.38    1.66
   5   6  -3   51.63    1.86
   5   6  -3   51.05    1.61
   5   6  -3   49.58    2.82
   5   6  -3   50.27    1.74
  -5  -6   3   51.58    2.21
  -5  -6   3   51.38    1.75
  -5  -6   3   50.13    1.99
  -5  -6   3   48.49    2.05
  -5  -6   3   49.59    1.98
  -5  -6   3   46.96    1.82
  -5  -6   3   54.10    2.42
   4   6  -3   -0.16    0.61
   4   6  -3   -0.12    0.88
   4   6  -3   -0.24    1.10
   4   6  -3   -0.61    0.72
   4   6  -3    0.03    0.67
  -4  -6   3    0.25    0.80
  -4  -6   3   -0.06    0.68
  -4  -6   3   -0.39    0.81
  -4  -6   3   -0.50    0.96
  -4  -6   3   -0.07    0.80
  -4  -6   3    0.04    0.64
  -4  -6   3    0.37    0.66
   3   6  -3    1.52    0.90
   3   6  -3    1.60    0.61
   3   6  -3    2.69    0.92
   3   6  -3    1.64    0.78
   3   6  -3    2.30    0.59
  -3  -6   3    2.85    0.78
  -3  -6   3    2.80    0.59
  -3  -6   3    2.80    0.92
  -3  -6   3    2.35    0.65
  -3  -6   3    2.51    0.77
  -3  -6   3    2.42    0.72
  -3  -6   3    3.48    0.55
  -3  -6   3    2.19    0.70
   2   6  -3  184.26    4.37
   2   6  -3  190.09    4.08
   2   6  -3  192.76    4.16
   2   6  -3  193.10    4.38
   2   6  -3  188.14    4.18
  -2  -6   3  189.86    4.23
  -2  -6   3  190.87    4.28
  -2  -6   3  186.75    4.18
  -2  -6   3  190.06    4.33
  -2  -6   3  183.46    3.95
  -2  -6   3  188.30    4.43
  -2  -6   3  186.37    4.32
  -2  -6   3  190.17    4.45
   1   6  -3    3.57    0.73
   1   6  -3    4.21    0.67
   1   6  -3    4.11    0.66
   1   6  -3    3.24    0.53
   1   6  -3    4.32    1.00
   1   6  -3    2.55    0.89
   1   6  -3    4.07    0.67
  -1  -6   3    3.25    0.82
  -1  -6   3    5.17    0.84
  -1  -6   3    2.44    0.70
  -1  -6   3    3.69    0.39
  -1  -6   3    4.39    0.77
  -1  -6   3    2.50    0.85
  -1  -6   3    3.78    0.79
  -1  -6   3    2.58    0.75
   0   6  -3   32.09    1.36
   0   6  -3   31.29    1.05
   0   6  -3   31.85    1.50
   0   6  -3   32.63    1.47
   0   6  -3   27.92    1.88
   0  -6   3   30.34    1.86
   0  -6   3   34.12    1.68
   0  -6   3   29.29    1.63
   0  -6   3   31.34    0.92
   0  -6   3   30.44    1.45
   0  -6   3   31.63    1.84
   0  -6   3   35.18    1.64
  -1   6  -3   37.91    2.09
  -1   6  -3   37.19    1.79
  -1   6  -3   37.96    1.66
  -1   6  -3   37.39    1.59
  -1   6  -3   40.39    1.77
  -1   6  -3   36.50    2.16
   1  -6   3   36.33    1.87
   1  -6   3   39.20    1.95
   1  -6   3   35.06    2.13
   1  -6   3   38.00    1.71
   1  -6   3   39.12    2.23
  -2   6  -3    4.51    0.83
  -2   6  -3    3.84    0.99
  -2   6  -3    6.02    0.43
  -2   6  -3    6.68    1.21
  -2   6  -3    5.50    1.25
  -2   6  -3    4.91    0.95
  -2   6  -3    6.86    0.96
   2  -6   3    7.70    0.97
   2  -6   3    8.75    1.21
   2  -6   3    5.66    0.98
   2  -6   3    5.42    1.10
   2  -6   3    7.27    1.25
   2  -6   3    6.51    1.15
   2  -6   3    7.18    1.32
  -3   6  -3    2.11    1.13
  -3   6  -3    4.99    1.57
  -3   6  -3    3.28    0.46
  -3   6  -3    1.21    1.23
  -3   6  -3    2.05    1.44
  -3   6  -3    3.39    1.04
  -3   6  -3    3.55    1.13
  -3   6  -3    2.62    0.66
   3  -6   3    2.89    1.07
   3  -6   3    3.63    1.27
   3  -6   3    3.41    1.20
   3  -6   3    1.94    1.15
   3  -6   3    2.99    1.31
   3  -6   3    0.85    1.28
   3  -6   3    3.06    0.95
  -4   6  -3    4.85    1.23
  -4   6  -3    4.14    0.59
  -4   6  -3    3.48    1.51
  -4   6  -3    1.80    1.70
  -4   6  -3    5.33    1.23
  -4   6  -3    3.48    1.42
  -4   6  -3    4.60    1.49
  -4   6  -3    4.26    0.89
   4  -6   3    6.40    1.08
   4  -6   3    3.48    1.62
   4  -6   3    4.79    1.03
   4  -6   3    5.67    1.41
   4  -6   3    5.31    1.39
   4  -6   3    6.49    1.71
   4  -6   3    2.18    1.50
   4  -6   3    2.79    1.70
  -5   6  -3    1.26    1.07
  -5   6  -3    5.16    2.24
  -5   6  -3    2.27    2.20
  -5   6  -3    3.71    2.27
  -5   6  -3    1.46    0.80
  -5   6  -3    1.42    1.58
  -5   6  -3    0.50    1.54
  -5   6  -3    1.34    1.44
   5  -6   3    1.73    0.97
   5  -6   3    2.44    1.96
   5  -6   3    0.93    2.07
   5  -6   3    2.21    1.58
   5  -6   3   -0.50    1.92
   5  -6   3    2.36    1.02
   5  -6   3   -1.03    1.87
   5  -6   3    1.69    2.07
  -7  -5   3    0.98    1.34
  -7  -5   3    1.30    1.28
  -7  -5   3    0.56    0.94
  -7  -5   3    0.76    1.17
  -7  -5   3    0.02    1.34
  -7  -5   3   -0.42    1.47
  -7  -5   3    0.61    0.94
   6   5  -3   19.75    1.37
   6   5  -3   20.05    1.87
   6   5  -3   18.24    1.23
   6   5  -3   19.56    1.63
   6   5  -3   19.23    1.51
   6   5  -3   18.94    1.20
  -6  -5   3   21.43    1.84
  -6  -5   3   18.49    1.32
  -6  -5   3   19.05    1.41
  -6  -5   3   19.38    1.36
  -6  -5   3   21.27    1.47
  -6  -5   3   19.61    1.33
  -6  -5   3   20.38    1.49
   5   5  -3  422.73    9.12
   5   5  -3  440.55    9.19
   5   5  -3  420.59    8.69
   5   5  -3  421.53    8.71
   5   5  -3  419.96    8.71
   5   5  -3  420.69    8.69
  -5  -5   3  424.79    8.73
  -5  -5   3  421.67    8.75
  -5  -5   3  440.99    8.99
  -5  -5   3  418.93    8.82
  -5  -5   3  426.10    8.94
  -5  -5   3  416.74    8.87
   4   5  -3   25.35    1.33
   4   5  -3   26.87    1.80
   4   5  -3   27.01    1.18
   4   5  -3   27.03    1.72
   4   5  -3   26.00    1.30
   4   5  -3   27.67    1.19
  -4  -5   3   23.97    1.15
  -4  -5   3   27.43    1.40
  -4  -5   3   27.12    1.26
  -4  -5   3   26.97    1.30
  -4  -5   3   26.62    1.56
  -4  -5   3   28.34    1.17
  -4  -5   3   26.55    1.26
   3   5  -3   49.36    1.41
   3   5  -3   50.72    1.47
   3   5  -3   47.95    1.89
   3   5  -3   48.69    1.80
   3   5  -3   49.37    1.67
   3   5  -3   52.68    1.68
  -3  -5   3   51.27    1.64
  -3  -5   3   51.87    1.44
  -3  -5   3   49.50    1.49
  -3  -5   3   45.79    2.06
  -3  -5   3   49.79    1.63
  -3  -5   3   51.62    1.67
  -3  -5   3   49.31    1.30
   2   5  -3   10.06    0.81
   2   5  -3   11.01    0.80
   2   5  -3   10.23    0.81
   2   5  -3   12.26    0.79
   2   5  -3   10.58    0.83
   2   5  -3    9.85    0.73
   2   5  -3   10.30    0.98
  -2  -5   3   11.37    0.74
  -2  -5   3   11.80    0.70
  -2  -5   3   10.92    0.76
  -2  -5   3    9.88    0.65
  -2  -5   3    9.98    0.80
  -2  -5   3    9.27    0.82
  -2  -5   3   10.51    0.98
  -2  -5   3   10.55    0.72
   1   5  -3    6.39    0.62
   1   5  -3    7.97    0.86
   1   5  -3    9.63    0.74
   1   5  -3    8.07    0.63
   1   5  -3    7.94    0.62
   1   5  -3    8.69    0.61
   1   5  -3    7.96    0.78
  -1  -5   3   10.01    0.74
  -1  -5   3    7.08    0.68
  -1  -5   3    9.03    0.80
  -1  -5   3    8.17    0.54
  -1  -5   3    8.07    0.69
  -1  -5   3    9.15    0.71
  -1  -5   3    9.66    0.78
  -1  -5   3    7.02    0.73
   0   5  -3    2.97    0.77
   0   5  -3    2.87    0.41
   0   5  -3    2.98    0.59
   0   5  -3    2.67    0.48
   0   5  -3    2.14    0.56
   0   5  -3    3.43    0.59
   0   5  -3    2.84    0.76
   0  -5   3    2.73    0.75
   0  -5   3    3.29    0.65
   0  -5   3    3.13    0.34
   0  -5   3    2.92    0.69
   0  -5   3    2.54    0.60
   0  -5   3    2.90    0.53
   0  -5   3    2.30    0.63
   0  -5   3    2.01    0.62
  -1   5  -3   37.51    1.00
  -1   5  -3   39.82    1.51
  -1   5  -3   38.68    1.84
  -1   5  -3   37.49    1.39
  -1   5  -3   38.11    1.55
  -1   5  -3   36.70    1.71
  -1   5  -3   37.94    1.42
   1  -5   3   38.20    1.62
   1  -5   3   39.20    1.81
   1  -5   3   39.97    1.57
   1  -5   3   35.39    1.59
   1  -5   3   38.77    1.47
   1  -5   3   37.00    1.65
   1  -5   3   37.17    1.42
  -2   5  -3   -0.52    0.91
  -2   5  -3   -0.32    0.93
  -2   5  -3    0.08    0.62
  -2   5  -3   -0.14    0.74
  -2   5  -3   -0.13    0.33
  -2   5  -3   -0.60    0.70
  -2   5  -3    0.53    0.67
   2  -5   3   -0.66    0.61
   2  -5   3    0.66    0.75
   2  -5   3   -0.21    0.82
   2  -5   3   -0.20    0.92
   2  -5   3   -0.06    0.67
   2  -5   3    0.76    0.77
   2  -5   3    0.23    0.79
  -3   5  -3   68.48    2.33
  -3   5  -3   70.62    1.92
  -3   5  -3   71.96    2.66
  -3   5  -3   67.91    2.69
  -3   5  -3   69.35    1.67
  -3   5  -3   71.11    2.52
  -3   5  -3   71.32    2.31
  -3   5  -3   70.10    2.15
   3  -5   3   72.94    2.53
   3  -5   3   70.29    2.50
   3  -5   3   72.75    2.46
   3  -5   3   67.29    2.25
   3  -5   3   70.14    2.82
   3  -5   3   72.15    2.65
   3  -5   3   73.44    2.03
  -4   5  -3   85.73    3.24
  -4   5  -3   84.48    2.60
  -4   5  -3   78.22    2.79
  -4   5  -3   81.62    2.34
  -4   5  -3   87.14    3.20
  -4   5  -3   83.19    2.05
  -4   5  -3   81.55    2.75
  -4   5  -3   81.11    3.34
   4  -5   3   83.44    2.69
   4  -5   3   84.04    2.24
   4  -5   3   88.56    2.97
   4  -5   3   84.10    3.00
   4  -5   3   82.24    2.87
   4  -5   3   83.09    2.27
   4  -5   3   80.58    3.19
   4  -5   3   90.47    3.25
  -5   5  -3   18.07    1.65
  -5   5  -3   14.26    1.39
  -5   5  -3   15.74    1.99
  -5   5  -3   14.59    1.21
  -5   5  -3   15.86    1.00
  -5   5  -3   14.25    1.91
  -5   5  -3   14.47    1.55
  -5   5  -3   12.23    1.52
   5  -5   3   16.17    1.77
   5  -5   3   10.78    2.70
   5  -5   3   14.48    1.69
   5  -5   3   16.66    1.19
   5  -5   3   11.71    1.30
   5  -5   3   12.86    1.62
   5  -5   3   14.25    1.63
   5  -5   3   14.39    0.90
  -6   5  -3    4.24    2.06
  -6   5  -3    5.99    1.46
  -6   5  -3    6.73    2.14
  -6   5  -3    4.01    1.49
  -6   5  -3    3.45    1.65
  -6   5  -3    3.39    2.23
  -6   5  -3    4.43    1.37
  -6   5  -3    2.88    1.54
   6  -5   3    8.04    2.03
   6  -5   3    6.42    1.71
   6  -5   3    3.30    1.90
   6  -5   3    6.42    1.86
   6  -5   3    6.97    2.22
   6  -5   3    6.60    2.00
   8   4  -3    3.21    0.94
   8   4  -3    3.12    0.99
   8   4  -3    3.31    0.85
   8   4  -3    1.73    1.23
  -8  -4   3    1.33    1.31
  -8  -4   3    0.56    2.06
  -8  -4   3    1.44    2.07
   7   4  -3    6.97    1.32
   7   4  -3    6.31    1.10
   7   4  -3    5.46    0.88
   7   4  -3    3.05    0.88
   7   4  -3    4.83    0.80
  -7  -4   3    5.20    1.32
  -7  -4   3    4.62    1.09
  -7  -4   3    5.23    1.41
  -7  -4   3    4.97    1.01
  -7  -4   3    7.04    1.10
   6   4  -3  147.81    3.39
   6   4  -3  149.70    3.49
   6   4  -3  151.99    4.29
   6   4  -3  148.69    3.41
   6   4  -3  148.92    3.86
   6   4  -3  153.58    3.57
  -6  -4   3  148.79    3.54
  -6  -4   3  153.83    3.67
  -6  -4   3  151.51    3.84
  -6  -4   3  152.72    3.57
  -6  -4   3  150.04    3.41
  -6  -4   3  146.57    3.85
   5   4  -3   41.05    1.48
   5   4  -3   32.89    2.60
   5   4  -3   39.39    1.39
   5   4  -3   39.59    1.52
   5   4  -3   42.19    1.40
   5   4  -3   41.56    1.84
  -5  -4   3   40.46    1.33
  -5  -4   3   39.42    1.72
  -5  -4   3   38.31    1.71
  -5  -4   3   41.02    1.45
  -5  -4   3   41.17    1.59
  -5  -4   3   40.39    1.42
  -5  -4   3   38.69    1.86
   4   4  -3   70.58    1.83
   4   4  -3   70.60    2.12
   4   4  -3   70.15    1.84
   4   4  -3   66.59    1.84
   4   4  -3   71.56    2.24
  -4  -4   3   66.96    1.78
  -4  -4   3   64.81    2.42
  -4  -4   3   69.20    1.97
  -4  -4   3   71.85    1.94
  -4  -4   3   68.50    1.75
  -4  -4   3   69.55    1.84
  -4  -4   3   66.77    2.20
   3   4  -3  206.18    4.53
   3   4  -3  211.83    4.50
   3   4  -3  211.86    4.48
   3   4  -3  218.23    4.66
   3   4  -3  207.52    4.69
   3   4  -3  210.64    4.41
  -3  -4   3  208.95    4.54
  -3  -4   3  209.91    4.55
  -3  -4   3  211.24    4.53
  -3  -4   3  210.78    4.48
  -3  -4   3  211.07    4.61
  -3  -4   3  211.21    4.47
  -3  -4   3  210.46    4.45
   2   4  -3   35.19    1.25
   2   4  -3   35.47    0.94
   2   4  -3   36.30    1.24
   2   4  -3   35.32    1.22
   2   4  -3   35.66    1.05
   2   4  -3   35.56    1.10
   2   4  -3   33.85    1.32
  -2  -4   3   34.53    1.15
  -2  -4   3   34.12    0.98
  -2  -4   3   34.85    1.27
  -2  -4   3   33.82    1.12
  -2  -4   3   35.00    1.17
  -2  -4   3   34.12    1.11
  -2  -4   3   33.93    1.01
  -2  -4   3   35.15    1.19
   1   4  -3   22.98    0.93
   1   4  -3   23.60    1.12
   1   4  -3   24.18    0.88
   1   4  -3   24.19    0.87
   1   4  -3   25.51    1.16
   1   4  -3   21.69    1.33
   1   4  -3   24.88    0.85
   1   4  -3   23.84    0.96
  -1  -4   3   23.72    0.99
  -1  -4   3   24.27    1.05
  -1  -4   3   21.70    1.04
  -1  -4   3   24.32    1.04
  -1  -4   3   24.39    0.96
  -1  -4   3   23.86    0.73
  -1  -4   3   23.15    0.94
  -1  -4   3   23.78    0.89
   0   4  -3   17.93    0.81
   0   4  -3   17.66    1.08
   0   4  -3   18.03    0.92
   0   4  -3   18.92    0.86
   0   4  -3   19.04    0.90
   0   4  -3   16.18    0.66
   0   4  -3   18.30    1.00
   0   4  -3   18.27    1.12
   0  -4   3   18.50    0.60
   0  -4   3   16.58    0.82
   0  -4   3   17.56    0.90
   0  -4   3   19.02    0.97
   0  -4   3   18.41    0.97
   0  -4   3   18.25    1.01
   0  -4   3   18.38    0.93
   0  -4   3   17.94    1.02
  -1   4  -3    2.91    0.67
  -1   4  -3    2.59    0.29
  -1   4  -3    1.16    0.40
  -1   4  -3    1.72    0.49
  -1   4  -3    3.16    0.71
  -1   4  -3    2.60    0.55
  -1   4  -3    1.40    0.45
   1  -4   3    2.23    0.54
   1  -4   3    1.80    0.31
   1  -4   3    2.55    0.47
   1  -4   3    1.78    0.58
   1  -4   3    2.20    0.43
   1  -4   3    1.73    0.52
   1  -4   3    2.30    0.58
   1  -4   3    2.26    0.58
  -2   4  -3    0.83    0.29
  -2   4  -3    1.32    0.47
  -2   4  -3    0.85    0.70
  -2   4  -3    0.91    0.52
  -2   4  -3    0.95    0.57
  -2   4  -3    0.81    0.74
  -2   4  -3    1.55    0.59
   2  -4   3    0.16    0.61
   2  -4   3    0.70    0.68
   2  -4   3    0.74    0.94
   2  -4   3    1.44    0.59
   2  -4   3    0.79    0.60
   2  -4   3    1.06    0.52
   2  -4   3    0.87    0.47
  -3   4  -3   -0.60    0.74
  -3   4  -3    0.38    0.52
  -3   4  -3    0.36    0.86
  -3   4  -3   -0.32    0.61
  -3   4  -3   -0.48    0.77
  -3   4  -3   -0.35    0.67
  -3   4  -3   -0.05    0.37
   3  -4   3   -0.03    0.75
   3  -4   3   -0.80    0.75
   3  -4   3   -0.38    0.71
   3  -4   3   -0.47    0.67
   3  -4   3    0.99    0.77
   3  -4   3    0.17    0.46
   3  -4   3    0.14    0.56
  -4   4  -3  523.48   10.97
  -4   4  -3  507.44   10.77
  -4   4  -3  511.80   11.06
  -4   4  -3  513.77   10.62
  -4   4  -3  539.62   11.00
  -4   4  -3  507.05   10.84
  -4   4  -3  517.86   10.48
  -4   4  -3  513.53   10.70
   4  -4   3  507.60   11.03
   4  -4   3  515.81   10.44
   4  -4   3  517.29   10.86
   4  -4   3  509.59   10.46
   4  -4   3  513.17   10.76
   4  -4   3  526.06   10.89
   4  -4   3  530.80   11.01
  -5   4  -3   21.82    1.64
  -5   4  -3   19.33    1.35
  -5   4  -3   21.38    1.70
  -5   4  -3   22.17    1.50
  -5   4  -3   19.23    1.66
  -5   4  -3   20.07    1.67
  -5   4  -3   21.73    1.48
  -5   4  -3   21.77    1.71
   5  -4   3   17.88    1.36
   5  -4   3   16.55    1.38
   5  -4   3   21.33    1.68
   5  -4   3   19.77    1.45
   5  -4   3   20.84    1.59
   5  -4   3   19.83    0.90
   5  -4   3   20.03    0.89
  -6   4  -3   19.10    1.71
  -6   4  -3   20.70    1.94
  -6   4  -3   22.26    1.93
  -6   4  -3   22.60    2.02
  -6   4  -3   21.20    1.48
  -6   4  -3   24.18    1.61
  -6   4  -3   17.60    1.56
  -6   4  -3   20.44    1.37
   6  -4   3   19.02    1.74
   6  -4   3   23.24    1.84
   6  -4   3   18.65    1.71
   6  -4   3   20.14    1.60
   6  -4   3   16.74    1.80
   6  -4   3   24.42    1.70
  -7   4  -3  118.91    4.83
  -7   4  -3  116.47    3.87
  -7   4  -3  113.00    4.92
  -7   4  -3  113.42    3.95
  -7   4  -3  117.02    5.22
  -7   4  -3  117.43    3.59
  -7   4  -3  109.87    4.17
  -7   4  -3  110.61    4.23
   7  -4   3  119.74    4.20
   7  -4   3  117.94    4.54
   7  -4   3  111.00    4.36
   7  -4   3  116.33    4.51
   7  -4   3  107.66    4.00
   8   3  -3    6.12    1.00
   8   3  -3    4.89    1.48
   8   3  -3    6.03    1.26
   8   3  -3    5.07    1.45
   8   3  -3    6.06    1.04
  -8  -3   3    6.94    1.20
  -8  -3   3    6.39    1.72
  -8  -3   3    7.12    1.29
  -8  -3   3    4.13    1.21
  -8  -3   3    5.29    1.57
  -8  -3   3    8.26    1.82
   7   3  -3   23.55    1.83
   7   3  -3   20.91    1.68
   7   3  -3   21.40    1.35
   7   3  -3   19.16    1.41
   7   3  -3   19.13    1.35
  -7  -3   3   19.14    1.48
  -7  -3   3   21.59    1.59
  -7  -3   3   16.06    1.41
  -7  -3   3   20.00    1.52
  -7  -3   3   20.87    1.60
  -7  -3   3   22.25    1.82
   6   3  -3   11.57    1.47
   6   3  -3   10.23    1.02
   6   3  -3   13.12    0.82
   6   3  -3   10.50    0.95
   6   3  -3   10.31    1.06
   6   3  -3   13.61    1.08
  -6  -3   3   13.08    1.23
  -6  -3   3   13.37    0.95
  -6  -3   3   12.86    1.15
  -6  -3   3   11.68    0.81
  -6  -3   3   14.55    1.15
  -6  -3   3   12.83    0.93
   5   3  -3    0.07    0.50
   5   3  -3    0.40    0.52
   5   3  -3    0.61    0.65
   5   3  -3    1.47    0.94
   5   3  -3    0.32    0.59
   5   3  -3    0.36    0.67
  -5  -3   3    0.18    0.60
  -5  -3   3    0.01    0.50
  -5  -3   3    0.32    0.51
  -5  -3   3    0.79    0.93
  -5  -3   3    0.12    0.56
   4   3  -3   10.16    0.78
   4   3  -3   11.67    0.91
   4   3  -3   11.18    0.88
   4   3  -3    9.47    0.78
   4   3  -3   11.06    0.92
   4   3  -3   10.47    0.95
  -4  -3   3   10.24    0.75
  -4  -3   3    9.87    0.69
  -4  -3   3    9.06    0.82
  -4  -3   3   10.08    0.75
  -4  -3   3   10.45    0.77
   3   3  -3   12.86    0.75
   3   3  -3   12.73    1.02
   3   3  -3   12.92    0.75
   3   3  -3   13.23    0.74
   3   3  -3   12.61    0.74
  -3  -3   3   11.45    0.73
  -3  -3   3   13.41    0.82
  -3  -3   3   12.83    0.79
  -3  -3   3   12.86    0.67
  -3  -3   3   12.99    0.73
  -3  -3   3   12.60    0.67
  -3  -3   3   12.58    0.76
   2   3  -3  161.16    3.38
   2   3  -3  159.62    3.43
   2   3  -3  151.46    3.47
   2   3  -3  157.70    3.18
   2   3  -3  155.33    3.38
   2   3  -3  156.58    3.43
   2   3  -3  158.13    3.31
  -2  -3   3  155.20    3.43
  -2  -3   3  159.75    3.34
  -2  -3   3  154.41    3.19
  -2  -3   3  156.17    3.38
  -2  -3   3  154.82    3.41
  -2  -3   3  159.66    3.34
   1   3  -3   -0.02    0.28
   1   3  -3    0.40    0.25
   1   3  -3    0.12    0.25
   1   3  -3    0.14    0.30
   1   3  -3    0.34    0.38
   1   3  -3    0.52    0.37
  -1  -3   3    0.17    0.27
  -1  -3   3    0.03    0.27
  -1  -3   3    0.39    0.31
  -1  -3   3    0.08    0.25
  -1  -3   3    0.05    0.29
  -1  -3   3    0.48    0.32
  -1  -3   3    0.69    0.24
  -1  -3   3    0.47    0.33
   0   3  -3  115.25    2.66
   0   3  -3  118.37    2.62
   0   3  -3  115.53    2.71
   0   3  -3  114.59    2.64
   0   3  -3  113.95    2.54
   0   3  -3  116.69    2.57
   0   3  -3  117.63    2.46
   0   3  -3  116.96    2.56
   0  -3   3  120.94    2.61
   0  -3   3  113.28    2.67
   0  -3   3  116.55    2.58
   0  -3   3  115.39    2.61
   0  -3   3  113.81    2.44
   0  -3   3  118.96    2.61
   0  -3   3  117.51    2.59
   0  -3   3  118.34    2.68
  -1   3  -3  803.09   15.92
  -1   3  -3  816.58   15.95
  -1   3  -3  792.66   15.83
  -1   3  -3  791.10   15.88
  -1   3  -3  774.79   15.69
  -1   3  -3  790.70   15.85
  -1   3  -3  801.22   15.85
  -1   3  -3  796.56   16.00
   1  -3   3  778.28   15.97
   1  -3   3  785.98   15.89
   1  -3   3  795.97   15.96
   1  -3   3  783.80   15.89
   1  -3   3  777.97   15.88
   1  -3   3  782.40   15.72
   1  -3   3  792.34   15.82
   1  -3   3  780.52   15.84
  -2   3  -3  232.23    5.05
  -2   3  -3  233.99    5.19
  -2   3  -3  238.13    4.80
  -2   3  -3  234.71    5.10
  -2   3  -3  231.68    4.95
  -2   3  -3  236.10    5.00
  -2   3  -3  238.56    5.13
   2  -3   3  231.91    5.11
   2  -3   3  232.55    4.98
   2  -3   3  237.02    5.05
   2  -3   3  235.92    5.05
   2  -3   3  234.73    4.88
   2  -3   3  238.16    5.06
  -3   3  -3    2.39    0.48
  -3   3  -3    1.75    0.59
  -3   3  -3    2.29    0.38
  -3   3  -3    1.44    0.64
  -3   3  -3    2.29    0.63
  -3   3  -3    1.66    0.52
  -3   3  -3    2.59    0.72
   3  -3   3    2.53    0.37
   3  -3   3    1.74    0.50
   3  -3   3    2.84    0.63
   3  -3   3    2.86    0.61
   3  -3   3    2.86    0.61
   3  -3   3    2.49    0.72
   3  -3   3    2.39    0.63
  -4   3  -3   40.25    1.30
  -4   3  -3   38.51    1.67
  -4   3  -3   40.26    1.57
  -4   3  -3   38.83    1.85
  -4   3  -3   39.74    1.46
  -4   3  -3   38.72    1.87
  -4   3  -3   42.79    1.87
   4  -3   3   43.37    1.61
   4  -3   3   40.76    1.73
   4  -3   3   38.74    1.48
   4  -3   3   38.18    1.10
   4  -3   3   39.14    1.83
   4  -3   3   41.72    1.69
   4  -3   3   40.37    1.06
   4  -3   3   39.22    1.68
  -5   3  -3    0.73    1.09
  -5   3  -3    1.45    0.97
  -5   3  -3   -0.15    0.79
  -5   3  -3    0.13    0.86
  -5   3  -3    1.10    1.11
  -5   3  -3    0.81    1.03
  -5   3  -3    0.42    0.72
  -5   3  -3    1.25    0.66
   5  -3   3    1.27    0.76
   5  -3   3   -0.47    0.94
   5  -3   3   -0.19    0.86
   5  -3   3    0.21    0.98
   5  -3   3    0.37    0.88
   5  -3   3   -1.41    0.82
  -6   3  -3   36.03    2.62
  -6   3  -3   36.59    2.15
  -6   3  -3   38.77    2.66
  -6   3  -3   37.08    2.01
  -6   3  -3   36.64    2.53
  -6   3  -3   39.56    2.21
  -6   3  -3   34.93    2.27
   6  -3   3   34.83    2.30
   6  -3   3   35.96    2.49
   6  -3   3   37.36    2.02
   6  -3   3   35.56    2.08
   6  -3   3   37.66    2.34
   6  -3   3   35.73    2.31
  -7   3  -3    7.08    1.41
  -7   3  -3   10.49    1.54
  -7   3  -3   11.25    2.11
  -7   3  -3   10.39    1.84
  -7   3  -3    7.18    1.61
  -7   3  -3   10.91    1.54
  -7   3  -3   12.93    1.87
  -7   3  -3   10.44    1.53
   7  -3   3   11.40    1.74
   7  -3   3   10.02    1.65
   7  -3   3    9.83    1.45
   7  -3   3   10.29    1.69
   7  -3   3   10.84    1.58
  -8   3  -3   32.75    2.57
  -8   3  -3   32.17    2.99
  -8   3  -3   38.89    3.03
  -8   3  -3   37.84    2.43
  -8   3  -3   41.17    2.92
  -8   3  -3   38.42    2.34
   8  -3   3   34.72    2.88
   8   2  -3   14.45    1.36
   8   2  -3   16.72    1.58
   8   2  -3   13.00    1.69
   8   2  -3   14.69    1.18
   8   2  -3   13.35    1.16
  -8  -2   3   12.19    1.36
  -8  -2   3   16.21    1.43
  -8  -2   3   12.63    1.74
  -8  -2   3   17.75    1.68
  -8  -2   3   14.20    1.81
  -8  -2   3   19.03    2.21
  -8  -2   3   13.78    1.16
   7   2  -3    8.29    1.11
   7   2  -3    8.65    0.88
   7   2  -3    8.32    1.28
   7   2  -3    8.92    1.07
   7   2  -3    8.74    0.87
   7   2  -3    7.76    1.64
  -7  -2   3    9.55    0.91
  -7  -2   3   10.19    1.11
  -7  -2   3    8.23    1.25
  -7  -2   3    7.66    1.26
  -7  -2   3   10.45    1.03
  -7  -2   3    6.94    1.05
   6   2  -3   17.47    1.11
   6   2  -3   17.29    1.12
   6   2  -3   16.94    1.44
   6   2  -3   17.82    1.48
   6   2  -3   18.85    1.18
   6   2  -3   16.51    1.33
  -6  -2   3   18.53    1.23
  -6  -2   3   17.90    1.32
  -6  -2   3   18.18    1.15
  -6  -2   3   18.80    1.38
  -6  -2   3   17.61    1.24
  -6  -2   3   18.22    1.55
   5   2  -3    5.34    0.65
   5   2  -3    5.03    0.70
   5   2  -3    4.55    0.56
   5   2  -3    4.82    0.53
   5   2  -3    4.17    0.74
   5   2  -3    5.08    0.94
  -5  -2   3    5.81    0.72
  -5  -2   3    3.81    0.73
  -5  -2   3    4.46    0.55
  -5  -2   3    4.95    0.62
  -5  -2   3    5.08    0.65
  -5  -2   3    5.36    0.59
   4   2  -3    2.35    0.53
   4   2  -3    2.54    0.43
   4   2  -3    1.58    0.45
   4   2  -3    2.57    0.69
   4   2  -3    2.83    0.41
   4   2  -3    2.29    0.49
  -4  -2   3    1.83    0.42
  -4  -2   3    1.58    0.51
  -4  -2   3    2.00    0.49
  -4  -2   3    1.66    0.41
  -4  -2   3    2.46    0.42
  -4  -2   3    2.03    0.45
   3   2  -3   69.76    1.72
   3   2  -3   69.62    1.63
   3   2  -3   67.35    1.66
   3   2  -3   67.91    1.73
   3   2  -3   65.99    1.66
   3   2  -3   69.31    1.83
  -3  -2   3   67.36    1.61
  -3  -2   3   69.12    1.69
  -3  -2   3   67.23    1.72
   2   2  -3    3.65    0.38
   2   2  -3    4.39    0.36
   2   2  -3    3.58    0.41
   2   2  -3    4.51    0.39
  -2  -2   3    4.53    0.32
  -2  -2   3    4.87    0.41
  -2  -2   3    3.33    0.38
  -2  -2   3    3.26    0.35
  -2  -2   3    3.76    0.32
  -2  -2   3    3.96    0.36
  -2  -2   3    4.01    0.33
   1   2  -3  390.82    7.78
   1   2  -3  387.27    7.83
   1   2  -3  394.24    7.79
   1   2  -3  393.64    7.83
   1   2  -3  391.24    7.76
   1   2  -3  375.60    7.67
  -1  -2   3  381.91    7.75
  -1  -2   3  381.83    7.76
  -1  -2   3  378.90    7.72
  -1  -2   3  376.21    7.80
  -1  -2   3  379.44    7.80
  -1  -2   3  384.91    7.82
  -1  -2   3  383.30    7.67
  -1  -2   3  378.24    7.76
   0   2  -3   82.46    1.94
   0   2  -3   81.36    1.88
   0   2  -3   84.06    1.91
   0   2  -3   81.96    1.77
   0   2  -3   81.27    1.82
   0   2  -3   81.67    1.83
   0   2  -3   84.86    1.89
   0   2  -3   82.76    1.83
   0  -2   3   81.57    1.85
   0  -2   3   85.39    1.86
   0  -2   3   81.13    1.91
   0  -2   3   81.91    1.87
   0  -2   3   84.56    1.98
   0  -2   3   81.08    1.82
   0  -2   3   82.94    1.77
   0  -2   3   81.78    1.83
  -1   2  -3    0.10    0.30
  -1   2  -3   -0.15    0.27
  -1   2  -3    0.04    0.25
  -1   2  -3    0.17    0.22
  -1   2  -3    0.16    0.32
  -1   2  -3    0.15    0.31
  -1   2  -3    0.56    0.18
  -1   2  -3   -0.18    0.24
   1  -2   3    0.07    0.31
   1  -2   3    0.02    0.20
   1  -2   3    0.15    0.27
   1  -2   3    0.08    0.28
   1  -2   3    0.15    0.27
   1  -2   3    0.19    0.30
   1  -2   3    0.53    0.23
   1  -2   3    0.07    0.23
  -2   2  -3   63.27    1.41
  -2   2  -3   60.97    1.41
  -2   2  -3   59.02    1.47
  -2   2  -3   58.15    1.58
  -2   2  -3   61.28    1.62
  -2   2  -3   59.95    1.64
  -2   2  -3   58.53    1.54
   2  -2   3   59.94    1.49
   2  -2   3   58.93    1.58
   2  -2   3   61.15    1.59
   2  -2   3   59.88    1.67
   2  -2   3   62.70    1.63
   2  -2   3   61.91    1.38
   2  -2   3   59.60    1.58
  -3   2  -3  342.96    7.00
  -3   2  -3  337.07    7.06
  -3   2  -3  346.05    7.28
  -3   2  -3  341.47    7.17
  -3   2  -3  343.75    7.20
  -3   2  -3  330.14    7.10
   3  -2   3  347.30    7.14
   3  -2   3  347.78    7.21
   3  -2   3  346.08    7.09
   3  -2   3  344.03    7.15
   3  -2   3  344.68    7.14
   3  -2   3  343.76    6.87
   3  -2   3  339.68    7.25
  -4   2  -3    4.83    0.55
  -4   2  -3    5.42    0.69
  -4   2  -3    4.86    0.55
  -4   2  -3    6.04    0.77
  -4   2  -3    4.96    0.77
  -4   2  -3    3.82    0.67
  -4   2  -3    4.51    0.64
   4  -2   3    4.44    0.66
   4  -2   3    5.28    0.70
   4  -2   3    5.16    0.61
   4  -2   3    4.16    0.66
   4  -2   3    4.72    0.64
   4  -2   3    4.14    0.68
  -5   2  -3   10.72    0.96
  -5   2  -3   14.23    1.15
  -5   2  -3   11.53    0.95
  -5   2  -3   11.60    1.09
  -5   2  -3   11.59    1.08
  -5   2  -3   10.03    0.83
  -5   2  -3   10.93    0.84
  -5   2  -3   10.32    0.92
   5  -2   3   10.49    0.88
   5  -2   3   10.36    0.85
   5  -2   3   10.97    0.90
   5  -2   3    7.91    0.89
   5  -2   3    9.75    0.93
   5  -2   3   10.11    0.99
  -6   2  -3    3.91    1.00
  -6   2  -3    1.82    1.09
  -6   2  -3    1.44    1.20
  -6   2  -3    2.11    1.11
  -6   2  -3    2.61    0.91
  -6   2  -3    2.12    0.92
  -6   2  -3    1.34    0.81
   6  -2   3    2.79    0.86
   6  -2   3    1.74    0.83
   6  -2   3    1.81    0.95
   6  -2   3    0.97    0.91
   6  -2   3    0.89    0.98
  -7   2  -3    9.15    1.61
  -7   2  -3    8.25    1.35
  -7   2  -3    9.27    1.34
  -7   2  -3    8.94    1.30
  -7   2  -3    7.52    1.28
  -7   2  -3    8.10    1.39
  -7   2  -3    8.11    1.43
  -7   2  -3    7.51    1.65
   7  -2   3    7.81    1.35
   7  -2   3    8.62    1.25
   7  -2   3    8.95    1.38
  -8   2  -3    7.02    2.02
  -8   2  -3    7.71    1.74
  -8   2  -3    7.98    2.22
  -8   2  -3    9.69    2.05
  -8   2  -3    7.76    1.68
  -8   2  -3    8.78    1.91
  -8   2  -3    6.62    1.72
  -8   2  -3    6.11    1.70
   8  -2   3    5.72    1.41
   8  -2   3   10.08    1.88
   8  -2   3    6.44    1.48
   8  -2   3    5.34    1.54
   8  -2   3    8.51    1.74
   8   1  -3   31.59    2.09
   8   1  -3   38.90    2.13
   8   1  -3   39.06    1.77
   8   1  -3   39.66    2.80
   8   1  -3   40.16    2.12
   8   1  -3   40.17    3.06
  -8  -1   3   38.10    2.90
  -8  -1   3   41.05    2.77
  -8  -1   3   39.45    2.99
  -8  -1   3   40.39    2.70
  -8  -1   3   45.50    3.74
  -8  -1   3   36.85    1.69
  -8  -1   3   43.27    1.80
  -8  -1   3   35.78    2.41
   7   1  -3    0.63    0.80
   7   1  -3    0.01    1.02
   7   1  -3    0.11    1.26
   7   1  -3    0.42    0.81
   7   1  -3   -0.18    0.67
   7   1  -3    0.41    0.88
  -7  -1   3    0.21    0.68
  -7  -1   3    0.67    1.06
  -7  -1   3    0.67    1.16
  -7  -1   3    0.16    0.58
  -7  -1   3    0.26    0.94
  -7  -1   3   -0.48    0.82
  -7  -1   3   -1.48    1.11
   6   1  -3    0.19    0.77
   6   1  -3    0.44    0.65
   6   1  -3    0.68    0.57
   6   1  -3    1.05    0.62
   6   1  -3    1.01    0.93
   6   1  -3    0.07    0.65
   6   1  -3    0.22    1.11
  -6  -1   3    1.17    0.71
  -6  -1   3    0.55    0.54
  -6  -1   3    0.99    0.66
  -6  -1   3    1.12    0.78
  -6  -1   3   -2.11    0.79
  -6  -1   3    0.45    0.44
  -6  -1   3    0.38    0.86
   5   1  -3    0.78    0.60
   5   1  -3    2.12    0.85
   5   1  -3    0.94    0.37
   5   1  -3   -0.22    0.70
   5   1  -3    0.88    0.51
   5   1  -3    0.93    0.50
   5   1  -3    0.55    0.49
  -5  -1   3    1.55    0.46
  -5  -1   3    0.81    0.57
  -5  -1   3    1.13    0.33
  -5  -1   3    0.99    0.55
  -5  -1   3    0.99    0.60
  -5  -1   3    1.03    0.55
  -5  -1   3    0.12    0.60
   4   1  -3   11.85    0.52
   4   1  -3    9.40    0.81
   4   1  -3   10.82    0.91
   4   1  -3   10.99    0.73
   4   1  -3   13.25    0.72
   4   1  -3   13.37    0.79
   4   1  -3   11.49    0.79
  -4  -1   3   11.97    0.47
  -4  -1   3   12.28    0.84
  -4  -1   3   12.69    0.94
  -4  -1   3   12.06    0.71
  -4  -1   3   12.62    0.82
  -4  -1   3   11.89    0.77
  -4  -1   3   12.02    0.87
   3   1  -3  406.77    8.45
   3   1  -3  412.05    8.54
   3   1  -3  417.60    8.46
   3   1  -3  410.46    8.43
  -3  -1   3  423.18    8.48
  -3  -1   3  419.44    8.42
  -3  -1   3  421.45    8.42
  -3  -1   3  406.61    8.46
  -3  -1   3  420.99    8.48
  -3  -1   3  413.50    8.43
   2   1  -3  269.48    5.56
   2   1  -3  267.13    5.52
   2   1  -3  272.07    5.49
   2   1  -3  273.52    5.57
   2   1  -3  269.31    5.51
   2   1  -3  274.13    5.55
  -2  -1   3  265.22    5.50
  -2  -1   3  265.01    5.48
  -2  -1   3  271.74    5.53
  -2  -1   3  268.46    5.51
  -2  -1   3  264.41    5.54
   1   1  -3   13.48    0.38
   1   1  -3   13.61    0.49
   1   1  -3   13.34    0.52
   1   1  -3   12.60    0.51
   1   1  -3   13.47    0.51
   1   1  -3   13.73    0.54
   1   1  -3   13.48    0.53
  -1  -1   3   13.87    0.47
  -1  -1   3   13.59    0.56
  -1  -1   3   14.59    0.52
  -1  -1   3   12.66    0.47
  -1  -1   3   13.27    0.52
  -1  -1   3   12.86    0.44
  -1  -1   3   13.59    0.51
   0   1  -3  138.83    2.89
   0   1  -3  143.08    3.04
   0   1  -3  140.51    2.95
   0   1  -3  145.39    2.94
   0   1  -3  139.82    2.92
   0   1  -3  140.58    2.90
   0   1  -3  141.74    2.99
   0   1  -3  142.90    2.91
   0  -1   3  139.02    2.97
   0  -1   3  142.60    2.93
   0  -1   3  139.19    2.89
   0  -1   3  138.97    2.93
   0  -1   3  141.03    2.94
   0  -1   3  141.77    2.90
   0  -1   3  140.33    2.98
   0  -1   3  139.22    2.90
  -1   1  -3   91.21    2.03
  -1   1  -3   89.19    1.94
  -1   1  -3   92.21    1.95
  -1   1  -3   93.09    2.03
  -1   1  -3   92.85    2.02
  -1   1  -3   90.28    1.94
  -1   1  -3   90.46    1.98
  -1   1  -3   91.02    2.06
   1  -1   3   90.97    1.95
   1  -1   3   90.28    2.05
   1  -1   3   89.85    2.03
   1  -1   3   94.46    1.94
   1  -1   3   90.74    2.00
   1  -1   3   91.80    1.96
   1  -1   3   93.34    2.01
   1  -1   3   92.68    2.01
  -2   1  -3   34.96    0.93
  -2   1  -3   36.52    1.05
  -2   1  -3   34.59    0.98
  -2   1  -3   35.91    1.05
  -2   1  -3   34.82    0.93
  -2   1  -3   35.28    0.84
  -2   1  -3   35.72    1.08
   2  -1   3   38.37    0.83
   2  -1   3   36.54    1.01
   2  -1   3   36.24    1.03
   2  -1   3   36.19    1.03
   2  -1   3   35.50    0.94
   2  -1   3   34.99    1.08
   2  -1   3   35.38    1.00
   2  -1   3   36.90    0.98
  -3   1  -3   69.63    1.72
  -3   1  -3   69.90    1.81
  -3   1  -3   71.51    1.82
  -3   1  -3   70.46    1.69
  -3   1  -3   68.13    1.83
  -3   1  -3   70.97    1.68
  -3   1  -3   70.96    1.79
   3  -1   3   70.57    1.69
   3  -1   3   67.83    1.83
   3  -1   3   71.83    1.77
   3  -1   3   69.62    1.74
   3  -1   3   70.65    1.77
   3  -1   3   71.02    1.74
  -4   1  -3  138.89    3.08
  -4   1  -3  137.21    3.10
  -4   1  -3  139.59    3.20
  -4   1  -3  138.82    3.25
  -4   1  -3  137.74    3.22
  -4   1  -3  134.58    3.10
  -4   1  -3  142.80    3.22
   4  -1   3  136.25    3.16
   4  -1   3  134.80    3.13
   4  -1   3  140.81    3.24
   4  -1   3  141.66    3.11
   4  -1   3  136.60    3.11
   4  -1   3  127.05    3.38
  -5   1  -3   19.98    1.44
  -5   1  -3   19.14    1.21
  -5   1  -3   21.13    1.27
  -5   1  -3   19.61    1.19
  -5   1  -3   18.96    1.47
  -5   1  -3   18.81    1.36
  -5   1  -3   19.33    1.12
  -5   1  -3   20.42    1.39
   5  -1   3   19.62    1.09
   5  -1   3   18.89    1.33
   5  -1   3   18.06    1.23
   5  -1   3   18.61    1.20
  -6   1  -3    0.90    0.74
  -6   1  -3    0.86    0.78
  -6   1  -3    2.26    1.00
  -6   1  -3    1.03    0.89
  -6   1  -3    1.11    1.17
   6  -1   3   -0.78    0.79
   6  -1   3    1.06    0.71
   6  -1   3    1.07    0.93
   6  -1   3   -0.20    0.68
   6  -1   3    0.51    0.73
  -7   1  -3    1.17    1.06
  -7   1  -3   -0.60    1.18
  -7   1  -3   -0.34    0.99
  -7   1  -3   -0.95    0.99
  -7   1  -3   -0.60    1.24
  -7   1  -3    0.04    1.09
  -7   1  -3   -0.34    1.17
   7  -1   3   -0.68    0.91
   7  -1   3   -0.63    0.88
   7  -1   3   -1.22    0.84
   7  -1   3   -0.10    0.99
   7  -1   3   -1.44    1.01
  -8   1  -3   47.29    2.63
  -8   1  -3   42.62    3.31
  -8   1  -3   47.67    3.03
  -8   1  -3   44.19    3.25
  -8   1  -3   41.53    2.79
  -8   1  -3   45.28    3.18
  -8   1  -3   41.86    2.71
  -8   1  -3   47.00    2.99
   8  -1   3   41.06    2.32
   8  -1   3   46.31    2.71
   8  -1   3   45.42    2.48
   8  -1   3   42.12    2.70
   8  -1   3   45.46    2.41
   8   0  -3   73.74    3.44
   8   0  -3   71.27    3.66
   8   0  -3   67.94    2.84
   8   0  -3   71.53    2.56
   8   0  -3   70.67    2.63
   8   0  -3   71.22    2.38
  -8   0   3   74.40    4.41
  -8   0   3   62.25    3.26
  -8   0   3   71.82    3.02
  -8   0   3   71.16    3.23
  -8   0   3   70.63    2.39
  -8   0   3   73.14    2.28
  -8   0   3   71.33    3.30
  -8   0   3   73.93    3.28
   7   0  -3   20.61    1.56
   7   0  -3   20.78    1.65
   7   0  -3   19.77    1.56
   7   0  -3   19.54    1.33
   7   0  -3   19.93    1.70
  -7   0   3   19.67    1.41
  -7   0   3   20.06    1.40
  -7   0   3   19.94    1.34
  -7   0   3   21.77    1.37
  -7   0   3   18.09    1.33
  -7   0   3   20.88    1.73
  -7   0   3   20.44    1.37
  -7   0   3   21.54    1.51
   6   0  -3    4.35    0.71
   6   0  -3    3.12    0.82
   6   0  -3    3.08    1.26
   6   0  -3    3.38    0.62
   6   0  -3    1.67    1.09
   6   0  -3    4.51    1.33
  -6   0   3    4.09    1.15
  -6   0   3    3.62    0.85
  -6   0   3    4.05    0.86
  -6   0   3    3.00    0.78
  -6   0   3    3.48    0.59
  -6   0   3    3.69    0.87
  -6   0   3    3.86    0.88
  -6   0   3    4.09    0.64
   5   0  -3   59.00    2.07
   5   0  -3   61.50    1.63
   5   0  -3   59.47    1.80
   5   0  -3   62.45    1.66
   5   0  -3   62.84    2.14
   5   0  -3   59.44    2.12
   5   0  -3   60.80    1.72
  -5   0   3   61.68    1.89
  -5   0   3   63.72    1.61
  -5   0   3   59.74    1.86
  -5   0   3   61.16    1.88
  -5   0   3   60.56    1.91
  -5   0   3   63.44    1.91
  -5   0   3   61.28    1.59
   4   0  -3   19.49    0.81
   4   0  -3   19.50    1.21
   4   0  -3   19.96    0.79
   4   0  -3   17.72    1.15
   4   0  -3   18.85    0.86
   4   0  -3   18.88    1.18
   4   0  -3   19.09    0.91
  -4   0   3   18.52    0.96
  -4   0   3   19.39    1.00
  -4   0   3   19.20    0.98
  -4   0   3   19.15    0.73
  -4   0   3   18.14    0.99
  -4   0   3   18.97    0.98
  -4   0   3   20.10    0.78
   3   0  -3    2.85    0.47
   3   0  -3    2.30    0.45
   3   0  -3    2.47    0.34
   3   0  -3    2.31    0.35
   3   0  -3    2.12    0.46
   3   0  -3    2.30    0.30
   3   0  -3    2.24    0.30
  -3   0   3    2.72    0.40
  -3   0   3    2.09    0.35
  -3   0   3    2.08    0.36
  -3   0   3    2.09    0.32
  -3   0   3    2.62    0.39
  -3   0   3    2.35    0.28
  -3   0   3    3.07    0.40
   2   0  -3  436.26    8.76
   2   0  -3  449.44    8.78
   2   0  -3  431.56    8.69
   2   0  -3  425.59    8.82
   2   0  -3  430.89    8.81
  -2   0   3  435.82    8.77
  -2   0   3  432.12    8.75
  -2   0   3  434.13    8.78
  -2   0   3  448.28    8.77
  -2   0   3  438.29    8.83
  -2   0   3  424.90    8.67
  -2   0   3  434.13    8.79
   1   0  -3  128.34    2.78
   1   0  -3  123.52    2.64
   1   0  -3  129.15    2.64
   1   0  -3  122.37    2.57
   1   0  -3  125.20    2.63
   1   0  -3  121.94    2.67
   1   0  -3  124.04    2.64
  -1   0   3  122.56    2.62
  -1   0   3  124.32    2.59
  -1   0   3  126.31    2.64
  -1   0   3  125.42    2.67
  -1   0   3  126.95    2.62
  -1   0   3  128.90    2.64
   0   0  -3   75.31    1.64
   0   0  -3   76.05    1.61
   0   0  -3   74.79    1.61
   0   0  -3   71.99    1.59
   0   0  -3   74.43    1.59
   0   0  -3   73.74    1.58
   0   0  -3   74.31    1.63
   0   0   3   73.27    1.59
   0   0   3   73.46    1.64
   0   0   3   74.46    1.63
   0   0   3   76.96    1.60
   0   0   3   74.59    1.53
   0   0   3   77.55    1.61
  -1   0  -3   85.34    1.74
  -1   0  -3   84.55    1.79
  -1   0  -3   83.88    1.77
  -1   0  -3   82.63    1.80
  -1   0  -3   83.08    1.80
  -1   0  -3   81.31    1.75
  -1   0  -3   81.98    1.71
  -1   0  -3   82.45    1.77
   1   0   3   80.41    1.83
   1   0   3   83.52    1.79
   1   0   3   83.58    1.78
   1   0   3   82.96    1.71
   1   0   3   83.76    1.74
   1   0   3   81.09    1.76
  -2   0  -3  137.50    2.84
  -2   0  -3  137.13    2.88
  -2   0  -3  121.68    2.92
  -2   0  -3  137.33    2.90
  -2   0  -3  140.96    2.77
  -2   0  -3  134.55    2.88
   2   0   3  140.93    2.77
   2   0   3  140.15    2.85
   2   0   3  127.63    2.91
   2   0   3  136.26    2.84
   2   0   3  139.53    2.91
   2   0   3  140.89    2.91
   2   0   3  138.16    2.90
  -3   0  -3   18.19    0.76
  -3   0  -3   17.38    0.77
  -3   0  -3   17.29    0.67
  -3   0  -3   18.50    0.75
  -3   0  -3   18.57    0.68
  -3   0  -3   17.39    0.77
   3   0   3   18.50    0.68
   3   0   3   19.09    0.76
   3   0   3   18.52    0.74
   3   0   3   18.56    0.67
   3   0   3   17.61    0.66
   3   0   3   19.04    0.70
  -4   0  -3   19.33    0.94
  -4   0  -3   18.42    0.84
  -4   0  -3   19.48    0.84
  -4   0  -3   18.86    0.96
  -4   0  -3   20.00    0.96
  -4   0  -3   20.67    0.95
   4   0   3   19.15    0.91
   4   0   3   18.91    0.82
   4   0   3   19.11    0.88
   4   0   3   19.85    0.80
   4   0   3   17.94    0.83
   4   0   3   18.60    0.80
  -5   0  -3    2.13    0.62
  -5   0  -3    1.10    0.67
  -5   0  -3    2.68    0.55
  -5   0  -3    2.64    0.66
  -5   0  -3    3.88    0.65
  -5   0  -3    2.33    0.61
  -5   0  -3    1.85    0.53
   5   0   3    3.24    0.48
   5   0   3    3.01    0.54
   5   0   3    2.77    0.49
   5   0   3    2.87    0.58
   5   0   3    2.70    0.51
  -6   0  -3   68.39    2.10
  -6   0  -3   73.92    2.57
  -6   0  -3   73.55    2.21
  -6   0  -3   71.23    2.12
  -6   0  -3   72.61    2.39
  -6   0  -3   69.70    2.82
  -6   0  -3   74.93    2.25
   6   0   3   72.78    2.00
   6   0   3   68.07    2.04
   6   0   3   70.19    1.95
   6   0   3   72.41    2.12
   6   0   3   70.62    2.04
  -7   0  -3   48.89    2.37
  -7   0  -3   47.32    2.18
  -7   0  -3   45.54    1.94
  -7   0  -3   49.74    2.06
  -7   0  -3   49.83    2.22
  -7   0  -3   45.43    2.10
  -7   0  -3   48.50    2.33
   7   0   3   48.56    1.78
   7   0   3   47.89    1.76
   7   0   3   47.26    1.91
   7   0   3   48.15    1.94
   7   0   3   47.21    1.96
  -8   0  -3   12.81    1.49
  -8   0  -3   10.94    1.46
  -8   0  -3   14.04    1.83
  -8   0  -3   11.34    1.51
  -8   0  -3   11.39    1.31
  -8   0  -3    8.77    1.67
  -8   0  -3   10.07    1.45
   8   0   3   11.70    1.16
   8   0   3   12.20    1.10
   8   0   3   11.58    1.26
   8   0   3   11.84    1.28
   8   0   3    9.09    1.31
  -9   0  -3    1.65    1.83
  -9   0  -3    1.77    2.19
  -9   0  -3   -0.57    1.82
  -9   0  -3    0.23    2.16
   9   0   3    0.20    1.67
   9   0   3   -1.14    1.67
   9   0   3    1.97    1.29
   9   0   3    3.17    1.22
   8  -1  -3   35.95    2.89
   8  -1  -3   45.43    2.69
   8  -1  -3   44.15    1.91
   8  -1  -3   39.13    2.45
  -8   1   3   45.95    3.14
  -8   1   3   42.32    1.95
  -8   1   3   49.04    3.27
  -8   1   3   51.19    3.13
  -8   1   3   46.54    3.06
  -8   1   3   43.87    2.33
  -8   1   3   46.02    3.39
  -8   1   3   37.58    2.94
   7  -1  -3   67.63    3.10
   7  -1  -3   62.23    3.05
   7  -1  -3   67.32    2.57
   7  -1  -3   66.27    2.36
   7  -1  -3   63.99    2.40
   7  -1  -3   59.78    1.86
  -7   1   3   63.26    2.66
  -7   1   3   67.49    3.56
  -7   1   3   63.33    2.66
  -7   1   3   60.93    2.62
  -7   1   3   64.08    2.61
  -7   1   3   65.62    2.77
  -7   1   3   60.76    1.98
  -7   1   3   59.59    2.21
   6  -1  -3   32.95    2.18
   6  -1  -3   27.41    1.54
   6  -1  -3   26.58    1.55
   6  -1  -3   31.25    2.12
   6  -1  -3   28.39    2.23
   6  -1  -3   29.66    1.20
   6  -1  -3   29.38    1.70
  -6   1   3   31.53    1.77
  -6   1   3   33.18    1.85
  -6   1   3   28.67    1.27
  -6   1   3   31.62    1.85
  -6   1   3   29.09    1.45
  -6   1   3   29.58    2.60
  -6   1   3   27.52    1.73
   5  -1  -3  119.24    2.86
   5  -1  -3  118.90    2.69
   5  -1  -3  118.13    2.87
   5  -1  -3  120.28    3.18
   5  -1  -3  119.51    3.23
   5  -1  -3  121.68    2.96
   5  -1  -3  122.51    3.21
  -5   1   3  115.67    2.99
  -5   1   3  121.98    2.97
  -5   1   3  118.61    2.80
  -5   1   3  122.99    2.99
  -5   1   3  116.71    3.07
  -5   1   3  122.16    3.05
  -5   1   3  117.69    2.73
  -5   1   3  126.38    3.33
   4  -1  -3    0.35    0.56
   4  -1  -3    0.53    0.63
   4  -1  -3    0.18    0.47
   4  -1  -3   -0.19    0.44
   4  -1  -3    0.04    0.32
   4  -1  -3    0.57    0.60
   4  -1  -3    0.42    0.44
  -4   1   3    0.55    0.40
  -4   1   3    0.70    0.46
  -4   1   3    0.88    0.57
  -4   1   3   -0.06    0.46
  -4   1   3   -0.27    0.50
  -4   1   3    0.15    0.50
  -4   1   3    0.25    0.37
   3  -1  -3   64.16    1.81
   3  -1  -3   62.51    1.72
   3  -1  -3   66.03    1.64
   3  -1  -3   64.77    1.78
   3  -1  -3   64.64    1.52
   3  -1  -3   64.50    1.60
   3  -1  -3   63.55    1.61
  -3   1   3   63.00    1.55
  -3   1   3   63.77    1.61
  -3   1   3   66.38    1.55
  -3   1   3   65.36    1.70
  -3   1   3   65.87    1.64
  -3   1   3   62.95    1.73
  -3   1   3   64.11    1.68
   2  -1  -3  157.10    3.43
   2  -1  -3  153.38    3.33
   2  -1  -3  158.08    3.33
   2  -1  -3  158.50    3.38
   2  -1  -3  161.75    3.38
   2  -1  -3  162.53    3.49
   2  -1  -3  157.35    3.31
  -2   1   3  157.40    3.32
  -2   1   3  155.59    3.40
  -2   1   3  157.37    3.44
  -2   1   3  154.75    3.33
  -2   1   3  160.97    3.33
  -2   1   3  162.41    3.35
  -2   1   3  156.90    3.39
   1  -1  -3 1050.05   21.86
   1  -1  -3 1115.40   22.04
   1  -1  -3 1101.39   21.83
   1  -1  -3 1134.23   22.02
   1  -1  -3 1104.69   21.89
   1  -1  -3 1085.81   21.85
   1  -1  -3 1107.17   21.87
  -1   1   3 1095.77   21.96
  -1   1   3 1130.28   21.93
  -1   1   3 1080.30   21.84
  -1   1   3 1106.13   22.03
  -1   1   3 1066.00   21.88
  -1   1   3 1128.63   21.98
  -1   1   3 1104.43   21.86
   0  -1  -3    9.54    0.26
   0  -1  -3    9.58    0.35
   0  -1  -3    9.36    0.37
   0  -1  -3    9.61    0.38
   0  -1  -3    9.74    0.40
   0  -1  -3    9.28    0.38
   0   1   3    9.64    0.26
   0   1   3    9.49    0.38
   0   1   3    8.36    0.40
   0   1   3    9.81    0.33
   0   1   3    9.93    0.41
  -1  -1  -3   64.60    1.40
  -1  -1  -3   64.23    1.37
  -1  -1  -3   66.20    1.43
  -1  -1  -3   65.20    1.42
  -1  -1  -3   63.69    1.41
  -1  -1  -3   65.16    1.33
  -1  -1  -3   66.43    1.39
   1   1   3   66.41    1.40
   1   1   3   63.93    1.37
   1   1   3   65.08    1.43
   1   1   3   66.84    1.38
   1   1   3   66.47    1.44
  -2  -1  -3   78.00    1.77
  -2  -1  -3   79.64    1.70
  -2  -1  -3   81.83    1.69
  -2  -1  -3   77.57    1.70
  -2  -1  -3   77.36    1.68
  -2  -1  -3   78.00    1.71
  -2  -1  -3   79.31    1.78
  -2  -1  -3   80.23    1.71
   2   1   3   81.43    1.70
   2   1   3   81.89    1.67
   2   1   3   80.27    1.68
   2   1   3   80.12    1.65
   2   1   3   80.61    1.70
   2   1   3   82.25    1.73
  -3  -1  -3   19.11    0.65
  -3  -1  -3   19.31    0.65
  -3  -1  -3   18.44    0.59
  -3  -1  -3   18.92    0.67
  -3  -1  -3   19.10    0.64
  -3  -1  -3   18.93    0.54
  -3  -1  -3   19.75    0.74
  -3  -1  -3   19.65    0.77
   3   1   3   20.66    0.71
   3   1   3   18.82    0.52
   3   1   3   19.30    0.54
   3   1   3   18.75    0.61
   3   1   3   19.89    0.65
   3   1   3   19.15    0.56
  -4  -1  -3 3216.15   63.72
  -4  -1  -3 3127.95   63.24
  -4  -1  -3 3191.35   63.09
  -4  -1  -3 3252.80   63.66
  -4  -1  -3 3210.18   63.41
  -4  -1  -3 3168.15   63.68
  -4  -1  -3 3124.89   63.02
  -4  -1  -3 3115.99   63.26
   4   1   3 3161.09   63.17
   4   1   3 3216.00   63.22
   4   1   3 3218.36   63.41
   4   1   3 3198.16   63.55
   4   1   3 3213.60   63.58
  -5  -1  -3    6.50    0.62
  -5  -1  -3    6.56    0.66
  -5  -1  -3    5.95    0.63
  -5  -1  -3    5.23    0.77
  -5  -1  -3    5.87    0.60
  -5  -1  -3    5.75    0.61
  -5  -1  -3    5.96    0.55
   5   1   3    5.95    0.45
   5   1   3    5.25    0.53
   5   1   3    6.59    0.44
   5   1   3    6.23    0.46
   5   1   3    4.91    0.54
  -6  -1  -3    9.32    0.82
  -6  -1  -3   12.16    0.90
  -6  -1  -3   10.87    1.24
  -6  -1  -3   10.44    0.88
  -6  -1  -3    9.24    0.80
  -6  -1  -3   10.09    0.75
  -6  -1  -3    9.01    0.97
   6   1   3    9.85    0.82
   6   1   3   13.10    0.85
   6   1   3   10.77    0.80
   6   1   3   10.38    0.88
   6   1   3    9.28    0.79
  -7  -1  -3    3.43    1.03
  -7  -1  -3    2.68    0.94
  -7  -1  -3    2.44    0.90
  -7  -1  -3    1.82    0.78
  -7  -1  -3    3.45    1.13
  -7  -1  -3    2.82    0.97
  -7  -1  -3    3.96    0.89
   7   1   3    2.16    0.56
   7   1   3    3.35    0.69
   7   1   3    2.95    0.59
   7   1   3    2.52    0.80
   7   1   3    5.19    1.03
  -8  -1  -3   15.66    1.35
  -8  -1  -3   15.39    1.41
  -8  -1  -3   13.12    1.72
  -8  -1  -3   13.95    1.52
  -8  -1  -3   14.77    1.23
  -8  -1  -3   14.59    1.48
  -8  -1  -3   13.03    1.39
   8   1   3   16.61    1.05
   8   1   3   13.49    1.27
   8   1   3   14.54    1.32
   8   1   3   12.80    1.15
   8   1   3   16.13    1.26
  -9  -1  -3   -0.40    1.52
  -9  -1  -3   -3.36    1.63
  -9  -1  -3   -0.01    2.39
  -9  -1  -3    0.37    1.56
  -9  -1  -3   -0.69    2.08
  -9  -1  -3   -0.70    1.60
  -9  -1  -3    0.52    1.55
   9   1   3    0.84    1.19
   9   1   3    0.01    1.42
   9   1   3   -0.69    1.11
   8  -2  -3   21.10    2.07
   8  -2  -3   22.59    1.65
  -8   2   3   19.62    2.84
  -8   2   3   23.62    1.97
  -8   2   3   24.78    2.18
  -8   2   3   26.29    3.28
  -8   2   3   21.89    1.79
  -8   2   3   18.37    2.22
   7  -2  -3    1.74    1.87
   7  -2  -3    0.15    1.63
   7  -2  -3    0.60    0.74
   7  -2  -3    0.73    1.30
   7  -2  -3    0.81    1.11
   7  -2  -3    1.86    1.29
  -7   2   3    0.44    0.91
  -7   2   3    0.93    1.25
  -7   2   3    0.96    1.16
  -7   2   3   -0.56    1.92
  -7   2   3    0.89    1.08
  -7   2   3   -0.08    1.28
  -7   2   3    1.02    1.31
  -7   2   3    3.54    1.40
   6  -2  -3   45.36    2.70
   6  -2  -3   40.83    2.00
   6  -2  -3   42.14    2.00
   6  -2  -3   41.24    1.39
   6  -2  -3   43.88    1.89
   6  -2  -3   41.58    2.56
  -6   2   3   44.38    2.17
  -6   2   3   40.08    1.89
  -6   2   3   41.46    1.58
  -6   2   3   36.66    2.21
  -6   2   3   44.26    2.00
  -6   2   3   40.22    1.84
  -6   2   3   44.97    2.28
   5  -2  -3   37.51    1.97
   5  -2  -3   37.08    1.63
   5  -2  -3   35.30    1.54
   5  -2  -3   37.26    2.03
   5  -2  -3   36.13    1.19
   5  -2  -3   36.37    1.85
  -5   2   3   36.34    1.58
  -5   2   3   38.18    1.75
  -5   2   3   35.76    1.74
  -5   2   3   33.68    1.76
  -5   2   3   37.71    1.53
  -5   2   3   37.03    1.32
  -5   2   3   36.83    2.17
  -5   2   3   36.21    1.44
   4  -2  -3   32.30    1.29
   4  -2  -3   32.26    1.64
   4  -2  -3   31.70    1.04
   4  -2  -3   32.52    1.45
   4  -2  -3   32.19    1.33
   4  -2  -3   33.35    2.04
   4  -2  -3   34.37    1.35
  -4   2   3   31.80    1.43
  -4   2   3   32.47    1.24
  -4   2   3   33.16    1.22
  -4   2   3   32.60    1.68
  -4   2   3   31.51    1.12
  -4   2   3   31.96    1.27
  -4   2   3   33.01    1.47
   3  -2  -3   95.52    2.49
   3  -2  -3   94.15    2.27
   3  -2  -3   91.33    2.27
   3  -2  -3   93.87    2.13
   3  -2  -3   94.32    2.29
   3  -2  -3   92.18    2.23
   3  -2  -3   94.15    2.42
  -3   2   3   93.90    2.22
  -3   2   3   93.32    2.17
  -3   2   3   93.61    2.49
  -3   2   3   95.66    2.22
  -3   2   3   92.96    2.34
  -3   2   3   95.52    2.18
   2  -2  -3  568.78   11.66
   2  -2  -3  585.10   11.74
   2  -2  -3  579.32   11.80
   2  -2  -3  579.04   11.59
   2  -2  -3  573.64   11.62
   2  -2  -3  569.93   11.61
  -2   2   3  578.90   11.80
  -2   2   3  576.16   11.63
  -2   2   3  569.36   11.69
  -2   2   3  583.07   11.75
  -2   2   3  574.45   11.60
  -2   2   3  585.94   11.63
  -2   2   3  559.35   11.55
  -2   2   3  601.88   11.69
   1  -2  -3   33.08    1.06
   1  -2  -3   33.16    0.86
   1  -2  -3   33.52    0.87
   1  -2  -3   33.10    0.95
   1  -2  -3   32.35    0.92
   1  -2  -3   32.79    0.96
   1  -2  -3   34.03    1.03
  -1   2   3   33.77    1.10
  -1   2   3   32.86    0.95
  -1   2   3   33.08    0.81
  -1   2   3   34.97    0.96
  -1   2   3   32.45    0.99
  -1   2   3   33.46    0.85
  -1   2   3   33.82    0.94
  -1   2   3   34.92    0.98
   0  -2  -3  230.03    4.69
   0  -2  -3  238.97    4.76
   0  -2  -3  229.94    4.80
   0  -2  -3  230.47    4.69
   0  -2  -3  232.52    4.79
   0  -2  -3  234.30    4.79
   0   2   3  230.31    4.68
   0   2   3  229.61    4.77
   0   2   3  239.05    4.81
   0   2   3  232.85    4.68
   0   2   3  237.22    4.77
   0   2   3  230.04    4.77
  -1  -2  -3   76.55    1.61
  -1  -2  -3   76.10    1.63
  -1  -2  -3   74.87    1.61
  -1  -2  -3   75.04    1.59
  -1  -2  -3   77.64    1.72
  -1  -2  -3   75.76    1.69
  -1  -2  -3   74.16    1.62
   1   2   3   75.11    1.73
   1   2   3   76.05    1.59
   1   2   3   76.76    1.64
   1   2   3   76.92    1.61
   1   2   3   78.19    1.65
  -2  -2  -3    4.09    0.22
  -2  -2  -3    3.84    0.19
  -2  -2  -3    4.00    0.31
  -2  -2  -3    3.83    0.21
  -2  -2  -3    3.15    0.30
  -3  -2  -3   71.33    1.51
  -3  -2  -3   71.37    1.54
  -3  -2  -3   72.37    1.74
  -3  -2  -3   72.94    1.65
  -3  -2  -3   71.36    1.70
  -3  -2  -3   71.56    1.66
  -3  -2  -3   74.54    1.53
  -3  -2  -3   72.00    1.52
  -4  -2  -3  673.23   13.51
  -4  -2  -3  670.14   13.35
  -4  -2  -3  673.60   13.40
  -4  -2  -3  659.49   13.49
  -4  -2  -3  664.74   13.41
  -4  -2  -3  676.65   13.40
  -4  -2  -3  677.35   13.42
  -4  -2  -3  673.32   13.38
  -5  -2  -3   63.20    1.99
  -5  -2  -3   63.31    1.65
  -5  -2  -3   62.60    1.52
  -5  -2  -3   61.71    1.54
  -5  -2  -3   61.57    1.64
  -5  -2  -3   62.98    1.49
  -5  -2  -3   62.61    1.61
  -5  -2  -3   63.95    1.73
  -5  -2  -3   64.09    1.74
  -6  -2  -3  177.29    3.95
  -6  -2  -3  146.51    4.76
  -6  -2  -3  174.63    3.59
  -6  -2  -3  174.00    3.63
  -6  -2  -3  174.11    3.97
  -6  -2  -3  176.48    3.82
  -6  -2  -3  177.77    3.88
  -6  -2  -3  173.65    3.78
  -7  -2  -3    4.01    0.79
  -7  -2  -3    2.28    0.87
  -7  -2  -3    2.61    0.76
  -7  -2  -3    4.89    0.81
  -7  -2  -3    1.82    0.87
  -7  -2  -3    3.59    0.95
  -7  -2  -3    1.57    1.12
  -8  -2  -3    1.61    1.21
  -8  -2  -3    2.23    0.97
  -8  -2  -3   -0.15    1.20
  -8  -2  -3    0.25    0.99
  -8  -2  -3   -0.02    1.54
  -8  -2  -3   -0.45    1.25
  -8  -2  -3   -0.01    1.03
  -9  -2  -3    3.37    1.74
  -9  -2  -3    6.19    1.44
  -9  -2  -3    5.06    2.57
  -9  -2  -3   10.63    1.64
  -9  -2  -3    3.71    2.21
  -9  -2  -3    5.74    1.80
  -9  -2  -3    5.48    1.45
   7  -3  -3    3.03    1.60
   7  -3  -3    0.77    0.84
   7  -3  -3    3.01    2.04
   7  -3  -3    1.83    1.60
   7  -3  -3    0.01    1.95
   7  -3  -3    2.10    1.36
  -7   3   3    0.52    1.32
  -7   3   3    3.19    1.43
  -7   3   3    0.89    1.53
  -7   3   3    2.53    1.66
  -7   3   3    3.42    1.75
  -7   3   3    0.60    2.15
  -7   3   3    2.88    1.25
   6  -3  -3   59.15    2.46
   6  -3  -3   56.62    3.17
   6  -3  -3   58.06    2.41
   6  -3  -3   57.31    1.70
   6  -3  -3   56.27    2.54
   6  -3  -3   62.18    3.14
  -6   3   3   51.22    2.62
  -6   3   3   56.57    2.63
  -6   3   3   61.02    2.82
  -6   3   3   55.43    2.29
  -6   3   3   57.39    2.36
  -6   3   3   54.87    2.15
   5  -3  -3   11.61    1.41
   5  -3  -3    9.20    1.03
   5  -3  -3    9.23    1.20
   5  -3  -3   13.35    1.43
   5  -3  -3   11.42    0.74
   5  -3  -3    9.25    1.01
  -5   3   3    7.46    1.50
  -5   3   3    9.71    1.41
  -5   3   3   10.08    1.10
  -5   3   3   10.44    0.86
  -5   3   3   11.16    1.22
  -5   3   3   11.87    1.03
  -5   3   3   10.10    1.17
  -5   3   3   10.81    0.87
   4  -3  -3   15.51    1.29
   4  -3  -3   15.12    1.22
   4  -3  -3   14.64    1.20
   4  -3  -3   12.68    0.88
   4  -3  -3   13.77    1.20
   4  -3  -3   13.92    0.99
   4  -3  -3   13.38    0.97
  -4   3   3   16.38    1.17
  -4   3   3   14.75    1.05
  -4   3   3   13.83    1.22
  -4   3   3   12.81    1.08
  -4   3   3   14.54    1.07
  -4   3   3   15.09    1.10
  -4   3   3   13.00    0.95
  -4   3   3   13.46    1.04
   3  -3  -3    6.18    0.62
   3  -3  -3    5.70    0.77
   3  -3  -3    8.05    0.56
   3  -3  -3   10.63    1.36
   3  -3  -3    6.94    0.69
   3  -3  -3    5.32    0.57
   3  -3  -3    6.55    0.64
  -3   3   3    7.44    0.77
  -3   3   3    8.16    0.65
  -3   3   3    6.03    0.56
  -3   3   3    7.39    0.75
  -3   3   3    7.37    0.90
  -3   3   3    6.65    0.49
  -3   3   3    6.52    0.73
  -3   3   3    8.42    0.63
   2  -3  -3   63.32    1.85
   2  -3  -3   64.55    1.76
   2  -3  -3   63.06    1.59
   2  -3  -3   66.25    1.95
   2  -3  -3   64.02    1.75
   2  -3  -3   65.08    1.65
   2  -3  -3   65.12    1.63
  -2   3   3   66.95    1.49
  -2   3   3   65.09    1.76
  -2   3   3   63.28    1.76
  -2   3   3   65.46    1.71
  -2   3   3   63.22    1.81
  -2   3   3   64.22    1.69
  -2   3   3   64.49    1.93
  -2   3   3   67.54    1.62
   1  -3  -3   28.60    1.01
   1  -3  -3   28.54    1.08
   1  -3  -3   29.33    0.88
   1  -3  -3   30.12    1.00
   1  -3  -3   29.19    0.95
   1  -3  -3   28.35    0.80
   1  -3  -3   29.78    1.13
  -1   3   3   29.55    0.85
  -1   3   3   31.55    1.02
  -1   3   3   29.14    1.01
  -1   3   3   28.88    1.01
  -1   3   3   30.23    0.74
  -1   3   3   28.78    1.00
  -1   3   3   29.90    0.97
  -1   3   3   28.57    1.13
   0  -3  -3  633.95   12.58
   0  -3  -3  640.79   12.54
   0  -3  -3  610.70   12.39
   0  -3  -3  629.05   12.48
   0  -3  -3  630.64   12.61
   0  -3  -3  627.49   12.57
   0  -3  -3  618.13   12.58
   0   3   3  637.30   12.60
   0   3   3  611.47   12.46
   0   3   3  620.72   12.55
   0   3   3  629.67   12.52
   0   3   3  615.63   12.54
   0   3   3  630.32   12.50
   0   3   3  612.32   12.39
  -1  -3  -3   90.04    1.98
  -1  -3  -3   89.68    1.90
  -1  -3  -3   91.31    2.10
  -1  -3  -3   89.80    2.05
  -1  -3  -3   92.27    1.95
  -1  -3  -3   91.60    2.01
  -1  -3  -3   91.22    1.96
   1   3   3   89.14    1.93
   1   3   3   91.39    1.90
   1   3   3   91.74    1.94
   1   3   3   90.44    1.94
   1   3   3   89.58    1.96
   1   3   3   90.70    2.04
   1   3   3   89.65    1.92
  -2  -3  -3   22.86    0.59
  -2  -3  -3   22.28    0.58
  -2  -3  -3   22.08    0.85
  -2  -3  -3   21.80    0.68
  -2  -3  -3   21.46    0.75
  -2  -3  -3   22.10    0.66
  -2  -3  -3   22.07    0.60
  -3  -3  -3   18.92    0.79
  -3  -3  -3   20.20    0.85
  -4  -3  -3   -0.51    0.52
  -4  -3  -3    0.36    0.39
  -4  -3  -3    0.71    0.37
  -4  -3  -3    0.75    0.39
  -5  -3  -3    8.48    0.65
  -5  -3  -3    7.45    0.67
  -5  -3  -3    8.39    0.58
  -5  -3  -3    7.53    0.64
  -5  -3  -3    7.40    0.61
  -5  -3  -3    7.27    0.60
  -5  -3  -3    7.18    0.82
  -5  -3  -3    7.91    0.56
  -6  -3  -3    1.85    0.48
  -6  -3  -3    1.75    0.69
  -6  -3  -3    2.60    0.63
  -6  -3  -3    1.64    0.70
  -6  -3  -3    2.43    0.52
  -6  -3  -3    2.17    0.64
  -6  -3  -3    2.92    0.52
  -7  -3  -3   43.48    1.87
  -7  -3  -3   45.82    1.55
  -7  -3  -3   46.78    1.56
  -7  -3  -3   45.33    1.97
  -7  -3  -3   47.12    2.42
  -7  -3  -3   46.79    1.79
  -7  -3  -3   43.80    1.61
  -7  -3  -3   44.24    1.57
  -7  -3  -3   43.64    1.35
  -8  -3  -3    2.06    0.57
  -8  -3  -3    2.23    0.73
  -8  -3  -3    2.71    0.97
  -8  -3  -3    0.78    1.16
  -8  -3  -3    1.80    1.23
  -8  -3  -3    1.62    1.60
  -8  -3  -3    2.22    1.14
  -8  -3  -3    1.91    0.92
  -8  -3  -3    1.60    0.94
  -9  -3  -3   -1.33    1.36
  -9  -3  -3    0.96    1.70
  -9  -3  -3    2.01    1.43
  -9  -3  -3   -1.46    1.22
  -9  -3  -3   -1.69    1.23
  -9  -3  -3    4.37    2.12
   7  -4  -3    5.12    2.20
   7  -4  -3    6.19    2.43
   7  -4  -3    6.89    1.92
   7  -4  -3   10.37    2.63
   7  -4  -3    5.01    2.04
   7  -4  -3    6.92    1.01
  -7   4   3    5.12    1.41
  -7   4   3    8.19    2.14
  -7   4   3    7.66    2.26
  -7   4   3    9.45    2.73
  -7   4   3    5.15    1.85
  -7   4   3    7.19    1.75
  -7   4   3    8.53    2.21
   6  -4  -3   75.48    3.08
   6  -4  -3   81.69    3.84
   6  -4  -3   71.00    2.09
   6  -4  -3   69.56    3.03
   6  -4  -3   74.84    3.83
   6  -4  -3   70.35    3.14
  -6   4   3   72.11    2.85
  -6   4   3   70.23    2.40
  -6   4   3   67.73    3.96
  -6   4   3   73.08    3.27
  -6   4   3   72.71    3.41
  -6   4   3   72.04    2.83
   5  -4  -3   61.37    2.44
   5  -4  -3   64.30    2.51
   5  -4  -3   64.77    1.89
   5  -4  -3   66.32    2.64
   5  -4  -3   68.90    3.17
   5  -4  -3   67.60    3.08
  -5   4   3   64.20    1.97
  -5   4   3   63.82    2.71
  -5   4   3   60.73    2.27
  -5   4   3   66.94    2.66
  -5   4   3   62.29    3.21
  -5   4   3   63.46    2.33
  -5   4   3   67.04    2.78
   4  -4  -3    0.54    1.07
   4  -4  -3   -0.24    1.10
   4  -4  -3    1.58    0.80
   4  -4  -3    2.01    0.84
   4  -4  -3    1.69    0.91
   4  -4  -3    1.92    0.61
  -4   4   3    1.08    0.73
  -4   4   3    0.95    1.31
  -4   4   3    1.49    0.94
  -4   4   3    2.24    0.57
  -4   4   3    3.01    1.19
  -4   4   3    1.95    0.92
  -4   4   3    1.41    0.92
   3  -4  -3   15.66    1.12
   3  -4  -3   15.78    0.98
   3  -4  -3   17.04    1.20
   3  -4  -3   18.93    1.64
   3  -4  -3   17.16    1.38
   3  -4  -3   15.85    1.31
   3  -4  -3   15.98    1.07
  -3   4   3   17.45    0.79
  -3   4   3   19.49    1.65
  -3   4   3   17.55    1.43
  -3   4   3   17.58    1.04
  -3   4   3   17.06    1.16
  -3   4   3   15.59    1.03
  -3   4   3   17.95    1.38
   2  -4  -3   16.09    1.13
   2  -4  -3   16.92    1.31
   2  -4  -3   16.12    1.33
   2  -4  -3   15.66    1.11
   2  -4  -3   15.72    0.82
   2  -4  -3   16.22    0.94
   2  -4  -3   16.32    0.93
  -2   4   3   14.98    1.09
  -2   4   3   16.54    1.28
  -2   4   3   15.91    1.18
  -2   4   3   16.00    1.13
  -2   4   3   15.94    0.85
  -2   4   3   16.81    0.59
  -2   4   3   16.72    1.02
   1  -4  -3  154.16    3.62
   1  -4  -3  152.53    3.46
   1  -4  -3  158.56    3.46
   1  -4  -3  153.84    3.56
   1  -4  -3  154.03    3.38
   1  -4  -3  152.59    3.22
   1  -4  -3  155.15    3.51
  -1   4   3  158.14    3.46
  -1   4   3  157.01    3.35
  -1   4   3  153.38    3.45
  -1   4   3  157.34    3.47
  -1   4   3  154.76    3.64
  -1   4   3  154.89    3.15
  -1   4   3  155.82    3.52
   0  -4  -3  233.11    5.00
   0  -4  -3  230.91    4.89
   0  -4  -3  235.89    5.00
   0  -4  -3  227.65    4.95
   0  -4  -3  226.45    4.66
   0  -4  -3  230.52    4.95
   0  -4  -3  233.32    4.83
   0  -4  -3  233.05    4.95
   0   4   3  231.51    4.81
   0   4   3  230.34    4.90
   0   4   3  237.90    4.86
   0   4   3  236.00    4.67
   0   4   3  230.69    4.85
   0   4   3  234.05    4.94
   0   4   3  233.96    4.92
  -1  -4  -3  110.65    2.41
  -1  -4  -3  108.14    2.26
  -1  -4  -3  109.52    2.43
  -1  -4  -3  108.98    2.47
  -1  -4  -3  110.93    2.54
  -1  -4  -3  108.73    2.50
  -1  -4  -3  111.43    2.51
  -1  -4  -3  108.42    2.58
   1   4   3  111.67    2.40
   1   4   3  107.91    2.39
   1   4   3  108.60    2.35
   1   4   3  111.90    2.49
   1   4   3  113.84    2.34
   1   4   3  107.96    2.36
  -2  -4  -3   -0.23    0.28
  -2  -4  -3   -0.37    0.30
  -2  -4  -3   -0.06    0.30
  -2  -4  -3    0.17    0.25
  -2  -4  -3   -0.19    0.29
  -2  -4  -3   -0.56    0.43
  -2  -4  -3   -0.09    0.22
  -2  -4  -3   -0.39    0.37
  -3  -4  -3   -0.09    0.23
  -3  -4  -3    0.10    0.33
  -3  -4  -3    0.64    0.36
  -3  -4  -3    0.03    0.30
  -3  -4  -3   -0.89    0.45
  -4  -4  -3   60.01    1.70
  -4  -4  -3   57.76    1.55
  -4  -4  -3   56.70    1.78
  -4  -4  -3   61.06    1.55
  -4  -4  -3   59.73    1.58
  -5  -4  -3   12.08    1.01
  -5  -4  -3   12.45    0.89
  -5  -4  -3   12.78    0.97
  -5  -4  -3   13.64    1.03
  -6  -4  -3    1.38    1.12
  -6  -4  -3    1.80    0.39
  -6  -4  -3    1.60    0.52
  -6  -4  -3    0.58    0.60
  -6  -4  -3    2.21    0.38
  -6  -4  -3    1.69    0.45
  -6  -4  -3    1.77    0.65
  -6  -4  -3    2.22    0.95
  -7  -4  -3    1.70    0.76
  -7  -4  -3    0.89    0.62
  -7  -4  -3   -0.67    0.81
  -7  -4  -3    0.70    0.70
  -7  -4  -3    1.10    1.25
  -7  -4  -3    2.47    0.95
  -7  -4  -3    0.47    0.52
  -7  -4  -3    1.59    0.62
  -8  -4  -3    0.53    0.97
  -8  -4  -3   -0.45    1.30
  -8  -4  -3   -0.26    0.87
  -8  -4  -3   -0.63    0.77
  -8  -4  -3    0.29    0.74
  -8  -4  -3    0.47    0.75
  -8  -4  -3   -1.58    1.62
  -8  -4  -3   -0.62    1.07
  -9  -4  -3    6.48    1.91
  -9  -4  -3    5.65    2.14
  -9  -4  -3    7.49    1.14
  -9  -4  -3    6.60    1.59
  -9  -4  -3    7.90    1.36
  -9  -4  -3    6.78    0.93
   6  -5  -3   -0.14    1.91
   6  -5  -3    4.72    2.36
   6  -5  -3    0.11    1.67
   6  -5  -3    2.42    2.29
   6  -5  -3   -0.33    1.64
   6  -5  -3    1.28    1.27
  -6   5   3    0.71    1.51
  -6   5   3    1.99    2.18
  -6   5   3    1.37    1.09
  -6   5   3    0.50    1.54
  -6   5   3    0.12    1.69
  -6   5   3    1.34    3.00
   5  -5  -3   39.92    1.70
   5  -5  -3   44.37    2.85
   5  -5  -3   38.60    3.17
   5  -5  -3   43.22    2.67
   5  -5  -3   38.99    2.47
   5  -5  -3   36.64    3.29
  -5   5   3   40.21    2.78
  -5   5   3   39.81    2.69
  -5   5   3   39.85    3.26
  -5   5   3   41.04    1.61
  -5   5   3   37.42    2.36
  -5   5   3   41.83    2.87
  -5   5   3   42.01    2.29
   4  -5  -3   11.95    1.19
   4  -5  -3   10.60    1.54
   4  -5  -3    9.58    1.30
   4  -5  -3   10.60    0.90
   4  -5  -3   10.34    1.50
   4  -5  -3   10.90    1.20
  -4   5   3   10.24    0.69
  -4   5   3   10.60    1.18
  -4   5   3    9.46    1.39
  -4   5   3   11.69    1.64
  -4   5   3   11.25    1.32
  -4   5   3    9.24    0.99
   3  -5  -3   47.80    2.37
   3  -5  -3   44.01    2.09
   3  -5  -3   47.58    1.67
   3  -5  -3   48.13    2.34
   3  -5  -3   48.48    2.04
   3  -5  -3   40.98    2.00
  -3   5   3   48.16    1.91
  -3   5   3   47.93    2.04
  -3   5   3   49.58    2.12
  -3   5   3   49.09    2.11
  -3   5   3   46.78    1.87
  -3   5   3   47.23    1.22
  -3   5   3   47.65    2.31
   2  -5  -3  124.39    3.30
   2  -5  -3  126.85    3.15
   2  -5  -3  123.98    3.17
   2  -5  -3  126.81    3.00
   2  -5  -3  124.43    3.37
   2  -5  -3  126.70    3.01
  -2   5   3  125.98    3.29
  -2   5   3  123.76    2.56
  -2   5   3  125.72    2.91
  -2   5   3  100.30    3.59
  -2   5   3  126.73    3.12
  -2   5   3  122.67    3.20
  -2   5   3  126.55    3.13
   1  -5  -3   98.26    2.69
   1  -5  -3   93.61    2.35
   1  -5  -3   97.01    2.55
   1  -5  -3   97.10    2.46
   1  -5  -3   95.24    2.62
   1  -5  -3   95.32    2.66
   1  -5  -3   95.49    2.50
  -1   5   3   94.92    2.44
  -1   5   3   96.59    2.51
  -1   5   3   96.42    2.29
  -1   5   3   95.03    2.44
   0  -5  -3    0.00    0.40
   0  -5  -3   -0.32    0.55
   0  -5  -3   -0.39    0.53
   0  -5  -3    0.33    0.54
   0  -5  -3    0.45    0.60
   0  -5  -3   -0.07    0.51
   0  -5  -3    0.61    0.59
   0   5   3   -0.18    0.36
   0   5   3    0.58    0.47
   0   5   3    0.49    0.47
   0   5   3    0.00    0.46
   0   5   3   -0.14    0.47
   0   5   3    0.40    0.44
  -1  -5  -3   10.29    0.92
  -1  -5  -3   12.10    0.94
  -1  -5  -3   11.31    0.71
  -1  -5  -3   12.91    0.86
  -1  -5  -3   11.01    0.92
  -1  -5  -3   10.28    0.79
  -1  -5  -3   11.92    0.77
   1   5   3   11.69    0.62
   1   5   3   10.73    0.70
   1   5   3   11.58    0.82
   1   5   3   11.94    0.70
   1   5   3   10.80    0.70
   1   5   3   10.49    0.66
  -2  -5  -3   26.20    1.25
  -2  -5  -3   26.93    0.96
  -2  -5  -3   26.17    1.05
  -2  -5  -3   25.81    0.75
  -2  -5  -3   26.05    0.98
  -2  -5  -3   26.30    0.94
  -2  -5  -3   25.95    1.02
  -2  -5  -3   27.01    1.13
  -2  -5  -3   26.83    0.90
  -3  -5  -3   42.47    1.37
  -3  -5  -3   42.13    1.16
  -3  -5  -3   42.49    1.18
  -3  -5  -3   41.90    1.21
  -3  -5  -3   42.60    1.12
  -3  -5  -3   41.89    1.11
  -3  -5  -3   40.95    1.33
  -3  -5  -3   43.04    1.28
  -4  -5  -3   18.82    1.07
  -4  -5  -3   20.29    1.17
  -4  -5  -3   19.34    1.01
  -4  -5  -3   20.87    1.00
  -4  -5  -3   19.41    1.27
  -5  -5  -3   82.57    2.13
  -5  -5  -3   84.27    2.17
  -5  -5  -3   81.78    2.41
  -5  -5  -3   81.15    2.35
  -5  -5  -3   84.05    2.25
  -5  -5  -3   82.41    2.20
  -6  -5  -3   51.95    1.82
  -6  -5  -3   49.10    2.23
  -6  -5  -3   56.31    1.98
  -6  -5  -3   48.94    1.76
  -6  -5  -3   53.61    1.67
  -6  -5  -3   50.26    1.91
  -7  -5  -3    2.47    1.30
  -7  -5  -3    3.55    0.93
  -7  -5  -3    3.04    1.13
  -7  -5  -3    2.26    0.90
  -7  -5  -3    3.56    0.78
  -8  -5  -3    4.34    1.57
  -8  -5  -3    2.92    0.74
  -8  -5  -3    2.90    1.01
  -8  -5  -3    1.81    1.22
  -8  -5  -3    3.18    1.04
  -8  -5  -3    3.89    1.30
  -8  -5  -3    2.40    0.84
  -8  -5  -3    0.81    1.65
   5  -6  -3    1.16    2.37
   5  -6  -3   -4.36    2.12
   5  -6  -3    2.51    1.13
   5  -6  -3   -2.22    1.71
   5  -6  -3    1.31    1.94
   5  -6  -3    3.81    1.74
  -5   6   3    0.12    1.89
  -5   6   3    1.02    1.81
  -5   6   3   -0.25    1.41
  -5   6   3    0.61    1.79
  -5   6   3    0.71    0.76
  -5   6   3   -0.29    2.19
  -5   6   3   -1.28    1.52
   4  -6  -3    9.72    1.86
   4  -6  -3    6.22    1.58
   4  -6  -3   10.48    1.84
   4  -6  -3   10.33    1.12
   4  -6  -3   12.17    1.60
   4  -6  -3    9.83    1.41
  -4   6   3    9.92    1.39
  -4   6   3   10.94    1.89
  -4   6   3   10.46    1.55
  -4   6   3   10.11    1.23
  -4   6   3   12.73    1.62
  -4   6   3   13.16    1.58
  -4   6   3   10.04    0.64
   3  -6  -3   -0.05    1.30
   3  -6  -3    1.02    1.45
   3  -6  -3   -0.12    1.24
   3  -6  -3    0.73    1.24
   3  -6  -3    1.84    0.91
   3  -6  -3    1.83    0.99
  -3   6   3    0.89    1.10
  -3   6   3    1.56    1.11
  -3   6   3    0.19    0.94
  -3   6   3    1.00    0.32
  -3   6   3   -0.11    1.30
  -3   6   3    0.95    1.16
  -3   6   3    1.72    0.86
   2  -6  -3    8.40    1.28
   2  -6  -3    9.99    1.24
   2  -6  -3   10.88    1.00
   2  -6  -3   10.93    1.18
   2  -6  -3    8.64    0.98
  -2   6   3   10.85    1.06
  -2   6   3   12.52    1.08
  -2   6   3    9.24    1.18
  -2   6   3    9.50    0.85
  -2   6   3   10.90    1.16
  -2   6   3    9.30    1.03
   1  -6  -3  202.26    4.65
   1  -6  -3  199.68    4.56
   1  -6  -3  196.50    4.66
   1  -6  -3  196.60    4.42
   1  -6  -3  189.83    4.72
  -1   6   3  195.18    4.51
  -1   6   3  199.20    4.35
  -1   6   3  189.88    4.53
  -1   6   3  196.79    4.43
  -1   6   3  197.47    4.57
  -1   6   3  197.81    4.51
   0  -6  -3   10.89    1.15
   0  -6  -3   13.76    1.08
   0  -6  -3   14.81    1.10
   0  -6  -3   14.40    1.05
   0  -6  -3   13.13    1.01
   0  -6  -3   14.04    0.94
   0  -6  -3   13.53    1.32
   0   6   3   14.26    1.10
   0   6   3   13.55    0.99
   0   6   3   13.25    1.03
   0   6   3   13.81    0.91
  -1  -6  -3  226.99    5.05
  -1  -6  -3  211.24    5.31
  -1  -6  -3  229.72    4.92
  -1  -6  -3  237.19    5.06
  -1  -6  -3  233.82    4.90
  -1  -6  -3  224.70    4.97
  -1  -6  -3  215.68    5.21
   1   6   3  223.46    4.78
   1   6   3  234.95    4.81
   1   6   3  222.15    4.84
   1   6   3  224.07    4.80
   1   6   3  232.03    4.86
   1   6   3  232.80    4.97
  -2  -6  -3   64.11    1.78
  -2  -6  -3   65.34    1.52
  -2  -6  -3   68.98    2.01
  -2  -6  -3   65.24    1.80
  -2  -6  -3   63.76    1.91
  -2  -6  -3   65.51    1.43
  -2  -6  -3   65.82    1.85
   2   6   3   64.35    1.42
   2   6   3   67.22    1.46
   2   6   3   66.66    1.78
  -3  -6  -3  115.61    2.63
  -3  -6  -3  116.14    2.53
  -3  -6  -3  117.14    2.70
  -3  -6  -3  111.96    2.59
  -3  -6  -3  113.86    2.67
  -3  -6  -3  108.03    3.12
  -3  -6  -3  113.14    2.81
  -3  -6  -3  119.02    2.75
  -4  -6  -3   70.80    1.87
  -4  -6  -3   68.99    1.65
  -4  -6  -3   65.87    1.66
  -4  -6  -3   70.01    2.01
  -4  -6  -3   68.00    1.96
  -4  -6  -3   68.49    2.01
  -4  -6  -3   67.16    1.59
  -4  -6  -3   69.16    2.30
  -4  -6  -3   69.57    1.74
  -5  -6  -3   42.48    1.74
  -5  -6  -3   42.96    1.69
  -5  -6  -3   44.88    1.99
  -5  -6  -3   42.11    1.64
  -5  -6  -3   45.33    1.91
  -5  -6  -3   43.78    1.63
  -6  -6  -3   22.28    1.48
  -6  -6  -3   22.54    1.81
  -6  -6  -3   26.84    1.89
  -6  -6  -3   25.15    2.08
  -6  -6  -3   23.33    1.60
  -6  -6  -3   21.82    1.48
  -7  -6  -3   17.69    1.70
  -7  -6  -3   16.85    1.43
  -7  -6  -3   12.58    1.16
  -7  -6  -3   17.07    1.53
  -7  -6  -3   16.43    1.16
  -7  -6  -3   14.59    1.26
  -8  -6  -3    2.05    1.33
  -8  -6  -3    2.50    1.78
  -8  -6  -3    1.38    1.95
  -8  -6  -3    2.62    1.48
  -8  -6  -3    3.00    1.40
  -8  -6  -3    5.68    1.16
  -8  -6  -3    4.72    1.69
   4  -7  -3   14.76    1.84
   4  -7  -3   17.63    2.23
   4  -7  -3   18.62    1.84
   4  -7  -3   14.42    2.13
   4  -7  -3   20.01    2.31
   4  -7  -3   18.15    1.50
  -4   7   3   16.47    2.06
  -4   7   3   17.66    2.13
  -4   7   3   18.58    1.68
  -4   7   3   19.89    2.14
  -4   7   3   12.29    1.83
  -4   7   3   19.45    2.34
   3  -7  -3   30.95    2.10
   3  -7  -3   23.56    2.05
   3  -7  -3   29.46    2.29
   3  -7  -3   31.68    2.21
   3  -7  -3   24.38    1.68
   3  -7  -3   30.67    2.08
  -3   7   3   29.90    2.48
  -3   7   3   35.92    2.97
  -3   7   3   27.21    1.90
  -3   7   3   30.44    2.09
  -3   7   3   29.30    2.01
  -3   7   3   28.14    1.87
   2  -7  -3   17.58    1.60
   2  -7  -3   18.57    1.63
   2  -7  -3   20.62    1.96
   2  -7  -3   18.63    1.58
   2  -7  -3   19.13    1.37
   2  -7  -3   21.97    1.42
  -2   7   3   18.31    1.44
  -2   7   3   20.89    1.45
  -2   7   3   20.56    1.50
  -2   7   3   19.72    1.54
  -2   7   3   21.42    1.70
  -2   7   3   20.28    1.54
   1  -7  -3    7.84    1.26
   1  -7  -3    4.74    1.17
   1  -7  -3    6.78    1.05
   1  -7  -3    8.50    1.14
   1  -7  -3    5.79    1.19
   1  -7  -3    8.11    1.34
   1  -7  -3    6.33    1.02
  -1   7   3    5.26    1.04
  -1   7   3    7.04    1.15
  -1   7   3    8.23    0.96
  -1   7   3    8.52    1.09
  -1   7   3    7.69    0.87
  -1   7   3    8.82    1.12
   0  -7  -3    2.20    0.83
   0  -7  -3    3.07    1.03
   0  -7  -3    3.02    1.02
   0  -7  -3    1.61    1.05
   0  -7  -3    3.38    0.99
   0  -7  -3    3.15    1.09
   0  -7  -3    3.01    0.94
   0   7   3    3.04    0.73
   0   7   3    1.95    0.73
   0   7   3    2.57    0.79
   0   7   3    2.59    0.88
   0   7   3    3.22    0.86
   0   7   3    3.14    0.69
  -1  -7  -3   82.52    2.67
  -1  -7  -3   86.73    2.47
  -1  -7  -3   89.51    2.66
  -1  -7  -3   85.32    2.51
  -1  -7  -3   81.90    2.59
  -1  -7  -3   88.29    2.75
  -1  -7  -3   83.73    2.38
   1   7   3   85.98    2.30
   1   7   3   85.14    2.45
   1   7   3   81.73    2.18
   1   7   3   84.39    2.07
   1   7   3   86.66    2.16
   1   7   3   84.53    2.22
  -2  -7  -3   47.52    2.20
  -2  -7  -3   49.57    1.93
  -2  -7  -3   45.26    1.67
  -2  -7  -3   47.57    1.72
  -2  -7  -3   46.10    1.80
  -2  -7  -3   47.69    1.76
  -2  -7  -3   45.74    1.91
  -2  -7  -3   47.67    2.17
   2   7   3   45.56    1.29
   2   7   3   46.10    1.15
   2   7   3   46.94    1.63
   2   7   3   45.20    1.12
   2   7   3   47.08    1.74
   2   7   3   45.06    1.19
  -3  -7  -3    6.88    0.47
  -3  -7  -3    7.43    0.74
  -3  -7  -3    7.08    0.83
  -3  -7  -3    7.76    0.88
  -3  -7  -3    6.30    1.16
  -3  -7  -3    6.59    1.59
  -3  -7  -3    6.80    1.20
  -3  -7  -3    5.85    0.53
  -3  -7  -3    6.09    0.79
  -3  -7  -3    8.12    0.79
  -4  -7  -3  164.16    3.49
  -4  -7  -3  150.03    4.15
  -4  -7  -3  158.45    3.75
  -4  -7  -3  157.69    3.50
  -4  -7  -3  160.01    3.60
  -4  -7  -3  157.46    4.14
  -4  -7  -3  153.59    3.40
  -4  -7  -3  162.17    3.52
  -4  -7  -3  154.09    3.57
  -5  -7  -3    2.54    0.86
  -5  -7  -3    3.02    1.12
  -5  -7  -3    4.63    0.92
  -5  -7  -3    3.61    1.28
  -5  -7  -3    3.52    0.45
  -5  -7  -3    3.91    0.93
  -5  -7  -3    3.15    0.74
  -5  -7  -3    3.25    0.53
  -6  -7  -3   -0.97    1.16
  -6  -7  -3   -0.40    1.21
  -6  -7  -3    0.11    1.32
  -6  -7  -3   -0.77    1.03
  -6  -7  -3    1.18    0.93
  -6  -7  -3   -0.95    1.14
  -7  -7  -3   -0.61    1.48
  -7  -7  -3    1.87    1.12
  -7  -7  -3    1.04    1.55
  -7  -7  -3    3.23    1.54
  -7  -7  -3    0.11    1.35
  -7  -7  -3   -0.42    1.50
  -7  -7  -3    1.24    1.20
   3  -8  -3    4.30    2.21
   3  -8  -3    2.47    2.04
   3  -8  -3    5.49    1.91
   3  -8  -3    1.20    1.59
   3  -8  -3    0.53    3.11
   3  -8  -3    1.20    2.32
  -3   8   3    0.58    1.88
  -3   8   3    2.19    1.61
   2  -8  -3    9.83    2.10
   2  -8  -3   11.32    1.70
   2  -8  -3   10.38    1.93
   2  -8  -3    9.85    1.58
   2  -8  -3    7.06    1.86
   2  -8  -3    5.63    1.72
   2  -8  -3    7.86    1.72
  -2   8   3    8.88    1.63
  -2   8   3    6.89    1.62
  -2   8   3    7.80    1.62
  -2   8   3    3.18    1.40
  -2   8   3    8.93    2.05
  -2   8   3    9.31    1.41
   1  -8  -3   13.70    1.72
   1  -8  -3   14.54    1.61
   1  -8  -3   16.22    1.81
   1  -8  -3   13.10    1.45
   1  -8  -3   15.17    1.57
   1  -8  -3   14.69    1.69
   1  -8  -3   17.36    1.82
  -1   8   3   15.95    1.46
  -1   8   3   15.54    1.33
  -1   8   3   13.13    1.47
  -1   8   3   14.15    1.36
  -1   8   3   14.67    1.51
  -1   8   3   14.67    1.28
   0  -8  -3   17.07    1.72
   0  -8  -3   15.47    1.68
   0  -8  -3   15.96    1.74
   0  -8  -3   15.52    1.69
   0  -8  -3   16.39    1.48
   0  -8  -3   16.96    1.52
   0  -8  -3   16.44    1.69
   0  -8  -3   18.46    1.38
   0   8   3   16.00    1.09
   0   8   3   14.04    1.21
   0   8   3   15.26    1.17
   0   8   3   16.35    1.42
   0   8   3   16.28    1.33
   0   8   3   18.12    1.23
  -1  -8  -3   14.03    1.64
  -1  -8  -3   14.57    1.24
  -1  -8  -3   16.60    1.61
  -1  -8  -3   11.85    1.20
  -1  -8  -3   11.43    1.31
  -1  -8  -3   13.49    1.30
  -1  -8  -3   15.43    1.52
  -1  -8  -3   11.22    1.46
   1   8   3   12.26    0.93
   1   8   3   11.58    1.22
   1   8   3   14.02    1.01
   1   8   3   12.63    1.18
   1   8   3   14.01    1.14
   1   8   3   12.72    0.82
  -2  -8  -3    1.26    1.39
  -2  -8  -3    2.24    1.16
  -2  -8  -3    0.51    1.42
  -2  -8  -3   -1.07    1.14
  -2  -8  -3   -1.12    0.83
  -2  -8  -3   -0.33    0.98
  -2  -8  -3    0.01    0.89
  -2  -8  -3    0.21    1.04
   2   8   3    0.19    0.38
  -3  -8  -3   -0.90    0.86
  -3  -8  -3    1.73    1.42
  -3  -8  -3   -0.35    0.80
  -3  -8  -3    0.41    0.90
  -3  -8  -3   -0.39    1.45
  -3  -8  -3    2.14    1.54
  -3  -8  -3   -1.48    1.12
  -3  -8  -3    0.62    0.97
  -4  -8  -3   14.84    1.22
  -4  -8  -3   15.68    1.11
  -4  -8  -3   14.17    1.40
  -4  -8  -3   14.67    1.28
  -4  -8  -3   17.76    1.45
  -4  -8  -3   13.22    1.67
  -4  -8  -3   12.21    1.59
  -4  -8  -3   15.80    0.94
  -4  -8  -3   14.07    0.98
  -4  -8  -3   14.61    1.07
  -5  -8  -3  104.19    3.76
  -5  -8  -3   91.04    2.25
  -5  -8  -3   90.99    2.52
  -5  -8  -3   91.59    2.66
  -5  -8  -3   93.95    2.66
  -5  -8  -3   94.29    3.87
  -5  -8  -3   98.76    3.18
  -5  -8  -3   98.83    2.57
  -5  -8  -3   89.47    3.06
  -5  -8  -3   94.13    2.37
  -6  -8  -3   -1.67    1.14
  -6  -8  -3    1.05    1.34
  -6  -8  -3   -1.43    1.38
  -6  -8  -3   -0.81    1.72
  -6  -8  -3   -1.01    1.32
  -6  -8  -3    0.42    1.21
  -6  -8  -3    0.48    1.90
   0  -9  -3    1.26    2.45
   0  -9  -3    2.67    1.68
   0  -9  -3    1.32    1.68
   0  -9  -3    0.54    1.89
   0  -9  -3    1.36    2.12
   0  -9  -3    2.58    2.09
   0   9   3    0.35    1.52
   0   9   3    1.78    1.34
   0   9   3    1.87    1.44
   0   9   3    0.61    1.21
   0   9   3   -0.24    1.38
  -1  -9  -3    8.68    2.02
  -1  -9  -3   10.84    1.70
  -1  -9  -3    9.03    1.57
  -1  -9  -3   11.31    1.62
  -1  -9  -3   11.80    1.97
  -1  -9  -3    9.53    1.87
  -1  -9  -3    9.13    1.83
  -1  -9  -3    9.53    2.18
   1   9   3    8.32    0.91
   1   9   3    8.45    1.38
   1   9   3    9.68    1.07
   1   9   3   11.22    1.56
   1   9   3   11.11    1.01
   1   9   3    9.18    1.18
  -2  -9  -3    6.12    1.45
  -2  -9  -3    1.86    1.74
  -2  -9  -3    3.80    1.71
  -2  -9  -3    6.12    1.76
  -2  -9  -3    4.68    1.52
  -2  -9  -3    5.88    1.38
  -2  -9  -3    7.46    1.98
  -2  -9  -3    6.16    2.02
  -3  -9  -3   14.24    1.42
  -3  -9  -3   13.37    1.52
  -3  -9  -3   12.23    2.16
  -3  -9  -3   13.29    1.47
  -3  -9  -3   16.12    1.87
  -3  -9  -3   16.34    1.75
  -3  -9  -3   13.63    2.28
  -4  -9  -3   10.79    1.22
  -4  -9  -3   11.50    1.79
  -4  -9  -3   15.19    1.65
  -4  -9  -3   14.61    1.66
  -4  -9  -3    9.92    1.52
   3   8  -4    9.69    1.22
   3   8  -4   11.58    1.77
   3   8  -4    6.47    1.46
  -3  -8   4    8.35    0.93
  -3  -8   4   10.10    1.20
  -3  -8   4    7.34    1.59
   2   8  -4    6.75    1.42
   2   8  -4    3.45    1.55
   2   8  -4    6.35    1.74
   2   8  -4    4.80    1.20
  -2  -8   4    5.44    0.75
  -2  -8   4    2.60    1.68
  -2  -8   4    1.80    1.48
  -2  -8   4    5.01    1.79
  -2  -8   4    5.52    1.51
  -2  -8   4    3.61    1.33
  -2  -8   4    4.37    1.43
   1   8  -4    8.23    1.79
   1   8  -4    3.82    1.56
   1   8  -4    4.78    1.56
   1   8  -4    3.36    0.98
   1   8  -4    4.91    1.27
   1   8  -4    3.52    1.20
  -1  -8   4    5.33    2.06
  -1  -8   4    4.34    1.57
  -1  -8   4    2.45    1.33
  -1  -8   4    5.06    1.62
  -1  -8   4    2.59    1.24
  -1  -8   4    4.32    1.51
  -1  -8   4    7.57    1.70
   0   8  -4    2.22    1.47
   0   8  -4    0.80    1.90
   0   8  -4    1.90    1.07
   0   8  -4    2.51    1.27
   0   8  -4    3.40    1.85
   0   8  -4    3.04    1.40
   0  -8   4    3.04    1.73
   0  -8   4   -0.05    1.65
   0  -8   4    1.70    2.13
   0  -8   4    2.39    1.53
   0  -8   4   -0.46    1.61
   0  -8   4    3.56    1.47
   0  -8   4    2.31    1.73
  -1   8  -4   14.41    1.51
  -1   8  -4   16.09    2.27
  -1   8  -4    2.35    2.46
  -1   8  -4   16.47    1.67
   1  -8   4   17.10    2.10
   1  -8   4   15.73    2.11
   1  -8   4   16.30    1.90
   1  -8   4   17.04    2.04
   1  -8   4   19.26    2.50
   1  -8   4   18.82    1.94
  -2   8  -4    2.45    1.73
   2  -8   4    4.02    2.17
   5   7  -4    0.88    0.94
   5   7  -4    0.04    1.27
   5   7  -4    2.23    1.13
   5   7  -4    0.06    0.97
  -5  -7   4    0.87    1.19
  -5  -7   4    1.32    1.43
  -5  -7   4    0.00    1.60
  -5  -7   4    0.67    1.17
  -5  -7   4    0.30    1.06
  -5  -7   4   -0.14    1.50
   4   7  -4   -0.95    1.58
   4   7  -4    1.85    1.10
   4   7  -4    2.58    0.99
   4   7  -4    1.09    1.30
   4   7  -4    0.11    0.91
  -4  -7   4   -0.53    1.24
  -4  -7   4   -0.08    1.13
  -4  -7   4    0.29    0.94
  -4  -7   4    1.27    1.11
  -4  -7   4    1.27    0.83
  -4  -7   4    1.63    1.38
  -4  -7   4    2.13    1.23
   3   7  -4   -0.94    1.29
   3   7  -4    2.47    1.33
   3   7  -4    0.45    1.10
   3   7  -4    0.05    0.88
   3   7  -4    0.73    0.86
  -3  -7   4    2.20    0.99
  -3  -7   4   -0.11    1.05
  -3  -7   4    1.30    1.16
  -3  -7   4    0.05    1.06
  -3  -7   4    0.19    0.65
  -3  -7   4   -0.07    0.77
  -3  -7   4    0.05    1.20
  -3  -7   4    0.33    1.06
   2   7  -4    0.57    0.82
   2   7  -4    0.31    0.75
   2   7  -4   -0.70    0.87
   2   7  -4   -1.30    1.12
   2   7  -4   -1.01    1.00
   2   7  -4    0.63    1.30
  -2  -7   4   -0.22    1.16
  -2  -7   4    0.64    0.54
  -2  -7   4   -1.00    0.92
  -2  -7   4    1.12    0.95
  -2  -7   4    0.96    1.02
  -2  -7   4    0.34    1.05
  -2  -7   4   -1.49    1.10
  -2  -7   4    1.02    1.09
   1   7  -4    8.67    1.17
   1   7  -4    7.57    0.91
   1   7  -4    7.55    0.82
   1   7  -4    7.71    1.00
   1   7  -4    7.08    1.36
   1   7  -4    7.62    0.95
   1   7  -4    7.18    1.49
  -1  -7   4    8.89    0.60
  -1  -7   4    6.81    1.22
  -1  -7   4    8.99    1.12
  -1  -7   4    8.26    1.11
  -1  -7   4    6.20    1.02
  -1  -7   4    6.63    1.25
  -1  -7   4    9.70    1.24
  -1  -7   4    7.29    1.28
   0   7  -4    3.28    0.81
   0   7  -4    3.17    1.19
   0   7  -4    3.80    0.68
   0   7  -4    4.05    0.97
   0   7  -4    3.39    1.08
   0   7  -4    5.46    1.44
   0  -7   4    2.61    1.15
   0  -7   4    3.49    1.29
   0  -7   4    4.22    1.18
   0  -7   4    3.79    1.13
   0  -7   4    3.43    1.08
   0  -7   4    3.92    1.28
   0  -7   4    3.55    1.41
  -1   7  -4   20.99    1.45
  -1   7  -4   21.32    2.02
  -1   7  -4   16.95    1.79
  -1   7  -4   20.80    1.47
  -1   7  -4   19.19    1.79
  -1   7  -4   24.22    1.84
   1  -7   4   22.05    1.56
   1  -7   4   22.06    1.64
   1  -7   4   25.23    1.75
   1  -7   4   22.00    1.65
   1  -7   4   20.96    1.51
   1  -7   4   17.83    1.42
   1  -7   4   19.63    1.78
  -2   7  -4    1.78    1.40
  -2   7  -4    1.03    1.30
  -2   7  -4   -1.95    1.23
  -2   7  -4    1.11    1.19
  -2   7  -4   -0.11    1.64
  -2   7  -4    0.79    1.71
   2  -7   4    2.60    1.50
   2  -7   4   -0.51    1.19
   2  -7   4    0.41    1.55
   2  -7   4    1.40    1.54
   2  -7   4    2.37    1.47
   2  -7   4   -1.29    1.28
   2  -7   4   -0.83    1.62
  -3   7  -4    9.32    1.81
  -3   7  -4    9.42    1.60
  -3   7  -4    7.10    1.59
  -3   7  -4    9.97    2.24
  -3   7  -4    8.49    1.54
  -3   7  -4    9.14    2.18
   3  -7   4   11.33    1.83
   3  -7   4   12.55    1.95
   3  -7   4   12.63    2.09
   3  -7   4   11.01    2.35
   3  -7   4    9.45    1.84
   3  -7   4   10.70    1.41
   3  -7   4    7.13    1.57
  -4   7  -4    2.80    2.22
  -4   7  -4    1.02    2.15
  -4   7  -4    0.06    2.00
  -4   7  -4    2.62    2.03
   4  -7   4   -1.26    2.24
   4  -7   4   -0.57    1.54
   4  -7   4    1.94    1.36
   4  -7   4   -1.29    2.14
   4  -7   4    0.95    3.00
   4  -7   4    3.14    2.16
   6   6  -4    7.82    0.95
   6   6  -4    7.11    2.23
   6   6  -4    8.60    1.20
   6   6  -4    6.46    0.94
   6   6  -4    8.09    1.18
  -6  -6   4    8.57    1.21
  -6  -6   4    5.19    1.43
  -6  -6   4    9.55    1.50
  -6  -6   4    7.16    1.14
  -6  -6   4    6.44    1.37
  -6  -6   4   11.38    1.61
  -6  -6   4    5.90    1.50
   5   6  -4    5.03    1.13
   5   6  -4    4.30    0.96
   5   6  -4    4.87    1.04
   5   6  -4    5.83    0.93
   5   6  -4    5.88    1.71
  -5  -6   4    3.90    1.29
  -5  -6   4    5.15    1.01
  -5  -6   4    4.94    0.86
  -5  -6   4    3.64    1.16
  -5  -6   4    5.54    0.98
  -5  -6   4    6.28    1.18
  -5  -6   4    6.11    1.00
   4   6  -4   31.69    1.52
   4   6  -4   32.55    1.60
   4   6  -4   35.32    1.96
   4   6  -4   31.23    1.80
  -4  -6   4   33.27    1.86
  -4  -6   4   32.11    1.55
  -4  -6   4   33.91    1.82
  -4  -6   4   30.58    1.54
  -4  -6   4   31.89    1.79
  -4  -6   4   32.00    1.67
  -4  -6   4   33.98    2.09
   3   6  -4   12.29    1.10
   3   6  -4   13.17    1.23
   3   6  -4   13.28    1.21
   3   6  -4   13.54    1.23
   3   6  -4   13.74    0.90
  -3  -6   4   13.68    0.94
  -3  -6   4   12.69    0.95
  -3  -6   4   13.93    0.81
  -3  -6   4   12.88    1.05
  -3  -6   4   13.34    1.10
  -3  -6   4   11.22    1.10
  -3  -6   4   16.07    1.05
  -3  -6   4   12.52    1.22
   2   6  -4    1.39    0.59
   2   6  -4    0.97    0.87
   2   6  -4    1.16    1.05
   2   6  -4    2.58    0.72
   2   6  -4    1.69    0.92
   2   6  -4    2.23    0.67
  -2  -6   4    1.44    0.81
  -2  -6   4    1.91    0.85
  -2  -6   4    2.44    0.75
  -2  -6   4    2.14    0.76
  -2  -6   4    1.61    0.48
  -2  -6   4    1.07    0.65
  -2  -6   4    1.66    0.87
  -2  -6   4    2.25    0.84
   1   6  -4   33.11    1.60
   1   6  -4   30.35    2.02
   1   6  -4   33.62    1.96
   1   6  -4   32.79    1.35
   1   6  -4   31.40    1.40
   1   6  -4   34.08    1.51
   1   6  -4   34.89    1.44
  -1  -6   4   33.25    1.59
  -1  -6   4   32.54    1.04
  -1  -6   4   35.08    1.79
  -1  -6   4   31.94    1.79
  -1  -6   4   31.73    1.86
  -1  -6   4   33.72    1.51
  -1  -6   4   33.25    1.58
  -1  -6   4   32.29    1.76
   0   6  -4    9.43    1.04
   0   6  -4   10.85    0.73
   0   6  -4   11.97    1.23
   0   6  -4   10.48    1.20
   0   6  -4   10.71    0.95
   0   6  -4   10.37    0.93
   0   6  -4    8.69    0.74
   0  -6   4   11.58    0.81
   0  -6   4    9.80    1.05
   0  -6   4   12.15    1.09
   0  -6   4   10.28    1.01
   0  -6   4   10.97    1.16
   0  -6   4   11.46    0.94
   0  -6   4   11.13    1.02
   0  -6   4    9.82    1.00
  -1   6  -4   18.04    1.45
  -1   6  -4   17.00    0.93
  -1   6  -4   18.41    1.50
  -1   6  -4   18.42    1.59
  -1   6  -4   17.87    1.47
  -1   6  -4   19.42    1.64
  -1   6  -4   20.46    1.54
   1  -6   4   18.47    1.54
   1  -6   4   15.78    1.10
   1  -6   4   20.42    1.32
   1  -6   4   17.41    1.16
   1  -6   4   16.22    1.41
   1  -6   4   18.85    1.28
  -2   6  -4   21.04    1.57
  -2   6  -4   25.37    1.72
  -2   6  -4   24.59    1.80
  -2   6  -4   21.81    0.97
  -2   6  -4   21.14    1.80
  -2   6  -4   25.16    2.37
  -2   6  -4   25.73    2.04
   2  -6   4   27.20    2.12
   2  -6   4   19.93    1.45
   2  -6   4   22.73    1.74
   2  -6   4   25.58    2.02
   2  -6   4   24.49    1.54
   2  -6   4   24.21    1.85
   2  -6   4   24.84    1.58
  -3   6  -4   12.22    1.64
  -3   6  -4   14.12    1.60
  -3   6  -4   15.25    1.40
  -3   6  -4   14.48    0.93
  -3   6  -4   15.03    1.33
  -3   6  -4   12.44    0.94
  -3   6  -4   13.42    1.48
  -3   6  -4   15.58    1.72
   3  -6   4   12.91    1.13
   3  -6   4   13.94    1.59
   3  -6   4   16.38    1.61
   3  -6   4   11.35    1.22
   3  -6   4   11.35    1.69
   3  -6   4   16.56    1.56
   3  -6   4   14.63    1.58
  -4   6  -4   17.32    2.03
  -4   6  -4   20.53    2.23
  -4   6  -4   19.82    1.60
  -4   6  -4   20.44    1.18
  -4   6  -4   23.78    1.88
  -4   6  -4   19.20    2.13
  -4   6  -4   21.32    1.25
  -4   6  -4   19.78    1.64
   4  -6   4   18.01    1.60
   4  -6   4   21.97    1.93
   4  -6   4   21.18    1.95
   4  -6   4   19.82    1.34
   4  -6   4   16.25    1.82
   4  -6   4   19.99    1.23
  -5   6  -4   11.15    1.68
  -5   6  -4   10.32    2.34
  -5   6  -4   10.54    0.97
  -5   6  -4    9.03    2.09
  -5   6  -4   11.73    1.38
  -5   6  -4   10.29    2.09
  -5   6  -4   10.23    1.98
  -5   6  -4   11.53    2.55
   5  -6   4    7.94    2.24
   5  -6   4   11.77    1.21
   5  -6   4   18.44    2.67
   5  -6   4   11.60    2.21
   5  -6   4    8.90    1.78
   5  -6   4   11.57    1.07
   5  -6   4    7.30    2.18
   5  -6   4    9.81    1.92
   7   5  -4    4.64    0.96
   7   5  -4    7.28    1.80
   7   5  -4    2.95    1.32
   7   5  -4    5.45    1.04
   7   5  -4    5.65    1.14
  -7  -5   4    4.51    1.23
  -7  -5   4    3.11    1.50
  -7  -5   4    5.77    1.12
  -7  -5   4    6.00    1.48
  -7  -5   4    5.42    1.94
  -7  -5   4    3.18    1.41
  -7  -5   4    3.10    1.56
   6   5  -4    6.60    1.06
   6   5  -4    9.55    1.55
   6   5  -4    8.85    1.01
   6   5  -4    8.29    1.18
   6   5  -4    8.02    0.96
   6   5  -4    6.63    1.91
  -6  -5   4    8.21    1.25
  -6  -5   4    5.46    1.29
  -6  -5   4    8.91    1.03
  -6  -5   4    7.80    1.28
  -6  -5   4    7.50    1.18
  -6  -5   4    7.44    0.95
  -6  -5   4    8.16    1.02
   5   5  -4   83.12    2.42
   5   5  -4   86.71    3.18
   5   5  -4   88.03    2.99
   5   5  -4   84.71    2.43
   5   5  -4   83.85    2.38
   5   5  -4   81.58    2.44
  -5  -5   4   87.05    2.58
  -5  -5   4   84.53    2.68
  -5  -5   4   85.32    2.51
  -5  -5   4   86.83    2.42
  -5  -5   4   82.35    2.28
  -5  -5   4   81.62    2.34
   4   5  -4   55.88    1.90
   4   5  -4   53.87    1.77
   4   5  -4   57.99    2.38
   4   5  -4   57.11    2.28
   4   5  -4   56.45    1.91
   4   5  -4   54.46    1.76
  -4  -5   4   54.71    1.89
  -4  -5   4   55.89    2.05
  -4  -5   4   55.37    1.93
  -4  -5   4   55.58    1.72
  -4  -5   4   53.66    2.02
  -4  -5   4   54.55    1.76
  -4  -5   4   55.08    1.86
   3   5  -4  117.51    2.80
   3   5  -4  117.84    2.93
   3   5  -4  120.03    3.06
   3   5  -4  113.37    2.95
   3   5  -4  117.34    2.73
   3   5  -4  114.43    3.15
  -3  -5   4  115.79    2.91
  -3  -5   4  117.96    2.94
  -3  -5   4  120.26    2.94
  -3  -5   4  115.63    3.02
  -3  -5   4  113.20    2.70
  -3  -5   4  121.82    2.84
  -3  -5   4  116.08    2.80
   2   5  -4  125.26    2.83
   2   5  -4  126.15    3.09
   2   5  -4  123.73    2.91
   2   5  -4  108.98    3.38
   2   5  -4  127.08    2.99
   2   5  -4  123.77    3.22
   2   5  -4  124.46    2.72
  -2  -5   4  120.98    2.99
  -2  -5   4  127.77    2.97
  -2  -5   4  126.03    3.09
  -2  -5   4  124.82    2.97
  -2  -5   4  124.86    3.13
  -2  -5   4  127.60    2.78
  -2  -5   4  126.29    3.13
  -2  -5   4  122.09    2.75
   1   5  -4    2.82    0.65
   1   5  -4    2.34    0.49
   1   5  -4    1.88    0.76
   1   5  -4    2.32    0.61
   1   5  -4    2.21    0.80
   1   5  -4    3.13    0.54
   1   5  -4    2.51    0.59
  -1  -5   4    2.08    0.65
  -1  -5   4    2.23    0.56
  -1  -5   4    1.68    0.62
  -1  -5   4    2.51    0.67
  -1  -5   4    1.84    0.72
  -1  -5   4    2.30    0.67
  -1  -5   4    2.01    0.61
  -1  -5   4    2.70    0.40
   0   5  -4  147.94    3.47
   0   5  -4  154.08    3.43
   0   5  -4  148.15    3.28
   0   5  -4  151.35    3.55
   0   5  -4  153.69    3.50
   0   5  -4  152.48    3.79
   0   5  -4  156.01    3.73
   0  -5   4  155.64    3.58
   0  -5   4  152.33    3.57
   0  -5   4  155.75    3.69
   0  -5   4  152.37    3.75
   0  -5   4  147.40    3.54
   0  -5   4  154.39    3.53
   0  -5   4  152.90    3.25
   0  -5   4  156.81    3.63
  -1   5  -4   78.06    2.58
  -1   5  -4   80.17    2.11
  -1   5  -4   76.46    2.44
  -1   5  -4   77.81    1.80
  -1   5  -4   76.73    2.19
  -1   5  -4   77.10    2.26
   1  -5   4   73.63    2.28
   1  -5   4   74.13    2.52
   1  -5   4   77.09    2.33
   1  -5   4   75.54    1.84
   1  -5   4   75.82    2.26
   1  -5   4   77.61    2.40
   1  -5   4   76.99    2.23
   1  -5   4   77.69    2.14
  -2   5  -4    4.53    0.77
  -2   5  -4    3.49    1.08
  -2   5  -4    4.02    0.46
  -2   5  -4    3.05    0.80
  -2   5  -4    4.23    0.90
  -2   5  -4    3.85    0.98
  -2   5  -4    2.88    1.58
   2  -5   4    4.74    0.99
   2  -5   4    5.25    0.96
   2  -5   4    4.36    0.88
   2  -5   4    3.82    0.81
   2  -5   4    5.20    0.71
   2  -5   4    6.14    1.11
   2  -5   4    3.98    1.01
  -3   5  -4   65.38    1.62
  -3   5  -4   61.22    2.65
  -3   5  -4   61.91    2.76
  -3   5  -4   62.73    2.25
  -3   5  -4   62.97    2.39
  -3   5  -4   63.29    2.10
  -3   5  -4   65.78    2.49
   3  -5   4   63.04    2.31
   3  -5   4   64.14    2.45
   3  -5   4   65.63    2.56
   3  -5   4   62.97    2.42
   3  -5   4   61.37    2.45
   3  -5   4   64.06    2.67
   3  -5   4   64.05    1.91
  -4   5  -4   35.70    2.52
  -4   5  -4   30.11    2.68
  -4   5  -4   33.15    1.32
  -4   5  -4   33.25    2.17
  -4   5  -4   36.67    2.22
  -4   5  -4   35.36    1.76
  -4   5  -4   35.48    2.67
  -4   5  -4   31.06    1.91
   4  -5   4   35.05    2.55
   4  -5   4   32.33    2.14
   4  -5   4   31.75    2.61
   4  -5   4   36.27    2.01
   4  -5   4   33.93    2.36
   4  -5   4   34.53    1.45
   4  -5   4   35.28    2.40
   4  -5   4   34.81    1.56
  -5   5  -4   -0.01    1.09
  -5   5  -4   -0.29    1.76
  -5   5  -4    2.40    1.49
  -5   5  -4   -1.66    1.52
  -5   5  -4    1.06    1.72
  -5   5  -4    0.68    1.42
  -5   5  -4   -1.36    1.13
  -5   5  -4    1.85    0.81
   5  -5   4    2.00    1.20
   5  -5   4    1.64    0.76
   5  -5   4    0.20    1.82
   5  -5   4    0.45    1.33
   5  -5   4   -1.18    1.48
   5  -5   4    0.61    0.66
   5  -5   4    0.15    1.51
   5  -5   4   -1.65    1.53
  -6   5  -4    4.91    2.26
  -6   5  -4   -1.27    1.84
  -6   5  -4    0.58    1.61
  -6   5  -4   -1.18    1.51
  -6   5  -4    2.27    1.48
  -6   5  -4    3.17    2.13
  -6   5  -4    0.16    1.12
  -6   5  -4    1.02    1.53
   6  -5   4   -1.12    1.80
   6  -5   4   -1.01    1.90
   6  -5   4   -0.11    2.06
   6  -5   4    3.25    1.91
   6  -5   4    0.47    1.54
   6  -5   4   -3.26    2.00
   7   4  -4   24.00    1.71
   7   4  -4   28.17    1.84
   7   4  -4   28.35    1.67
   7   4  -4   24.55    2.35
   7   4  -4   29.44    1.77
   7   4  -4   28.22    2.02
  -7  -4   4   26.26    2.20
  -7  -4   4   27.61    1.61
  -7  -4   4   28.87    1.69
  -7  -4   4   26.82    1.85
  -7  -4   4   33.43    2.67
  -7  -4   4   29.45    1.93
   6   4  -4    3.69    1.62
   6   4  -4    3.45    1.12
   6   4  -4    3.06    1.11
   6   4  -4    4.66    0.92
   6   4  -4    4.57    0.96
   6   4  -4    3.19    0.82
  -6  -4   4    3.95    1.08
  -6  -4   4    3.97    0.90
  -6  -4   4    3.21    0.99
  -6  -4   4    3.39    0.85
  -6  -4   4    3.64    0.98
  -6  -4   4    2.26    0.72
  -6  -4   4    2.59    1.12
   5   4  -4  190.87    4.18
   5   4  -4  184.36    4.68
   5   4  -4  186.39    4.22
   5   4  -4  188.02    4.26
   5   4  -4  185.79    4.20
   5   4  -4  190.77    4.52
  -5  -4   4  187.00    4.30
  -5  -4   4  190.12    4.42
  -5  -4   4  185.05    4.30
  -5  -4   4  179.44    4.18
  -5  -4   4  186.05    4.23
  -5  -4   4  184.69    4.38
  -5  -4   4  192.40    4.34
   4   4  -4   41.12    1.98
   4   4  -4   43.07    1.80
   4   4  -4   39.49    1.49
   4   4  -4   39.73    1.47
   4   4  -4   42.33    1.46
   4   4  -4   37.75    1.44
  -4  -4   4   39.56    1.49
  -4  -4   4   40.53    1.33
  -4  -4   4   38.70    1.49
  -4  -4   4   40.81    1.56
  -4  -4   4   38.92    1.78
  -4  -4   4   40.72    1.43
  -4  -4   4   40.30    1.37
   3   4  -4    2.35    0.75
   3   4  -4    1.55    0.51
   3   4  -4    1.71    0.73
   3   4  -4    2.92    0.61
   3   4  -4    2.58    0.54
   3   4  -4    2.21    0.60
  -3  -4   4    1.05    0.59
  -3  -4   4    2.11    0.55
  -3  -4   4    1.53    0.57
  -3  -4   4    2.11    0.54
  -3  -4   4    1.33    0.50
  -3  -4   4    2.61    0.49
  -3  -4   4    2.04    0.57
   2   4  -4  260.05    5.66
   2   4  -4  261.57    5.60
   2   4  -4  262.58    5.49
   2   4  -4  263.95    5.52
   2   4  -4  260.11    5.41
   2   4  -4  259.87    5.28
   2   4  -4  258.40    5.53
  -2  -4   4  258.89    5.47
  -2  -4   4  265.18    5.51
  -2  -4   4  258.51    5.56
  -2  -4   4  257.60    5.38
  -2  -4   4  257.02    5.29
  -2  -4   4  257.15    5.47
  -2  -4   4  258.87    5.57
  -2  -4   4  259.57    5.56
   1   4  -4  176.55    3.73
   1   4  -4  176.37    3.94
   1   4  -4  173.98    3.96
   1   4  -4  178.52    3.81
   1   4  -4  174.27    3.72
   1   4  -4  175.00    3.69
   1   4  -4  170.35    3.92
   1   4  -4  154.81    3.98
  -1  -4   4  175.21    3.87
  -1  -4   4  177.38    3.75
  -1  -4   4  168.77    3.79
  -1  -4   4  177.34    3.90
  -1  -4   4  176.74    3.81
  -1  -4   4  175.45    3.64
  -1  -4   4  174.53    3.82
  -1  -4   4  173.05    3.91
   0   4  -4    7.60    0.68
   0   4  -4   10.85    0.87
   0   4  -4    8.92    0.72
   0   4  -4    9.16    0.89
   0   4  -4    9.51    0.82
   0   4  -4    9.32    0.64
   0   4  -4    9.62    0.76
   0   4  -4   10.80    0.78
   0  -4   4    8.65    0.77
   0  -4   4   11.02    0.78
   0  -4   4   11.18    0.74
   0  -4   4    9.49    0.74
   0  -4   4    9.12    0.66
   0  -4   4   10.26    0.56
   0  -4   4    9.23    0.70
   0  -4   4   10.46    0.83
  -1   4  -4   70.50    1.95
  -1   4  -4   70.87    1.95
  -1   4  -4   71.17    1.65
  -1   4  -4   74.92    2.21
  -1   4  -4   71.20    2.14
  -1   4  -4   73.49    1.87
  -1   4  -4   72.18    2.00
  -1   4  -4   70.51    1.87
   1  -4   4   70.08    2.07
   1  -4   4   71.51    1.99
   1  -4   4   73.67    1.89
   1  -4   4   73.19    2.02
   1  -4   4   70.04    1.87
   1  -4   4   72.10    2.15
   1  -4   4   69.99    1.69
   1  -4   4   70.28    1.96
  -2   4  -4    2.76    0.76
  -2   4  -4    3.49    0.81
  -2   4  -4    2.90    0.84
  -2   4  -4    2.47    0.52
  -2   4  -4    2.88    0.38
  -2   4  -4    3.14    0.61
  -2   4  -4    3.02    0.68
   2  -4   4    3.61    0.72
   2  -4   4    2.36    0.78
   2  -4   4    3.05    0.59
   2  -4   4    2.96    0.71
   2  -4   4    2.80    0.53
   2  -4   4    2.82    0.68
   2  -4   4    1.78    0.62
  -3   4  -4    1.36    0.86
  -3   4  -4    2.65    0.76
  -3   4  -4    1.56    0.43
  -3   4  -4    2.05    0.80
  -3   4  -4    1.14    0.84
  -3   4  -4    1.19    0.99
  -3   4  -4    1.54    0.59
   3  -4   4    1.70    0.83
   3  -4   4    1.77    0.50
   3  -4   4    1.28    0.79
   3  -4   4    1.47    0.79
   3  -4   4    1.41    0.79
   3  -4   4    1.55    0.78
   3  -4   4    2.66    0.86
  -4   4  -4   50.29    2.44
  -4   4  -4   49.58    2.47
  -4   4  -4   52.29    2.04
  -4   4  -4   52.64    2.13
  -4   4  -4   51.15    1.54
  -4   4  -4   53.50    1.90
  -4   4  -4   52.59    2.35
   4  -4   4   51.22    2.11
   4  -4   4   51.20    2.50
   4  -4   4   49.61    2.12
   4  -4   4   52.66    2.17
   4  -4   4   48.86    1.45
   4  -4   4   53.95    1.94
   4  -4   4   55.25    2.30
  -5   4  -4   19.30    1.73
  -5   4  -4   18.47    1.36
  -5   4  -4   18.52    1.76
  -5   4  -4   14.34    1.12
  -5   4  -4   13.09    1.17
  -5   4  -4   15.20    1.37
  -5   4  -4   14.26    1.53
  -5   4  -4   17.13    1.27
   5  -4   4   13.50    1.24
   5  -4   4   16.29    1.47
   5  -4   4   16.14    1.30
   5  -4   4   19.78    1.50
   5  -4   4   16.15    1.70
   5  -4   4   16.02    0.90
   5  -4   4   16.36    1.47
   5  -4   4   15.97    0.85
  -6   4  -4  241.31    5.70
  -6   4  -4  239.41    6.25
  -6   4  -4  233.61    5.68
  -6   4  -4  244.50    5.42
  -6   4  -4  250.51    6.43
  -6   4  -4  231.37    6.00
  -6   4  -4  240.81    6.32
  -6   4  -4  241.37    5.85
   6  -4   4  250.36    6.05
   6  -4   4  234.22    6.30
   6  -4   4  252.55    6.13
   6  -4   4  238.18    5.98
   6  -4   4  239.57    5.98
   6  -4   4  236.11    5.79
  -7   4  -4   17.00    2.86
  -7   4  -4   19.17    2.08
  -7   4  -4   13.16    2.20
  -7   4  -4   16.26    2.69
  -7   4  -4   16.83    1.87
  -7   4  -4   13.67    1.83
  -7   4  -4   18.77    2.61
  -7   4  -4   15.22    1.61
   7  -4   4   16.61    2.00
   7  -4   4   18.95    2.22
   7  -4   4   18.03    2.26
   7  -4   4   13.52    2.46
   7  -4   4   20.01    2.18
   8   3  -4   17.59    2.14
   8   3  -4   18.36    1.38
   8   3  -4   16.32    1.72
   8   3  -4   14.79    1.58
  -8  -3   4   13.02    1.47
  -8  -3   4   16.53    1.50
   7   3  -4  103.53    3.29
   7   3  -4  108.94    4.20
   7   3  -4  101.03    3.14
   7   3  -4   99.72    2.80
   7   3  -4  107.71    2.83
   7   3  -4  100.81    3.22
  -7  -3   4  107.07    3.01
  -7  -3   4  101.61    2.90
  -7  -3   4  106.47    3.23
  -7  -3   4  106.52    3.45
  -7  -3   4  105.82    3.46
  -7  -3   4  103.42    3.04
   6   3  -4   30.69    1.48
   6   3  -4   31.06    1.94
   6   3  -4   31.61    2.63
   6   3  -4   29.96    1.50
   6   3  -4   30.26    1.85
   6   3  -4   31.44    1.74
  -6  -3   4   31.85    1.93
  -6  -3   4   29.99    1.47
  -6  -3   4   34.95    2.10
  -6  -3   4   30.94    1.63
  -6  -3   4   29.26    1.96
  -6  -3   4   29.97    1.59
   5   3  -4    3.33    1.00
   5   3  -4    4.81    0.77
   5   3  -4    3.84    0.82
   5   3  -4    3.10    0.63
   5   3  -4    3.78    1.14
   5   3  -4    3.28    0.66
  -5  -3   4    4.57    0.81
  -5  -3   4    4.15    0.60
  -5  -3   4    3.53    0.69
  -5  -3   4    4.32    0.70
  -5  -3   4    3.48    0.77
  -5  -3   4    3.58    0.66
   4   3  -4   14.88    0.96
   4   3  -4   13.73    1.08
   4   3  -4   13.62    1.04
   4   3  -4   12.57    0.96
   4   3  -4   13.08    1.06
   4   3  -4   12.68    0.89
  -4  -3   4   14.08    1.06
  -4  -3   4   14.27    1.11
  -4  -3   4   13.46    0.96
  -4  -3   4   13.52    0.95
  -4  -3   4   13.01    1.05
  -4  -3   4   12.91    0.83
  -4  -3   4   12.07    0.93
   3   3  -4    6.86    0.66
   3   3  -4    8.70    0.63
   3   3  -4    8.50    0.76
   3   3  -4    6.87    0.59
   3   3  -4    8.10    0.58
   3   3  -4    8.51    0.64
  -3  -3   4    6.97    0.59
  -3  -3   4    6.56    0.56
  -3  -3   4    6.73    0.59
  -3  -3   4    8.59    0.65
  -3  -3   4    7.16    0.52
  -3  -3   4    8.02    0.52
  -3  -3   4    6.35    0.53
   2   3  -4   40.86    1.37
   2   3  -4   43.49    1.36
   2   3  -4   44.32    1.22
   2   3  -4   40.97    1.33
  -2  -3   4   42.87    1.23
  -2  -3   4   44.83    1.25
  -2  -3   4   43.09    1.32
  -2  -3   4   43.96    1.21
  -2  -3   4   44.51    1.19
  -2  -3   4   42.32    1.27
  -2  -3   4   43.99    1.33
   1   3  -4  215.82    4.49
   1   3  -4  215.45    4.40
   1   3  -4  213.43    4.62
   1   3  -4  210.41    4.60
   1   3  -4  219.22    4.54
   1   3  -4  217.33    4.56
   1   3  -4  208.48    4.45
   1   3  -4  215.87    4.47
  -1  -3   4  212.61    4.57
  -1  -3   4  211.20    4.58
  -1  -3   4  215.46    4.50
  -1  -3   4  216.14    4.55
  -1  -3   4  212.24    4.39
  -1  -3   4  210.60    4.51
  -1  -3   4  213.47    4.49
  -1  -3   4  209.55    4.41
   0   3  -4    9.06    0.74
   0   3  -4    9.09    0.54
   0   3  -4    9.51    0.61
   0   3  -4    8.79    0.62
   0   3  -4    9.25    0.71
   0   3  -4    9.14    0.61
   0   3  -4    9.10    0.67
   0  -3   4    8.36    0.64
   0  -3   4   10.24    0.80
   0  -3   4    8.16    0.69
   0  -3   4    9.01    0.68
   0  -3   4    9.18    0.79
   0  -3   4    8.51    0.61
   0  -3   4   10.02    0.50
   0  -3   4    9.96    0.72
  -1   3  -4   53.26    1.28
  -1   3  -4   52.30    1.46
  -1   3  -4   52.45    1.60
  -1   3  -4   54.37    1.68
  -1   3  -4   52.17    1.40
  -1   3  -4   51.99    1.43
  -1   3  -4   53.59    1.51
   1  -3   4   53.47    1.40
   1  -3   4   52.26    1.60
   1  -3   4   53.38    1.31
   1  -3   4   54.37    1.53
   1  -3   4   53.07    1.52
   1  -3   4   53.99    1.50
   1  -3   4   54.37    1.42
  -2   3  -4    8.02    0.72
  -2   3  -4    8.56    0.78
  -2   3  -4   10.05    0.70
  -2   3  -4    9.42    0.65
  -2   3  -4    8.86    0.60
  -2   3  -4   10.42    0.55
  -2   3  -4   10.40    0.94
  -2   3  -4    9.75    0.73
   2  -3   4    8.11    0.70
   2  -3   4    9.07    0.68
   2  -3   4    7.65    0.66
   2  -3   4    9.06    0.77
   2  -3   4    8.46    0.78
   2  -3   4    9.88    0.65
   2  -3   4    9.08    0.70
   2  -3   4    8.14    0.59
  -3   3  -4   69.30    2.05
  -3   3  -4   68.53    1.71
  -3   3  -4   72.31    1.97
  -3   3  -4   68.62    2.18
  -3   3  -4   70.76    2.13
  -3   3  -4   68.03    2.23
  -3   3  -4   70.60    1.87
   3  -3   4   69.67    2.03
   3  -3   4   71.36    2.22
   3  -3   4   70.15    2.11
   3  -3   4   71.24    2.03
   3  -3   4   69.59    2.05
   3  -3   4   72.19    1.91
   3  -3   4   71.34    1.67
  -4   3  -4    2.97    0.74
  -4   3  -4    2.11    0.89
  -4   3  -4    3.64    0.67
  -4   3  -4    4.69    1.36
  -4   3  -4    3.25    0.90
  -4   3  -4    3.11    0.90
  -4   3  -4    3.23    0.55
   4  -3   4    3.48    0.84
   4  -3   4    3.49    0.68
   4  -3   4    3.68    0.38
   4  -3   4    3.50    0.83
   4  -3   4    1.82    0.82
   4  -3   4    3.36    0.82
   4  -3   4    3.47    0.80
  -5   3  -4   34.42    1.92
  -5   3  -4   35.29    2.18
  -5   3  -4   31.50    2.19
  -5   3  -4   33.55    1.83
  -5   3  -4   32.37    2.21
  -5   3  -4   33.19    1.63
  -5   3  -4   34.76    1.47
   5  -3   4   35.31    1.94
   5  -3   4   33.06    1.76
   5  -3   4   35.78    1.96
   5  -3   4   32.00    2.13
   5  -3   4   25.08    2.19
   5  -3   4   32.86    1.65
  -6   3  -4    9.54    1.35
  -6   3  -4   11.92    1.33
  -6   3  -4   10.93    1.53
  -6   3  -4    9.97    1.35
  -6   3  -4   12.54    1.10
  -6   3  -4    9.65    1.10
  -6   3  -4    9.83    1.26
  -6   3  -4   12.68    1.66
   6  -3   4    9.11    1.38
   6  -3   4    9.56    1.28
   6  -3   4   10.02    1.34
   6  -3   4   11.44    1.23
   6  -3   4   11.90    1.40
   6  -3   4   10.52    1.33
  -7   3  -4   68.63    3.07
  -7   3  -4   66.92    2.79
  -7   3  -4   64.94    3.68
  -7   3  -4   67.66    3.58
  -7   3  -4   68.03    3.33
  -7   3  -4   68.79    3.93
  -7   3  -4   69.47    2.95
  -7   3  -4   66.72    3.09
   7  -3   4   63.89    2.93
   7  -3   4   69.69    3.38
   7  -3   4   65.86    2.97
   7  -3   4   69.27    3.33
   7  -3   4   68.59    3.14
  -8   3  -4   45.49    2.63
  -8   3  -4   47.88    3.07
  -8   3  -4   43.76    3.39
  -8   3  -4   56.35    4.94
   8   2  -4   -0.24    1.19
   8   2  -4    1.60    1.41
   8   2  -4    0.94    1.14
   8   2  -4    0.31    1.50
  -8  -2   4    2.90    1.14
  -8  -2   4    0.56    1.92
  -8  -2   4    0.25    1.29
  -8  -2   4   -0.39    1.76
   7   2  -4    6.42    0.96
   7   2  -4    5.71    1.28
   7   2  -4    6.15    1.08
   7   2  -4    6.56    1.79
   7   2  -4    5.73    1.42
   7   2  -4    6.11    0.93
  -7  -2   4    7.99    1.27
  -7  -2   4    6.51    0.99
  -7  -2   4    5.49    1.38
  -7  -2   4    4.40    0.99
  -7  -2   4    4.87    1.36
  -7  -2   4    7.73    1.35
   6   2  -4   13.00    1.54
   6   2  -4   11.83    0.85
   6   2  -4   13.29    1.12
   6   2  -4   11.08    0.88
   6   2  -4   13.04    1.24
   6   2  -4   13.37    1.05
  -6  -2   4    9.36    1.04
  -6  -2   4   12.11    0.95
  -6  -2   4   12.48    0.89
  -6  -2   4   10.97    0.96
  -6  -2   4   13.15    1.17
  -6  -2   4   10.80    0.88
   5   2  -4   12.87    0.99
   5   2  -4   13.81    0.94
   5   2  -4   12.12    1.04
   5   2  -4   13.02    0.98
   5   2  -4   12.82    1.19
   5   2  -4   12.57    1.01
  -5  -2   4   12.70    1.10
  -5  -2   4   11.83    0.82
  -5  -2   4   14.05    1.02
  -5  -2   4   12.19    1.03
  -5  -2   4   14.01    0.97
  -5  -2   4   12.88    1.09
   4   2  -4  157.59    3.56
   4   2  -4  159.95    3.46
   4   2  -4  154.64    3.52
   4   2  -4  157.83    3.58
   4   2  -4  164.40    3.78
   4   2  -4  155.66    3.60
  -4  -2   4  154.78    3.51
  -4  -2   4  162.93    3.60
  -4  -2   4  157.24    3.50
  -4  -2   4  157.33    3.55
  -4  -2   4  155.74    3.57
  -4  -2   4  158.77    3.46
   3   2  -4   25.18    1.03
   3   2  -4   23.87    0.95
   3   2  -4   25.22    1.00
   3   2  -4   24.98    1.17
  -3  -2   4   24.00    0.87
  -3  -2   4   24.28    0.96
  -3  -2   4   23.87    0.94
  -3  -2   4   25.77    0.95
  -3  -2   4   24.00    0.98
   2   2  -4    0.15    0.33
   2   2  -4   -0.05    0.32
   2   2  -4    0.52    0.41
   2   2  -4   -0.14    0.31
   2   2  -4   -0.09    0.33
   2   2  -4    0.53    0.35
  -2  -2   4    0.60    0.31
  -2  -2   4    0.37    0.33
  -2  -2   4    0.68    0.27
  -2  -2   4    0.17    0.32
  -2  -2   4    0.20    0.28
  -2  -2   4    0.05    0.28
  -2  -2   4    0.18    0.32
   1   2  -4   17.36    0.69
   1   2  -4   17.02    0.56
   1   2  -4   16.92    0.76
   1   2  -4   16.29    0.66
   1   2  -4   17.26    0.71
   1   2  -4   17.91    0.76
   1   2  -4   16.90    0.75
  -1  -2   4   15.75    0.65
  -1  -2   4   16.64    0.71
  -1  -2   4   16.98    0.51
  -1  -2   4   16.92    0.63
  -1  -2   4   17.12    0.72
  -1  -2   4   16.50    0.62
   0   2  -4    4.28    0.40
   0   2  -4    5.72    0.47
   0   2  -4    6.75    0.50
   0   2  -4    5.31    0.45
   0   2  -4    6.60    0.44
   0   2  -4    6.47    0.45
   0   2  -4    6.54    0.57
   0   2  -4    6.07    0.45
   0  -2   4    5.46    0.41
   0  -2   4    6.45    0.47
   0  -2   4    6.13    0.50
   0  -2   4    6.71    0.40
   0  -2   4    5.53    0.42
   0  -2   4    5.55    0.44
   0  -2   4    5.21    0.43
   0  -2   4    6.58    0.58
  -1   2  -4   23.53    0.87
  -1   2  -4   23.30    0.69
  -1   2  -4   22.03    0.78
  -1   2  -4   22.52    0.94
  -1   2  -4   22.24    0.74
  -1   2  -4   23.01    0.78
  -1   2  -4   23.12    0.87
   1  -2   4   23.12    0.83
   1  -2   4   22.15    0.85
   1  -2   4   22.06    0.86
   1  -2   4   22.54    0.92
   1  -2   4   22.33    0.74
   1  -2   4   23.97    0.89
   1  -2   4   23.11    0.75
   1  -2   4   22.27    0.71
  -2   2  -4  256.13    5.45
  -2   2  -4  254.64    5.34
  -2   2  -4  260.21    5.49
  -2   2  -4  259.18    5.28
  -2   2  -4  253.74    5.39
  -2   2  -4  253.57    5.30
  -2   2  -4  258.09    5.55
  -2   2  -4  262.89    5.47
   2  -2   4  254.95    5.43
   2  -2   4  264.10    5.27
   2  -2   4  256.12    5.48
   2  -2   4  254.88    5.34
   2  -2   4  258.29    5.36
   2  -2   4  260.84    5.53
   2  -2   4  261.17    5.44
   2  -2   4  257.05    5.42
  -3   2  -4    0.91    0.61
  -3   2  -4    0.54    0.62
  -3   2  -4    0.44    0.48
  -3   2  -4   -0.16    0.46
  -3   2  -4   -0.07    0.36
  -3   2  -4    0.23    0.49
  -3   2  -4    0.13    0.34
   3  -2   4    0.48    0.47
   3  -2   4    0.16    0.24
   3  -2   4   -0.21    0.47
   3  -2   4   -0.01    0.38
   3  -2   4    0.21    0.42
   3  -2   4    0.12    0.43
   3  -2   4    0.27    0.54
  -4   2  -4    1.27    0.67
  -4   2  -4    0.99    0.54
  -4   2  -4    1.41    0.61
  -4   2  -4    1.92    0.72
  -4   2  -4    1.27    0.48
  -4   2  -4    1.41    0.49
  -4   2  -4    2.09    0.75
   4  -2   4    1.66    0.61
   4  -2   4    1.21    0.59
   4  -2   4    1.16    0.66
   4  -2   4    1.93    0.63
   4  -2   4    1.08    0.51
   4  -2   4    0.77    0.59
  -5   2  -4   87.90    2.70
  -5   2  -4   83.26    2.64
  -5   2  -4   90.61    2.77
  -5   2  -4   90.79    2.71
  -5   2  -4   88.33    2.31
  -5   2  -4   89.85    2.36
  -5   2  -4   85.18    2.46
   5  -2   4   88.13    2.41
   5  -2   4   88.97    2.55
   5  -2   4   89.91    2.51
   5  -2   4   86.16    2.42
   5  -2   4   86.57    2.68
  -6   2  -4   12.81    1.40
  -6   2  -4   14.06    1.36
  -6   2  -4   10.17    1.06
  -6   2  -4   13.88    1.22
  -6   2  -4   14.34    1.11
  -6   2  -4   13.01    1.28
  -6   2  -4   12.07    1.36
  -6   2  -4   12.36    1.34
   6  -2   4   13.04    1.33
   6  -2   4   12.75    1.11
   6  -2   4   13.34    1.17
   6  -2   4   13.55    1.10
   6  -2   4   12.88    1.19
   6  -2   4   13.02    1.22
  -7   2  -4    3.15    1.29
  -7   2  -4    3.38    1.23
  -7   2  -4    3.66    1.51
  -7   2  -4    2.88    1.37
  -7   2  -4    4.88    1.44
  -7   2  -4    3.93    1.22
  -7   2  -4    4.47    1.38
  -7   2  -4    4.82    1.51
   7  -2   4    4.82    1.15
   7  -2   4    4.84    1.34
   7  -2   4    2.15    1.28
  -8   2  -4    4.73    1.67
  -8   2  -4    0.57    2.05
  -8   2  -4    4.12    1.67
  -8   2  -4    2.86    1.95
  -8   2  -4    3.96    1.79
  -8   2  -4    3.36    2.32
  -8   2  -4    3.43    1.81
  -8   2  -4    2.29    1.68
   8  -2   4    3.24    1.46
   8  -2   4    1.82    1.70
   8  -2   4    2.33    1.47
   8  -2   4    0.71    1.70
   8  -2   4    1.88    1.58
   8   1  -4    1.86    0.85
   8   1  -4    2.34    1.26
   8   1  -4    1.01    1.59
   8   1  -4    0.51    1.24
   8   1  -4   -0.30    1.23
  -8  -1   4    4.12    1.09
  -8  -1   4    1.02    2.23
  -8  -1   4    1.83    1.76
  -8  -1   4    2.67    1.72
  -8  -1   4   -0.01    1.49
  -8  -1   4    3.41    1.36
  -8  -1   4    1.64    1.68
  -8  -1   4    0.76    0.78
   7   1  -4   19.05    1.40
   7   1  -4   20.85    1.71
   7   1  -4   21.16    1.65
   7   1  -4   20.72    1.64
   7   1  -4   18.42    1.72
   7   1  -4   20.32    1.16
   7   1  -4   20.06    1.94
  -7  -1   4   19.89    1.91
  -7  -1   4   19.59    1.56
  -7  -1   4   18.16    0.99
  -7  -1   4   22.60    1.85
  -7  -1   4   19.37    1.48
  -7  -1   4   22.76    1.49
  -7  -1   4   22.30    1.53
   6   1  -4   31.21    2.34
   6   1  -4   30.01    1.08
   6   1  -4   30.20    1.56
   6   1  -4   30.85    1.51
   6   1  -4   31.31    2.11
   6   1  -4   32.93    1.86
   6   1  -4   33.54    1.54
  -6  -1   4   29.73    1.68
  -6  -1   4   30.90    0.99
  -6  -1   4   30.23    1.33
  -6  -1   4   32.24    1.82
  -6  -1   4   30.25    1.84
  -6  -1   4   30.95    1.75
  -6  -1   4   32.89    1.62
   5   1  -4    4.72    0.41
   5   1  -4    5.02    1.04
   5   1  -4    5.16    0.71
   5   1  -4    5.06    0.66
   5   1  -4    5.65    0.72
   5   1  -4    4.69    0.78
  -5  -1   4    6.27    0.69
  -5  -1   4    6.54    0.78
  -5  -1   4    5.31    0.36
  -5  -1   4    6.76    0.64
  -5  -1   4    4.53    0.72
  -5  -1   4    5.28    0.76
  -5  -1   4    5.10    0.70
   4   1  -4   68.77    1.97
   4   1  -4   70.61    1.83
   4   1  -4   73.10    2.10
   4   1  -4   69.39    1.87
   4   1  -4   57.83    1.91
  -4  -1   4   73.18    1.78
  -4  -1   4   71.16    1.86
  -4  -1   4   70.34    1.88
  -4  -1   4   70.93    1.90
  -4  -1   4   72.00    1.92
  -4  -1   4   70.90    1.81
  -4  -1   4   69.11    1.47
   3   1  -4  131.85    2.96
   3   1  -4  133.27    3.00
   3   1  -4  135.66    3.01
   3   1  -4  134.56    2.92
   3   1  -4  134.05    3.08
   3   1  -4  132.34    3.06
  -3  -1   4  133.51    2.97
  -3  -1   4  133.54    2.92
  -3  -1   4  134.72    3.01
  -3  -1   4  133.35    2.93
  -3  -1   4  133.13    2.96
  -3  -1   4  130.34    2.97
   2   1  -4  210.59    4.51
   2   1  -4  212.72    4.46
   2   1  -4  208.69    4.49
   2   1  -4  214.88    4.51
   2   1  -4  215.35    4.44
   2   1  -4  217.23    4.48
  -2  -1   4  209.44    4.45
  -2  -1   4  217.97    4.44
  -2  -1   4  208.81    4.42
  -2  -1   4  214.37    4.45
  -2  -1   4  211.07    4.49
  -2  -1   4  216.65    4.46
   1   1  -4  202.16    4.05
   1   1  -4  203.79    4.15
   1   1  -4  197.83    4.16
   1   1  -4  203.31    4.17
   1   1  -4  196.95    4.17
   1   1  -4  202.46    4.20
  -1  -1   4  197.91    4.21
  -1  -1   4  198.30    4.16
  -1  -1   4  204.58    4.14
  -1  -1   4  198.79    4.10
  -1  -1   4  200.40    4.17
  -1  -1   4  194.27    4.19
  -1  -1   4  200.66    4.13
   0   1  -4   63.67    1.47
   0   1  -4   59.99    1.40
   0   1  -4   59.22    1.39
   0   1  -4   58.88    1.35
   0   1  -4   59.41    1.49
   0   1  -4   62.61    1.44
   0   1  -4   61.85    1.40
   0  -1   4   61.10    1.37
   0  -1   4   61.99    1.41
   0  -1   4   59.57    1.35
   0  -1   4   60.70    1.48
   0  -1   4   62.14    1.42
   0  -1   4   60.15    1.38
   0  -1   4   59.84    1.43
  -1   1  -4  234.80    4.81
  -1   1  -4  229.92    4.85
  -1   1  -4  230.71    4.75
  -1   1  -4  222.99    4.70
  -1   1  -4  231.61    4.72
  -1   1  -4  232.90    4.73
  -1   1  -4  238.27    4.80
   1  -1   4  229.25    4.71
   1  -1   4  230.46    4.74
   1  -1   4  235.92    4.74
   1  -1   4  234.85    4.78
   1  -1   4  229.55    4.78
   1  -1   4  227.93    4.83
   1  -1   4  230.97    4.77
  -2   1  -4   62.40    1.66
  -2   1  -4   63.98    1.45
  -2   1  -4   65.09    1.51
  -2   1  -4   64.21    1.56
  -2   1  -4   66.33    1.52
  -2   1  -4   67.93    1.64
  -2   1  -4   65.18    1.65
  -2   1  -4   66.39    1.64
   2  -1   4   63.29    1.65
   2  -1   4   66.36    1.43
   2  -1   4   65.77    1.52
   2  -1   4   65.99    1.61
   2  -1   4   64.44    1.57
   2  -1   4   63.89    1.62
   2  -1   4   65.33    1.58
   2  -1   4   65.50    1.59
  -3   1  -4   27.28    0.92
  -3   1  -4   28.53    0.90
  -3   1  -4   28.04    1.10
  -3   1  -4   27.35    0.96
  -3   1  -4   28.48    1.07
  -3   1  -4   27.67    0.71
  -3   1  -4   28.99    1.10
  -3   1  -4   26.86    1.07
   3  -1   4   27.69    1.02
   3  -1   4   28.01    0.69
   3  -1   4   27.40    1.11
   3  -1   4   26.97    0.90
   3  -1   4   28.56    0.98
   3  -1   4   26.48    0.99
   3  -1   4   27.34    1.03
  -4   1  -4   -0.41    0.54
  -4   1  -4    0.23    0.42
  -4   1  -4   -0.15    0.44
  -4   1  -4   -0.77    0.50
  -4   1  -4   -0.11    0.39
  -4   1  -4   -0.16    0.50
  -4   1  -4   -0.32    0.50
   4  -1   4   -0.15    0.46
   4  -1   4    0.05    0.56
   4  -1   4   -0.31    0.52
   4  -1   4    0.39    0.42
   4  -1   4   -0.73    0.47
  -5   1  -4   25.16    1.52
  -5   1  -4   22.58    1.24
  -5   1  -4   23.67    1.42
  -5   1  -4   21.95    1.40
  -5   1  -4   24.91    1.18
  -5   1  -4   22.06    1.22
  -5   1  -4   20.93    1.48
   5  -1   4   19.97    1.62
   5  -1   4   23.56    1.22
   5  -1   4   23.72    1.40
   5  -1   4   23.52    1.21
   5  -1   4   24.20    1.31
   5  -1   4   22.47    1.26
  -6   1  -4   46.72    2.12
  -6   1  -4   44.52    2.60
  -6   1  -4   46.98    2.45
  -6   1  -4   46.52    1.78
  -6   1  -4   45.90    2.15
  -6   1  -4   45.57    1.99
  -6   1  -4   47.40    1.85
  -6   1  -4   46.29    2.11
   6  -1   4   42.78    1.76
   6  -1   4   44.76    1.71
   6  -1   4   45.93    2.00
   6  -1   4   43.93    1.89
   6  -1   4   44.17    1.80
   6  -1   4   42.81    1.79
  -7   1  -4    1.56    1.08
  -7   1  -4    0.57    1.15
  -7   1  -4    2.16    1.33
  -7   1  -4    1.54    1.14
  -7   1  -4   -0.30    1.30
  -7   1  -4    1.51    1.00
  -7   1  -4    1.51    1.04
  -7   1  -4    1.22    1.29
   7  -1   4    1.22    1.05
   7  -1   4    3.46    1.11
   7  -1   4    1.68    0.98
   7  -1   4    0.92    0.94
   7  -1   4    1.62    0.86
  -8   1  -4   19.34    1.95
  -8   1  -4   18.63    1.81
  -8   1  -4   21.39    1.98
  -8   1  -4   26.12    1.81
  -8   1  -4   20.54    2.13
  -8   1  -4   19.48    1.98
  -8   1  -4   22.88    1.72
  -8   1  -4   23.41    1.82
   8  -1   4   23.93    1.66
   8  -1   4   23.18    1.76
   8  -1   4   20.27    1.49
   8  -1   4   23.09    1.57
   8  -1   4   20.97    1.66
   8   0  -4    4.18    1.30
   8   0  -4    7.33    1.55
   8   0  -4    9.84    1.26
   8   0  -4    3.07    1.85
  -8   0   4    6.35    1.63
  -8   0   4    9.84    2.36
  -8   0   4    7.75    1.81
  -8   0   4    6.49    1.11
  -8   0   4   11.65    1.87
  -8   0   4    8.73    1.76
  -8   0   4    9.11    1.50
  -8   0   4    7.22    1.66
   7   0  -4   82.74    3.70
   7   0  -4   83.85    2.43
   7   0  -4   84.05    2.44
   7   0  -4   86.08    3.11
   7   0  -4   83.46    3.22
   7   0  -4   89.55    3.44
   7   0  -4   80.81    2.75
  -7   0   4   81.57    2.42
  -7   0   4   84.12    3.03
  -7   0   4   82.22    2.82
  -7   0   4   87.80    2.91
  -7   0   4   82.94    2.95
  -7   0   4   80.72    2.99
  -7   0   4   82.81    2.41
  -7   0   4   82.50    3.68
   6   0  -4   24.07    1.43
   6   0  -4   19.88    2.50
   6   0  -4   25.18    1.54
   6   0  -4   21.38    1.55
   6   0  -4   21.82    1.29
   6   0  -4   22.54    1.30
   6   0  -4   21.77    1.59
  -6   0   4   22.44    1.72
  -6   0   4   23.58    1.26
  -6   0   4   24.68    1.67
  -6   0   4   24.71    1.59
  -6   0   4   23.42    1.11
  -6   0   4   20.95    1.72
  -6   0   4   25.33    1.70
   5   0  -4    1.23    0.90
   5   0  -4    2.25    0.90
   5   0  -4    1.48    0.55
   5   0  -4    1.74    0.55
   5   0  -4    2.01    0.94
   5   0  -4    1.84    0.54
  -5   0   4    1.92    0.53
  -5   0   4    1.33    0.46
  -5   0   4    1.75    0.68
  -5   0   4    1.07    0.70
  -5   0   4    1.72    0.69
  -5   0   4    2.02    0.68
   4   0  -4   28.66    0.97
   4   0  -4   27.81    1.10
   4   0  -4   26.74    1.05
   4   0  -4   28.75    1.36
   4   0  -4   28.06    1.42
   4   0  -4   30.86    1.41
  -4   0   4   29.73    1.17
  -4   0   4   28.19    0.87
  -4   0   4   29.17    1.20
  -4   0   4   29.14    1.18
  -4   0   4   28.82    1.01
  -4   0   4   27.77    1.21
  -4   0   4   28.59    1.23
   3   0  -4   79.39    2.01
   3   0  -4   81.86    1.90
   3   0  -4   80.86    1.93
   3   0  -4   83.55    2.12
   3   0  -4   80.67    2.07
   3   0  -4   81.09    2.05
   3   0  -4   79.31    1.81
  -3   0   4   78.47    1.97
  -3   0   4   81.95    1.96
  -3   0   4   82.33    1.95
  -3   0   4   80.16    1.89
  -3   0   4   81.37    2.03
  -3   0   4   79.40    1.93
  -3   0   4   77.39    1.76
   2   0  -4  459.11    9.12
   2   0  -4  443.91    9.15
   2   0  -4  446.83    9.22
   2   0  -4  449.64    9.11
   2   0  -4  445.27    9.18
   2   0  -4  457.95    9.17
   2   0  -4  440.70    9.02
  -2   0   4  455.65    9.10
  -2   0   4  452.08    9.11
  -2   0   4  446.74    9.11
  -2   0   4  454.96    9.12
  -2   0   4  454.53    9.18
  -2   0   4  454.70    9.14
   1   0  -4  660.20   13.21
   1   0  -4  672.30   13.29
   1   0  -4  673.10   13.29
   1   0  -4  658.70   13.29
   1   0  -4  667.60   13.34
   1   0  -4  657.74   13.28
  -1   0   4  659.14   13.27
  -1   0   4  668.59   13.22
  -1   0   4  658.29   13.32
  -1   0   4  659.65   13.29
  -1   0   4  667.81   13.29
  -1   0   4  674.03   13.27
   0   0  -4  111.06    2.40
   0   0  -4  111.54    2.40
   0   0  -4  115.52    2.43
   0   0  -4  114.33    2.39
   0   0  -4  110.55    2.46
   0   0  -4  116.00    2.46
   0   0  -4  113.83    2.42
   0   0   4  114.21    2.32
   0   0   4  118.18    2.48
   0   0   4  116.33    2.41
   0   0   4  113.58    2.42
   0   0   4  111.64    2.45
   0   0   4  111.73    2.39
  -1   0  -4  579.94   11.25
  -1   0  -4  572.14   11.30
  -1   0  -4  575.05   11.28
  -1   0  -4  564.58   11.32
  -1   0  -4  553.62   11.26
  -1   0  -4  569.17   11.30
  -1   0  -4  557.80   11.26
  -1   0  -4  542.01   11.18
   1   0   4  570.38   11.25
   1   0   4  553.34   11.19
   1   0   4  560.52   11.30
   1   0   4  553.83   11.28
   1   0   4  572.85   11.26
   1   0   4  562.77   11.30
   1   0   4  576.56   11.28
   1   0   4  557.93   11.26
  -2   0  -4    0.43    0.25
  -2   0  -4    0.22    0.24
  -2   0  -4    0.13    0.18
  -2   0  -4    0.35    0.28
  -2   0  -4    0.09    0.17
  -2   0  -4    0.09    0.23
  -2   0  -4    0.36    0.21
  -2   0  -4    0.13    0.20
   2   0   4    0.16    0.16
   2   0   4    0.17    0.23
   2   0   4    0.10    0.19
   2   0   4    0.42    0.25
   2   0   4    0.08    0.25
   2   0   4    0.09    0.19
  -3   0  -4    1.21    0.34
  -3   0  -4    0.62    0.34
  -3   0  -4    1.04    0.37
  -3   0  -4    1.31    0.35
  -3   0  -4    1.13    0.16
  -3   0  -4    0.92    0.30
  -3   0  -4    0.82    0.32
  -3   0  -4    1.17    0.29
   3   0   4    1.19    0.33
   3   0   4    0.91    0.27
   3   0   4    1.04    0.29
   3   0   4    1.15    0.19
   3   0   4    0.99    0.29
   3   0   4    1.14    0.34
   3   0   4    1.25    0.34
  -4   0  -4   14.81    0.95
  -4   0  -4   15.47    0.88
  -4   0  -4   13.81    0.78
  -4   0  -4   15.65    0.93
  -4   0  -4   16.09    0.96
  -4   0  -4   16.35    0.91
  -4   0  -4   15.29    0.77
   4   0   4   15.53    0.89
   4   0   4   15.38    0.75
   4   0   4   15.49    0.80
   4   0   4   15.64    0.75
   4   0   4   15.44    0.79
  -5   0  -4    0.60    0.60
  -5   0  -4    1.17    0.51
  -5   0  -4    0.13    0.47
  -5   0  -4    0.07    0.57
  -5   0  -4    0.18    0.60
  -5   0  -4   -0.35    0.56
  -5   0  -4   -0.03    0.55
   5   0   4    0.15    0.47
   5   0   4   -0.71    0.52
   5   0   4    0.07    0.41
   5   0   4   -0.42    0.48
   5   0   4    0.03    0.52
   5   0   4    0.39    0.45
  -6   0  -4    0.98    0.90
  -6   0  -4    1.65    0.66
  -6   0  -4    0.78    0.80
  -6   0  -4    1.14    0.69
  -6   0  -4    1.89    0.79
  -6   0  -4    1.04    0.82
   6   0   4    0.67    0.61
   6   0   4    1.50    0.55
   6   0   4    1.05    0.62
   6   0   4    1.02    0.69
   6   0   4    1.22    0.65
  -7   0  -4    1.08    1.04
  -7   0  -4    0.03    0.93
  -7   0  -4    1.14    1.11
  -7   0  -4    1.31    0.97
  -7   0  -4    1.10    0.78
  -7   0  -4    1.60    1.22
  -7   0  -4    0.26    1.01
  -7   0  -4    1.76    1.08
   7   0   4    1.36    0.72
   7   0   4    0.21    0.92
   7   0   4    2.24    0.83
   7   0   4    1.11    0.76
   7   0   4    2.86    0.86
  -8   0  -4   74.29    3.39
  -8   0  -4   77.81    3.11
  -8   0  -4   78.71    2.88
  -8   0  -4   73.67    3.26
  -8   0  -4   72.42    3.11
  -8   0  -4   74.68    3.16
  -8   0  -4   74.24    2.80
  -8   0  -4   79.55    3.23
   8   0   4   72.98    2.85
   8   0   4   75.97    2.42
   8   0   4   71.64    2.55
   8   0   4   76.61    2.75
   8   0   4   72.63    2.48
  -9   0  -4    2.20    2.58
  -9   0  -4    0.03    1.90
  -9   0  -4   -1.24    2.95
  -9   0  -4   -1.62    1.94
  -9   0  -4   -2.61    1.86
   9   0   4    1.66    1.22
   9   0   4    1.78    1.63
   9   0   4    0.84    1.23
   9   0   4    1.53    1.73
   8  -1  -4   47.90    2.23
   8  -1  -4   49.75    2.78
  -8   1   4   45.59    3.37
  -8   1   4   49.51    3.18
  -8   1   4   57.59    5.18
  -8   1   4   47.27    4.06
  -8   1   4   43.51    2.30
  -8   1   4   39.40    3.16
  -8   1   4   46.99    2.54
   7  -1  -4   77.70    2.90
   7  -1  -4   81.26    2.33
   7  -1  -4   80.75    2.71
   7  -1  -4   85.15    3.46
   7  -1  -4   78.67    3.63
   7  -1  -4   79.76    2.74
  -7   1   4   82.49    3.14
  -7   1   4   80.63    2.96
  -7   1   4   80.46    2.46
  -7   1   4   78.72    2.44
  -7   1   4   89.26    2.97
  -7   1   4   83.51    3.08
  -7   1   4   87.35    3.98
  -7   1   4   79.52    3.03
   6  -1  -4   62.69    2.26
   6  -1  -4   67.09    1.89
   6  -1  -4   66.30    2.17
   6  -1  -4   66.89    2.82
   6  -1  -4   70.29    2.85
   6  -1  -4   64.43    2.13
   6  -1  -4   67.83    2.78
  -6   1   4   66.95    1.98
  -6   1   4   66.08    2.52
  -6   1   4   67.34    3.01
  -6   1   4   62.98    1.95
  -6   1   4   62.97    2.33
  -6   1   4   65.56    2.45
  -6   1   4   68.39    2.32
  -6   1   4   62.95    2.30
   5  -1  -4  456.08    9.40
   5  -1  -4  470.90    9.76
   5  -1  -4  466.20    9.85
   5  -1  -4  458.95    9.56
   5  -1  -4  456.02    9.47
   5  -1  -4  462.52    9.75
   5  -1  -4  464.79    9.53
  -5   1   4  461.41    9.42
  -5   1   4  462.35    9.60
  -5   1   4  468.08    9.43
  -5   1   4  457.70    9.66
  -5   1   4  461.42    9.60
  -5   1   4  463.12    9.71
  -5   1   4  435.41    9.79
   4  -1  -4   13.93    0.98
   4  -1  -4   11.45    0.90
   4  -1  -4   14.99    0.94
   4  -1  -4   15.03    0.98
   4  -1  -4   13.22    0.80
   4  -1  -4   15.98    1.35
   4  -1  -4   14.19    1.06
  -4   1   4   13.71    0.81
  -4   1   4   14.36    1.10
  -4   1   4   16.03    1.01
  -4   1   4   13.85    0.83
  -4   1   4   15.15    0.98
  -4   1   4   14.11    1.06
  -4   1   4   16.10    1.12
   3  -1  -4   78.76    2.13
   3  -1  -4   81.59    1.94
   3  -1  -4   82.31    1.91
   3  -1  -4   81.95    1.99
   3  -1  -4   82.60    2.21
   3  -1  -4   79.16    2.08
   3  -1  -4   81.83    1.95
  -3   1   4   79.92    2.09
  -3   1   4   81.08    1.88
  -3   1   4   83.41    1.93
  -3   1   4   80.56    1.98
  -3   1   4   79.50    1.95
  -3   1   4   82.82    2.03
  -3   1   4   82.03    2.06
   2  -1  -4    0.90    0.29
   2  -1  -4    1.51    0.36
   2  -1  -4    0.93    0.29
   2  -1  -4    1.24    0.42
   2  -1  -4    1.45    0.32
   2  -1  -4    2.01    0.43
   2  -1  -4    1.31    0.32
  -2   1   4    1.44    0.32
  -2   1   4    1.09    0.32
  -2   1   4    0.47    0.26
  -2   1   4    1.41    0.28
  -2   1   4    1.29    0.31
  -2   1   4    0.96    0.25
  -2   1   4    1.81    0.53
   1  -1  -4   17.28    0.54
   1  -1  -4   17.49    0.71
   1  -1  -4   17.85    0.62
   1  -1  -4   18.60    0.75
   1  -1  -4   16.71    0.63
   1  -1  -4   18.20    0.64
   1  -1  -4   18.35    0.63
  -1   1   4   18.14    0.55
  -1   1   4   17.65    0.68
  -1   1   4   17.33    0.65
  -1   1   4   17.48    0.59
  -1   1   4   18.50    0.59
  -1   1   4   18.42    0.64
   0  -1  -4  120.99    2.52
   0  -1  -4  119.24    2.51
   0  -1  -4  115.85    2.51
   0  -1  -4  117.39    2.49
   0  -1  -4  120.15    2.53
   0  -1  -4  116.07    2.56
   0   1   4  121.59    2.53
   0   1   4  118.37    2.49
   0   1   4  118.65    2.49
   0   1   4  120.72    2.54
   0   1   4  117.95    2.54
  -1  -1  -4  310.40    6.38
  -1  -1  -4  316.22    6.40
  -1  -1  -4  316.10    6.39
  -1  -1  -4  317.14    6.36
  -1  -1  -4  324.92    6.40
   1   1   4  314.29    6.41
   1   1   4  319.26    6.40
   1   1   4  316.76    6.36
   1   1   4  313.64    6.38
   1   1   4  314.90    6.35
  -2  -1  -4  538.63   10.78
  -2  -1  -4  538.27   10.80
  -2  -1  -4  543.61   10.83
  -2  -1  -4  541.13   10.79
  -2  -1  -4  520.95   10.74
  -2  -1  -4  528.26   10.75
  -2  -1  -4  534.80   10.86
  -2  -1  -4  534.52   10.77
   2   1   4  534.84   10.77
   2   1   4  544.67   10.74
   2   1   4  538.05   10.76
   2   1   4  555.77   10.87
   2   1   4  537.27   10.79
   2   1   4  560.73   10.75
   2   1   4  547.98   10.80
  -3  -1  -4    6.77    0.48
  -3  -1  -4    6.23    0.49
  -3  -1  -4    6.43    0.48
  -3  -1  -4    6.91    0.37
  -3  -1  -4    6.49    0.42
  -3  -1  -4    6.11    0.47
  -3  -1  -4    7.15    0.50
  -3  -1  -4    5.20    0.41
   3   1   4    6.75    0.44
   3   1   4    6.03    0.44
   3   1   4    7.06    0.37
   3   1   4    6.91    0.39
   3   1   4    6.32    0.44
   3   1   4    6.66    0.48
   3   1   4    7.70    0.56
  -4  -1  -4   33.79    1.09
  -4  -1  -4   33.13    1.06
  -4  -1  -4   33.22    0.81
  -4  -1  -4   33.00    0.99
  -4  -1  -4   33.49    1.17
  -4  -1  -4   32.65    1.06
  -4  -1  -4   33.71    1.16
  -4  -1  -4   31.37    1.05
   4   1   4   34.55    0.90
   4   1   4   33.44    0.88
   4   1   4   33.31    1.03
   4   1   4   36.02    1.13
   4   1   4   34.24    0.94
   4   1   4   33.83    1.00
  -5  -1  -4   74.71    1.97
  -5  -1  -4   76.06    1.95
  -5  -1  -4   76.98    2.06
  -5  -1  -4   74.59    1.86
  -5  -1  -4   75.17    2.01
  -5  -1  -4   75.80    2.07
  -5  -1  -4   73.83    1.95
   5   1   4   76.17    1.97
   5   1   4   73.03    1.76
   5   1   4   76.11    1.92
   5   1   4   73.13    1.73
   5   1   4   76.13    1.75
  -6  -1  -4  162.60    3.59
  -6  -1  -4  157.08    3.91
  -6  -1  -4  157.44    4.29
  -6  -1  -4  164.30    3.70
  -6  -1  -4  133.15    4.15
  -6  -1  -4  160.94    3.74
  -6  -1  -4  159.46    3.77
  -6  -1  -4  140.68    4.37
   6   1   4  162.02    3.41
   6   1   4  164.07    3.65
   6   1   4  161.71    3.67
   6   1   4  164.40    3.43
  -7  -1  -4    1.75    1.22
  -7  -1  -4    1.08    0.91
  -7  -1  -4    2.05    0.81
  -7  -1  -4    1.59    0.96
  -7  -1  -4    2.22    0.97
  -7  -1  -4    0.79    0.91
  -7  -1  -4    1.48    0.92
  -7  -1  -4    0.53    1.07
   7   1   4    1.20    0.55
   7   1   4    0.43    0.83
   7   1   4    2.39    0.78
   7   1   4    1.16    0.58
   7   1   4    1.04    0.61
  -8  -1  -4    1.48    1.42
  -8  -1  -4    0.65    1.18
  -8  -1  -4    3.13    1.25
  -8  -1  -4    1.86    1.12
  -8  -1  -4    1.26    1.02
  -8  -1  -4    0.23    1.22
  -8  -1  -4    0.71    1.39
  -8  -1  -4    0.15    1.50
   8   1   4    2.41    0.80
   8   1   4    1.40    0.70
   8   1   4    1.35    1.01
   8   1   4    1.70    0.73
   8   1   4    0.55    1.07
  -9  -1  -4    1.72    2.09
  -9  -1  -4    0.89    1.72
  -9  -1  -4    2.19    1.74
  -9  -1  -4    3.16    1.67
  -9  -1  -4    3.41    2.23
  -9  -1  -4   -1.07    1.51
  -9  -1  -4    4.29    1.79
   9   1   4    4.30    0.92
   9   1   4    1.11    1.53
   9   1   4    2.01    1.05
   9   1   4    2.56    0.88
   7  -2  -4    3.79    1.35
   7  -2  -4    5.46    1.95
   7  -2  -4    3.92    1.42
   7  -2  -4    1.86    1.75
   7  -2  -4    4.71    0.92
   7  -2  -4    4.57    1.48
  -7   2   4    3.26    1.41
  -7   2   4    3.40    1.40
  -7   2   4    4.11    2.30
  -7   2   4    7.29    1.59
  -7   2   4    7.01    1.35
  -7   2   4    3.74    1.14
  -7   2   4    4.63    1.08
  -7   2   4    5.80    1.67
   6  -2  -4   88.56    3.40
   6  -2  -4   92.31    2.76
   6  -2  -4   97.34    3.26
   6  -2  -4   92.10    2.77
   6  -2  -4   88.83    2.82
   6  -2  -4   87.78    2.32
   6  -2  -4   95.88    3.43
  -6   2   4   92.92    2.70
  -6   2   4   89.93    2.85
  -6   2   4   85.17    2.58
  -6   2   4   88.47    3.61
  -6   2   4   88.96    2.69
  -6   2   4   92.84    2.98
  -6   2   4   83.89    3.54
  -6   2   4   93.25    3.03
   5  -2  -4   47.54    1.79
   5  -2  -4   45.10    1.44
   5  -2  -4   47.76    1.74
   5  -2  -4   48.28    2.31
   5  -2  -4   44.23    2.31
   5  -2  -4   46.60    2.20
   5  -2  -4   41.37    1.75
  -5   2   4   46.39    2.34
  -5   2   4   44.99    1.57
  -5   2   4   44.02    1.72
  -5   2   4   43.08    1.87
  -5   2   4   45.57    2.00
  -5   2   4   42.41    1.58
   4  -2  -4    0.38    0.60
   4  -2  -4    0.51    0.48
   4  -2  -4   -1.42    0.78
   4  -2  -4    0.62    0.54
   4  -2  -4   -0.27    0.59
   4  -2  -4    0.94    0.81
   4  -2  -4   -0.04    0.70
  -4   2   4   -0.01    0.51
  -4   2   4    0.05    0.56
  -4   2   4    0.22    0.66
  -4   2   4    0.50    0.57
  -4   2   4   -0.29    0.51
  -4   2   4    0.09    0.50
  -4   2   4   -0.66    0.53
  -4   2   4   -0.37    0.81
   3  -2  -4   17.15    1.07
   3  -2  -4   20.27    1.00
   3  -2  -4   20.92    1.00
   3  -2  -4   22.75    1.26
   3  -2  -4   21.68    0.94
   3  -2  -4   20.45    1.30
   3  -2  -4   20.46    0.88
  -3   2   4   19.23    1.09
  -3   2   4   20.41    0.91
  -3   2   4   20.60    1.13
  -3   2   4   19.41    0.90
  -3   2   4   20.44    0.91
  -3   2   4   19.61    1.33
  -3   2   4   20.92    1.06
  -3   2   4   19.22    0.87
   2  -2  -4   -0.28    0.30
   2  -2  -4    0.16    0.43
   2  -2  -4   -0.32    0.35
   2  -2  -4   -0.12    0.43
   2  -2  -4   -0.19    0.31
   2  -2  -4    0.19    0.37
   2  -2  -4    0.15    0.34
  -2   2   4    0.23    0.40
  -2   2   4   -0.21    0.41
  -2   2   4    0.08    0.31
  -2   2   4    0.50    0.36
  -2   2   4    0.06    0.27
  -2   2   4    0.04    0.34
  -2   2   4   -0.24    0.28
   1  -2  -4   23.97    0.74
   1  -2  -4   23.54    0.81
   1  -2  -4   22.55    0.78
   1  -2  -4   23.35    0.95
   1  -2  -4   23.71    0.70
   1  -2  -4   25.44    0.84
   1  -2  -4   22.88    0.90
  -1   2   4   23.88    0.81
  -1   2   4   24.43    0.69
  -1   2   4   24.06    0.78
  -1   2   4   24.44    0.84
  -1   2   4   23.25    0.86
  -1   2   4   23.14    0.84
  -1   2   4   23.90    0.68
   0  -2  -4  172.33    3.63
   0  -2  -4  168.93    3.46
   0  -2  -4  169.82    3.60
   0  -2  -4  170.06    3.51
   0  -2  -4  167.77    3.60
   0  -2  -4  169.21    3.58
   0  -2  -4  173.53    3.57
   0   2   4  174.41    3.59
   0   2   4  167.86    3.45
   0   2   4  172.72    3.51
   0   2   4  173.79    3.59
   0   2   4  170.28    3.63
  -1  -2  -4  197.92    4.17
  -1  -2  -4  199.97    4.02
  -1  -2  -4  200.22    4.10
  -1  -2  -4  201.21    4.10
  -1  -2  -4  199.45    4.13
  -1  -2  -4  200.67    4.18
  -1  -2  -4  199.30    4.09
   1   2   4  201.94    4.21
   1   2   4  199.59    4.06
   1   2   4  200.74    4.09
   1   2   4  206.44    4.13
   1   2   4  203.46    4.10
  -2  -2  -4   37.21    0.88
  -2  -2  -4   36.92    0.86
  -2  -2  -4   36.11    0.89
  -2  -2  -4   37.64    0.88
  -2  -2  -4   38.07    1.00
  -2  -2  -4   36.70    0.97
   2   2   4   38.17    0.83
   2   2   4   37.58    1.04
   2   2   4   38.73    0.83
   2   2   4   36.38    0.85
   2   2   4   36.58    1.03
  -3  -2  -4    0.51    0.20
  -3  -2  -4    0.62    0.20
  -3  -2  -4    0.43    0.20
  -3  -2  -4    0.33    0.17
  -3  -2  -4    0.24    0.30
  -3  -2  -4    0.65    0.25
  -3  -2  -4    0.54    0.28
  -3  -2  -4    0.27    0.30
  -4  -2  -4 1337.33   26.55
  -4  -2  -4 1325.85   26.46
  -4  -2  -4 1332.59   26.47
  -4  -2  -4 1320.87   26.42
  -4  -2  -4 1331.88   26.62
  -4  -2  -4 1314.63   26.45
  -4  -2  -4 1344.72   26.48
  -4  -2  -4 1368.12   26.62
  -5  -2  -4    1.86    0.37
  -5  -2  -4    1.13    0.46
  -5  -2  -4    2.22    0.39
  -5  -2  -4    1.77    0.45
  -5  -2  -4    2.10    0.53
  -5  -2  -4    1.61    0.58
  -5  -2  -4    2.14    0.36
  -5  -2  -4    3.07    0.57
  -5  -2  -4    1.75    0.47
  -6  -2  -4  244.86    5.24
  -6  -2  -4  243.44    4.94
  -6  -2  -4  236.92    4.94
  -6  -2  -4  233.67    5.28
  -6  -2  -4  240.41    5.68
  -6  -2  -4  240.07    5.11
  -6  -2  -4  248.99    5.30
  -6  -2  -4  249.40    5.32
  -7  -2  -4    7.19    0.92
  -7  -2  -4    5.15    0.88
  -7  -2  -4    7.77    0.97
  -7  -2  -4    6.99    0.97
  -7  -2  -4    9.10    0.85
  -7  -2  -4    9.61    1.29
  -8  -2  -4    7.41    1.15
  -8  -2  -4    5.04    1.24
  -8  -2  -4    8.13    1.32
  -8  -2  -4    9.01    1.30
  -8  -2  -4    9.17    1.69
  -8  -2  -4    6.43    1.19
  -8  -2  -4    9.03    1.07
  -9  -2  -4   20.25    1.72
  -9  -2  -4   19.01    2.18
  -9  -2  -4   13.92    1.62
  -9  -2  -4   21.45    2.43
  -9  -2  -4   19.12    1.86
  -9  -2  -4   17.86    1.66
  -9  -2  -4   18.18    1.89
   7  -3  -4    4.17    1.64
   7  -3  -4    3.02    1.78
   7  -3  -4    2.05    2.28
   7  -3  -4    1.24    1.57
   7  -3  -4    3.05    0.98
   7  -3  -4    2.75    2.15
  -7   3   4    1.82    1.55
  -7   3   4    3.02    1.73
  -7   3   4    1.70    1.82
  -7   3   4    1.55    1.33
  -7   3   4    2.46    1.90
  -7   3   4    0.53    2.47
  -7   3   4    1.33    1.38
   6  -3  -4    2.77    1.64
   6  -3  -4    0.26    1.78
   6  -3  -4    2.85    1.27
   6  -3  -4    1.85    0.74
   6  -3  -4   -1.45    1.14
   6  -3  -4    1.88    1.08
  -6   3   4    2.80    1.00
  -6   3   4    2.18    1.41
  -6   3   4    2.78    2.02
  -6   3   4    1.32    1.06
  -6   3   4    1.28    1.11
  -6   3   4    1.24    0.99
  -6   3   4    0.97    1.07
   5  -3  -4    1.52    1.30
   5  -3  -4    0.56    0.85
   5  -3  -4    1.57    1.09
   5  -3  -4    0.67    0.65
   5  -3  -4    0.49    1.26
   5  -3  -4    0.13    0.84
  -5   3   4    1.43    0.81
  -5   3   4    1.38    0.84
  -5   3   4    1.69    0.72
  -5   3   4    1.37    0.92
  -5   3   4   -0.05    0.82
  -5   3   4    1.88    0.80
  -5   3   4    1.18    1.05
  -5   3   4    0.63    1.35
   4  -3  -4   16.88    1.29
   4  -3  -4   17.98    1.43
   4  -3  -4   19.38    1.42
   4  -3  -4   14.15    1.19
   4  -3  -4   17.47    1.06
   4  -3  -4   17.90    1.40
   4  -3  -4   15.24    1.26
  -4   3   4   15.94    1.19
  -4   3   4   17.64    1.23
  -4   3   4   18.67    1.46
  -4   3   4   17.85    1.45
  -4   3   4   19.47    1.42
  -4   3   4   19.66    1.04
  -4   3   4   17.56    1.17
  -4   3   4   28.03    2.34
   3  -3  -4   85.68    2.26
   3  -3  -4   86.81    2.26
   3  -3  -4   80.22    2.15
   3  -3  -4   88.11    2.50
   3  -3  -4   84.97    2.57
   3  -3  -4   84.30    2.07
   3  -3  -4   83.29    2.19
  -3   3   4   87.11    2.29
  -3   3   4   86.55    2.12
  -3   3   4   83.16    2.18
  -3   3   4   85.63    2.54
  -3   3   4   80.55    2.31
  -3   3   4   84.19    2.15
  -3   3   4   83.73    2.35
  -3   3   4   86.26    2.01
   2  -3  -4   14.81    1.13
   2  -3  -4   14.28    0.94
   2  -3  -4   14.47    1.13
   2  -3  -4   14.52    0.79
   2  -3  -4   13.04    0.93
   2  -3  -4   13.56    0.76
   2  -3  -4   13.75    0.79
  -2   3   4   14.98    0.72
  -2   3   4   14.22    1.13
  -2   3   4   14.85    0.85
  -2   3   4   14.11    0.61
  -2   3   4   14.29    0.95
  -2   3   4   14.89    0.87
  -2   3   4   14.85    0.95
  -2   3   4   14.68    0.91
   1  -3  -4   19.76    0.97
   1  -3  -4   20.47    0.74
   1  -3  -4   19.64    0.90
   1  -3  -4   20.75    1.05
   1  -3  -4   21.20    0.85
   1  -3  -4   19.29    0.70
   1  -3  -4   19.22    0.85
  -1   3   4   20.72    1.04
  -1   3   4   19.48    0.83
  -1   3   4   20.92    0.89
  -1   3   4   20.24    0.70
  -1   3   4   20.73    0.85
  -1   3   4   19.88    0.62
  -1   3   4   19.93    0.88
  -1   3   4   19.45    0.91
   0  -3  -4   81.17    1.96
   0  -3  -4   79.89    1.79
   0  -3  -4   82.50    2.00
   0  -3  -4   80.86    1.76
   0  -3  -4   79.70    1.89
   0   3   4   81.53    1.76
   0   3   4   81.19    1.77
   0   3   4   79.38    1.88
   0   3   4   83.56    1.99
   0   3   4   83.83    1.92
   0   3   4   81.26    1.99
   0   3   4   83.07    1.85
   0   3   4   84.69    1.91
  -1  -3  -4  282.41    5.94
  -1  -3  -4  286.35    5.83
  -1  -3  -4  288.87    5.93
  -1  -3  -4  290.19    5.84
  -1  -3  -4  283.96    5.78
  -1  -3  -4  282.62    5.87
  -1  -3  -4  284.35    5.78
   1   3   4  291.77    5.98
   1   3   4  287.20    5.81
   1   3   4  283.70    5.77
   1   3   4  292.76    5.87
   1   3   4  290.05    5.82
   1   3   4  289.68    5.77
   1   3   4  280.86    5.79
  -2  -3  -4  279.47    5.53
  -2  -3  -4  271.31    5.53
  -2  -3  -4  273.03    5.68
  -2  -3  -4  273.08    5.56
  -2  -3  -4  276.60    5.56
  -2  -3  -4  275.76    5.61
  -2  -3  -4  276.35    5.71
  -3  -3  -4   10.59    0.35
  -3  -3  -4   10.70    0.65
  -3  -3  -4    9.91    0.35
  -3  -3  -4   10.65    0.38
  -3  -3  -4    9.78    0.33
  -3  -3  -4    9.79    0.71
  -3  -3  -4    9.99    0.55
  -4  -3  -4    3.91    0.28
  -4  -3  -4    4.40    0.38
  -4  -3  -4    3.54    0.49
  -4  -3  -4    4.09    0.48
  -4  -3  -4    3.91    0.31
  -4  -3  -4    4.28    0.45
  -4  -3  -4    4.29    0.52
  -5  -3  -4   34.94    1.30
  -5  -3  -4   33.87    1.46
  -5  -3  -4   36.39    1.32
  -5  -3  -4   36.88    1.19
  -5  -3  -4   34.55    0.94
  -5  -3  -4   35.70    1.04
  -5  -3  -4   35.64    1.01
  -5  -3  -4   35.31    1.05
  -5  -3  -4   35.82    1.25
  -6  -3  -4   21.22    1.06
  -6  -3  -4   20.63    1.36
  -6  -3  -4   21.89    1.28
  -6  -3  -4   21.65    1.30
  -6  -3  -4   20.45    1.04
  -6  -3  -4   19.89    0.95
  -6  -3  -4   19.68    1.08
  -6  -3  -4   20.23    1.00
  -7  -3  -4    3.53    0.73
  -7  -3  -4    2.02    0.79
  -7  -3  -4    1.51    0.60
  -7  -3  -4    2.17    0.90
  -7  -3  -4    1.84    0.91
  -7  -3  -4    2.58    0.65
  -7  -3  -4    2.17    1.25
  -7  -3  -4    1.89    0.84
  -7  -3  -4    2.93    0.53
  -8  -3  -4   -1.04    1.14
  -8  -3  -4    0.11    1.12
  -8  -3  -4    0.50    0.93
  -8  -3  -4    0.11    0.50
  -8  -3  -4   -0.23    1.26
  -8  -3  -4   -0.80    1.20
  -8  -3  -4    1.03    0.94
  -8  -3  -4   -0.18    1.64
  -8  -3  -4    0.41    0.57
  -9  -3  -4    3.23    1.34
  -9  -3  -4   -0.56    2.16
  -9  -3  -4    5.39    1.32
  -9  -3  -4    4.35    1.81
  -9  -3  -4    4.01    1.32
  -9  -3  -4   -0.34    2.21
  -9  -3  -4    2.29    1.56
   6  -4  -4    1.18    1.96
   6  -4  -4   -1.09    1.92
   6  -4  -4    1.10    1.43
   6  -4  -4   -0.12    0.91
   6  -4  -4   -1.85    1.34
   6  -4  -4    0.80    1.58
  -6   4   4   -1.41    1.23
  -6   4   4   -0.35    1.32
  -6   4   4   -0.10    1.81
  -6   4   4    0.56    1.03
  -6   4   4    0.35    2.49
  -6   4   4   -0.48    2.63
   5  -4  -4    5.90    1.19
   5  -4  -4    4.28    1.69
   5  -4  -4    7.41    0.87
   5  -4  -4    7.77    1.32
   5  -4  -4    4.80    1.15
   5  -4  -4    5.87    1.62
  -5   4   4    7.47    1.77
  -5   4   4    5.31    1.02
  -5   4   4    5.30    1.46
  -5   4   4    4.87    1.02
  -5   4   4    5.86    1.17
  -5   4   4    3.98    1.28
  -5   4   4    6.05    0.84
   4  -4  -4  138.79    3.35
   4  -4  -4  134.86    3.82
   4  -4  -4  132.43    3.12
   4  -4  -4  135.00    3.88
   4  -4  -4  136.00    3.54
   4  -4  -4  130.28    3.46
   4  -4  -4  135.53    3.39
  -4   4   4  141.99    3.93
  -4   4   4  130.12    3.59
  -4   4   4  135.44    3.50
  -4   4   4  130.07    3.58
  -4   4   4  130.23    3.35
  -4   4   4  119.34    3.95
  -4   4   4  135.30    3.05
   3  -4  -4   64.00    2.35
   3  -4  -4   58.69    1.75
   3  -4  -4   58.80    1.71
   3  -4  -4   58.88    1.97
   3  -4  -4   54.56    1.80
   3  -4  -4   59.36    2.26
   3  -4  -4   58.17    2.02
  -3   4   4   58.26    2.30
  -3   4   4   57.86    2.01
  -3   4   4   59.89    1.72
  -3   4   4   57.90    1.86
  -3   4   4   56.90    2.03
  -3   4   4   58.04    1.96
  -3   4   4   54.47    1.49
  -3   4   4   54.99    1.86
   2  -4  -4   30.29    1.10
   2  -4  -4   31.47    1.21
   2  -4  -4   29.64    1.31
   2  -4  -4   28.58    1.54
   2  -4  -4   32.00    1.39
   2  -4  -4   29.27    1.59
   2  -4  -4   29.94    1.16
  -2   4   4   31.07    1.37
  -2   4   4   29.78    1.32
  -2   4   4   29.51    1.58
  -2   4   4   28.85    0.88
  -2   4   4   30.91    1.25
  -2   4   4   32.42    1.35
  -2   4   4   30.89    1.10
  -2   4   4   29.07    1.34
   1  -4  -4   62.17    1.86
   1  -4  -4   60.87    1.77
   1  -4  -4   61.38    1.50
   1  -4  -4   61.92    1.69
   1  -4  -4   63.34    1.75
   1  -4  -4   62.50    1.60
   1  -4  -4   63.67    1.94
  -1   4   4   64.03    1.91
  -1   4   4   62.52    1.40
  -1   4   4   63.58    1.72
  -1   4   4   63.99    1.56
  -1   4   4   62.15    1.69
  -1   4   4   62.59    1.75
  -1   4   4   60.92    1.73
   0  -4  -4   40.70    1.31
   0  -4  -4   40.31    1.23
   0  -4  -4   38.69    0.96
   0  -4  -4   40.02    1.30
   0  -4  -4   40.51    1.35
   0  -4  -4   39.66    1.29
   0  -4  -4   38.96    1.10
   0   4   4   38.72    1.20
   0   4   4   40.05    1.28
   0   4   4   38.82    1.17
   0   4   4   40.51    1.07
   0   4   4   38.37    1.23
   0   4   4   40.68    1.15
   0   4   4   40.87    0.96
  -1  -4  -4   44.96    1.05
  -1  -4  -4   45.55    1.32
  -1  -4  -4   45.16    1.35
  -1  -4  -4   45.64    1.39
  -1  -4  -4   44.88    1.28
  -1  -4  -4   45.80    1.16
  -1  -4  -4   46.58    1.23
   1   4   4   45.24    1.13
   1   4   4   44.76    1.13
   1   4   4   45.56    1.11
   1   4   4   45.64    1.30
   1   4   4   45.62    1.16
   1   4   4   47.12    1.23
   1   4   4   45.99    1.14
  -2  -4  -4    9.51    0.55
  -2  -4  -4   10.49    0.70
  -2  -4  -4    9.46    0.72
  -2  -4  -4    9.35    0.61
  -2  -4  -4    9.39    0.51
  -2  -4  -4    9.97    0.60
  -2  -4  -4   10.14    0.54
  -3  -4  -4    4.34    0.32
  -3  -4  -4    5.12    0.42
  -3  -4  -4    4.51    0.32
  -3  -4  -4    3.24    0.55
  -3  -4  -4    4.16    0.26
  -3  -4  -4    4.60    0.50
  -3  -4  -4    4.10    0.42
  -4  -4  -4   10.97    0.83
  -4  -4  -4   11.32    0.78
  -4  -4  -4    9.20    0.72
  -4  -4  -4   10.60    0.83
  -4  -4  -4   11.26    0.87
  -4  -4  -4   11.53    0.79
  -5  -4  -4   18.03    1.46
  -5  -4  -4   17.37    1.24
  -5  -4  -4   18.11    1.12
  -5  -4  -4   16.59    1.05
  -5  -4  -4   17.66    1.08
  -5  -4  -4   17.09    1.11
  -6  -4  -4    0.56    0.99
  -6  -4  -4   -0.04    0.42
  -6  -4  -4    0.41    0.63
  -6  -4  -4    1.00    0.41
  -6  -4  -4    0.48    0.73
  -6  -4  -4   -0.57    0.69
  -6  -4  -4    0.07    0.68
  -7  -4  -4    0.91    0.57
  -7  -4  -4    0.70    0.84
  -7  -4  -4    0.45    0.67
  -7  -4  -4    0.16    0.88
  -7  -4  -4   -0.09    0.70
  -7  -4  -4    0.80    0.52
  -7  -4  -4    1.60    0.97
  -7  -4  -4    0.49    1.24
  -7  -4  -4   -0.32    0.57
  -8  -4  -4    0.84    0.80
  -8  -4  -4   -0.58    0.94
  -8  -4  -4    0.43    0.77
  -8  -4  -4    1.99    1.00
  -8  -4  -4    0.46    0.78
  -8  -4  -4   -2.31    1.33
  -8  -4  -4    0.93    0.75
  -8  -4  -4    1.14    1.22
  -8  -4  -4    2.65    1.75
  -9  -4  -4    1.33    1.27
  -9  -4  -4    3.77    1.14
  -9  -4  -4    1.16    0.86
  -9  -4  -4    2.60    1.17
  -9  -4  -4    2.48    1.07
  -9  -4  -4   -0.42    1.54
  -9  -4  -4    2.87    1.81
   6  -5  -4    1.18    2.49
   6  -5  -4    3.63    1.20
   6  -5  -4   -0.27    2.41
   6  -5  -4    4.10    1.91
   6  -5  -4    6.24    2.15
   6  -5  -4    2.58    1.82
  -6   5   4    3.11    2.15
  -6   5   4    2.95    1.67
  -6   5   4    3.86    2.36
  -6   5   4    3.86    1.18
  -6   5   4    2.10    1.85
  -6   5   4    3.05    1.69
  -6   5   4    5.50    2.80
   5  -5  -4    8.47    2.02
   5  -5  -4   10.09    1.05
   5  -5  -4    8.05    1.67
   5  -5  -4    6.61    1.40
   5  -5  -4    9.19    1.95
   5  -5  -4    7.40    1.45
  -5   5   4   11.55    1.73
  -5   5   4   10.54    1.77
  -5   5   4   10.54    0.92
  -5   5   4   12.53    2.25
  -5   5   4   10.01    1.38
  -5   5   4    8.01    1.27
  -5   5   4    9.65    1.69
   4  -5  -4   90.56    3.61
   4  -5  -4   86.88    3.08
   4  -5  -4   92.20    3.43
   4  -5  -4   86.19    2.77
  -4   5   4   86.17    3.09
  -4   5   4   90.68    2.97
  -4   5   4   90.18    2.61
  -4   5   4   84.10    2.78
  -4   5   4   91.48    3.48
  -4   5   4   88.04    2.17
  -4   5   4   90.63    3.13
   3  -5  -4    0.64    0.96
   3  -5  -4    0.18    1.17
   3  -5  -4    1.14    0.92
   3  -5  -4   -0.38    0.66
   3  -5  -4   -0.47    1.17
  -3   5   4   -0.11    0.67
  -3   5   4   -0.57    0.39
  -3   5   4   -0.39    0.85
  -3   5   4    1.04    0.84
  -3   5   4    0.04    0.86
  -3   5   4    0.01    1.18
  -3   5   4   -0.39    1.07
   2  -5  -4  104.28    2.66
   2  -5  -4  106.24    2.79
   2  -5  -4  106.55    2.65
   2  -5  -4   83.20    3.76
   2  -5  -4  104.26    3.09
   2  -5  -4  104.56    3.03
   2  -5  -4  104.19    2.41
  -2   5   4  107.18    2.81
  -2   5   4  106.82    2.74
  -2   5   4  106.83    2.54
  -2   5   4  104.09    2.84
  -2   5   4  104.71    3.00
  -2   5   4  102.35    2.22
  -2   5   4  106.10    2.74
   1  -5  -4   57.35    1.78
   1  -5  -4   57.06    2.05
   1  -5  -4   58.42    1.82
   1  -5  -4   56.68    1.97
   1  -5  -4   55.86    1.65
   1  -5  -4   55.01    1.37
   1  -5  -4   56.06    1.85
  -1   5   4   55.15    1.76
  -1   5   4   57.43    1.27
  -1   5   4   56.53    1.79
  -1   5   4   57.71    1.77
  -1   5   4   57.08    1.56
   0  -5  -4  135.50    3.10
   0  -5  -4  129.82    2.76
   0  -5  -4  130.88    2.99
   0  -5  -4  135.51    3.26
   0  -5  -4  132.65    3.20
   0  -5  -4  136.07    3.19
   0  -5  -4  133.62    3.19
   0   5   4  135.45    3.13
   0   5   4  136.40    3.01
   0   5   4  133.96    2.95
   0   5   4  134.48    3.03
   0   5   4  135.43    3.13
   0   5   4  133.07    2.76
   0   5   4  130.78    3.05
  -1  -5  -4    4.05    0.28
  -1  -5  -4    3.90    0.52
  -1  -5  -4    5.00    0.46
  -1  -5  -4    4.50    0.60
  -1  -5  -4    3.57    0.58
  -1  -5  -4    4.03    0.62
  -1  -5  -4    3.52    0.59
   1   5   4    5.20    0.49
   1   5   4    4.04    0.40
   1   5   4    4.41    0.42
   1   5   4    4.04    0.42
   1   5   4    4.61    0.56
   1   5   4    4.13    0.43
  -2  -5  -4   31.82    1.17
  -2  -5  -4   32.10    1.31
  -2  -5  -4   32.18    1.12
  -2  -5  -4   33.17    0.88
  -2  -5  -4   34.35    1.06
  -2  -5  -4   34.18    1.06
  -2  -5  -4   34.52    1.42
  -3  -5  -4    6.23    0.54
  -3  -5  -4    5.70    0.46
  -3  -5  -4    4.79    0.73
  -3  -5  -4    4.83    0.60
  -3  -5  -4    5.80    0.41
  -3  -5  -4    5.56    0.48
  -3  -5  -4    5.42    0.47
  -4  -5  -4    1.66    0.71
  -4  -5  -4    2.14    0.53
  -4  -5  -4    2.35    0.69
  -4  -5  -4    2.27    0.54
  -4  -5  -4    2.89    0.68
  -4  -5  -4    2.05    0.49
  -5  -5  -4  112.84    2.69
  -5  -5  -4  112.30    2.72
  -5  -5  -4  112.13    2.76
  -5  -5  -4  111.09    2.80
  -5  -5  -4  110.37    2.90
  -5  -5  -4  112.53    2.97
  -5  -5  -4  109.19    2.73
  -5  -5  -4  108.27    2.85
  -6  -5  -4   14.29    1.07
  -6  -5  -4   14.27    1.07
  -6  -5  -4   12.91    1.23
  -6  -5  -4   13.33    1.01
  -6  -5  -4   13.49    0.90
  -6  -5  -4   15.22    0.98
  -6  -5  -4   14.19    1.14
  -6  -5  -4   13.37    1.11
  -7  -5  -4    1.00    1.29
  -7  -5  -4    1.14    1.51
  -7  -5  -4    3.30    0.97
  -7  -5  -4    2.07    1.11
  -7  -5  -4    1.39    1.27
  -7  -5  -4    4.20    1.15
  -7  -5  -4    3.41    1.12
  -8  -5  -4   40.62    2.37
  -8  -5  -4   43.05    2.06
  -8  -5  -4   39.90    3.17
  -8  -5  -4   41.51    2.06
  -8  -5  -4   45.84    2.74
  -8  -5  -4   50.23    3.34
   5  -6  -4    2.04    1.87
   5  -6  -4   -0.42    1.61
   5  -6  -4   -1.21    2.35
   5  -6  -4    0.00    2.36
   5  -6  -4    0.74    2.06
   5  -6  -4   -1.08    1.81
  -5   6   4    1.60    0.84
  -5   6   4    4.64    2.03
  -5   6   4    0.16    1.51
  -5   6   4    1.16    2.23
  -5   6   4    1.20    1.46
  -5   6   4    0.69    1.70
  -5   6   4   -0.74    2.28
   4  -6  -4   -0.53    1.31
   4  -6  -4   -0.78    1.85
   4  -6  -4   -0.84    1.57
   4  -6  -4   -0.99    0.98
   4  -6  -4    1.24    1.41
   4  -6  -4    2.10    1.75
  -4   6   4   -0.71    1.44
  -4   6   4    0.68    1.78
  -4   6   4    0.48    1.09
  -4   6   4   -0.08    1.66
  -4   6   4    0.54    0.58
  -4   6   4   -0.65    1.46
  -4   6   4    1.66    1.38
   3  -6  -4    1.98    1.22
   3  -6  -4    2.88    1.51
   3  -6  -4    2.91    1.02
   3  -6  -4    2.10    1.51
   3  -6  -4    2.20    1.31
   3  -6  -4    2.21    0.95
  -3   6   4    1.13    1.12
  -3   6   4    3.08    0.42
  -3   6   4    0.30    1.30
  -3   6   4    1.19    1.07
  -3   6   4    2.16    0.88
  -3   6   4    1.82    1.38
  -3   6   4    3.82    1.11
   2  -6  -4    4.82    0.93
   2  -6  -4    5.46    0.89
   2  -6  -4    4.46    1.08
   2  -6  -4    5.20    1.29
   2  -6  -4    5.58    1.27
   2  -6  -4    4.17    1.07
  -2   6   4    5.12    0.92
  -2   6   4    6.22    1.05
  -2   6   4    4.35    1.14
  -2   6   4    4.25    0.92
  -2   6   4    4.88    1.00
  -2   6   4    5.51    0.85
   1  -6  -4   85.19    3.53
   1  -6  -4  104.43    3.09
   1  -6  -4  100.10    2.60
   1  -6  -4  102.01    2.90
   1  -6  -4  102.58    2.77
   1  -6  -4  101.39    2.97
  -1   6   4  105.64    2.75
  -1   6   4   98.65    2.69
  -1   6   4  103.75    2.84
  -1   6   4   98.72    2.72
  -1   6   4  100.12    2.73
  -1   6   4  102.34    2.53
   0  -6  -4   98.10    2.71
   0  -6  -4   98.86    2.43
   0  -6  -4   95.74    2.68
   0  -6  -4   94.61    2.65
   0  -6  -4   92.68    2.82
   0   6   4   95.63    2.42
   0   6   4   96.20    2.57
   0   6   4   94.74    2.41
   0   6   4   96.85    2.51
   0   6   4   94.03    2.43
   0   6   4   99.01    2.36
  -1  -6  -4   28.71    1.60
  -1  -6  -4   30.83    1.20
  -1  -6  -4   26.22    2.17
  -1  -6  -4   27.19    1.63
  -1  -6  -4   31.46    1.53
  -1  -6  -4   27.16    1.72
   1   6   4   30.90    1.07
   1   6   4   30.06    1.14
   1   6   4   27.37    1.20
   1   6   4   25.74    1.19
   1   6   4   32.97    1.41
   1   6   4   30.10    1.12
  -2  -6  -4   40.91    1.35
  -2  -6  -4   43.59    1.55
  -2  -6  -4   43.42    1.49
  -2  -6  -4   40.51    1.00
  -2  -6  -4   38.65    1.81
  -2  -6  -4   40.70    1.53
  -2  -6  -4   41.01    1.63
  -2  -6  -4   42.12    1.20
  -3  -6  -4   16.66    1.24
  -3  -6  -4   16.29    1.06
  -3  -6  -4   15.81    1.02
  -3  -6  -4   15.63    1.01
  -3  -6  -4   17.99    1.21
  -3  -6  -4   15.32    1.07
  -3  -6  -4   16.37    1.00
  -3  -6  -4   15.39    0.77
  -3  -6  -4   17.45    1.08
  -4  -6  -4   15.48    1.17
  -4  -6  -4   16.02    1.09
  -4  -6  -4   15.99    0.80
  -4  -6  -4   14.80    1.01
  -4  -6  -4   14.59    0.73
  -4  -6  -4   14.86    0.75
  -4  -6  -4   14.43    0.97
  -4  -6  -4   16.07    1.20
  -4  -6  -4   16.88    1.01
  -5  -6  -4    6.44    1.04
  -5  -6  -4    5.39    0.81
  -5  -6  -4    5.36    1.00
  -5  -6  -4    6.23    0.79
  -5  -6  -4    5.17    0.76
  -5  -6  -4    5.63    0.86
  -5  -6  -4    6.41    1.07
  -6  -6  -4   -0.55    0.96
  -6  -6  -4   -1.50    1.11
  -6  -6  -4    0.94    1.04
  -6  -6  -4    2.90    1.21
  -6  -6  -4   -0.18    0.97
  -6  -6  -4   -0.24    0.83
  -7  -6  -4   34.11    2.02
  -7  -6  -4   35.40    2.09
  -7  -6  -4   33.77    2.77
  -7  -6  -4   39.52    1.91
  -7  -6  -4   35.20    2.23
  -7  -6  -4   34.80    2.48
  -7  -6  -4   39.11    2.33
  -7  -6  -4   34.55    2.45
  -8  -6  -4   39.36    2.19
  -8  -6  -4   42.56    2.99
  -8  -6  -4   35.09    2.48
  -8  -6  -4   33.58    2.60
  -8  -6  -4   40.85    3.27
  -8  -6  -4   36.87    2.10
  -8  -6  -4   38.20    2.48
  -8  -6  -4   38.87    2.47
   4  -7  -4    2.34    2.34
   4  -7  -4   -0.35    1.78
   4  -7  -4   -0.88    1.35
   4  -7  -4    2.82    2.69
   4  -7  -4   -2.69    1.84
  -4   7   4   -0.29    1.51
  -4   7   4    2.21    2.23
  -4   7   4   -0.35    1.84
  -4   7   4   -1.48    1.87
  -4   7   4    1.73    2.05
   3  -7  -4    7.43    1.46
   3  -7  -4    4.95    1.83
   3  -7  -4    1.99    1.34
   3  -7  -4    7.64    1.31
   3  -7  -4    5.94    1.87
   3  -7  -4    5.24    1.95
  -3   7   4    5.76    1.52
  -3   7   4    6.07    1.72
  -3   7   4    5.21    1.23
  -3   7   4    4.87    1.56
  -3   7   4    8.40    1.68
  -3   7   4    3.99    1.45
   2  -7  -4    5.08    1.17
   2  -7  -4    4.08    1.59
   2  -7  -4    3.76    1.22
   2  -7  -4    5.46    1.43
   2  -7  -4    4.56    1.39
   2  -7  -4    3.31    1.62
  -2   7   4    5.99    1.20
  -2   7   4    5.60    1.20
  -2   7   4    4.93    1.21
  -2   7   4    3.54    1.00
  -2   7   4    5.16    1.25
  -2   7   4    6.32    1.53
   1  -7  -4   14.82    1.57
   1  -7  -4   15.36    1.51
   1  -7  -4   14.79    1.13
   1  -7  -4   14.11    1.28
   1  -7  -4   15.15    1.27
   1  -7  -4   15.37    1.49
  -1   7   4   13.18    1.13
  -1   7   4   14.16    1.26
  -1   7   4   15.87    1.23
  -1   7   4   14.23    1.01
  -1   7   4   17.86    1.70
  -1   7   4   13.90    1.13
   0  -7  -4   13.95    1.21
   0  -7  -4   13.61    1.36
   0  -7  -4   13.01    1.12
   0  -7  -4   13.48    1.03
   0  -7  -4   16.09    1.34
   0  -7  -4   13.50    1.24
   0   7   4   14.24    0.98
   0   7   4   12.72    1.08
   0   7   4   14.04    0.99
   0   7   4   14.86    1.30
   0   7   4   11.49    0.87
   0   7   4   14.57    1.05
  -1  -7  -4   29.41    1.86
  -1  -7  -4   29.63    1.98
  -1  -7  -4   29.96    1.74
  -1  -7  -4   30.76    1.90
  -1  -7  -4   30.89    1.87
  -1  -7  -4   35.52    1.69
   1   7   4   32.03    1.27
   1   7   4   31.89    1.26
   1   7   4   32.83    1.68
   1   7   4   31.96    1.49
   1   7   4   32.63    1.30
   1   7   4   32.17    1.20
  -2  -7  -4  143.28    3.59
  -2  -7  -4  147.10    3.46
  -2  -7  -4  150.71    3.73
  -2  -7  -4  147.28    3.53
  -2  -7  -4  144.57    3.87
  -2  -7  -4  150.13    3.65
  -3  -7  -4  104.13    2.33
  -3  -7  -4  111.45    3.25
  -3  -7  -4  106.52    3.24
  -3  -7  -4  106.01    2.62
  -3  -7  -4  112.88    3.02
  -3  -7  -4  107.08    2.47
  -3  -7  -4  108.40    2.71
  -3  -7  -4  103.34    2.70
  -3  -7  -4  104.62    2.63
  -3  -7  -4  108.04    2.78
  -4  -7  -4  171.43    3.98
  -4  -7  -4  170.40    4.41
  -4  -7  -4  177.42    4.12
  -4  -7  -4  177.69    4.45
  -4  -7  -4  165.58    3.66
  -4  -7  -4  173.77    3.73
  -4  -7  -4  169.96    3.81
  -4  -7  -4  169.88    3.88
  -4  -7  -4  165.47    3.69
  -4  -7  -4  169.42    3.73
  -5  -7  -4   26.77    1.68
  -5  -7  -4   28.56    1.85
  -5  -7  -4   26.00    1.82
  -5  -7  -4   28.23    1.57
  -5  -7  -4   28.76    2.39
  -5  -7  -4   28.22    2.28
  -6  -7  -4    6.51    1.12
  -6  -7  -4    4.65    1.54
  -6  -7  -4    8.04    1.19
  -6  -7  -4    7.25    1.16
  -6  -7  -4    5.16    1.46
  -6  -7  -4    6.34    1.31
  -6  -7  -4    7.82    1.20
  -6  -7  -4    7.56    1.32
  -7  -7  -4    0.90    1.22
  -7  -7  -4    0.67    1.56
  -7  -7  -4   -2.20    1.74
  -7  -7  -4   -0.16    1.35
  -7  -7  -4   -0.35    1.52
  -7  -7  -4    0.18    1.47
  -7  -7  -4    1.36    1.52
  -7  -7  -4   -0.01    1.26
   2  -8  -4   10.80    1.77
   2  -8  -4   10.78    2.40
   2  -8  -4   11.12    1.73
   2  -8  -4   15.22    2.09
   2  -8  -4   13.43    2.10
   2  -8  -4   10.52    1.65
  -2   8   4   12.13    1.73
  -2   8   4    8.60    1.35
  -2   8   4    7.86    1.56
  -2   8   4   12.26    1.72
  -2   8   4    9.36    1.66
  -2   8   4    8.84    1.80
   1  -8  -4    3.82    1.39
   1  -8  -4    1.39    1.78
   1  -8  -4    4.65    1.46
   1  -8  -4    7.44    1.61
   1  -8  -4    3.98    1.41
   1  -8  -4    5.16    1.75
  -1   8   4    3.97    1.31
  -1   8   4    6.09    1.31
  -1   8   4    5.59    1.15
  -1   8   4    6.41    1.33
  -1   8   4    8.08    1.40
  -1   8   4    7.53    1.18
   0  -8  -4   48.21    2.73
   0  -8  -4   50.86    2.93
   0  -8  -4   48.76    2.36
   0  -8  -4   53.36    2.83
   0  -8  -4   54.19    2.58
   0  -8  -4   49.62    2.79
   0   8   4   51.67    2.05
   0   8   4   51.91    2.11
   0   8   4   46.58    2.44
   0   8   4   50.21    2.07
   0   8   4   47.55    1.95
   0   8   4   51.86    2.12
  -1  -8  -4   10.53    1.57
  -1  -8  -4   10.05    1.14
  -1  -8  -4   10.32    1.41
  -1  -8  -4    9.27    1.33
  -1  -8  -4   10.54    1.21
  -1  -8  -4   11.49    1.30
   1   8   4   12.14    0.92
   1   8   4   10.29    0.81
   1   8   4   10.66    0.86
   1   8   4    9.02    0.84
   1   8   4   11.42    1.10
   1   8   4    9.28    1.18
  -2  -8  -4    0.11    0.89
  -2  -8  -4    1.40    0.99
  -2  -8  -4   -0.03    1.39
  -2  -8  -4   -2.13    1.31
  -2  -8  -4    2.06    0.98
  -2  -8  -4    0.66    1.22
  -2  -8  -4    0.04    1.10
  -2  -8  -4    1.25    1.21
  -3  -8  -4   17.51    1.75
  -3  -8  -4   19.66    1.49
  -3  -8  -4   18.51    1.17
  -3  -8  -4   20.89    1.91
  -3  -8  -4   18.84    1.79
  -3  -8  -4   17.26    1.83
  -3  -8  -4   21.69    1.69
  -3  -8  -4   19.97    1.24
  -4  -8  -4   63.20    3.30
  -4  -8  -4   68.86    3.19
  -4  -8  -4   61.67    2.40
  -4  -8  -4   70.00    2.78
  -4  -8  -4   66.30    2.05
  -4  -8  -4   66.31    1.67
  -4  -8  -4   59.26    1.96
  -4  -8  -4   61.34    1.90
  -4  -8  -4   63.39    2.05
  -5  -8  -4   15.43    1.18
  -5  -8  -4   18.67    1.59
  -5  -8  -4   15.59    1.22
  -5  -8  -4   15.13    1.86
  -5  -8  -4   14.58    1.41
  -5  -8  -4   16.11    1.04
  -5  -8  -4   14.72    1.19
  -5  -8  -4   17.36    2.06
  -6  -8  -4   -0.07    1.96
  -6  -8  -4   -0.61    1.89
  -6  -8  -4    1.31    1.14
  -6  -8  -4   -0.93    1.27
  -6  -8  -4   -0.52    1.60
  -6  -8  -4   -0.64    1.43
  -6  -8  -4    1.38    1.42
  -6  -8  -4    1.25    1.40
   0  -9  -4   59.97    4.09
   0  -9  -4   61.48    3.44
   0  -9  -4   60.92    3.78
   0  -9  -4   59.97    3.09
   0  -9  -4   70.64    4.54
   0   9   4   61.93    2.83
   0   9   4   65.04    2.72
   0   9   4   65.37    2.58
   0   9   4   56.64    3.25
  -1  -9  -4   25.75    2.34
  -1  -9  -4   27.62    2.02
  -1  -9  -4   22.25    1.75
  -1  -9  -4   20.56    1.82
  -1  -9  -4   28.41    2.54
  -1  -9  -4   24.27    2.20
   1   9   4   28.18    2.25
   1   9   4   27.31    1.54
   1   9   4   28.23    1.79
   1   9   4   23.18    1.65
  -2  -9  -4    3.95    1.38
  -2  -9  -4    0.28    1.70
  -2  -9  -4   -0.38    1.86
  -2  -9  -4   -2.56    1.87
  -2  -9  -4    1.70    1.48
  -2  -9  -4    1.04    1.38
  -3  -9  -4   -0.44    1.23
  -3  -9  -4    1.88    1.71
  -3  -9  -4    3.43    2.18
  -3  -9  -4    0.44    1.28
  -3  -9  -4    0.01    2.29
  -3  -9  -4    0.21    1.24
  -4  -9  -4   -0.11    1.34
  -4  -9  -4   -1.14    1.68
  -4  -9  -4   -0.01    1.25
   2   8  -5   13.71    1.50
   2   8  -5   13.45    1.60
   2   8  -5   13.80    1.53
  -2  -8   5    9.70    1.79
  -2  -8   5   12.83    1.07
  -2  -8   5   12.13    1.46
   1   8  -5   70.63    4.58
   1   8  -5   56.94    2.58
   1   8  -5   60.87    2.56
  -1  -8   5   62.08    3.40
  -1  -8   5   63.51    3.46
  -1  -8   5   55.18    3.45
  -1  -8   5   60.72    2.89
  -1  -8   5   61.49    2.55
   0   8  -5    2.33    1.39
   0   8  -5    3.13    2.12
   0  -8   5    0.43    1.72
   0  -8   5   -0.17    1.69
   0  -8   5    3.20    1.96
   0  -8   5   -0.47    1.88
  -1   8  -5    1.81    1.60
  -1   8  -5    4.55    2.47
   1  -8   5    1.55    2.02
   1  -8   5    2.02    2.08
   1  -8   5    2.55    1.81
   1  -8   5    2.12    2.17
   5   7  -5    0.95    1.63
   5   7  -5   -0.34    1.25
   5   7  -5   -2.08    2.28
  -5  -7   5    0.06    1.19
   4   7  -5    2.26    1.25
   4   7  -5    3.08    1.36
   4   7  -5    1.01    1.11
   4   7  -5    2.17    1.88
   4   7  -5    2.94    1.57
  -4  -7   5    2.52    1.56
  -4  -7   5    1.89    1.43
  -4  -7   5    2.83    1.27
  -4  -7   5    2.98    0.96
  -4  -7   5    3.79    1.50
  -4  -7   5    1.85    1.17
  -4  -7   5    2.06    1.37
   3   7  -5    2.55    1.06
   3   7  -5    2.77    1.07
   3   7  -5    1.09    1.55
   3   7  -5    2.58    1.51
   3   7  -5    1.29    1.36
  -3  -7   5    1.83    0.71
  -3  -7   5    1.61    1.21
  -3  -7   5    4.03    1.11
  -3  -7   5    1.05    1.33
  -3  -7   5    4.06    1.67
  -3  -7   5    0.92    0.79
  -3  -7   5    3.76    1.32
  -3  -7   5    2.94    1.28
   2   7  -5   19.52    1.71
   2   7  -5   17.01    1.04
   2   7  -5   14.59    1.58
   2   7  -5   16.65    1.28
   2   7  -5   18.18    1.42
   2   7  -5   16.17    1.25
  -2  -7   5   15.06    1.61
  -2  -7   5   16.47    1.13
  -2  -7   5   19.10    1.41
  -2  -7   5   12.17    1.19
  -2  -7   5   16.79    1.41
  -2  -7   5   16.42    1.52
  -2  -7   5   15.48    1.56
  -2  -7   5   15.22    1.17
   1   7  -5   -0.79    0.89
   1   7  -5    1.81    1.20
   1   7  -5   -0.84    0.98
   1   7  -5    0.04    0.88
   1   7  -5    0.87    1.05
   1   7  -5    1.14    1.56
   1   7  -5    0.79    1.40
  -1  -7   5    0.60    1.18
  -1  -7   5   -0.25    1.24
  -1  -7   5   -0.83    1.05
  -1  -7   5    0.47    0.61
  -1  -7   5   -0.47    1.00
  -1  -7   5   -0.61    1.18
  -1  -7   5    0.46    1.05
  -1  -7   5   -0.49    1.12
   0   7  -5   13.23    1.86
   0   7  -5   10.32    1.15
   0   7  -5   12.58    0.98
   0   7  -5    9.35    1.66
   0   7  -5   12.54    1.38
   0   7  -5   11.35    1.16
   0  -7   5    8.78    1.20
   0  -7   5   10.18    1.47
   0  -7   5   11.21    1.39
   0  -7   5   14.21    1.38
   0  -7   5   11.72    0.77
   0  -7   5   11.58    1.36
   0  -7   5   13.07    1.57
   0  -7   5   12.54    1.76
  -1   7  -5    6.01    1.37
  -1   7  -5    4.16    0.76
  -1   7  -5    3.91    1.21
  -1   7  -5    2.54    1.19
  -1   7  -5    2.56    1.62
  -1   7  -5    3.27    1.66
  -1   7  -5    3.14    1.20
   1  -7   5    4.66    1.43
   1  -7   5    4.61    1.29
   1  -7   5    5.29    1.57
   1  -7   5    2.73    1.71
   1  -7   5    3.71    1.34
   1  -7   5    3.41    1.63
   1  -7   5    3.21    1.38
  -2   7  -5    0.87    1.43
  -2   7  -5    1.70    1.95
  -2   7  -5    2.18    1.42
  -2   7  -5    1.86    1.53
  -2   7  -5    2.41    1.92
  -2   7  -5    2.93    0.70
  -2   7  -5    4.17    1.38
   2  -7   5    2.18    1.54
   2  -7   5    2.53    1.89
   2  -7   5    2.77    1.65
   2  -7   5    4.19    1.60
   2  -7   5    3.66    1.31
   2  -7   5    0.72    2.05
   2  -7   5    4.43    1.67
  -3   7  -5    3.91    1.90
  -3   7  -5    3.05    2.24
  -3   7  -5    3.25    1.84
  -3   7  -5    2.17    0.72
  -3   7  -5    0.35    1.70
  -3   7  -5    3.09    0.98
  -3   7  -5    1.54    1.63
  -3   7  -5    2.95    2.31
   3  -7   5    1.34    1.49
   3  -7   5    6.52    1.90
   3  -7   5    3.41    2.03
   3  -7   5    2.93    1.91
   3  -7   5   -0.43    1.36
   3  -7   5    1.52    2.53
   6   6  -5   11.83    1.33
   6   6  -5   10.02    1.36
   6   6  -5    8.71    2.00
   6   6  -5    6.78    2.57
   6   6  -5   14.42    1.55
  -6  -6   5    9.89    1.92
  -6  -6   5    9.61    1.52
   5   6  -5    0.33    1.93
   5   6  -5    0.81    1.24
   5   6  -5    1.08    1.30
   5   6  -5    1.47    1.11
   5   6  -5    0.53    1.06
   5   6  -5    1.50    1.70
  -5  -6   5    1.22    1.10
  -5  -6   5    1.53    1.45
  -5  -6   5    0.91    1.29
  -5  -6   5    0.79    1.03
  -5  -6   5    1.21    1.06
  -5  -6   5    0.55    1.06
  -5  -6   5    0.37    1.18
   4   6  -5   -0.33    0.90
   4   6  -5    1.33    1.47
   4   6  -5    0.97    0.97
   4   6  -5   -0.03    1.45
   4   6  -5   -0.38    1.19
   4   6  -5    1.61    1.07
  -4  -6   5    0.85    0.81
  -4  -6   5    1.55    1.23
  -4  -6   5    1.99    0.89
  -4  -6   5    1.46    1.04
  -4  -6   5    0.54    0.94
  -4  -6   5    0.38    1.02
  -4  -6   5    1.02    1.04
   3   6  -5    3.03    1.31
   3   6  -5    4.04    1.25
   3   6  -5    2.57    1.18
   3   6  -5    3.02    0.84
   3   6  -5    2.51    1.04
   3   6  -5    3.36    0.84
  -3  -6   5    4.44    1.07
  -3  -6   5    2.80    1.04
  -3  -6   5    3.12    0.94
  -3  -6   5    3.62    1.01
  -3  -6   5    2.45    1.02
  -3  -6   5    4.14    0.69
  -3  -6   5    3.74    0.96
   2   6  -5   26.70    1.21
   2   6  -5   31.36    2.12
   2   6  -5   28.64    2.22
   2   6  -5   27.86    1.57
   2   6  -5   27.56    1.85
   2   6  -5   26.82    2.01
   2   6  -5   29.11    1.51
  -2  -6   5   28.54    1.33
  -2  -6   5   27.16    1.21
  -2  -6   5   28.29    1.77
  -2  -6   5   28.74    1.78
  -2  -6   5   29.24    1.65
  -2  -6   5   28.38    1.66
  -2  -6   5   29.65    1.95
  -2  -6   5   26.22    1.90
   1   6  -5   29.50    2.11
   1   6  -5   31.70    1.63
   1   6  -5   33.71    2.04
   1   6  -5   28.74    1.72
   1   6  -5   29.41    1.59
   1   6  -5   28.19    1.41
   1   6  -5   31.75    1.43
  -1  -6   5   29.71    1.89
  -1  -6   5   30.09    1.85
  -1  -6   5   28.81    1.14
  -1  -6   5   30.03    1.54
  -1  -6   5   29.04    1.70
  -1  -6   5   28.77    1.82
  -1  -6   5   32.46    1.90
  -1  -6   5   28.67    1.65
   0   6  -5   29.44    2.27
   0   6  -5   29.96    2.22
   0   6  -5   27.72    1.66
   0   6  -5   26.82    1.37
   0   6  -5   28.16    1.59
   0   6  -5   27.06    1.45
   0   6  -5   29.32    1.79
   0  -6   5   28.57    1.76
   0  -6   5   28.01    1.71
   0  -6   5   28.91    1.17
   0  -6   5   27.08    1.61
   0  -6   5   28.99    2.12
   0  -6   5   28.99    1.97
   0  -6   5   27.91    1.79
   0  -6   5   29.08    1.91
  -1   6  -5    7.56    1.01
  -1   6  -5    9.09    1.16
  -1   6  -5    7.18    1.01
  -1   6  -5    7.95    0.73
  -1   6  -5    8.21    1.39
  -1   6  -5    7.36    1.34
  -1   6  -5    7.53    1.01
   1  -6   5    9.32    1.25
   1  -6   5    8.31    1.02
   1  -6   5    8.27    1.12
   1  -6   5   10.45    1.27
   1  -6   5    8.22    1.07
   1  -6   5    8.22    1.06
   1  -6   5    7.95    1.38
   1  -6   5    8.76    0.72
  -2   6  -5    5.54    0.67
  -2   6  -5    3.02    1.47
  -2   6  -5    5.82    1.08
  -2   6  -5    3.57    1.56
  -2   6  -5    3.27    1.03
  -2   6  -5    4.43    1.24
  -2   6  -5    7.20    1.19
   2  -6   5    5.06    0.96
   2  -6   5    4.69    1.27
   2  -6   5    4.37    1.24
   2  -6   5    4.92    2.38
   2  -6   5    5.46    1.25
   2  -6   5    4.51    1.11
   2  -6   5    4.56    1.41
  -3   6  -5    5.12    1.80
  -3   6  -5    6.33    1.31
  -3   6  -5    6.76    1.34
  -3   6  -5    5.82    1.20
  -3   6  -5    7.36    0.72
  -3   6  -5    6.59    1.73
  -3   6  -5    4.89    1.41
   3  -6   5    5.25    1.42
   3  -6   5    5.21    1.53
   3  -6   5    6.59    1.22
   3  -6   5    5.60    1.07
   3  -6   5    5.99    1.82
   3  -6   5    3.20    1.41
  -4   6  -5   -0.34    2.04
  -4   6  -5    1.58    1.36
  -4   6  -5    1.17    0.78
  -4   6  -5    2.51    1.94
  -4   6  -5    0.94    1.81
  -4   6  -5    2.03    1.66
  -4   6  -5    1.91    1.50
  -4   6  -5    1.62    1.23
   4  -6   5    1.32    1.74
   4  -6   5   -0.91    1.66
   4  -6   5    0.56    1.01
   4  -6   5    1.84    1.52
   4  -6   5    1.82    2.16
   4  -6   5    1.24    1.29
   4  -6   5    3.01    2.05
  -5   6  -5    0.64    1.42
  -5   6  -5    2.64    2.28
  -5   6  -5   -0.97    2.81
  -5   6  -5   -2.86    1.97
  -5   6  -5   -2.59    2.54
  -5   6  -5    1.51    0.97
   5  -6   5   -2.37    2.41
   5  -6   5    3.84    2.12
   5  -6   5   -0.30    2.33
   5  -6   5   -0.48    1.18
   5  -6   5    0.04    2.23
   5  -6   5    1.38    1.02
   6   5  -5   -2.94    1.46
   6   5  -5    2.85    1.20
   6   5  -5   -0.68    1.13
   6   5  -5    0.47    1.05
   6   5  -5    1.24    2.05
   6   5  -5    1.31    1.37
  -6  -5   5    1.59    1.18
  -6  -5   5    0.87    0.91
  -6  -5   5   -1.10    1.02
  -6  -5   5   -1.32    1.33
  -6  -5   5    0.27    1.24
  -6  -5   5    2.26    1.30
  -6  -5   5   -0.34    1.46
   5   5  -5    2.70    1.06
   5   5  -5    2.43    0.95
   5   5  -5    1.54    1.36
   5   5  -5    2.44    0.97
   5   5  -5    1.49    1.59
   5   5  -5    1.70    1.09
  -5  -5   5    2.12    1.03
  -5  -5   5    3.69    0.82
  -5  -5   5    2.44    0.88
  -5  -5   5    1.79    0.81
  -5  -5   5    1.72    0.98
  -5  -5   5    1.75    1.13
   4   5  -5   14.04    1.14
   4   5  -5   13.25    1.01
   4   5  -5   12.70    1.36
   4   5  -5   16.00    1.06
   4   5  -5   14.04    1.18
   4   5  -5   15.07    1.48
  -4  -5   5   15.34    1.19
  -4  -5   5   13.45    0.95
  -4  -5   5   13.61    1.36
  -4  -5   5   14.46    1.07
  -4  -5   5   12.29    1.16
  -4  -5   5   15.77    1.26
  -4  -5   5   16.13    1.02
   3   5  -5  100.53    2.56
   3   5  -5  101.68    2.94
   3   5  -5  103.98    2.80
   3   5  -5   99.24    2.82
   3   5  -5  100.39    2.61
   3   5  -5  103.19    3.02
  -3  -5   5  100.12    2.77
  -3  -5   5   99.73    2.81
  -3  -5   5  101.08    2.64
  -3  -5   5  100.45    2.74
  -3  -5   5  100.37    2.49
  -3  -5   5  106.08    3.06
  -3  -5   5  100.73    2.69
   2   5  -5   -0.44    0.61
   2   5  -5   -0.26    0.59
   2   5  -5    0.08    0.83
   2   5  -5   -0.06    0.79
   2   5  -5   -0.12    0.44
   2   5  -5    1.34    0.78
   2   5  -5   -0.06    0.88
  -2  -5   5   -0.60    0.61
  -2  -5   5   -0.30    0.69
  -2  -5   5   -0.35    0.69
  -2  -5   5   -0.26    0.66
  -2  -5   5   -0.20    0.70
  -2  -5   5   -1.32    0.68
  -2  -5   5   -0.16    0.46
  -2  -5   5    0.19    0.52
   1   5  -5    0.36    0.51
   1   5  -5    1.57    0.65
   1   5  -5    0.72    0.54
   1   5  -5    0.70    0.82
   1   5  -5    0.98    0.79
   1   5  -5    1.89    0.90
   1   5  -5    0.35    0.93
   1   5  -5    1.68    0.69
  -1  -5   5    1.48    0.70
  -1  -5   5    0.93    0.44
  -1  -5   5    0.76    0.66
  -1  -5   5    0.87    0.70
  -1  -5   5    0.76    0.63
  -1  -5   5    1.39    0.75
  -1  -5   5    1.16    0.57
  -1  -5   5    1.72    0.75
   0   5  -5  222.69    5.13
   0   5  -5  223.54    4.90
   0   5  -5  226.98    4.75
   0   5  -5  227.71    5.01
   0   5  -5  226.51    5.25
   0   5  -5  219.77    4.96
   0  -5   5  220.30    4.70
   0  -5   5  223.42    4.91
   0  -5   5  226.47    5.21
   0  -5   5  223.99    4.99
   0  -5   5  223.15    4.94
   0  -5   5  222.28    4.98
   0  -5   5  227.65    5.13
   0  -5   5  229.93    5.07
  -1   5  -5    4.01    0.74
  -1   5  -5    5.36    0.84
  -1   5  -5    5.44    1.13
  -1   5  -5    4.54    0.71
  -1   5  -5    5.35    0.56
  -1   5  -5    4.58    0.76
  -1   5  -5    3.32    1.04
   1  -5   5    5.24    0.58
   1  -5   5    6.05    1.01
   1  -5   5    4.54    0.88
   1  -5   5    4.96    0.70
   1  -5   5    5.67    0.94
   1  -5   5    4.62    0.84
   1  -5   5    5.00    0.85
   1  -5   5    5.86    0.75
  -2   5  -5   58.73    2.23
  -2   5  -5   58.47    1.99
  -2   5  -5   57.14    1.95
  -2   5  -5   57.05    2.11
  -2   5  -5   56.91    2.43
  -2   5  -5   55.36    2.55
  -2   5  -5   58.50    1.54
   2  -5   5   58.18    2.27
   2  -5   5   56.43    1.84
   2  -5   5   54.15    2.25
   2  -5   5   56.44    2.01
   2  -5   5   57.31    2.19
   2  -5   5   60.60    2.58
   2  -5   5   55.88    2.11
  -3   5  -5  107.79    3.52
  -3   5  -5  109.31    3.31
  -3   5  -5  113.33    2.55
  -3   5  -5  107.51    3.64
  -3   5  -5  113.48    3.25
  -3   5  -5  110.41    3.11
  -3   5  -5  113.58    3.00
   3  -5   5  108.96    3.23
   3  -5   5  107.78    3.58
   3  -5   5  108.92    3.31
   3  -5   5  107.64    3.25
   3  -5   5  113.30    2.77
   3  -5   5  110.07    3.40
   3  -5   5  112.89    3.04
  -4   5  -5    0.06    1.44
  -4   5  -5    1.12    1.24
  -4   5  -5    0.92    1.05
  -4   5  -5    0.43    0.68
  -4   5  -5    1.97    1.42
  -4   5  -5    2.16    1.27
  -4   5  -5    0.84    1.22
   4  -5   5    1.45    1.09
   4  -5   5    0.12    1.30
   4  -5   5    0.81    0.71
   4  -5   5    2.55    1.37
   4  -5   5    2.99    1.26
   4  -5   5    0.77    1.66
  -5   5  -5   18.13    1.55
  -5   5  -5   16.54    2.23
  -5   5  -5   15.29    1.08
  -5   5  -5   18.82    1.51
  -5   5  -5   13.01    1.76
  -5   5  -5   18.48    2.12
  -5   5  -5   20.23    4.50
  -5   5  -5   17.96    2.18
   5  -5   5   16.91    1.05
   5  -5   5   12.16    1.35
   5  -5   5   16.38    1.88
   5  -5   5   22.25    2.05
   5  -5   5   21.57    1.93
   5  -5   5   18.72    1.23
   5  -5   5   18.57    1.97
  -6   5  -5   24.49    2.80
  -6   5  -5   25.63    2.85
  -6   5  -5   18.53    2.82
  -6   5  -5   18.33    2.07
  -6   5  -5   20.50    1.39
  -6   5  -5   18.55    1.86
   6  -5   5   19.64    2.24
   6  -5   5   14.33    2.57
   6  -5   5   23.07    2.43
   6  -5   5   21.47    2.55
   6  -5   5   22.37    2.41
   7   4  -5    2.55    1.13
   7   4  -5   -1.66    2.42
   7   4  -5    2.52    1.25
   7   4  -5    1.82    1.37
   7   4  -5    4.23    1.54
  -7  -4   5    0.45    1.19
  -7  -4   5    1.44    1.67
  -7  -4   5    0.69    1.00
  -7  -4   5   -1.20    1.43
  -7  -4   5   -1.12    1.35
  -7  -4   5   -0.41    1.38
  -7  -4   5    2.34    1.60
   6   4  -5   77.97    2.50
   6   4  -5   76.87    2.67
   6   4  -5   76.17    2.45
   6   4  -5   79.85    2.84
   6   4  -5   80.19    3.61
   6   4  -5   75.59    3.03
  -6  -4   5   76.37    2.76
  -6  -4   5   75.87    2.70
  -6  -4   5   74.29    2.91
  -6  -4   5   78.52    2.55
  -6  -4   5   78.58    2.52
  -6  -4   5   79.38    2.65
  -6  -4   5   76.86    2.38
   5   4  -5   37.07    1.94
   5   4  -5   40.69    1.83
   5   4  -5   39.96    1.81
   5   4  -5   40.36    2.25
   5   4  -5   37.61    1.74
   5   4  -5   39.73    2.66
  -5  -4   5   41.11    1.83
  -5  -4   5   39.39    2.00
  -5  -4   5   40.27    1.63
  -5  -4   5   41.55    1.91
  -5  -4   5   42.04    1.71
  -5  -4   5   42.14    2.33
  -5  -4   5   41.03    1.90
   4   4  -5   35.40    1.57
   4   4  -5   35.49    1.59
   4   4  -5   34.98    1.59
   4   4  -5   31.77    2.45
   4   4  -5   34.86    1.52
   4   4  -5   31.40    1.85
  -4  -4   5   36.32    1.69
  -4  -4   5   30.71    1.67
  -4  -4   5   36.05    1.66
  -4  -4   5   37.63    1.41
  -4  -4   5   33.53    1.50
  -4  -4   5   36.41    1.51
  -4  -4   5   30.49    1.61
   3   4  -5  811.04   16.46
   3   4  -5  803.50   16.71
   3   4  -5  812.47   16.45
   3   4  -5  839.09   16.56
   3   4  -5  812.66   16.38
   3   4  -5  816.11   16.62
  -3  -4   5  806.63   16.42
  -3  -4   5  801.99   16.51
  -3  -4   5  810.31   16.38
  -3  -4   5  834.67   16.54
  -3  -4   5  804.52   16.58
  -3  -4   5  819.95   16.41
   2   4  -5   24.83    1.44
   2   4  -5   25.28    0.82
   2   4  -5   24.67    1.35
   2   4  -5   27.32    1.33
   2   4  -5   27.13    1.12
  -2  -4   5   26.92    1.27
  -2  -4   5   28.16    1.31
  -2  -4   5   26.51    1.05
  -2  -4   5   26.71    0.81
  -2  -4   5   26.12    1.28
  -2  -4   5   28.47    1.16
  -2  -4   5   27.05    1.15
  -2  -4   5   28.60    1.17
   1   4  -5   29.32    1.19
   1   4  -5   31.73    1.45
   1   4  -5   31.15    1.27
   1   4  -5   30.83    1.38
   1   4  -5   30.73    1.45
   1   4  -5   29.39    1.04
   1   4  -5   29.53    1.09
   1   4  -5   30.29    1.17
  -1  -4   5   29.75    1.26
  -1  -4   5   29.34    1.29
  -1  -4   5   29.55    1.29
  -1  -4   5   29.20    1.36
  -1  -4   5   31.14    1.27
  -1  -4   5   28.78    1.15
  -1  -4   5   30.87    0.99
  -1  -4   5   28.25    1.04
   0   4  -5   22.14    1.00
   0   4  -5   21.17    1.16
   0   4  -5   22.27    1.25
   0   4  -5   23.96    1.39
   0   4  -5   21.72    0.93
   0   4  -5   22.50    1.05
   0   4  -5   20.64    1.01
   0   4  -5   21.98    1.31
   0  -4   5   22.30    1.22
   0  -4   5   21.18    1.30
   0  -4   5   21.22    1.25
   0  -4   5   21.76    1.04
   0  -4   5   20.13    1.08
   0  -4   5   20.85    1.17
   0  -4   5   21.77    1.02
   0  -4   5   20.56    0.81
  -1   4  -5   48.88    1.87
  -1   4  -5   48.27    1.67
  -1   4  -5   49.03    1.32
  -1   4  -5   49.16    1.61
  -1   4  -5   48.67    1.89
  -1   4  -5   48.39    1.51
  -1   4  -5   51.31    1.66
  -1   4  -5   51.73    1.54
   1  -4   5   47.87    1.35
   1  -4   5   48.33    1.52
   1  -4   5   48.00    1.70
   1  -4   5   50.25    1.85
   1  -4   5   49.71    1.68
   1  -4   5   50.20    1.53
   1  -4   5   48.49    1.78
   1  -4   5   47.66    1.59
  -2   4  -5    8.98    0.73
  -2   4  -5   10.41    0.94
  -2   4  -5    9.32    0.88
  -2   4  -5    8.59    1.03
  -2   4  -5   10.87    0.85
  -2   4  -5   10.41    0.77
  -2   4  -5   10.53    1.08
   2  -4   5   11.54    0.81
   2  -4   5    9.90    0.96
   2  -4   5   10.94    1.09
   2  -4   5    9.68    0.90
   2  -4   5    9.67    0.67
   2  -4   5    9.32    0.87
   2  -4   5    9.47    0.88
   2  -4   5    9.93    0.67
  -3   4  -5   43.34    1.73
  -3   4  -5   43.44    2.14
  -3   4  -5   41.75    1.28
  -3   4  -5   38.85    2.51
  -3   4  -5   41.11    1.84
  -3   4  -5   40.89    2.22
  -3   4  -5   47.86    1.97
   3  -4   5   44.36    1.97
   3  -4   5   42.40    1.88
   3  -4   5   38.42    2.03
   3  -4   5   42.79    1.37
   3  -4   5   45.23    2.16
   3  -4   5   42.04    1.94
   3  -4   5   41.42    1.64
  -4   4  -5    0.81    1.11
  -4   4  -5    1.49    1.25
  -4   4  -5    2.88    1.17
  -4   4  -5   -0.19    0.87
  -4   4  -5    1.82    1.15
  -4   4  -5    1.43    0.77
  -4   4  -5    1.50    0.62
   4  -4   5    1.72    0.54
   4  -4   5    2.54    1.04
   4  -4   5    1.20    1.03
   4  -4   5    1.54    0.97
   4  -4   5    1.04    1.02
   4  -4   5    1.61    1.20
   4  -4   5    2.36    1.02
  -5   4  -5   49.58    2.18
  -5   4  -5   46.12    2.49
  -5   4  -5   47.40    2.80
  -5   4  -5   48.14    2.87
  -5   4  -5   49.13    1.77
  -5   4  -5   43.29    2.93
  -5   4  -5   49.39    2.36
   5  -4   5   44.59    1.29
   5  -4   5   45.45    2.38
   5  -4   5   44.87    2.56
   5  -4   5   42.61    2.81
   5  -4   5   44.16    1.40
   5  -4   5   46.94    2.57
   5  -4   5   46.25    2.61
   5  -4   5   47.99    2.16
  -6   4  -5   71.74    3.09
  -6   4  -5   69.60    3.69
  -6   4  -5   76.01    4.01
  -6   4  -5   71.56    2.87
  -6   4  -5   70.45    2.99
  -6   4  -5   66.42    3.32
  -6   4  -5   67.41    3.76
  -6   4  -5   71.41    2.54
   6  -4   5   68.44    3.41
   6  -4   5   70.92    3.40
   6  -4   5   71.75    3.33
   6  -4   5   71.57    3.29
   6  -4   5   62.48    3.77
   6  -4   5   70.52    3.00
  -7   4  -5   20.93    2.08
  -7   4  -5   26.16    3.00
  -7   4  -5   19.78    3.09
  -7   4  -5   20.02    2.22
  -7   4  -5   19.84    2.79
  -7   4  -5   21.25    1.77
   7  -4   5   18.10    2.75
   7  -4   5   21.78    2.38
   7   3  -5    2.00    1.62
   7   3  -5    2.22    1.10
   7   3  -5    2.70    1.13
   7   3  -5    0.13    1.41
   7   3  -5    3.11    2.15
   7   3  -5    1.55    1.37
  -7  -3   5    2.02    1.46
  -7  -3   5    0.70    1.21
  -7  -3   5   -0.56    1.19
  -7  -3   5    2.55    1.43
  -7  -3   5   -0.61    1.09
  -7  -3   5    0.60    1.27
   6   3  -5   20.10    1.86
   6   3  -5   19.62    1.55
   6   3  -5   18.96    1.58
   6   3  -5   19.63    1.43
   6   3  -5   21.16    1.37
   6   3  -5   18.93    1.46
  -6  -3   5   17.15    1.36
  -6  -3   5   20.69    1.36
  -6  -3   5   20.07    1.68
   5   3  -5   91.78    2.65
   5   3  -5   96.02    3.11
   5   3  -5   88.41    2.46
   5   3  -5   93.91    2.63
   5   3  -5   88.31    2.43
   5   3  -5   90.30    2.65
  -5  -3   5   88.58    2.32
  -5  -3   5   91.35    2.63
  -5  -3   5   87.93    2.61
  -5  -3   5   94.15    2.61
  -5  -3   5   87.38    2.46
  -5  -3   5   91.27    2.51
   4   3  -5  199.10    4.29
   4   3  -5  184.99    4.32
   4   3  -5  200.20    4.56
   4   3  -5  194.10    4.22
   4   3  -5  198.74    4.35
  -4  -3   5  196.48    4.25
  -4  -3   5  170.40    4.42
  -4  -3   5  167.03    4.83
  -4  -3   5  199.53    4.34
  -4  -3   5  193.98    4.29
  -4  -3   5  193.65    4.36
  -4  -3   5  196.92    4.19
   3   3  -5   79.23    2.21
   3   3  -5   76.49    2.05
   3   3  -5   77.44    2.07
   3   3  -5   70.98    2.05
   3   3  -5   74.74    1.98
   3   3  -5   74.27    2.14
  -3  -3   5   76.80    1.96
  -3  -3   5   74.27    2.00
  -3  -3   5   76.71    1.97
  -3  -3   5   76.89    1.97
  -3  -3   5   74.29    2.05
  -3  -3   5   78.40    2.10
  -3  -3   5   78.11    1.95
   2   3  -5   12.66    0.97
   2   3  -5   12.25    0.95
   2   3  -5   12.43    0.99
   2   3  -5   13.06    0.96
   2   3  -5   12.40    1.00
   2   3  -5   11.34    0.83
  -2  -3   5   11.75    0.91
  -2  -3   5   13.25    0.81
  -2  -3   5   12.65    0.76
  -2  -3   5   11.63    0.94
  -2  -3   5   12.39    0.81
  -2  -3   5   11.43    0.85
  -2  -3   5   13.83    0.81
   1   3  -5  311.68    6.51
   1   3  -5  304.59    6.32
   1   3  -5  314.89    6.59
   1   3  -5  315.67    6.50
   1   3  -5  312.24    6.43
   1   3  -5  305.24    6.54
  -1  -3   5  312.25    6.36
  -1  -3   5  308.30    6.54
  -1  -3   5  306.75    6.33
  -1  -3   5  310.53    6.45
  -1  -3   5  318.07    6.55
  -1  -3   5  311.18    6.43
  -1  -3   5  309.90    6.49
  -1  -3   5  307.93    6.46
   0   3  -5  151.55    3.37
   0   3  -5  152.02    3.37
   0   3  -5  150.44    3.22
   0   3  -5  149.03    3.26
   0   3  -5  150.56    3.41
   0   3  -5  148.86    3.27
   0   3  -5  147.82    3.47
   0   3  -5  149.23    3.26
   0  -3   5  148.72    3.25
   0  -3   5  147.88    3.28
   0  -3   5  153.07    3.33
   0  -3   5  149.44    3.35
   0  -3   5  148.69    3.42
   0  -3   5  149.53    3.34
   0  -3   5  150.53    3.20
   0  -3   5  149.29    3.42
  -1   3  -5  117.28    2.66
  -1   3  -5  116.73    2.73
  -1   3  -5  117.04    2.75
  -1   3  -5  118.55    2.69
  -1   3  -5  117.42    2.57
  -1   3  -5  116.13    2.92
  -1   3  -5  119.46    2.90
  -1   3  -5  119.31    2.79
   1  -3   5  118.24    2.78
   1  -3   5  117.35    2.68
   1  -3   5  117.65    2.84
   1  -3   5  115.22    2.88
   1  -3   5  114.02    2.59
   1  -3   5  120.43    2.67
   1  -3   5  117.77    2.72
   1  -3   5  117.05    2.76
  -2   3  -5   16.24    0.73
  -2   3  -5   16.73    1.11
  -2   3  -5   17.98    1.27
  -2   3  -5   15.23    0.88
  -2   3  -5   14.81    1.25
  -2   3  -5   16.04    1.10
  -2   3  -5   15.82    0.98
  -2   3  -5   15.91    0.88
   2  -3   5   15.27    1.13
   2  -3   5   15.20    0.94
   2  -3   5   16.00    0.80
   2  -3   5   15.59    1.07
   2  -3   5   15.15    1.27
   2  -3   5   16.10    1.05
   2  -3   5   15.66    1.06
   2  -3   5   14.60    0.85
  -3   3  -5   12.20    0.85
  -3   3  -5   10.04    0.76
  -3   3  -5   10.58    1.04
  -3   3  -5    9.04    0.81
  -3   3  -5   10.94    0.91
  -3   3  -5    8.96    0.66
  -3   3  -5    9.84    1.02
   3  -3   5   10.05    0.86
   3  -3   5   10.05    1.02
   3  -3   5   10.27    0.71
   3  -3   5   11.61    0.79
   3  -3   5    9.58    0.87
   3  -3   5   10.06    0.82
   3  -3   5   10.82    0.88
  -4   3  -5    0.62    0.62
  -4   3  -5   -0.32    0.78
  -4   3  -5   -1.01    0.96
  -4   3  -5    0.57    0.53
  -4   3  -5    0.35    1.00
  -4   3  -5   -0.22    0.86
  -4   3  -5    0.05    0.71
   4  -3   5    0.59    0.78
   4  -3   5    0.95    0.63
   4  -3   5    0.56    0.36
   4  -3   5    0.66    0.77
   4  -3   5   -0.47    0.79
   4  -3   5    1.75    0.78
   4  -3   5    0.96    0.90
  -5   3  -5   -0.61    1.16
  -5   3  -5    0.80    0.77
  -5   3  -5    1.64    1.15
  -5   3  -5    0.46    1.01
  -5   3  -5    0.25    0.72
  -5   3  -5    1.18    1.14
  -5   3  -5    0.27    0.88
   5  -3   5    0.49    1.00
   5  -3   5    1.12    1.00
   5  -3   5    0.32    0.97
   5  -3   5   -0.82    1.06
   5  -3   5    0.28    0.91
   5  -3   5    1.27    0.73
  -6   3  -5  165.34    4.21
  -6   3  -5  163.83    3.95
  -6   3  -5  165.38    4.71
  -6   3  -5  165.70    4.12
  -6   3  -5  161.61    4.66
  -6   3  -5  156.93    4.29
  -6   3  -5  157.85    4.39
  -6   3  -5  165.61    4.72
   6  -3   5  160.38    4.18
   6  -3   5  167.99    4.44
   6  -3   5  165.54    4.35
   6  -3   5  164.78    4.32
   6  -3   5  162.76    4.35
   6  -3   5  148.56    4.56
  -7   3  -5    6.14    1.69
  -7   3  -5    3.47    1.48
  -7   3  -5    2.58    1.68
  -7   3  -5    5.53    1.52
  -7   3  -5    1.87    2.05
  -7   3  -5    4.31    1.40
  -7   3  -5    1.33    1.82
  -7   3  -5    2.09    2.23
   7  -3   5    2.77    1.42
   7  -3   5    4.55    1.74
   7  -3   5    5.35    1.49
   7  -3   5    3.98    1.66
   7  -3   5    6.03    1.64
   7  -3   5    2.14    1.67
   8   2  -5    2.18    1.67
  -8  -2   5    3.85    1.50
  -8  -2   5    3.93    1.37
   7   2  -5  115.51    3.38
   7   2  -5  115.02    3.13
   7   2  -5  114.92    3.89
   7   2  -5  113.25    4.42
   7   2  -5  114.71    3.69
   7   2  -5  108.72    3.19
  -7  -2   5  112.85    3.16
  -7  -2   5  114.73    3.51
  -7  -2   5  114.92    3.39
  -7  -2   5  123.38    3.76
  -7  -2   5  109.61    3.62
  -7  -2   5  116.87    3.22
   6   2  -5    9.36    1.35
   6   2  -5   10.60    1.00
   6   2  -5   10.55    1.69
   6   2  -5   10.79    1.10
   6   2  -5    9.24    1.17
   6   2  -5    9.78    0.99
  -6  -2   5   10.50    0.99
  -6  -2   5   12.31    1.25
  -6  -2   5   10.90    1.14
  -6  -2   5   10.28    1.17
  -6  -2   5   10.31    0.96
  -6  -2   5    8.55    0.96
   5   2  -5   23.41    1.70
   5   2  -5   20.91    1.29
   5   2  -5   19.24    1.55
   5   2  -5   18.91    1.89
   5   2  -5   27.12    2.07
   5   2  -5   21.43    1.28
  -5  -2   5   22.65    1.36
  -5  -2   5   21.75    1.50
  -5  -2   5   22.72    1.45
  -5  -2   5   23.76    1.28
  -5  -2   5   22.69    1.36
  -5  -2   5   21.48    1.30
   4   2  -5    9.91    0.82
   4   2  -5   10.01    0.80
   4   2  -5    8.34    0.96
   4   2  -5    9.53    1.06
   4   2  -5    9.72    0.84
  -4  -2   5   10.30    0.69
  -4  -2   5    8.66    0.74
  -4  -2   5    9.50    0.72
  -4  -2   5    9.79    0.76
  -4  -2   5   10.75    0.80
  -4  -2   5   10.07    0.75
   3   2  -5    0.53    0.51
   3   2  -5   -0.39    0.49
   3   2  -5    0.01    0.44
   3   2  -5    0.71    0.60
   3   2  -5    0.58    0.43
   3   2  -5    0.24    0.52
  -3  -2   5    0.37    0.43
  -3  -2   5    0.12    0.42
  -3  -2   5    0.00    0.40
  -3  -2   5    0.66    0.44
  -3  -2   5    0.13    0.38
  -3  -2   5    0.13    0.45
   2   2  -5   30.96    1.13
   2   2  -5   30.41    1.05
   2   2  -5   31.97    1.14
   2   2  -5   30.47    1.06
   2   2  -5   31.32    1.16
   2   2  -5   30.11    1.13
  -2  -2   5   31.41    1.02
  -2  -2   5   31.58    1.01
  -2  -2   5   31.70    1.14
  -2  -2   5   29.48    1.04
  -2  -2   5   32.10    1.09
  -2  -2   5   30.74    1.07
  -2  -2   5   32.16    0.98
   1   2  -5   10.28    0.66
   1   2  -5    9.39    0.59
   1   2  -5    9.84    0.74
   1   2  -5    9.85    0.78
   1   2  -5   11.43    0.75
   1   2  -5    9.80    0.67
   1   2  -5   10.02    0.74
  -1  -2   5    9.18    0.75
  -1  -2   5   10.11    0.70
  -1  -2   5    9.68    0.68
  -1  -2   5    9.83    0.67
  -1  -2   5    9.90    0.58
  -1  -2   5    9.90    0.44
  -1  -2   5    9.99    0.59
  -1  -2   5   11.27    0.63
   0   2  -5  122.34    2.72
   0   2  -5  124.46    2.72
   0   2  -5  122.60    2.68
   0   2  -5  124.34    2.69
   0   2  -5  123.80    2.82
   0   2  -5  124.16    2.87
   0   2  -5  125.32    2.79
   0   2  -5  126.39    2.81
   0  -2   5  125.44    2.76
   0  -2   5  124.66    2.69
   0  -2   5  123.09    2.67
   0  -2   5  123.08    2.83
   0  -2   5  123.74    2.83
   0  -2   5  124.35    2.68
   0  -2   5  124.08    2.76
   0  -2   5  125.24    2.75
  -1   2  -5   44.15    1.12
  -1   2  -5   43.10    1.14
  -1   2  -5   42.12    1.20
  -1   2  -5   41.69    1.37
  -1   2  -5   42.07    1.21
  -1   2  -5   42.03    1.26
  -1   2  -5   42.96    1.29
   1  -2   5   42.36    1.24
   1  -2   5   44.13    1.35
   1  -2   5   44.56    1.16
   1  -2   5   43.94    1.16
   1  -2   5   40.80    1.30
   1  -2   5   43.90    1.15
   1  -2   5   43.11    1.27
   1  -2   5   42.15    1.22
  -2   2  -5   25.30    1.06
  -2   2  -5   23.51    1.14
  -2   2  -5   25.37    1.16
  -2   2  -5   23.99    0.86
  -2   2  -5   22.47    1.06
  -2   2  -5   24.75    0.87
  -2   2  -5   23.87    0.95
  -2   2  -5   24.42    0.82
   2  -2   5   23.01    0.89
   2  -2   5   23.35    1.01
   2  -2   5   24.34    0.91
   2  -2   5   24.86    0.80
   2  -2   5   24.17    1.02
   2  -2   5   23.44    1.02
   2  -2   5   23.32    1.15
  -3   2  -5  458.48    9.35
  -3   2  -5  468.24    9.56
  -3   2  -5  454.75    9.64
  -3   2  -5  458.63    9.40
  -3   2  -5  461.41    9.56
  -3   2  -5  465.81    9.47
  -3   2  -5  456.00    9.58
  -3   2  -5  447.80    9.29
   3  -2   5  470.28    9.57
   3  -2   5  469.67    9.65
   3  -2   5  462.17    9.52
   3  -2   5  465.29    9.44
   3  -2   5  463.97    9.48
   3  -2   5  462.19    9.25
   3  -2   5  452.82    9.52
  -4   2  -5  129.87    3.28
  -4   2  -5  135.08    3.04
  -4   2  -5  133.56    3.43
  -4   2  -5  132.32    3.33
  -4   2  -5  132.60    3.19
  -4   2  -5  134.94    3.38
  -4   2  -5  133.06    3.15
   4  -2   5  131.55    3.38
   4  -2   5  133.40    2.77
   4  -2   5  137.34    3.28
   4  -2   5  131.81    3.21
   4  -2   5  134.02    3.12
   4  -2   5  135.15    3.27
   4  -2   5  134.91    3.20
  -5   2  -5    1.99    1.01
  -5   2  -5    2.83    0.70
  -5   2  -5    2.73    0.96
  -5   2  -5    3.30    0.82
  -5   2  -5    3.76    0.73
  -5   2  -5    2.54    0.86
  -5   2  -5    3.37    0.98
   5  -2   5    3.26    0.89
   5  -2   5    2.71    0.69
   5  -2   5    1.43    0.81
   5  -2   5    2.80    0.78
   5  -2   5    3.07    0.81
   5  -2   5    3.52    1.07
  -6   2  -5    3.25    1.20
  -6   2  -5    3.41    1.30
  -6   2  -5    4.17    0.99
  -6   2  -5    5.85    1.32
  -6   2  -5    3.90    0.94
  -6   2  -5    2.77    0.91
  -6   2  -5    2.01    1.08
   6  -2   5    3.89    0.99
   6  -2   5    3.44    0.94
   6  -2   5    4.34    1.05
   6  -2   5    2.98    1.07
   6  -2   5    4.79    1.19
   6  -2   5    3.35    1.04
  -7   2  -5    3.56    1.65
  -7   2  -5    0.82    1.34
  -7   2  -5    1.92    1.47
  -7   2  -5    5.57    1.53
  -7   2  -5   -0.04    1.29
  -7   2  -5    2.71    1.27
  -7   2  -5    3.74    1.50
  -7   2  -5    7.22    1.26
   7  -2   5    5.91    1.24
   7  -2   5    4.99    1.35
   7  -2   5    2.55    1.18
   7  -2   5    4.86    1.40
  -8   2  -5    3.71    1.93
  -8   2  -5    6.29    2.21
  -8   2  -5    3.41    1.82
  -8   2  -5    6.37    1.69
  -8   2  -5    5.98    2.16
  -8   2  -5    3.89    2.00
  -8   2  -5    4.98    1.78
  -8   2  -5    5.49    2.24
   8  -2   5    1.08    1.55
   8  -2   5    2.63    1.81
   8  -2   5   -0.10    1.63
   8  -2   5    3.27    1.51
   8  -2   5    7.10    1.95
   8   1  -5    0.09    1.45
  -8  -1   5    2.84    1.31
  -8  -1   5    1.96    2.77
  -8  -1   5    0.94    1.54
   7   1  -5   -0.90    1.07
   7   1  -5    0.82    1.44
   7   1  -5    2.12    1.05
   7   1  -5   -0.06    1.84
   7   1  -5    1.93    1.05
   7   1  -5    4.50    1.78
  -7  -1   5    2.22    1.21
  -7  -1   5    0.02    1.07
  -7  -1   5    1.26    1.40
  -7  -1   5    2.33    1.37
  -7  -1   5    0.92    0.99
  -7  -1   5    1.98    1.23
   6   1  -5   29.52    1.62
   6   1  -5   21.96    1.80
   6   1  -5   31.27    2.35
   6   1  -5   30.87    1.68
   6   1  -5   26.90    2.06
   6   1  -5   28.10    1.71
  -6  -1   5   29.22    1.72
  -6  -1   5   27.88    1.89
  -6  -1   5   29.62    1.68
  -6  -1   5   29.50    1.96
  -6  -1   5   29.53    1.96
   5   1  -5   49.28    2.27
   5   1  -5   47.19    1.66
   5   1  -5   50.67    2.03
   5   1  -5   43.96    1.76
   5   1  -5   46.09    1.72
  -5  -1   5   46.67    1.59
  -5  -1   5   45.77    1.75
  -5  -1   5   46.69    1.74
  -5  -1   5   46.82    1.71
  -5  -1   5   46.52    1.65
  -5  -1   5   44.79    2.04
   4   1  -5   -0.92    0.53
   4   1  -5    0.14    0.67
   4   1  -5   -0.26    0.46
   4   1  -5   -0.02    0.76
   4   1  -5    0.31    0.67
   4   1  -5   -0.14    0.52
  -4  -1   5   -0.11    0.52
  -4  -1   5    0.45    0.55
  -4  -1   5   -0.34    0.54
  -4  -1   5   -1.00    0.51
  -4  -1   5    0.00    0.52
  -4  -1   5   -0.87    0.46
   3   1  -5    7.65    0.60
   3   1  -5    7.60    0.61
   3   1  -5    7.56    0.55
   3   1  -5    7.97    0.70
   3   1  -5    6.43    0.68
   3   1  -5    8.55    0.67
  -3  -1   5    8.90    0.65
  -3  -1   5    7.50    0.57
  -3  -1   5    9.18    0.61
  -3  -1   5    6.24    0.55
  -3  -1   5    6.33    0.52
  -3  -1   5    7.79    0.73
   2   1  -5  138.25    3.18
   2   1  -5  140.01    3.17
   2   1  -5  144.83    2.89
   2   1  -5  141.75    2.89
   2   1  -5  142.53    3.09
   2   1  -5  139.96    3.16
   2   1  -5  140.81    3.12
   2   1  -5  141.84    3.11
  -2  -1   5  139.08    3.07
  -2  -1   5  139.26    3.10
  -2  -1   5  141.30    3.15
  -2  -1   5  142.16    3.11
  -2  -1   5  147.25    3.07
   1   1  -5  209.93    4.34
   1   1  -5  211.15    4.42
   1   1  -5  205.70    4.42
   1   1  -5  207.66    4.23
   1   1  -5  208.79    4.35
   1   1  -5  208.57    4.36
   1   1  -5  202.81    4.37
  -1  -1   5  206.78    4.32
  -1  -1   5  204.06    4.42
  -1  -1   5  204.22    4.39
  -1  -1   5  211.63    4.33
  -1  -1   5  209.58    4.36
  -1  -1   5  206.74    4.35
  -1  -1   5  205.24    4.26
   0   1  -5  154.23    3.28
   0   1  -5  154.57    3.22
   0   1  -5  158.23    3.35
   0   1  -5  155.85    3.28
   0   1  -5  158.47    3.36
   0   1  -5  152.51    3.32
   0   1  -5  153.34    3.39
   0   1  -5  154.12    3.28
   0  -1   5  160.74    3.31
   0  -1   5  155.14    3.30
   0  -1   5  155.50    3.27
   0  -1   5  152.51    3.24
   0  -1   5  154.69    3.37
   0  -1   5  156.47    3.22
   0  -1   5  154.91    3.38
  -1   1  -5  172.35    3.61
  -1   1  -5  168.85    3.53
  -1   1  -5  168.14    3.61
  -1   1  -5  167.19    3.51
  -1   1  -5  163.64    3.53
  -1   1  -5  163.72    3.47
  -1   1  -5  172.36    3.59
  -1   1  -5  167.40    3.66
   1  -1   5  169.94    3.64
   1  -1   5  170.28    3.52
   1  -1   5  169.60    3.54
   1  -1   5  163.85    3.48
   1  -1   5  162.54    3.55
   1  -1   5  171.51    3.65
   1  -1   5  165.36    3.57
  -2   1  -5    4.48    0.52
  -2   1  -5    2.78    0.45
  -2   1  -5    3.20    0.32
  -2   1  -5    3.98    0.34
  -2   1  -5    5.00    0.51
  -2   1  -5    4.13    0.42
  -2   1  -5    3.62    0.35
  -2   1  -5    3.33    0.46
   2  -1   5    3.51    0.45
   2  -1   5    3.59    0.39
   2  -1   5    3.75    0.41
   2  -1   5    4.54    0.33
   2  -1   5    4.04    0.35
   2  -1   5    4.67    0.46
   2  -1   5    3.36    0.39
   2  -1   5    3.74    0.41
  -3   1  -5    5.67    0.58
  -3   1  -5    5.83    0.48
  -3   1  -5    6.04    0.47
  -3   1  -5    5.20    0.56
  -3   1  -5    5.37    0.56
  -3   1  -5    6.38    0.55
  -3   1  -5    5.44    0.46
  -3   1  -5    7.13    0.66
   3  -1   5    6.77    0.55
   3  -1   5    5.47    0.52
   3  -1   5    5.75    0.42
   3  -1   5    5.34    0.50
   3  -1   5    6.06    0.48
   3  -1   5    7.14    0.66
   3  -1   5    5.98    0.56
  -4   1  -5    9.47    0.83
  -4   1  -5   10.66    0.89
  -4   1  -5    9.62    0.79
  -4   1  -5    9.72    0.78
  -4   1  -5   10.90    0.84
  -4   1  -5    9.12    0.64
  -4   1  -5   10.47    0.88
   4  -1   5   11.64    0.84
   4  -1   5    9.48    0.75
   4  -1   5   11.01    0.87
   4  -1   5   11.77    0.95
   4  -1   5   10.36    0.69
  -5   1  -5   66.74    1.98
  -5   1  -5   68.62    2.28
  -5   1  -5   70.18    2.22
  -5   1  -5   72.59    2.26
  -5   1  -5   66.73    1.93
  -5   1  -5   70.04    2.19
  -5   1  -5   66.55    1.98
   5  -1   5   71.15    2.20
   5  -1   5   65.25    2.04
   5  -1   5   68.69    1.98
   5  -1   5   69.32    2.00
   5  -1   5   65.64    2.10
   5  -1   5   71.97    1.99
  -6   1  -5    0.76    0.78
  -6   1  -5    0.53    1.05
  -6   1  -5    0.81    0.78
  -6   1  -5   -0.15    0.92
  -6   1  -5    0.24    0.96
  -6   1  -5    1.18    0.75
  -6   1  -5    1.30    0.96
   6  -1   5    1.64    0.79
   6  -1   5    0.47    0.90
   6  -1   5    0.06    0.88
   6  -1   5    0.53    0.69
   6  -1   5    0.97    0.78
   6  -1   5    1.42    0.84
  -7   1  -5    8.92    1.50
  -7   1  -5    8.44    1.27
  -7   1  -5    8.33    1.51
  -7   1  -5    9.58    1.18
  -7   1  -5    9.47    1.16
  -7   1  -5    8.73    1.53
  -7   1  -5    9.25    1.39
  -7   1  -5   11.95    1.43
   7  -1   5    7.34    1.04
   7  -1   5    9.81    1.14
   7  -1   5    9.81    1.27
   7  -1   5    9.17    1.07
   7  -1   5    9.30    1.14
  -8   1  -5    3.55    1.81
  -8   1  -5    4.29    1.45
  -8   1  -5    3.87    1.78
  -8   1  -5    4.02    1.85
  -8   1  -5    3.71    1.56
  -8   1  -5    3.77    1.80
  -8   1  -5    5.35    1.74
  -8   1  -5    5.77    1.45
   8  -1   5    3.73    1.56
   8  -1   5    4.05    1.33
   8  -1   5    5.77    1.25
   8  -1   5    3.57    1.27
   8  -1   5    2.60    1.41
   8   0  -5   -1.41    1.33
   8   0  -5    1.34    1.73
  -8   0   5    1.81    1.63
  -8   0   5    1.42    2.78
  -8   0   5    1.87    1.32
  -8   0   5   -0.81    1.62
   7   0  -5   10.78    2.17
   7   0  -5   12.33    1.43
   7   0  -5   10.49    1.86
   7   0  -5   11.65    1.05
   7   0  -5   11.35    1.18
  -7   0   5   12.02    1.96
  -7   0   5    8.31    1.39
  -7   0   5   13.55    1.45
  -7   0   5   12.82    1.54
  -7   0   5   14.04    1.51
  -7   0   5   13.11    0.87
  -7   0   5   12.69    1.57
  -7   0   5   15.39    1.19
   6   0  -5   66.46    1.91
   6   0  -5   65.56    2.79
   6   0  -5   60.42    2.91
   6   0  -5   59.51    2.30
   6   0  -5   62.87    2.06
   6   0  -5   65.68    2.97
   6   0  -5   69.23    2.16
  -6   0   5   67.55    2.30
  -6   0   5   63.77    2.35
  -6   0   5   66.64    2.46
  -6   0   5   62.79    2.49
  -6   0   5   64.39    1.75
  -6   0   5   64.09    2.04
  -6   0   5   70.36    2.40
   5   0  -5    2.03    1.08
   5   0  -5    1.50    0.66
   5   0  -5    2.06    1.62
   5   0  -5    1.45    0.56
   5   0  -5    1.17    0.61
   5   0  -5    1.64    0.86
   5   0  -5    0.74    0.98
  -5   0   5    1.08    0.75
  -5   0   5    1.30    0.79
  -5   0   5    0.48    0.61
  -5   0   5    1.73    0.43
  -5   0   5    2.36    0.74
  -5   0   5    1.36    0.68
  -5   0   5    1.27    0.73
   4   0  -5   19.68    1.05
   4   0  -5   22.30    1.47
   4   0  -5   21.31    0.90
   4   0  -5   20.40    1.45
   4   0  -5   19.90    1.07
   4   0  -5   21.98    1.21
   4   0  -5   21.38    1.40
  -4   0   5   20.62    1.01
  -4   0   5   22.20    1.13
  -4   0   5   20.66    0.73
  -4   0   5   19.46    1.18
  -4   0   5   19.44    1.14
  -4   0   5   21.22    1.18
  -4   0   5   21.07    1.12
   3   0  -5   -0.14    0.52
   3   0  -5   -0.02    0.31
   3   0  -5    0.96    0.54
   3   0  -5    0.00    0.39
   3   0  -5    0.61    0.47
   3   0  -5    0.33    0.52
   3   0  -5    0.16    0.37
  -3   0   5    0.49    0.40
  -3   0   5   -0.10    0.39
  -3   0   5    0.71    0.41
  -3   0   5    0.64    0.47
  -3   0   5   -0.39    0.39
  -3   0   5    0.20    0.38
   2   0  -5  164.65    3.62
   2   0  -5  167.13    3.65
   2   0  -5  165.62    3.68
   2   0  -5  163.24    3.56
   2   0  -5  167.93    3.62
   2   0  -5  164.86    3.57
   2   0  -5  164.73    3.44
  -2   0   5  164.76    3.59
  -2   0   5  166.25    3.62
  -2   0   5  163.51    3.56
  -2   0   5  163.72    3.54
  -2   0   5  167.77    3.52
  -2   0   5  173.15    3.57
   1   0  -5  328.50    6.69
   1   0  -5  327.34    6.75
   1   0  -5  327.26    6.59
   1   0  -5  333.24    6.76
   1   0  -5  331.27    6.69
   1   0  -5  329.98    6.69
   1   0  -5  325.30    6.68
  -1   0   5  325.46    6.65
  -1   0   5  330.57    6.60
  -1   0   5  331.33    6.69
  -1   0   5  317.32    6.72
  -1   0   5  329.44    6.70
  -1   0   5  315.16    6.64
   0   0  -5  661.65   13.38
   0   0  -5  681.49   13.40
   0   0  -5  669.44   13.36
   0   0  -5  672.84   13.44
   0   0  -5  669.63   13.46
   0   0  -5  678.06   13.40
   0   0  -5  663.28   13.37
   0   0   5  654.02   13.27
   0   0   5  653.64   13.43
   0   0   5  686.81   13.41
   0   0   5  673.48   13.37
   0   0   5  678.82   13.46
   0   0   5  661.23   13.37
  -1   0  -5  389.11    7.91
  -1   0  -5  397.41    7.92
  -1   0  -5  390.69    7.97
  -1   0  -5  394.63    7.92
  -1   0  -5  378.52    7.81
  -1   0  -5  398.82    7.96
  -1   0  -5  403.78    7.95
  -1   0  -5  389.07    7.99
   1   0   5  385.30    7.92
   1   0   5  397.10    7.94
   1   0   5  386.64    7.98
   1   0   5  401.01    7.98
   1   0   5  395.21    7.93
   1   0   5  384.21    7.82
   1   0   5  394.67    7.92
  -2   0  -5   32.47    0.95
  -2   0  -5   30.08    0.97
  -2   0  -5   31.44    0.99
  -2   0  -5   30.41    0.90
  -2   0  -5   32.75    0.93
  -2   0  -5   30.07    0.87
  -2   0  -5   30.31    0.79
  -2   0  -5   30.32    0.95
   2   0   5   31.06    0.81
   2   0   5   31.62    0.95
   2   0   5   30.37    0.96
   2   0   5   30.37    0.98
   2   0   5   31.23    0.88
   2   0   5   31.37    0.83
  -3   0  -5   18.15    0.77
  -3   0  -5   14.94    0.81
  -3   0  -5   17.24    0.85
  -3   0  -5   16.26    0.66
  -3   0  -5   16.81    0.55
  -3   0  -5   17.57    0.88
  -3   0  -5   17.13    0.81
  -3   0  -5   17.59    0.83
   3   0   5   17.34    0.85
   3   0   5   17.53    0.73
   3   0   5   17.28    0.59
   3   0   5   17.05    0.70
   3   0   5   17.63    0.69
   3   0   5   17.78    0.79
  -4   0  -5    2.40    0.50
  -4   0  -5    3.28    0.54
  -4   0  -5    3.61    0.24
  -4   0  -5    2.20    0.44
  -4   0  -5    3.45    0.44
  -4   0  -5    2.38    0.56
  -4   0  -5    2.48    0.51
  -4   0  -5    2.58    0.45
   4   0   5    3.38    0.28
   4   0   5    3.29    0.52
   4   0   5    3.05    0.48
   4   0   5    2.94    0.57
   4   0   5    4.02    0.48
   4   0   5    2.94    0.43
   4   0   5    3.80    0.44
  -5   0  -5   13.34    0.91
  -5   0  -5   14.28    0.97
  -5   0  -5   13.75    1.01
  -5   0  -5   16.18    1.29
  -5   0  -5   13.66    1.16
  -5   0  -5   15.78    1.11
  -5   0  -5   13.70    0.98
   5   0   5   13.09    1.08
   5   0   5   12.13    0.89
   5   0   5   13.25    1.11
   5   0   5   13.32    0.98
   5   0   5   13.41    0.86
   5   0   5   13.04    0.96
  -6   0  -5   12.71    0.92
  -6   0  -5   14.68    1.17
  -6   0  -5   13.89    1.07
  -6   0  -5   11.11    1.04
  -6   0  -5   13.68    1.05
  -6   0  -5   14.67    1.10
  -6   0  -5   14.90    1.24
   6   0   5   14.38    0.90
   6   0   5   10.98    0.95
   6   0   5   13.51    0.82
   6   0   5   12.86    1.08
   6   0   5   11.02    0.84
  -7   0  -5   13.14    1.31
  -7   0  -5    9.18    1.28
  -7   0  -5    7.77    1.39
  -7   0  -5   12.65    1.11
  -7   0  -5    9.63    1.97
  -7   0  -5    8.38    1.16
  -7   0  -5    9.96    1.33
  -7   0  -5    9.94    1.09
   7   0   5   11.28    0.94
   7   0   5    9.95    1.01
   7   0   5   11.90    1.00
   7   0   5   10.81    1.16
   7   0   5   10.48    0.90
  -8   0  -5    1.56    1.56
  -8   0  -5   -1.17    1.39
  -8   0  -5    0.72    1.25
  -8   0  -5    0.40    1.39
  -8   0  -5   -1.57    1.58
  -8   0  -5   -0.82    1.60
  -8   0  -5    0.90    1.31
  -8   0  -5    0.63    1.39
   8   0   5    0.50    1.31
   8   0   5    0.68    0.91
   8   0   5   -0.36    0.98
   8   0   5   -0.26    1.06
   8   0   5   -0.39    1.00
  -9   0  -5    2.40    2.09
  -9   0  -5    1.80    1.78
   9   0   5    0.65    1.29
   9   0   5   -1.14    1.16
   9   0   5   -0.06    1.76
   9   0   5   -0.23    1.51
   7  -1  -5   18.82    2.15
   7  -1  -5   14.08    1.34
   7  -1  -5   14.61    2.04
   7  -1  -5   14.66    2.10
   7  -1  -5   14.57    1.18
   7  -1  -5   15.93    1.44
  -7   1   5   13.50    1.12
  -7   1   5   15.47    1.71
  -7   1   5   15.29    1.66
  -7   1   5   18.10    1.66
  -7   1   5   17.07    1.81
  -7   1   5   15.55    1.29
  -7   1   5   13.79    1.46
  -7   1   5   18.96    2.48
   6  -1  -5  124.51    3.43
   6  -1  -5  130.68    3.37
   6  -1  -5  128.50    3.95
   6  -1  -5  131.46    4.00
   6  -1  -5  131.56    3.99
   6  -1  -5  127.91    3.24
   6  -1  -5  128.85    3.13
  -6   1   5  121.99    3.67
  -6   1   5  124.58    3.05
  -6   1   5  129.52    3.18
  -6   1   5  125.59    3.45
  -6   1   5  129.02    4.13
  -6   1   5  129.94    3.42
  -6   1   5  129.64    3.58
  -6   1   5  123.70    3.43
   5  -1  -5  167.81    4.20
   5  -1  -5  159.49    3.76
   5  -1  -5  166.80    4.26
   5  -1  -5  159.43    3.83
   5  -1  -5  167.82    3.71
   5  -1  -5  166.62    4.28
  -5   1   5  164.21    3.86
  -5   1   5  161.38    3.65
  -5   1   5  167.24    3.76
  -5   1   5  167.23    3.92
  -5   1   5  161.93    3.93
  -5   1   5  162.35    4.03
  -5   1   5  173.26    4.09
   4  -1  -5   30.07    1.27
   4  -1  -5   28.52    1.22
   4  -1  -5   28.15    1.56
   4  -1  -5   27.54    1.63
   4  -1  -5   26.83    1.14
   4  -1  -5   28.12    1.18
   4  -1  -5   29.84    1.64
  -4   1   5   28.65    1.02
  -4   1   5   28.73    1.29
  -4   1   5   26.93    1.21
  -4   1   5   37.04    1.84
  -4   1   5   26.28    1.31
  -4   1   5   28.81    1.17
  -4   1   5   24.30    1.39
   3  -1  -5  349.06    7.31
   3  -1  -5  348.74    7.30
   3  -1  -5  350.62    7.19
   3  -1  -5  343.63    7.17
   3  -1  -5  351.67    7.43
   3  -1  -5  346.13    7.34
   3  -1  -5  352.04    7.16
  -3   1   5  342.23    7.10
  -3   1   5  354.71    7.21
  -3   1   5  344.64    7.20
  -3   1   5  342.61    7.23
  -3   1   5  356.66    7.20
  -3   1   5  350.99    7.34
   2  -1  -5   16.71    0.78
   2  -1  -5   17.00    0.81
   2  -1  -5   18.84    0.86
   2  -1  -5   16.06    0.74
   2  -1  -5   15.85    0.92
   2  -1  -5   17.34    0.67
   2  -1  -5   17.07    0.96
  -2   1   5   17.71    0.88
  -2   1   5   17.71    0.66
  -2   1   5   18.89    0.91
  -2   1   5   16.69    0.72
  -2   1   5   17.41    0.71
  -2   1   5   18.31    0.77
  -2   1   5   16.72    0.82
   1  -1  -5    5.31    0.44
   1  -1  -5    6.71    0.54
   1  -1  -5    4.84    0.38
   1  -1  -5    6.13    0.52
   1  -1  -5    6.28    0.54
   1  -1  -5    5.60    0.40
  -1   1   5    5.78    0.46
  -1   1   5    6.60    0.53
  -1   1   5    5.76    0.41
  -1   1   5    5.77    0.47
  -1   1   5    5.87    0.54
  -1   1   5    5.95    0.38
   0  -1  -5  223.93    4.72
   0  -1  -5  220.27    4.66
   0  -1  -5  230.17    4.67
   0  -1  -5  227.21    4.68
   0  -1  -5  225.72    4.64
   0  -1  -5  228.30    4.72
   0  -1  -5  229.85    4.65
   0   1   5  226.29    4.69
   0   1   5  225.13    4.67
   0   1   5  224.72    4.69
   0   1   5  224.18    4.64
  -1  -1  -5    0.46    0.25
  -1  -1  -5    0.98    0.24
  -1  -1  -5    0.74    0.24
  -1  -1  -5    1.07    0.28
  -1  -1  -5    0.77    0.22
  -1  -1  -5    1.27    0.28
  -1  -1  -5    0.49    0.22
   1   1   5    1.48    0.24
   1   1   5    0.74    0.27
   1   1   5    1.27    0.25
   1   1   5    1.16    0.25
  -2  -1  -5   30.18    0.84
  -2  -1  -5   31.17    0.85
  -2  -1  -5   30.10    0.73
  -2  -1  -5   29.92    0.81
  -2  -1  -5   30.84    0.95
  -2  -1  -5   30.53    0.88
  -2  -1  -5   30.93    0.87
  -2  -1  -5   31.18    0.90
   2   1   5   29.26    0.93
   2   1   5   31.67    0.74
   2   1   5   32.74    0.87
   2   1   5   30.53    0.84
   2   1   5   32.38    0.88
   2   1   5   31.01    0.81
   2   1   5   30.54    0.88
  -3  -1  -5   32.50    0.96
  -3  -1  -5   34.10    1.12
  -3  -1  -5   34.01    0.97
  -3  -1  -5   32.15    0.98
  -3  -1  -5   31.94    0.89
  -3  -1  -5   32.83    1.03
  -3  -1  -5   33.95    0.90
  -3  -1  -5   32.56    0.86
   3   1   5   33.06    0.99
   3   1   5   32.45    0.93
   3   1   5   33.21    0.89
   3   1   5   33.25    0.92
   3   1   5   32.89    0.86
   3   1   5   34.26    0.89
  -4  -1  -5  182.29    3.87
  -4  -1  -5  178.88    3.89
  -4  -1  -5  183.66    3.94
  -4  -1  -5  184.28    4.02
  -4  -1  -5  180.80    3.97
  -4  -1  -5  182.62    3.71
  -4  -1  -5  178.54    3.83
  -4  -1  -5  182.99    3.90
   4   1   5  183.10    3.82
   4   1   5  184.36    3.79
   4   1   5  182.10    3.86
   4   1   5  181.74    3.88
   4   1   5  178.59    3.75
   4   1   5  181.12    3.96
  -5  -1  -5    3.09    0.53
  -5  -1  -5    3.00    0.59
  -5  -1  -5    2.97    0.57
  -5  -1  -5    2.75    0.49
  -5  -1  -5    2.46    0.65
  -5  -1  -5    1.73    0.55
  -5  -1  -5    3.34    0.62
   5   1   5    2.78    0.52
   5   1   5    2.80    0.58
   5   1   5    3.72    0.52
   5   1   5    2.90    0.45
   5   1   5    3.04    0.39
   5   1   5    2.75    0.40
  -6  -1  -5   14.20    1.23
  -6  -1  -5   15.49    1.30
  -6  -1  -5   17.98    1.39
  -6  -1  -5   14.43    1.39
  -6  -1  -5   16.99    1.12
  -6  -1  -5   17.11    1.14
   6   1   5   17.40    1.28
   6   1   5   14.79    0.86
   6   1   5   17.11    0.88
   6   1   5   15.56    0.94
   6   1   5   14.43    1.10
  -7  -1  -5    6.77    1.09
  -7  -1  -5    8.93    1.15
  -7  -1  -5    7.21    1.06
  -7  -1  -5    7.14    1.05
  -7  -1  -5    5.10    0.85
  -7  -1  -5    6.66    0.97
  -7  -1  -5    5.29    1.37
  -7  -1  -5    7.63    1.12
   7   1   5    5.41    0.86
   7   1   5    6.62    0.98
   7   1   5    7.12    0.66
   7   1   5    8.34    0.70
   7   1   5    7.62    0.66
  -8  -1  -5    0.29    1.68
  -8  -1  -5    2.39    1.36
  -8  -1  -5    0.86    1.31
  -8  -1  -5    3.98    1.07
  -8  -1  -5    2.97    1.22
  -8  -1  -5    3.83    1.34
  -8  -1  -5    2.96    1.45
  -8  -1  -5   -0.40    1.24
   8   1   5    1.17    0.73
   8   1   5    2.19    0.68
   8   1   5    4.78    1.04
   8   1   5    1.51    1.16
   8   1   5    2.60    0.76
  -9  -1  -5   13.39    2.89
  -9  -1  -5   10.65    1.90
  -9  -1  -5    8.31    3.28
  -9  -1  -5   13.78    1.77
  -9  -1  -5    7.56    1.95
  -9  -1  -5   14.65    2.15
  -9  -1  -5   14.57    1.99
   9   1   5   11.12    1.79
   9   1   5   12.24    1.05
   9   1   5   14.21    1.01
   9   1   5   16.95    1.45
   7  -2  -5    3.02    2.03
   7  -2  -5    1.17    1.47
   7  -2  -5    4.11    2.28
   7  -2  -5    0.16    1.05
   7  -2  -5    1.01    1.50
   7  -2  -5    0.57    1.46
  -7   2   5    0.76    1.56
  -7   2   5   -0.04    2.41
  -7   2   5    0.95    1.28
  -7   2   5   -0.08    1.13
  -7   2   5   -0.69    1.50
  -7   2   5   -1.03    1.57
  -7   2   5   -2.12    1.80
  -7   2   5   -0.51    1.12
   6  -2  -5   46.13    3.02
   6  -2  -5   46.12    1.74
   6  -2  -5   46.20    3.09
   6  -2  -5   46.90    2.23
   6  -2  -5   49.42    2.91
   6  -2  -5   45.40    2.65
   6  -2  -5   43.61    2.22
  -6   2   5   47.04    2.10
  -6   2   5   44.58    2.27
  -6   2   5   46.15    2.45
  -6   2   5   47.14    3.30
  -6   2   5   47.21    2.31
  -6   2   5   48.16    2.21
  -6   2   5   48.25    1.98
   5  -2  -5    3.78    0.89
   5  -2  -5    4.17    0.84
   5  -2  -5    5.41    1.29
   5  -2  -5    2.46    1.11
   5  -2  -5    3.69    1.30
   5  -2  -5    4.46    0.69
   5  -2  -5    3.04    0.88
  -5   2   5    4.89    2.30
  -5   2   5    3.05    0.98
  -5   2   5    2.12    0.99
  -5   2   5    3.33    0.85
  -5   2   5    1.97    0.77
  -5   2   5    3.33    0.71
  -5   2   5    3.40    0.75
  -5   2   5    4.26    1.12
   4  -2  -5   82.94    2.25
   4  -2  -5   81.18    2.63
   4  -2  -5   80.74    2.63
   4  -2  -5   81.95    2.26
   4  -2  -5   83.77    2.43
   4  -2  -5   80.71    2.07
   4  -2  -5   78.13    2.17
  -4   2   5   79.15    2.17
  -4   2   5   82.47    2.13
  -4   2   5   81.72    2.15
  -4   2   5   79.02    2.39
  -4   2   5   84.02    2.72
  -4   2   5   77.11    2.37
  -4   2   5   84.22    2.31
  -4   2   5   79.42    2.08
   3  -2  -5  303.85    6.57
   3  -2  -5  299.07    6.33
   3  -2  -5  300.76    6.25
   3  -2  -5  303.23    6.49
   3  -2  -5  297.93    6.36
   3  -2  -5  295.45    6.26
   3  -2  -5  308.62    6.32
  -3   2   5  290.01    6.24
  -3   2   5  299.43    6.45
  -3   2   5  303.07    6.27
  -3   2   5  298.98    6.24
  -3   2   5  304.95    6.30
  -3   2   5  299.36    6.41
  -3   2   5  300.31    6.35
   2  -2  -5   20.09    0.79
   2  -2  -5   20.68    0.92
   2  -2  -5   18.41    0.84
   2  -2  -5   18.16    1.07
   2  -2  -5   19.52    0.92
   2  -2  -5   18.26    0.91
   2  -2  -5   18.20    1.16
  -2   2   5   18.70    0.99
  -2   2   5   18.04    0.75
  -2   2   5   19.36    0.75
  -2   2   5   19.04    0.91
  -2   2   5   18.42    0.99
  -2   2   5   18.87    0.89
  -2   2   5   17.77    0.80
   1  -2  -5   91.06    2.14
   1  -2  -5   91.42    2.14
   1  -2  -5   93.54    2.13
   1  -2  -5   92.64    2.26
   1  -2  -5   92.83    2.08
   1  -2  -5   89.94    2.23
   1  -2  -5   92.20    2.00
  -1   2   5   91.88    1.99
  -1   2   5   93.44    2.10
  -1   2   5   91.71    2.03
  -1   2   5   92.92    2.18
  -1   2   5   90.75    2.10
  -1   2   5   91.07    2.17
  -1   2   5   94.20    2.17
   0  -2  -5   18.43    0.69
   0  -2  -5   17.93    0.72
   0  -2  -5   18.92    0.78
   0  -2  -5   18.32    0.74
   0  -2  -5   19.66    0.73
   0  -2  -5   19.74    0.63
   0  -2  -5   18.23    0.50
   0   2   5   17.93    0.61
   0   2   5   17.62    0.68
   0   2   5   18.37    0.77
   0   2   5   18.17    0.72
   0   2   5   18.46    0.48
  -1  -2  -5  303.18    6.33
  -1  -2  -5  311.16    6.31
  -1  -2  -5  310.24    6.27
  -1  -2  -5  312.90    6.34
  -1  -2  -5  308.86    6.27
  -1  -2  -5  310.93    6.27
   1   2   5  309.23    6.27
   1   2   5  310.08    6.37
   1   2   5  315.12    6.30
   1   2   5  305.80    6.27
   1   2   5  305.72    6.23
  -2  -2  -5    9.04    0.48
  -2  -2  -5    9.21    0.57
  -2  -2  -5    8.79    0.45
  -2  -2  -5    8.28    0.36
  -2  -2  -5    9.28    0.43
  -2  -2  -5    8.67    0.41
  -2  -2  -5    8.77    0.52
   2   2   5    8.69    0.43
   2   2   5    8.72    0.60
   2   2   5    9.35    0.41
   2   2   5    8.99    0.60
   2   2   5    9.03    0.42
  -3  -2  -5    0.85    0.32
  -3  -2  -5    1.28    0.25
  -3  -2  -5    1.19    0.27
  -3  -2  -5    1.30    0.35
  -3  -2  -5    1.03    0.21
  -3  -2  -5    1.71    0.27
  -3  -2  -5    1.30    0.26
  -3  -2  -5    1.42    0.38
   3   2   5    1.20    0.19
   3   2   5    1.03    0.36
   3   2   5    1.20    0.22
   3   2   5    1.15    0.23
  -4  -2  -5   85.52    1.92
  -4  -2  -5   84.69    1.86
  -4  -2  -5   82.36    2.12
  -4  -2  -5   84.75    1.92
  -4  -2  -5   86.22    1.96
  -4  -2  -5   83.63    1.91
  -4  -2  -5   85.09    1.98
  -5  -2  -5    0.58    0.47
  -5  -2  -5   -0.19    0.57
  -5  -2  -5    0.70    0.60
  -5  -2  -5    0.02    0.47
  -5  -2  -5    0.28    0.37
  -5  -2  -5   -0.03    0.46
  -5  -2  -5    0.15    0.42
  -5  -2  -5   -0.21    0.33
  -6  -2  -5 1237.05   24.08
  -6  -2  -5 1211.59   23.81
  -6  -2  -5 1207.00   24.05
  -6  -2  -5 1223.62   23.94
  -6  -2  -5 1092.27   23.73
  -6  -2  -5 1192.25   23.88
  -6  -2  -5 1205.25   23.89
  -6  -2  -5 1189.39   23.68
  -6  -2  -5 1193.39   23.96
  -7  -2  -5   16.96    1.12
  -7  -2  -5   15.77    1.12
  -7  -2  -5   14.60    1.20
  -7  -2  -5   17.32    1.53
  -7  -2  -5   19.41    1.29
  -7  -2  -5   16.29    1.33
  -7  -2  -5   17.20    1.17
  -7  -2  -5   15.56    1.40
  -8  -2  -5   33.23    2.37
  -8  -2  -5   30.15    2.14
  -8  -2  -5   30.64    1.85
  -8  -2  -5   27.30    1.78
  -8  -2  -5   32.70    2.21
  -8  -2  -5   32.19    2.20
  -8  -2  -5   29.03    2.10
  -8  -2  -5   28.54    2.07
  -9  -2  -5   10.49    1.65
  -9  -2  -5   11.72    1.60
  -9  -2  -5   10.36    1.92
  -9  -2  -5   13.17    1.88
  -9  -2  -5   12.29    3.35
  -9  -2  -5   10.96    1.60
   7  -3  -5   11.57    2.48
   7  -3  -5   15.39    2.00
   7  -3  -5   10.47    1.88
   7  -3  -5   14.78    2.73
   7  -3  -5   12.73    1.29
   7  -3  -5   12.37    1.93
  -7   3   5   11.96    1.59
  -7   3   5   19.00    4.21
  -7   3   5   14.01    1.59
  -7   3   5   14.52    2.37
  -7   3   5   16.66    1.58
  -7   3   5   12.08    2.88
  -7   3   5   11.46    1.84
  -7   3   5   14.33    1.94
   6  -3  -5   37.77    2.38
   6  -3  -5   38.44    2.46
   6  -3  -5   34.14    3.31
   6  -3  -5   38.02    2.59
   6  -3  -5   36.79    2.18
   6  -3  -5   35.08    1.77
   6  -3  -5   36.17    2.57
  -6   3   5   39.08    2.31
  -6   3   5   37.51    2.32
  -6   3   5   37.09    2.55
  -6   3   5   37.20    2.07
  -6   3   5   32.76    2.60
  -6   3   5   41.39    3.85
  -6   3   5   39.29    2.14
   5  -3  -5   -0.33    1.40
   5  -3  -5   -0.20    1.11
   5  -3  -5   -0.27    0.97
   5  -3  -5   -0.17    0.68
   5  -3  -5   -1.15    0.86
   5  -3  -5    0.49    1.32
   5  -3  -5   -1.58    1.12
  -5   3   5   -0.38    0.99
  -5   3   5   -0.25    0.85
  -5   3   5   -0.86    1.01
  -5   3   5    0.59    0.86
  -5   3   5   -0.27    0.87
  -5   3   5   -0.46    1.41
  -5   3   5   -0.40    0.73
  -5   3   5    1.07    1.04
   4  -3  -5   64.25    2.12
   4  -3  -5   61.92    2.21
   4  -3  -5   64.72    1.85
   4  -3  -5   66.91    2.51
   4  -3  -5   62.52    2.00
   4  -3  -5   63.88    2.17
   4  -3  -5   62.37    2.60
  -4   3   5   68.39    2.63
  -4   3   5   62.39    1.93
  -4   3   5   66.77    1.99
  -4   3   5   59.90    1.93
  -4   3   5   64.34    2.25
  -4   3   5   65.62    1.83
  -4   3   5   64.48    2.16
  -4   3   5   63.66    2.24
   3  -3  -5   42.89    1.42
   3  -3  -5   42.52    1.90
   3  -3  -5   42.63    1.71
   3  -3  -5   40.67    1.56
   3  -3  -5   40.87    1.44
   3  -3  -5   42.11    1.57
   3  -3  -5   41.54    1.87
  -3   3   5   43.35    1.46
  -3   3   5   46.23    1.39
  -3   3   5   45.18    1.67
  -3   3   5   42.75    1.29
  -3   3   5   44.50    1.61
  -3   3   5   44.99    1.97
  -3   3   5   44.54    1.50
   2  -3  -5   49.13    1.77
   2  -3  -5   49.73    1.38
   2  -3  -5   49.98    1.73
   2  -3  -5   49.00    1.53
   2  -3  -5   46.57    1.50
   2  -3  -5   48.55    1.42
   2  -3  -5   47.09    1.42
  -2   3   5   48.23    1.48
  -2   3   5   47.66    1.79
  -2   3   5   49.25    1.27
  -2   3   5   48.92    1.51
  -2   3   5   48.19    1.57
  -2   3   5   48.65    1.33
  -2   3   5   49.62    1.46
  -2   3   5   50.18    1.58
   1  -3  -5   86.48    2.11
   1  -3  -5   85.58    2.25
   1  -3  -5   84.53    1.94
   1  -3  -5   85.35    2.17
   1  -3  -5   85.27    2.07
   1  -3  -5   85.40    2.06
   1  -3  -5   85.75    1.95
  -1   3   5   86.97    2.12
  -1   3   5   85.73    2.27
  -1   3   5   82.40    2.04
  -1   3   5   84.29    1.89
  -1   3   5   83.90    2.11
  -1   3   5   85.42    1.90
  -1   3   5   83.93    2.03
  -1   3   5   84.18    2.11
   0  -3  -5  376.97    7.62
   0  -3  -5  380.35    7.78
   0  -3  -5  373.71    7.64
   0  -3  -5  378.47    7.74
   0  -3  -5  384.28    7.80
   0  -3  -5  378.74    7.83
   0  -3  -5  379.55    7.79
   0   3   5  380.33    7.83
   0   3   5  376.59    7.64
   0   3   5  377.54    7.75
   0   3   5  379.07    7.74
   0   3   5  384.91    7.70
   0   3   5  391.10    7.85
   0   3   5  368.82    7.60
  -1  -3  -5   11.41    0.52
  -1  -3  -5   10.52    0.68
  -1  -3  -5   11.05    0.71
  -1  -3  -5   11.08    0.42
  -1  -3  -5   10.30    0.62
  -1  -3  -5   11.53    0.64
  -1  -3  -5   10.65    0.55
   1   3   5   11.07    0.58
   1   3   5   11.24    0.49
   1   3   5   11.31    0.67
   1   3   5   11.35    0.40
   1   3   5   11.19    0.49
   1   3   5   11.40    0.78
   1   3   5   11.14    0.55
  -2  -3  -5  144.71    3.11
  -2  -3  -5  145.64    3.05
  -2  -3  -5  146.57    3.23
  -2  -3  -5  147.73    3.22
  -2  -3  -5  145.84    3.05
  -2  -3  -5  144.45    3.09
  -2  -3  -5  146.34    3.02
   2   3   5  147.29    3.18
   2   3   5  148.08    3.28
   2   3   5  147.50    3.00
   2   3   5  148.74    3.05
   2   3   5  149.84    2.98
   2   3   5  147.74    3.01
  -3  -3  -5  152.66    3.19
  -3  -3  -5  151.15    3.26
  -3  -3  -5  156.53    3.39
  -3  -3  -5  154.89    3.20
  -3  -3  -5  157.90    3.17
  -3  -3  -5  156.33    3.23
  -3  -3  -5  155.82    3.35
  -3  -3  -5  155.27    3.17
  -4  -3  -5   20.12    0.84
  -4  -3  -5   20.72    0.66
  -4  -3  -5   20.77    0.92
  -4  -3  -5   19.78    0.98
  -4  -3  -5   22.38    0.68
  -4  -3  -5   21.13    0.64
  -4  -3  -5   21.06    0.59
  -4  -3  -5   20.89    1.03
  -5  -3  -5   29.63    0.86
  -5  -3  -5   28.54    1.36
  -5  -3  -5   29.77    0.91
  -5  -3  -5   29.54    1.10
  -5  -3  -5   31.33    1.34
  -5  -3  -5   30.30    1.16
  -5  -3  -5   30.30    0.99
  -5  -3  -5   31.14    1.01
  -6  -3  -5  185.15    4.01
  -6  -3  -5  185.29    3.99
  -6  -3  -5  187.50    4.05
  -6  -3  -5  184.61    4.57
  -6  -3  -5  182.65    4.28
  -6  -3  -5  183.10    3.91
  -6  -3  -5  188.86    4.01
  -6  -3  -5  189.71    4.23
  -6  -3  -5  186.85    4.00
  -6  -3  -5  188.46    4.37
  -7  -3  -5   51.05    1.47
  -7  -3  -5   50.32    2.63
  -7  -3  -5   51.27    1.77
  -7  -3  -5   52.68    2.08
  -7  -3  -5   52.05    1.81
  -7  -3  -5   49.94    1.48
  -7  -3  -5   48.83    2.11
  -7  -3  -5   51.51    1.77
  -7  -3  -5   50.89    1.59
  -7  -3  -5   51.76    2.36
  -8  -3  -5   73.52    2.42
  -8  -3  -5   76.26    2.83
  -8  -3  -5   75.83    3.65
  -8  -3  -5   74.03    2.24
  -8  -3  -5   75.38    3.22
  -8  -3  -5   73.44    2.56
  -8  -3  -5   72.62    2.42
  -8  -3  -5   69.99    2.88
  -9  -3  -5   -0.63    1.31
  -9  -3  -5    0.71    1.76
  -9  -3  -5    1.26    1.57
  -9  -3  -5    1.72    1.33
  -9  -3  -5   -0.86    1.32
   6  -4  -5    1.37    1.04
   6  -4  -5    1.76    2.43
   6  -4  -5    1.04    2.18
   6  -4  -5    2.19    1.83
   6  -4  -5    1.00    1.53
   6  -4  -5    2.17    1.51
  -6   4   5    2.63    2.27
  -6   4   5    4.64    1.89
  -6   4   5    3.62    1.47
  -6   4   5    2.85    1.61
  -6   4   5    2.27    1.61
  -6   4   5    3.74    1.12
  -6   4   5    1.20    1.40
   5  -4  -5    0.47    1.31
   5  -4  -5    0.68    1.70
   5  -4  -5    0.89    1.86
   5  -4  -5    1.35    1.19
   5  -4  -5    2.91    1.33
   5  -4  -5    0.82    1.13
   5  -4  -5    1.25    0.89
  -5   4   5    0.80    1.11
  -5   4   5    0.70    1.25
  -5   4   5   -1.88    1.29
  -5   4   5    1.82    1.05
  -5   4   5    1.19    0.79
  -5   4   5   -0.40    1.74
  -5   4   5    1.60    1.04
   4  -4  -5   39.12    2.58
   4  -4  -5   41.77    2.52
   4  -4  -5   38.60    1.92
   4  -4  -5   37.68    1.95
   4  -4  -5   38.51    1.80
   4  -4  -5   40.07    1.58
   4  -4  -5   41.23    2.12
  -4   4   5   35.79    1.77
  -4   4   5   35.83    2.15
  -4   4   5   38.09    2.06
  -4   4   5   32.88    1.84
  -4   4   5   37.06    2.69
  -4   4   5   37.06    1.39
  -4   4   5   39.02    1.80
   3  -4  -5    0.50    0.75
   3  -4  -5   -0.73    0.95
   3  -4  -5    0.47    0.65
   3  -4  -5   -0.36    0.68
   3  -4  -5    0.56    0.97
   3  -4  -5    0.41    0.81
   3  -4  -5    0.45    0.63
  -3   4   5   -0.12    0.56
  -3   4   5   -0.96    0.67
  -3   4   5    0.78    0.75
  -3   4   5   -0.14    0.76
  -3   4   5    1.08    0.71
  -3   4   5    0.48    0.68
  -3   4   5   -0.07    0.43
  -3   4   5   -0.37    1.00
   2  -4  -5    0.93    0.76
   2  -4  -5    0.93    0.66
   2  -4  -5    0.39    0.52
   2  -4  -5    0.18    0.79
   2  -4  -5    1.12    0.54
   2  -4  -5    1.01    0.60
   2  -4  -5    0.38    0.55
  -2   4   5    0.63    0.61
  -2   4   5    0.03    0.43
  -2   4   5    0.10    0.57
  -2   4   5    1.23    0.36
  -2   4   5    0.56    0.62
  -2   4   5    0.14    0.55
  -2   4   5    0.70    0.60
  -2   4   5   -0.56    0.74
   1  -4  -5    2.05    0.60
   1  -4  -5    3.38    0.45
   1  -4  -5    3.08    0.64
   1  -4  -5    2.10    0.50
   1  -4  -5    2.62    0.57
   1  -4  -5    2.50    0.41
   1  -4  -5    2.66    0.70
  -1   4   5    2.98    0.63
  -1   4   5    3.07    0.61
  -1   4   5    2.19    0.69
  -1   4   5    2.73    0.38
  -1   4   5    2.76    0.56
  -1   4   5    2.63    0.51
  -1   4   5    2.09    0.50
  -1   4   5    2.98    0.31
   0  -4  -5    4.41    0.55
   0  -4  -5    4.81    0.57
   0  -4  -5    5.81    0.56
   0  -4  -5    5.95    0.44
   0  -4  -5    5.65    0.38
   0  -4  -5    6.27    0.68
   0   4   5    5.32    0.67
   0   4   5    5.41    0.54
   0   4   5    5.87    0.50
   0   4   5    5.65    0.37
   0   4   5    4.87    0.48
   0   4   5    6.71    0.65
   0   4   5    6.81    0.57
   0   4   5    6.17    0.41
  -1  -4  -5   76.46    1.85
  -1  -4  -5   79.16    1.73
  -1  -4  -5   79.12    1.77
  -1  -4  -5   77.31    1.92
  -1  -4  -5   78.65    2.01
  -1  -4  -5   78.19    1.97
  -1  -4  -5   79.38    2.02
   1   4   5   76.46    1.78
   1   4   5   77.18    1.90
   1   4   5   76.74    1.82
   1   4   5   79.59    1.75
   1   4   5   79.40    1.75
   1   4   5   80.75    1.80
  -2  -4  -5  210.30    4.37
  -2  -4  -5  213.28    4.37
  -2  -4  -5  215.07    4.45
  -2  -4  -5  211.43    4.38
  -2  -4  -5  208.30    4.59
  -2  -4  -5  211.17    4.40
  -2  -4  -5  213.01    4.57
   2   4   5  211.64    4.26
   2   4   5  213.77    4.24
  -3  -4  -5   19.58    0.96
  -3  -4  -5   20.21    0.74
  -3  -4  -5   20.45    0.69
  -3  -4  -5   19.25    0.81
  -3  -4  -5   21.19    1.06
  -3  -4  -5   19.47    0.61
  -3  -4  -5   18.74    0.68
  -4  -4  -5    4.22    0.57
  -4  -4  -5    4.98    0.63
  -4  -4  -5    3.81    0.53
  -4  -4  -5    4.37    0.51
  -4  -4  -5    4.49    0.46
  -5  -4  -5    3.27    0.65
  -5  -4  -5    3.41    0.60
  -5  -4  -5    3.91    0.68
  -5  -4  -5    1.74    0.65
  -5  -4  -5    3.47    0.69
  -6  -4  -5    1.15    0.67
  -6  -4  -5    0.19    0.35
  -6  -4  -5    2.16    1.10
  -6  -4  -5    0.69    0.71
  -6  -4  -5    1.02    0.84
  -6  -4  -5    0.52    0.42
  -6  -4  -5    0.25    0.73
  -6  -4  -5   -0.13    0.69
  -7  -4  -5   -0.29    0.70
  -7  -4  -5    0.35    0.76
  -7  -4  -5    0.57    1.16
  -7  -4  -5    0.10    0.50
  -7  -4  -5    0.16    0.57
  -7  -4  -5   -0.27    0.57
  -7  -4  -5    0.73    1.36
  -7  -4  -5    0.28    0.93
  -7  -4  -5    0.73    0.97
  -7  -4  -5   -0.37    0.59
  -8  -4  -5   -0.41    0.97
  -8  -4  -5   -0.38    1.77
  -8  -4  -5    1.20    1.24
  -8  -4  -5    0.38    0.82
  -8  -4  -5    0.67    0.88
  -8  -4  -5   -0.36    0.72
  -8  -4  -5    0.59    0.80
  -8  -4  -5    1.43    0.73
  -8  -4  -5    2.10    1.51
  -8  -4  -5    0.99    1.32
  -9  -4  -5    6.65    1.16
  -9  -4  -5    8.89    1.19
  -9  -4  -5    8.38    1.78
  -9  -4  -5    8.54    1.22
  -9  -4  -5    7.36    1.93
   6  -5  -5    1.72    2.77
   6  -5  -5    0.82    1.59
   6  -5  -5    4.86    2.40
   6  -5  -5    1.50    1.97
  -6   5   5    2.23    2.55
  -6   5   5    3.53    2.14
  -6   5   5    0.81    1.20
  -6   5   5   -3.29    1.98
  -6   5   5   -0.11    1.76
  -6   5   5   -0.31    2.04
  -6   5   5   -2.45    1.72
   5  -5  -5   13.04    1.94
   5  -5  -5   17.72    2.36
   5  -5  -5   14.26    1.69
   5  -5  -5   19.08    1.83
   5  -5  -5   16.99    1.27
   5  -5  -5   17.25    2.21
  -5   5   5   15.89    2.41
  -5   5   5   17.82    1.85
  -5   5   5   14.63    1.44
  -5   5   5   17.67    1.45
  -5   5   5   14.43    1.87
  -5   5   5   14.00    1.49
  -5   5   5   16.58    1.88
   4  -5  -5   26.90    2.16
   4  -5  -5   23.43    1.64
   4  -5  -5   28.02    2.43
   4  -5  -5   24.79    1.99
   4  -5  -5   27.18    2.05
   4  -5  -5   27.57    1.98
  -4   5   5   29.16    2.10
  -4   5   5   23.74    1.21
  -4   5   5   17.61    1.37
  -4   5   5   29.17    2.48
  -4   5   5   24.49    1.49
  -4   5   5   23.76    1.71
  -4   5   5   26.48    1.67
   3  -5  -5   58.06    1.97
   3  -5  -5   61.18    2.65
   3  -5  -5   61.49    2.46
   3  -5  -5   58.76    2.77
   3  -5  -5   59.82    2.33
   3  -5  -5   59.19    1.99
  -3   5   5   61.66    2.19
  -3   5   5   60.99    2.20
  -3   5   5   57.85    1.56
  -3   5   5   58.75    1.89
  -3   5   5   60.06    2.44
  -3   5   5   63.60    2.76
  -3   5   5   57.77    2.25
   2  -5  -5   70.23    2.20
   2  -5  -5   68.35    2.00
   2  -5  -5   69.68    2.51
   2  -5  -5   66.28    1.85
   2  -5  -5   72.15    2.23
   2  -5  -5   68.35    2.56
   2  -5  -5   71.00    2.34
  -2   5   5   65.86    1.61
  -2   5   5   66.09    2.21
  -2   5   5   66.61    2.09
  -2   5   5   69.85    1.88
  -2   5   5   67.38    2.12
  -2   5   5   73.02    2.50
   1  -5  -5   17.19    1.31
   1  -5  -5   15.10    0.82
   1  -5  -5   13.38    1.02
   1  -5  -5   14.89    1.00
   1  -5  -5   16.64    1.27
   1  -5  -5   16.50    1.20
   1  -5  -5   16.44    1.53
  -1   5   5   15.00    1.17
  -1   5   5   16.17    0.90
  -1   5   5   15.84    1.19
  -1   5   5   16.16    0.64
  -1   5   5   13.33    0.92
   0  -5  -5   33.40    0.95
   0  -5  -5   33.88    1.47
   0  -5  -5   35.15    1.31
   0  -5  -5   31.78    1.49
   0  -5  -5   36.00    1.44
   0  -5  -5   32.41    1.11
   0  -5  -5   33.25    1.56
   0   5   5   33.65    0.95
   0   5   5   34.82    1.08
   0   5   5   34.29    1.39
   0   5   5   34.81    1.23
   0   5   5   32.01    1.26
   0   5   5   34.77    1.19
   0   5   5   33.76    1.33
  -1  -5  -5   34.22    1.32
  -1  -5  -5   32.70    1.35
  -1  -5  -5   34.17    1.06
  -1  -5  -5   34.26    0.90
  -1  -5  -5   33.47    1.18
  -1  -5  -5   33.58    1.41
  -1  -5  -5   33.68    1.38
   1   5   5   32.68    1.03
   1   5   5   33.13    1.02
   1   5   5   33.25    1.00
   1   5   5   33.96    1.09
   1   5   5   33.12    1.17
  -2  -5  -5  161.65    3.48
  -2  -5  -5  164.52    3.71
  -2  -5  -5  163.13    3.48
  -2  -5  -5  163.49    3.56
  -2  -5  -5  163.83    3.60
  -2  -5  -5  163.36    3.39
  -2  -5  -5  158.25    3.75
  -3  -5  -5   29.81    1.01
  -3  -5  -5   31.82    1.46
  -3  -5  -5   30.62    1.02
  -3  -5  -5   30.21    1.28
  -3  -5  -5   30.69    1.06
  -3  -5  -5   30.55    1.03
  -3  -5  -5   30.85    0.90
  -4  -5  -5   -0.56    0.70
  -4  -5  -5   -0.05    0.55
  -4  -5  -5    0.21    0.50
  -4  -5  -5    0.11    0.43
  -5  -5  -5    2.50    0.58
  -5  -5  -5    0.42    0.69
  -5  -5  -5    3.44    0.80
  -5  -5  -5    3.38    0.82
  -5  -5  -5    1.15    0.88
  -5  -5  -5    3.31    0.69
  -5  -5  -5    2.10    0.65
  -5  -5  -5    2.14    0.71
  -6  -5  -5   26.01    1.72
  -6  -5  -5   20.50    1.51
  -6  -5  -5   22.77    1.49
  -6  -5  -5   21.85    1.30
  -6  -5  -5   23.07    1.58
  -6  -5  -5   19.67    1.54
  -7  -5  -5   39.76    2.35
  -7  -5  -5   40.95    1.93
  -7  -5  -5   35.46    2.06
  -7  -5  -5   40.20    2.70
  -7  -5  -5   33.22    2.06
  -7  -5  -5   40.28    2.10
  -8  -5  -5    0.69    1.47
  -8  -5  -5    1.23    1.25
  -8  -5  -5    0.47    1.62
  -8  -5  -5   -0.04    1.83
  -8  -5  -5   -0.23    1.03
  -8  -5  -5    2.01    1.21
   5  -6  -5   29.38    2.82
   5  -6  -5   25.17    2.30
   5  -6  -5   31.69    3.03
   5  -6  -5   33.25    2.65
   5  -6  -5   24.84    2.21
   5  -6  -5   29.40    2.41
  -5   6   5   24.50    2.06
  -5   6   5   33.88    2.57
  -5   6   5   26.35    1.69
  -5   6   5   30.83    1.93
  -5   6   5   28.43    2.69
  -5   6   5   26.36    2.87
  -5   6   5   28.61    2.16
   4  -6  -5    8.65    1.25
   4  -6  -5    8.09    1.83
   4  -6  -5    9.47    2.00
   4  -6  -5   11.92    1.68
   4  -6  -5   10.62    2.20
   4  -6  -5    8.86    1.54
  -4   6   5   10.34    1.70
  -4   6   5    9.48    0.76
  -4   6   5    9.49    1.50
  -4   6   5   10.34    1.56
  -4   6   5    8.19    2.01
  -4   6   5    8.80    1.76
  -4   6   5    9.75    1.25
   3  -6  -5   28.91    2.05
   3  -6  -5   29.43    2.04
   3  -6  -5   31.42    2.25
   3  -6  -5   31.49    2.56
   3  -6  -5   31.64    1.93
   3  -6  -5   28.49    2.05
  -3   6   5   30.45    1.05
  -3   6   5   30.75    2.76
  -3   6   5   31.04    1.71
  -3   6   5   32.05    2.13
  -3   6   5   30.69    2.53
  -3   6   5   31.27    2.16
  -3   6   5   27.29    2.13
   2  -6  -5   -0.67    0.84
   2  -6  -5   -0.70    1.11
   2  -6  -5    0.39    1.20
   2  -6  -5   -1.40    0.89
   2  -6  -5   -0.34    1.01
   2  -6  -5    1.08    1.29
  -2   6   5    0.74    0.85
  -2   6   5   -0.74    0.34
  -2   6   5   -0.23    0.91
  -2   6   5    0.44    0.99
  -2   6   5    0.08    1.17
  -2   6   5    0.52    0.84
   1  -6  -5   20.44    1.35
   1  -6  -5   19.71    1.66
   1  -6  -5   19.30    1.36
   1  -6  -5   19.39    1.65
   1  -6  -5   21.96    1.98
   1  -6  -5   20.20    1.57
  -1   6   5   20.55    1.60
  -1   6   5   23.19    1.49
  -1   6   5   19.06    1.64
  -1   6   5   21.21    0.71
  -1   6   5   20.21    1.44
  -1   6   5   21.19    1.48
  -1   6   5   21.57    1.19
   0  -6  -5   96.69    2.85
   0  -6  -5  100.04    2.72
   0  -6  -5   93.16    2.58
   0  -6  -5   95.94    2.44
   0  -6  -5   97.89    2.75
   0  -6  -5   97.97    2.75
   0   6   5   99.00    2.42
   0   6   5   99.07    2.62
   0   6   5   91.55    2.44
   0   6   5   98.53    2.36
   0   6   5   95.84    2.48
   0   6   5  100.97    2.62
  -1  -6  -5  145.39    3.01
  -1  -6  -5  144.51    3.56
  -1  -6  -5  150.86    3.61
  -1  -6  -5  145.63    3.37
  -1  -6  -5  145.04    3.61
  -1  -6  -5  143.75    3.48
  -1  -6  -5  146.00    3.28
   1   6   5  141.25    3.18
   1   6   5  144.83    3.14
   1   6   5  148.49    3.28
   1   6   5  142.60    3.44
   1   6   5  143.93    3.19
   1   6   5  147.07    3.24
  -2  -6  -5    5.77    0.63
  -2  -6  -5    6.33    0.40
  -2  -6  -5    5.83    0.90
  -2  -6  -5    5.97    0.57
  -2  -6  -5    6.09    0.78
  -2  -6  -5    5.83    1.03
  -2  -6  -5    6.23    0.74
  -3  -6  -5   14.26    0.90
  -3  -6  -5   14.54    0.96
  -3  -6  -5   14.50    1.07
  -3  -6  -5   10.68    1.04
  -3  -6  -5   14.96    1.17
  -3  -6  -5   13.31    1.02
  -3  -6  -5   16.74    1.36
  -3  -6  -5   14.85    0.76
  -4  -6  -5    0.82    0.47
  -4  -6  -5    0.43    0.57
  -4  -6  -5    0.00    0.45
  -4  -6  -5    1.64    0.95
  -4  -6  -5    0.24    0.51
  -4  -6  -5    0.51    0.36
  -4  -6  -5   -0.32    0.77
  -5  -6  -5    2.31    1.06
  -5  -6  -5    1.95    0.79
  -5  -6  -5    1.93    0.82
  -5  -6  -5    1.40    0.73
  -5  -6  -5    1.84    0.97
  -5  -6  -5    2.26    1.04
  -5  -6  -5    1.86    0.80
  -5  -6  -5    2.39    0.82
  -6  -6  -5   15.17    1.44
  -6  -6  -5   15.40    1.23
  -6  -6  -5   14.92    1.14
  -6  -6  -5   14.41    1.35
  -6  -6  -5   14.71    1.21
  -6  -6  -5   15.73    1.33
  -6  -6  -5   13.16    1.17
  -6  -6  -5   14.19    1.06
  -7  -6  -5   26.00    1.99
  -7  -6  -5   28.82    2.42
  -7  -6  -5   31.50    2.44
  -7  -6  -5   28.03    2.20
  -7  -6  -5   27.93    2.00
  -7  -6  -5   30.73    2.29
  -7  -6  -5   29.10    2.03
  -7  -6  -5   33.85    2.29
  -8  -6  -5    5.20    1.88
  -8  -6  -5    8.51    2.22
  -8  -6  -5    4.55    1.39
  -8  -6  -5    4.33    1.67
  -8  -6  -5    4.42    1.50
  -8  -6  -5    4.66    1.44
  -8  -6  -5    4.92    1.44
  -8  -6  -5    6.06    1.73
   4  -7  -5   -1.27    1.91
   4  -7  -5   -0.30    1.94
   4  -7  -5    1.28    1.43
   4  -7  -5   -3.56    2.63
   4  -7  -5    0.75    2.68
  -4   7   5   -1.17    1.73
  -4   7   5    1.76    2.25
  -4   7   5   -0.81    1.61
   3  -7  -5    5.47    1.83
   3  -7  -5    3.75    1.28
   3  -7  -5    2.36    1.40
   3  -7  -5    4.54    1.88
   3  -7  -5    4.36    2.14
   3  -7  -5    1.76    1.47
  -3   7   5    2.47    1.23
  -3   7   5    2.12    1.48
  -3   7   5    2.27    1.70
  -3   7   5    2.21    1.52
  -3   7   5    1.78    1.78
  -3   7   5    2.87    1.44
   2  -7  -5    7.13    1.66
   2  -7  -5    3.06    1.50
   2  -7  -5    6.92    1.43
   2  -7  -5    7.04    1.27
   2  -7  -5    6.49    1.27
   2  -7  -5    9.63    1.86
  -2   7   5    6.25    1.22
  -2   7   5    6.31    1.50
  -2   7   5    6.73    1.29
  -2   7   5    6.67    1.34
  -2   7   5    7.89    1.07
   1  -7  -5   16.46    1.40
   1  -7  -5   14.49    1.34
   1  -7  -5   16.02    1.56
   1  -7  -5   17.39    1.57
   1  -7  -5   17.31    1.65
   1  -7  -5   16.70    1.27
  -1   7   5   17.56    1.25
  -1   7   5   18.19    1.32
  -1   7   5   18.65    1.28
  -1   7   5   18.31    1.67
  -1   7   5   18.76    1.37
  -1   7   5   16.09    1.05
   0  -7  -5   -0.23    0.86
   0  -7  -5    0.61    1.14
   0  -7  -5   -0.60    1.03
   0  -7  -5    1.29    0.92
   0  -7  -5   -0.90    1.07
   0  -7  -5   -0.98    0.99
   0   7   5    1.36    0.76
   0   7   5   -0.57    0.72
   0   7   5   -0.21    0.82
   0   7   5   -0.80    0.75
   0   7   5    1.26    0.93
  -1  -7  -5  179.42    4.09
  -1  -7  -5  175.13    4.38
  -1  -7  -5  175.33    4.40
  -1  -7  -5  182.85    4.45
  -1  -7  -5  185.53    4.29
  -1  -7  -5  180.51    4.17
   1   7   5  180.22    3.86
   1   7   5  173.56    3.89
   1   7   5  177.32    3.95
   1   7   5  175.59    3.88
   1   7   5  176.03    4.23
   1   7   5  182.78    4.01
  -2  -7  -5    9.29    1.13
  -2  -7  -5    9.70    1.23
  -2  -7  -5   10.00    0.84
  -2  -7  -5   10.08    0.92
  -2  -7  -5    9.10    0.52
  -2  -7  -5    9.47    0.74
  -2  -7  -5    9.30    0.99
  -2  -7  -5    9.30    1.02
  -3  -7  -5  123.80    3.10
  -3  -7  -5  122.61    3.01
  -3  -7  -5  128.42    3.57
  -3  -7  -5  125.31    2.91
  -3  -7  -5  126.10    3.10
  -3  -7  -5  131.68    3.37
  -3  -7  -5  119.22    3.05
  -3  -7  -5  125.33    2.70
  -4  -7  -5  147.33    3.25
  -4  -7  -5  134.83    3.09
  -4  -7  -5  146.39    3.95
  -4  -7  -5  143.05    3.66
  -4  -7  -5  136.89    3.13
  -4  -7  -5  144.64    3.42
  -4  -7  -5  138.97    3.42
  -4  -7  -5  145.74    3.94
  -4  -7  -5  140.38    3.21
  -5  -7  -5   86.90    2.72
  -5  -7  -5   80.89    3.10
  -5  -7  -5   81.66    2.49
  -5  -7  -5   82.70    2.35
  -5  -7  -5   82.12    2.72
  -5  -7  -5   90.34    3.13
  -6  -7  -5   71.55    2.56
  -6  -7  -5   78.47    3.15
  -6  -7  -5   77.56    2.72
  -6  -7  -5   74.68    3.24
  -6  -7  -5   70.12    2.67
  -6  -7  -5   77.24    2.57
  -6  -7  -5   72.86    2.99
  -6  -7  -5   79.11    2.79
  -7  -7  -5   42.13    2.47
  -7  -7  -5   40.72    3.17
  -7  -7  -5   39.73    2.92
  -7  -7  -5   38.92    2.42
  -7  -7  -5   34.25    2.15
  -7  -7  -5   35.14    2.50
  -7  -7  -5   38.08    2.77
  -7  -7  -5   36.90    2.72
   2  -8  -5   34.16    2.19
   2  -8  -5   35.36    2.65
   2  -8  -5   34.35    2.87
   2  -8  -5   33.44    2.76
   2  -8  -5   25.78    1.92
  -2   8   5   32.13    3.19
  -2   8   5   32.66    2.95
  -2   8   5   26.76    1.97
  -2   8   5   31.70    2.40
   1  -8  -5   51.47    3.30
   1  -8  -5   55.00    2.95
   1  -8  -5   49.76    2.64
   1  -8  -5   52.90    2.96
   1  -8  -5   53.58    3.40
   1  -8  -5   49.51    3.48
  -1   8   5   51.84    2.45
  -1   8   5   49.58    2.79
  -1   8   5   52.28    2.67
  -1   8   5   54.63    2.32
  -1   8   5   50.71    2.50
  -1   8   5   52.22    2.48
   0  -8  -5    9.86    1.62
   0  -8  -5   10.98    1.57
   0  -8  -5   11.19    1.35
   0  -8  -5   14.40    1.48
   0  -8  -5   11.43    1.72
   0  -8  -5   10.51    1.73
   0   8   5   13.95    1.14
   0   8   5   12.66    1.12
   0   8   5   11.99    1.12
   0   8   5   13.15    1.35
   0   8   5   10.94    1.12
   0   8   5   12.43    1.24
  -1  -8  -5    5.00    1.35
  -1  -8  -5    4.10    1.47
  -1  -8  -5    3.43    1.07
  -1  -8  -5    5.31    1.20
  -1  -8  -5    4.80    1.35
  -1  -8  -5    4.76    1.27
   1   8   5    6.11    0.79
   1   8   5    4.69    0.97
   1   8   5    3.46    1.21
   1   8   5    6.06    0.75
   1   8   5    5.85    0.78
   1   8   5    5.33    0.77
  -2  -8  -5   34.71    2.62
  -2  -8  -5   31.98    1.85
  -2  -8  -5   36.24    2.21
  -2  -8  -5   37.91    2.04
  -2  -8  -5   36.70    2.39
  -2  -8  -5   37.22    1.99
  -3  -8  -5   27.05    1.90
  -3  -8  -5   30.80    2.02
  -3  -8  -5   28.87    1.76
  -3  -8  -5   23.18    1.75
  -3  -8  -5   26.47    1.91
  -3  -8  -5   25.03    1.71
  -3  -8  -5   29.01    1.73
  -4  -8  -5    1.31    1.34
  -4  -8  -5    0.43    0.79
  -4  -8  -5    1.54    1.70
  -4  -8  -5    1.17    0.81
  -4  -8  -5    0.12    0.80
  -4  -8  -5    0.86    0.95
  -4  -8  -5    0.51    0.55
  -4  -8  -5    2.72    1.66
  -4  -8  -5    1.29    0.99
  -5  -8  -5   14.27    1.59
  -5  -8  -5   12.86    1.94
  -5  -8  -5   14.64    1.89
  -5  -8  -5   14.80    1.38
  -5  -8  -5   14.76    0.98
  -5  -8  -5   12.61    1.26
  -6  -8  -5  121.56    3.68
  -6  -8  -5  125.21    4.66
  -6  -8  -5  127.06    3.41
  -6  -8  -5  124.18    3.91
  -6  -8  -5  121.46    3.84
  -6  -8  -5  113.07    3.66
  -6  -8  -5  130.64    4.44
  -6  -8  -5  132.54    3.93
   0  -9  -5    2.45    1.71
   0   9   5    4.80    1.33
   0   9   5   -0.17    1.38
   0   9   5   -0.72    1.30
  -1  -9  -5    1.36    1.56
  -1  -9  -5    0.87    1.49
  -1  -9  -5    1.59    2.17
  -1  -9  -5    3.29    2.94
  -1  -9  -5    1.10    1.99
   1   9   5    2.03    1.33
   1   9   5    2.63    0.91
   1   9   5    1.58    0.86
   1   9   5    1.44    0.86
  -2  -9  -5   24.64    3.69
  -2  -9  -5   17.07    2.01
  -2  -9  -5   18.99    1.63
  -2  -9  -5   20.11    3.36
  -2  -9  -5   22.17    1.70
  -2  -9  -5   19.03    1.80
  -3  -9  -5   14.19    1.94
  -3  -9  -5   12.81    1.46
  -3  -9  -5    9.09    1.40
  -3  -9  -5   15.22    1.51
  -4  -9  -5   -0.59    1.41
  -4  -9  -5   -2.59    1.23
  -4  -9  -5    0.30    1.15
  -4  -9  -5    0.35    1.82
   4   7  -6   -1.34    1.99
   4   7  -6   -1.12    2.17
   4   7  -6    0.65    1.35
  -4  -7   6    0.41    2.00
  -4  -7   6    0.61    1.12
   3   7  -6   16.17    1.45
   3   7  -6   11.81    1.75
   3   7  -6   14.96    2.00
   3   7  -6   18.82    1.95
  -3  -7   6   19.25    1.96
  -3  -7   6   17.56    1.15
  -3  -7   6   15.81    1.59
  -3  -7   6   17.95    1.83
  -3  -7   6   15.11    1.71
  -3  -7   6   18.79    1.62
  -3  -7   6   14.89    1.58
   2   7  -6   13.28    1.38
   2   7  -6   13.85    1.75
   2   7  -6   17.21    1.87
   2   7  -6   13.14    1.37
   2   7  -6   14.51    1.04
   2   7  -6   13.64    1.63
  -2  -7   6   13.72    1.46
  -2  -7   6    9.67    1.46
  -2  -7   6   12.14    0.97
  -2  -7   6   12.63    1.53
  -2  -7   6   15.73    1.72
  -2  -7   6   16.55    1.64
  -2  -7   6   13.73    1.06
  -2  -7   6   13.44    1.73
   1   7  -6    3.07    1.03
   1   7  -6    5.73    1.25
   1   7  -6    4.49    1.83
   1   7  -6    4.53    1.34
   1   7  -6    2.53    1.71
  -1  -7   6    4.16    1.48
  -1  -7   6    3.22    1.44
  -1  -7   6    2.28    1.14
  -1  -7   6    1.74    1.37
  -1  -7   6    1.74    1.67
  -1  -7   6    4.25    0.83
  -1  -7   6    4.21    1.27
  -1  -7   6    3.21    1.17
   0   7  -6    3.08    0.97
   0   7  -6    4.19    1.79
   0   7  -6    2.60    1.15
   0   7  -6    5.31    1.82
   0   7  -6    3.28    1.10
   0   7  -6    3.89    1.39
   0   7  -6    3.04    1.38
   0  -7   6    2.43    1.21
   0  -7   6    5.40    1.34
   0  -7   6    4.30    0.90
   0  -7   6    5.26    1.78
   0  -7   6    1.18    1.33
   0  -7   6    3.73    1.59
   0  -7   6    2.36    1.37
   0  -7   6    3.99    1.39
  -1   7  -6    7.03    1.91
  -1   7  -6    9.77    1.49
  -1   7  -6   10.17    1.03
  -1   7  -6    9.55    1.57
  -1   7  -6   10.28    2.04
  -1   7  -6    8.00    1.41
  -1   7  -6    7.48    1.28
   1  -7   6    8.68    1.45
   1  -7   6    9.59    1.68
   1  -7   6   11.71    1.62
   1  -7   6    8.00    1.54
   1  -7   6   10.58    1.54
   1  -7   6    7.80    2.16
   1  -7   6    6.45    1.81
  -2   7  -6   17.80    1.72
  -2   7  -6   15.45    2.34
  -2   7  -6   13.96    1.93
  -2   7  -6   15.60    1.68
  -2   7  -6   15.42    1.05
  -2   7  -6   12.02    1.70
  -2   7  -6   13.73    2.39
   2  -7   6   20.75    2.13
   2  -7   6   15.69    1.62
   2  -7   6   16.46    1.94
   2  -7   6   12.11    1.75
   2  -7   6   16.16    1.87
   2  -7   6   17.55    2.57
   2  -7   6   16.98    2.15
  -3   7  -6    2.49    1.97
  -3   7  -6   -2.07    3.50
  -3   7  -6    1.09    1.82
  -3   7  -6    0.25    2.63
   3  -7   6   -1.70    1.97
   3  -7   6   -0.42    1.48
   3  -7   6   -0.50    2.08
   3  -7   6    2.83    2.21
   3  -7   6    1.33    2.38
   3  -7   6    1.03    2.84
   5   6  -6   -0.37    1.30
   5   6  -6    3.06    1.68
   5   6  -6   -1.15    2.30
   5   6  -6    0.02    1.87
   5   6  -6    0.52    1.36
  -5  -6   6    0.76    1.53
  -5  -6   6    0.31    1.28
  -5  -6   6   -0.97    1.16
  -5  -6   6   -0.75    1.48
  -5  -6   6   -0.23    1.61
  -5  -6   6   -1.90    1.40
   4   6  -6    4.98    1.39
   4   6  -6    4.31    1.46
   4   6  -6    4.28    1.82
   4   6  -6    0.67    1.80
   4   6  -6    3.41    1.22
   4   6  -6    4.31    1.17
  -4  -6   6    3.44    1.18
  -4  -6   6    4.88    1.26
  -4  -6   6    1.78    1.11
  -4  -6   6    3.58    1.31
  -4  -6   6    3.47    1.02
  -4  -6   6    3.73    1.52
  -4  -6   6    1.08    1.39
   3   6  -6   10.71    1.54
   3   6  -6    9.20    1.51
   3   6  -6    7.76    1.44
   3   6  -6    8.07    1.11
   3   6  -6   10.10    1.18
   3   6  -6    9.22    1.41
  -3  -6   6   10.78    1.18
  -3  -6   6    8.32    1.17
  -3  -6   6    9.28    1.18
  -3  -6   6    9.44    1.04
  -3  -6   6    9.31    0.90
  -3  -6   6    9.82    1.32
  -3  -6   6    9.68    1.30
   2   6  -6    1.73    1.24
   2   6  -6    1.16    1.18
   2   6  -6   -1.42    1.30
   2   6  -6    1.09    0.64
   2   6  -6    0.58    0.92
   2   6  -6   -0.13    0.89
   2   6  -6    1.10    1.22
  -2  -6   6    0.30    1.03
  -2  -6   6    0.40    0.79
  -2  -6   6   -0.72    1.07
  -2  -6   6    1.29    0.70
  -2  -6   6    0.42    1.02
  -2  -6   6   -0.67    0.90
  -2  -6   6    0.52    0.65
  -2  -6   6   -0.19    1.09
   1   6  -6    6.36    1.33
   1   6  -6    7.20    1.07
   1   6  -6    9.47    1.92
   1   6  -6    6.04    1.27
   1   6  -6    6.32    0.85
   1   6  -6    5.58    0.88
  -1  -6   6    6.08    0.71
  -1  -6   6    6.00    1.16
  -1  -6   6    6.30    0.96
  -1  -6   6    6.41    1.07
  -1  -6   6    6.02    1.22
  -1  -6   6    6.00    1.19
  -1  -6   6    5.77    0.89
  -1  -6   6    6.72    1.14
   0   6  -6    1.37    1.29
   0   6  -6    3.10    1.40
   0   6  -6    3.72    0.87
   0   6  -6    3.84    0.91
   0   6  -6    2.74    0.86
   0   6  -6    3.37    1.01
   0   6  -6    3.38    1.06
   0  -6   6    5.15    1.23
   0  -6   6    4.03    1.06
   0  -6   6    2.11    0.85
   0  -6   6    5.27    1.02
   0  -6   6    2.52    1.19
   0  -6   6    2.97    1.09
   0  -6   6    4.23    0.72
   0  -6   6    4.34    1.06
  -1   6  -6   10.29    0.97
  -1   6  -6   13.43    1.17
  -1   6  -6   13.82    1.35
  -1   6  -6   11.13    1.57
  -1   6  -6   17.05    1.71
  -1   6  -6   11.43    1.13
  -1   6  -6   14.60    0.95
   1  -6   6   15.80    1.23
   1  -6   6   14.29    1.25
   1  -6   6   14.86    1.49
   1  -6   6   13.21    1.20
   1  -6   6   15.09    1.32
   1  -6   6   16.20    1.49
   1  -6   6   15.62    1.30
   1  -6   6   13.38    1.50
  -2   6  -6    0.51    1.29
  -2   6  -6   -1.27    1.13
  -2   6  -6    0.09    0.75
  -2   6  -6    3.07    1.14
  -2   6  -6    3.14    1.61
  -2   6  -6    1.06    1.66
  -2   6  -6    1.37    1.13
   2  -6   6   -2.23    1.55
   2  -6   6    0.25    1.02
   2  -6   6    1.96    1.24
   2  -6   6   -0.22    1.30
   2  -6   6    2.30    1.21
   2  -6   6    1.37    1.43
   2  -6   6    0.52    1.38
  -3   6  -6   11.72    1.59
  -3   6  -6   11.90    1.94
  -3   6  -6   12.00    0.94
  -3   6  -6   12.93    1.45
  -3   6  -6   12.89    1.68
  -3   6  -6   10.23    1.48
  -3   6  -6   12.86    2.11
   3  -6   6   11.18    1.67
   3  -6   6   11.64    1.44
   3  -6   6    9.97    1.90
   3  -6   6   11.76    1.24
   3  -6   6   15.67    1.82
   3  -6   6   10.31    1.57
   3  -6   6   14.85    1.74
  -4   6  -6   -0.32    1.50
  -4   6  -6   -0.28    0.93
  -4   6  -6   -0.50    2.04
  -4   6  -6   -0.52    1.69
  -4   6  -6   -0.91    2.22
  -4   6  -6    0.47    1.84
  -4   6  -6   -1.58    1.67
   4  -6   6   -0.19    1.85
   4  -6   6   -2.42    3.49
   4  -6   6   -0.67    1.86
   4  -6   6   -1.43    2.24
   4  -6   6   -1.00    2.12
   4  -6   6    0.50    1.40
   4  -6   6   -0.10    1.59
   6   5  -6   24.59    2.06
   6   5  -6   27.85    2.54
   6   5  -6   24.52    2.27
   6   5  -6   30.51    2.66
   6   5  -6   26.27    1.90
  -6  -5   6   27.71    2.41
  -6  -5   6   23.88    1.74
  -6  -5   6   23.25    1.51
  -6  -5   6   25.71    1.96
  -6  -5   6   31.03    2.95
  -6  -5   6   23.12    1.75
  -6  -5   6   27.98    1.85
   5   5  -6    2.10    1.58
   5   5  -6    1.46    1.12
   5   5  -6    0.45    1.25
   5   5  -6    1.76    1.19
   5   5  -6    2.61    1.29
   5   5  -6    0.31    1.86
  -5  -5   6    0.39    1.06
  -5  -5   6    1.03    1.29
  -5  -5   6    1.78    1.32
  -5  -5   6    0.45    1.03
  -5  -5   6    2.69    1.16
  -5  -5   6    1.29    1.10
  -5  -5   6    1.11    0.99
   4   5  -6    3.41    1.12
   4   5  -6    4.28    1.08
   4   5  -6    3.58    1.07
   4   5  -6    2.68    1.52
   4   5  -6    4.13    1.34
   4   5  -6    3.55    0.97
  -4  -5   6    3.31    0.88
  -4  -5   6    4.95    1.15
  -4  -5   6    4.65    0.98
  -4  -5   6    3.72    1.01
  -4  -5   6    5.85    1.17
  -4  -5   6    4.71    0.90
  -4  -5   6    5.57    0.97
   3   5  -6   12.81    1.00
   3   5  -6   14.04    1.07
   3   5  -6   12.20    1.25
   3   5  -6   12.64    1.35
   3   5  -6   12.63    1.19
   3   5  -6   12.36    1.37
  -3  -5   6   12.00    0.88
  -3  -5   6   13.79    1.14
  -3  -5   6   10.84    1.02
  -3  -5   6   12.65    1.16
  -3  -5   6   12.72    1.03
  -3  -5   6   12.15    1.01
  -3  -5   6   12.16    1.05
   2   5  -6   21.19    1.78
   2   5  -6   20.00    1.37
   2   5  -6   20.09    1.65
   2   5  -6   18.58    0.94
   2   5  -6   20.09    1.40
   2   5  -6   20.54    1.44
  -2  -5   6   22.64    1.49
  -2  -5   6   20.99    1.66
  -2  -5   6   19.32    1.13
  -2  -5   6   18.73    1.38
  -2  -5   6   20.32    0.93
  -2  -5   6   19.33    1.21
  -2  -5   6   21.00    1.62
  -2  -5   6   19.65    1.37
   1   5  -6   13.59    1.07
   1   5  -6   13.87    1.28
   1   5  -6   14.93    1.17
   1   5  -6   12.55    1.13
   1   5  -6   13.07    1.11
   1   5  -6   18.78    1.47
   1   5  -6   17.28    1.35
  -1  -5   6   17.19    1.31
  -1  -5   6   17.67    1.60
  -1  -5   6   12.93    1.25
  -1  -5   6   17.04    1.38
  -1  -5   6   13.03    1.01
  -1  -5   6   16.62    1.01
  -1  -5   6   13.33    1.10
   0   5  -6   12.16    0.83
   0   5  -6   10.49    0.89
   0   5  -6   11.11    1.02
   0   5  -6   13.66    1.22
   0   5  -6   11.01    1.20
   0   5  -6   10.76    1.09
   0   5  -6   11.87    0.92
   0   5  -6   11.33    0.94
   0  -5   6   13.68    1.15
   0  -5   6   10.96    0.89
   0  -5   6   12.55    1.07
   0  -5   6   12.27    0.97
   0  -5   6   12.82    0.96
   0  -5   6    9.98    1.05
   0  -5   6   10.80    1.03
   0  -5   6   10.27    0.84
  -1   5  -6   18.30    1.12
  -1   5  -6   19.69    1.41
  -1   5  -6   14.18    1.72
  -1   5  -6   15.86    1.16
  -1   5  -6   17.74    1.29
  -1   5  -6   18.32    1.38
  -1   5  -6   17.73    1.50
  -1   5  -6   18.22    1.26
   1  -5   6   17.63    1.49
   1  -5   6   19.78    1.31
   1  -5   6   17.33    1.10
   1  -5   6   17.68    1.12
   1  -5   6   20.55    1.91
   1  -5   6   20.46    1.57
   1  -5   6   18.37    1.32
  -2   5  -6   66.75    2.17
  -2   5  -6   61.93    2.77
  -2   5  -6   68.70    2.92
  -2   5  -6   64.88    2.44
  -2   5  -6   61.49    2.31
  -2   5  -6   62.15    1.79
   2  -5   6   62.11    2.43
   2  -5   6   65.82    2.58
   2  -5   6   65.12    2.37
   2  -5   6   66.50    2.06
   2  -5   6   64.70    2.49
   2  -5   6   63.89    2.23
   2  -5   6   64.09    1.96
   2  -5   6   60.09    2.76
  -3   5  -6   -0.08    1.24
  -3   5  -6    0.62    0.99
  -3   5  -6    0.12    1.06
  -3   5  -6    2.67    1.46
  -3   5  -6    0.75    1.46
  -3   5  -6    0.55    0.67
   3  -5   6    1.09    1.06
   3  -5   6    0.74    0.75
   3  -5   6   -0.95    0.93
   3  -5   6    1.24    1.11
   3  -5   6    2.31    1.39
   3  -5   6    0.00    1.16
   3  -5   6    0.48    1.11
  -4   5  -6   21.20    2.93
  -4   5  -6   22.78    1.42
  -4   5  -6   20.27    1.64
  -4   5  -6   19.98    2.01
  -4   5  -6   24.65    1.91
  -4   5  -6   25.88    2.04
  -4   5  -6   17.61    1.61
   4  -5   6   21.29    1.51
   4  -5   6   23.63    1.78
   4  -5   6   27.67    1.80
   4  -5   6   25.79    1.83
   4  -5   6   23.26    1.74
   4  -5   6   24.21    1.62
   4  -5   6   27.03    2.22
  -5   5  -6    0.80    0.96
  -5   5  -6    0.61    1.99
  -5   5  -6    1.13    1.92
  -5   5  -6    2.24    1.57
  -5   5  -6   -2.17    1.29
  -5   5  -6   -0.56    1.89
  -5   5  -6    1.60    1.69
   5  -5   6    0.68    0.74
   5  -5   6   -2.34    1.56
   5  -5   6   -0.51    1.75
   5  -5   6    2.84    1.81
   5  -5   6    1.62    1.40
   5  -5   6    0.96    1.80
   5  -5   6    1.53    2.04
   5  -5   6    1.47    0.95
  -6   5  -6    8.82    2.56
  -6   5  -6   11.36    2.53
   7   4  -6    4.41    1.87
   7   4  -6    4.21    1.63
  -7  -4   6    6.63    1.68
   6   4  -6    5.03    2.13
   6   4  -6    7.68    1.58
   6   4  -6    2.97    1.26
   6   4  -6    4.75    1.20
   6   4  -6    3.99    1.39
   6   4  -6    7.57    1.60
  -6  -4   6    5.02    1.40
  -6  -4   6    5.05    1.10
  -6  -4   6    4.83    1.24
  -6  -4   6    4.43    1.30
  -6  -4   6    7.07    1.47
   5   4  -6    2.13    1.30
   5   4  -6    1.88    1.20
   5   4  -6    1.94    1.05
   5   4  -6    1.74    1.07
   5   4  -6    1.02    0.94
   5   4  -6    2.08    1.60
  -5  -4   6    1.33    0.92
  -5  -4   6    1.68    0.96
  -5  -4   6    1.19    1.01
  -5  -4   6    1.11    1.06
  -5  -4   6    2.01    0.85
  -5  -4   6    2.60    1.02
  -5  -4   6    2.61    0.91
   4   4  -6   43.89    1.86
   4   4  -6   44.49    2.09
   4   4  -6   44.72    2.44
   4   4  -6   44.46    1.97
   4   4  -6   42.57    1.90
   4   4  -6   43.69    1.92
  -4  -4   6   44.16    1.78
  -4  -4   6   40.96    1.68
  -4  -4   6   45.06    1.98
  -4  -4   6   42.26    1.71
  -4  -4   6   45.41    1.73
  -4  -4   6   42.46    1.68
   3   4  -6    9.49    0.86
   3   4  -6   11.13    0.91
   3   4  -6    9.83    0.97
   3   4  -6    7.82    0.94
   3   4  -6    9.25    1.01
   3   4  -6    9.61    1.07
  -3  -4   6   11.58    0.87
  -3  -4   6   11.65    0.88
  -3  -4   6    9.72    0.92
  -3  -4   6    8.83    1.13
  -3  -4   6   10.45    0.91
  -3  -4   6   11.47    0.97
  -3  -4   6   11.13    0.93
   2   4  -6   85.36    2.82
   2   4  -6   94.39    3.06
   2   4  -6  101.06    2.62
   2   4  -6  103.03    2.65
   2   4  -6  100.00    2.66
   2   4  -6   99.83    2.17
   2   4  -6  101.65    2.76
  -2  -4   6  104.42    2.68
  -2  -4   6  103.10    2.55
  -2  -4   6   99.17    2.54
  -2  -4   6  102.91    2.71
  -2  -4   6  101.68    2.64
  -2  -4   6  104.26    2.54
  -2  -4   6  101.61    2.41
  -2  -4   6  100.70    2.15
   1   4  -6  412.97    8.43
   1   4  -6  408.79    8.68
   1   4  -6  422.93    8.65
   1   4  -6  398.43    8.98
   1   4  -6  416.69    8.54
   1   4  -6  414.05    8.78
  -1  -4   6  415.54    8.60
  -1  -4   6  414.05    8.44
  -1  -4   6  410.11    8.56
  -1  -4   6  424.92    8.72
  -1  -4   6  412.64    8.41
  -1  -4   6  414.29    8.63
  -1  -4   6  406.96    8.72
  -1  -4   6  418.49    8.62
   0   4  -6   77.29    2.40
   0   4  -6   75.40    2.01
   0   4  -6   76.02    2.33
   0   4  -6   77.55    2.04
   0   4  -6   79.20    2.29
   0   4  -6   74.35    1.96
   0   4  -6   80.24    2.21
   0   4  -6   77.73    2.03
   0  -4   6   76.86    2.04
   0  -4   6   79.91    2.12
   0  -4   6   75.88    2.26
   0  -4   6   76.82    1.88
   0  -4   6   74.62    2.14
   0  -4   6   74.82    2.21
   0  -4   6   75.99    2.01
   0  -4   6   76.32    2.35
  -1   4  -6    2.35    0.66
  -1   4  -6    3.12    0.74
  -1   4  -6    3.38    0.95
  -1   4  -6    2.45    0.55
  -1   4  -6    3.72    0.53
  -1   4  -6    3.35    0.62
  -1   4  -6    3.50    0.91
  -1   4  -6    3.15    0.75
   1  -4   6    2.26    0.80
   1  -4   6    4.04    0.63
   1  -4   6    2.97    0.74
   1  -4   6    4.36    0.54
   1  -4   6    3.51    0.80
   1  -4   6    3.79    0.71
   1  -4   6    2.31    0.58
   1  -4   6    2.82    0.85
  -2   4  -6  103.67    2.79
  -2   4  -6  100.01    2.64
  -2   4  -6  101.31    2.65
  -2   4  -6  103.70    2.39
  -2   4  -6  100.56    3.10
  -2   4  -6  106.71    2.61
  -2   4  -6  103.31    2.84
  -2   4  -6  103.15    3.04
   2  -4   6   97.22    2.99
   2  -4   6  102.31    2.66
   2  -4   6  107.89    2.90
   2  -4   6  104.65    2.53
   2  -4   6  101.93    2.74
   2  -4   6  102.22    2.78
   2  -4   6  102.12    2.51
  -3   4  -6    8.04    0.88
  -3   4  -6   10.20    0.71
  -3   4  -6   10.43    1.40
  -3   4  -6    8.82    1.29
  -3   4  -6   11.69    1.19
  -3   4  -6   10.97    0.92
  -3   4  -6    9.80    1.10
   3  -4   6    9.89    0.93
   3  -4   6   11.93    1.15
   3  -4   6    9.08    1.27
   3  -4   6    8.27    1.02
   3  -4   6   12.34    1.02
   3  -4   6    9.81    1.01
   3  -4   6   11.17    1.08
  -4   4  -6    7.84    0.75
  -4   4  -6    6.00    1.44
  -4   4  -6    8.23    0.99
  -4   4  -6    6.66    1.14
  -4   4  -6    8.54    1.40
  -4   4  -6    7.27    1.15
  -4   4  -6    8.44    1.26
   4  -4   6    9.51    0.72
   4  -4   6    8.34    1.22
   4  -4   6    9.21    1.09
   4  -4   6    8.24    1.24
   4  -4   6    7.57    1.42
   4  -4   6    8.48    1.15
  -5   4  -6   26.61    1.80
  -5   4  -6   24.23    1.65
  -5   4  -6   27.72    2.06
  -5   4  -6   23.78    1.58
  -5   4  -6   22.78    1.93
  -5   4  -6   27.25    2.00
   5  -4   6   25.85    1.06
   5  -4   6   25.00    1.74
   5  -4   6   24.55    1.27
   5  -4   6   24.80    1.72
   5  -4   6   22.26    1.66
   5  -4   6   27.13    2.30
   5  -4   6   23.43    1.93
  -6   4  -6    6.96    2.60
  -6   4  -6    2.62    1.44
  -6   4  -6    7.91    1.62
  -6   4  -6    5.56    1.76
  -6   4  -6    8.14    2.08
  -6   4  -6    8.41    2.00
  -6   4  -6    8.63    2.04
  -6   4  -6    6.72    1.21
   6  -4   6    8.89    2.20
   6  -4   6    8.55    1.85
   6  -4   6    9.11    1.73
   6  -4   6    5.88    1.81
   6  -4   6    7.66    1.59
   6  -4   6    8.80    1.52
   7   3  -6   -0.56    1.55
   7   3  -6    2.85    1.31
   7   3  -6    2.42    1.37
   7   3  -6    3.48    2.48
   7   3  -6    0.24    1.53
  -7  -3   6    0.83    1.40
  -7  -3   6    1.62    1.76
  -7  -3   6   -1.65    1.55
  -7  -3   6    2.52    1.55
  -7  -3   6    0.52    1.54
   6   3  -6   -1.28    1.21
   6   3  -6    0.37    1.27
   6   3  -6   -0.41    1.40
   6   3  -6    2.29    1.07
   6   3  -6   -0.30    1.01
   6   3  -6    0.96    1.80
  -6  -3   6    0.59    1.07
  -6  -3   6   -0.51    0.85
  -6  -3   6   -1.73    0.94
  -6  -3   6    0.44    1.19
  -6  -3   6   -0.11    1.23
  -6  -3   6    2.67    1.07
   5   3  -6   11.10    1.56
   5   3  -6   11.90    1.09
   5   3  -6   13.60    1.09
   5   3  -6   13.35    1.23
   5   3  -6   12.55    1.18
   5   3  -6   13.44    1.26
  -5  -3   6   13.19    0.92
  -5  -3   6   12.31    1.01
  -5  -3   6   12.43    1.06
  -5  -3   6   13.64    1.03
  -5  -3   6   12.77    1.03
  -5  -3   6   13.72    1.19
  -5  -3   6   12.96    1.12
   4   3  -6    5.69    1.14
   4   3  -6    4.96    0.80
   4   3  -6    4.78    0.92
   4   3  -6    6.40    0.92
   4   3  -6    5.16    0.81
   4   3  -6    4.46    0.88
  -4  -3   6    5.09    0.81
  -4  -3   6    5.38    0.76
  -4  -3   6    4.30    0.67
  -4  -3   6    5.54    0.71
  -4  -3   6    4.32    0.79
  -4  -3   6    6.08    0.78
  -4  -3   6    5.93    0.76
   3   3  -6   14.18    1.19
   3   3  -6   13.53    1.21
   3   3  -6   11.78    0.99
   3   3  -6    9.45    1.19
   3   3  -6   13.09    1.01
   3   3  -6   12.46    0.86
  -3  -3   6   14.45    1.00
  -3  -3   6   13.22    1.02
  -3  -3   6   12.88    1.05
  -3  -3   6   14.51    1.06
  -3  -3   6   13.70    1.04
  -3  -3   6   13.62    1.04
   2   3  -6  115.39    2.91
   2   3  -6  116.48    2.85
   2   3  -6  114.62    2.73
   2   3  -6  115.31    2.90
   2   3  -6  116.93    2.82
   2   3  -6  119.06    2.87
  -2  -3   6  116.34    2.72
  -2  -3   6  118.03    2.84
  -2  -3   6  119.11    2.76
  -2  -3   6  117.18    2.81
  -2  -3   6  117.09    2.69
  -2  -3   6  114.48    2.74
  -2  -3   6  115.16    2.89
   1   3  -6   82.93    2.18
   1   3  -6   84.50    2.09
   1   3  -6   81.02    2.15
   1   3  -6   82.04    1.92
   1   3  -6   80.34    2.27
   1   3  -6   82.67    2.05
   1   3  -6   80.22    2.20
  -1  -3   6   80.25    1.87
  -1  -3   6   83.77    2.13
  -1  -3   6   83.40    2.17
  -1  -3   6   83.25    2.19
  -1  -3   6   80.48    2.09
  -1  -3   6   85.02    2.23
  -1  -3   6   80.50    2.08
  -1  -3   6   83.90    1.97
   0   3  -6  161.19    3.53
   0   3  -6  163.39    3.81
   0   3  -6  160.43    3.65
   0   3  -6  159.70    3.52
   0   3  -6  159.61    3.54
   0   3  -6  162.03    3.51
   0   3  -6  160.34    3.65
   0   3  -6  162.28    3.71
   0  -3   6  160.10    3.50
   0  -3   6  162.73    3.64
   0  -3   6  159.88    3.72
   0  -3   6  162.33    3.62
   0  -3   6  164.64    3.72
   0  -3   6  164.36    3.59
   0  -3   6  157.85    3.53
   0  -3   6  159.15    3.47
  -1   3  -6  284.21    5.83
  -1   3  -6  280.80    5.99
  -1   3  -6  278.20    6.08
  -1   3  -6  282.73    6.04
  -1   3  -6  283.27    5.93
  -1   3  -6  282.01    5.98
  -1   3  -6  284.15    5.89
  -1   3  -6  282.98    6.19
   1  -3   6  273.55    6.13
   1  -3   6  277.78    5.92
   1  -3   6  288.77    6.10
   1  -3   6  283.75    5.95
   1  -3   6  283.40    5.99
   1  -3   6  281.09    5.86
   1  -3   6  286.06    5.91
  -2   3  -6    9.36    0.70
  -2   3  -6   11.64    1.01
  -2   3  -6   11.10    0.84
  -2   3  -6   11.50    0.90
  -2   3  -6   10.49    0.73
  -2   3  -6   11.62    0.97
  -2   3  -6   11.90    0.79
  -2   3  -6   12.71    0.92
   2  -3   6   10.27    0.81
   2  -3   6   11.01    0.91
   2  -3   6   12.07    0.97
   2  -3   6   12.62    0.85
   2  -3   6   10.92    0.90
   2  -3   6   12.51    0.82
   2  -3   6   11.48    0.84
   2  -3   6   12.82    1.18
  -3   3  -6   18.40    1.27
  -3   3  -6   19.12    1.11
  -3   3  -6   20.12    0.95
  -3   3  -6   18.65    1.45
  -3   3  -6   19.37    1.66
  -3   3  -6   20.68    1.07
  -3   3  -6   19.98    1.45
  -3   3  -6   19.00    1.25
   3  -3   6   19.18    0.91
   3  -3   6   19.61    1.46
   3  -3   6   18.90    1.18
   3  -3   6   20.64    1.40
   3  -3   6   19.53    1.41
   3  -3   6   18.21    1.62
   3  -3   6   20.52    1.38
  -4   3  -6    0.67    0.87
  -4   3  -6   -0.16    0.77
  -4   3  -6    0.33    0.96
  -4   3  -6    0.31    1.04
  -4   3  -6   -0.01    0.56
  -4   3  -6    0.82    1.09
  -4   3  -6    0.57    0.77
   4  -3   6   -0.05    0.98
   4  -3   6   -0.30    0.42
   4  -3   6    0.64    0.78
   4  -3   6    0.38    0.87
   4  -3   6    0.07    0.81
   4  -3   6    0.34    0.76
   4  -3   6   -0.62    1.19
  -5   3  -6    3.65    1.35
  -5   3  -6    3.68    1.07
  -5   3  -6    4.44    1.28
  -5   3  -6    4.23    1.40
  -5   3  -6    3.64    1.13
  -5   3  -6    4.18    0.90
   5  -3   6    4.86    1.16
   5  -3   6    2.87    1.14
   5  -3   6    3.03    1.06
   5  -3   6    4.35    1.00
   5  -3   6    4.61    0.87
   5  -3   6    3.80    1.31
  -6   3  -6    6.82    1.13
  -6   3  -6    6.55    1.62
  -6   3  -6    5.17    1.17
  -6   3  -6    6.44    1.70
  -6   3  -6    5.44    1.31
  -6   3  -6    6.57    1.56
  -6   3  -6    5.35    1.47
   6  -3   6    4.58    1.38
   6  -3   6    7.02    1.27
   6  -3   6    5.96    1.41
   6  -3   6    5.16    1.13
   6  -3   6    6.41    1.42
   6  -3   6    6.59    1.24
  -7   3  -6    5.72    1.83
  -7   3  -6    4.90    1.96
  -7   3  -6    3.06    2.00
  -7   3  -6    2.23    2.08
  -7   3  -6    4.09    1.53
  -7   3  -6    3.79    1.45
  -7   3  -6    4.24    1.40
  -7   3  -6    3.46    1.93
   7  -3   6    5.35    1.44
   7  -3   6    4.30    1.61
   7  -3   6    5.29    1.93
   7  -3   6    3.87    1.61
   7  -3   6    4.06    1.85
   7  -3   6    5.17    1.76
   7   2  -6   -0.69    1.17
   7   2  -6   -0.24    1.26
   7   2  -6   -0.80    1.32
   7   2  -6    1.67    1.56
   7   2  -6    1.34    1.94
   7   2  -6    0.45    2.28
  -7  -2   6    1.36    1.28
  -7  -2   6    2.57    1.47
  -7  -2   6   -0.88    1.62
  -7  -2   6    0.41    1.20
  -7  -2   6   -1.55    1.31
  -7  -2   6   -2.67    1.44
   6   2  -6   10.77    1.23
   6   2  -6   10.08    1.05
   6   2  -6   12.87    1.15
   6   2  -6   10.71    1.36
   6   2  -6   13.36    1.94
   6   2  -6   11.16    1.55
  -6  -2   6   11.23    1.12
  -6  -2   6   13.68    1.31
  -6  -2   6   12.42    1.15
  -6  -2   6   11.62    1.24
  -6  -2   6   11.39    1.10
  -6  -2   6   12.48    1.38
   5   2  -6  145.34    3.72
   5   2  -6  136.68    3.46
   5   2  -6  136.30    3.49
   5   2  -6  143.97    3.70
   5   2  -6  142.52    4.03
   5   2  -6  145.27    3.58
  -5  -2   6  144.07    3.58
  -5  -2   6  138.03    3.52
  -5  -2   6  141.94    3.39
  -5  -2   6  143.45    3.53
  -5  -2   6  142.12    3.50
  -5  -2   6  145.95    3.45
   4   2  -6   32.71    1.71
   4   2  -6   30.51    1.70
   4   2  -6   33.80    1.90
   4   2  -6   31.54    1.36
   4   2  -6   26.00    1.68
  -4  -2   6   31.30    1.44
  -4  -2   6   31.76    1.43
  -4  -2   6   32.10    1.43
  -4  -2   6   30.77    1.80
  -4  -2   6   30.47    1.45
   3   2  -6   61.11    1.81
   3   2  -6   55.42    1.78
   3   2  -6   60.96    1.87
   3   2  -6   61.71    1.82
   3   2  -6   61.48    1.73
   3   2  -6   61.82    1.98
  -3  -2   6   58.32    1.69
  -3  -2   6   58.64    1.73
  -3  -2   6   58.03    1.63
  -3  -2   6   59.60    1.66
  -3  -2   6   59.39    1.75
  -3  -2   6   56.19    1.73
  -3  -2   6   59.91    1.70
   2   2  -6   27.79    1.21
   2   2  -6   25.85    1.18
   2   2  -6   24.61    1.09
   2   2  -6   26.73    1.18
   2   2  -6   27.03    1.19
   2   2  -6   27.14    1.10
  -2  -2   6   24.60    1.05
  -2  -2   6   25.84    1.02
  -2  -2   6   24.85    1.09
  -2  -2   6   26.93    1.20
  -2  -2   6   26.43    1.08
  -2  -2   6   27.66    1.04
  -2  -2   6   25.77    0.95
   1   2  -6    4.90    0.61
   1   2  -6    5.02    0.45
   1   2  -6    5.36    0.52
   1   2  -6    4.83    0.54
   1   2  -6    4.74    0.53
   1   2  -6    4.75    0.58
   1   2  -6    3.81    0.53
  -1  -2   6    6.15    0.57
  -1  -2   6    5.25    0.47
  -1  -2   6    3.89    0.48
  -1  -2   6    4.99    0.43
  -1  -2   6    4.94    0.49
  -1  -2   6    4.48    0.56
  -1  -2   6    5.19    0.51
   0   2  -6    1.16    0.48
   0   2  -6    1.22    0.37
   0   2  -6    1.56    0.39
   0   2  -6    1.28    0.51
   0   2  -6    1.10    0.33
   0   2  -6    1.17    0.43
   0   2  -6    1.90    0.62
   0   2  -6    1.54    0.48
   0  -2   6    0.41    0.33
   0  -2   6    0.78    0.33
   0  -2   6    1.47    0.50
   0  -2   6    1.60    0.33
   0  -2   6    0.83    0.37
   0  -2   6    1.09    0.49
   0  -2   6    1.85    0.40
   0  -2   6    1.17    0.40
  -1   2  -6   71.03    1.89
  -1   2  -6   71.71    1.70
  -1   2  -6   70.20    1.80
  -1   2  -6   70.37    1.71
  -1   2  -6   68.96    1.75
  -1   2  -6   71.15    1.94
  -1   2  -6   71.46    1.84
  -1   2  -6   67.85    1.95
   1  -2   6   69.52    1.71
   1  -2   6   74.48    1.83
   1  -2   6   70.49    1.74
   1  -2   6   72.19    1.85
   1  -2   6   68.77    1.88
   1  -2   6   71.94    1.74
   1  -2   6   71.14    1.96
   1  -2   6   70.68    1.78
  -2   2  -6   43.54    1.51
  -2   2  -6   42.79    1.25
  -2   2  -6   43.31    1.44
  -2   2  -6   41.63    1.32
  -2   2  -6   42.22    1.52
  -2   2  -6   42.60    1.21
  -2   2  -6   40.12    1.45
  -2   2  -6   40.64    1.20
   2  -2   6   42.50    1.28
   2  -2   6   41.36    1.37
   2  -2   6   42.96    1.19
   2  -2   6   41.69    1.52
   2  -2   6   43.00    1.26
   2  -2   6   39.61    1.39
   2  -2   6   42.24    1.38
   2  -2   6   44.02    1.46
  -3   2  -6    0.00    0.55
  -3   2  -6    0.21    0.68
  -3   2  -6    0.08    0.38
  -3   2  -6    0.19    0.59
  -3   2  -6   -0.54    0.50
  -3   2  -6   -0.53    0.39
  -3   2  -6    0.09    0.42
  -3   2  -6   -0.86    0.66
   3  -2   6   -0.09    0.67
   3  -2   6    0.88    0.55
   3  -2   6   -0.05    0.46
   3  -2   6    0.39    0.57
   3  -2   6    0.18    0.35
   3  -2   6    0.68    0.54
   3  -2   6   -0.25    0.51
   3  -2   6    0.21    0.55
  -4   2  -6    3.56    0.59
  -4   2  -6    4.19    0.82
  -4   2  -6    4.86    0.88
  -4   2  -6    3.90    0.90
  -4   2  -6    5.03    0.77
  -4   2  -6    5.20    0.85
  -4   2  -6    5.12    0.48
  -4   2  -6    4.57    0.61
   4  -2   6    4.40    0.91
   4  -2   6    4.02    0.72
   4  -2   6    4.95    0.73
   4  -2   6    4.88    0.40
   4  -2   6    4.45    0.71
   4  -2   6    3.80    0.78
   4  -2   6    4.75    0.64
  -5   2  -6  105.07    2.83
  -5   2  -6  105.65    3.08
  -5   2  -6  113.04    3.26
  -5   2  -6  108.11    3.42
  -5   2  -6  106.37    3.21
  -5   2  -6  109.22    2.89
  -5   2  -6  107.66    2.75
   5  -2   6  108.56    2.97
   5  -2   6  109.81    3.02
   5  -2   6  106.37    2.92
   5  -2   6  104.35    3.21
   5  -2   6  108.36    2.90
  -6   2  -6   39.22    2.55
  -6   2  -6   35.11    1.90
  -6   2  -6   33.18    2.38
  -6   2  -6   41.62    2.52
  -6   2  -6   37.20    1.90
  -6   2  -6   39.85    2.04
  -6   2  -6   36.40    2.50
   6  -2   6   39.39    2.07
   6  -2   6   35.96    2.26
   6  -2   6   36.88    2.03
   6  -2   6   40.44    2.14
   6  -2   6   35.91    1.92
   6  -2   6   36.88    2.44
  -7   2  -6   16.34    1.84
  -7   2  -6   18.89    1.95
  -7   2  -6   21.14    1.60
  -7   2  -6   15.73    1.49
  -7   2  -6   17.45    1.54
  -7   2  -6   15.50    1.81
  -7   2  -6   18.22    1.91
  -7   2  -6   16.55    1.94
   7  -2   6   17.70    1.50
   7  -2   6   20.68    1.61
   7  -2   6   18.75    1.68
   7  -2   6   17.53    1.82
   7  -2   6   20.27    1.55
   7  -2   6   19.00    1.77
  -8   2  -6   10.78    2.44
  -8   2  -6   13.30    1.92
  -8   2  -6   11.70    2.00
  -8   2  -6   13.99    2.29
  -8   2  -6    7.66    2.39
   8  -2   6    8.11    1.68
   7   1  -6   13.18    1.40
   7   1  -6   13.69    1.42
   7   1  -6   12.66    1.80
   7   1  -6   13.55    2.07
   7   1  -6   14.43    2.57
   7   1  -6   14.49    1.36
  -7  -1   6   12.89    1.37
  -7  -1   6   11.22    1.68
  -7  -1   6   11.72    1.39
  -7  -1   6   12.48    1.60
  -7  -1   6   13.36    1.59
  -7  -1   6   14.32    1.70
   6   1  -6    2.81    1.00
   6   1  -6    2.92    1.49
   6   1  -6    3.03    1.66
   6   1  -6    2.50    1.02
  -6  -1   6    2.26    0.89
  -6  -1   6    2.40    1.16
  -6  -1   6    1.16    1.01
  -6  -1   6    1.45    1.06
  -6  -1   6    1.31    0.95
  -6  -1   6    0.11    1.01
   5   1  -6   12.07    0.90
   5   1  -6   10.83    1.02
   5   1  -6   11.63    1.43
   5   1  -6   12.01    1.24
   5   1  -6   11.29    0.95
   5   1  -6   12.61    1.24
  -5  -1   6   10.23    0.92
  -5  -1   6   11.34    1.00
  -5  -1   6   11.52    1.03
  -5  -1   6   12.50    1.11
  -5  -1   6   13.04    0.93
  -5  -1   6   12.92    1.03
   4   1  -6   44.50    2.43
   4   1  -6   55.38    1.76
   4   1  -6   55.28    1.99
   4   1  -6   53.14    1.96
   4   1  -6   54.69    1.81
   4   1  -6   54.80    1.68
  -4  -1   6   55.55    1.78
  -4  -1   6   53.92    1.70
  -4  -1   6   56.78    1.76
  -4  -1   6   57.65    1.71
  -4  -1   6   53.79    1.74
  -4  -1   6   54.95    1.81
   3   1  -6    0.07    0.40
   3   1  -6    0.43    0.49
   3   1  -6    0.28    0.57
   3   1  -6    0.40    0.63
   3   1  -6   -0.37    0.60
   3   1  -6   -0.25    0.51
  -3  -1   6    0.66    0.49
  -3  -1   6    0.32    0.45
  -3  -1   6    0.16    0.49
  -3  -1   6   -0.56    0.45
  -3  -1   6    0.60    0.45
  -3  -1   6    0.23    0.48
   2   1  -6  125.25    2.92
   2   1  -6  119.59    2.79
   2   1  -6  121.65    2.82
   2   1  -6  123.85    2.56
   2   1  -6  122.42    2.57
   2   1  -6  121.63    2.88
   2   1  -6  121.49    2.86
   2   1  -6  122.88    2.83
  -2  -1   6  124.83    2.83
  -2  -1   6  123.09    2.80
  -2  -1   6  122.01    2.76
  -2  -1   6  125.22    2.76
  -2  -1   6  124.07    2.69
  -2  -1   6  116.94    2.82
  -2  -1   6  125.01    2.73
   1   1  -6    0.21    0.38
   1   1  -6    0.55    0.39
   1   1  -6   -0.26    0.42
   1   1  -6    0.22    0.28
   1   1  -6    0.23    0.37
   1   1  -6   -0.08    0.38
   1   1  -6    0.52    0.37
  -1  -1   6    0.24    0.26
  -1  -1   6    0.22    0.43
  -1  -1   6    0.19    0.32
  -1  -1   6    0.28    0.32
  -1  -1   6    0.21    0.35
  -1  -1   6    0.32    0.33
  -1  -1   6    0.85    0.62
   0   1  -6    3.50    0.44
   0   1  -6    5.09    0.42
   0   1  -6    5.50    0.45
   0   1  -6    5.22    0.45
   0   1  -6    4.67    0.50
   0   1  -6    4.74    0.45
   0  -1   6    5.67    0.48
   0  -1   6    5.02    0.40
   0  -1   6    4.93    0.48
   0  -1   6    5.55    0.43
   0  -1   6    4.97    0.42
   0  -1   6    5.68    0.42
   0  -1   6    5.15    0.47
  -1   1  -6   13.53    0.66
  -1   1  -6   14.52    0.70
  -1   1  -6   20.13    1.14
  -1   1  -6   13.78    0.67
  -1   1  -6   14.00    0.79
  -1   1  -6   15.31    0.81
  -1   1  -6   13.41    0.55
  -1   1  -6   14.43    0.84
   1  -1   6   14.91    0.69
   1  -1   6   13.60    0.73
   1  -1   6   14.17    0.83
   1  -1   6   13.52    0.57
   1  -1   6   13.72    0.73
   1  -1   6   13.62    0.79
   1  -1   6   14.29    0.66
   1  -1   6   13.50    0.71
  -2   1  -6    2.76    0.50
  -2   1  -6    1.87    0.40
  -2   1  -6    3.33    0.37
  -2   1  -6    3.29    0.33
  -2   1  -6    3.08    0.38
  -2   1  -6    3.98    0.39
  -2   1  -6    2.73    0.49
  -2   1  -6    3.16    0.43
   2  -1   6    4.57    0.39
   2  -1   6    3.06    0.44
   2  -1   6    2.38    0.45
   2  -1   6    4.10    0.48
   2  -1   6    3.89    0.45
   2  -1   6    3.70    0.47
   2  -1   6    3.59    0.36
   2  -1   6    2.33    0.39
  -3   1  -6   56.37    1.45
  -3   1  -6   55.68    1.39
  -3   1  -6   57.11    1.51
  -3   1  -6   57.31    1.76
  -3   1  -6   57.69    1.67
  -3   1  -6   57.82    1.75
  -3   1  -6   55.10    1.54
  -3   1  -6   56.31    1.71
   3  -1   6   54.87    1.48
   3  -1   6   56.43    1.65
   3  -1   6   59.60    1.58
   3  -1   6   57.82    1.36
   3  -1   6   59.55    1.76
   3  -1   6   54.62    1.61
   3  -1   6   58.35    1.64
   3  -1   6   54.97    1.60
  -4   1  -6   94.00    2.54
  -4   1  -6   95.36    2.30
  -4   1  -6   94.84    2.51
  -4   1  -6   93.77    2.33
  -4   1  -6   91.71    2.02
  -4   1  -6   92.59    2.54
  -4   1  -6   95.12    2.44
  -4   1  -6   92.72    2.32
   4  -1   6   95.21    2.55
   4  -1   6   95.06    2.41
   4  -1   6   83.33    2.57
   4  -1   6   92.81    2.44
   4  -1   6   91.96    2.00
   4  -1   6   90.82    2.28
   4  -1   6   92.26    2.31
  -5   1  -6    6.27    0.76
  -5   1  -6    7.54    1.02
  -5   1  -6    4.91    0.67
  -5   1  -6    5.69    0.86
  -5   1  -6    5.80    0.67
  -5   1  -6    6.47    0.97
  -5   1  -6    7.29    0.99
   5  -1   6    5.61    0.71
   5  -1   6    8.05    1.13
   5  -1   6    7.68    0.92
   5  -1   6    6.96    0.74
   5  -1   6    6.46    1.06
   5  -1   6    6.94    0.81
  -6   1  -6    2.87    0.85
  -6   1  -6    1.49    1.09
  -6   1  -6    2.10    1.01
  -6   1  -6    1.29    0.81
  -6   1  -6    2.23    1.07
  -6   1  -6    1.39    0.87
  -6   1  -6    0.01    1.07
   6  -1   6    3.20    0.83
   6  -1   6    2.56    0.80
   6  -1   6    1.67    0.93
   6  -1   6    0.63    0.96
   6  -1   6    1.79    0.73
   6  -1   6    0.85    0.93
  -7   1  -6   40.99    2.81
  -7   1  -6   45.46    2.23
  -7   1  -6   43.21    2.61
  -7   1  -6   48.02    2.71
  -7   1  -6   45.41    2.82
  -7   1  -6   41.65    2.32
  -7   1  -6   44.40    2.22
   7  -1   6   43.56    2.02
   7  -1   6   43.24    2.53
   7  -1   6   40.59    2.21
   7  -1   6   41.45    2.44
   7  -1   6   42.40    2.03
   7  -1   6   45.02    2.12
  -8   1  -6    5.09    2.05
  -8   1  -6    3.75    1.91
  -8   1  -6   10.67    2.05
  -8   1  -6    6.61    1.95
  -8   1  -6    4.88    1.68
  -8   1  -6    7.81    1.59
  -8   1  -6    6.72    1.53
  -8   1  -6    6.98    1.97
   8  -1   6    5.76    1.40
   8  -1   6    6.71    1.32
   8  -1   6    6.43    1.43
   8  -1   6    3.28    1.44
   8  -1   6    3.52    1.62
   7   0  -6    3.91    1.22
   7   0  -6    2.55    1.26
   7   0  -6    4.02    2.08
   7   0  -6    4.39    2.31
   7   0  -6    2.23    1.45
   7   0  -6    4.65    0.96
   7   0  -6    0.07    1.72
  -7   0   6    5.26    1.54
  -7   0   6    3.19    1.57
  -7   0   6    3.71    0.73
  -7   0   6    5.26    1.29
  -7   0   6    2.30    1.33
  -7   0   6    3.93    1.41
  -7   0   6    3.63    1.47
   6   0  -6    8.22    1.72
   6   0  -6    4.89    1.15
   6   0  -6    3.74    1.01
   6   0  -6    6.17    1.55
   6   0  -6    7.86    1.01
   6   0  -6    5.78    1.25
   6   0  -6    6.46    0.81
  -6   0   6    5.28    1.09
  -6   0   6    6.59    1.14
  -6   0   6    7.14    1.22
  -6   0   6    5.16    1.23
  -6   0   6    6.77    0.99
  -6   0   6    8.47    1.13
  -6   0   6    6.35    0.57
   5   0  -6   10.58    1.38
   5   0  -6    9.89    1.17
   5   0  -6   10.10    1.05
   5   0  -6   10.67    1.36
   5   0  -6   11.26    0.93
   5   0  -6   11.12    0.75
  -5   0   6   10.07    1.22
  -5   0   6   12.98    0.99
  -5   0   6   11.85    1.00
  -5   0   6   12.77    1.15
  -5   0   6   13.06    1.02
  -5   0   6   13.03    0.96
   4   0  -6   49.57    1.80
   4   0  -6   52.58    2.28
   4   0  -6   52.15    1.96
   4   0  -6   52.02    1.66
   4   0  -6   50.96    1.66
   4   0  -6   49.85    1.41
   4   0  -6   51.70    2.05
  -4   0   6   52.90    1.70
  -4   0   6   52.37    1.61
  -4   0   6   51.00    1.65
  -4   0   6   49.74    1.75
  -4   0   6   50.47    1.79
  -4   0   6   43.96    2.29
   3   0  -6   40.00    1.60
   3   0  -6   43.11    1.36
   3   0  -6   40.06    1.36
   3   0  -6   41.00    1.55
   3   0  -6   42.18    1.48
   3   0  -6   38.97    1.56
   3   0  -6   40.92    1.17
  -3   0   6   43.72    1.44
  -3   0   6   41.82    1.38
  -3   0   6   41.70    1.37
  -3   0   6   43.13    1.36
  -3   0   6   43.11    1.47
  -3   0   6   43.05    1.34
   2   0  -6   17.87    1.04
   2   0  -6   17.38    0.88
   2   0  -6   18.26    0.72
   2   0  -6   18.26    0.99
   2   0  -6   16.64    0.94
   2   0  -6   16.89    0.97
   2   0  -6   17.75    0.87
  -2   0   6   18.01    0.88
  -2   0   6   16.93    0.80
  -2   0   6   19.16    0.77
  -2   0   6   18.32    0.86
  -2   0   6   24.18    1.28
   1   0  -6   89.84    2.19
   1   0  -6   90.01    2.18
   1   0  -6   89.11    2.10
   1   0  -6   89.31    2.10
   1   0  -6   88.43    1.98
   1   0  -6   88.54    2.11
   1   0  -6   86.66    2.10
  -1   0   6   88.52    2.14
  -1   0   6   90.37    2.06
  -1   0   6   87.99    2.05
  -1   0   6   91.25    1.97
  -1   0   6   91.27    2.11
  -1   0   6   95.49    2.13
  -1   0   6   90.05    1.94
   0   0  -6    6.72    0.57
   0   0  -6    6.03    0.46
   0   0  -6    6.68    0.65
   0   0  -6    6.97    0.64
   0   0  -6    7.54    0.54
   0   0  -6    5.76    0.42
   0   0  -6    7.37    0.58
   0   0   6    7.12    0.34
   0   0   6    6.06    0.46
   0   0   6    7.44    0.54
   0   0   6    7.01    0.59
   0   0   6    5.05    0.44
   0   0   6    7.40    0.53
   0   0   6    7.55    0.60
  -1   0  -6  291.39    6.01
  -1   0  -6  291.43    6.02
  -1   0  -6  291.67    6.04
  -1   0  -6  282.05    5.83
  -1   0  -6  283.75    6.06
  -1   0  -6  294.74    5.98
  -1   0  -6  283.58    5.96
  -1   0  -6  294.53    5.97
   1   0   6  296.15    5.99
   1   0   6  288.09    5.99
   1   0   6  301.95    5.85
   1   0   6  289.04    5.98
   1   0   6  300.54    6.06
   1   0   6  291.82    5.98
   1   0   6  290.28    6.05
  -2   0  -6    4.76    0.42
  -2   0  -6    4.09    0.46
  -2   0  -6    4.88    0.45
  -2   0  -6    4.34    0.46
  -2   0  -6    5.37    0.46
  -2   0  -6    5.70    0.49
  -2   0  -6    4.58    0.36
  -2   0  -6    5.26    0.38
   2   0   6    5.14    0.48
   2   0   6    4.76    0.42
   2   0   6    4.48    0.38
   2   0   6    5.80    0.49
   2   0   6    5.26    0.47
   2   0   6    6.66    0.51
   2   0   6    5.67    0.50
   2   0   6    5.64    0.41
  -3   0  -6   30.34    1.02
  -3   0  -6   29.20    0.88
  -3   0  -6   30.75    0.85
  -3   0  -6   29.09    1.10
  -3   0  -6   28.24    1.09
  -3   0  -6   28.92    1.16
  -3   0  -6   28.58    0.97
  -3   0  -6   30.46    1.08
   3   0   6   30.50    1.17
   3   0   6   30.74    1.14
   3   0   6   29.17    1.11
   3   0   6   30.62    1.13
   3   0   6   29.68    0.99
   3   0   6   28.23    0.89
   3   0   6   30.09    0.96
   3   0   6   28.95    0.87
  -4   0  -6   54.09    1.64
  -4   0  -6   53.89    1.69
  -4   0  -6   53.13    1.54
  -4   0  -6   53.04    1.23
  -4   0  -6   53.62    1.60
  -4   0  -6   51.41    1.43
   4   0   6   52.48    1.44
   4   0   6   53.55    1.66
   4   0   6   53.76    1.48
   4   0   6   51.86    1.43
   4   0   6   52.79    1.54
   4   0   6   52.74    1.27
   4   0   6   52.05    1.61
  -5   0  -6   21.05    1.41
  -5   0  -6   21.73    1.27
  -5   0  -6   19.64    1.06
  -5   0  -6   20.32    1.29
  -5   0  -6   19.73    1.40
  -5   0  -6   19.28    1.46
  -5   0  -6   19.73    1.11
   5   0   6   19.14    1.08
   5   0   6   19.53    1.26
   5   0   6   19.99    1.13
   5   0   6   18.71    1.03
   5   0   6   20.77    1.03
   5   0   6   18.43    1.27
  -6   0  -6    9.61    0.91
  -6   0  -6    8.28    1.11
  -6   0  -6    7.43    0.98
  -6   0  -6    6.49    0.84
  -6   0  -6    9.09    1.09
  -6   0  -6    8.99    1.01
  -6   0  -6    9.51    1.05
   6   0   6    8.67    0.74
   6   0   6    8.55    0.75
   6   0   6    6.64    0.90
   6   0   6    8.06    0.93
   6   0   6    7.97    0.87
   6   0   6    8.84    0.84
  -7   0  -6   27.22    1.66
  -7   0  -6   22.44    1.53
  -7   0  -6   28.81    2.29
  -7   0  -6   25.63    2.21
  -7   0  -6   24.79    2.06
  -7   0  -6   22.60    2.17
  -7   0  -6   25.75    1.81
   7   0   6   25.22    1.44
   7   0   6   23.07    1.63
   7   0   6   23.13    1.52
   7   0   6   23.49    1.70
   7   0   6   22.28    1.95
  -8   0  -6   26.09    1.97
  -8   0  -6   21.81    1.61
  -8   0  -6   28.38    1.99
  -8   0  -6   20.58    1.84
  -8   0  -6   35.66    2.75
  -8   0  -6   26.57    2.21
  -8   0  -6   28.94    1.79
  -8   0  -6   28.53    2.01
   8   0   6   24.78    1.90
   8   0   6   25.00    1.77
   8   0   6   23.98    2.08
   8   0   6   25.89    1.93
   8   0   6   25.68    1.78
   7  -1  -6    5.25    1.26
   7  -1  -6    2.59    1.21
   7  -1  -6    3.85    1.62
   7  -1  -6    1.40    1.39
   7  -1  -6    6.63    2.33
   7  -1  -6    3.32    2.26
   7  -1  -6    5.96    2.04
  -7   1   6    3.90    2.44
  -7   1   6    5.39    1.49
  -7   1   6    4.45    1.58
  -7   1   6    3.37    1.03
  -7   1   6    3.55    1.56
  -7   1   6    4.37    1.55
  -7   1   6    6.72    1.36
  -7   1   6    5.88    1.50
   6  -1  -6    2.20    1.01
   6  -1  -6    1.95    1.55
   6  -1  -6    2.52    1.61
   6  -1  -6    1.51    1.72
   6  -1  -6    4.73    0.94
   6  -1  -6    3.44    1.20
   6  -1  -6    2.97    1.07
  -6   1   6    3.82    1.17
  -6   1   6    4.21    1.10
  -6   1   6    4.30    1.04
  -6   1   6    3.65    1.01
  -6   1   6    2.56    0.73
  -6   1   6    5.18    1.19
  -6   1   6    2.06    1.36
   5  -1  -6  110.14    3.01
   5  -1  -6  112.61    2.96
   5  -1  -6  113.51    3.49
   5  -1  -6  116.00    3.46
   5  -1  -6  115.06    3.51
   5  -1  -6  111.95    2.82
  -5   1   6  111.65    3.15
  -5   1   6  116.68    3.02
  -5   1   6  111.81    2.89
  -5   1   6  111.27    2.65
  -5   1   6  111.74    2.94
  -5   1   6  112.20    3.18
  -5   1   6  108.79    3.14
   4  -1  -6   83.94    2.18
   4  -1  -6   88.54    2.58
   4  -1  -6   83.50    2.20
   4  -1  -6   83.00    2.61
   4  -1  -6   83.87    2.66
   4  -1  -6   83.97    2.29
  -4   1   6   84.81    2.03
  -4   1   6   85.79    2.24
  -4   1   6   83.96    2.45
  -4   1   6   86.07    2.29
  -4   1   6   80.34    2.47
  -4   1   6   86.19    2.33
  -4   1   6   81.50    2.42
   3  -1  -6   38.22    1.57
   3  -1  -6   39.28    1.35
   3  -1  -6   40.23    1.56
   3  -1  -6   38.19    1.68
   3  -1  -6   37.14    1.51
   3  -1  -6   38.42    1.25
  -3   1   6   37.78    1.12
  -3   1   6   37.86    1.43
  -3   1   6   38.91    1.31
  -3   1   6   36.08    1.34
  -3   1   6   39.30    1.26
  -3   1   6   36.62    1.44
  -3   1   6   39.12    1.26
   2  -1  -6   -0.02    0.49
   2  -1  -6    0.01    0.37
   2  -1  -6    0.07    0.50
   2  -1  -6    0.04    0.39
   2  -1  -6    0.21    0.45
   2  -1  -6    0.41    0.81
   2  -1  -6   -0.13    0.45
  -2   1   6    0.11    0.45
  -2   1   6   -0.09    0.35
  -2   1   6   -0.45    0.42
  -2   1   6   -0.30    0.33
  -2   1   6    0.25    0.40
  -2   1   6    0.56    0.41
   1  -1  -6    0.04    0.32
   1  -1  -6    0.12    0.41
   1  -1  -6    0.17    0.36
   1  -1  -6    1.80    0.39
   1  -1  -6    0.70    0.40
   1  -1  -6    1.77    0.35
   1  -1  -6    0.40    0.40
  -1   1   6    0.30    0.23
  -1   1   6    0.74    0.33
  -1   1   6    0.19    0.37
  -1   1   6    0.52    0.36
  -1   1   6    0.22    0.30
  -1   1   6   -0.17    0.58
   0  -1  -6  103.45    2.33
   0  -1  -6  104.34    2.30
   0  -1  -6  100.59    2.33
   0  -1  -6  103.68    2.30
   0  -1  -6  104.58    2.40
   0  -1  -6  101.59    2.39
   0   1   6  103.64    2.29
   0   1   6  105.06    2.36
   0   1   6  103.06    2.35
   0   1   6  104.53    2.34
   0   1   6  106.55    2.29
  -1  -1  -6  265.35    5.68
  -1  -1  -6  276.89    5.62
  -1  -1  -6  276.92    5.67
  -1  -1  -6  275.74    5.67
  -1  -1  -6  271.20    5.60
  -1  -1  -6  280.01    5.64
  -1  -1  -6  271.60    5.62
   1   1   6  277.94    5.66
   1   1   6  268.35    5.65
   1   1   6  273.52    5.64
   1   1   6  275.18    5.62
  -2  -1  -6  162.59    3.47
  -2  -1  -6  166.15    3.50
  -2  -1  -6  161.41    3.52
  -2  -1  -6  164.68    3.47
  -2  -1  -6  162.69    3.49
  -2  -1  -6  162.06    3.56
  -2  -1  -6  159.19    3.31
  -2  -1  -6  163.23    3.44
   2   1   6  167.90    3.46
   2   1   6  161.94    3.50
   2   1   6  168.23    3.50
   2   1   6  163.98    3.55
   2   1   6  164.14    3.44
   2   1   6  166.00    3.32
   2   1   6  166.12    3.49
  -3  -1  -6   95.03    2.07
  -3  -1  -6   95.63    2.23
  -3  -1  -6   95.99    2.12
  -3  -1  -6   95.12    2.11
  -3  -1  -6   94.81    2.19
  -3  -1  -6   96.83    2.24
  -3  -1  -6   95.03    2.19
  -3  -1  -6   94.15    2.32
   3   1   6   96.82    2.10
   3   1   6   95.99    2.15
   3   1   6   96.52    2.16
   3   1   6   96.62    2.08
   3   1   6   92.97    2.22
   3   1   6   95.14    2.14
   3   1   6   98.07    2.32
  -4  -1  -6    0.01    0.35
  -4  -1  -6   -0.05    0.39
  -4  -1  -6    0.34    0.36
  -4  -1  -6   -0.07    0.41
  -4  -1  -6   -0.12    0.50
  -4  -1  -6    0.31    0.47
  -4  -1  -6   -0.29    0.26
  -4  -1  -6   -0.50    0.40
   4   1   6    0.14    0.30
   4   1   6    0.02    0.40
   4   1   6    0.06    0.33
   4   1   6   -0.44    0.37
   4   1   6    0.50    0.36
   4   1   6    0.44    0.32
   4   1   6    0.30    0.47
  -5  -1  -6    1.68    0.64
  -5  -1  -6    2.32    0.29
  -5  -1  -6    2.53    0.56
  -5  -1  -6    1.96    0.49
  -5  -1  -6    0.75    0.64
  -5  -1  -6    2.51    0.54
  -5  -1  -6    1.93    0.61
  -5  -1  -6    2.80    0.66
   5   1   6    2.24    0.40
   5   1   6    3.07    0.40
   5   1   6    2.42    0.52
   5   1   6    2.72    0.57
   5   1   6    1.53    0.55
   5   1   6    2.31    0.49
  -6  -1  -6    0.54    0.88
  -6  -1  -6    0.50    0.66
  -6  -1  -6    0.99    0.73
  -6  -1  -6    1.22    0.78
  -6  -1  -6    0.05    0.80
  -6  -1  -6    1.54    0.59
  -6  -1  -6    0.53    0.81
   6   1   6    1.00    0.56
   6   1   6    1.11    0.59
   6   1   6    1.33    0.46
   6   1   6    0.64    0.48
   6   1   6    0.81    0.75
  -7  -1  -6    7.64    1.19
  -7  -1  -6    7.59    1.24
  -7  -1  -6    8.32    1.17
  -7  -1  -6    5.69    0.83
  -7  -1  -6    5.19    1.14
  -7  -1  -6    8.94    1.13
  -7  -1  -6    8.52    1.06
   7   1   6    7.74    0.66
   7   1   6    8.69    1.11
   7   1   6    7.97    0.74
   7   1   6    7.07    0.68
   7   1   6    8.51    0.93
  -8  -1  -6   -0.42    1.70
  -8  -1  -6    2.13    1.47
  -8  -1  -6    0.03    1.50
  -8  -1  -6   -1.46    1.35
  -8  -1  -6   -0.83    1.33
  -8  -1  -6   -0.60    1.22
  -8  -1  -6    2.01    1.38
  -8  -1  -6   -1.20    0.95
   8   1   6    0.14    0.73
   8   1   6   -0.03    0.65
   8   1   6    1.37    1.08
   8   1   6    1.07    1.25
   8   1   6    0.66    0.76
  -9  -1  -6   -0.25    1.97
  -9  -1  -6    3.75    1.80
   9   1   6    0.82    1.73
   9   1   6    2.80    1.54
   9   1   6    1.15    0.91
   9   1   6    1.90    0.79
   7  -2  -6    0.36    1.20
   7  -2  -6   -4.86    2.20
   7  -2  -6    0.09    1.66
   7  -2  -6    1.85    1.58
   7  -2  -6    5.94    2.56
   7  -2  -6    0.15    2.28
  -7   2   6    0.13    1.27
  -7   2   6   -0.59    1.40
  -7   2   6    1.02    1.65
  -7   2   6    2.38    1.49
  -7   2   6   -0.20    1.68
  -7   2   6   -4.92    2.54
  -7   2   6    1.30    2.05
  -7   2   6    0.38    1.53
   6  -2  -6    5.83    1.92
   6  -2  -6    7.99    1.85
   6  -2  -6    6.13    1.87
   6  -2  -6    5.19    1.29
   6  -2  -6    4.15    1.23
   6  -2  -6    5.91    0.97
   6  -2  -6    6.05    1.31
  -6   2   6    6.23    1.44
  -6   2   6    5.25    1.30
  -6   2   6    5.98    1.13
  -6   2   6    5.50    1.57
  -6   2   6    5.77    1.10
  -6   2   6    6.78    1.16
  -6   2   6    7.24    2.03
   5  -2  -6   70.40    3.04
   5  -2  -6   70.55    2.35
   5  -2  -6   57.17    2.46
   5  -2  -6   68.70    3.05
   5  -2  -6   66.04    2.77
   5  -2  -6   69.44    2.35
   5  -2  -6   68.13    2.24
  -5   2   6   67.00    2.62
  -5   2   6   67.85    2.51
  -5   2   6   69.32    2.19
  -5   2   6   67.61    3.11
  -5   2   6   68.10    2.06
  -5   2   6   64.96    2.68
  -5   2   6   69.37    2.37
  -5   2   6   71.54    2.28
   4  -2  -6  141.86    3.33
   4  -2  -6  146.44    3.66
   4  -2  -6  141.92    3.37
   4  -2  -6  143.42    3.84
   4  -2  -6  144.97    3.45
   4  -2  -6  141.56    3.49
   4  -2  -6  146.27    3.92
  -4   2   6  148.64    3.66
  -4   2   6  142.71    3.62
  -4   2   6  142.63    3.38
  -4   2   6  147.48    3.52
  -4   2   6  144.80    3.30
  -4   2   6  143.20    3.36
  -4   2   6  145.01    3.42
   3  -2  -6  307.40    6.37
   3  -2  -6  303.58    6.58
   3  -2  -6  303.05    6.46
   3  -2  -6  297.43    6.28
   3  -2  -6  305.41    6.34
   3  -2  -6  299.81    6.40
   3  -2  -6  301.32    6.67
  -3   2   6  302.41    6.29
  -3   2   6  296.54    6.28
  -3   2   6  304.49    6.40
  -3   2   6  303.62    6.39
  -3   2   6  298.57    6.50
  -3   2   6  298.16    6.46
  -3   2   6  301.06    6.50
   2  -2  -6    7.41    0.63
   2  -2  -6    8.12    0.61
   2  -2  -6    9.07    0.67
   2  -2  -6    7.52    0.61
   2  -2  -6    8.01    0.81
   2  -2  -6    8.12    0.88
   2  -2  -6    8.62    0.65
  -2   2   6    7.04    0.51
  -2   2   6    7.66    0.64
  -2   2   6    7.62    0.69
  -2   2   6    7.75    0.62
  -2   2   6    7.48    0.66
  -2   2   6    7.85    0.55
  -2   2   6    7.65    0.67
   1  -2  -6  274.52    5.73
   1  -2  -6  272.84    5.90
   1  -2  -6  270.76    5.61
   1  -2  -6  283.60    5.78
   1  -2  -6  283.72    5.84
   1  -2  -6  277.03    5.78
   1  -2  -6  276.75    5.77
  -1   2   6  278.08    5.69
  -1   2   6  276.70    5.82
  -1   2   6  276.30    5.83
  -1   2   6  274.36    5.61
  -1   2   6  279.19    5.74
  -1   2   6  274.25    5.81
   0  -2  -6    4.87    0.51
   0  -2  -6    4.55    0.42
   0  -2  -6    4.18    0.44
   0  -2  -6    3.96    0.42
   0  -2  -6    4.95    0.39
   0  -2  -6    4.03    0.44
   0   2   6    3.73    0.34
   0   2   6    3.54    0.42
   0   2   6    4.75    0.45
   0   2   6    4.67    0.44
   0   2   6    4.58    0.38
  -1  -2  -6   10.96    0.66
  -1  -2  -6   11.67    0.62
  -1  -2  -6   12.63    0.68
  -1  -2  -6   12.29    0.59
  -1  -2  -6   11.92    0.70
  -1  -2  -6   13.56    0.62
  -1  -2  -6   13.14    0.70
   1   2   6   12.78    0.63
   1   2   6   11.98    0.54
   1   2   6   12.70    0.73
   1   2   6   12.33    0.61
   1   2   6   11.89    0.58
  -2  -2  -6   43.28    1.11
  -2  -2  -6   44.51    1.26
  -2  -2  -6   43.41    1.16
  -2  -2  -6   42.77    1.20
  -2  -2  -6   41.59    1.15
  -2  -2  -6   43.46    1.09
  -2  -2  -6   44.02    1.16
   2   2   6   42.87    1.25
   2   2   6   43.15    1.09
   2   2   6   44.37    1.07
   2   2   6   43.32    1.11
   2   2   6   43.70    1.23
  -3  -2  -6  256.29    5.32
  -3  -2  -6  253.08    5.16
  -3  -2  -6  254.09    5.25
  -3  -2  -6  251.61    5.25
  -3  -2  -6  252.28    5.21
  -3  -2  -6  252.11    5.38
  -3  -2  -6  251.44    5.17
  -3  -2  -6  253.05    5.22
   3   2   6  257.28    5.40
   3   2   6  251.98    5.20
   3   2   6  260.85    5.32
   3   2   6  252.43    5.14
   3   2   6  257.33    5.17
  -4  -2  -6   49.33    1.30
  -4  -2  -6   50.71    1.34
  -4  -2  -6   51.08    1.38
  -4  -2  -6   50.67    1.59
  -4  -2  -6   49.95    1.35
  -4  -2  -6   51.52    1.25
  -4  -2  -6   51.05    1.52
  -4  -2  -6   49.85    1.31
   4   2   6   52.29    1.21
   4   2   6   49.72    1.14
   4   2   6   49.96    1.23
  -5  -2  -6    0.10    0.52
  -5  -2  -6   -0.12    0.44
  -5  -2  -6    0.19    0.37
  -5  -2  -6   -0.11    0.54
  -5  -2  -6   -0.38    0.39
  -5  -2  -6   -0.04    0.59
  -5  -2  -6    0.53    0.51
  -5  -2  -6    0.49    0.49
   5   2   6    0.03    0.27
  -6  -2  -6   18.70    1.37
  -6  -2  -6   16.76    0.99
  -6  -2  -6   16.27    1.28
  -6  -2  -6   16.06    1.15
  -6  -2  -6   16.75    0.69
  -6  -2  -6   14.31    1.22
  -6  -2  -6   14.56    1.09
  -6  -2  -6   15.06    0.81
  -6  -2  -6   13.19    1.04
  -7  -2  -6   18.98    1.72
  -7  -2  -6   21.75    1.56
  -7  -2  -6   19.54    1.68
  -7  -2  -6   21.97    1.33
  -7  -2  -6   22.96    1.67
  -7  -2  -6   20.12    1.39
  -7  -2  -6   21.85    1.47
  -8  -2  -6  204.20    4.71
  -8  -2  -6  202.61    4.98
  -8  -2  -6  212.84    4.99
  -8  -2  -6  198.92    5.66
  -8  -2  -6  215.67    5.08
  -8  -2  -6  211.07    5.08
  -8  -2  -6  207.10    5.26
  -9  -2  -6    4.22    1.75
  -9  -2  -6    4.92    1.93
  -9  -2  -6   -0.70    1.43
  -9  -2  -6    2.50    1.66
   6  -3  -6   51.27    2.86
   6  -3  -6   53.15    3.81
   6  -3  -6   47.92    2.74
   6  -3  -6   53.49    3.01
   6  -3  -6   53.95    3.91
   6  -3  -6   51.12    3.47
   6  -3  -6   53.36    2.15
  -6   3   6   53.57    3.34
  -6   3   6   48.84    2.35
  -6   3   6   49.96    2.55
  -6   3   6   56.60    2.83
  -6   3   6   51.52    3.02
  -6   3   6   51.92    2.38
  -6   3   6   51.53    2.66
  -6   3   6   60.36    5.55
   5  -3  -6    8.72    1.17
   5  -3  -6    7.85    1.67
   5  -3  -6   11.71    1.50
   5  -3  -6    7.79    1.79
   5  -3  -6    9.07    1.25
   5  -3  -6    9.71    0.96
   5  -3  -6    8.51    1.29
  -5   3   6    9.82    1.14
  -5   3   6    9.35    0.97
  -5   3   6    6.27    0.96
  -5   3   6    9.29    1.66
  -5   3   6    8.61    1.11
  -5   3   6    8.21    1.47
  -5   3   6    7.84    1.02
  -5   3   6    8.51    1.50
   4  -3  -6   93.08    2.65
   4  -3  -6   90.54    3.17
   4  -3  -6   95.06    3.12
   4  -3  -6   91.42    2.48
   4  -3  -6   89.02    3.13
   4  -3  -6   85.67    2.49
   4  -3  -6   95.31    2.82
  -4   3   6   90.10    2.35
  -4   3   6   93.43    2.93
  -4   3   6   87.22    2.78
  -4   3   6   91.77    2.47
  -4   3   6   91.89    2.58
  -4   3   6   90.66    2.46
  -4   3   6   94.39    3.21
  -4   3   6   95.64    2.65
   3  -3  -6    4.72    0.80
   3  -3  -6    4.42    0.99
   3  -3  -6    4.20    0.99
   3  -3  -6    5.83    0.71
   3  -3  -6    5.68    0.68
   3  -3  -6    4.91    0.80
   3  -3  -6    4.65    0.79
  -3   3   6    5.47    0.66
  -3   3   6    4.71    0.71
  -3   3   6    4.74    1.01
  -3   3   6    5.92    0.58
  -3   3   6    4.68    0.62
  -3   3   6    4.73    0.79
  -3   3   6    5.20    0.82
  -3   3   6    3.87    0.67
   2  -3  -6   19.20    1.34
   2  -3  -6   18.41    1.02
   2  -3  -6   18.80    1.15
   2  -3  -6   18.76    1.06
   2  -3  -6   20.85    1.43
   2  -3  -6   18.43    1.10
   2  -3  -6   19.95    0.92
  -2   3   6   18.38    0.98
  -2   3   6   19.54    1.47
  -2   3   6   18.28    0.85
  -2   3   6   19.68    0.86
  -2   3   6   18.14    1.12
  -2   3   6   19.51    1.20
  -2   3   6   18.65    1.23
  -2   3   6   19.04    1.08
   1  -3  -6    0.91    0.39
   1  -3  -6   -0.34    0.53
   1  -3  -6    0.67    0.46
   1  -3  -6    0.34    0.32
   1  -3  -6    0.64    0.45
   1  -3  -6    1.07    0.60
   1  -3  -6   -0.07    0.47
  -1   3   6    0.35    0.42
  -1   3   6    0.92    0.42
  -1   3   6    0.23    0.46
  -1   3   6    0.77    0.30
  -1   3   6    0.56    0.49
  -1   3   6   -0.18    0.35
  -1   3   6    0.66    0.31
   0  -3  -6   28.18    1.09
   0  -3  -6   27.84    1.07
   0  -3  -6   27.09    1.12
   0  -3  -6   25.80    0.73
   0  -3  -6   25.62    0.85
   0  -3  -6   27.80    0.98
   0  -3  -6   26.98    1.02
   0   3   6   26.10    1.01
   0   3   6   25.90    1.09
   0   3   6   24.72    0.99
   0   3   6   26.12    0.70
   0   3   6   26.60    0.93
   0   3   6   26.83    0.85
  -1  -3  -6   66.03    1.68
  -1  -3  -6   66.12    1.56
  -1  -3  -6   66.90    1.72
  -1  -3  -6   66.67    1.41
  -1  -3  -6   64.89    1.62
  -1  -3  -6   63.63    1.59
  -1  -3  -6   65.39    1.71
   1   3   6   67.46    1.51
   1   3   6   66.78    1.60
   1   3   6   66.78    1.77
   1   3   6   66.69    1.57
   1   3   6   65.82    1.61
  -2  -3  -6  112.74    2.56
  -2  -3  -6  109.12    2.44
  -2  -3  -6  112.15    2.45
  -2  -3  -6  108.09    2.39
  -2  -3  -6  109.71    2.45
  -2  -3  -6  110.33    2.28
  -2  -3  -6  110.60    2.39
  -2  -3  -6  110.18    2.30
  -2  -3  -6  111.31    2.57
   2   3   6  112.28    2.53
   2   3   6  109.44    2.61
   2   3   6  109.08    2.36
   2   3   6  112.88    2.38
   2   3   6  112.05    2.33
  -3  -3  -6   66.68    1.80
  -3  -3  -6   68.39    1.50
  -3  -3  -6   66.87    1.55
  -3  -3  -6   65.84    1.50
  -3  -3  -6   66.55    1.54
  -3  -3  -6   67.21    1.52
  -3  -3  -6   67.34    1.68
  -3  -3  -6   67.87    1.73
  -3  -3  -6   67.23    1.57
  -4  -3  -6   84.92    1.88
  -4  -3  -6   87.48    2.04
  -4  -3  -6   88.69    2.26
  -4  -3  -6   87.61    2.17
  -4  -3  -6   89.30    1.97
  -4  -3  -6   87.12    2.11
  -4  -3  -6   85.67    1.93
  -4  -3  -6   86.30    1.93
  -5  -3  -6    2.14    0.35
  -5  -3  -6    0.96    0.66
  -5  -3  -6    2.88    0.51
  -5  -3  -6    1.87    0.45
  -5  -3  -6    0.74    0.60
  -5  -3  -6    2.05    0.47
  -5  -3  -6    2.63    0.57
  -5  -3  -6    2.12    0.40
  -6  -3  -6  142.15    3.20
  -6  -3  -6  151.19    3.62
  -6  -3  -6  144.53    3.41
  -6  -3  -6  145.79    3.19
  -6  -3  -6  143.25    3.11
  -6  -3  -6  143.60    3.25
  -6  -3  -6  142.33    3.26
  -6  -3  -6  148.02    3.31
  -6  -3  -6  141.79    3.58
  -7  -3  -6    1.82    0.53
  -7  -3  -6    0.95    0.99
  -7  -3  -6    2.55    1.41
  -7  -3  -6    2.34    0.58
  -7  -3  -6    0.92    1.15
  -7  -3  -6    2.92    0.76
  -7  -3  -6    3.09    0.93
  -7  -3  -6    1.41    0.86
  -7  -3  -6    2.40    0.63
  -7  -3  -6    2.54    0.88
  -8  -3  -6  206.71    4.74
  -8  -3  -6  201.24    5.18
  -8  -3  -6  194.89    4.73
  -8  -3  -6  207.67    5.78
  -8  -3  -6  213.29    4.83
  -8  -3  -6  211.85    5.00
  -8  -3  -6  198.80    4.52
  -9  -3  -6    3.89    2.37
  -9  -3  -6    5.11    1.31
  -9  -3  -6    4.70    1.45
  -9  -3  -6    3.65    1.90
  -9  -3  -6    4.41    1.76
   6  -4  -6   -0.75    1.75
   6  -4  -6   -3.53    1.64
   6  -4  -6   -0.67    2.34
   6  -4  -6    0.86    2.41
   6  -4  -6    1.00    1.92
   6  -4  -6    1.88    1.25
  -6   4   6   -0.73    2.57
  -6   4   6    0.14    1.57
  -6   4   6    1.44    2.07
  -6   4   6   -0.37    1.16
  -6   4   6    2.32    1.60
  -6   4   6    0.83    1.45
  -6   4   6   -0.98    1.73
  -6   4   6   -0.98    1.80
   5  -4  -6   -0.41    1.16
   5  -4  -6    2.50    1.50
   5  -4  -6    1.83    1.21
   5  -4  -6    0.23    1.81
   5  -4  -6    3.51    1.80
   5  -4  -6    0.90    1.00
   5  -4  -6    0.56    1.46
  -5   4   6    2.52    1.93
  -5   4   6    0.64    1.12
  -5   4   6    1.28    1.10
  -5   4   6    2.03    0.88
  -5   4   6    0.02    1.34
  -5   4   6   -0.82    1.32
  -5   4   6    0.80    1.30
  -5   4   6    1.13    1.27
   4  -4  -6    0.60    0.82
   4  -4  -6   -0.17    1.11
   4  -4  -6    0.63    1.42
   4  -4  -6    0.23    1.42
   4  -4  -6    0.74    0.94
   4  -4  -6   -0.58    0.86
   4  -4  -6    0.91    1.06
  -4   4   6    1.22    0.86
  -4   4   6   -0.92    1.07
  -4   4   6    0.48    0.62
  -4   4   6    0.55    0.94
  -4   4   6   -0.21    0.81
  -4   4   6    2.00    1.01
  -4   4   6   -0.64    1.52
   3  -4  -6    2.53    0.81
   3  -4  -6    2.28    1.08
   3  -4  -6    0.80    1.46
   3  -4  -6    2.11    0.74
   3  -4  -6    1.00    1.11
   3  -4  -6    1.35    0.78
  -3   4   6    0.91    0.52
  -3   4   6    0.17    0.74
  -3   4   6    1.69    0.83
  -3   4   6    1.84    0.87
  -3   4   6    1.74    0.85
  -3   4   6    1.94    0.64
  -3   4   6    0.50    0.71
  -3   4   6    1.55    1.16
   2  -4  -6   78.56    2.05
   2  -4  -6   78.50    2.14
   2  -4  -6   78.32    2.50
   2  -4  -6   80.30    2.25
   2  -4  -6   79.12    2.58
   2  -4  -6   79.28    2.30
   2  -4  -6   75.73    2.07
  -2   4   6   78.66    2.15
  -2   4   6   79.85    1.96
  -2   4   6   76.36    2.27
  -2   4   6   75.42    2.29
  -2   4   6   77.74    1.86
  -2   4   6   79.69    2.58
  -2   4   6   76.40    2.16
  -2   4   6   77.34    2.28
   1  -4  -6   58.09    1.93
   1  -4  -6   58.18    1.77
   1  -4  -6   59.16    1.86
   1  -4  -6   58.70    1.57
   1  -4  -6   57.89    1.59
   1  -4  -6   59.46    1.77
   1  -4  -6   58.89    2.00
  -1   4   6   60.70    1.87
  -1   4   6   59.13    1.72
  -1   4   6   59.70    1.68
  -1   4   6   61.17    2.04
  -1   4   6   58.94    1.45
  -1   4   6   60.87    1.49
  -1   4   6   60.73    1.81
  -1   4   6   57.61    1.76
   0  -4  -6    9.29    0.69
   0  -4  -6   11.67    1.02
   0  -4  -6   10.69    0.77
   0  -4  -6    9.62    0.66
   0  -4  -6   11.01    0.66
   0  -4  -6   11.81    1.10
   0  -4  -6   12.44    0.66
   0   4   6   11.21    0.63
   0   4   6   12.00    0.78
   0   4   6   12.60    0.90
   0   4   6   11.03    1.01
   0   4   6   11.26    0.57
   0   4   6   11.17    0.79
   0   4   6   11.83    0.85
  -1  -4  -6    1.73    0.53
  -1  -4  -6    1.56    0.32
  -1  -4  -6    1.40    0.52
  -1  -4  -6    0.68    0.44
  -1  -4  -6    2.01    0.53
  -1  -4  -6    1.52    0.29
  -1  -4  -6    0.75    0.41
   1   4   6    1.21    0.34
   1   4   6    1.34    0.27
   1   4   6    0.48    0.52
   1   4   6    1.33    0.33
   1   4   6    1.26    0.42
   1   4   6    1.74    0.48
   1   4   6    1.17    0.37
  -2  -4  -6   54.99    1.33
  -2  -4  -6   54.60    1.25
  -2  -4  -6   52.47    1.33
  -2  -4  -6   53.03    1.44
  -2  -4  -6   49.22    1.55
  -2  -4  -6   54.40    1.40
  -2  -4  -6   52.92    1.61
   2   4   6   52.47    1.31
   2   4   6   52.52    1.22
   2   4   6   52.49    1.19
   2   4   6   52.04    1.46
   2   4   6   52.89    1.26
  -3  -4  -6   19.52    0.74
  -3  -4  -6   21.01    0.73
  -3  -4  -6   18.97    0.77
  -3  -4  -6   19.60    1.03
  -3  -4  -6   19.43    1.10
  -3  -4  -6   19.57    0.78
  -3  -4  -6   20.90    0.69
  -3  -4  -6   19.40    0.76
  -3  -4  -6   20.59    0.86
  -4  -4  -6  100.05    2.51
  -4  -4  -6   99.70    2.23
  -4  -4  -6   99.89    2.47
  -4  -4  -6   97.95    2.10
  -4  -4  -6   97.57    2.13
  -4  -4  -6   98.66    2.09
  -4  -4  -6   97.60    2.28
  -4  -4  -6   98.87    2.13
  -4  -4  -6   97.20    2.38
  -5  -4  -6   17.29    1.21
  -5  -4  -6   15.99    0.73
  -5  -4  -6   15.73    0.62
  -5  -4  -6   17.30    1.15
  -5  -4  -6   14.55    1.27
  -5  -4  -6   16.04    1.03
  -5  -4  -6   16.38    0.72
  -6  -4  -6    8.05    0.64
  -6  -4  -6    7.00    0.99
  -6  -4  -6    8.54    0.86
  -6  -4  -6    9.40    0.57
  -6  -4  -6    6.40    0.95
  -6  -4  -6    8.63    0.85
  -6  -4  -6    9.13    0.61
  -6  -4  -6    6.96    0.84
  -6  -4  -6    9.67    0.65
  -7  -4  -6    2.78    0.72
  -7  -4  -6    2.10    0.99
  -7  -4  -6    2.38    1.40
  -7  -4  -6    4.47    1.23
  -7  -4  -6    3.03    0.49
  -7  -4  -6    3.37    0.81
  -7  -4  -6    4.33    1.05
  -7  -4  -6    1.91    0.68
  -7  -4  -6    2.37    0.82
  -7  -4  -6    2.39    0.58
  -8  -4  -6   -0.18    0.78
  -8  -4  -6    0.47    0.85
  -8  -4  -6    3.07    1.65
  -8  -4  -6    0.44    1.37
  -8  -4  -6    0.76    1.36
  -8  -4  -6    0.19    0.95
  -8  -4  -6   -0.88    1.84
  -8  -4  -6   -0.03    0.89
  -8  -4  -6    0.26    1.16
  -9  -4  -6    5.90    1.85
  -9  -4  -6    3.56    1.20
  -9  -4  -6    4.65    1.11
  -9  -4  -6   -0.95    1.88
   5  -5  -6    1.61    1.58
   5  -5  -6    2.45    1.65
   5  -5  -6    2.43    2.26
   5  -5  -6    0.17    2.13
   5  -5  -6    1.76    1.24
   5  -5  -6    1.01    1.85
  -5   5   6    1.82    1.35
  -5   5   6    1.31    1.42
  -5   5   6   -1.86    1.94
  -5   5   6    1.97    0.95
  -5   5   6    1.78    1.70
  -5   5   6    1.93    2.07
  -5   5   6    1.01    1.57
   4  -5  -6    2.54    1.79
   4  -5  -6    1.27    1.20
   4  -5  -6    3.12    1.04
   4  -5  -6    2.82    1.42
   4  -5  -6    1.89    1.21
   4  -5  -6    3.08    2.70
  -4   5   6    3.62    0.73
  -4   5   6    1.49    1.28
  -4   5   6    0.71    1.25
  -4   5   6    1.47    0.98
  -4   5   6   -0.76    1.78
  -4   5   6    3.24    1.47
  -4   5   6    2.14    1.10
   3  -5  -6    0.91    0.91
   3  -5  -6    1.39    1.44
   3  -5  -6    1.40    1.59
   3  -5  -6    1.77    0.87
   3  -5  -6    1.28    1.16
   3  -5  -6    0.09    1.34
   3  -5  -6    1.04    0.90
  -3   5   6    1.47    0.75
  -3   5   6    0.74    0.97
  -3   5   6    1.08    0.87
  -3   5   6    0.70    1.15
  -3   5   6    1.16    0.54
  -3   5   6    0.82    0.90
  -3   5   6   -0.17    1.55
   2  -5  -6  176.19    4.11
   2  -5  -6  176.50    4.01
   2  -5  -6  178.88    4.59
   2  -5  -6  174.18    3.93
   2  -5  -6  173.72    4.27
   2  -5  -6  175.23    4.44
   2  -5  -6  173.45    4.17
  -2   5   6  173.74    3.73
  -2   5   6  183.15    4.26
  -2   5   6  176.46    4.50
  -2   5   6  171.86    4.13
  -2   5   6  175.44    4.07
  -2   5   6  180.53    3.91
  -2   5   6  177.00    4.21
   1  -5  -6   89.65    2.14
   1  -5  -6   89.20    2.22
   1  -5  -6   86.61    2.43
   1  -5  -6   89.18    2.50
   1  -5  -6   85.30    2.60
   1  -5  -6   88.23    2.66
   1  -5  -6   87.35    2.73
  -1   5   6   88.80    3.04
  -1   5   6   83.28    2.55
  -1   5   6   90.61    2.01
  -1   5   6   86.64    2.40
  -1   5   6   91.64    2.14
   0  -5  -6   12.19    1.01
   0  -5  -6   14.46    0.99
   0  -5  -6   12.76    0.74
   0  -5  -6   14.23    0.89
   0  -5  -6   13.37    1.07
   0  -5  -6   11.06    0.84
   0   5   6   13.70    1.08
   0   5   6   13.66    0.77
   0   5   6   13.33    0.72
   0   5   6   12.57    0.92
   0   5   6   14.14    0.98
   0   5   6   13.01    0.89
   0   5   6   13.21    0.95
  -1  -5  -6    4.09    0.45
  -1  -5  -6    4.44    0.70
  -1  -5  -6    4.45    0.73
  -1  -5  -6    4.44    0.71
  -1  -5  -6    3.34    0.66
  -1  -5  -6    3.61    0.57
  -1  -5  -6    5.19    0.41
   1   5   6    3.79    0.60
   1   5   6    4.49    0.43
   1   5   6    4.73    0.45
   1   5   6    4.71    0.53
   1   5   6    4.63    0.47
   1   5   6    4.35    0.45
  -2  -5  -6    2.84    0.70
  -2  -5  -6    2.44    0.45
  -2  -5  -6    2.26    0.56
  -2  -5  -6    2.31    0.37
  -2  -5  -6    2.39    0.40
  -2  -5  -6    2.41    0.58
  -2  -5  -6    2.73    0.67
   2   5   6    3.04    0.26
   2   5   6    3.27    0.29
   2   5   6    2.74    0.34
   2   5   6    2.86    0.36
  -3  -5  -6   80.99    2.25
  -3  -5  -6   79.44    1.84
  -3  -5  -6   82.95    2.00
  -3  -5  -6   79.34    2.30
  -3  -5  -6   82.88    1.95
  -3  -5  -6   80.83    1.93
  -3  -5  -6   81.66    1.96
  -4  -5  -6   53.51    1.91
  -4  -5  -6   52.01    1.48
  -4  -5  -6   52.91    1.34
  -4  -5  -6   53.63    1.53
  -4  -5  -6   55.13    1.39
  -4  -5  -6   53.42    1.27
  -4  -5  -6   53.99    1.58
  -4  -5  -6   52.43    1.24
  -4  -5  -6   52.63    1.78
  -5  -5  -6    8.98    0.97
  -5  -5  -6    7.57    0.92
  -5  -5  -6    7.12    0.77
  -5  -5  -6    8.86    0.79
  -5  -5  -6    7.36    0.87
  -5  -5  -6    8.99    0.69
  -6  -5  -6   -1.80    1.05
  -6  -5  -6   -0.56    0.83
  -6  -5  -6    1.47    0.95
  -6  -5  -6   -0.19    0.83
  -6  -5  -6   -0.46    0.86
  -6  -5  -6    0.33    0.89
  -6  -5  -6    0.74    0.84
  -6  -5  -6    0.71    0.70
  -7  -5  -6    1.15    1.05
  -7  -5  -6    1.13    1.21
  -7  -5  -6    2.14    1.52
  -7  -5  -6    1.29    1.08
  -7  -5  -6    0.50    1.14
  -7  -5  -6    0.57    1.01
  -8  -5  -6    2.67    1.98
  -8  -5  -6   -1.71    1.64
  -8  -5  -6   -1.08    1.15
  -8  -5  -6    0.72    1.45
  -8  -5  -6    0.07    1.06
  -8  -5  -6   -3.15    1.52
   4  -6  -6   14.73    1.69
   4  -6  -6   16.88    2.05
   4  -6  -6   17.55    1.51
   4  -6  -6   17.79    2.48
   4  -6  -6    9.76    1.50
   4  -6  -6   19.98    2.52
  -4   6   6   17.84    2.34
  -4   6   6   16.69    1.46
  -4   6   6   17.59    1.81
  -4   6   6   16.72    1.71
  -4   6   6   17.47    0.96
  -4   6   6   17.26    2.08
  -4   6   6   14.43    1.80
   3  -6  -6    6.88    1.57
   3  -6  -6    6.90    2.40
   3  -6  -6    6.41    1.20
   3  -6  -6    5.67    1.02
   3  -6  -6    4.61    1.25
   3  -6  -6    5.28    1.28
   3  -6  -6    8.32    1.87
  -3   6   6    6.46    1.02
  -3   6   6    5.03    1.25
  -3   6   6    5.61    1.21
  -3   6   6    5.61    1.57
  -3   6   6    6.29    1.31
  -3   6   6    6.57    0.65
  -3   6   6    3.90    1.58
   2  -6  -6   43.63    2.60
   2  -6  -6   42.55    2.33
   2  -6  -6   43.83    2.46
   2  -6  -6   39.86    2.17
   2  -6  -6   43.44    2.79
   2  -6  -6   40.73    1.60
  -2   6   6   41.92    1.70
  -2   6   6   42.14    2.27
  -2   6   6   43.17    1.91
  -2   6   6   46.98    2.57
  -2   6   6   42.55    2.07
  -2   6   6   40.68    2.09
  -2   6   6   42.20    1.24
   1  -6  -6    0.88    0.76
   1  -6  -6   -0.37    1.14
   1  -6  -6    0.22    1.00
   1  -6  -6    0.69    1.12
   1  -6  -6   -0.37    0.56
   1  -6  -6   -0.55    0.86
   1  -6  -6    0.48    0.87
  -1   6   6    0.29    0.41
  -1   6   6    1.33    0.84
  -1   6   6   -0.96    0.60
  -1   6   6    1.24    0.75
  -1   6   6   -0.43    0.92
  -1   6   6    0.43    0.90
  -1   6   6    0.41    0.76
   0  -6  -6   32.74    1.08
   0  -6  -6   35.23    1.95
   0  -6  -6   36.54    1.78
   0  -6  -6   34.08    1.39
   0  -6  -6   33.56    1.87
   0  -6  -6   36.34    1.60
   0  -6  -6   34.64    1.82
   0   6   6   32.65    1.54
   0   6   6   32.56    1.40
   0   6   6   33.53    1.37
   0   6   6   32.01    1.60
   0   6   6   35.36    1.62
   0   6   6   33.77    1.25
   0   6   6   33.24    1.07
  -1  -6  -6   61.67    1.76
  -1  -6  -6   61.55    2.09
  -1  -6  -6   64.44    2.22
  -1  -6  -6   65.86    1.57
  -1  -6  -6   66.52    2.19
  -1  -6  -6   64.43    1.93
  -1  -6  -6   63.60    2.20
   1   6   6   64.43    1.77
   1   6   6   63.78    1.69
   1   6   6   67.75    1.66
   1   6   6   66.11    1.85
   1   6   6   68.19    1.72
  -2  -6  -6   61.97    1.96
  -2  -6  -6   60.98    1.56
  -2  -6  -6   62.84    1.68
  -2  -6  -6   58.76    1.72
  -2  -6  -6   60.66    2.08
  -2  -6  -6   60.31    2.16
  -2  -6  -6   63.24    1.92
   2   6   6   62.55    1.34
   2   6   6   55.42    1.39
  -3  -6  -6    9.58    0.59
  -3  -6  -6    9.89    0.69
  -3  -6  -6   10.32    0.79
  -3  -6  -6   10.40    0.86
  -3  -6  -6   10.09    0.80
  -3  -6  -6   10.61    1.11
  -3  -6  -6    9.87    1.00
  -4  -6  -6   32.65    1.85
  -4  -6  -6   31.11    0.95
  -4  -6  -6   31.74    1.67
  -4  -6  -6   32.07    1.31
  -4  -6  -6   30.64    1.17
  -4  -6  -6   32.61    1.27
  -4  -6  -6   34.84    1.22
  -5  -6  -6   13.21    0.94
  -5  -6  -6   12.89    1.10
  -5  -6  -6   13.00    1.23
  -5  -6  -6   11.86    0.92
  -5  -6  -6   14.03    1.12
  -5  -6  -6   14.22    0.99
  -5  -6  -6   14.74    1.29
  -5  -6  -6   13.96    1.24
  -6  -6  -6    1.16    0.97
  -6  -6  -6   -1.39    1.15
  -6  -6  -6    0.20    0.85
  -6  -6  -6   -0.73    1.03
  -6  -6  -6   -0.97    0.92
  -6  -6  -6    0.45    1.36
  -6  -6  -6    1.69    1.15
  -6  -6  -6    0.00    0.96
  -7  -6  -6   18.98    1.54
  -7  -6  -6   17.13    1.50
  -7  -6  -6   17.42    1.93
  -7  -6  -6   21.58    1.86
  -7  -6  -6   17.79    1.54
  -7  -6  -6   23.54    1.54
  -7  -6  -6   21.41    1.63
  -7  -6  -6   24.86    1.65
  -8  -6  -6    5.61    1.76
  -8  -6  -6    5.36    1.87
  -8  -6  -6    0.38    2.23
  -8  -6  -6    4.96    1.43
  -8  -6  -6    4.92    1.58
  -8  -6  -6    3.94    1.44
  -8  -6  -6    4.91    1.65
  -8  -6  -6    4.41    1.47
   3  -7  -6   -1.57    1.34
   3  -7  -6    1.24    2.06
   3  -7  -6    0.29    1.91
   3  -7  -6    2.78    1.59
   3  -7  -6    1.92    1.62
   3  -7  -6   -1.47    2.26
  -3   7   6    0.88    1.82
  -3   7   6    1.09    1.54
  -3   7   6    0.26    0.59
  -3   7   6   -0.10    1.47
  -3   7   6    0.70    1.40
  -3   7   6   -1.93    1.26
  -3   7   6    2.51    1.94
   2  -7  -6    6.69    1.93
   2  -7  -6    4.66    1.43
   2  -7  -6    6.45    1.26
   2  -7  -6    7.59    1.77
   2  -7  -6    4.53    1.37
   2  -7  -6    7.18    1.73
  -2   7   6    7.93    1.47
  -2   7   6    6.57    1.43
  -2   7   6    6.06    1.26
  -2   7   6    5.76    1.09
   1  -7  -6    2.95    1.11
   1  -7  -6    0.07    1.21
   1  -7  -6    1.82    1.51
   1  -7  -6    2.06    1.18
   1  -7  -6    1.04    1.41
   1  -7  -6    3.76    1.39
  -1   7   6    3.15    0.98
  -1   7   6    1.76    1.15
  -1   7   6    1.39    1.16
  -1   7   6    3.47    1.12
  -1   7   6    3.11    1.02
  -1   7   6    1.96    0.85
   0  -7  -6    1.74    1.00
   0  -7  -6    2.17    1.08
   0  -7  -6    0.44    0.88
   0  -7  -6   -0.34    1.24
   0  -7  -6    0.89    1.12
   0  -7  -6   -1.03    1.12
   0   7   6    1.49    0.75
   0   7   6    0.97    0.90
   0   7   6    0.50    0.82
   0   7   6    0.62    0.70
   0   7   6    0.12    0.97
   0   7   6    0.35    0.78
  -1  -7  -6   12.86    1.29
  -1  -7  -6   10.45    1.22
  -1  -7  -6   10.07    1.14
  -1  -7  -6   11.28    0.92
  -1  -7  -6   12.09    1.05
  -1  -7  -6   13.20    1.32
   1   7   6   12.94    0.88
   1   7   6   12.56    1.04
   1   7   6   12.54    1.21
   1   7   6   11.10    0.98
   1   7   6   14.14    1.12
  -2  -7  -6   38.04    1.59
  -2  -7  -6   38.84    2.14
  -2  -7  -6   35.76    2.22
  -2  -7  -6   35.69    1.53
  -2  -7  -6   37.10    1.93
  -2  -7  -6   37.07    1.05
  -2  -7  -6   37.35    1.82
  -3  -7  -6   87.41    3.01
  -3  -7  -6   98.46    2.87
  -3  -7  -6   92.77    2.44
  -3  -7  -6   88.39    2.31
  -3  -7  -6   92.47    2.57
  -3  -7  -6   89.78    2.50
  -3  -7  -6   89.78    2.39
  -3  -7  -6   90.05    2.09
  -4  -7  -6    5.39    0.60
  -4  -7  -6    5.36    0.81
  -4  -7  -6    5.49    0.76
  -4  -7  -6    4.77    1.30
  -4  -7  -6    5.93    1.17
  -4  -7  -6    6.78    0.67
  -4  -7  -6    5.36    1.07
  -4  -7  -6    5.50    1.03
  -5  -7  -6   28.02    1.76
  -5  -7  -6   27.66    2.14
  -5  -7  -6   23.91    1.48
  -5  -7  -6   24.39    1.63
  -5  -7  -6   23.70    1.49
  -5  -7  -6   28.54    1.87
  -6  -7  -6    3.46    1.07
  -6  -7  -6    2.77    1.25
  -6  -7  -6    1.64    1.57
  -6  -7  -6    3.85    1.47
  -6  -7  -6    4.07    1.35
  -6  -7  -6    2.66    1.08
  -6  -7  -6    2.03    1.52
  -6  -7  -6    2.39    1.29
  -7  -7  -6   22.08    1.81
  -7  -7  -6   19.98    1.73
  -7  -7  -6   21.75    2.13
  -7  -7  -6   25.70    1.85
  -7  -7  -6   23.27    1.61
  -7  -7  -6   27.19    1.91
  -7  -7  -6   19.82    2.02
  -7  -7  -6   27.56    2.06
   2  -8  -6    0.07    1.89
   2  -8  -6    0.93    1.74
   2  -8  -6   -2.03    1.57
   2  -8  -6   -2.69    2.42
  -2   8   6    0.40    1.33
   1  -8  -6    0.66    1.63
   1  -8  -6    2.90    1.43
   1  -8  -6    2.19    1.82
   1  -8  -6    3.19    1.98
   1  -8  -6    1.12    1.96
   1  -8  -6    0.91    1.49
  -1   8   6    0.38    1.12
  -1   8   6    0.31    1.21
  -1   8   6   -0.05    1.44
  -1   8   6    1.85    1.24
  -1   8   6    0.82    1.35
  -1   8   6    1.60    1.39
   0  -8  -6    9.18    1.70
   0  -8  -6    9.02    1.70
   0  -8  -6   12.77    1.79
   0  -8  -6   11.62    1.47
   0  -8  -6    9.95    1.32
   0  -8  -6   10.19    1.69
   0   8   6   10.40    1.11
   0   8   6   11.92    1.15
   0   8   6   11.19    1.41
   0   8   6   11.59    1.12
   0   8   6   11.85    1.15
   0   8   6   10.40    1.27
  -1  -8  -6    4.14    1.40
  -1  -8  -6    7.37    1.48
  -1  -8  -6    6.37    1.23
  -1  -8  -6    5.28    1.54
  -1  -8  -6    4.90    1.13
  -1  -8  -6    5.45    1.45
   1   8   6    6.08    1.03
   1   8   6    5.65    0.81
   1   8   6    7.73    0.87
   1   8   6    7.55    0.79
   1   8   6    6.86    0.80
  -2  -8  -6    7.03    1.11
  -2  -8  -6    7.10    1.05
  -2  -8  -6    8.38    1.24
  -2  -8  -6    7.11    1.55
  -2  -8  -6    7.84    1.49
  -2  -8  -6    6.72    1.36
  -3  -8  -6    0.75    1.03
  -3  -8  -6   -0.95    1.40
  -3  -8  -6    0.42    0.44
  -3  -8  -6    0.44    0.67
  -3  -8  -6    0.46    0.90
  -3  -8  -6   -0.79    1.11
  -3  -8  -6    0.32    0.92
  -3  -8  -6   -1.28    1.47
  -4  -8  -6   15.40    1.88
  -4  -8  -6   13.81    1.03
  -4  -8  -6   16.21    1.63
  -4  -8  -6   15.91    1.88
  -4  -8  -6   14.49    1.20
  -4  -8  -6   14.91    0.97
  -4  -8  -6   15.31    1.14
  -4  -8  -6   16.26    1.03
  -4  -8  -6   14.79    1.18
  -5  -8  -6   61.47    2.46
  -5  -8  -6   63.65    3.04
  -5  -8  -6   61.63    3.48
  -5  -8  -6   61.29    2.64
  -5  -8  -6   66.75    3.68
  -5  -8  -6   65.43    2.02
  -6  -8  -6   20.72    1.63
  -6  -8  -6   21.39    1.79
  -6  -8  -6   24.58    1.93
  -6  -8  -6   22.87    1.97
  -6  -8  -6   28.80    2.35
  -6  -8  -6   26.45    1.90
  -6  -8  -6   26.34    2.41
  -6  -8  -6   24.99    1.45
  -1  -9  -6    8.60    1.61
   1   9   6    9.89    0.99
   1   9   6    8.96    0.99
   1   9   6    8.11    0.95
   1   9   6    5.54    1.34
  -2  -9  -6   32.58    2.17
  -2  -9  -6   29.62    2.49
  -2  -9  -6   31.00    2.40
  -3  -9  -6    8.34    1.58
  -3  -9  -6   10.02    1.92
  -3  -9  -6    8.10    1.40
  -4  -9  -6    0.12    1.32
  -4  -9  -6    0.50    1.24
  -4  -9  -6   -1.17    1.99
  -3  -7   7   72.32    3.44
   2   7  -7    1.74    1.81
   2   7  -7    2.87    1.88
   2   7  -7    4.21    0.98
   2   7  -7    0.02    1.74
  -2  -7   7    1.36    1.55
  -2  -7   7    1.39    2.52
  -2  -7   7    3.69    0.96
  -2  -7   7    2.01    1.08
  -2  -7   7    5.85    1.51
  -2  -7   7    4.97    1.92
   1   7  -7   18.54    1.35
   1   7  -7   12.33    1.40
   1   7  -7   17.50    1.69
   1   7  -7   16.41    2.16
  -1  -7   7   17.65    1.94
  -1  -7   7   16.48    1.39
  -1  -7   7   16.79    1.91
  -1  -7   7   21.26    2.32
  -1  -7   7   15.47    1.82
  -1  -7   7   19.65    1.69
  -1  -7   7   17.25    1.93
  -1  -7   7   12.47    1.45
   0   7  -7   18.40    1.54
   0   7  -7   16.74    1.40
   0   7  -7    7.85    2.21
   0   7  -7   24.71    1.55
   0   7  -7   13.31    1.72
   0   7  -7   21.49    1.80
   0   7  -7   17.87    2.26
   0  -7   7   18.92    2.15
   0  -7   7   20.50    2.01
   0  -7   7   21.56    1.35
   0  -7   7   23.71    1.88
   0  -7   7   23.72    1.88
   0  -7   7   22.75    1.69
   0  -7   7   23.96    2.05
   0  -7   7   21.75    1.79
  -1   7  -7   18.81    1.99
  -1   7  -7   25.24    2.63
  -1   7  -7   20.69    1.83
  -1   7  -7   22.84    1.80
  -1   7  -7   24.34    2.01
  -1   7  -7   23.90    1.84
   1  -7   7   20.37    1.83
   1  -7   7   19.67    2.62
   1  -7   7   24.23    1.96
   1  -7   7   29.96    2.09
   1  -7   7   23.71    2.32
   1  -7   7   25.25    2.31
   1  -7   7   21.60    1.99
  -2   7  -7    0.35    1.62
  -2   7  -7    0.80    2.36
  -2   7  -7    0.18    1.43
  -2   7  -7    0.34    1.17
   2  -7   7    0.20    4.14
   2  -7   7    1.08    1.98
   2  -7   7   -0.42    2.23
   2  -7   7    0.81    1.61
   2  -7   7   -3.96    2.16
   4   6  -7    5.65    2.04
   4   6  -7    6.71    1.41
   4   6  -7    5.98    1.78
   4   6  -7    6.27    2.20
   4   6  -7    4.29    1.66
  -4  -6   7    5.36    1.17
  -4  -6   7    6.02    1.67
  -4  -6   7    4.92    1.24
  -4  -6   7    9.16    1.42
  -4  -6   7    6.50    1.62
  -4  -6   7    4.58    1.36
  -4  -6   7    1.84    1.62
   3   6  -7   -0.21    1.23
   3   6  -7    1.29    1.51
   3   6  -7    2.69    1.79
   3   6  -7    0.10    1.17
   3   6  -7    1.36    1.51
   3   6  -7   -0.04    1.72
  -3  -6   7    1.01    1.44
  -3  -6   7    1.84    0.98
  -3  -6   7   -1.09    1.26
  -3  -6   7   -0.16    1.16
  -3  -6   7    0.54    1.39
  -3  -6   7   -0.37    0.92
  -3  -6   7   -1.25    1.37
   2   6  -7    1.14    1.19
   2   6  -7   -0.81    1.08
   2   6  -7    3.80    1.48
   2   6  -7   -1.08    1.42
   2   6  -7    1.05    0.71
   2   6  -7    1.93    1.52
   2   6  -7   -0.98    1.41
  -2  -6   7    0.42    0.81
  -2  -6   7    0.85    0.96
  -2  -6   7    1.86    1.26
  -2  -6   7    0.79    1.21
  -2  -6   7    1.91    1.30
  -2  -6   7   -0.72    1.02
  -2  -6   7    0.21    0.65
  -2  -6   7    0.18    1.33
   1   6  -7   -0.96    1.40
   1   6  -7   -2.12    1.09
   1   6  -7    0.19    1.44
   1   6  -7   -0.24    1.49
   1   6  -7    0.07    1.18
   1   6  -7   -0.20    0.82
  -1  -6   7   -0.15    0.95
  -1  -6   7    2.65    1.14
  -1  -6   7    2.04    1.22
  -1  -6   7    0.30    0.73
  -1  -6   7   -1.00    1.23
  -1  -6   7    0.36    1.31
  -1  -6   7    0.37    1.17
  -1  -6   7    0.42    0.84
   0   6  -7   12.24    1.17
   0   6  -7   14.33    1.37
   0   6  -7   14.10    1.17
   0   6  -7   12.88    1.37
   0   6  -7   13.08    1.61
   0   6  -7   13.82    1.31
   0   6  -7   11.14    1.64
   0   6  -7   12.21    1.77
   0  -6   7   12.20    1.35
   0  -6   7   12.59    1.31
   0  -6   7   13.28    0.96
   0  -6   7    9.60    1.10
   0  -6   7   11.59    1.33
   0  -6   7   12.48    1.23
   0  -6   7   11.40    1.36
   0  -6   7   15.65    1.64
  -1   6  -7   -0.41    1.69
  -1   6  -7   -0.21    1.12
  -1   6  -7    1.12    0.96
  -1   6  -7    0.98    0.95
  -1   6  -7    2.45    1.67
  -1   6  -7    0.68    1.36
  -1   6  -7    0.21    1.07
   1  -6   7    3.24    1.24
   1  -6   7    1.71    1.44
   1  -6   7    2.48    1.55
   1  -6   7   -0.15    1.18
   1  -6   7    2.42    1.20
   1  -6   7    3.63    1.17
   1  -6   7    0.83    1.14
   1  -6   7    0.46    0.85
  -2   6  -7    4.61    0.97
  -2   6  -7    5.83    1.98
  -2   6  -7    8.91    1.38
  -2   6  -7    6.52    1.29
  -2   6  -7    5.89    1.51
  -2   6  -7    4.39    1.33
  -2   6  -7    3.92    1.85
   2  -6   7    6.87    1.61
   2  -6   7    9.16    1.76
   2  -6   7    4.68    1.35
   2  -6   7    8.75    1.53
   2  -6   7    5.58    1.24
   2  -6   7    7.13    1.92
   2  -6   7    6.89    1.52
  -3   6  -7    1.85    1.72
  -3   6  -7    3.99    1.89
  -3   6  -7    7.11    1.61
  -3   6  -7    4.51    1.54
  -3   6  -7    4.62    1.49
  -3   6  -7    1.06    2.20
  -3   6  -7    6.28    1.02
   3  -6   7    5.57    1.91
   3  -6   7    4.84    1.99
   3  -6   7    4.86    1.72
   3  -6   7    2.93    1.95
   3  -6   7    4.56    1.74
   3  -6   7    4.49    1.25
   3  -6   7    3.41    1.40
  -4   6  -7    2.66    2.62
  -4   6  -7    0.80    1.81
  -4   6  -7    1.07    1.76
  -4   6  -7    0.99    1.81
  -4   6  -7    4.16    2.52
  -4   6  -7    6.54    2.24
   4  -6   7    3.10    2.03
   4  -6   7    2.31    1.22
   4  -6   7    3.34    2.07
   4  -6   7    2.18    2.67
   4  -6   7    2.37    2.13
   4  -6   7    2.94    1.80
   4  -6   7    2.83    2.05
   5   5  -7    0.08    1.42
   5   5  -7   -1.23    1.63
   5   5  -7    1.27    1.85
   5   5  -7    0.25    1.34
   5   5  -7   -0.17    1.43
   5   5  -7    3.56    2.20
  -5  -5   7    1.51    1.17
  -5  -5   7    3.42    1.24
  -5  -5   7    0.99    1.21
  -5  -5   7    2.62    1.46
  -5  -5   7    0.90    1.31
  -5  -5   7    1.81    1.26
  -5  -5   7    2.14    1.51
   4   5  -7   58.70    2.55
   4   5  -7   51.77    2.59
   4   5  -7   57.61    2.43
   4   5  -7   57.47    3.26
   4   5  -7   56.06    3.04
   4   5  -7   53.94    2.58
  -4  -5   7   54.69    2.66
  -4  -5   7   53.29    2.19
  -4  -5   7   52.07    2.75
  -4  -5   7   56.14    2.23
  -4  -5   7   56.56    2.31
  -4  -5   7   52.43    2.47
  -4  -5   7   56.68    2.39
   3   5  -7    1.06    1.16
   3   5  -7    1.26    1.37
   3   5  -7    2.60    1.00
   3   5  -7    1.74    1.39
   3   5  -7    2.17    1.18
   3   5  -7    1.33    1.07
  -3  -5   7    3.27    0.83
  -3  -5   7    2.07    1.00
  -3  -5   7    1.58    1.10
  -3  -5   7    2.74    1.14
  -3  -5   7    0.07    0.93
  -3  -5   7    1.97    0.91
  -3  -5   7    1.82    0.88
   2   5  -7   -0.28    0.88
   2   5  -7    0.13    1.57
   2   5  -7   -0.14    1.24
   2   5  -7   -0.62    1.13
   2   5  -7   -0.47    1.09
   2   5  -7    0.72    1.10
   2   5  -7   -0.60    0.49
  -2  -5   7    0.85    0.70
  -2  -5   7    0.66    0.93
  -2  -5   7   -0.56    0.96
  -2  -5   7    0.05    0.48
  -2  -5   7   -0.20    0.87
  -2  -5   7   -0.06    0.98
  -2  -5   7   -1.26    0.77
  -2  -5   7    0.81    0.85
   1   5  -7    1.80    0.67
   1   5  -7    2.12    1.15
   1   5  -7    2.68    1.20
   1   5  -7    2.11    0.92
   1   5  -7    0.05    1.06
   1   5  -7    1.00    0.81
   1   5  -7    1.05    0.95
  -1  -5   7    0.15    0.81
  -1  -5   7    1.28    0.91
  -1  -5   7    0.03    0.92
  -1  -5   7    2.00    0.94
  -1  -5   7    2.24    0.68
  -1  -5   7    0.58    0.99
  -1  -5   7    2.28    0.66
  -1  -5   7    0.96    0.77
   0   5  -7   24.55    1.93
   0   5  -7   24.90    1.83
   0   5  -7   23.63    1.48
   0   5  -7   24.79    2.24
   0   5  -7   24.87    1.57
   0   5  -7   21.46    1.50
   0   5  -7   27.05    2.12
   0   5  -7   24.24    1.53
   0  -5   7   25.39    1.30
   0  -5   7   23.22    1.79
   0  -5   7   27.80    1.93
   0  -5   7   24.20    1.51
   0  -5   7   23.70    1.49
   0  -5   7   22.70    2.05
   0  -5   7   25.62    1.68
  -1   5  -7   16.52    1.45
  -1   5  -7   16.62    1.50
  -1   5  -7   14.35    1.23
  -1   5  -7   16.49    1.13
  -1   5  -7   17.74    1.63
  -1   5  -7   17.53    1.49
  -1   5  -7   16.19    1.30
  -1   5  -7   16.69    1.34
   1  -5   7   21.23    2.20
   1  -5   7   15.81    0.99
   1  -5   7   14.82    1.27
   1  -5   7   16.63    1.31
   1  -5   7   17.90    1.31
   1  -5   7   14.57    1.09
   1  -5   7   17.17    1.19
   1  -5   7   17.26    1.12
  -2   5  -7    9.32    1.64
  -2   5  -7    7.27    1.03
  -2   5  -7    6.82    0.99
  -2   5  -7    8.81    0.85
  -2   5  -7    9.96    1.53
  -2   5  -7    9.74    1.18
  -2   5  -7    7.00    1.27
   2  -5   7   10.03    1.20
   2  -5   7    8.16    0.94
   2  -5   7    7.47    1.31
   2  -5   7    6.96    1.17
   2  -5   7    9.35    1.29
   2  -5   7    6.61    1.11
   2  -5   7    8.43    1.54
   2  -5   7    9.26    1.00
  -3   5  -7   22.69    2.05
  -3   5  -7   26.35    1.99
  -3   5  -7   24.82    1.52
  -3   5  -7   26.66    2.22
  -3   5  -7   25.69    2.20
  -3   5  -7   28.03    1.99
  -3   5  -7   26.23    2.53
   3  -5   7   28.37    1.80
   3  -5   7   23.64    1.92
   3  -5   7   27.99    2.56
   3  -5   7   38.70    3.10
   3  -5   7   26.30    1.66
   3  -5   7   32.49    2.43
   3  -5   7   29.56    1.92
  -4   5  -7    0.76    1.57
  -4   5  -7   -1.93    1.42
  -4   5  -7    1.38    1.74
  -4   5  -7    0.22    1.62
  -4   5  -7   -0.41    1.27
  -4   5  -7    1.15    2.07
   4  -5   7    0.60    1.88
   4  -5   7    1.36    1.63
   4  -5   7   -1.09    1.39
   4  -5   7    0.58    0.85
   4  -5   7   -0.06    1.58
   4  -5   7   -0.36    1.20
   4  -5   7   -1.17    1.53
  -5   5  -7    7.58    2.41
  -5   5  -7    5.46    1.94
  -5   5  -7    5.60    1.72
  -5   5  -7    7.12    1.17
  -5   5  -7    5.33    2.36
  -5   5  -7    6.26    1.69
  -5   5  -7    8.07    2.30
   5  -5   7    7.02    2.07
   5  -5   7    7.03    2.06
   5  -5   7    5.75    0.89
   5  -5   7    7.77    2.47
   5  -5   7    5.68    1.78
   5  -5   7    9.15    1.97
   5  -5   7    4.92    1.52
   6   4  -7    3.50    2.47
   6   4  -7    0.14    1.51
   6   4  -7    2.10    1.65
   6   4  -7    2.53    1.43
   6   4  -7    0.80    1.77
  -6  -4   7   -0.59    1.47
  -6  -4   7    0.90    1.38
  -6  -4   7   -0.55    1.43
  -6  -4   7    1.26    1.65
  -6  -4   7   -0.17    1.25
  -6  -4   7    2.13    1.26
  -6  -4   7   -0.67    1.56
   5   4  -7   12.54    1.43
   5   4  -7   14.98    1.46
   5   4  -7   13.82    2.00
   5   4  -7   12.52    1.40
   5   4  -7    7.99    1.50
   5   4  -7   12.35    1.58
  -5  -4   7   11.59    1.16
  -5  -4   7   12.31    1.25
  -5  -4   7    9.28    1.37
  -5  -4   7   13.27    1.39
  -5  -4   7   13.56    1.29
  -5  -4   7    8.77    1.06
  -5  -4   7   13.67    1.22
   4   4  -7    0.63    1.16
   4   4  -7    2.06    1.08
   4   4  -7    2.20    1.08
   4   4  -7   -0.49    0.91
   4   4  -7   -0.02    0.99
   4   4  -7   -0.31    1.36
  -4  -4   7    0.50    0.86
  -4  -4   7    0.47    0.98
  -4  -4   7    0.01    0.84
  -4  -4   7   -0.05    0.86
  -4  -4   7    0.66    0.85
  -4  -4   7   -0.59    0.78
   3   4  -7   12.75    1.17
   3   4  -7   14.50    1.34
   3   4  -7   12.24    1.06
  -3  -4   7   10.77    0.91
  -3  -4   7   13.66    1.18
  -3  -4   7   14.12    1.08
  -3  -4   7   14.44    1.39
  -3  -4   7   11.77    0.86
  -3  -4   7   14.26    1.00
  -3  -4   7   13.83    0.97
   2   4  -7    3.14    0.93
   2   4  -7    2.66    0.87
   2   4  -7    3.76    0.42
   2   4  -7    3.37    0.83
   2   4  -7    3.40    0.75
   2   4  -7    2.58    0.94
   2   4  -7    3.45    0.88
  -2  -4   7    2.39    0.80
  -2  -4   7    4.23    0.82
  -2  -4   7    3.95    1.08
  -2  -4   7    4.20    0.70
  -2  -4   7    3.98    0.88
  -2  -4   7    1.76    0.73
   1   4  -7  111.29    2.99
   1   4  -7  111.03    2.90
   1   4  -7  111.33    3.00
   1   4  -7  106.35    3.07
   1   4  -7  108.01    2.56
   1   4  -7  106.39    2.77
  -1  -4   7  109.26    2.53
  -1  -4   7  108.08    2.60
  -1  -4   7  108.66    2.85
  -1  -4   7  110.34    2.93
  -1  -4   7  107.30    2.73
  -1  -4   7  111.45    2.85
  -1  -4   7  113.63    3.02
  -1  -4   7  112.59    2.98
   0   4  -7   11.28    0.98
   0   4  -7    8.61    0.99
   0   4  -7   10.90    0.83
   0   4  -7   10.02    0.80
   0   4  -7    9.12    0.98
   0   4  -7    9.62    0.89
   0   4  -7   10.30    1.06
   0   4  -7    9.92    0.80
   0  -4   7    9.55    0.92
   0  -4   7   10.12    0.71
   0  -4   7   11.37    0.79
   0  -4   7   12.38    1.04
   0  -4   7   12.41    1.01
   0  -4   7    9.14    0.95
   0  -4   7   11.41    0.82
  -1   4  -7   44.74    1.59
  -1   4  -7   39.55    1.70
  -1   4  -7   40.63    1.44
  -1   4  -7   43.21    1.82
  -1   4  -7   43.44    1.88
  -1   4  -7   47.32    2.08
  -1   4  -7   42.99    1.88
  -1   4  -7   41.14    2.09
   1  -4   7   41.56    1.90
   1  -4   7   40.54    2.01
   1  -4   7   44.21    1.57
   1  -4   7   45.49    1.74
   1  -4   7   43.14    1.67
   1  -4   7   42.42    1.89
   1  -4   7   41.30    1.46
   1  -4   7   41.89    1.59
  -2   4  -7  123.88    3.13
  -2   4  -7  126.22    3.13
  -2   4  -7  116.56    3.38
  -2   4  -7  108.73    4.27
  -2   4  -7  124.99    2.89
  -2   4  -7  127.98    3.37
  -2   4  -7  124.67    3.61
  -2   4  -7  130.76    3.57
   2  -4   7  124.73    2.97
   2  -4   7  128.05    3.11
   2  -4   7  121.90    3.31
   2  -4   7  125.09    3.39
   2  -4   7  120.36    3.22
   2  -4   7  127.72    3.21
   2  -4   7  121.81    3.00
   2  -4   7  121.55    3.58
  -3   4  -7   11.86    1.55
  -3   4  -7   13.31    1.43
  -3   4  -7   10.92    1.22
  -3   4  -7   12.62    1.02
  -3   4  -7   12.43    1.20
  -3   4  -7   12.83    0.84
  -3   4  -7   14.57    1.22
   3  -4   7   12.20    1.18
   3  -4   7   13.39    1.32
   3  -4   7   14.57    1.05
   3  -4   7   12.98    1.24
   3  -4   7   14.74    1.22
   3  -4   7   12.43    0.84
   3  -4   7   13.91    1.53
  -4   4  -7   70.34    2.13
  -4   4  -7   65.50    3.13
  -4   4  -7   74.12    2.98
  -4   4  -7   62.84    3.31
  -4   4  -7   71.23    2.82
  -4   4  -7   71.28    2.43
   4  -4   7   69.05    2.77
   4  -4   7   70.02    2.80
   4  -4   7   71.41    2.82
   4  -4   7   72.43    3.26
   4  -4   7   71.05    2.46
   4  -4   7   70.41    1.95
   4  -4   7   68.87    2.84
  -5   4  -7   83.84    3.76
  -5   4  -7   82.46    2.90
  -5   4  -7   84.08    3.55
  -5   4  -7   81.82    3.86
  -5   4  -7   80.34    3.31
  -5   4  -7   83.98    2.51
  -5   4  -7   77.83    3.11
   5  -4   7   77.23    3.17
   5  -4   7   77.06    3.86
   5  -4   7   77.92    2.81
   5  -4   7   82.91    3.37
   5  -4   7   80.32    2.02
   5  -4   7   84.38    3.28
   5  -4   7   79.23    3.39
  -6   4  -7    8.08    2.26
  -6   4  -7    7.09    2.29
  -6   4  -7    8.45    1.35
  -6   4  -7    5.87    1.89
  -6   4  -7    7.83    2.42
  -6   4  -7   11.84    1.66
  -6   4  -7    7.87    1.64
   6  -4   7    7.81    1.80
   6  -4   7    8.25    1.85
   6  -4   7    4.00    1.75
   6  -4   7    5.46    1.93
   6  -4   7    6.06    1.51
   6  -4   7    7.36    1.76
   6   3  -7    7.10    1.29
   6   3  -7    8.63    1.79
   6   3  -7    7.54    1.41
   6   3  -7    8.08    2.30
   6   3  -7    9.34    1.46
   6   3  -7    8.06    1.62
  -6  -3   7    8.67    1.51
  -6  -3   7   10.58    1.17
  -6  -3   7    7.18    1.45
  -6  -3   7    7.82    1.30
  -6  -3   7    7.84    1.38
  -6  -3   7    6.43    1.28
  -6  -3   7    8.01    1.29
   5   3  -7    3.29    1.19
   5   3  -7    2.29    1.13
   5   3  -7    0.95    1.68
   5   3  -7    1.79    1.08
   5   3  -7    1.43    1.28
   5   3  -7    2.02    1.08
  -5  -3   7    0.82    1.00
  -5  -3   7    2.64    0.98
  -5  -3   7    1.43    0.99
  -5  -3   7    2.30    1.00
  -5  -3   7    0.95    0.93
  -5  -3   7    1.87    1.05
  -5  -3   7    2.59    0.93
   4   3  -7   32.84    1.79
   4   3  -7   34.08    1.90
   4   3  -7   33.39    1.96
   4   3  -7   34.30    2.33
  -4  -3   7   33.54    1.70
  -4  -3   7   33.61    1.59
  -4  -3   7   34.45    1.74
  -4  -3   7   32.46    1.66
  -4  -3   7   31.31    1.76
  -4  -3   7   34.74    1.55
  -4  -3   7   33.66    1.58
   3   3  -7   78.90    2.33
   3   3  -7   77.51    2.43
   3   3  -7   73.93    2.37
   3   3  -7   82.49    2.31
   3   3  -7   78.76    2.56
  -3  -3   7   77.64    2.27
  -3  -3   7   75.23    2.23
  -3  -3   7   82.40    2.50
  -3  -3   7   79.41    2.19
  -3  -3   7   78.47    2.17
  -3  -3   7   81.11    2.33
  -3  -3   7   76.52    2.16
   2   3  -7   55.81    2.01
   2   3  -7   59.79    1.90
   2   3  -7   55.58    1.99
   2   3  -7   57.75    1.95
   2   3  -7   60.35    1.96
   2   3  -7   57.09    1.80
  -2  -3   7   60.17    1.86
  -2  -3   7   60.29    1.70
  -2  -3   7   57.73    1.69
  -2  -3   7   60.20    1.81
  -2  -3   7   60.62    1.80
  -2  -3   7   55.83    1.88
  -2  -3   7   57.61    1.95
   1   3  -7  673.95   13.42
   1   3  -7  670.28   13.54
   1   3  -7  658.43   13.29
   1   3  -7  666.63   13.57
   1   3  -7  655.45   13.63
   1   3  -7  671.93   13.55
   1   3  -7  663.35   13.45
  -1  -3   7  648.54   13.36
  -1  -3   7  665.55   13.48
  -1  -3   7  654.04   13.58
  -1  -3   7  662.06   13.39
  -1  -3   7  671.82   13.59
  -1  -3   7  660.96   13.47
  -1  -3   7  651.09   13.45
   0   3  -7   20.02    1.42
   0   3  -7   19.47    1.06
   0   3  -7   18.91    1.09
   0   3  -7   19.59    1.38
   0   3  -7   20.01    0.99
   0   3  -7   19.18    1.03
   0   3  -7   19.86    1.25
   0   3  -7   19.92    1.26
   0  -3   7   20.00    0.96
   0  -3   7   20.88    1.20
   0  -3   7   18.94    1.15
   0  -3   7   20.40    1.10
   0  -3   7   19.89    0.97
   0  -3   7   19.98    1.29
   0  -3   7   19.86    0.97
   0  -3   7   19.40    1.36
  -1   3  -7    1.76    0.50
  -1   3  -7    0.51    0.67
  -1   3  -7    0.88    0.59
  -1   3  -7    0.14    0.61
  -1   3  -7    0.58    0.62
  -1   3  -7    0.38    0.46
  -1   3  -7    0.66    0.66
  -1   3  -7    0.16    0.66
   1  -3   7    0.82    0.50
   1  -3   7    1.05    1.10
   1  -3   7    0.87    0.54
   1  -3   7    0.08    0.44
   1  -3   7    0.15    0.60
   1  -3   7    0.82    0.66
   1  -3   7    0.34    0.50
   1  -3   7    0.52    0.67
  -2   3  -7   88.62    2.46
  -2   3  -7   86.07    2.16
  -2   3  -7   87.62    2.11
  -2   3  -7   83.31    2.22
  -2   3  -7   82.42    2.40
  -2   3  -7   82.81    2.61
  -2   3  -7   84.39    2.26
  -2   3  -7   85.44    2.58
   2  -3   7   85.36    2.45
   2  -3   7   87.72    2.34
   2  -3   7   85.29    2.45
   2  -3   7   86.37    2.13
   2  -3   7   82.29    2.21
   2  -3   7   83.44    2.31
   2  -3   7   83.27    2.55
   2  -3   7   83.45    2.20
  -3   3  -7   73.43    2.57
  -3   3  -7   70.33    2.11
  -3   3  -7   70.95    2.00
  -3   3  -7   75.37    1.90
  -3   3  -7   66.93    2.55
  -3   3  -7   71.17    2.37
  -3   3  -7   70.03    1.97
  -3   3  -7   70.68    2.60
   3  -3   7   70.63    2.21
   3  -3   7   72.31    2.33
   3  -3   7   68.11    2.03
   3  -3   7   69.66    1.83
   3  -3   7   67.45    2.07
   3  -3   7   68.63    2.29
   3  -3   7   73.32    2.55
  -4   3  -7    4.92    1.83
  -4   3  -7    5.38    1.30
  -4   3  -7    0.84    1.16
  -4   3  -7    5.53    0.96
  -4   3  -7    3.82    0.83
  -4   3  -7    4.18    1.08
  -4   3  -7    4.96    0.72
   4  -3   7    4.63    0.56
   4  -3   7    4.57    0.84
   4  -3   7    3.87    1.22
   4  -3   7    5.17    1.04
   4  -3   7    4.37    1.03
   4  -3   7    2.81    1.52
   4  -3   7    5.00    0.98
  -5   3  -7   37.64    2.43
  -5   3  -7   38.74    1.96
  -5   3  -7   39.10    2.73
  -5   3  -7   38.86    2.54
  -5   3  -7   38.78    2.66
  -5   3  -7   39.96    1.75
  -5   3  -7   38.33    2.15
   5  -3   7   35.63    2.27
   5  -3   7   40.56    1.87
   5  -3   7   38.12    2.22
   5  -3   7   37.34    2.25
   5  -3   7   36.60    2.62
   5  -3   7   36.78    1.14
   5  -3   7   42.72    2.42
  -6   3  -7    0.39    1.70
  -6   3  -7   -1.90    1.32
  -6   3  -7    0.94    1.09
  -6   3  -7    2.32    1.49
  -6   3  -7    1.05    1.53
  -6   3  -7    0.65    1.21
  -6   3  -7   -2.11    1.79
   6  -3   7    0.74    1.62
   6  -3   7    2.36    1.26
   6  -3   7   -0.26    1.48
   6  -3   7   -0.07    1.20
   6  -3   7    1.98    1.40
   6  -3   7    0.80    1.36
  -7   3  -7   26.54    1.89
  -7   3  -7   26.78    2.73
  -7   3  -7   30.30    2.33
  -7   3  -7   29.02    2.67
  -7   3  -7   28.02    1.97
  -7   3  -7   27.50    1.87
  -7   3  -7   24.14    2.37
   7  -3   7   27.55    1.96
   7  -3   7   29.83    2.14
   7  -3   7   26.12    2.50
   7   2  -7   12.35    1.75
  -7  -2   7   14.53    1.59
  -7  -2   7    8.49    1.53
  -7  -2   7    7.75    1.97
   6   2  -7    2.85    1.39
   6   2  -7    2.34    2.06
   6   2  -7    4.50    1.71
   6   2  -7    2.73    1.24
   6   2  -7    3.31    1.17
   6   2  -7    5.67    1.35
  -6  -2   7    3.38    1.12
  -6  -2   7    3.89    1.41
  -6  -2   7    4.35    1.23
  -6  -2   7    3.25    1.19
  -6  -2   7    3.65    1.29
  -6  -2   7    3.12    1.17
   5   2  -7    0.16    1.26
   5   2  -7    0.85    1.00
   5   2  -7    0.36    1.47
   5   2  -7    0.53    0.96
   5   2  -7    1.01    1.06
  -5  -2   7    1.88    0.87
  -5  -2   7   -0.17    0.96
  -5  -2   7    0.36    0.95
  -5  -2   7   -1.00    0.93
  -5  -2   7    0.14    0.88
   4   2  -7   69.76    2.56
   4   2  -7   63.20    2.02
   4   2  -7   66.81    2.30
   4   2  -7   65.94    2.38
   4   2  -7   61.60    2.13
   4   2  -7   65.92    2.31
  -4  -2   7   64.60    2.33
  -4  -2   7   64.79    2.04
  -4  -2   7   54.70    2.14
  -4  -2   7   59.36    2.60
  -4  -2   7   63.88    2.10
  -4  -2   7   63.19    2.06
  -4  -2   7   64.77    2.05
   3   2  -7  169.94    4.04
   3   2  -7  173.70    3.99
   3   2  -7  167.93    4.02
   3   2  -7  174.52    4.09
   3   2  -7  173.20    3.93
  -3  -2   7  169.39    3.88
  -3  -2   7  169.69    3.98
  -3  -2   7  168.81    4.00
  -3  -2   7  175.25    3.89
  -3  -2   7  174.42    3.94
  -3  -2   7  177.09    3.83
  -3  -2   7  178.08    3.90
   2   2  -7  181.65    4.19
   2   2  -7  181.39    3.76
   2   2  -7  185.41    4.09
   2   2  -7  184.28    4.14
   2   2  -7  180.71    4.14
   2   2  -7  182.84    3.73
   2   2  -7  180.15    4.16
   2   2  -7  185.44    4.06
  -2  -2   7  179.87    4.06
  -2  -2   7  180.60    4.07
  -2  -2   7  186.20    4.03
  -2  -2   7  183.55    4.00
  -2  -2   7  189.90    4.22
  -2  -2   7  178.79    4.11
  -2  -2   7  182.41    3.94
   1   2  -7   12.36    1.02
   1   2  -7   10.50    0.73
   1   2  -7   11.23    1.03
   1   2  -7   10.77    0.76
   1   2  -7    8.31    0.69
   1   2  -7   10.42    0.73
   1   2  -7   12.67    1.10
  -1  -2   7   11.02    0.98
  -1  -2   7    8.74    0.67
  -1  -2   7    9.36    0.76
  -1  -2   7   10.08    0.79
  -1  -2   7   10.94    0.71
  -1  -2   7    8.80    0.66
  -1  -2   7    9.61    0.73
   0   2  -7    5.69    0.72
   0   2  -7    4.56    0.53
   0   2  -7    4.55    0.62
   0   2  -7    4.73    0.59
   0   2  -7    4.82    0.53
   0   2  -7    3.52    0.57
   0  -2   7    3.90    0.45
   0  -2   7    4.61    0.49
   0  -2   7    5.38    0.60
   0  -2   7    4.16    0.53
   0  -2   7    4.55    0.55
   0  -2   7    4.50    0.63
   0  -2   7    4.61    0.47
   0  -2   7    3.43    0.55
  -1   2  -7  128.64    2.97
  -1   2  -7  135.21    3.08
  -1   2  -7  129.40    2.82
  -1   2  -7  124.48    2.99
  -1   2  -7  126.60    2.88
  -1   2  -7  132.06    3.10
  -1   2  -7  126.16    2.92
  -1   2  -7  125.09    3.15
   1  -2   7  129.53    2.91
   1  -2   7  132.37    3.02
   1  -2   7  127.56    2.91
   1  -2   7  127.82    3.07
   1  -2   7  125.31    2.96
   1  -2   7  126.25    3.12
   1  -2   7  128.26    2.85
   1  -2   7  133.66    2.92
  -2   2  -7   83.20    2.34
  -2   2  -7   81.84    2.01
  -2   2  -7   88.06    2.30
  -2   2  -7   84.12    2.14
  -2   2  -7   81.17    2.26
  -2   2  -7   86.32    2.04
  -2   2  -7   81.16    2.10
   2  -2   7   85.33    2.06
   2  -2   7   85.62    2.18
   2  -2   7   82.97    2.23
   2  -2   7   83.07    2.36
   2  -2   7   84.94    2.03
   2  -2   7   86.73    2.27
   2  -2   7   84.52    2.20
   2  -2   7   82.39    2.13
  -3   2  -7  110.44    2.95
  -3   2  -7  109.19    2.98
  -3   2  -7  108.25    2.66
  -3   2  -7  109.70    2.84
  -3   2  -7  109.48    2.54
  -3   2  -7  112.87    2.58
  -3   2  -7  105.94    2.67
  -3   2  -7  112.19    2.88
   3  -2   7  111.14    2.82
   3  -2   7  109.32    2.48
   3  -2   7  112.56    3.00
   3  -2   7  110.40    2.80
   3  -2   7  107.66    2.61
   3  -2   7  107.91    2.72
   3  -2   7  108.89    2.71
   3  -2   7  111.24    2.79
  -4   2  -7    2.25    0.96
  -4   2  -7    3.87    0.56
  -4   2  -7    2.48    0.64
  -4   2  -7    3.38    0.70
  -4   2  -7    2.89    0.62
  -4   2  -7    2.62    0.87
  -4   2  -7    2.66    0.99
  -4   2  -7    3.78    0.92
   4  -2   7    2.69    0.97
   4  -2   7    3.88    0.47
   4  -2   7    4.78    0.70
   4  -2   7    3.80    0.77
   4  -2   7    3.51    0.82
   4  -2   7    3.78    0.82
   4  -2   7    3.84    0.76
  -5   2  -7   10.40    1.14
  -5   2  -7    9.82    1.43
  -5   2  -7   11.76    1.34
  -5   2  -7   11.49    1.60
  -5   2  -7    9.10    0.93
  -5   2  -7    8.90    1.16
  -5   2  -7    7.94    0.88
   5  -2   7   10.86    1.11
   5  -2   7   11.13    1.17
   5  -2   7    9.59    0.94
   5  -2   7   10.07    1.03
   5  -2   7    8.86    1.29
   5  -2   7    9.97    1.01
  -6   2  -7    0.83    1.11
  -6   2  -7   -0.30    1.00
  -6   2  -7   -0.05    1.32
  -6   2  -7   -0.46    1.36
  -6   2  -7    0.77    1.28
  -6   2  -7   -0.46    1.52
  -6   2  -7    0.68    1.01
   6  -2   7   -0.33    1.07
   6  -2   7   -0.33    1.18
   6  -2   7    0.27    1.03
   6  -2   7    0.45    1.05
   6  -2   7   -0.69    1.18
   6  -2   7    1.69    1.00
  -7   2  -7    7.15    1.99
  -7   2  -7    6.18    1.73
  -7   2  -7    4.53    1.40
  -7   2  -7    2.19    1.37
  -7   2  -7    3.69    1.90
  -7   2  -7    7.33    1.88
  -7   2  -7    3.94    1.35
   7  -2   7    1.11    1.51
   7  -2   7    2.92    1.21
   7  -2   7    4.10    1.34
   7  -2   7    5.95    1.79
   7  -2   7    4.50    1.63
   7  -2   7    4.12    1.50
   7   1  -7    6.23    1.54
   7   1  -7    7.43    1.62
   7   1  -7    3.02    2.68
  -7  -1   7    9.62    1.95
  -7  -1   7    9.12    1.50
  -7  -1   7    8.21    2.02
  -7  -1   7    8.88    1.78
  -7  -1   7    9.05    1.53
   6   1  -7    9.14    1.29
   6   1  -7   11.46    2.06
   6   1  -7   11.11    1.67
   6   1  -7    7.00    1.30
   6   1  -7    8.55    1.20
   6   1  -7    9.58    1.82
  -6  -1   7   11.42    1.24
  -6  -1   7    9.02    1.45
  -6  -1   7    9.59    1.31
  -6  -1   7   10.14    1.27
  -6  -1   7    5.68    1.31
  -6  -1   7    6.91    1.18
   5   1  -7  104.63    3.32
   5   1  -7  103.39    2.80
   5   1  -7  106.36    3.53
   5   1  -7  102.71    2.90
   5   1  -7  103.56    3.34
   5   1  -7   97.74    2.95
  -5  -1   7   99.48    2.82
  -5  -1   7  107.14    2.94
  -5  -1   7  103.66    2.89
  -5  -1   7  103.07    2.94
  -5  -1   7  102.66    2.84
  -5  -1   7  107.65    3.03
   4   1  -7    2.76    0.71
   4   1  -7    2.29    0.97
   4   1  -7    1.63    1.02
   4   1  -7    2.44    0.76
   4   1  -7    3.68    1.08
  -4  -1   7    2.64    0.69
  -4  -1   7    3.47    0.83
  -4  -1   7    3.76    0.73
  -4  -1   7    2.33    0.69
  -4  -1   7    2.03    0.72
  -4  -1   7    2.45    0.72
   3   1  -7   12.79    1.22
   3   1  -7   12.65    1.07
   3   1  -7   12.03    1.01
   3   1  -7   10.34    0.95
   3   1  -7   11.47    0.54
   3   1  -7   11.04    0.88
   3   1  -7   12.18    0.88
  -3  -1   7   10.55    0.73
  -3  -1   7    9.75    1.16
  -3  -1   7    9.61    0.79
  -3  -1   7   12.51    0.84
  -3  -1   7    9.31    0.76
   2   1  -7   24.76    1.23
   2   1  -7   23.22    1.22
   2   1  -7   23.75    0.79
   2   1  -7   24.18    1.12
   2   1  -7   23.91    1.21
   2   1  -7   22.92    0.79
   2   1  -7   23.45    1.15
   2   1  -7   25.57    1.32
  -2  -1   7   23.82    1.13
  -2  -1   7   23.75    1.02
  -2  -1   7   23.47    1.12
  -2  -1   7   25.49    1.05
  -2  -1   7   22.86    0.97
  -2  -1   7   23.29    0.89
  -2  -1   7   24.49    1.07
   1   1  -7    2.05    0.55
   1   1  -7    2.01    0.49
   1   1  -7    1.93    0.51
   1   1  -7    1.70    0.39
   1   1  -7    2.04    0.57
   1   1  -7    1.43    0.48
   1   1  -7    1.92    0.51
  -1  -1   7    1.31    0.41
  -1  -1   7    2.22    0.54
  -1  -1   7    2.47    0.48
  -1  -1   7    1.63    0.45
  -1  -1   7    1.58    0.43
  -1  -1   7    2.14    0.44
  -1  -1   7    1.63    0.34
   0   1  -7   72.88    1.93
   0   1  -7   76.57    1.97
   0   1  -7   76.23    1.84
   0   1  -7   73.84    1.85
   0   1  -7   74.07    1.83
   0   1  -7   75.02    2.01
   0   1  -7   73.82    1.89
   0  -1   7   72.75    1.95
   0  -1   7   72.82    1.81
   0  -1   7   76.17    1.87
   0  -1   7   74.33    1.70
   0  -1   7   75.54    1.85
   0  -1   7   73.17    1.97
   0  -1   7   75.16    1.89
  -1   1  -7    2.70    0.43
  -1   1  -7    2.74    0.52
  -1   1  -7    3.29    0.52
  -1   1  -7    2.56    0.42
  -1   1  -7    1.85    0.51
  -1   1  -7    2.62    0.32
  -1   1  -7    2.62    0.51
  -1   1  -7    2.64    0.47
   1  -1   7    3.47    0.47
   1  -1   7    3.19    0.42
   1  -1   7    2.84    0.42
   1  -1   7    2.41    0.42
   1  -1   7    3.63    0.35
   1  -1   7    2.80    0.53
   1  -1   7    3.82    0.51
   1  -1   7    2.63    0.46
  -2   1  -7   22.83    0.95
  -2   1  -7   23.12    0.79
  -2   1  -7   22.75    1.14
  -2   1  -7   21.03    1.16
  -2   1  -7   22.41    0.91
  -2   1  -7   21.85    0.92
  -2   1  -7   24.10    1.10
  -2   1  -7   23.32    1.13
   2  -1   7   21.37    0.99
   2  -1   7   22.72    0.88
   2  -1   7   23.26    1.00
   2  -1   7   22.20    1.00
   2  -1   7   23.78    1.16
   2  -1   7   22.93    1.06
   2  -1   7   23.79    1.06
   2  -1   7   21.27    0.81
  -3   1  -7   27.37    1.34
  -3   1  -7   26.19    1.05
  -3   1  -7   25.69    1.23
  -3   1  -7   24.22    1.07
  -3   1  -7   25.93    0.93
  -3   1  -7   26.91    0.94
  -3   1  -7   27.61    1.32
  -3   1  -7   24.48    1.32
   3  -1   7   26.13    1.13
   3  -1   7   26.66    1.20
   3  -1   7   24.63    0.89
   3  -1   7   25.13    1.16
   3  -1   7   23.78    0.97
   3  -1   7   26.26    1.33
   3  -1   7   24.77    1.19
   3  -1   7   24.80    1.19
  -4   1  -7    0.15    0.57
  -4   1  -7    1.79    0.42
  -4   1  -7    1.21    0.67
  -4   1  -7    0.95    0.69
  -4   1  -7    1.58    0.81
  -4   1  -7    1.54    0.75
  -4   1  -7    1.33    0.50
  -4   1  -7    1.35    0.55
   4  -1   7    1.84    0.67
   4  -1   7    0.66    0.63
   4  -1   7    1.89    0.64
   4  -1   7    1.00    0.53
   4  -1   7    0.00    0.75
   4  -1   7    1.23    0.38
   4  -1   7    1.22    0.55
  -5   1  -7   89.53    2.76
  -5   1  -7   89.97    2.45
  -5   1  -7   92.54    2.39
  -5   1  -7   89.24    2.44
  -5   1  -7   83.43    3.03
  -5   1  -7   94.46    2.81
  -5   1  -7   83.19    4.19
   5  -1   7   87.31    2.41
   5  -1   7   89.81    2.78
   5  -1   7   92.44    2.41
   5  -1   7   91.02    2.60
   5  -1   7   91.88    2.59
   5  -1   7   93.43    2.48
  -6   1  -7   56.43    2.51
  -6   1  -7   52.91    2.11
  -6   1  -7   56.43    2.55
  -6   1  -7   57.15    2.63
  -6   1  -7   56.80    2.05
  -6   1  -7   54.94    2.43
  -6   1  -7   54.91    2.11
   6  -1   7   54.02    2.30
   6  -1   7   48.62    1.97
   6  -1   7   52.37    2.14
   6  -1   7   53.82    2.99
   6  -1   7   56.43    2.03
   6  -1   7   51.86    1.99
  -7   1  -7    6.82    1.24
  -7   1  -7    8.62    1.57
  -7   1  -7    7.42    1.34
  -7   1  -7    8.19    1.54
  -7   1  -7    6.05    1.11
  -7   1  -7    5.82    1.55
  -7   1  -7    3.58    1.52
   7  -1   7    7.66    1.14
   7  -1   7    7.52    1.43
   7  -1   7    7.49    1.12
   7  -1   7    6.60    1.46
   7  -1   7    8.81    1.26
   7  -1   7    7.68    1.13
  -8   1  -7   -0.35    2.05
  -8   1  -7    1.06    1.70
  -8   1  -7   -2.06    2.12
  -8   1  -7   -3.83    1.90
  -8   1  -7    1.83    1.55
  -8   1  -7   -1.08    1.96
  -8   1  -7    3.11    1.55
  -8   1  -7   -4.65    1.93
   8  -1   7   -0.49    1.74
   8  -1   7    1.99    1.49
   8  -1   7    0.78    1.28
   8  -1   7   -0.12    1.31
   7   0  -7   -0.74    1.33
   7   0  -7    2.78    1.64
   7   0  -7    1.73    2.38
  -7   0   7    2.35    1.78
  -7   0   7    0.35    1.47
  -7   0   7    1.21    1.87
  -7   0   7    3.68    1.53
  -7   0   7    2.04    1.75
   6   0  -7   16.36    2.16
   6   0  -7   17.31    1.30
   6   0  -7   16.14    1.89
   6   0  -7   15.39    1.30
   6   0  -7   13.68    1.34
   6   0  -7   14.29    1.57
   6   0  -7   14.16    1.39
  -6   0   7   15.22    1.29
  -6   0   7   18.32    1.33
  -6   0   7   17.15    1.45
  -6   0   7   15.16    1.48
  -6   0   7   16.31    1.62
  -6   0   7   16.45    1.77
   5   0  -7    2.09    1.23
   5   0  -7    0.21    0.96
   5   0  -7    1.41    1.36
   5   0  -7    0.07    0.86
   5   0  -7   -0.20    0.64
   5   0  -7    0.79    1.32
   5   0  -7    0.36    0.83
  -5   0   7   -1.07    0.98
  -5   0   7    1.25    0.96
  -5   0   7    0.74    0.83
  -5   0   7    1.11    0.95
  -5   0   7    0.67    0.87
  -5   0   7    1.68    0.98
   4   0  -7   19.04    1.34
   4   0  -7   18.39    1.30
   4   0  -7   17.30    1.24
   4   0  -7   19.29    1.51
   4   0  -7   18.39    1.00
   4   0  -7   17.61    1.34
   4   0  -7   17.31    1.35
  -4   0   7   17.84    1.53
  -4   0   7   19.43    1.39
  -4   0   7   20.54    1.28
  -4   0   7   17.20    1.35
  -4   0   7   19.98    1.35
   3   0  -7   62.33    2.05
   3   0  -7   58.37    1.94
   3   0  -7   60.61    1.82
   3   0  -7   62.83    1.81
   3   0  -7   61.12    2.10
   3   0  -7   60.50    2.03
   3   0  -7   62.71    1.57
  -3   0   7   60.41    1.80
  -3   0   7   62.54    1.73
  -3   0   7   61.61    1.76
  -3   0   7   60.89    1.89
  -3   0   7   60.36    1.89
  -3   0   7   59.78    1.79
   2   0  -7   13.31    1.14
   2   0  -7   12.05    0.82
   2   0  -7   12.41    1.03
   2   0  -7   13.49    1.04
   2   0  -7   13.14    0.74
   2   0  -7   13.31    0.96
   2   0  -7   13.05    0.93
  -2   0   7   14.55    1.00
  -2   0   7   13.44    0.87
  -2   0   7   14.19    0.94
  -2   0   7   12.67    0.87
  -2   0   7   13.02    0.78
  -2   0   7   13.81    0.92
   1   0  -7    2.24    0.51
   1   0  -7    4.50    0.93
   1   0  -7    2.44    0.48
   1   0  -7    2.88    0.54
   1   0  -7    2.53    0.38
   1   0  -7    1.99    0.37
   1   0  -7    1.97    0.47
   1   0  -7    3.06    0.48
  -1   0   7    2.30    0.45
  -1   0   7    2.62    0.34
  -1   0   7    2.37    0.41
  -1   0   7    2.90    0.40
  -1   0   7    1.97    0.43
  -1   0   7    2.48    0.46
  -1   0   7    1.92    0.28
   0   0  -7  207.32    4.46
   0   0  -7  210.35    4.44
   0   0  -7  212.87    4.53
   0   0  -7  212.18    4.41
   0   0  -7  214.84    4.48
   0   0  -7  206.34    4.54
   0   0  -7  206.03    4.43
   0   0   7  211.85    4.46
   0   0   7  212.75    4.56
   0   0   7  204.14    4.25
   0   0   7  203.90    4.41
   0   0   7  210.20    4.45
   0   0   7  212.50    4.43
   0   0   7  207.75    4.50
  -1   0  -7  197.98    4.39
  -1   0  -7  203.07    4.27
  -1   0  -7  202.74    4.33
  -1   0  -7  204.38    4.29
  -1   0  -7  203.64    4.36
  -1   0  -7  205.55    4.33
   1   0   7  205.14    4.29
   1   0   7  203.47    4.29
   1   0   7  199.15    4.29
   1   0   7  199.26    4.36
   1   0   7  200.95    4.11
   1   0   7  199.36    4.29
   1   0   7  207.75    4.38
  -2   0  -7  118.72    2.78
  -2   0  -7  116.86    2.63
  -2   0  -7  120.54    2.74
  -2   0  -7  116.23    2.65
  -2   0  -7  119.66    2.74
  -2   0  -7  121.43    2.64
  -2   0  -7  118.00    2.77
  -2   0  -7  117.04    2.49
   2   0   7  116.03    2.76
   2   0   7  117.84    2.72
   2   0   7  118.77    2.51
   2   0   7  118.54    2.65
   2   0   7  120.02    2.68
   2   0   7  121.19    2.74
   2   0   7  119.19    2.63
  -3   0  -7    0.05    0.32
  -3   0  -7    0.35    0.54
  -3   0  -7    0.24    0.33
  -3   0  -7    0.02    0.46
  -3   0  -7   -0.03    0.51
  -3   0  -7    0.01    0.48
  -3   0  -7   -0.10    0.38
  -3   0  -7    0.26    0.40
   3   0   7    0.91    0.48
   3   0   7   -0.47    0.33
   3   0   7    0.08    0.54
   3   0   7   -0.40    0.41
   3   0   7    0.35    0.42
   3   0   7    0.36    0.49
   3   0   7    0.01    0.31
   3   0   7    0.46    0.38
  -4   0  -7    0.57    0.61
  -4   0  -7    0.35    0.63
  -4   0  -7    0.20    0.58
  -4   0  -7    0.67    0.43
  -4   0  -7    0.34    0.48
  -4   0  -7    0.24    0.54
  -4   0  -7    0.85    0.34
  -4   0  -7    0.04    0.51
   4   0   7    0.29    0.58
   4   0   7    0.60    0.54
   4   0   7    0.85    0.38
   4   0   7    0.43    0.47
   4   0   7    0.19    0.60
   4   0   7    0.23    0.42
   4   0   7    0.73    0.43
  -5   0  -7   31.14    0.88
  -5   0  -7   33.79    1.76
  -5   0  -7   27.13    1.55
  -5   0  -7   30.43    1.95
  -5   0  -7   32.47    1.27
  -5   0  -7   32.31    1.68
   5   0   7   32.12    1.22
   5   0   7   31.41    1.43
   5   0   7   31.02    1.50
   5   0   7   30.68    1.59
   5   0   7   31.33    1.30
   5   0   7   29.46    1.25
   5   0   7   32.59    0.96
  -6   0  -7    1.40    0.76
  -6   0  -7    0.52    1.02
  -6   0  -7    2.04    0.91
  -6   0  -7    1.02    1.49
  -6   0  -7    1.63    0.87
  -6   0  -7    2.57    1.09
  -6   0  -7    1.88    0.77
   6   0   7    1.41    0.87
   6   0   7    2.00    0.88
   6   0   7    1.64    0.64
   6   0   7    1.25    0.67
   6   0   7    1.73    0.71
   6   0   7    1.06    0.82
  -7   0  -7    5.49    1.06
  -7   0  -7    8.21    1.46
  -7   0  -7    7.12    1.00
  -7   0  -7    5.35    1.26
  -7   0  -7    5.82    1.40
  -7   0  -7    6.37    1.21
  -7   0  -7    5.61    1.37
   7   0   7    6.88    0.92
   7   0   7    5.25    1.03
   7   0   7    4.43    0.95
   7   0   7    5.73    0.90
   7   0   7    5.46    1.19
  -8   0  -7    1.23    1.66
  -8   0  -7    0.17    1.22
  -8   0  -7   -0.32    1.58
  -8   0  -7    1.50    1.38
  -8   0  -7    1.84    2.00
  -8   0  -7    3.02    1.74
  -8   0  -7    2.96    1.73
  -8   0  -7    1.44    1.84
   8   0   7    2.04    1.17
   8   0   7    1.49    1.60
   8   0   7    0.70    1.19
   8   0   7    2.67    1.10
   8   0   7    1.80    1.06
   7  -1  -7    4.86    1.37
   7  -1  -7    2.81    1.87
   7  -1  -7    3.00    1.45
   7  -1  -7    5.02    2.60
  -7   1   7    4.49    1.11
  -7   1   7    5.11    2.52
  -7   1   7    4.91    1.61
  -7   1   7    5.17    1.76
  -7   1   7    2.54    1.93
  -7   1   7    1.23    2.47
  -7   1   7    3.71    1.58
  -7   1   7    7.24    2.15
   6  -1  -7    1.41    1.35
   6  -1  -7    0.12    1.08
   6  -1  -7   -0.27    1.62
   6  -1  -7   -1.06    1.18
   6  -1  -7    1.82    1.89
   6  -1  -7    0.92    1.04
   6  -1  -7   -0.83    1.74
  -6   1   7    0.13    1.14
  -6   1   7   -0.07    1.15
  -6   1   7   -2.22    1.23
  -6   1   7    1.86    1.21
  -6   1   7    0.53    0.72
  -6   1   7    0.27    1.16
  -6   1   7   -2.49    1.41
   5  -1  -7   23.17    1.71
   5  -1  -7   20.50    1.94
   5  -1  -7   22.35    1.77
   5  -1  -7   20.73    1.62
   5  -1  -7   25.34    1.79
   5  -1  -7   23.10    1.60
   5  -1  -7   21.09    1.56
  -5   1   7   21.28    1.64
  -5   1   7   26.81    2.14
  -5   1   7   23.61    1.73
  -5   1   7   26.80    1.93
  -5   1   7   22.10    1.68
  -5   1   7   24.15    1.82
   4  -1  -7   56.35    2.34
   4  -1  -7   50.90    1.87
   4  -1  -7   54.61    2.08
   4  -1  -7   52.70    1.73
   4  -1  -7   53.61    2.28
   4  -1  -7   51.67    1.81
   4  -1  -7   53.92    2.46
  -4   1   7   53.19    1.89
  -4   1   7   53.85    2.10
  -4   1   7   56.12    1.80
  -4   1   7   57.11    1.85
  -4   1   7   52.90    2.01
   3  -1  -7   22.97    1.58
   3  -1  -7   23.73    1.13
   3  -1  -7   25.44    1.22
   3  -1  -7   23.51    1.31
   3  -1  -7   25.54    1.48
   3  -1  -7   22.99    1.64
   3  -1  -7   26.25    1.38
  -3   1   7   22.47    1.24
  -3   1   7   23.75    1.28
  -3   1   7   24.69    1.24
  -3   1   7   24.33    1.14
  -3   1   7   24.81    1.37
  -3   1   7   24.47    1.14
   2  -1  -7  100.78    2.48
   2  -1  -7  101.34    2.58
   2  -1  -7  101.73    2.44
   2  -1  -7   98.83    2.34
   2  -1  -7  100.59    2.66
   2  -1  -7   96.59    2.55
   2  -1  -7   98.35    2.43
  -2   1   7  100.65    2.28
  -2   1   7   99.87    2.41
  -2   1   7  101.69    2.50
  -2   1   7   99.23    2.36
  -2   1   7   99.33    2.45
  -2   1   7  101.19    2.53
   1  -1  -7    0.72    0.71
   1  -1  -7    1.00    0.51
   1  -1  -7   -0.05    0.51
   1  -1  -7    0.21    0.43
   1  -1  -7    1.52    0.45
   1  -1  -7    0.25    0.44
   1  -1  -7    0.47    0.40
  -1   1   7    0.58    0.40
  -1   1   7    0.65    0.36
  -1   1   7    0.51    0.27
  -1   1   7    0.83    0.47
  -1   1   7    0.87    0.37
  -1   1   7    1.02    0.42
   0  -1  -7  150.94    3.36
   0  -1  -7  152.91    3.35
   0  -1  -7  151.71    3.42
   0  -1  -7  155.66    3.32
   0  -1  -7  155.76    3.44
   0  -1  -7  151.28    3.33
   0  -1  -7  150.70    3.35
   0   1   7  154.71    3.31
   0   1   7  152.02    3.38
   0   1   7  155.55    3.39
   0   1   7  151.52    3.36
   0   1   7  157.76    3.31
  -1  -1  -7   84.44    1.98
  -1  -1  -7   87.58    2.03
  -1  -1  -7   85.88    2.07
  -1  -1  -7   84.63    2.08
  -1  -1  -7   85.57    1.99
  -1  -1  -7   86.01    2.02
  -1  -1  -7   86.30    2.05
   1   1   7   85.56    2.00
   1   1   7   83.60    2.01
   1   1   7   86.04    1.96
   1   1   7   86.22    2.04
   1   1   7   83.95    2.04
  -2  -1  -7  246.17    5.24
  -2  -1  -7  257.80    5.30
  -2  -1  -7  254.71    5.38
  -2  -1  -7  255.28    5.30
  -2  -1  -7  249.06    5.35
  -2  -1  -7  253.94    5.32
  -2  -1  -7  257.77    5.28
   2   1   7  256.35    5.36
   2   1   7  250.08    5.25
   2   1   7  257.26    5.31
   2   1   7  248.75    5.33
   2   1   7  257.37    5.32
   2   1   7  261.00    5.28
  -3  -1  -7  395.52    8.12
  -3  -1  -7  395.53    8.02
  -3  -1  -7  403.79    8.25
  -3  -1  -7  394.16    8.31
  -3  -1  -7  402.34    8.20
  -3  -1  -7  415.99    8.21
  -3  -1  -7  401.41    8.11
  -3  -1  -7  397.51    8.18
   3   1   7  394.80    8.22
   3   1   7  393.13    8.10
   3   1   7  398.69    8.16
   3   1   7  401.09    8.29
   3   1   7  399.26    8.15
   3   1   7  400.84    8.03
   3   1   7  406.30    8.16
  -4  -1  -7   11.87    0.94
  -4  -1  -7   10.77    0.74
  -4  -1  -7   11.50    0.77
  -4  -1  -7   12.42    0.72
  -4  -1  -7   10.80    0.82
  -4  -1  -7   11.67    0.90
  -4  -1  -7   12.62    0.95
  -4  -1  -7   12.23    0.66
   4   1   7   11.07    0.69
   4   1   7   11.73    0.87
   4   1   7   12.60    0.74
   4   1   7   12.93    0.95
   4   1   7   12.31    0.77
   4   1   7   12.21    0.70
  -5  -1  -7   34.98    1.24
  -5  -1  -7   34.71    0.97
  -5  -1  -7   34.64    1.25
  -5  -1  -7   35.06    1.53
  -5  -1  -7   32.60    1.49
  -5  -1  -7   31.80    1.59
   5   1   7   35.52    1.14
   5   1   7   35.30    1.22
   5   1   7   36.06    1.27
   5   1   7   34.12    1.41
  -6  -1  -7    2.04    1.02
  -6  -1  -7    3.79    0.91
  -6  -1  -7    3.11    0.73
  -6  -1  -7    4.30    0.71
  -6  -1  -7    3.33    0.82
  -6  -1  -7    2.63    0.86
  -6  -1  -7    2.88    0.80
   6   1   7    2.45    0.66
   6   1   7    3.79    0.69
   6   1   7    3.73    0.55
   6   1   7    2.93    0.80
   6   1   7    3.69    0.54
   6   1   7    4.77    0.74
  -7  -1  -7    0.71    1.14
  -7  -1  -7   -1.01    1.06
  -7  -1  -7    0.20    1.09
  -7  -1  -7    0.63    1.00
  -7  -1  -7   -0.28    0.95
  -7  -1  -7    0.52    0.77
  -7  -1  -7    0.53    1.23
   7   1   7   -0.86    0.72
   7   1   7   -0.44    0.78
   7   1   7   -0.28    0.63
   7   1   7    1.42    0.99
   7   1   7    0.51    0.58
  -8  -1  -7   -0.66    1.30
  -8  -1  -7   -0.12    1.13
  -8  -1  -7    2.24    1.56
  -8  -1  -7    0.06    1.44
  -8  -1  -7   -3.28    1.51
  -8  -1  -7    0.36    1.81
  -8  -1  -7    2.37    1.68
  -8  -1  -7   -1.29    1.33
   8   1   7    0.42    0.76
   8   1   7    0.77    0.84
   8   1   7   -0.91    1.37
   8   1   7    0.82    1.03
   8   1   7    0.79    0.74
   6  -2  -7   43.02    2.61
   6  -2  -7   43.72    2.62
   6  -2  -7   52.41    3.91
   6  -2  -7   44.19    3.79
   6  -2  -7   47.45    2.21
  -6   2   7   44.09    2.04
  -6   2   7   41.66    2.68
  -6   2   7   42.09    2.61
  -6   2   7   45.73    2.34
  -6   2   7   43.73    4.07
  -6   2   7   46.73    3.11
  -6   2   7   50.44    2.67
  -6   2   7   43.40    2.51
   5  -2  -7    0.31    0.89
   5  -2  -7   -0.08    1.47
   5  -2  -7    1.17    1.24
   5  -2  -7    1.84    1.17
   5  -2  -7    1.08    1.06
   5  -2  -7    3.14    1.06
   5  -2  -7    0.29    1.49
  -5   2   7    0.54    1.31
  -5   2   7    0.34    1.07
  -5   2   7    1.87    0.97
  -5   2   7    1.20    1.01
  -5   2   7    1.57    1.51
  -5   2   7    0.74    0.88
  -5   2   7    0.52    1.03
  -5   2   7    0.99    0.77
   4  -2  -7   88.12    2.43
   4  -2  -7   92.68    3.10
   4  -2  -7   95.98    2.66
   4  -2  -7   95.67    3.18
   4  -2  -7   93.17    2.88
   4  -2  -7   90.92    2.48
   4  -2  -7   91.99    2.56
  -4   2   7   92.73    2.58
  -4   2   7   88.04    2.32
  -4   2   7   88.18    2.79
  -4   2   7   92.94    2.77
  -4   2   7   89.86    2.42
  -4   2   7   90.60    2.60
  -4   2   7   90.74    2.45
   3  -2  -7  403.09    8.60
   3  -2  -7  409.15    8.73
   3  -2  -7  403.60    8.44
   3  -2  -7  393.14    8.27
   3  -2  -7  400.94    8.37
   3  -2  -7  415.58    8.51
   3  -2  -7  401.59    8.38
  -3   2   7  401.22    8.32
  -3   2   7  402.33    8.30
  -3   2   7  409.57    8.45
  -3   2   7  406.23    8.54
  -3   2   7  393.78    8.28
  -3   2   7  408.77    8.42
  -3   2   7  394.87    8.52
   2  -2  -7   67.78    1.92
   2  -2  -7   69.03    2.09
   2  -2  -7   66.86    1.91
   2  -2  -7   65.29    1.64
   2  -2  -7   66.44    1.85
   2  -2  -7   69.53    2.16
   2  -2  -7   66.04    1.85
  -2   2   7   66.51    1.74
  -2   2   7   67.96    1.66
  -2   2   7   67.13    1.94
  -2   2   7   66.91    1.91
  -2   2   7   65.53    1.83
  -2   2   7   69.30    1.96
   1  -2  -7  479.68    9.73
   1  -2  -7  482.38    9.88
   1  -2  -7  477.97    9.70
   1  -2  -7  481.30    9.74
   1  -2  -7  474.17    9.78
   1  -2  -7  481.05    9.72
  -1   2   7  468.41    9.77
  -1   2   7  474.17    9.77
  -1   2   7  487.18    9.68
  -1   2   7  469.38    9.77
  -1   2   7  468.13    9.52
  -1   2   7  467.22    9.64
   0  -2  -7   39.52    1.21
   0  -2  -7   40.53    1.27
   0  -2  -7   39.11    1.33
   0  -2  -7   39.81    1.23
   0  -2  -7   38.41    1.15
   0  -2  -7   39.01    1.22
   0  -2  -7   36.32    1.26
   0   2   7   39.81    1.27
   0   2   7   37.64    1.19
   0   2   7   39.40    1.13
   0   2   7   40.20    1.26
  -1  -2  -7   64.84    1.66
  -1  -2  -7   69.55    1.66
  -1  -2  -7   65.43    1.63
  -1  -2  -7   66.14    1.71
  -1  -2  -7   65.60    1.73
  -1  -2  -7   68.72    1.72
  -1  -2  -7   67.72    1.72
   1   2   7   68.42    1.67
   1   2   7   66.59    1.60
   1   2   7   67.54    1.66
   1   2   7   67.70    1.75
   1   2   7   66.28    1.65
  -2  -2  -7   36.96    1.13
  -2  -2  -7   37.96    1.11
  -2  -2  -7   38.79    1.17
  -2  -2  -7   38.01    1.09
  -2  -2  -7   36.85    1.15
  -2  -2  -7   37.14    1.05
  -2  -2  -7   38.51    1.23
   2   2   7   37.16    1.03
   2   2   7   36.91    1.19
   2   2   7   37.78    1.05
   2   2   7   37.79    1.21
   2   2   7   36.89    1.08
  -3  -2  -7    8.39    0.56
  -3  -2  -7    7.82    0.45
  -3  -2  -7    7.79    0.54
  -3  -2  -7    7.80    0.65
  -3  -2  -7    8.11    0.70
  -3  -2  -7    8.70    0.69
  -3  -2  -7    7.20    0.64
  -3  -2  -7    6.53    0.52
   3   2   7    6.93    0.66
   3   2   7    7.64    0.54
   3   2   7    8.73    0.62
   3   2   7    8.33    0.67
   3   2   7    8.31    0.60
  -4  -2  -7    5.78    0.70
  -4  -2  -7    5.72    0.54
  -4  -2  -7    5.66    0.62
  -4  -2  -7    6.35    0.49
  -4  -2  -7    5.24    0.49
  -4  -2  -7    5.22    0.46
  -4  -2  -7    5.31    0.41
  -4  -2  -7    6.39    0.56
   4   2   7    5.29    0.48
   4   2   7    5.37    0.37
   4   2   7    5.36    0.58
   4   2   7    4.78    0.44
  -5  -2  -7    0.41    0.66
  -5  -2  -7   -0.24    0.50
  -5  -2  -7   -0.41    0.39
  -5  -2  -7   -0.32    0.56
  -5  -2  -7    0.38    0.65
  -5  -2  -7    0.45    0.80
  -5  -2  -7    0.30    0.42
  -5  -2  -7    0.10    0.61
   5   2   7    0.25    0.39
   5   2   7    0.24    0.30
   5   2   7    0.17    0.38
  -6  -2  -7   76.77    2.00
  -6  -2  -7   80.16    2.17
  -6  -2  -7   74.90    1.80
  -6  -2  -7   78.65    2.30
  -6  -2  -7   80.92    2.21
  -6  -2  -7   82.35    2.32
  -6  -2  -7   77.80    2.43
  -6  -2  -7   79.78    2.56
  -7  -2  -7    0.84    1.06
  -7  -2  -7    1.15    0.93
  -7  -2  -7   -0.87    0.84
  -7  -2  -7   -0.48    0.70
  -7  -2  -7    0.97    1.06
  -7  -2  -7   -1.44    1.12
  -7  -2  -7    0.29    1.01
  -8  -2  -7    0.86    1.52
  -8  -2  -7   -1.71    1.78
  -8  -2  -7    2.21    1.23
  -8  -2  -7    0.27    1.53
  -8  -2  -7    2.97    1.33
  -8  -2  -7   -1.36    1.38
  -8  -2  -7   -0.56    1.30
  -8  -2  -7    2.09    0.97
  -9  -2  -7   14.47    2.02
  -9  -2  -7   16.91    2.82
  -9  -2  -7   15.29    2.28
   6  -3  -7    2.63    1.53
   6  -3  -7    3.25    1.71
   6  -3  -7    0.48    2.23
   6  -3  -7   -0.79    2.47
   6  -3  -7    2.45    2.17
   6  -3  -7    1.81    1.53
   6  -3  -7   -1.73    1.15
  -6   3   7    1.62    1.16
  -6   3   7    1.76    2.48
  -6   3   7   -2.31    1.77
  -6   3   7    1.76    1.51
  -6   3   7    2.77    1.25
  -6   3   7    1.70    2.06
  -6   3   7    0.31    1.45
  -6   3   7   -1.03    1.55
   5  -3  -7    9.26    1.79
   5  -3  -7    9.11    1.85
   5  -3  -7   10.92    1.48
   5  -3  -7   12.53    1.73
   5  -3  -7   12.33    1.31
   5  -3  -7   12.64    1.38
   5  -3  -7   11.01    1.13
  -5   3   7    9.52    1.31
  -5   3   7   10.08    1.53
  -5   3   7   10.38    1.20
  -5   3   7   13.32    1.35
  -5   3   7    9.36    1.34
  -5   3   7   13.65    2.06
  -5   3   7   12.19    1.14
  -5   3   7   12.81    1.07
   4  -3  -7   10.38    1.07
   4  -3  -7    7.86    1.54
   4  -3  -7    9.63    1.63
   4  -3  -7    8.66    0.99
   4  -3  -7   11.95    1.31
   4  -3  -7   11.29    1.17
   4  -3  -7   10.89    1.01
  -4   3   7    7.88    1.03
  -4   3   7    9.17    1.29
  -4   3   7   10.12    0.93
  -4   3   7   12.85    1.63
  -4   3   7    8.72    1.04
  -4   3   7   10.13    1.08
  -4   3   7    9.05    0.82
   3  -3  -7   10.57    0.95
   3  -3  -7    9.22    1.22
   3  -3  -7    9.00    1.00
   3  -3  -7   10.90    1.01
   3  -3  -7   11.23    1.23
   3  -3  -7    9.31    0.96
   3  -3  -7   10.16    0.79
  -3   3   7   10.47    0.76
  -3   3   7   10.55    0.93
  -3   3   7   10.37    1.06
  -3   3   7   11.04    0.82
  -3   3   7   10.85    1.31
  -3   3   7   11.68    1.08
  -3   3   7   11.36    0.75
   2  -3  -7  132.50    3.10
   2  -3  -7  132.56    3.34
   2  -3  -7  131.66    2.93
   2  -3  -7  128.23    3.14
   2  -3  -7  130.83    3.46
   2  -3  -7  129.57    3.08
   2  -3  -7  132.03    3.17
  -2   3   7  129.42    3.05
  -2   3   7  129.71    3.19
  -2   3   7  128.38    3.18
  -2   3   7  131.74    3.22
  -2   3   7  130.32    2.90
  -2   3   7  134.25    3.09
  -2   3   7  130.56    2.93
   1  -3  -7  272.89    5.98
   1  -3  -7  272.77    5.72
   1  -3  -7  279.97    5.81
   1  -3  -7  270.40    5.58
   1  -3  -7  273.52    5.82
   1  -3  -7  270.37    5.88
   1  -3  -7  275.15    5.80
  -1   3   7  272.47    5.56
  -1   3   7  269.53    5.82
  -1   3   7  274.53    5.84
  -1   3   7  266.56    5.86
  -1   3   7  277.81    5.73
  -1   3   7  271.63    5.65
   0  -3  -7   30.36    1.24
   0  -3  -7   33.00    1.30
   0  -3  -7   30.57    1.18
   0  -3  -7   30.81    1.02
   0  -3  -7   30.25    0.78
   0  -3  -7   29.80    1.08
   0  -3  -7   33.88    1.26
   0   3   7   30.22    1.01
   0   3   7   31.29    0.76
   0   3   7   30.93    1.08
   0   3   7   31.08    1.17
   0   3   7   28.82    1.25
  -1  -3  -7   58.14    1.64
  -1  -3  -7   59.85    1.66
  -1  -3  -7   59.41    1.66
  -1  -3  -7   60.46    1.49
  -1  -3  -7   57.86    1.53
  -1  -3  -7   57.21    1.56
   1   3   7   58.71    1.55
   1   3   7   58.41    1.50
   1   3   7   60.49    1.71
   1   3   7   60.43    1.44
   1   3   7   60.59    1.54
  -2  -3  -7    1.00    0.47
  -2  -3  -7    0.51    0.40
  -2  -3  -7    1.53    0.51
  -2  -3  -7    0.50    0.36
  -2  -3  -7    0.97    0.34
  -2  -3  -7    0.97    0.39
  -2  -3  -7    1.09    0.37
   2   3   7    1.02    0.31
   2   3   7    0.91    0.42
   2   3   7    0.88    0.29
   2   3   7    1.14    0.54
   2   3   7    1.18    0.35
  -3  -3  -7   10.72    0.55
  -3  -3  -7   11.56    0.70
  -3  -3  -7   13.24    0.68
  -3  -3  -7   12.03    0.65
  -3  -3  -7   10.86    0.47
  -3  -3  -7   13.21    0.88
  -3  -3  -7   12.20    0.78
  -3  -3  -7   12.33    0.71
  -3  -3  -7   12.28    0.95
   3   3   7   12.40    0.55
   3   3   7   11.73    0.58
   3   3   7   12.16    0.58
   3   3   7   13.17    1.01
   3   3   7   12.82    0.99
  -4  -3  -7   12.55    0.75
  -4  -3  -7   12.07    0.76
  -4  -3  -7   12.58    0.90
  -4  -3  -7   12.76    0.74
  -4  -3  -7   13.12    0.72
  -4  -3  -7   13.01    0.62
  -4  -3  -7   13.05    1.14
  -4  -3  -7   13.44    0.97
  -5  -3  -7   30.36    1.18
  -5  -3  -7   32.13    0.97
  -5  -3  -7   29.86    1.17
  -5  -3  -7   31.55    1.20
  -5  -3  -7   30.06    1.42
  -5  -3  -7   31.41    1.06
  -6  -3  -7    6.02    0.82
  -6  -3  -7    5.87    0.79
  -6  -3  -7    6.92    0.64
  -6  -3  -7    6.31    0.78
  -6  -3  -7    7.00    0.57
  -6  -3  -7    6.64    0.65
  -6  -3  -7    4.74    0.90
  -6  -3  -7    6.38    1.01
  -7  -3  -7    0.97    0.91
  -7  -3  -7    1.19    0.89
  -7  -3  -7    0.52    1.16
  -7  -3  -7    1.30    0.55
  -7  -3  -7    1.51    0.68
  -7  -3  -7   -0.44    1.10
  -7  -3  -7    1.81    0.64
  -7  -3  -7    1.81    0.77
  -7  -3  -7   -1.06    0.93
  -8  -3  -7  330.80    7.93
  -8  -3  -7  362.46    7.96
  -8  -3  -7  358.63    7.68
  -8  -3  -7  347.59    7.41
  -8  -3  -7  340.66    7.24
  -8  -3  -7  332.69    7.48
  -8  -3  -7  351.34    8.37
  -8  -3  -7  353.01    7.57
  -9  -3  -7    9.02    1.42
  -9  -3  -7    6.99    1.93
  -9  -3  -7    8.45    2.18
  -9  -3  -7    9.41    1.70
   5  -4  -7   22.32    1.74
   5  -4  -7   22.39    1.91
   5  -4  -7   22.45    1.45
   5  -4  -7   21.92    2.40
   5  -4  -7   21.93    1.60
   5  -4  -7   26.71    2.00
   5  -4  -7   21.09    2.48
  -5   4   7   22.98    1.77
  -5   4   7   24.10    2.14
  -5   4   7   21.05    1.73
  -5   4   7   21.88    1.55
  -5   4   7   23.73    2.56
  -5   4   7   20.48    1.72
  -5   4   7   21.67    1.52
  -5   4   7   24.69    2.04
   4  -4  -7   46.16    2.09
   4  -4  -7   46.04    2.33
   4  -4  -7   50.06    3.33
   4  -4  -7   44.44    2.50
   4  -4  -7   48.30    2.49
   4  -4  -7   44.55    3.03
   4  -4  -7   47.99    2.04
  -4   4   7   47.35    2.60
  -4   4   7   44.41    2.21
  -4   4   7   47.54    1.95
  -4   4   7   45.02    2.49
  -4   4   7   48.55    1.70
  -4   4   7   47.28    3.24
  -4   4   7   45.57    2.28
  -4   4   7   45.29    2.07
   3  -4  -7   -0.72    1.26
   3  -4  -7    0.43    0.89
   3  -4  -7    0.41    0.92
   3  -4  -7    0.63    0.78
   3  -4  -7    0.80    1.01
   3  -4  -7   -0.90    0.76
   3  -4  -7    1.99    1.28
  -3   4   7    0.02    1.21
  -3   4   7    0.40    0.64
  -3   4   7    0.70    0.59
  -3   4   7    0.83    0.90
  -3   4   7    1.43    0.87
  -3   4   7    0.55    0.93
  -3   4   7    0.36    0.75
   2  -4  -7   48.71    1.57
   2  -4  -7   51.49    1.91
   2  -4  -7   50.14    1.74
   2  -4  -7   52.18    2.30
   2  -4  -7   46.91    2.27
   2  -4  -7   49.48    1.82
   2  -4  -7   50.30    1.80
  -2   4   7   51.16    1.72
  -2   4   7   49.11    1.43
  -2   4   7   48.40    1.89
  -2   4   7   46.61    1.95
  -2   4   7   50.82    1.96
  -2   4   7   54.07    2.29
  -2   4   7   52.70    1.49
   1  -4  -7   29.08    1.67
   1  -4  -7   28.36    1.07
   1  -4  -7   29.16    1.48
   1  -4  -7   27.73    1.36
   1  -4  -7   29.12    1.36
   1  -4  -7   28.13    1.58
   1  -4  -7   31.70    1.20
  -1   4   7   30.67    1.33
  -1   4   7   29.01    1.01
  -1   4   7   28.88    1.43
  -1   4   7   28.99    0.96
  -1   4   7   28.05    1.69
  -1   4   7   31.77    1.51
  -1   4   7   27.83    1.31
  -1   4   7   28.57    1.23
   0  -4  -7    8.61    0.76
   0  -4  -7    9.43    0.77
   0  -4  -7    8.60    0.67
   0  -4  -7    7.81    0.71
   0  -4  -7   10.15    0.67
   0  -4  -7    8.80    0.85
   0  -4  -7   10.62    0.83
   0   4   7   10.30    0.86
   0   4   7    9.96    0.56
   0   4   7   10.99    0.80
   0   4   7   11.14    0.91
   0   4   7   10.43    0.86
   0   4   7    9.23    0.71
   0   4   7   10.70    0.83
  -1  -4  -7   26.66    1.23
  -1  -4  -7   27.37    0.95
  -1  -4  -7   26.34    1.22
  -1  -4  -7   26.47    1.17
  -1  -4  -7   27.09    1.25
  -1  -4  -7   26.98    1.04
  -1  -4  -7   26.65    0.78
   1   4   7   25.56    1.19
   1   4   7   26.98    1.06
   1   4   7   25.95    1.35
   1   4   7   25.91    1.00
   1   4   7   27.69    0.96
  -2  -4  -7   58.65    1.82
  -2  -4  -7   61.56    1.40
  -2  -4  -7   61.43    1.64
  -2  -4  -7   62.27    1.58
  -2  -4  -7   63.06    1.71
  -2  -4  -7   62.19    1.57
  -2  -4  -7   64.26    1.83
   2   4   7   62.17    1.62
   2   4   7   62.37    1.43
   2   4   7   64.65    1.72
   2   4   7   63.77    1.54
   2   4   7   62.50    1.48
   2   4   7   65.22    1.94
  -3  -4  -7   27.89    1.04
  -3  -4  -7   27.71    0.96
  -3  -4  -7   28.33    1.29
  -3  -4  -7   28.98    0.89
  -3  -4  -7   28.55    0.84
  -3  -4  -7   28.07    1.03
  -3  -4  -7   28.02    0.97
  -3  -4  -7   28.45    1.29
  -3  -4  -7   29.22    0.93
  -4  -4  -7   61.58    1.49
  -4  -4  -7   61.94    1.94
  -4  -4  -7   63.26    1.55
  -4  -4  -7   64.18    1.54
  -4  -4  -7   61.69    1.50
  -4  -4  -7   61.95    1.75
  -4  -4  -7   61.05    1.52
  -4  -4  -7   61.63    1.85
  -4  -4  -7   64.28    1.60
  -5  -4  -7   59.43    1.70
  -5  -4  -7   55.23    1.79
  -5  -4  -7   58.15    1.39
  -5  -4  -7   58.34    1.91
  -5  -4  -7   60.95    1.52
  -5  -4  -7   59.81    1.59
  -5  -4  -7   56.66    2.03
  -5  -4  -7   57.91    1.50
  -5  -4  -7   57.94    1.45
  -6  -4  -7   12.70    1.11
  -6  -4  -7   11.06    0.71
  -6  -4  -7   13.73    0.97
  -6  -4  -7   12.64    1.07
  -6  -4  -7   11.81    0.81
  -6  -4  -7   12.68    0.93
  -6  -4  -7   14.12    1.21
  -6  -4  -7   12.74    0.75
  -7  -4  -7   14.75    1.24
  -7  -4  -7   14.54    1.06
  -7  -4  -7   14.97    1.35
  -7  -4  -7   13.11    0.87
  -7  -4  -7   14.03    0.97
  -7  -4  -7   14.63    0.99
  -7  -4  -7   11.73    1.32
  -7  -4  -7   14.22    0.94
  -7  -4  -7   15.92    1.76
  -7  -4  -7   14.51    1.03
  -8  -4  -7   35.23    1.86
  -8  -4  -7   33.62    1.64
  -8  -4  -7   38.57    1.94
  -8  -4  -7   36.25    2.55
  -8  -4  -7   37.15    2.80
  -8  -4  -7   37.93    1.66
  -8  -4  -7   37.30    1.43
  -8  -4  -7   37.71    2.48
  -8  -4  -7   37.36    2.97
  -8  -4  -7   35.80    1.63
   5  -5  -7   37.93    2.87
   5  -5  -7   37.67    3.07
   5  -5  -7   39.53    2.59
   5  -5  -7   41.68    3.19
   5  -5  -7   37.30    3.18
   5  -5  -7   46.17    3.30
   5  -5  -7   36.59    2.61
  -5   5   7   35.32    2.89
  -5   5   7   42.37    3.44
  -5   5   7   37.09    2.70
  -5   5   7   40.51    3.11
  -5   5   7   37.17    3.15
  -5   5   7   48.81    3.99
  -5   5   7   41.71    2.07
   4  -5  -7    7.28    1.36
   4  -5  -7    4.71    1.23
   4  -5  -7    7.19    2.07
   4  -5  -7    8.06    2.00
   4  -5  -7    3.13    1.30
   4  -5  -7    6.46    1.70
   4  -5  -7    7.02    1.48
  -4   5   7    7.65    0.87
  -4   5   7    5.06    1.16
  -4   5   7    4.44    1.50
  -4   5   7    8.44    1.45
  -4   5   7    4.46    1.90
  -4   5   7    4.97    1.28
  -4   5   7    4.77    1.73
  -4   5   7    8.62    1.62
   3  -5  -7   10.53    1.29
   3  -5  -7    7.09    1.64
   3  -5  -7    8.12    1.72
   3  -5  -7    6.39    1.41
   3  -5  -7    9.57    1.08
   3  -5  -7    8.80    1.14
  -3   5   7    8.70    1.13
  -3   5   7    6.94    1.15
  -3   5   7    7.28    0.91
  -3   5   7    7.96    1.23
  -3   5   7    7.11    1.27
  -3   5   7    7.22    1.35
  -3   5   7    8.73    0.72
  -3   5   7    9.24    1.60
   2  -5  -7    1.49    0.80
   2  -5  -7    2.68    0.98
   2  -5  -7    2.26    1.02
   2  -5  -7    2.23    1.29
   2  -5  -7    2.38    0.80
   2  -5  -7    2.84    0.90
   2  -5  -7    3.60    1.22
  -2   5   7    2.91    0.53
  -2   5   7    2.41    0.83
  -2   5   7    2.40    0.84
  -2   5   7    2.01    1.03
  -2   5   7    1.54    0.91
  -2   5   7    2.29    1.25
  -2   5   7    2.65    0.65
  -2   5   7    2.53    1.04
   1  -5  -7    5.42    1.27
   1  -5  -7    7.60    1.00
   1  -5  -7    6.05    0.72
   1  -5  -7    5.46    0.67
   1  -5  -7    6.06    0.90
   1  -5  -7    4.76    1.04
  -1   5   7    6.36    0.83
  -1   5   7    6.64    1.01
  -1   5   7    7.25    0.85
  -1   5   7    7.23    0.61
  -1   5   7    6.58    0.95
  -1   5   7    6.03    0.54
   0  -5  -7   48.85    2.06
   0  -5  -7   49.63    1.94
   0  -5  -7   53.51    1.91
   0  -5  -7   51.56    1.44
   0  -5  -7   50.05    1.84
   0  -5  -7   52.78    1.48
   0  -5  -7   44.18    3.05
   0   5   7   51.10    1.36
   0   5   7   54.31    1.88
   0   5   7   52.50    1.74
   0   5   7   48.97    1.59
   0   5   7   52.04    1.54
   0   5   7   53.04    2.01
   0   5   7   52.26    1.42
  -1  -5  -7    7.99    1.17
  -1  -5  -7    7.39    0.52
  -1  -5  -7    6.81    0.82
  -1  -5  -7    7.07    0.53
  -1  -5  -7    7.75    0.88
  -1  -5  -7    7.13    0.77
   1   5   7    7.19    0.74
   1   5   7    7.38    0.53
   1   5   7    6.83    0.69
   1   5   7    7.42    0.60
   1   5   7    7.18    0.48
  -2  -5  -7    4.95    1.37
  -2  -5  -7    5.58    0.47
  -2  -5  -7    4.52    0.65
  -2  -5  -7    5.48    0.72
  -2  -5  -7    5.75    0.99
  -2  -5  -7    5.88    0.49
   2   5   7    5.46    0.52
   2   5   7    5.27    0.47
   2   5   7    5.67    0.37
   2   5   7    5.80    0.40
  -3  -5  -7   16.56    0.99
  -3  -5  -7   18.78    1.08
  -3  -5  -7   17.70    1.58
  -3  -5  -7   19.43    1.39
  -3  -5  -7   19.72    1.02
  -3  -5  -7   18.68    0.82
  -3  -5  -7   18.45    0.93
  -4  -5  -7   44.36    1.21
  -4  -5  -7   46.81    1.77
  -4  -5  -7   46.15    1.33
  -4  -5  -7   47.29    1.36
  -4  -5  -7   43.21    1.81
  -4  -5  -7   48.45    1.26
  -4  -5  -7   45.48    1.42
  -4  -5  -7   47.00    1.52
  -4  -5  -7   48.05    1.35
  -5  -5  -7    0.66    0.42
  -5  -5  -7   -0.12    0.83
  -5  -5  -7    0.23    0.58
  -5  -5  -7    0.79    0.90
  -5  -5  -7   -0.11    1.22
  -5  -5  -7    0.09    0.38
  -5  -5  -7   -1.11    0.81
  -5  -5  -7    1.09    0.65
  -5  -5  -7    0.07    0.39
  -5  -5  -7   -0.21    0.41
  -6  -5  -7    6.64    1.09
  -6  -5  -7    8.19    1.06
  -6  -5  -7    9.82    1.00
  -6  -5  -7    7.00    1.03
  -6  -5  -7    7.43    1.08
  -6  -5  -7    9.70    1.12
  -6  -5  -7    9.50    0.87
  -7  -5  -7    0.34    1.23
  -7  -5  -7    0.27    1.12
  -7  -5  -7    0.52    0.94
  -7  -5  -7   -0.51    1.07
  -7  -5  -7   -0.15    1.01
  -7  -5  -7   -0.26    1.23
  -7  -5  -7    3.84    1.65
  -8  -5  -7    2.82    1.48
  -8  -5  -7    1.06    1.17
  -8  -5  -7   -0.29    1.30
  -8  -5  -7    5.23    2.18
  -8  -5  -7   -1.34    1.48
  -8  -5  -7   -0.10    1.70
   4  -6  -7   -1.84    1.53
   4  -6  -7    3.21    1.42
   4  -6  -7   -3.99    2.09
   4  -6  -7    0.31    2.36
   4  -6  -7   -1.30    1.53
   4  -6  -7    1.73    2.12
   4  -6  -7    1.33    1.87
  -4   6   7    2.00    1.90
  -4   6   7    0.56    1.83
  -4   6   7    1.33    2.43
  -4   6   7    0.60    1.42
  -4   6   7    1.38    1.66
  -4   6   7    1.27    1.56
  -4   6   7   -0.63    1.31
   3  -6  -7    6.32    1.36
   3  -6  -7    8.93    2.11
   3  -6  -7    8.91    1.78
   3  -6  -7    7.81    1.23
   3  -6  -7   13.25    1.91
   3  -6  -7    6.93    1.51
   3  -6  -7    8.19    1.31
  -3   6   7    6.54    1.46
  -3   6   7    8.59    0.77
  -3   6   7    7.11    1.09
  -3   6   7    6.33    1.38
  -3   6   7    8.57    1.45
  -3   6   7   10.93    1.78
  -3   6   7    6.83    1.79
   2  -6  -7   -0.18    1.49
   2  -6  -7    2.47    1.36
   2  -6  -7    1.23    1.03
   2  -6  -7    0.18    0.90
   2  -6  -7   -1.14    1.10
   2  -6  -7    0.52    1.18
   2  -6  -7    0.58    1.51
  -2   6   7   -0.40    0.80
  -2   6   7   -0.07    0.94
  -2   6   7   -0.25    0.55
  -2   6   7    1.08    1.02
  -2   6   7    0.03    1.24
  -2   6   7    0.05    1.44
  -2   6   7    0.19    1.06
   1  -6  -7   34.46    1.65
   1  -6  -7   40.73    1.92
   1  -6  -7   36.63    2.43
   1  -6  -7   38.64    1.49
   1  -6  -7   40.16    2.03
   1  -6  -7   39.12    2.55
   1  -6  -7   34.88    2.14
  -1   6   7   41.06    1.87
  -1   6   7   39.63    2.03
  -1   6   7   41.78    2.14
  -1   6   7   37.80    1.25
  -1   6   7   40.63    1.46
  -1   6   7   38.70    1.75
  -1   6   7   38.35    1.93
   0  -6  -7  150.99    3.44
   0  -6  -7  146.10    3.61
   0  -6  -7  149.54    3.85
   0  -6  -7  145.91    4.01
   0  -6  -7  148.63    3.28
   0  -6  -7  152.30    3.78
   0   6   7  150.08    3.72
   0   6   7  146.97    3.58
   0   6   7  150.29    3.49
   0   6   7  150.51    3.41
   0   6   7  154.02    3.33
   0   6   7  148.86    3.27
  -1  -6  -7   24.48    1.77
  -1  -6  -7   23.13    1.63
  -1  -6  -7   23.32    1.14
  -1  -6  -7   24.25    0.98
  -1  -6  -7   24.25    1.75
  -1  -6  -7   24.51    1.35
  -1  -6  -7   23.37    1.70
   1   6   7   23.64    1.04
   1   6   7   24.07    1.05
   1   6   7   22.45    1.02
   1   6   7   22.94    1.25
   1   6   7   22.28    1.33
  -2  -6  -7   35.72    1.69
  -2  -6  -7   33.90    1.86
  -2  -6  -7   37.02    1.13
  -2  -6  -7   35.36    1.58
  -2  -6  -7   36.18    1.85
  -2  -6  -7   35.77    1.25
  -2  -6  -7   35.37    1.36
   2   6   7   33.64    1.07
   2   6   7   35.86    0.93
   2   6   7   34.28    0.96
   2   6   7   35.10    1.03
  -3  -6  -7    1.51    0.73
  -3  -6  -7    0.36    0.68
  -3  -6  -7    1.58    0.87
  -3  -6  -7    0.82    0.53
  -3  -6  -7    0.56    0.96
  -3  -6  -7    0.58    0.49
  -3  -6  -7    0.76    0.54
  -4  -6  -7   56.90    1.46
  -4  -6  -7   58.93    1.75
  -4  -6  -7   59.88    1.55
  -4  -6  -7   59.93    2.20
  -4  -6  -7   56.87    1.69
  -4  -6  -7   57.98    1.69
  -4  -6  -7   55.39    1.67
  -4  -6  -7   58.80    2.31
  -5  -6  -7    5.24    0.86
  -5  -6  -7    4.21    0.73
  -5  -6  -7    6.36    1.03
  -5  -6  -7    5.22    1.08
  -5  -6  -7    5.23    1.14
  -6  -6  -7    5.89    0.94
  -6  -6  -7    5.08    1.34
  -6  -6  -7    4.60    1.06
  -6  -6  -7    4.93    1.20
  -6  -6  -7    6.01    1.52
  -6  -6  -7    6.74    1.29
  -6  -6  -7    4.65    1.32
  -6  -6  -7    5.51    1.09
  -7  -6  -7    0.49    1.30
  -7  -6  -7    1.23    1.32
  -7  -6  -7   -0.07    1.32
  -7  -6  -7   -0.46    1.28
  -7  -6  -7   -0.45    1.02
  -7  -6  -7    0.43    1.37
  -7  -6  -7    0.54    1.36
  -7  -6  -7    2.21    1.89
  -8  -6  -7    6.33    1.49
  -8  -6  -7    8.29    2.41
  -8  -6  -7    5.04    1.79
  -8  -6  -7    5.08    1.77
  -8  -6  -7    5.25    1.76
  -8  -6  -7    6.44    1.59
  -8  -6  -7    2.77    1.82
  -8  -6  -7    3.60    1.58
   3  -7  -7   98.72    4.95
   3  -7  -7  106.29    5.41
   3  -7  -7   92.45    3.66
   3  -7  -7   99.88    3.90
   3  -7  -7  101.20    3.54
   3  -7  -7  122.32    6.52
  -3   7   7  100.95    3.89
  -3   7   7   94.18    5.19
  -3   7   7  103.08    2.51
  -3   7   7  106.36    3.29
   2  -7  -7   39.50    3.80
   2  -7  -7   34.75    2.33
   2  -7  -7   37.50    2.38
   2  -7  -7   34.77    2.69
   2  -7  -7   38.33    2.32
   2  -7  -7   35.63    2.60
  -2   7   7   40.14    3.29
  -2   7   7   34.07    1.34
  -2   7   7   30.91    2.60
  -2   7   7   37.74    2.88
  -2   7   7   34.76    2.52
  -2   7   7   30.45    2.03
   1  -7  -7    9.42    1.47
   1  -7  -7   12.98    1.42
   1  -7  -7   12.61    1.82
   1  -7  -7   10.49    1.68
   1  -7  -7   12.40    1.27
   1  -7  -7   13.44    1.46
   1  -7  -7   12.26    0.80
  -1   7   7   12.88    1.25
  -1   7   7   11.24    1.32
  -1   7   7   12.86    0.73
  -1   7   7   13.77    1.08
  -1   7   7   14.88    1.60
  -1   7   7   13.70    1.18
  -1   7   7   11.50    1.39
   0  -7  -7   -0.05    0.57
   0  -7  -7    0.53    1.33
   0  -7  -7    1.25    0.91
   0  -7  -7    0.25    1.13
   0  -7  -7    0.43    1.01
   0  -7  -7    0.96    1.24
   0  -7  -7   -1.28    1.20
   0   7   7    0.08    0.81
   0   7   7    0.37    0.77
   0   7   7    0.71    1.04
   0   7   7    0.35    0.73
   0   7   7    0.55    0.95
  -1  -7  -7    5.14    1.17
  -1  -7  -7    5.76    1.26
  -1  -7  -7    6.52    1.26
  -1  -7  -7    5.88    0.95
  -1  -7  -7    5.58    0.87
  -1  -7  -7    5.88    1.15
  -1  -7  -7    6.45    0.57
   1   7   7    6.21    0.84
   1   7   7    6.44    0.71
   1   7   7    6.12    0.81
   1   7   7    6.83    0.66
   1   7   7    5.98    0.76
  -2  -7  -7   46.15    1.33
  -2  -7  -7   44.95    2.38
  -2  -7  -7   45.94    2.44
  -2  -7  -7   44.82    2.03
  -2  -7  -7   49.33    1.69
  -2  -7  -7   44.60    2.19
  -2  -7  -7   44.48    1.76
  -3  -7  -7   96.59    2.52
  -3  -7  -7  106.75    3.14
  -3  -7  -7   98.00    2.48
  -3  -7  -7  102.80    2.32
  -3  -7  -7   99.53    2.82
  -3  -7  -7   99.33    3.26
  -3  -7  -7   95.19    2.67
  -4  -7  -7   23.93    1.53
  -4  -7  -7   22.24    1.50
  -4  -7  -7   20.39    1.19
  -4  -7  -7   18.07    1.06
  -4  -7  -7   16.34    1.38
  -4  -7  -7   17.86    1.37
  -4  -7  -7   22.98    1.86
  -4  -7  -7   23.15    1.68
  -5  -7  -7   24.97    1.64
  -5  -7  -7   24.34    1.81
  -5  -7  -7   31.41    2.25
  -5  -7  -7   26.19    1.82
  -5  -7  -7   23.39    1.66
  -5  -7  -7   21.20    1.80
  -6  -7  -7    7.06    1.50
  -6  -7  -7    4.53    1.44
  -6  -7  -7    6.20    1.11
  -6  -7  -7    8.97    1.77
  -6  -7  -7    5.98    1.63
  -6  -7  -7    7.19    1.14
  -6  -7  -7    6.12    1.55
  -6  -7  -7    4.66    1.36
  -7  -7  -7   -0.03    1.31
  -7  -7  -7   -1.09    1.65
  -7  -7  -7    1.27    1.50
  -7  -7  -7   -0.32    1.54
  -7  -7  -7    3.88    1.83
  -7  -7  -7   -1.06    1.93
  -7  -7  -7    0.04    1.61
  -7  -7  -7    0.73    1.83
   1  -8  -7    5.88    2.33
   1  -8  -7    6.06    1.86
   1  -8  -7    7.77    1.69
   1  -8  -7    6.21    2.80
   1  -8  -7    4.23    1.47
  -1   8   7    7.49    1.68
  -1   8   7    5.12    1.22
  -1   8   7    6.09    1.37
  -1   8   7    6.93    1.38
   0  -8  -7   -1.60    1.60
   0  -8  -7    0.04    1.79
   0  -8  -7   -2.26    1.81
   0  -8  -7    1.37    1.26
   0  -8  -7   -1.55    1.36
   0  -8  -7   -1.59    1.54
   0   8   7   -0.21    1.23
   0   8   7   -0.27    0.97
   0   8   7    1.15    1.14
   0   8   7    0.66    0.97
   0   8   7   -0.55    1.03
  -1  -8  -7    9.29    1.31
  -1  -8  -7   12.10    1.71
  -1  -8  -7   10.43    1.71
  -1  -8  -7   10.55    1.66
  -1  -8  -7    9.36    1.23
  -1  -8  -7    8.37    1.67
   1   8   7    9.80    0.84
   1   8   7   11.29    1.10
   1   8   7   12.00    0.87
   1   8   7    8.62    0.92
   1   8   7   10.37    0.97
  -2  -8  -7   -0.11    0.96
  -2  -8  -7    0.83    1.49
  -2  -8  -7    0.58    1.35
  -2  -8  -7    0.73    1.08
  -2  -8  -7    2.13    1.64
  -2  -8  -7    2.78    1.40
  -3  -8  -7   51.42    3.27
  -3  -8  -7   45.84    2.44
  -3  -8  -7   49.43    1.90
  -3  -8  -7   48.61    2.02
  -3  -8  -7   47.77    2.28
  -3  -8  -7   45.58    1.99
  -3  -8  -7   48.84    1.40
  -3  -8  -7   46.78    2.94
  -4  -8  -7   25.77    1.84
  -4  -8  -7   30.49    2.19
  -4  -8  -7   26.62    2.05
  -4  -8  -7   25.11    1.55
  -4  -8  -7   27.06    1.26
  -4  -8  -7   26.85    1.91
  -4  -8  -7   25.38    1.77
  -4  -8  -7   26.41    1.48
  -5  -8  -7   33.57    1.90
  -5  -8  -7   35.46    2.41
  -5  -8  -7   30.21    2.03
  -5  -8  -7   31.41    2.03
  -5  -8  -7   30.77    2.29
  -6  -8  -7   80.71    3.02
  -6  -8  -7   85.15    2.76
  -6  -8  -7   90.20    3.33
  -6  -8  -7   74.68    3.55
  -6  -8  -7   86.32    3.78
  -6  -8  -7   80.57    4.24
  -6  -8  -7   77.58    4.17
  -2  -9  -7    2.59    1.49
   3   6  -8   23.21    2.11
   3   6  -8   33.35    2.37
   3   6  -8   26.41    2.98
  -3  -6   8   32.58    2.54
  -3  -6   8   32.68    3.10
  -3  -6   8   26.72    1.73
  -3  -6   8   26.98    1.90
  -3  -6   8   29.94    2.11
  -3  -6   8   27.15    2.10
   2   6  -8    3.15    1.88
   2   6  -8    1.70    1.69
   2   6  -8    0.82    0.74
   2   6  -8    0.45    1.33
   2   6  -8   -1.86    1.76
  -2  -6   8   -0.04    1.60
  -2  -6   8    0.43    1.28
  -2  -6   8    0.50    1.39
  -2  -6   8    0.54    1.47
  -2  -6   8    1.73    1.57
  -2  -6   8   -0.59    0.99
  -2  -6   8   -0.67    1.26
   1   6  -8    8.54    1.82
   1   6  -8   10.82    1.43
   1   6  -8    8.85    1.36
   1   6  -8    9.78    1.08
   1   6  -8   10.64    1.81
   1   6  -8   11.79    1.91
   1   6  -8    7.84    1.54
  -1  -6   8   11.76    1.79
  -1  -6   8    7.90    1.53
  -1  -6   8    8.64    1.34
  -1  -6   8   10.64    1.32
  -1  -6   8    9.49    1.04
  -1  -6   8    9.89    1.01
  -1  -6   8   10.73    1.53
  -1  -6   8   11.86    1.86
   0   6  -8    7.13    1.41
   0   6  -8    9.80    1.92
   0   6  -8    9.12    1.80
   0   6  -8    9.27    1.23
   0   6  -8    9.70    1.20
   0   6  -8    9.06    1.35
   0   6  -8   12.43    1.95
   0   6  -8    8.32    1.51
   0  -6   8    9.00    1.43
   0  -6   8   10.73    1.59
   0  -6   8    8.36    1.57
   0  -6   8    9.48    1.46
   0  -6   8   10.77    1.39
   0  -6   8    9.77    1.76
   0  -6   8    9.46    1.11
   0  -6   8    8.17    1.48
  -1   6  -8    2.40    2.03
  -1   6  -8    1.16    0.90
  -1   6  -8    2.36    2.02
  -1   6  -8    3.87    1.61
  -1   6  -8    2.66    1.37
  -1   6  -8    4.01    1.27
   1  -6   8    2.21    1.33
   1  -6   8    2.76    1.57
   1  -6   8    5.64    1.70
   1  -6   8    2.85    1.12
   1  -6   8    1.70    1.50
   1  -6   8    2.15    1.35
   1  -6   8   -0.67    1.91
   1  -6   8   -0.15    1.35
  -2   6  -8   -0.68    2.05
  -2   6  -8    2.77    1.81
  -2   6  -8    3.31    1.32
  -2   6  -8    5.16    1.44
  -2   6  -8    3.99    2.27
  -2   6  -8    1.51    1.47
   2  -6   8    0.58    1.47
   2  -6   8    3.31    1.90
   2  -6   8   -0.44    1.68
   2  -6   8    4.87    1.65
   2  -6   8    3.00    1.36
   2  -6   8    1.33    1.59
  -3   6  -8    8.72    1.70
  -3   6  -8   13.44    2.81
  -3   6  -8   10.01    2.10
  -3   6  -8    9.79    1.31
  -3   6  -8   11.62    2.53
  -3   6  -8    8.69    1.87
  -3   6  -8   14.32    1.88
   3  -6   8   13.88    2.16
   3  -6   8    8.54    1.69
   3  -6   8    6.96    2.11
   3  -6   8    8.95    2.60
   3  -6   8   13.26    2.05
   3  -6   8   12.95    2.00
   3  -6   8    8.90    1.47
   5   5  -8   -0.39    2.65
  -5  -5   8   -1.11    1.46
  -5  -5   8    1.78    1.52
  -5  -5   8    0.99    1.76
  -5  -5   8   -1.75    1.50
   4   5  -8    4.33    1.41
   4   5  -8    2.99    1.48
   4   5  -8    2.82    1.85
   4   5  -8    2.42    2.09
   4   5  -8    5.04    1.56
   4   5  -8    1.36    1.45
  -4  -5   8    3.83    1.26
  -4  -5   8    1.56    1.38
  -4  -5   8    2.59    1.13
  -4  -5   8    1.37    1.42
  -4  -5   8    4.33    1.28
  -4  -5   8    2.39    1.16
   3   5  -8    1.15    1.15
   3   5  -8    1.49    1.69
   3   5  -8    0.02    1.62
   3   5  -8   -1.30    1.25
   3   5  -8    1.05    1.37
   3   5  -8    1.19    1.56
  -3  -5   8    1.36    0.98
  -3  -5   8    1.15    1.10
  -3  -5   8    1.57    1.28
  -3  -5   8    0.28    1.09
  -3  -5   8    1.26    1.16
  -3  -5   8    0.99    1.17
  -3  -5   8    0.51    1.29
   2   5  -8   -1.65    1.11
   2   5  -8    1.12    1.37
   2   5  -8   -0.14    1.46
   2   5  -8    1.23    1.33
   2   5  -8    0.62    0.55
   2   5  -8   -1.27    1.21
   2   5  -8   -1.33    1.14
  -2  -5   8    0.37    0.90
  -2  -5   8    1.67    1.13
  -2  -5   8    0.53    1.14
  -2  -5   8    0.04    0.84
  -2  -5   8   -0.13    1.11
  -2  -5   8    0.57    1.18
  -2  -5   8   -0.40    0.93
   1   5  -8   11.94    1.29
   1   5  -8   12.25    1.55
   1   5  -8   13.38    1.56
   1   5  -8   12.13    1.34
   1   5  -8   13.07    1.21
   1   5  -8   10.90    1.48
   1   5  -8   11.73    0.91
  -1  -5   8   10.76    1.39
  -1  -5   8   16.12    1.32
  -1  -5   8   13.01    1.29
  -1  -5   8   11.62    0.87
  -1  -5   8   13.73    1.39
  -1  -5   8   11.84    0.96
  -1  -5   8   11.71    1.09
  -1  -5   8   11.70    1.26
   0   5  -8    3.27    1.38
   0   5  -8    1.88    1.23
   0   5  -8    1.36    0.98
   0   5  -8    1.81    1.32
   0   5  -8    2.26    1.02
   0   5  -8    0.85    1.13
   0   5  -8    3.04    0.92
   0  -5   8    2.93    1.25
   0  -5   8    2.61    1.16
   0  -5   8    2.37    0.86
   0  -5   8    2.20    1.16
   0  -5   8    3.83    0.89
   0  -5   8    2.65    1.03
   0  -5   8    0.80    1.14
   0  -5   8    2.48    0.81
  -1   5  -8    9.56    1.64
  -1   5  -8    5.33    1.13
  -1   5  -8    6.01    1.08
  -1   5  -8    5.46    1.28
  -1   5  -8    6.55    1.27
  -1   5  -8    8.29    1.12
  -1   5  -8    6.71    1.02
  -1   5  -8    5.09    1.52
   1  -5   8    7.98    1.78
   1  -5   8    7.70    1.23
   1  -5   8    7.73    1.39
   1  -5   8    6.45    1.05
   1  -5   8    8.73    1.15
   1  -5   8    8.26    1.44
   1  -5   8    7.06    1.08
  -2   5  -8   12.19    1.51
  -2   5  -8   12.40    1.22
  -2   5  -8   16.42    1.48
  -2   5  -8   13.00    1.89
  -2   5  -8   14.52    1.29
  -2   5  -8   14.02    1.38
  -2   5  -8   14.73    1.29
  -2   5  -8   12.51    1.74
   2  -5   8   16.13    1.54
   2  -5   8   15.06    1.74
   2  -5   8   12.67    1.38
   2  -5   8   14.65    1.21
   2  -5   8   14.88    1.43
   2  -5   8   14.50    1.28
   2  -5   8   14.21    1.55
   2  -5   8   15.12    1.40
  -3   5  -8   13.94    1.59
  -3   5  -8   10.29    1.68
  -3   5  -8   13.01    1.39
  -3   5  -8   13.95    2.11
  -3   5  -8   15.47    1.15
  -3   5  -8   12.00    1.51
  -3   5  -8   15.59    2.04
   3  -5   8   13.87    1.77
   3  -5   8   13.13    1.19
   3  -5   8    9.87    1.96
   3  -5   8   15.17    1.36
   3  -5   8   13.17    1.73
   3  -5   8   13.99    1.69
   3  -5   8   15.24    1.63
  -4   5  -8    7.55    2.23
  -4   5  -8    5.21    1.16
  -4   5  -8    5.00    1.48
  -4   5  -8    8.85    2.58
  -4   5  -8    4.74    1.71
  -4   5  -8    4.24    1.74
   4  -5   8    4.61    1.85
   4  -5   8    8.08    1.80
   4  -5   8    6.45    1.75
   4  -5   8    5.05    2.16
   4  -5   8    6.67    1.93
   4  -5   8    5.10    1.05
   4  -5   8    5.09    1.46
  -5   5  -8    1.54    2.43
  -5   5  -8    0.77    1.80
  -5   5  -8   -7.41    2.60
  -5   5  -8   -2.13    1.69
  -5   5  -8   -1.27    2.82
  -5   5  -8    1.09    1.34
   5  -5   8    0.43    2.49
   5  -5   8    0.68    1.95
   5  -5   8    1.60    1.74
   5  -5   8   -4.68    2.07
   5  -5   8   -2.84    2.07
   5  -5   8   -0.17    1.01
   5   4  -8   44.89    3.15
   5   4  -8   44.28    2.90
   5   4  -8   35.97    2.73
   5   4  -8   36.06    3.02
   5   4  -8   36.38    2.67
   5   4  -8   37.94    2.74
  -5  -4   8   37.58    2.45
  -5  -4   8   34.97    2.48
  -5  -4   8   37.74    2.79
  -5  -4   8   38.34    2.39
  -5  -4   8   40.01    2.38
  -5  -4   8   41.59    2.35
  -5  -4   8   42.43    2.77
   4   4  -8   16.61    1.93
   4   4  -8   12.04    1.42
   4   4  -8   14.29    1.52
   4   4  -8   12.85    1.36
   4   4  -8   15.11    1.69
   4   4  -8   12.22    1.61
  -4  -4   8   13.52    1.19
  -4  -4   8   12.61    1.35
  -4  -4   8   13.77    1.17
  -4  -4   8   16.52    1.43
  -4  -4   8   13.63    1.17
  -4  -4   8   13.38    1.22
  -4  -4   8   12.16    1.16
   3   4  -8    1.68    1.14
   3   4  -8    0.95    1.10
   3   4  -8    0.07    1.03
   3   4  -8    0.58    1.05
   3   4  -8    1.13    1.31
   3   4  -8    1.77    1.06
  -3  -4   8   -0.78    0.89
  -3  -4   8    0.39    0.93
  -3  -4   8    1.26    0.92
  -3  -4   8    2.05    1.17
  -3  -4   8    0.16    0.78
  -3  -4   8   -1.03    0.82
  -3  -4   8   -0.24    1.06
   2   4  -8    0.41    1.05
   2   4  -8    0.31    1.10
   2   4  -8    1.03    1.06
   2   4  -8    1.75    1.09
   2   4  -8   -0.05    0.99
   2   4  -8   -0.20    0.82
  -2  -4   8   -0.91    0.76
  -2  -4   8   -0.02    0.99
  -2  -4   8   -0.29    0.73
  -2  -4   8    1.84    0.86
  -2  -4   8   -0.38    0.66
  -2  -4   8    1.56    0.78
  -2  -4   8    0.00    0.90
   1   4  -8    3.01    0.95
   1   4  -8    2.25    1.04
   1   4  -8    2.33    0.91
   1   4  -8    1.95    1.08
   1   4  -8    3.12    1.07
   1   4  -8    3.01    0.83
   1   4  -8    2.48    0.66
  -1  -4   8    1.80    0.85
  -1  -4   8    2.61    0.87
  -1  -4   8    1.61    0.67
  -1  -4   8    3.02    0.58
  -1  -4   8    3.08    0.95
  -1  -4   8    2.83    0.96
  -1  -4   8    2.40    0.81
  -1  -4   8    2.96    0.73
   0   4  -8    6.62    0.83
   0   4  -8    9.11    0.92
   0   4  -8    5.73    1.22
   0   4  -8    7.21    1.03
   0   4  -8    4.06    0.91
   0   4  -8    9.31    1.23
   0   4  -8    6.85    1.03
   0  -4   8    8.19    0.79
   0  -4   8    7.45    1.02
   0  -4   8    7.50    0.80
   0  -4   8    8.03    1.00
   0  -4   8    7.83    0.77
   0  -4   8    7.32    1.09
   0  -4   8    8.68    1.00
   0  -4   8    8.18    0.93
  -1   4  -8   29.31    1.69
  -1   4  -8   26.53    2.19
  -1   4  -8   28.73    1.90
  -1   4  -8   29.42    1.47
  -1   4  -8   25.84    1.76
  -1   4  -8   28.24    2.11
  -1   4  -8   27.81    1.63
   1  -4   8   25.89    1.42
   1  -4   8   29.57    1.52
   1  -4   8   28.43    1.88
   1  -4   8   31.54    1.91
   1  -4   8   28.79    2.04
   1  -4   8   26.35    1.46
   1  -4   8   27.86    1.57
   1  -4   8   31.82    1.78
  -2   4  -8   26.03    1.41
  -2   4  -8   21.84    1.71
  -2   4  -8   23.99    1.84
  -2   4  -8   27.12    1.99
  -2   4  -8   24.28    1.67
  -2   4  -8   26.56    1.54
   2  -4   8   25.58    1.59
   2  -4   8   25.81    1.87
   2  -4   8   24.62    1.46
   2  -4   8   22.56    1.97
   2  -4   8   23.85    1.57
   2  -4   8   25.24    2.02
   2  -4   8   24.87    2.24
   2  -4   8   22.34    1.76
  -3   4  -8    2.64    0.94
  -3   4  -8    1.60    1.21
  -3   4  -8   -0.08    1.35
  -3   4  -8    0.59    0.97
  -3   4  -8    0.28    1.12
  -3   4  -8    0.26    1.40
  -3   4  -8    0.20    1.01
   3  -4   8    0.65    0.86
   3  -4   8    2.64    1.19
   3  -4   8    0.56    1.13
   3  -4   8    0.58    0.76
   3  -4   8    0.88    1.00
   3  -4   8    0.21    1.77
   3  -4   8    0.69    1.61
   3  -4   8   -0.15    1.12
  -4   4  -8   81.38    2.68
  -4   4  -8   76.27    2.39
  -4   4  -8   80.06    3.57
  -4   4  -8   82.23    2.90
  -4   4  -8   77.45    3.64
  -4   4  -8   76.00    3.57
  -4   4  -8   75.82    3.13
   4  -4   8   81.09    2.73
   4  -4   8   78.72    3.22
   4  -4   8   81.04    3.14
   4  -4   8   81.87    3.10
   4  -4   8   78.40    3.70
   4  -4   8   78.40    3.00
   4  -4   8   74.96    2.23
  -5   4  -8   13.34    2.29
  -5   4  -8   12.66    1.78
  -5   4  -8   10.12    1.90
  -5   4  -8   12.76    2.10
  -5   4  -8    9.75    1.21
  -5   4  -8   10.41    1.64
  -5   4  -8   11.30    1.79
   5  -4   8   16.06    1.73
   5  -4   8   10.49    2.24
   5  -4   8    9.77    0.83
   5  -4   8   12.72    1.87
   5  -4   8   11.31    1.58
   5  -4   8   11.20    1.39
   5  -4   8    9.18    1.78
  -6   4  -8   20.64    2.66
  -6   4  -8   19.07    2.89
  -6   4  -8   17.61    1.83
  -6   4  -8   22.35    2.95
  -6   4  -8   19.58    1.62
  -6   4  -8   26.13    2.32
   6  -4   8   12.34    2.41
   6  -4   8   17.01    2.21
   6  -4   8   18.13    1.80
   6   3  -8    1.60    3.54
   6   3  -8    2.28    1.97
   6   3  -8   -1.20    1.76
   6   3  -8   -0.56    1.47
  -6  -3   8   -0.55    1.80
  -6  -3   8   -1.23    1.36
  -6  -3   8    1.39    1.39
  -6  -3   8   -2.21    1.78
  -6  -3   8    1.79    1.51
  -6  -3   8   -1.62    1.63
   5   3  -8    1.86    1.32
   5   3  -8    2.22    1.63
   5   3  -8    3.02    1.24
   5   3  -8    4.15    2.00
   5   3  -8    4.09    1.41
   5   3  -8    1.18    1.36
  -5  -3   8    2.43    1.13
  -5  -3   8    2.90    1.16
  -5  -3   8    3.15    1.20
  -5  -3   8    2.78    1.08
  -5  -3   8    2.18    1.24
  -5  -3   8    3.33    1.20
  -5  -3   8    5.23    1.34
   4   3  -8   10.06    1.20
   4   3  -8   11.06    1.37
   4   3  -8   12.16    1.40
   4   3  -8   15.11    1.42
   4   3  -8   14.36    1.23
   4   3  -8   11.98    1.64
  -4  -3   8   10.82    1.00
  -4  -3   8   11.61    1.19
  -4  -3   8   12.15    1.08
  -4  -3   8   10.71    1.18
  -4  -3   8   12.73    1.22
  -4  -3   8   11.89    1.20
  -4  -3   8   11.53    1.10
   3   3  -8    2.03    1.05
   3   3  -8    0.14    0.94
   3   3  -8    0.79    0.97
   3   3  -8    1.09    0.97
   3   3  -8    0.50    0.96
   3   3  -8   -0.73    1.15
  -3  -3   8    0.56    0.72
  -3  -3   8   -0.12    0.69
  -3  -3   8    0.25    0.74
  -3  -3   8   -0.26    0.85
  -3  -3   8    1.49    0.73
  -3  -3   8    0.28    0.77
   2   3  -8   54.58    2.01
   2   3  -8   51.39    2.07
   2   3  -8   49.66    2.08
   2   3  -8   52.96    2.06
   2   3  -8   54.01    1.90
  -2  -3   8   52.47    2.11
  -2  -3   8   53.95    1.85
  -2  -3   8   51.98    1.71
  -2  -3   8   49.94    1.92
  -2  -3   8   54.12    1.86
  -2  -3   8   54.89    1.93
  -2  -3   8   53.57    1.68
   1   3  -8   19.81    1.56
   1   3  -8   23.17    1.44
   1   3  -8   21.16    1.38
   1   3  -8   21.62    1.59
   1   3  -8   21.31    1.49
   1   3  -8   23.17    1.66
   1   3  -8   21.35    1.06
  -1  -3   8   21.92    1.47
  -1  -3   8   21.36    1.36
  -1  -3   8   23.48    1.40
  -1  -3   8   20.91    1.34
  -1  -3   8   20.79    1.48
  -1  -3   8   22.64    1.54
  -1  -3   8   21.99    1.14
   0   3  -8  126.39    2.98
   0   3  -8  121.39    3.22
   0   3  -8  123.01    2.94
   0   3  -8  123.70    3.29
   0   3  -8  126.35    3.16
   0  -3   8  117.38    3.17
   0  -3   8  121.51    3.09
   0  -3   8  120.76    2.88
   0  -3   8  120.02    3.04
   0  -3   8  126.68    3.21
   0  -3   8  124.81    2.91
   0  -3   8  123.99    3.24
   0  -3   8  125.27    2.84
  -1   3  -8  663.89   13.64
  -1   3  -8  694.57   13.61
  -1   3  -8  664.45   13.36
  -1   3  -8  654.23   13.51
  -1   3  -8  668.99   13.38
  -1   3  -8  650.08   13.47
  -1   3  -8  655.44   13.43
  -1   3  -8  646.76   13.71
   1  -3   8  649.66   13.61
   1  -3   8  653.70   13.39
   1  -3   8  668.14   13.42
   1  -3   8  664.10   13.43
   1  -3   8  665.99   13.41
   1  -3   8  656.04   13.55
   1  -3   8  652.45   13.69
   1  -3   8  659.26   13.50
  -2   3  -8   77.28    2.68
  -2   3  -8   80.61    2.44
  -2   3  -8   75.62    2.61
  -2   3  -8   82.59    2.50
  -2   3  -8   82.35    2.12
  -2   3  -8   80.03    2.13
  -2   3  -8   78.60    2.25
   2  -3   8   79.41    2.36
   2  -3   8   79.26    2.31
   2  -3   8   77.48    2.11
   2  -3   8   80.29    2.16
   2  -3   8   76.70    2.62
   2  -3   8   81.64    2.48
   2  -3   8   79.04    2.22
   2  -3   8   79.84    2.45
  -3   3  -8   -0.69    0.74
  -3   3  -8   -0.62    1.10
  -3   3  -8   -0.51    0.93
  -3   3  -8   -0.45    0.65
  -3   3  -8   -0.96    0.67
  -3   3  -8   -0.33    0.72
  -3   3  -8   -0.13    1.00
  -3   3  -8    1.05    0.96
   3  -3   8    0.20    0.68
   3  -3   8    1.02    0.60
   3  -3   8    0.49    1.16
   3  -3   8   -1.35    0.80
   3  -3   8    0.16    0.82
   3  -3   8   -0.71    0.89
   3  -3   8   -1.54    1.02
   3  -3   8    0.67    0.81
  -4   3  -8   19.66    1.38
  -4   3  -8   20.61    1.63
  -4   3  -8   21.45    1.43
  -4   3  -8   21.83    1.56
  -4   3  -8   19.84    1.49
  -4   3  -8   22.69    1.52
  -4   3  -8   21.74    1.41
  -4   3  -8   21.71    1.70
   4  -3   8   22.17    1.46
   4  -3   8   21.43    1.14
   4  -3   8   18.09    1.60
   4  -3   8   21.16    1.97
   4  -3   8   20.58    1.41
   4  -3   8   20.32    1.54
   4  -3   8   22.94    1.48
  -5   3  -8    1.86    1.22
  -5   3  -8    1.36    1.37
  -5   3  -8    0.80    1.02
  -5   3  -8    1.18    1.50
  -5   3  -8    0.16    1.57
  -5   3  -8   -0.88    0.93
  -5   3  -8    0.51    1.48
   5  -3   8    1.12    1.28
   5  -3   8   -0.48    0.97
   5  -3   8    2.16    1.18
   5  -3   8    1.58    1.36
   5  -3   8    0.86    0.56
   5  -3   8    1.37    1.19
   5  -3   8    0.29    1.40
  -6   3  -8    0.66    2.13
  -6   3  -8    3.23    1.87
  -6   3  -8    6.62    1.78
  -6   3  -8    4.42    1.34
  -6   3  -8    1.94    1.91
  -6   3  -8    4.70    1.27
  -6   3  -8    6.49    1.58
   6  -3   8    2.59    1.47
   6  -3   8    5.64    1.40
   6  -3   8    3.54    1.66
   6  -3   8    5.36    1.74
   6  -3   8    4.29    1.46
   6  -3   8    5.54    1.54
  -7   3  -8    7.27    1.85
  -7   3  -8    6.13    2.59
  -7   3  -8    4.07    2.53
  -7   3  -8    8.28    1.71
   7  -3   8    8.98    2.66
   7  -3   8    8.27    1.75
   6   2  -8   33.72    2.85
   6   2  -8   34.74    2.98
   6   2  -8   33.74    2.38
   6   2  -8   34.75    2.76
   6   2  -8   38.60    2.64
  -6  -2   8   36.04    2.32
  -6  -2   8   36.18    2.79
  -6  -2   8   32.73    2.50
  -6  -2   8   37.30    2.66
  -6  -2   8   32.68    2.63
  -6  -2   8   35.62    2.91
   5   2  -8    4.29    1.83
   5   2  -8    3.34    1.26
   5   2  -8    4.15    1.23
   5   2  -8    2.51    1.41
   5   2  -8    2.43    1.10
   5   2  -8    1.18    1.51
  -5  -2   8    5.32    1.16
  -5  -2   8    2.97    1.02
  -5  -2   8    3.74    1.15
  -5  -2   8    4.41    1.11
  -5  -2   8    3.46    1.20
  -5  -2   8    3.95    1.04
  -5  -2   8    1.94    0.98
   4   2  -8   -0.57    1.31
   4   2  -8   -0.83    0.91
   4   2  -8    0.41    1.11
   4   2  -8    0.92    0.93
   4   2  -8   -0.28    1.00
   4   2  -8    0.01    1.06
  -4  -2   8    0.98    0.87
  -4  -2   8    0.24    0.88
  -4  -2   8   -0.94    0.83
  -4  -2   8    0.22    0.82
  -4  -2   8    0.88    0.74
  -4  -2   8   -0.46    0.80
  -4  -2   8    0.93    0.79
   3   2  -8    0.70    0.80
   3   2  -8   -0.70    0.98
   3   2  -8    0.07    0.79
   3   2  -8   -1.19    0.86
   3   2  -8    1.30    0.89
   3   2  -8    0.59    1.01
  -3  -2   8    0.08    0.70
  -3  -2   8    0.84    0.60
  -3  -2   8    0.14    0.67
  -3  -2   8    0.10    0.77
  -3  -2   8    0.51    0.69
  -3  -2   8    0.94    0.73
  -3  -2   8    0.26    0.74
   2   2  -8   -0.50    0.74
   2   2  -8   -0.27    0.38
   2   2  -8    0.01    0.73
   2   2  -8   -0.20    0.36
   2   2  -8   -0.01    0.89
   2   2  -8    0.91    0.74
   2   2  -8    0.84    0.78
   2   2  -8    0.39    0.73
  -2  -2   8    0.34    0.56
  -2  -2   8    1.03    0.78
  -2  -2   8    0.13    0.57
  -2  -2   8   -0.07    0.67
  -2  -2   8    0.51    0.61
  -2  -2   8   -0.13    0.50
  -2  -2   8   -0.23    0.65
   1   2  -8   50.28    1.80
   1   2  -8   49.71    1.46
   1   2  -8   50.84    1.81
   1   2  -8   51.08    1.87
   1   2  -8   53.68    1.83
   1   2  -8   54.16    1.72
   1   2  -8   47.48    1.67
  -1  -2   8   52.32    1.75
  -1  -2   8   53.48    1.83
  -1  -2   8   51.44    1.55
  -1  -2   8   50.98    1.67
  -1  -2   8   50.09    1.46
  -1  -2   8   54.07    1.66
  -1  -2   8   49.94    1.66
   0   2  -8  192.99    4.35
   0   2  -8  196.99    4.26
   0   2  -8  195.21    4.40
   0   2  -8  185.58    4.24
   0   2  -8  193.32    4.23
   0   2  -8  198.73    4.41
   0   2  -8  192.44    4.48
   0  -2   8  195.48    4.43
   0  -2   8  192.64    4.30
   0  -2   8  192.32    4.42
   0  -2   8  191.17    4.31
   0  -2   8  190.97    4.14
   0  -2   8  199.63    4.24
   0  -2   8  201.29    4.30
  -1   2  -8  166.46    3.98
  -1   2  -8  164.74    3.90
  -1   2  -8  162.90    3.77
  -1   2  -8  164.86    3.71
  -1   2  -8  167.26    3.77
  -1   2  -8  167.75    3.68
  -1   2  -8  166.54    3.58
  -1   2  -8  171.92    3.88
   1  -2   8  162.99    3.68
   1  -2   8  164.41    3.76
   1  -2   8  167.87    3.70
   1  -2   8  163.50    3.60
   1  -2   8  165.24    3.88
   1  -2   8  165.35    3.71
   1  -2   8  168.46    3.81
   1  -2   8  165.21    3.92
  -2   2  -8   38.69    1.63
  -2   2  -8   36.38    1.76
  -2   2  -8   39.54    1.41
  -2   2  -8   38.40    1.62
  -2   2  -8   34.58    1.75
  -2   2  -8   38.25    1.33
  -2   2  -8   38.46    1.40
  -2   2  -8   38.84    1.25
   2  -2   8   41.68    1.52
   2  -2   8   38.24    1.44
   2  -2   8   38.59    1.30
   2  -2   8   37.47    1.57
   2  -2   8   36.79    1.72
   2  -2   8   42.33    1.48
   2  -2   8   40.09    1.58
   2  -2   8   36.55    1.30
  -3   2  -8  221.27    5.53
  -3   2  -8  227.88    5.39
  -3   2  -8  232.11    4.98
  -3   2  -8  236.37    5.11
  -3   2  -8  235.53    5.33
  -3   2  -8  231.90    4.98
  -3   2  -8  242.06    5.27
  -3   2  -8  237.13    4.96
   3  -2   8  223.46    4.99
   3  -2   8  235.44    5.14
   3  -2   8  234.36    5.16
   3  -2   8  229.51    5.37
   3  -2   8  233.95    5.11
   3  -2   8  230.83    4.90
   3  -2   8  228.92    5.18
   3  -2   8  229.72    5.19
  -4   2  -8   51.25    2.39
  -4   2  -8   51.39    1.59
  -4   2  -8   49.27    2.28
  -4   2  -8   58.22    2.21
  -4   2  -8   54.70    1.90
  -4   2  -8   50.01    1.73
  -4   2  -8   50.30    1.72
  -4   2  -8   55.35    2.23
   4  -2   8   53.52    2.08
   4  -2   8   50.38    1.93
   4  -2   8   48.91    2.05
   4  -2   8   50.46    1.73
   4  -2   8   53.71    2.05
   4  -2   8   50.79    1.46
   4  -2   8   51.55    2.38
  -5   2  -8    0.78    0.81
  -5   2  -8    0.65    1.00
  -5   2  -8   -0.62    1.18
  -5   2  -8    2.84    1.25
  -5   2  -8    0.40    1.32
  -5   2  -8   -0.25    0.82
  -5   2  -8   -0.47    1.15
   5  -2   8    1.64    1.12
   5  -2   8    0.12    0.48
   5  -2   8    1.90    1.02
   5  -2   8    1.12    1.26
   5  -2   8    0.29    0.94
   5  -2   8    0.28    0.96
   5  -2   8    0.49    0.81
  -6   2  -8    0.61    1.40
  -6   2  -8    1.41    1.52
  -6   2  -8   -1.81    1.42
  -6   2  -8    0.81    1.08
  -6   2  -8    1.09    1.47
  -6   2  -8   -1.41    1.07
  -6   2  -8    0.27    1.05
   6  -2   8   -0.98    1.42
   6  -2   8    0.93    1.07
   6  -2   8    1.16    1.30
   6  -2   8   -0.73    1.32
   6  -2   8    0.11    1.14
  -7   2  -8    8.23    1.54
  -7   2  -8   10.83    2.39
  -7   2  -8   13.20    2.12
  -7   2  -8   12.89    1.70
  -7   2  -8    8.85    2.11
  -7   2  -8    9.77    2.10
  -7   2  -8   10.88    1.60
   7  -2   8    8.94    1.83
   7  -2   8    8.73    1.45
   7  -2   8   11.03    1.48
   7  -2   8    6.60    1.90
   7  -2   8    9.07    1.53
   7  -2   8   10.13    1.75
   6   1  -8    1.42    2.14
   6   1  -8    1.17    1.25
   6   1  -8    0.48    1.38
   6   1  -8    2.70    1.42
   6   1  -8    2.49    2.33
   6   1  -8    0.96    1.65
  -6  -1   8   -0.88    1.56
  -6  -1   8    1.12    1.23
  -6  -1   8    1.24    1.34
  -6  -1   8   -0.51    1.29
  -6  -1   8    0.13    1.39
  -6  -1   8    2.39    1.53
   5   1  -8    0.56    0.99
   5   1  -8    0.46    1.12
   5   1  -8    0.27    1.39
   5   1  -8   -1.03    1.04
   5   1  -8   -0.82    1.44
   5   1  -8    2.09    1.65
  -5  -1   8    0.99    1.17
  -5  -1   8    0.32    1.00
  -5  -1   8    1.42    1.11
  -5  -1   8    0.32    1.00
  -5  -1   8   -1.43    0.99
  -5  -1   8    0.06    0.99
   4   1  -8    0.75    0.85
   4   1  -8   -0.11    1.18
   4   1  -8   -0.20    0.79
   4   1  -8    0.46    1.14
   4   1  -8    0.93    1.13
   4   1  -8    0.00    0.89
  -4  -1   8    0.08    0.81
  -4  -1   8   -0.58    0.90
  -4  -1   8   -0.34    0.81
  -4  -1   8    1.39    0.83
  -4  -1   8    0.29    0.80
   3   1  -8  135.39    3.38
   3   1  -8  133.92    3.43
   3   1  -8  131.15    2.80
   3   1  -8  130.95    3.35
   3   1  -8  132.51    3.22
   3   1  -8  130.45    3.28
   3   1  -8  128.80    2.78
   3   1  -8  129.62    3.48
  -3  -1   8  134.36    3.13
  -3  -1   8  131.18    3.22
  -3  -1   8  132.15    3.16
  -3  -1   8  135.19    3.03
  -3  -1   8  131.87    3.15
  -3  -1   8  133.40    3.28
  -3  -1   8  127.72    3.28
   2   1  -8   26.46    0.94
   2   1  -8   27.10    1.36
   2   1  -8   26.11    0.95
   2   1  -8   24.54    1.55
   2   1  -8   28.67    1.46
   2   1  -8   28.03    1.45
  -2  -1   8   29.79    1.25
  -2  -1   8   26.93    1.00
  -2  -1   8   26.37    1.32
  -2  -1   8   24.40    1.33
  -2  -1   8   27.03    1.32
  -2  -1   8   27.72    1.12
   1   1  -8   88.90    2.29
   1   1  -8   90.33    2.10
   1   1  -8   91.64    2.44
   1   1  -8   87.38    2.27
   1   1  -8   87.74    2.31
   1   1  -8   88.82    2.31
   1   1  -8   86.15    2.38
  -1  -1   8   85.32    2.26
  -1  -1   8   85.66    2.02
  -1  -1   8   87.04    2.31
  -1  -1   8   90.27    2.22
  -1  -1   8   89.37    2.44
  -1  -1   8   86.13    2.17
  -1  -1   8   88.40    2.26
   0   1  -8   44.08    1.51
   0   1  -8   41.40    1.52
   0   1  -8   43.72    1.45
   0   1  -8   41.81    1.41
   0   1  -8   43.16    1.36
   0   1  -8   42.16    1.54
   0   1  -8   43.06    1.38
   0  -1   8   41.62    1.49
   0  -1   8   42.06    1.33
   0  -1   8   43.23    1.39
   0  -1   8   43.97    1.54
   0  -1   8   41.49    1.15
   0  -1   8   43.18    1.39
   0  -1   8   42.13    1.40
  -1   1  -8    9.47    0.67
  -1   1  -8   11.04    1.04
  -1   1  -8    9.36    0.75
  -1   1  -8   10.78    0.77
  -1   1  -8   12.60    1.09
  -1   1  -8    9.89    0.85
  -1   1  -8   10.26    0.63
  -1   1  -8   10.94    0.87
   1  -1   8   11.85    1.03
   1  -1   8   10.46    0.71
   1  -1   8   10.14    0.63
   1  -1   8    9.68    0.67
   1  -1   8   11.93    0.87
   1  -1   8   12.31    0.87
   1  -1   8   11.81    1.01
  -2   1  -8    0.74    0.62
  -2   1  -8    1.18    0.63
  -2   1  -8    2.07    0.69
  -2   1  -8    1.38    0.48
  -2   1  -8    1.32    0.50
  -2   1  -8    1.52    0.38
  -2   1  -8    0.91    0.62
  -2   1  -8    1.52    0.49
   2  -1   8    0.42    0.49
   2  -1   8    2.28    0.67
   2  -1   8    1.56    0.56
   2  -1   8    1.38    0.53
   2  -1   8    1.66    0.51
   2  -1   8    0.93    0.45
   2  -1   8    0.80    0.50
   2  -1   8    1.14    0.35
  -3   1  -8    3.82    0.50
  -3   1  -8    5.04    0.81
  -3   1  -8    5.32    0.57
  -3   1  -8    4.20    0.58
  -3   1  -8    4.56    0.73
  -3   1  -8    3.41    0.76
  -3   1  -8    3.55    0.59
  -3   1  -8    3.83    0.77
   3  -1   8    3.96    0.51
   3  -1   8    3.88    0.67
   3  -1   8    4.01    0.65
   3  -1   8    4.46    0.58
   3  -1   8    3.42    0.76
   3  -1   8    4.84    0.51
   3  -1   8    3.41    0.67
   3  -1   8    5.31    0.73
  -4   1  -8   27.21    1.57
  -4   1  -8   23.73    1.85
  -4   1  -8   28.90    1.16
  -4   1  -8   27.71    1.73
  -4   1  -8   25.03    1.69
  -4   1  -8   25.63    1.31
  -4   1  -8   23.95    1.64
  -4   1  -8   26.65    1.07
   4  -1   8   26.55    1.40
   4  -1   8   26.83    1.20
   4  -1   8   26.48    1.47
   4  -1   8   27.03    1.50
   4  -1   8   26.60    1.01
   4  -1   8   26.20    1.52
   4  -1   8   25.12    1.75
  -5   1  -8   27.22    2.07
  -5   1  -8   26.01    1.01
  -5   1  -8   29.96    1.87
  -5   1  -8   29.70    2.01
  -5   1  -8   30.20    1.54
  -5   1  -8   29.86    1.97
  -5   1  -8   28.32    1.40
  -5   1  -8   28.02    1.54
   5  -1   8   27.50    1.88
   5  -1   8   27.20    1.00
   5  -1   8   30.36    1.96
   5  -1   8   28.12    1.80
   5  -1   8   27.90    1.44
   5  -1   8   28.58    1.55
   5  -1   8   29.45    1.54
  -6   1  -8    4.71    0.99
  -6   1  -8    4.31    1.41
  -6   1  -8    4.97    0.98
  -6   1  -8    7.07    1.41
  -6   1  -8    4.43    1.29
  -6   1  -8    4.07    1.05
  -6   1  -8    5.38    1.28
   6  -1   8    5.82    1.31
   6  -1   8    7.54    1.08
   6  -1   8    6.16    0.98
   6  -1   8    5.92    0.98
   6  -1   8    5.45    0.98
   6  -1   8    5.74    1.24
  -7   1  -8   79.01    3.63
  -7   1  -8   86.40    3.48
  -7   1  -8   81.20    2.91
  -7   1  -8   75.64    3.73
  -7   1  -8   82.76    2.86
  -7   1  -8   80.50    3.02
  -7   1  -8   79.95    3.68
   7  -1   8   75.54    2.68
   7  -1   8   76.54    3.32
   7  -1   8   77.99    2.79
   7  -1   8   82.86    2.80
   7  -1   8   78.74    3.27
   7  -1   8   79.74    3.04
  -8   1  -8   21.22    1.98
  -8   1  -8   19.42    2.48
  -8   1  -8   24.40    1.97
   8  -1   8   25.66    2.01
   8  -1   8   27.62    1.84
   6   0  -8   15.35    2.38
   6   0  -8   11.66    2.17
   6   0  -8   12.02    1.43
   6   0  -8   12.19    1.64
   6   0  -8   13.27    2.05
   6   0  -8   15.88    1.51
  -6   0   8   13.92    1.50
  -6   0   8   16.31    1.72
  -6   0   8   15.56    1.51
  -6   0   8   12.73    1.61
  -6   0   8   16.38    1.51
  -6   0   8   17.00    1.92
   5   0  -8    7.95    1.16
   5   0  -8    7.14    1.59
   5   0  -8    5.43    1.12
   5   0  -8    7.60    1.30
   5   0  -8    7.38    1.67
   5   0  -8    4.37    1.72
   5   0  -8    6.62    0.76
  -5   0   8    8.79    1.21
  -5   0   8    8.98    1.17
  -5   0   8    7.40    1.17
  -5   0   8    8.95    1.09
  -5   0   8    6.19    1.38
  -5   0   8    6.59    1.05
   4   0  -8    5.86    0.93
   4   0  -8    8.96    1.32
   4   0  -8    6.72    0.70
   4   0  -8    6.45    1.44
   4   0  -8    6.78    1.28
   4   0  -8    7.18    0.99
   4   0  -8    7.25    1.24
  -4   0   8    8.25    1.04
  -4   0   8    8.04    0.91
  -4   0   8    7.85    0.95
  -4   0   8    7.11    0.87
  -4   0   8    7.70    0.96
  -4   0   8    8.09    0.97
   3   0  -8   30.90    1.49
   3   0  -8   27.63    1.55
   3   0  -8   30.78    1.83
   3   0  -8   30.79    1.75
   3   0  -8   28.55    1.43
   3   0  -8   28.77    1.14
   3   0  -8   30.90    1.77
  -3   0   8   28.41    1.46
  -3   0   8   29.63    1.31
  -3   0   8   27.51    1.33
  -3   0   8   29.72    1.42
  -3   0   8   31.65    1.45
  -3   0   8   28.74    1.58
   2   0  -8   92.96    2.14
   2   0  -8   94.91    2.61
   2   0  -8   90.46    2.46
   2   0  -8   90.61    2.39
   2   0  -8   96.12    2.19
   2   0  -8   93.92    2.51
   2   0  -8   93.17    2.40
   2   0  -8   91.49    2.51
  -2   0   8   95.01    2.21
  -2   0   8   92.99    2.12
  -2   0   8   90.41    2.43
  -2   0   8   91.49    2.30
  -2   0   8   92.22    2.39
  -2   0   8   92.80    2.30
  -2   0   8   89.15    2.41
   1   0  -8   34.17    1.10
   1   0  -8   34.46    1.29
   1   0  -8   34.89    1.31
   1   0  -8   34.63    1.39
   1   0  -8   34.55    1.13
   1   0  -8   33.94    1.35
   1   0  -8   35.18    1.30
   1   0  -8   33.96    1.46
  -1   0   8   34.51    0.95
  -1   0   8   34.49    1.21
  -1   0   8   34.59    1.18
  -1   0   8   33.11    1.27
  -1   0   8   34.29    1.01
  -1   0   8   33.74    1.31
  -1   0   8   33.36    1.30
   0   0  -8   40.90    1.31
   0   0  -8   43.62    1.35
   0   0  -8   43.85    1.40
   0   0  -8   46.52    1.54
   0   0  -8   43.62    1.49
   0   0  -8   45.95    1.44
   0   0  -8   45.64    1.41
   0   0   8   45.29    1.39
   0   0   8   42.52    1.05
   0   0   8   43.30    1.32
   0   0   8   44.04    1.38
   0   0   8   43.62    1.32
   0   0   8   43.36    1.42
  -1   0  -8    1.59    0.46
  -1   0  -8    0.76    0.46
  -1   0  -8    2.24    0.53
  -1   0  -8    0.90    0.46
  -1   0  -8    1.47    0.46
  -1   0  -8    0.63    0.49
  -1   0  -8    0.94    0.50
   1   0   8    1.37    0.25
   1   0   8    1.80    0.45
   1   0   8    1.95    0.45
   1   0   8    1.56    0.44
   1   0   8    1.97    0.54
   1   0   8    1.26    0.49
   1   0   8    1.68    0.44
  -2   0  -8   47.40    1.51
  -2   0  -8   47.84    1.56
  -2   0  -8   47.30    1.52
  -2   0  -8   46.37    1.38
  -2   0  -8   46.76    1.13
  -2   0  -8   48.21    1.56
  -2   0  -8   48.36    1.37
  -2   0  -8   46.14    1.37
   2   0   8   48.11    1.47
   2   0   8   48.41    1.38
   2   0   8   47.17    1.43
   2   0   8   47.47    1.39
   2   0   8   45.62    1.16
   2   0   8   48.12    1.55
   2   0   8   47.10    1.50
  -3   0  -8   14.72    0.70
  -3   0  -8   15.11    1.19
  -3   0  -8   14.67    0.88
  -3   0  -8   14.05    0.94
  -3   0  -8   14.23    1.09
  -3   0  -8   14.08    0.79
  -3   0  -8   12.81    0.94
  -3   0  -8   14.30    1.11
   3   0   8   13.47    0.72
   3   0   8   14.56    0.83
   3   0   8   14.10    1.12
   3   0   8   13.91    0.92
   3   0   8   15.29    1.14
  -4   0  -8    1.04    0.64
  -4   0  -8    1.51    0.65
  -4   0  -8    0.77    0.43
  -4   0  -8    1.27    0.44
  -4   0  -8    0.57    0.56
  -4   0  -8   -0.10    0.69
  -4   0  -8    0.40    0.52
   4   0   8    0.90    0.47
   4   0   8   -0.19    0.59
   4   0   8    0.79    0.47
   4   0   8    1.02    0.74
   4   0   8    0.80    0.56
   4   0   8    1.46    0.61
   4   0   8    0.58    0.45
  -5   0  -8   26.23    1.77
  -5   0  -8   26.47    1.49
  -5   0  -8   29.35    1.26
  -5   0  -8   27.60    1.73
  -5   0  -8   26.53    0.94
  -5   0  -8   27.54    1.83
  -5   0  -8   25.02    1.34
  -5   0  -8   25.94    1.58
   5   0   8   25.11    1.57
   5   0   8   28.90    1.28
   5   0   8   30.70    1.30
   5   0   8   26.91    1.26
   5   0   8   27.57    1.67
   5   0   8   28.28    1.04
   5   0   8   26.90    1.47
  -6   0  -8   21.38    1.49
  -6   0  -8   21.57    1.48
  -6   0  -8   22.78    1.59
  -6   0  -8   22.52    1.46
  -6   0  -8   17.34    1.24
  -6   0  -8   21.47    1.87
  -6   0  -8   20.18    1.50
   6   0   8   22.80    1.41
   6   0   8   19.89    1.37
   6   0   8   21.23    1.31
   6   0   8   19.24    1.55
   6   0   8   18.28    1.30
   6   0   8   18.72    1.76
  -7   0  -8    2.62    1.11
  -7   0  -8    2.14    1.30
  -7   0  -8    1.55    1.49
  -7   0  -8    2.72    1.43
  -7   0  -8    2.24    1.52
  -7   0  -8    1.24    1.17
  -7   0  -8    1.78    0.96
   7   0   8    1.61    1.08
   7   0   8    1.42    0.92
   7   0   8    1.29    1.19
   7   0   8    0.09    0.86
   7   0   8    0.40    1.27
   7   0   8    2.53    0.93
  -8   0  -8   -2.20    1.97
  -8   0  -8    0.93    1.95
  -8   0  -8    1.82    1.47
  -8   0  -8    0.52    1.47
  -8   0  -8   -0.24    1.93
  -8   0  -8   -0.45    1.70
  -8   0  -8   -0.27    1.64
   8   0   8   -0.24    1.71
   8   0   8    3.78    1.28
   8   0   8   -0.06    1.05
   8   0   8    1.33    1.68
   8   0   8    1.56    1.20
   6  -1  -8   21.37    1.95
   6  -1  -8   26.15    2.53
   6  -1  -8   21.37    1.40
   6  -1  -8   23.04    1.79
   6  -1  -8   23.53    1.58
   6  -1  -8   19.40    2.32
   6  -1  -8   21.31    2.03
  -6   1   8   25.29    1.64
  -6   1   8   22.42    1.81
  -6   1   8   21.98    1.89
  -6   1   8   25.63    1.74
  -6   1   8   20.42    1.67
  -6   1   8   26.03    1.82
   5  -1  -8    0.72    0.97
   5  -1  -8   -1.26    1.64
   5  -1  -8   -1.75    1.59
   5  -1  -8   -1.43    0.96
   5  -1  -8    0.07    1.15
   5  -1  -8    0.56    1.45
   5  -1  -8   -0.61    1.26
  -5   1   8    1.00    1.10
  -5   1   8    1.23    0.99
  -5   1   8   -0.15    1.07
  -5   1   8   -2.42    1.25
  -5   1   8    1.14    1.04
  -5   1   8    0.33    1.27
   4  -1  -8    3.52    1.26
   4  -1  -8    0.19    1.18
   4  -1  -8    1.56    1.04
   4  -1  -8    2.17    1.19
   4  -1  -8    3.22    0.81
   4  -1  -8    3.19    0.81
   4  -1  -8    3.84    0.93
  -4   1   8    2.67    1.05
  -4   1   8    2.98    0.89
  -4   1   8    2.75    0.82
  -4   1   8    3.11    0.88
  -4   1   8    4.83    0.81
  -4   1   8    2.06    0.84
   3  -1  -8    2.75    0.66
   3  -1  -8    4.81    1.06
   3  -1  -8    3.64    0.85
   3  -1  -8    3.35    0.95
   3  -1  -8    2.16    0.71
   3  -1  -8    4.19    1.03
   3  -1  -8    3.52    0.76
  -3   1   8    4.03    0.78
  -3   1   8    2.67    0.65
  -3   1   8    3.97    0.69
  -3   1   8    3.83    0.79
  -3   1   8    3.44    0.79
  -3   1   8    3.16    0.72
   2  -1  -8   45.91    1.90
   2  -1  -8   44.25    1.58
   2  -1  -8   47.79    1.45
   2  -1  -8   42.62    1.79
   2  -1  -8   45.06    1.55
   2  -1  -8   44.39    1.66
   2  -1  -8   47.26    1.68
  -2   1   8   45.77    1.43
  -2   1   8   44.85    1.60
  -2   1   8   45.58    1.32
  -2   1   8   43.45    1.65
  -2   1   8   44.79    1.56
  -2   1   8   44.95    1.50
   1  -1  -8   57.06    1.78
   1  -1  -8   55.03    1.75
   1  -1  -8   58.67    1.87
   1  -1  -8   58.66    1.58
   1  -1  -8   55.09    1.66
   1  -1  -8   59.93    1.69
   1  -1  -8   57.11    1.69
  -1   1   8   55.06    1.68
  -1   1   8   55.95    1.56
  -1   1   8   57.38    1.37
  -1   1   8   57.99    1.31
  -1   1   8   58.39    1.72
  -1   1   8   58.20    1.57
  -1   1   8   55.37    1.67
   0  -1  -8   30.84    1.22
   0  -1  -8   29.71    1.17
   0  -1  -8   29.75    1.10
   0  -1  -8   28.75    1.13
   0  -1  -8   29.07    1.26
   0  -1  -8   29.39    1.11
   0  -1  -8   30.30    1.18
   0  -1  -8   30.40    1.09
   0   1   8   28.49    1.06
   0   1   8   28.96    1.16
   0   1   8   30.04    1.17
   0   1   8   30.31    1.03
   0   1   8   28.87    1.13
  -1  -1  -8   19.36    0.94
  -1  -1  -8   22.98    1.05
  -1  -1  -8   20.38    0.98
  -1  -1  -8   21.31    0.93
  -1  -1  -8   22.43    0.99
  -1  -1  -8   20.66    1.02
  -1  -1  -8   21.55    1.02
   1   1   8   21.14    0.95
   1   1   8   21.17    0.98
   1   1   8   21.14    0.94
   1   1   8   22.48    0.89
   1   1   8   19.68    0.97
  -2  -1  -8   42.60    1.32
  -2  -1  -8   41.52    1.37
  -2  -1  -8   44.22    1.41
  -2  -1  -8   43.07    1.28
  -2  -1  -8   41.25    1.36
  -2  -1  -8   41.50    1.27
   2   1   8   42.49    1.32
   2   1   8   43.07    1.29
   2   1   8   41.11    1.36
   2   1   8   42.45    1.25
   2   1   8   40.90    1.33
  -3  -1  -8  109.64    2.54
  -3  -1  -8  100.96    2.47
  -3  -1  -8  107.84    2.55
  -3  -1  -8  108.20    2.71
  -3  -1  -8  109.80    2.56
  -3  -1  -8  108.98    2.45
  -3  -1  -8  100.36    2.64
  -3  -1  -8  107.43    2.26
   3   1   8  107.60    2.49
   3   1   8  107.35    2.28
   3   1   8  106.96    2.50
   3   1   8  109.23    2.67
   3   1   8  108.38    2.51
   3   1   8  107.56    2.59
   3   1   8  105.11    2.42
  -4  -1  -8   37.04    1.61
  -4  -1  -8   35.99    1.35
  -4  -1  -8   37.30    1.10
  -4  -1  -8   37.36    1.46
  -4  -1  -8   36.54    1.12
  -4  -1  -8   35.68    1.43
  -4  -1  -8   37.54    1.23
  -4  -1  -8   36.66    1.36
   4   1   8   35.71    1.21
   4   1   8   38.08    1.42
   4   1   8   36.13    1.08
   4   1   8   35.16    1.31
   4   1   8   35.48    1.24
   4   1   8   35.22    1.16
  -5  -1  -8    7.95    0.81
  -5  -1  -8    8.21    0.67
  -5  -1  -8    9.94    1.05
  -5  -1  -8    8.86    0.69
  -5  -1  -8    9.49    0.90
  -5  -1  -8    8.19    0.89
  -5  -1  -8    9.24    0.85
  -5  -1  -8    9.17    0.72
   5   1   8    9.11    0.85
   5   1   8   10.93    0.81
   5   1   8    9.46    0.62
   5   1   8   11.18    0.70
   5   1   8    8.92    0.66
   5   1   8    9.30    0.85
  -6  -1  -8   25.07    1.39
  -6  -1  -8   24.40    1.81
  -6  -1  -8   24.80    1.87
  -6  -1  -8   22.83    1.27
  -6  -1  -8   23.24    1.61
  -6  -1  -8   21.32    1.47
  -6  -1  -8   21.54    1.69
   6   1   8   23.53    1.27
   6   1   8   21.01    1.48
   6   1   8   23.14    1.13
   6   1   8   24.42    1.12
   6   1   8   23.73    1.41
  -7  -1  -8    1.34    0.86
  -7  -1  -8   -0.15    1.11
  -7  -1  -8   -0.93    1.25
  -7  -1  -8    0.05    0.97
  -7  -1  -8    1.73    1.41
  -7  -1  -8    0.92    1.10
  -7  -1  -8   -1.48    1.19
   7   1   8    0.45    0.84
   7   1   8    1.07    0.67
   7   1   8    1.96    0.82
   7   1   8   -0.12    0.64
  -8  -1  -8   -0.32    1.38
  -8  -1  -8    0.72    1.18
  -8  -1  -8    1.19    1.50
  -8  -1  -8   -1.91    1.75
  -8  -1  -8    0.90    1.56
  -8  -1  -8    0.39    1.59
  -8  -1  -8    1.39    1.63
   8   1   8    1.79    0.87
   8   1   8    1.36    0.80
   8   1   8    1.04    1.08
   6  -2  -8   21.38    1.61
   6  -2  -8   25.97    2.52
   6  -2  -8   22.13    1.75
   6  -2  -8   25.70    2.69
   6  -2  -8   19.28    2.91
   6  -2  -8   20.72    2.03
   6  -2  -8   20.35    2.14
  -6   2   8   13.72    2.26
  -6   2   8   21.14    1.84
  -6   2   8   17.73    3.71
  -6   2   8   28.26    2.60
  -6   2   8   22.89    1.62
  -6   2   8   22.22    1.77
  -6   2   8   24.43    1.86
   5  -2  -8   -1.17    1.20
   5  -2  -8   -0.71    1.42
   5  -2  -8    2.78    1.61
   5  -2  -8   -0.70    1.03
   5  -2  -8    0.55    1.72
   5  -2  -8   -0.48    1.64
   5  -2  -8   -0.09    1.19
  -5   2   8    0.71    0.98
  -5   2   8    0.04    1.19
  -5   2   8    0.43    1.22
  -5   2   8   -0.72    1.19
  -5   2   8    0.77    1.48
  -5   2   8    0.66    1.08
   4  -2  -8   51.59    2.14
   4  -2  -8   55.52    2.23
   4  -2  -8   55.24    2.03
   4  -2  -8   54.37    2.79
   4  -2  -8   53.54    2.83
   4  -2  -8   54.47    2.49
   4  -2  -8   57.64    2.61
  -4   2   8   55.41    2.14
  -4   2   8   56.06    2.29
  -4   2   8   55.78    1.92
  -4   2   8   54.81    1.94
  -4   2   8   57.16    2.45
  -4   2   8   60.81    2.19
   3  -2  -8   59.67    2.01
   3  -2  -8   57.18    1.88
   3  -2  -8   57.11    1.91
   3  -2  -8   55.16    2.20
   3  -2  -8   54.70    2.20
   3  -2  -8   56.96    2.48
   3  -2  -8   59.53    2.37
  -3   2   8   57.15    1.92
  -3   2   8   57.73    1.70
  -3   2   8   58.90    2.01
  -3   2   8   56.39    1.81
  -3   2   8   54.45    2.02
  -3   2   8   57.57    2.17
   2  -2  -8  120.60    2.91
   2  -2  -8  117.43    3.17
   2  -2  -8  102.21    3.39
   2  -2  -8  116.75    2.84
   2  -2  -8  116.46    2.93
   2  -2  -8  117.61    3.10
   2  -2  -8  115.31    3.03
  -2   2   8  119.34    2.94
  -2   2   8  117.02    2.82
  -2   2   8  117.31    2.61
  -2   2   8  116.46    2.73
  -2   2   8  118.38    3.00
  -2   2   8  120.88    2.94
   1  -2  -8  207.59    4.51
   1  -2  -8  209.51    4.73
   1  -2  -8  208.87    4.55
   1  -2  -8  210.26    4.65
   1  -2  -8  204.63    4.61
   1  -2  -8  207.47    4.52
   1  -2  -8  209.85    4.52
  -1   2   8  209.61    4.59
  -1   2   8  208.39    4.43
  -1   2   8  204.34    4.58
  -1   2   8  203.52    4.24
  -1   2   8  198.73    4.55
  -1   2   8  212.72    4.47
   0  -2  -8   30.69    1.26
   0  -2  -8   32.00    1.20
   0  -2  -8   32.02    1.26
   0  -2  -8   33.00    1.14
   0  -2  -8   31.68    1.19
   0  -2  -8   32.08    1.24
   0  -2  -8   32.05    1.35
   0   2   8   31.58    1.06
   0   2   8   30.04    1.24
   0   2   8   31.94    1.26
   0   2   8   33.60    1.20
   0   2   8   32.93    1.10
  -1  -2  -8   36.98    1.20
  -1  -2  -8   37.19    1.23
  -1  -2  -8   38.89    1.29
  -1  -2  -8   35.73    1.31
  -1  -2  -8   36.60    1.28
  -1  -2  -8   37.54    1.28
  -1  -2  -8   38.03    1.19
   1   2   8   36.43    1.20
   1   2   8   36.34    1.20
   1   2   8   34.88    1.14
   1   2   8   38.65    1.30
   1   2   8   38.09    1.23
  -2  -2  -8    6.93    0.56
  -2  -2  -8    5.66    0.53
  -2  -2  -8    6.98    0.65
  -2  -2  -8    7.47    0.60
  -2  -2  -8    6.84    0.55
  -2  -2  -8    6.49    0.55
  -2  -2  -8    6.09    0.51
   2   2   8    7.76    0.54
   2   2   8    7.41    0.49
   2   2   8    6.41    0.59
   2   2   8    8.02    0.63
   2   2   8    7.26    0.56
  -3  -2  -8   23.35    1.03
  -3  -2  -8   24.27    1.22
  -3  -2  -8   24.32    1.01
  -3  -2  -8   24.70    1.01
  -3  -2  -8   23.18    0.99
  -3  -2  -8   23.46    1.04
   3   2   8   24.34    1.11
   3   2   8   23.25    1.20
   3   2   8   23.82    0.99
   3   2   8   24.15    0.95
   3   2   8   23.94    0.88
  -4  -2  -8   62.24    1.68
  -4  -2  -8   63.09    1.54
  -4  -2  -8   66.22    1.81
  -4  -2  -8   66.05    1.63
  -4  -2  -8   63.72    1.76
  -4  -2  -8   62.14    1.71
  -4  -2  -8   64.23    1.83
  -4  -2  -8   62.47    2.01
   4   2   8   63.41    1.55
   4   2   8   64.59    1.73
   4   2   8   65.17    1.81
   4   2   8   66.92    1.65
  -5  -2  -8    1.24    0.65
  -5  -2  -8    1.41    0.69
  -5  -2  -8    2.16    0.54
  -5  -2  -8    2.83    0.89
  -5  -2  -8    1.20    0.65
  -5  -2  -8    2.32    0.50
  -5  -2  -8    2.62    0.61
  -5  -2  -8    2.54    0.51
   5   2   8    1.99    0.41
   5   2   8    2.23    0.49
   5   2   8    2.10    0.53
  -6  -2  -8    2.49    0.60
  -6  -2  -8    1.14    0.86
  -6  -2  -8    2.43    0.87
  -6  -2  -8    2.07    0.72
  -6  -2  -8    2.37    0.48
  -6  -2  -8    2.98    0.76
  -6  -2  -8    2.39    1.01
  -6  -2  -8    2.64    0.89
   6   2   8    1.90    0.48
   6   2   8    2.29    0.41
  -7  -2  -8    2.33    1.14
  -7  -2  -8    0.65    1.11
  -7  -2  -8    0.96    0.96
  -7  -2  -8    2.56    1.19
  -7  -2  -8    0.49    1.20
  -7  -2  -8    2.95    1.31
  -7  -2  -8    1.35    0.74
  -8  -2  -8    0.72    1.63
  -8  -2  -8    4.89    1.36
  -8  -2  -8    1.68    1.08
  -8  -2  -8    6.45    1.51
  -8  -2  -8    2.84    1.32
  -8  -2  -8    1.93    1.77
  -8  -2  -8    3.66    1.50
   6  -3  -8   42.64    3.28
   6  -3  -8   41.54    3.34
   6  -3  -8   49.55    3.51
   6  -3  -8   44.63    2.70
   6  -3  -8   53.14    3.39
   6  -3  -8   59.84    4.40
  -6   3   8   47.31    3.95
  -6   3   8   51.96    2.69
  -6   3   8   55.27    3.23
  -6   3   8   61.14    5.27
  -6   3   8   49.25    2.67
  -6   3   8   47.12    3.37
  -6   3   8   49.86    3.08
  -6   3   8   48.20    3.70
   5  -3  -8    3.32    1.50
   5  -3  -8    1.98    2.00
   5  -3  -8    0.93    1.41
   5  -3  -8    1.12    1.23
   5  -3  -8    3.38    1.83
   5  -3  -8    3.01    1.19
   5  -3  -8    1.91    2.08
  -5   3   8   -0.69    1.37
  -5   3   8    2.02    2.02
  -5   3   8    0.13    1.38
  -5   3   8    0.73    1.19
  -5   3   8    1.21    1.03
  -5   3   8    2.26    1.08
  -5   3   8    2.03    1.78
  -5   3   8    1.18    1.26
   4  -3  -8    2.83    1.65
   4  -3  -8    3.87    1.20
   4  -3  -8    4.02    1.15
   4  -3  -8    5.56    1.72
   4  -3  -8    2.91    0.94
   4  -3  -8    2.34    1.38
   4  -3  -8    2.13    0.93
  -4   3   8    3.82    0.84
  -4   3   8    2.35    1.15
  -4   3   8    3.82    0.91
  -4   3   8    2.75    0.91
  -4   3   8    3.21    1.16
  -4   3   8    4.59    1.12
  -4   3   8    2.47    1.62
   3  -3  -8    3.65    0.74
   3  -3  -8    3.12    1.16
   3  -3  -8    3.53    0.86
   3  -3  -8    3.09    1.07
   3  -3  -8    6.73    1.47
   3  -3  -8    4.60    0.96
   3  -3  -8    2.71    2.17
  -3   3   8    5.12    0.90
  -3   3   8    4.37    0.71
  -3   3   8    3.48    0.93
  -3   3   8    4.61    1.10
  -3   3   8    5.91    0.72
  -3   3   8    4.95    0.98
   2  -3  -8  169.76    4.26
   2  -3  -8  166.80    3.91
   2  -3  -8  168.61    3.87
   2  -3  -8  166.10    3.62
   2  -3  -8  161.62    3.85
   2  -3  -8  168.26    3.92
   2  -3  -8  164.50    4.13
  -2   3   8  167.91    3.59
  -2   3   8  171.38    3.81
  -2   3   8  167.21    3.95
  -2   3   8  166.23    3.69
  -2   3   8  167.04    3.95
  -2   3   8  164.32    3.98
   1  -3  -8   35.02    1.47
   1  -3  -8   32.81    1.43
   1  -3  -8   33.67    0.99
   1  -3  -8   35.25    1.71
   1  -3  -8   34.41    1.33
   1  -3  -8   31.90    1.61
   1  -3  -8   34.45    1.42
  -1   3   8   32.85    1.48
  -1   3   8   33.51    0.96
  -1   3   8   32.62    1.33
  -1   3   8   35.61    1.18
  -1   3   8   36.26    1.27
  -1   3   8   32.30    1.49
   0  -3  -8    4.07    0.53
   0  -3  -8    3.68    0.57
   0  -3  -8    5.45    0.66
   0  -3  -8    4.05    0.66
   0  -3  -8    3.59    0.71
   0  -3  -8    3.78    0.64
   0   3   8    3.78    0.60
   0   3   8    3.03    0.59
   0   3   8    4.02    0.50
   0   3   8    3.59    0.51
  -1  -3  -8  342.78    7.09
  -1  -3  -8  344.83    7.21
  -1  -3  -8  350.84    7.21
  -1  -3  -8  335.08    7.17
  -1  -3  -8  347.66    7.07
   1   3   8  343.92    7.10
   1   3   8  336.68    7.10
   1   3   8  342.42    7.25
   1   3   8  343.56    7.02
   1   3   8  347.04    7.12
  -2  -3  -8    3.78    0.50
  -2  -3  -8    3.04    0.55
  -2  -3  -8    3.58    0.47
  -2  -3  -8    4.69    0.49
  -2  -3  -8    4.24    0.62
  -2  -3  -8    3.69    0.54
  -2  -3  -8    3.67    0.61
   2   3   8    4.74    0.44
   2   3   8    3.83    0.53
   2   3   8    3.40    0.47
   2   3   8    3.49    0.65
   2   3   8    3.98    0.45
  -3  -3  -8    5.19    0.64
  -3  -3  -8    4.61    0.47
  -3  -3  -8    3.56    0.51
  -3  -3  -8    5.14    0.51
  -3  -3  -8    4.75    0.68
  -3  -3  -8    4.38    0.51
  -3  -3  -8    4.98    0.53
   3   3   8    4.94    0.45
   3   3   8    4.95    0.46
   3   3   8    4.32    0.67
   3   3   8    4.76    0.44
   3   3   8    5.03    0.70
  -4  -3  -8   13.21    1.17
  -4  -3  -8   14.65    1.02
  -4  -3  -8   16.57    1.08
  -4  -3  -8   16.47    1.01
  -4  -3  -8   15.64    0.93
  -4  -3  -8   15.65    0.75
   4   3   8   14.64    0.63
  -5  -3  -8   77.43    2.02
  -5  -3  -8   74.73    2.19
  -5  -3  -8   73.01    1.97
  -5  -3  -8   72.06    2.37
  -5  -3  -8   73.08    1.80
  -5  -3  -8   75.49    1.91
  -5  -3  -8   73.36    1.96
  -5  -3  -8   76.96    1.92
  -6  -3  -8    1.81    0.80
  -6  -3  -8    0.80    0.64
  -6  -3  -8    0.04    0.88
  -6  -3  -8    1.67    0.77
  -6  -3  -8    0.36    0.59
  -6  -3  -8    0.40    0.52
  -6  -3  -8    0.61    0.72
  -6  -3  -8    1.30    1.06
  -7  -3  -8    0.48    0.64
  -7  -3  -8    1.74    0.74
  -7  -3  -8    2.06    0.85
  -7  -3  -8    1.07    0.57
  -7  -3  -8    4.90    1.31
  -7  -3  -8    2.24    1.02
  -7  -3  -8    1.27    1.02
  -7  -3  -8    2.13    1.15
  -7  -3  -8    2.22    1.22
  -8  -3  -8   17.97    2.31
  -8  -3  -8   24.91    1.65
  -8  -3  -8   24.62    2.34
  -8  -3  -8   31.61    2.38
  -8  -3  -8   24.39    1.91
  -8  -3  -8   21.70    1.99
  -8  -3  -8   25.48    1.65
  -8  -3  -8   25.87    1.97
   5  -4  -8    5.20    2.52
   5  -4  -8    7.97    1.90
   5  -4  -8    6.96    1.48
   5  -4  -8    5.94    2.05
   5  -4  -8    4.13    1.34
   5  -4  -8    2.15    3.28
  -5   4   8    7.83    1.17
  -5   4   8    7.57    1.41
  -5   4   8    7.26    2.19
  -5   4   8    7.94    1.42
  -5   4   8    6.03    1.43
  -5   4   8    6.02    2.42
  -5   4   8    7.40    1.67
  -5   4   8    2.48    1.74
   4  -4  -8   69.07    4.00
   4  -4  -8   69.91    3.04
   4  -4  -8   68.15    2.58
   4  -4  -8   74.46    2.78
   4  -4  -8   69.17    3.87
   4  -4  -8   70.26    2.49
   4  -4  -8   70.93    3.12
  -4   4   8   71.38    2.71
  -4   4   8   67.98    2.49
  -4   4   8   69.51    2.42
  -4   4   8   69.13    2.20
  -4   4   8   77.40    3.77
  -4   4   8   61.70    2.81
  -4   4   8   75.20    2.87
  -4   4   8   72.63    3.22
   3  -4  -8    5.24    1.68
   3  -4  -8    8.17    1.59
   3  -4  -8    8.19    0.91
   3  -4  -8    8.13    1.12
   3  -4  -8    8.28    1.08
   3  -4  -8    6.34    1.23
   3  -4  -8    9.34    1.53
  -3   4   8    7.65    1.09
  -3   4   8    7.97    0.97
  -3   4   8    7.67    1.54
  -3   4   8    8.22    0.83
  -3   4   8    6.51    1.21
  -3   4   8    6.86    0.74
  -3   4   8    7.96    1.01
  -3   4   8    5.95    1.15
   2  -4  -8   75.32    2.29
   2  -4  -8   75.55    2.83
   2  -4  -8   76.03    2.02
   2  -4  -8   77.46    2.48
   2  -4  -8   75.00    2.52
   2  -4  -8   76.59    2.75
   2  -4  -8   77.21    2.38
  -2   4   8   75.43    1.98
  -2   4   8   73.93    2.37
  -2   4   8   73.85    2.49
  -2   4   8   76.05    2.51
  -2   4   8   75.68    2.85
  -2   4   8   78.40    1.95
  -2   4   8   76.04    2.19
   1  -4  -8    1.50    0.65
   1  -4  -8    0.97    0.93
   1  -4  -8    0.64    0.48
   1  -4  -8    2.85    0.88
   1  -4  -8   -1.04    0.65
   1  -4  -8    0.71    0.84
   1  -4  -8    1.17    0.69
  -1   4   8    0.97    0.91
  -1   4   8    1.00    0.49
  -1   4   8    1.44    0.42
  -1   4   8    1.53    0.62
  -1   4   8    0.81    0.83
  -1   4   8    2.65    0.79
   0  -4  -8   87.71    2.47
   0  -4  -8   89.13    2.18
   0  -4  -8   88.72    1.96
   0  -4  -8   86.78    2.43
   0  -4  -8   84.97    2.45
   0  -4  -8   87.70    2.56
   0  -4  -8   89.29    2.30
   0   4   8   87.13    2.23
   0   4   8   88.05    1.91
   0   4   8   90.70    2.52
   0   4   8   89.32    2.18
   0   4   8   88.43    2.14
  -1  -4  -8   16.90    1.00
  -1  -4  -8   15.36    1.21
  -1  -4  -8   16.64    1.08
  -1  -4  -8   13.58    1.15
  -1  -4  -8   14.89    0.98
  -1  -4  -8   14.27    1.16
   1   4   8   16.46    1.20
   1   4   8   16.01    1.05
   1   4   8   15.28    0.79
   1   4   8   15.73    0.96
   1   4   8   15.68    0.88
   1   4   8   16.33    1.34
  -2  -4  -8   59.76    1.86
  -2  -4  -8   58.00    1.75
  -2  -4  -8   60.04    1.58
  -2  -4  -8   58.07    1.57
  -2  -4  -8   59.08    1.69
  -2  -4  -8   58.03    1.85
  -2  -4  -8   58.10    1.67
   2   4   8   59.57    1.44
   2   4   8   59.19    1.95
   2   4   8   59.05    1.50
   2   4   8   61.55    1.58
   2   4   8   59.94    1.74
   2   4   8   57.82    1.68
  -3  -4  -8   15.07    0.92
  -3  -4  -8   14.96    0.91
  -3  -4  -8   14.88    0.92
  -3  -4  -8   14.04    1.19
  -3  -4  -8   14.51    0.63
  -3  -4  -8   13.11    0.96
  -3  -4  -8   13.05    1.19
  -3  -4  -8   12.97    1.35
  -3  -4  -8   14.52    0.57
   3   4   8   15.31    0.71
   3   4   8   14.32    0.60
   3   4   8   16.83    1.21
   3   4   8   14.71    0.67
  -4  -4  -8   46.63    1.65
  -4  -4  -8   46.83    1.35
  -4  -4  -8   44.89    1.19
  -4  -4  -8   45.14    1.29
  -4  -4  -8   46.20    1.50
  -4  -4  -8   44.17    1.80
  -4  -4  -8   44.74    1.36
  -4  -4  -8   43.97    1.31
  -4  -4  -8   44.41    1.29
  -5  -4  -8    5.96    0.63
  -5  -4  -8    6.37    0.85
  -5  -4  -8    6.48    0.59
  -5  -4  -8    4.66    0.67
  -5  -4  -8    4.81    0.57
  -5  -4  -8    5.77    0.60
  -5  -4  -8    6.00    0.53
  -5  -4  -8    5.15    0.78
  -5  -4  -8    6.21    1.00
  -6  -4  -8   74.78    2.71
  -6  -4  -8   78.11    2.45
  -6  -4  -8   75.08    2.06
  -6  -4  -8   73.86    1.88
  -6  -4  -8   69.33    2.14
  -6  -4  -8   77.84    2.09
  -6  -4  -8   75.02    2.25
  -7  -4  -8    5.31    0.74
  -7  -4  -8    8.04    1.36
  -7  -4  -8    6.07    1.02
  -7  -4  -8    5.23    0.87
  -7  -4  -8    4.13    0.98
  -7  -4  -8    5.53    0.59
  -7  -4  -8    4.57    1.38
  -7  -4  -8    5.42    0.93
  -8  -4  -8    9.22    0.98
  -8  -4  -8   13.13    1.97
  -8  -4  -8   10.48    1.00
  -8  -4  -8   10.02    1.77
  -8  -4  -8   12.27    1.09
  -8  -4  -8    9.42    1.24
  -8  -4  -8    9.74    1.52
  -8  -4  -8    8.80    2.23
  -8  -4  -8   10.95    0.81
  -8  -4  -8   11.50    1.27
   4  -5  -8    7.07    1.68
   4  -5  -8    5.90    1.38
   4  -5  -8    4.35    1.36
   4  -5  -8    6.43    2.34
   4  -5  -8    9.15    1.70
   4  -5  -8    3.99    1.80
   4  -5  -8    4.63    2.17
  -4   5   8    6.48    1.47
  -4   5   8    9.37    1.29
  -4   5   8    4.15    1.77
  -4   5   8    6.99    1.65
  -4   5   8    6.24    2.23
  -4   5   8    6.58    1.42
  -4   5   8    5.36    0.96
  -4   5   8    3.96    1.75
   3  -5  -8    4.33    1.47
   3  -5  -8    2.08    1.27
   3  -5  -8    3.53    1.10
   3  -5  -8    5.04    1.20
   3  -5  -8    4.49    1.57
   3  -5  -8    2.70    1.52
   3  -5  -8    2.08    1.94
  -3   5   8    2.01    1.36
  -3   5   8    4.23    0.91
  -3   5   8    2.38    1.24
  -3   5   8    4.72    1.69
  -3   5   8    3.79    1.02
  -3   5   8    3.58    1.35
  -3   5   8    1.64    1.06
  -3   5   8    4.62    1.14
   2  -5  -8    0.07    1.35
   2  -5  -8    0.25    1.25
   2  -5  -8   -0.10    0.81
   2  -5  -8    0.02    1.10
   2  -5  -8   -1.06    1.00
   2  -5  -8    0.50    0.96
   2  -5  -8    1.52    0.95
  -2   5   8    0.38    0.65
  -2   5   8   -0.59    1.35
  -2   5   8    0.75    1.17
  -2   5   8    2.55    0.95
  -2   5   8   -1.14    1.12
  -2   5   8    0.31    0.80
  -2   5   8    0.81    0.86
  -2   5   8    0.46    0.56
   1  -5  -8   10.60    0.99
   1  -5  -8   10.04    1.32
   1  -5  -8    9.77    0.85
   1  -5  -8    9.83    0.78
   1  -5  -8    8.17    1.24
   1  -5  -8   11.06    1.17
   1  -5  -8    8.33    0.92
  -1   5   8   10.16    0.69
  -1   5   8    9.91    1.23
  -1   5   8    9.12    0.92
  -1   5   8   10.82    0.68
  -1   5   8   11.02    1.12
   0  -5  -8   55.52    1.89
   0  -5  -8   57.29    2.15
   0  -5  -8   56.70    2.01
   0  -5  -8   55.52    2.12
   0  -5  -8   55.57    1.55
   0  -5  -8   57.28    1.65
   0  -5  -8   58.20    2.26
   0   5   8   56.12    1.43
   0   5   8   56.88    1.93
   0   5   8   57.40    1.61
   0   5   8   53.16    2.16
   0   5   8   56.18    2.08
   0   5   8   58.01    1.70
   0   5   8   54.01    1.73
  -1  -5  -8   23.54    1.52
  -1  -5  -8   21.95    1.03
  -1  -5  -8   22.82    0.90
  -1  -5  -8   23.27    1.46
  -1  -5  -8   20.80    1.52
  -1  -5  -8   23.87    1.54
  -1  -5  -8   22.72    1.23
   1   5   8   23.81    1.26
   1   5   8   22.76    1.03
   1   5   8   21.17    1.37
   1   5   8   22.36    1.13
   1   5   8   24.51    1.71
  -2  -5  -8    6.29    0.63
  -2  -5  -8    5.53    0.72
  -2  -5  -8    7.02    0.47
  -2  -5  -8    6.75    0.93
  -2  -5  -8    6.49    0.57
  -2  -5  -8    5.02    0.78
  -2  -5  -8    5.86    0.90
   2   5   8    6.17    0.59
   2   5   8    6.33    0.44
   2   5   8    6.48    0.65
   2   5   8    6.38    0.72
   2   5   8    6.69    0.49
  -3  -5  -8    0.34    0.38
  -3  -5  -8    0.84    0.80
  -3  -5  -8    0.88    0.63
  -3  -5  -8    0.87    0.44
  -3  -5  -8    0.96    0.83
  -3  -5  -8   -0.60    0.46
  -3  -5  -8    0.36    0.62
  -3  -5  -8    0.81    0.50
  -3  -5  -8    1.21    0.56
  -4  -5  -8   11.87    0.78
  -4  -5  -8   13.21    1.10
  -4  -5  -8   11.22    1.02
  -4  -5  -8   11.79    0.90
  -4  -5  -8   12.67    0.82
  -4  -5  -8   12.94    1.09
  -4  -5  -8   12.43    0.92
  -4  -5  -8   12.20    0.80
  -4  -5  -8   12.23    0.99
  -4  -5  -8   11.70    0.83
  -5  -5  -8   -0.51    0.67
  -5  -5  -8    0.92    0.55
  -5  -5  -8    1.12    0.49
  -5  -5  -8    0.65    0.95
  -5  -5  -8   -0.37    0.77
  -5  -5  -8   -0.85    0.90
  -5  -5  -8   -0.10    0.50
  -5  -5  -8    0.63    0.91
  -5  -5  -8    0.33    0.51
  -5  -5  -8    1.13    0.58
  -6  -5  -8   42.11    2.04
  -6  -5  -8   42.00    2.34
  -6  -5  -8   44.44    1.62
  -6  -5  -8   43.99    1.41
  -6  -5  -8   47.70    2.08
  -6  -5  -8   45.57    1.33
  -6  -5  -8   48.55    1.86
  -6  -5  -8   47.86    2.19
  -7  -5  -8    8.27    1.52
  -7  -5  -8    9.40    1.30
  -7  -5  -8    9.60    1.03
  -7  -5  -8    8.10    1.51
  -7  -5  -8    8.36    1.36
  -7  -5  -8   10.38    1.24
  -8  -5  -8    3.98    2.25
  -8  -5  -8    8.90    1.68
  -8  -5  -8    6.56    1.83
  -8  -5  -8    4.26    1.72
  -8  -5  -8    6.83    1.56
   3  -6  -8   20.39    1.62
   3  -6  -8   17.13    1.52
   3  -6  -8   17.35    2.30
   3  -6  -8   18.53    2.11
   3  -6  -8   18.57    2.50
   3  -6  -8   19.22    1.82
   3  -6  -8   18.29    1.54
  -3   6   8   22.54    1.41
  -3   6   8   18.16    1.57
  -3   6   8   17.22    1.53
  -3   6   8   15.67    2.14
  -3   6   8   17.75    1.47
  -3   6   8   21.15    2.05
  -3   6   8   18.69    1.61
   2  -6  -8    0.84    1.22
   2  -6  -8    1.10    1.77
   2  -6  -8   -0.77    1.18
   2  -6  -8    1.15    1.02
   2  -6  -8   -0.47    1.63
   2  -6  -8    0.23    1.06
   2  -6  -8   -0.58    1.47
  -2   6   8    0.47    0.86
  -2   6   8    0.12    0.95
  -2   6   8    1.02    1.10
  -2   6   8    0.48    1.43
  -2   6   8    1.74    1.12
  -2   6   8    1.35    1.61
  -2   6   8   -0.47    0.66
   1  -6  -8    3.83    0.83
   1  -6  -8    2.46    0.84
   1  -6  -8    1.86    1.48
   1  -6  -8    1.71    1.22
   1  -6  -8    1.19    1.40
   1  -6  -8    3.02    1.05
   1  -6  -8    2.69    1.14
  -1   6   8    1.19    1.21
  -1   6   8    3.10    0.92
  -1   6   8    1.97    0.63
  -1   6   8    2.18    1.12
  -1   6   8    2.64    0.70
  -1   6   8    2.36    0.87
   0  -6  -8   72.73    2.29
   0  -6  -8   71.68    2.01
   0  -6  -8   75.42    2.03
   0  -6  -8   69.30    2.70
   0  -6  -8   72.67    2.52
   0  -6  -8   71.37    2.67
   0  -6  -8   70.97    2.82
   0   6   8   69.12    2.09
   0   6   8   71.60    1.88
   0   6   8   74.56    2.10
   0   6   8   73.46    2.36
   0   6   8   74.52    1.96
   0   6   8   73.31    2.49
  -1  -6  -8   70.51    2.52
  -1  -6  -8   74.56    2.58
  -1  -6  -8   75.80    1.95
  -1  -6  -8   75.34    2.41
  -1  -6  -8   71.06    2.18
  -1  -6  -8   74.58    1.92
  -1  -6  -8   72.58    2.63
   1   6   8   77.46    1.94
   1   6   8   76.01    2.04
   1   6   8   72.80    2.23
   1   6   8   72.88    1.93
   1   6   8   74.21    2.13
  -2  -6  -8    8.44    0.78
  -2  -6  -8    8.81    0.66
  -2  -6  -8    9.75    0.69
  -2  -6  -8    9.76    1.00
  -2  -6  -8    7.35    1.10
  -2  -6  -8    9.12    1.06
  -2  -6  -8    8.94    1.11
   2   6   8    9.74    0.90
   2   6   8    9.49    0.66
   2   6   8   10.50    0.89
   2   6   8    8.33    0.71
  -3  -6  -8    0.51    0.82
  -3  -6  -8    1.45    1.03
  -3  -6  -8    0.24    0.52
  -3  -6  -8    0.21    0.59
  -3  -6  -8    0.24    0.76
  -3  -6  -8    1.04    0.55
  -3  -6  -8    2.18    1.01
  -4  -6  -8    1.16    0.79
  -4  -6  -8    0.32    0.58
  -4  -6  -8   -0.11    0.56
  -4  -6  -8   -0.48    0.97
  -4  -6  -8   -0.23    1.03
  -4  -6  -8   -0.96    0.69
  -4  -6  -8    0.18    0.73
  -4  -6  -8    0.16    0.64
  -4  -6  -8   -0.37    0.54
  -5  -6  -8   37.11    1.15
  -5  -6  -8   35.77    2.15
  -5  -6  -8   37.29    1.72
  -5  -6  -8   37.76    1.45
  -5  -6  -8   35.78    1.32
  -5  -6  -8   37.92    1.28
  -5  -6  -8   39.15    1.41
  -5  -6  -8   37.26    1.63
  -5  -6  -8   43.51    2.20
  -5  -6  -8   40.45    2.24
  -6  -6  -8   48.89    2.57
  -6  -6  -8   46.11    2.19
  -6  -6  -8   49.56    2.47
  -6  -6  -8   49.27    2.11
  -6  -6  -8   50.96    2.57
  -6  -6  -8   46.93    1.83
  -7  -6  -8    5.69    1.15
  -7  -6  -8    5.96    1.49
  -7  -6  -8    6.33    1.68
  -7  -6  -8    7.20    1.57
  -7  -6  -8    7.66    2.05
  -7  -6  -8    5.72    1.49
  -7  -6  -8    8.18    1.44
  -7  -6  -8    6.42    1.43
   2  -7  -8   16.56    1.74
   2  -7  -8   21.36    1.64
   2  -7  -8   22.23    2.20
   2  -7  -8   18.08    2.53
   2  -7  -8   21.80    2.43
   2  -7  -8   19.46    1.32
   2  -7  -8   21.42    1.80
  -2   7   8   16.90    1.71
  -2   7   8   21.84    1.86
  -2   7   8   18.58    1.41
  -2   7   8   13.93    2.01
  -2   7   8   18.57    1.96
  -2   7   8   16.50    1.73
   1  -7  -8    2.09    1.56
   1  -7  -8    0.54    1.90
   1  -7  -8   -0.14    1.46
   1  -7  -8    3.35    1.65
   1  -7  -8    1.54    1.26
   1  -7  -8    1.41    0.91
   1  -7  -8    2.64    1.90
  -1   7   8    2.25    1.47
  -1   7   8    1.44    1.08
  -1   7   8   -0.09    1.05
  -1   7   8    0.51    1.37
  -1   7   8    2.32    1.09
  -1   7   8    2.75    0.74
   0  -7  -8    2.19    1.37
   0  -7  -8    2.10    0.96
   0  -7  -8    2.01    1.47
   0  -7  -8    1.44    1.48
   0  -7  -8    2.86    1.49
   0  -7  -8    1.28    1.14
   0  -7  -8    1.84    0.75
   0   7   8    2.41    0.90
   0   7   8    1.65    1.10
   0   7   8    0.62    0.74
   0   7   8    0.68    1.18
   0   7   8    1.56    0.72
   0   7   8    2.29    0.86
  -1  -7  -8    0.68    1.27
  -1  -7  -8    1.39    0.64
  -1  -7  -8   -1.08    1.12
  -1  -7  -8   -0.52    1.30
  -1  -7  -8   -1.51    1.17
  -1  -7  -8   -0.66    0.79
  -1  -7  -8   -0.59    0.92
   1   7   8    1.21    0.68
   1   7   8    1.16    0.87
   1   7   8    0.77    0.69
   1   7   8   -0.09    0.60
   1   7   8    1.57    0.84
  -2  -7  -8    2.96    1.10
  -2  -7  -8    3.82    1.22
  -2  -7  -8    1.74    1.27
  -2  -7  -8    5.15    1.33
  -2  -7  -8    4.99    0.76
  -2  -7  -8    3.62    0.87
  -2  -7  -8    4.15    0.64
   2   7   8    3.89    0.50
  -3  -7  -8   28.22    1.35
  -3  -7  -8   20.78    1.38
  -3  -7  -8   27.73    1.72
  -3  -7  -8   25.15    1.69
  -3  -7  -8   23.99    1.79
  -3  -7  -8   23.50    1.21
  -3  -7  -8   25.82    1.96
  -4  -7  -8   38.72    1.51
  -4  -7  -8   35.97    1.53
  -4  -7  -8   35.79    2.55
  -4  -7  -8   35.06    1.88
  -4  -7  -8   36.36    2.56
  -4  -7  -8   33.39    1.69
  -4  -7  -8   34.18    1.34
  -5  -7  -8   23.81    1.81
  -5  -7  -8   23.95    1.83
  -5  -7  -8   24.81    1.79
  -5  -7  -8   24.25    1.59
  -5  -7  -8   25.57    1.72
  -5  -7  -8   22.29    1.67
  -6  -7  -8    7.84    1.64
  -6  -7  -8    8.92    1.62
  -6  -7  -8    8.65    1.26
  -6  -7  -8    7.17    1.75
  -6  -7  -8   11.71    1.83
  -6  -7  -8    9.08    1.84
  -6  -7  -8   10.09    1.32
  -6  -7  -8    9.84    1.14
   1  -8  -8    4.20    1.81
   1  -8  -8    3.96    1.66
  -1   8   8    3.55    1.22
   0  -8  -8    8.74    1.38
   0  -8  -8    5.28    2.11
   0  -8  -8    8.27    1.62
   0  -8  -8    6.08    1.88
   0  -8  -8   11.06    2.22
   0  -8  -8   10.91    2.20
   0   8   8    8.67    1.50
   0   8   8    9.09    1.16
   0   8   8    8.73    1.20
   0   8   8    8.26    1.13
  -1  -8  -8    2.60    1.66
  -1  -8  -8   -0.92    1.74
  -1  -8  -8    1.70    1.18
  -1  -8  -8   -1.43    1.77
  -1  -8  -8    0.99    1.76
  -1  -8  -8   -0.60    1.21
   1   8   8    0.93    0.97
   1   8   8    0.50    0.78
   1   8   8    0.66    0.83
   1   8   8    2.35    0.95
  -2  -8  -8   -0.91    1.68
  -2  -8  -8    1.33    1.54
  -2  -8  -8    2.22    1.64
  -2  -8  -8    2.06    0.63
  -2  -8  -8    3.32    1.54
  -2  -8  -8    1.84    1.11
  -3  -8  -8   -1.08    1.72
  -3  -8  -8    0.62    1.41
  -3  -8  -8   -1.53    1.14
  -3  -8  -8    1.76    1.72
  -3  -8  -8    2.18    1.68
  -3  -8  -8   -0.23    1.35
  -3  -8  -8    0.32    0.98
  -3  -8  -8    0.94    0.67
  -4  -8  -8    5.11    1.46
  -4  -8  -8    4.97    0.89
  -4  -8  -8    5.57    1.28
  -4  -8  -8    5.95    1.90
  -4  -8  -8    5.86    1.11
  -4  -8  -8   10.09    1.78
  -4  -8  -8    7.11    0.82
  -5  -8  -8   78.34    2.83
  -5  -8  -8   73.55    3.91
  -5  -8  -8   76.33    2.30
  -5  -8  -8   68.34    3.65
  -5  -8  -8   70.38    3.45
  -5  -8  -8   77.14    2.64
   2   6  -9    3.05    2.13
   2   6  -9    3.28    2.07
  -2  -6   9    1.85    2.04
  -2  -6   9    3.32    1.70
  -2  -6   9    7.46    3.16
  -2  -6   9    2.93    1.45
  -2  -6   9    1.88    1.22
   1   6  -9   64.93    2.39
   1   6  -9   71.62    3.40
   1   6  -9   58.44    3.92
   1   6  -9   67.88    3.17
   1   6  -9   64.14    4.14
  -1  -6   9   67.48    3.48
  -1  -6   9   75.33    3.19
  -1  -6   9   64.96    2.90
  -1  -6   9   67.35    4.13
  -1  -6   9   65.59    2.55
  -1  -6   9   62.38    3.95
  -1  -6   9   69.28    2.30
  -1  -6   9   67.14    3.28
   0   6  -9   -0.17    2.12
   0   6  -9    2.43    2.19
   0   6  -9    4.19    2.05
   0   6  -9    0.85    1.56
   0   6  -9    1.07    1.55
   0   6  -9    1.81    1.28
   0  -6   9    3.25    1.40
   0  -6   9   -0.60    1.41
   0  -6   9    0.93    2.07
   0  -6   9   -0.15    1.90
   0  -6   9    1.61    1.21
   0  -6   9    2.72    1.82
   0  -6   9    2.35    1.23
   0  -6   9   -0.45    1.56
  -1   6  -9   37.35    3.23
  -1   6  -9   33.58    2.47
  -1   6  -9   31.51    2.74
  -1   6  -9   37.63    2.62
  -1   6  -9   35.84    2.81
  -1   6  -9   38.31    2.88
  -1   6  -9   35.58    2.68
  -1   6  -9   34.04    2.75
   1  -6   9   34.84    2.81
   1  -6   9   31.42    2.92
   1  -6   9   32.78    2.39
   1  -6   9   34.70    2.79
   1  -6   9   33.44    2.98
   1  -6   9   35.72    2.84
   1  -6   9   38.86    2.56
   1  -6   9   34.70    2.43
  -2   6  -9   17.68    2.78
  -2   6  -9   17.80    2.77
  -2   6  -9   16.03    1.64
  -2   6  -9   16.58    1.86
  -2   6  -9   19.99    2.50
  -2   6  -9   16.94    1.94
   2  -6   9   18.97    1.80
   2  -6   9   16.64    2.01
   2  -6   9   15.69    1.84
   2  -6   9   14.82    2.03
   2  -6   9   18.31    2.73
   2  -6   9   15.52    1.83
   2  -6   9   13.89    2.16
   2  -6   9   17.92    2.38
   4   5  -9   28.09    2.76
  -4  -5   9   32.63    2.63
  -4  -5   9   31.99    2.01
  -4  -5   9   25.35    1.79
   3   5  -9    9.33    2.06
   3   5  -9    7.65    1.83
   3   5  -9    7.53    1.73
   3   5  -9    9.49    1.60
   3   5  -9    9.47    1.98
  -3  -5   9    6.56    1.55
  -3  -5   9    7.04    1.71
  -3  -5   9    5.62    1.29
  -3  -5   9    6.10    1.45
  -3  -5   9    5.77    1.20
  -3  -5   9    6.19    1.75
  -3  -5   9    5.99    1.52
   2   5  -9   19.00    1.84
   2   5  -9   14.68    1.73
   2   5  -9   18.42    1.84
   2   5  -9   15.59    2.00
   2   5  -9   16.00    1.58
   2   5  -9   14.08    1.44
  -2  -5   9   18.70    1.78
  -2  -5   9   13.84    1.51
  -2  -5   9   15.75    1.85
  -2  -5   9   17.22    1.60
  -2  -5   9   14.53    1.32
  -2  -5   9   13.68    1.30
  -2  -5   9   15.35    1.25
   1   5  -9   -1.52    1.54
   1   5  -9   -0.24    0.87
   1   5  -9    0.81    1.38
   1   5  -9    0.94    1.41
   1   5  -9    2.11    1.62
   1   5  -9    0.10    1.23
   1   5  -9   -0.13    1.64
  -1  -5   9    1.30    1.31
  -1  -5   9    0.38    1.22
  -1  -5   9    0.32    0.92
  -1  -5   9   -0.14    1.04
  -1  -5   9    0.20    1.41
  -1  -5   9   -0.17    1.14
  -1  -5   9   -0.50    1.34
   0   5  -9    6.87    1.14
   0   5  -9    5.42    1.71
   0   5  -9    7.13    1.34
   0   5  -9    3.97    1.49
   0   5  -9    6.63    1.56
   0   5  -9    5.50    1.80
   0  -5   9    6.04    1.14
   0  -5   9    5.95    1.24
   0  -5   9    5.23    1.41
   0  -5   9    6.43    1.02
   0  -5   9    6.08    1.25
   0  -5   9    8.55    1.52
   0  -5   9    5.75    1.03
   0  -5   9    5.15    1.56
  -1   5  -9    3.63    1.46
  -1   5  -9    5.87    1.21
  -1   5  -9    5.17    1.23
  -1   5  -9    5.10    1.22
  -1   5  -9    2.66    1.77
  -1   5  -9    6.70    1.47
  -1   5  -9    3.13    1.73
  -1   5  -9    4.98    1.33
   1  -5   9    5.88    1.55
   1  -5   9    7.63    1.54
   1  -5   9    7.32    1.67
   1  -5   9    6.48    1.39
   1  -5   9    3.84    1.11
   1  -5   9    5.29    1.19
   1  -5   9    4.12    1.17
   1  -5   9    6.01    1.22
  -2   5  -9    3.79    1.67
  -2   5  -9    5.32    1.45
  -2   5  -9    7.30    2.03
  -2   5  -9    4.10    1.25
  -2   5  -9    4.17    1.17
  -2   5  -9    3.92    1.42
  -2   5  -9    6.54    2.07
  -2   5  -9    4.59    1.27
   2  -5   9    1.92    1.65
   2  -5   9    4.53    1.26
   2  -5   9    4.30    1.90
   2  -5   9    6.07    1.42
   2  -5   9    6.91    1.60
   2  -5   9    3.35    1.22
   2  -5   9    3.64    1.54
   2  -5   9    5.15    1.25
  -3   5  -9    5.41    1.76
  -3   5  -9    1.44    1.56
  -3   5  -9    1.30    2.15
  -3   5  -9    1.55    1.42
  -3   5  -9    3.00    1.32
  -3   5  -9    3.35    1.23
  -3   5  -9    4.17    2.26
   3  -5   9    4.05    1.64
   3  -5   9    2.60    2.04
   3  -5   9    1.67    1.27
   3  -5   9    5.60    1.61
   3  -5   9    0.25    1.70
   3  -5   9    1.15    1.71
   3  -5   9    1.22    1.16
  -4   5  -9    2.18    2.24
  -4   5  -9    6.75    1.98
  -4   5  -9    7.36    2.56
  -4   5  -9    1.59    2.52
  -4   5  -9    4.80    1.82
  -4   5  -9    5.02    1.40
  -4   5  -9   10.76    1.78
   4  -5   9    8.47    2.19
   4  -5   9   10.73    1.85
   4  -5   9    6.70    2.35
   4  -5   9    5.32    1.98
   4  -5   9    9.29    2.10
   4  -5   9    8.08    1.25
   4  -5   9    4.27    1.55
  -5  -4   9   19.96    2.07
  -5  -4   9   19.53    1.73
  -5  -4   9   22.32    1.70
   4   4  -9   41.86    3.01
   4   4  -9   46.11    3.68
   4   4  -9   42.69    3.05
   4   4  -9   44.51    3.04
  -4  -4   9   40.61    2.71
  -4  -4   9   48.75    2.56
  -4  -4   9   40.86    2.82
  -4  -4   9   44.47    2.31
  -4  -4   9   41.76    2.38
  -4  -4   9   42.95    2.49
  -4  -4   9   40.93    2.69
   3   4  -9   11.40    1.68
   3   4  -9    8.71    1.42
   3   4  -9    8.96    1.63
   3   4  -9    9.72    1.70
   3   4  -9    8.41    1.45
   3   4  -9    8.11    1.48
  -3  -4   9    8.99    1.37
  -3  -4   9    7.74    1.42
  -3  -4   9    8.10    1.37
  -3  -4   9    7.79    1.21
  -3  -4   9    8.48    1.07
  -3  -4   9    7.73    1.32
  -3  -4   9    6.80    1.09
   2   4  -9   95.40    3.12
   2   4  -9   95.34    3.19
   2   4  -9   94.29    3.16
   2   4  -9   94.87    2.99
   2   4  -9   91.77    3.28
  -2  -4   9   92.34    2.88
  -2  -4   9   95.04    3.09
  -2  -4   9   93.72    3.20
  -2  -4   9   94.82    2.69
  -2  -4   9   95.61    2.99
  -2  -4   9   95.50    2.95
  -2  -4   9   96.28    2.71
   1   4  -9   13.22    1.33
   1   4  -9   15.46    1.32
   1   4  -9   13.56    1.29
   1   4  -9   15.03    1.46
   1   4  -9   14.62    1.27
   1   4  -9   12.87    1.40
   1   4  -9   14.58    1.41
  -1  -4   9   14.10    1.06
  -1  -4   9   15.29    1.23
  -1  -4   9   14.99    1.04
  -1  -4   9   14.63    1.22
  -1  -4   9   14.93    1.46
  -1  -4   9   14.40    1.34
  -1  -4   9   13.61    1.23
   0   4  -9    0.36    1.07
   0   4  -9    0.97    1.13
   0   4  -9   -1.08    0.84
   0   4  -9    1.37    1.26
   0   4  -9   -0.87    0.95
   0   4  -9    0.41    1.17
   0  -4   9    1.18    0.78
   0  -4   9   -0.83    1.08
   0  -4   9    0.08    0.90
   0  -4   9    0.31    0.76
   0  -4   9    0.52    0.96
   0  -4   9   -0.06    1.15
   0  -4   9    0.16    1.00
   0  -4   9   -0.21    0.73
  -1   4  -9   10.23    1.31
  -1   4  -9   13.57    1.37
  -1   4  -9   11.24    1.08
  -1   4  -9   10.00    1.54
  -1   4  -9   12.43    1.07
  -1   4  -9   11.06    1.73
  -1   4  -9    9.66    1.12
   1  -4   9   11.23    1.26
   1  -4   9   12.11    0.99
   1  -4   9   10.52    1.01
   1  -4   9    8.92    1.25
   1  -4   9   13.82    1.36
   1  -4   9   12.47    1.10
   1  -4   9   10.51    1.43
   1  -4   9   10.85    1.06
  -2   4  -9    2.79    1.02
  -2   4  -9    5.44    1.61
  -2   4  -9    2.73    1.17
  -2   4  -9    1.44    1.09
  -2   4  -9    5.71    1.56
  -2   4  -9    3.78    0.93
  -2   4  -9    2.25    1.27
  -2   4  -9    3.61    0.96
   2  -4   9    1.97    0.91
   2  -4   9    3.02    1.19
   2  -4   9    2.60    1.45
   2  -4   9    0.95    1.13
   2  -4   9    0.90    1.02
   2  -4   9    2.06    0.93
   2  -4   9    4.77    1.25
   2  -4   9    2.84    1.00
  -3   4  -9    5.02    1.10
  -3   4  -9    7.13    1.37
  -3   4  -9    7.72    1.26
  -3   4  -9    4.88    1.50
  -3   4  -9    7.75    1.36
  -3   4  -9    6.67    1.69
  -3   4  -9    7.04    1.76
  -3   4  -9    3.86    1.04
   3  -4   9    8.07    1.35
   3  -4   9    6.92    1.23
   3  -4   9    6.88    1.11
   3  -4   9    8.15    1.44
   3  -4   9    4.28    1.55
   3  -4   9    5.98    1.18
   3  -4   9    5.12    1.31
   3  -4   9    5.95    1.43
  -4   4  -9    3.02    1.24
  -4   4  -9   -0.39    1.82
  -4   4  -9    2.72    1.37
  -4   4  -9   -1.09    1.44
  -4   4  -9    0.96    1.88
  -4   4  -9    4.32    1.65
  -4   4  -9    0.50    1.10
   4  -4   9    3.82    1.17
   4  -4   9    1.82    0.91
   4  -4   9    3.66    1.98
   4  -4   9   -1.46    1.47
   4  -4   9    0.99    1.41
   4  -4   9    0.52    1.52
   4  -4   9    0.99    1.65
  -5   4  -9   16.22    1.50
  -5   4  -9   18.84    1.74
  -5   4  -9   16.33    2.80
  -5   4  -9   15.04    2.04
  -5   4  -9   15.18    1.74
  -5   4  -9   13.74    2.39
  -5   4  -9   18.53    2.24
   5  -4   9   15.80    2.50
   5  -4   9   16.67    1.05
   5  -4   9   15.95    1.97
   5  -4   9   17.31    1.96
   5  -4   9   19.24    1.97
   5  -4   9   14.20    1.56
   5  -4   9   16.03    2.07
   5   3  -9   -2.03    1.48
   5   3  -9    1.26    2.31
   5   3  -9    0.45    1.54
   5   3  -9    0.06    2.38
   5   3  -9   -1.58    1.88
  -5  -3   9    1.64    1.42
  -5  -3   9   -1.86    1.16
  -5  -3   9    0.92    1.39
  -5  -3   9    0.93    1.29
  -5  -3   9   -0.21    1.52
  -5  -3   9   -0.74    1.41
  -5  -3   9   -0.51    1.19
   4   3  -9    3.17    1.35
   4   3  -9    3.18    1.43
   4   3  -9    1.64    1.79
   4   3  -9    2.59    1.41
   4   3  -9    2.23    1.38
   4   3  -9    2.51    1.48
  -4  -3   9    2.99    1.00
  -4  -3   9    3.46    1.13
  -4  -3   9    2.51    1.20
  -4  -3   9    2.29    1.14
  -4  -3   9   -3.34    1.17
  -4  -3   9    4.36    1.25
  -4  -3   9    2.27    1.16
   3   3  -9   12.45    1.31
   3   3  -9   15.30    1.57
   3   3  -9   16.09    1.42
   3   3  -9   12.58    1.46
   3   3  -9   13.82    1.40
   3   3  -9   13.96    1.38
  -3  -3   9   15.50    1.27
  -3  -3   9   13.93    1.13
  -3  -3   9   12.32    1.10
  -3  -3   9   13.37    1.24
  -3  -3   9   11.04    1.10
  -3  -3   9   13.11    1.13
  -3  -3   9   12.79    1.01
   2   3  -9    5.48    1.15
   2   3  -9    4.37    1.13
   2   3  -9    4.37    1.02
   2   3  -9    5.20    1.25
   2   3  -9    5.11    1.18
   2   3  -9    5.67    1.13
  -2  -3   9    3.77    1.01
  -2  -3   9    4.04    0.95
  -2  -3   9    5.37    1.27
  -2  -3   9    5.05    1.05
  -2  -3   9    5.45    1.02
  -2  -3   9    4.03    0.83
  -2  -3   9    3.87    0.95
   1   3  -9   16.18    1.65
   1   3  -9   14.28    1.15
   1   3  -9   13.86    1.26
   1   3  -9   14.06    1.19
   1   3  -9   15.49    1.26
   1   3  -9   15.73    1.13
   1   3  -9   10.79    1.27
  -1  -3   9   16.72    1.19
  -1  -3   9   14.75    1.29
  -1  -3   9   15.21    1.23
  -1  -3   9   17.57    1.18
  -1  -3   9   15.61    1.08
  -1  -3   9   14.14    0.94
  -1  -3   9   15.28    1.13
   0   3  -9    0.41    0.84
   0   3  -9   -0.14    0.89
   0   3  -9   -0.08    0.80
   0   3  -9    0.08    1.02
   0   3  -9    0.45    0.72
   0   3  -9    0.77    0.99
   0   3  -9    1.06    1.01
   0  -3   9    0.36    0.74
   0  -3   9    0.89    0.61
   0  -3   9    0.49    0.66
   0  -3   9   -0.64    0.93
   0  -3   9    0.37    0.93
   0  -3   9    1.47    0.80
   0  -3   9    0.71    0.83
  -1   3  -9   36.92    1.96
  -1   3  -9   36.65    1.63
  -1   3  -9   37.34    1.84
  -1   3  -9   38.84    1.62
  -1   3  -9   35.16    2.08
  -1   3  -9   34.27    2.13
  -1   3  -9   37.61    1.47
  -1   3  -9   36.85    1.73
   1  -3   9   36.02    1.62
   1  -3   9   36.45    1.63
   1  -3   9   38.34    1.84
   1  -3   9   35.62    1.76
   1  -3   9   38.78    1.95
   1  -3   9   37.23    1.58
   1  -3   9   37.59    1.47
   1  -3   9   35.52    2.09
  -2   3  -9   48.11    1.95
  -2   3  -9   45.47    1.64
  -2   3  -9   45.77    2.07
  -2   3  -9   45.19    1.82
  -2   3  -9   43.77    2.32
  -2   3  -9   44.11    2.45
  -2   3  -9   45.87    1.73
  -2   3  -9   47.51    2.15
   2  -3   9   36.65    2.88
   2  -3   9   46.49    2.08
   2  -3   9   46.53    1.70
   2  -3   9   45.83    1.70
   2  -3   9   45.76    2.13
   2  -3   9   45.96    1.95
   2  -3   9   42.50    2.30
   2  -3   9   46.98    1.82
  -3   3  -9  148.26    3.48
  -3   3  -9  147.22    4.22
  -3   3  -9  141.73    3.58
  -3   3  -9  133.62    3.76
  -3   3  -9  153.87    3.95
  -3   3  -9  145.71    4.11
  -3   3  -9  146.72    3.90
  -3   3  -9  148.30    3.65
   3  -3   9  150.05    3.41
   3  -3   9  147.88    3.86
   3  -3   9  148.71    3.80
   3  -3   9  153.06    3.78
   3  -3   9  141.49    3.66
   3  -3   9  122.37    4.22
   3  -3   9  143.76    4.17
   3  -3   9  153.66    3.90
  -4   3  -9   53.27    2.11
  -4   3  -9   53.47    2.06
  -4   3  -9   55.30    2.84
  -4   3  -9   59.76    3.04
  -4   3  -9   54.21    2.72
  -4   3  -9   56.62    3.03
  -4   3  -9   54.97    2.37
  -4   3  -9   52.25    1.95
   4  -3   9   55.85    2.81
   4  -3   9   57.08    2.57
   4  -3   9   52.19    2.10
   4  -3   9   54.04    2.40
   4  -3   9   51.18    1.75
   4  -3   9   58.09    2.56
   4  -3   9   48.79    3.00
  -5   3  -9    7.44    1.41
  -5   3  -9    2.88    1.65
  -5   3  -9    3.71    1.25
  -5   3  -9    4.33    1.13
  -5   3  -9    2.22    1.77
  -5   3  -9    4.62    1.61
  -5   3  -9    3.41    1.74
   5  -3   9    3.69    1.50
   5  -3   9    2.89    1.76
   5  -3   9    4.70    0.74
   5  -3   9    2.58    1.09
   5  -3   9    3.24    1.35
   5  -3   9    5.25    1.43
   5  -3   9    3.82    1.49
  -6   3  -9   50.41    2.66
  -6   3  -9   42.93    2.89
  -6   3  -9   45.98    3.20
  -6   3  -9   53.97    4.05
  -6   3  -9   52.83    2.88
  -6   3  -9   47.70    3.90
  -6   3  -9   35.59    2.47
   6  -3   9   45.69    3.04
   6  -3   9   36.23    2.41
   6  -3   9   41.84    3.38
   6  -3   9   46.13    2.71
   6  -3   9   41.16    3.03
   6  -3   9   45.60    4.13
   6   2  -9    0.31    1.87
   6   2  -9   -0.36    3.13
  -6  -2   9    1.24    1.46
  -6  -2   9    1.64    1.62
  -6  -2   9    1.21    1.91
  -6  -2   9    3.54    1.41
   5   2  -9   -0.39    1.44
   5   2  -9   -1.00    1.58
   5   2  -9   -3.16    2.05
   5   2  -9    0.75    1.78
   5   2  -9   -2.47    1.33
   5   2  -9    0.86    1.37
  -5  -2   9   -1.07    1.23
  -5  -2   9    1.01    1.29
  -5  -2   9    1.06    1.39
  -5  -2   9    0.16    1.17
  -5  -2   9    0.71    1.35
  -5  -2   9    0.85    1.11
  -5  -2   9    0.16    1.39
   4   2  -9   48.63    2.75
   4   2  -9   43.70    2.43
   4   2  -9   48.77    2.97
   4   2  -9   46.88    2.33
   4   2  -9   46.92    2.69
   4   2  -9   41.31    2.40
  -4  -2   9   43.61    2.15
  -4  -2   9   43.99    2.18
  -4  -2   9   43.42    2.27
  -4  -2   9   46.79    2.16
  -4  -2   9   43.10    2.26
  -4  -2   9   50.13    2.10
  -4  -2   9   43.92    1.85
   3   2  -9    1.54    1.06
   3   2  -9    2.09    1.11
   3   2  -9    1.36    1.19
   3   2  -9    0.84    1.23
   3   2  -9    0.99    1.02
   3   2  -9    0.79    0.92
  -3  -2   9    0.41    0.68
  -3  -2   9   -0.31    0.80
  -3  -2   9    0.35    0.88
  -3  -2   9    1.41    0.79
  -3  -2   9   -0.23    0.80
  -3  -2   9   -0.54    0.78
  -3  -2   9    0.01    0.91
   2   2  -9    2.40    0.51
   2   2  -9    1.93    0.96
   2   2  -9    1.86    0.94
   2   2  -9    1.82    0.92
   2   2  -9    2.72    0.87
   2   2  -9    1.95    0.94
   2   2  -9    2.05    0.49
   2   2  -9    2.60    0.99
  -2  -2   9    2.75    0.91
  -2  -2   9    0.88    0.76
  -2  -2   9    2.65    0.82
  -2  -2   9    1.32    0.68
  -2  -2   9    1.47    0.72
  -2  -2   9    2.39    0.62
   1   2  -9   27.91    1.62
   1   2  -9   30.34    1.78
   1   2  -9   28.75    1.66
   1   2  -9   30.16    1.62
   1   2  -9   30.18    1.25
   1   2  -9   30.00    1.76
   1   2  -9   29.61    1.54
  -1  -2   9   30.99    1.51
  -1  -2   9   28.21    1.51
  -1  -2   9   30.12    1.74
  -1  -2   9   27.82    1.51
  -1  -2   9   29.67    1.35
  -1  -2   9   30.41    1.19
  -1  -2   9   30.00    1.64
   0   2  -9   46.98    1.64
   0   2  -9   45.95    1.98
   0   2  -9   46.33    1.67
   0   2  -9   45.78    1.80
   0   2  -9   41.46    2.11
   0   2  -9   46.29    1.93
   0  -2   9   47.97    1.74
   0  -2   9   48.15    1.87
   0  -2   9   47.63    1.72
   0  -2   9   47.05    1.41
   0  -2   9   50.45    1.89
   0  -2   9   40.45    1.91
   0  -2   9   46.96    1.60
  -1   2  -9  166.91    4.03
  -1   2  -9  170.45    3.98
  -1   2  -9  166.33    3.95
  -1   2  -9  163.37    3.86
  -1   2  -9  169.60    3.62
  -1   2  -9  168.66    3.79
  -1   2  -9  168.28    3.87
   1  -2   9  163.34    3.63
   1  -2   9  166.23    3.77
   1  -2   9  165.16    3.83
   1  -2   9  170.43    3.91
   1  -2   9  163.29    4.01
   1  -2   9  148.81    4.02
   1  -2   9  169.03    3.99
  -2   2  -9    1.63    0.55
  -2   2  -9    0.78    0.63
  -2   2  -9    3.02    0.92
  -2   2  -9    1.05    0.98
  -2   2  -9    1.52    0.85
  -2   2  -9    2.65    0.85
  -2   2  -9    1.29    0.72
   2  -2   9    1.77    0.80
   2  -2   9    1.76    0.69
   2  -2   9    1.34    0.70
   2  -2   9    1.05    0.85
   2  -2   9    2.06    0.55
   2  -2   9    1.99    0.62
   2  -2   9    1.42    0.69
   2  -2   9    1.52    0.75
  -3   2  -9   54.97    2.34
  -3   2  -9   53.90    1.67
  -3   2  -9   52.98    2.19
  -3   2  -9   53.04    1.78
  -3   2  -9   56.06    2.19
  -3   2  -9   54.84    1.90
  -3   2  -9   54.17    1.82
  -3   2  -9   53.04    2.32
   3  -2   9   53.22    2.05
   3  -2   9   55.71    2.04
   3  -2   9   51.88    1.71
   3  -2   9   53.89    1.65
   3  -2   9   53.76    2.02
   3  -2   9   52.75    1.99
   3  -2   9   51.39    2.29
  -4   2  -9   46.34    2.57
  -4   2  -9   48.57    2.35
  -4   2  -9   51.29    1.77
  -4   2  -9   53.06    2.54
  -4   2  -9   49.48    1.69
  -4   2  -9   46.20    1.83
  -4   2  -9   47.63    1.99
  -4   2  -9   49.17    2.37
   4  -2   9   48.99    2.09
   4  -2   9   49.36    2.12
   4  -2   9   49.47    2.56
   4  -2   9   49.86    2.23
   4  -2   9   50.33    2.17
   4  -2   9   48.06    1.76
   4  -2   9   49.52    1.55
  -5   2  -9   71.03    1.98
  -5   2  -9   64.96    3.03
  -5   2  -9   73.05    2.42
  -5   2  -9   72.90    2.37
  -5   2  -9   73.13    3.01
  -5   2  -9   72.51    2.52
  -5   2  -9   75.27    3.24
  -5   2  -9   74.43    3.16
   5  -2   9   68.43    1.88
   5  -2   9   67.55    3.16
   5  -2   9   71.63    2.87
   5  -2   9   68.65    2.34
   5  -2   9   74.19    2.79
   5  -2   9   75.29    2.62
   5  -2   9   71.82    2.59
  -6   2  -9    0.84    1.21
  -6   2  -9   -1.16    1.24
  -6   2  -9    1.71    1.68
  -6   2  -9   -1.06    1.19
  -6   2  -9   -0.04    1.53
  -6   2  -9   -2.43    1.90
  -6   2  -9   -0.88    1.82
   6  -2   9    0.88    1.51
   6  -2   9    2.24    1.79
   6  -2   9   -0.19    1.08
   6  -2   9    0.91    1.51
   6  -2   9    1.89    1.75
  -7   2  -9   15.12    1.76
  -7   2  -9   13.50    1.76
  -7   2  -9   13.34    2.35
  -7   2  -9   22.78    4.24
  -7   2  -9   16.72    2.53
   7  -2   9   18.36    1.72
   7  -2   9   12.12    2.19
   6   1  -9    5.56    1.77
   6   1  -9    2.91    2.38
   6   1  -9    2.18    1.68
  -6  -1   9    2.88    1.79
  -6  -1   9    0.98    1.97
  -6  -1   9    2.81    1.81
  -6  -1   9    5.24    1.63
   5   1  -9    5.16    1.72
   5   1  -9    4.46    1.36
   5   1  -9    4.79    1.66
   5   1  -9    3.83    1.29
   5   1  -9    6.70    2.00
   5   1  -9    3.83    1.41
  -5  -1   9    4.23    1.25
  -5  -1   9    4.48    1.22
  -5  -1   9    4.75    1.38
  -5  -1   9    5.28    1.30
  -5  -1   9    7.80    1.48
   4   1  -9   16.33    1.42
   4   1  -9   15.51    1.27
   4   1  -9   15.39    1.57
   4   1  -9   14.79    1.29
   4   1  -9   18.60    1.75
   4   1  -9   18.76    1.62
  -4  -1   9   13.99    1.02
  -4  -1   9   18.35    1.29
  -4  -1   9   16.38    1.19
  -4  -1   9   15.45    1.01
  -4  -1   9   17.66    1.34
  -4  -1   9   17.58    1.48
  -4  -1   9   16.81    1.25
   3   1  -9    3.20    1.15
   3   1  -9    4.05    1.14
   3   1  -9    1.88    0.48
   3   1  -9    0.87    0.90
   3   1  -9    1.74    1.12
   3   1  -9    2.15    0.51
   3   1  -9    2.65    0.92
  -3  -1   9    1.91    0.61
  -3  -1   9    1.46    0.90
  -3  -1   9    1.40    0.76
  -3  -1   9    1.55    0.85
  -3  -1   9    0.33    0.73
  -3  -1   9    1.47    0.76
  -3  -1   9    1.56    0.84
   2   1  -9   80.07    2.31
   2   1  -9   76.84    2.42
   2   1  -9   76.20    2.31
   2   1  -9   76.30    2.55
   2   1  -9   77.67    2.42
   2   1  -9   73.99    2.38
   2   1  -9   75.90    1.90
   2   1  -9   76.19    2.04
  -2  -1   9   76.09    1.93
  -2  -1   9   79.29    2.04
  -2  -1   9   76.19    2.24
  -2  -1   9   76.87    2.31
  -2  -1   9   75.34    2.29
  -2  -1   9   74.60    2.13
  -2  -1   9   77.52    2.18
   1   1  -9  124.36    3.14
   1   1  -9  120.16    3.03
   1   1  -9  121.31    2.95
   1   1  -9  115.33    2.75
   1   1  -9  115.40    2.98
   1   1  -9  120.48    2.98
   1   1  -9  117.05    3.10
  -1  -1   9  120.16    2.89
  -1  -1   9  120.29    2.93
  -1  -1   9  115.79    2.95
  -1  -1   9  117.38    2.84
  -1  -1   9  117.29    2.65
   0   1  -9  114.33    2.87
   0   1  -9  115.95    2.78
   0   1  -9  112.91    2.72
   0   1  -9  111.17    2.97
   0   1  -9  116.06    2.84
   0   1  -9  114.92    2.93
   0   1  -9  112.51    2.75
   0  -1   9  115.33    2.78
   0  -1   9  112.44    2.93
   0  -1   9  112.06    2.50
   0  -1   9  114.52    2.79
   0  -1   9  111.29    2.87
   0  -1   9   98.86    3.10
   0  -1   9  117.08    2.78
  -1   1  -9    9.39    0.80
  -1   1  -9    9.13    0.83
  -1   1  -9   11.19    0.96
  -1   1  -9    9.82    0.89
  -1   1  -9    9.77    0.88
  -1   1  -9    9.42    0.75
   1  -1   9    9.69    0.77
   1  -1   9   10.01    0.74
   1  -1   9    8.59    0.75
   1  -1   9    9.63    0.87
   1  -1   9    9.27    0.69
   1  -1   9    8.92    0.76
   1  -1   9    8.52    0.84
  -2   1  -9   20.17    1.16
  -2   1  -9   20.61    1.48
  -2   1  -9   19.27    1.15
  -2   1  -9   19.66    1.45
  -2   1  -9   19.12    1.17
  -2   1  -9   19.76    1.36
  -2   1  -9   20.84    1.40
  -2   1  -9   20.75    0.85
   2  -1   9   21.56    1.33
   2  -1   9   20.25    1.16
   2  -1   9   20.78    1.23
   2  -1   9   19.13    1.45
   2  -1   9   19.97    0.89
   2  -1   9   21.03    1.42
   2  -1   9   19.90    1.06
  -3   1  -9   16.31    0.91
  -3   1  -9   15.89    1.19
  -3   1  -9   14.74    1.17
  -3   1  -9   16.19    1.45
  -3   1  -9   16.46    1.18
  -3   1  -9   14.10    1.07
  -3   1  -9   13.79    1.07
   3  -1   9   15.12    0.94
   3  -1   9   12.94    1.01
   3  -1   9   15.76    1.32
   3  -1   9   14.50    1.00
   3  -1   9   13.86    0.97
   3  -1   9   15.42    1.04
   3  -1   9   12.64    1.00
   3  -1   9   12.69    1.09
  -4   1  -9   16.19    1.29
  -4   1  -9   15.16    1.26
  -4   1  -9   18.59    1.33
  -4   1  -9   12.38    1.11
  -4   1  -9   15.84    1.09
  -4   1  -9   12.97    1.19
  -4   1  -9   15.23    1.11
   4  -1   9   15.18    1.11
   4  -1   9   14.18    1.05
   4  -1   9   16.80    1.01
   4  -1   9   14.69    1.09
   4  -1   9   14.87    1.10
   4  -1   9   13.34    0.95
   4  -1   9   14.87    1.27
   4  -1   9   12.71    1.13
  -5   1  -9   27.89    1.52
  -5   1  -9   27.81    1.20
  -5   1  -9   26.45    1.71
  -5   1  -9   31.89    1.73
  -5   1  -9   32.16    2.08
  -5   1  -9   31.67    2.30
  -5   1  -9   27.30    2.11
  -5   1  -9   27.57    1.73
   5  -1   9   27.03    1.17
   5  -1   9   29.94    1.74
   5  -1   9   31.67    2.28
   5  -1   9   30.82    2.04
   5  -1   9   26.86    1.97
   5  -1   9   26.96    1.49
   5  -1   9   28.96    1.66
  -6   1  -9    0.64    1.09
  -6   1  -9    0.80    1.44
  -6   1  -9   -0.71    0.99
  -6   1  -9    0.38    1.04
  -6   1  -9   -1.34    1.50
  -6   1  -9   -2.57    1.27
  -6   1  -9   -0.30    1.33
   6  -1   9    0.00    0.92
   6  -1   9    0.14    1.17
   6  -1   9   -0.05    1.27
   6  -1   9   -0.24    1.03
   6  -1   9    1.10    1.39
   6  -1   9    0.91    0.91
  -7   1  -9    2.05    1.75
  -7   1  -9    0.42    1.87
  -7   1  -9   -0.29    1.15
  -7   1  -9   -0.24    1.43
  -7   1  -9   -0.05    1.38
  -7   1  -9   -2.61    2.06
  -7   1  -9    0.24    1.94
   7  -1   9    1.07    1.28
   7  -1   9    0.70    1.68
   7  -1   9    0.73    1.66
   7  -1   9   -1.90    1.19
   7  -1   9   -1.56    1.41
   7  -1   9   -0.43    1.13
   6   0  -9    2.12    1.70
   6   0  -9   10.60    1.64
   6   0  -9    8.12    2.76
   6   0  -9   11.87    1.95
  -6   0   9   11.47    1.95
  -6   0   9   12.54    2.11
  -6   0   9   11.18    1.81
  -6   0   9    7.01    1.82
  -6   0   9   10.90    1.70
   5   0  -9   23.36    2.25
   5   0  -9   26.52    2.14
   5   0  -9   24.24    1.17
   5   0  -9   27.11    1.64
   5   0  -9   26.35    1.68
   5   0  -9   26.34    2.17
   5   0  -9   21.05    1.79
  -5   0   9   26.45    2.23
  -5   0   9   25.47    1.54
  -5   0   9   27.82    1.67
  -5   0   9   24.86    1.82
  -5   0   9   22.86    1.59
  -5   0   9   26.63    2.14
   4   0  -9    1.55    0.73
   4   0  -9   -0.32    1.34
   4   0  -9    1.21    0.59
   4   0  -9    0.84    1.02
   4   0  -9    0.37    1.04
   4   0  -9    1.20    1.14
   4   0  -9   -0.64    1.43
   4   0  -9   -0.17    1.42
  -4   0   9    1.61    0.96
  -4   0   9    1.03    0.89
  -4   0   9    1.19    1.02
  -4   0   9    1.24    1.11
  -4   0   9    1.71    0.96
  -4   0   9    0.33    0.94
   3   0  -9   62.67    1.68
   3   0  -9   64.08    2.14
   3   0  -9   64.25    2.59
   3   0  -9   59.84    2.36
   3   0  -9   60.15    2.15
   3   0  -9   66.55    2.48
   3   0  -9   61.78    1.77
   3   0  -9   66.33    2.50
  -3   0   9   64.86    1.94
  -3   0   9   59.72    2.15
  -3   0   9   61.41    2.00
  -3   0   9   62.36    2.26
  -3   0   9   60.13    2.15
   2   0  -9    4.80    0.92
   2   0  -9    5.57    0.66
   2   0  -9    5.59    0.94
   2   0  -9    4.77    0.88
   2   0  -9    5.54    0.61
   2   0  -9    5.95    0.83
   2   0  -9    4.41    0.98
   2   0  -9    4.58    0.75
  -2   0   9    5.01    0.79
  -2   0   9    6.17    0.72
  -2   0   9    5.04    0.85
  -2   0   9    4.70    0.81
  -2   0   9    5.89    0.63
  -2   0   9    5.55    0.70
  -2   0   9    5.60    0.52
   1   0  -9   15.69    1.45
   1   0  -9   15.72    1.20
   1   0  -9   15.85    0.96
   1   0  -9   14.07    0.97
   1   0  -9   13.28    1.12
   1   0  -9   16.84    1.26
   1   0  -9   15.89    1.32
   1   0  -9   16.33    1.40
  -1   0   9   14.61    1.09
  -1   0   9   16.69    1.22
  -1   0   9   16.58    1.07
  -1   0   9   15.05    0.70
  -1   0   9   13.14    0.90
  -1   0   9   13.19    1.10
  -1   0   9   15.09    0.81
   0   0  -9   31.36    1.44
   0   0  -9   28.94    1.23
   0   0  -9   31.98    1.52
   0   0  -9   28.45    1.27
   0   0  -9   26.60    1.33
   0   0  -9   28.60    1.30
   0   0  -9   29.30    1.30
   0   0   9   29.57    1.22
   0   0   9   28.73    1.34
   0   0   9   28.57    0.87
   0   0   9   28.77    1.26
   0   0   9   33.07    1.24
   0   0   9   29.30    1.31
   0   0   9   29.37    0.84
  -1   0  -9    0.30    0.59
  -1   0  -9    0.32    0.53
  -1   0  -9   -0.06    0.55
  -1   0  -9    0.63    0.56
  -1   0  -9    0.71    0.64
  -1   0  -9    0.12    0.60
  -1   0  -9    0.56    0.54
   1   0   9    0.17    0.54
   1   0   9    1.00    0.28
   1   0   9    0.31    0.48
   1   0   9    0.19    0.52
   1   0   9   -0.05    0.47
   1   0   9    0.11    0.56
   1   0   9    0.35    0.55
  -2   0  -9   87.71    1.90
  -2   0  -9   88.48    2.39
  -2   0  -9   84.33    2.40
  -2   0  -9   87.25    2.20
  -2   0  -9   86.91    2.20
  -2   0  -9   86.10    2.37
  -2   0  -9   89.44    2.34
  -2   0  -9   86.48    2.18
   2   0   9   86.92    2.32
   2   0   9   85.82    2.36
   2   0   9   86.06    2.20
   2   0   9   88.73    2.21
   2   0   9   87.82    2.29
   2   0   9   88.36    1.93
   2   0   9   86.76    2.25
  -3   0  -9    1.00    0.59
  -3   0  -9    2.37    0.40
  -3   0  -9    2.03    0.69
  -3   0  -9    2.20    0.76
  -3   0  -9    1.53    0.72
  -3   0  -9    2.23    0.54
  -3   0  -9    1.18    0.68
  -3   0  -9    1.67    0.51
   3   0   9    2.22    0.75
   3   0   9    3.03    0.56
   3   0   9    0.89    0.81
   3   0   9    1.92    0.41
   3   0   9    1.58    0.58
  -4   0  -9    3.89    0.71
  -4   0  -9    3.96    0.62
  -4   0  -9    3.94    0.82
  -4   0  -9    2.83    0.52
  -4   0  -9    4.24    0.67
  -4   0  -9    6.37    0.94
  -4   0  -9    3.82    0.96
   4   0   9    4.29    0.63
   4   0   9    6.05    0.88
   4   0   9    4.95    0.62
   4   0   9    5.01    0.69
   4   0   9    4.14    0.80
   4   0   9    3.90    0.55
   4   0   9    4.63    0.94
  -5   0  -9    6.05    0.88
  -5   0  -9    6.46    0.73
  -5   0  -9    5.42    0.75
  -5   0  -9    5.53    1.16
  -5   0  -9    8.29    1.12
  -5   0  -9    5.90    0.97
  -5   0  -9    7.03    0.63
  -5   0  -9    5.16    1.03
   5   0   9    3.81    0.90
   5   0   9    5.23    0.95
   5   0   9    4.75    0.70
   5   0   9    4.63    1.00
   5   0   9    5.42    0.80
   5   0   9    6.39    0.66
   5   0   9    6.99    0.79
  -6   0  -9   -0.15    0.86
  -6   0  -9   -1.33    1.10
  -6   0  -9   -0.67    1.02
  -6   0  -9   -0.79    1.30
  -6   0  -9   -0.19    1.33
   6   0   9   -0.59    0.95
   6   0   9    1.39    1.07
   6   0   9    0.13    0.74
   6   0   9    0.77    1.09
   6   0   9    0.65    0.72
   6   0   9   -0.01    0.79
  -7   0  -9    7.46    1.57
  -7   0  -9    7.66    1.69
  -7   0  -9    6.99    1.28
  -7   0  -9    5.54    1.12
  -7   0  -9    5.47    1.71
  -7   0  -9   12.32    1.86
  -7   0  -9    7.19    1.44
   7   0   9    6.21    1.41
   7   0   9    6.22    1.06
   7   0   9    8.42    1.45
   7   0   9    6.26    1.05
   7   0   9    8.46    1.33
   7   0   9    7.61    1.07
  -8   0  -9   16.31    2.55
  -8   0  -9   19.41    1.84
   8   0   9   18.02    1.55
   8   0   9   22.16    1.71
   8   0   9   19.94    1.41
   6  -1  -9   17.27    2.52
   6  -1  -9   12.84    1.66
   6  -1  -9   15.36    1.42
   6  -1  -9   15.50    1.90
   6  -1  -9   13.51    2.06
  -6   1   9   13.34    2.09
  -6   1   9   12.09    1.63
  -6   1   9   15.51    1.86
  -6   1   9   14.01    1.72
   5  -1  -9    0.03    1.24
   5  -1  -9    2.00    1.53
   5  -1  -9   -2.54    2.02
   5  -1  -9   -0.37    1.33
   5  -1  -9   -0.37    1.80
   5  -1  -9   -0.10    1.07
   5  -1  -9    0.64    1.92
  -5   1   9    0.88    1.28
  -5   1   9    0.41    1.20
  -5   1   9   -0.68    1.16
  -5   1   9    1.29    1.62
  -5   1   9    1.06    1.18
  -5   1   9    0.36    1.28
   4  -1  -9   69.17    3.18
   4  -1  -9   74.40    2.60
   4  -1  -9   79.55    3.12
   4  -1  -9   70.55    2.81
   4  -1  -9   79.31    3.36
   4  -1  -9   73.22    2.31
   4  -1  -9   73.12    2.51
  -4   1   9   76.31    2.43
  -4   1   9   75.47    2.42
  -4   1   9   75.06    2.56
  -4   1   9   73.34    2.69
  -4   1   9   72.41    2.48
  -4   1   9   72.69    2.83
   3  -1  -9    0.48    1.13
   3  -1  -9   -1.50    1.06
   3  -1  -9   -0.18    0.96
   3  -1  -9   -0.42    0.75
   3  -1  -9    0.38    0.81
   3  -1  -9   -1.21    1.16
   3  -1  -9   -0.52    0.78
  -3   1   9   -0.10    0.84
  -3   1   9    0.18    0.86
  -3   1   9    0.99    0.69
  -3   1   9   -0.69    0.68
  -3   1   9   -0.29    0.91
  -3   1   9    0.34    0.75
   2  -1  -9    2.74    0.79
   2  -1  -9    2.88    0.87
   2  -1  -9    1.89    0.70
   2  -1  -9    1.98    0.92
   2  -1  -9    1.92    0.66
   2  -1  -9    2.88    0.98
   2  -1  -9    1.48    0.82
  -2   1   9    2.55    0.77
  -2   1   9    0.93    0.77
  -2   1   9    2.02    0.76
  -2   1   9    2.36    0.62
  -2   1   9    1.43    0.54
   1  -1  -9   13.90    1.27
   1  -1  -9   12.93    1.03
   1  -1  -9   13.20    0.93
   1  -1  -9   14.20    1.18
   1  -1  -9   14.39    1.04
   1  -1  -9   13.19    0.95
   1  -1  -9   13.66    1.21
  -1   1   9   12.35    0.92
  -1   1   9   15.14    1.10
  -1   1   9   14.12    1.00
  -1   1   9   13.91    0.59
  -1   1   9   14.04    0.72
  -1   1   9   14.31    0.95
  -1   1   9   14.96    1.16
   0  -1  -9   11.80    0.77
   0  -1  -9   11.97    0.82
   0  -1  -9   13.44    1.16
   0  -1  -9   14.06    1.13
   0  -1  -9   13.69    1.03
   0  -1  -9   13.16    1.04
   0  -1  -9   13.88    1.24
   0  -1  -9   15.08    1.02
   0   1   9   12.33    0.93
   0   1   9   14.24    0.94
   0   1   9   13.94    1.10
   0   1   9   12.87    0.87
   0   1   9   13.15    1.03
  -1  -1  -9   14.20    1.03
  -1  -1  -9   13.78    1.09
  -1  -1  -9   14.92    1.10
  -1  -1  -9   13.99    1.00
  -1  -1  -9   12.07    0.98
  -1  -1  -9   13.21    1.20
  -1  -1  -9   13.24    1.08
   1   1   9   14.81    0.98
   1   1   9   14.78    0.88
   1   1   9   13.52    1.00
   1   1   9   12.13    0.98
   1   1   9   12.29    1.02
  -2  -1  -9   58.76    1.82
  -2  -1  -9   60.19    1.74
  -2  -1  -9   57.94    1.83
  -2  -1  -9   59.04    1.67
  -2  -1  -9   59.44    1.69
  -2  -1  -9   61.63    1.79
  -2  -1  -9   57.17    1.65
   2   1   9   58.18    1.74
   2   1   9   59.54    1.76
   2   1   9   59.47    1.66
   2   1   9   57.54    1.74
  -3  -1  -9  109.66    2.70
  -3  -1  -9  110.07    2.65
  -3  -1  -9  112.40    2.72
  -3  -1  -9  114.04    2.85
  -3  -1  -9  108.26    2.58
  -3  -1  -9  111.00    2.59
  -3  -1  -9  110.28    2.79
   3   1   9  102.51    3.02
   3   1   9  111.20    2.66
   3   1   9  109.11    2.32
   3   1   9  108.40    2.74
   3   1   9  111.19    2.65
   3   1   9  111.86    2.64
   3   1   9  113.29    2.59
  -4  -1  -9   15.38    0.78
  -4  -1  -9   15.34    1.20
  -4  -1  -9   15.00    1.16
  -4  -1  -9   11.08    0.95
  -4  -1  -9   14.72    1.01
  -4  -1  -9   14.56    0.95
  -4  -1  -9   12.26    1.02
  -4  -1  -9   14.85    0.99
   4   1   9   13.34    0.74
   4   1   9   14.10    0.97
   4   1   9   13.83    1.16
   4   1   9   14.45    1.05
   4   1   9   13.37    1.02
   4   1   9   13.34    1.02
   4   1   9   15.27    1.27
  -5  -1  -9   19.48    1.20
  -5  -1  -9   19.02    1.43
  -5  -1  -9   20.61    1.57
  -5  -1  -9   18.08    0.96
  -5  -1  -9   19.96    1.44
  -5  -1  -9   19.83    1.40
  -5  -1  -9   20.23    1.60
  -5  -1  -9   18.55    1.07
   5   1   9   18.65    1.00
   5   1   9   19.61    1.35
   5   1   9   19.15    1.47
   5   1   9   17.98    1.20
   5   1   9   20.13    1.09
   5   1   9   19.58    1.12
  -6  -1  -9   -0.70    0.96
  -6  -1  -9   -0.22    0.47
  -6  -1  -9   -0.11    0.73
  -6  -1  -9    0.34    0.95
  -6  -1  -9   -0.34    1.08
  -6  -1  -9   -0.26    0.75
  -6  -1  -9    1.14    0.98
  -6  -1  -9    0.77    1.21
   6   1   9   -0.96    0.62
   6   1   9    0.20    0.87
   6   1   9   -0.65    0.82
   6   1   9   -0.12    0.67
   6   1   9   -0.03    0.60
  -7  -1  -9   14.10    1.24
  -7  -1  -9   15.95    1.44
  -7  -1  -9   13.92    1.64
  -7  -1  -9   11.49    1.80
  -7  -1  -9   13.83    1.40
  -7  -1  -9   18.02    1.67
  -7  -1  -9   14.05    1.13
   7   1   9   15.88    1.33
   7   1   9   18.43    1.18
   7   1   9   15.91    1.23
   7   1   9   18.87    1.18
   7   1   9   16.06    0.95
  -8  -1  -9    6.87    2.10
  -8  -1  -9    7.58    1.51
  -8  -1  -9    8.58    1.85
  -8  -1  -9    6.18    1.37
  -8  -1  -9    5.82    2.16
  -8  -1  -9    6.78    2.10
   8   1   9    7.66    0.93
   8   1   9    8.31    0.93
   8   1   9    9.11    1.29
   8   1   9   10.75    1.17
   5  -2  -9    1.89    2.10
   5  -2  -9    1.27    1.98
   5  -2  -9   -3.00    2.17
   5  -2  -9    1.30    1.23
   5  -2  -9    3.62    1.70
   5  -2  -9    2.16    1.48
   5  -2  -9    1.36    1.34
  -5   2   9    2.04    1.43
  -5   2   9    0.97    1.47
  -5   2   9    1.94    1.63
  -5   2   9    1.91    1.25
  -5   2   9    2.87    1.13
  -5   2   9    3.16    1.44
   4  -2  -9    1.26    1.03
   4  -2  -9   -1.31    1.44
   4  -2  -9    0.27    1.68
   4  -2  -9   -0.45    1.09
   4  -2  -9    1.05    1.15
   4  -2  -9    1.63    1.65
  -4   2   9    2.47    1.14
  -4   2   9    1.21    0.89
  -4   2   9    0.55    0.92
  -4   2   9    0.91    1.30
  -4   2   9    0.77    1.08
  -4   2   9   -0.99    1.11
   3  -2  -9   26.75    2.45
   3  -2  -9   33.65    1.79
   3  -2  -9   33.86    2.13
   3  -2  -9   36.78    2.14
   3  -2  -9   31.84    1.74
   3  -2  -9   32.76    1.73
   3  -2  -9   33.88    2.29
  -3   2   9   29.53    1.67
  -3   2   9   30.73    1.39
  -3   2   9   29.62    2.05
  -3   2   9   31.80    1.54
  -3   2   9   33.76    1.89
  -3   2   9   29.83    1.80
   2  -2  -9    8.97    0.93
   2  -2  -9    9.31    0.88
   2  -2  -9    9.34    0.91
   2  -2  -9    9.28    1.20
   2  -2  -9    8.85    0.97
   2  -2  -9    8.50    1.15
   2  -2  -9    8.98    1.09
  -2   2   9    9.86    0.93
  -2   2   9    8.92    0.98
  -2   2   9    9.63    0.78
  -2   2   9    9.91    0.64
  -2   2   9    8.99    0.82
  -2   2   9    9.35    1.05
   1  -2  -9   77.09    2.30
   1  -2  -9   72.54    2.11
   1  -2  -9   78.99    2.15
   1  -2  -9   75.25    2.30
   1  -2  -9   74.45    2.14
   1  -2  -9   71.79    2.15
   1  -2  -9   79.88    2.46
  -1   2   9   75.62    2.01
  -1   2   9   76.76    1.68
  -1   2   9   75.18    2.15
  -1   2   9   72.06    2.25
  -1   2   9   76.12    2.23
   0  -2  -9   99.64    2.70
   0  -2  -9  101.71    2.56
   0  -2  -9  101.24    2.51
   0  -2  -9  101.49    2.52
   0  -2  -9  103.61    2.50
   0  -2  -9  100.33    2.63
   0  -2  -9   97.32    2.58
   0   2   9  104.43    2.45
   0   2   9  100.42    2.53
   0   2   9  100.19    2.60
   0   2   9  101.09    2.57
   0   2   9   98.30    2.40
  -1  -2  -9   12.52    1.01
  -1  -2  -9   11.61    1.10
  -1  -2  -9   10.14    0.76
  -1  -2  -9   11.33    0.74
  -1  -2  -9   14.05    1.00
  -1  -2  -9   14.37    1.07
  -1  -2  -9    9.81    0.72
  -1  -2  -9   11.86    1.06
   1   2   9   11.84    0.91
   1   2   9   12.95    1.09
   1   2   9   10.44    0.75
   1   2   9    9.74    0.69
  -2  -2  -9   10.79    0.72
  -2  -2  -9    9.42    0.69
  -2  -2  -9    8.55    0.68
  -2  -2  -9   10.43    1.01
  -2  -2  -9   10.85    0.77
  -2  -2  -9    7.96    0.68
  -2  -2  -9   10.13    0.80
   2   2   9   10.43    0.68
   2   2   9   11.03    0.78
   2   2   9    9.47    0.63
   2   2   9   10.75    0.91
   2   2   9    9.90    0.76
  -3  -2  -9    7.34    0.63
  -3  -2  -9    6.64    0.60
  -3  -2  -9    6.40    0.65
  -3  -2  -9    6.75    0.67
  -3  -2  -9    6.39    0.65
  -3  -2  -9    7.82    0.83
  -3  -2  -9    8.45    0.75
   3   2   9    6.93    0.72
   3   2   9    8.65    0.62
   3   2   9    6.88    0.67
   3   2   9   10.55    0.86
  -4  -2  -9   46.56    1.48
  -4  -2  -9   47.29    1.43
  -4  -2  -9   50.27    1.96
  -4  -2  -9   49.90    1.66
  -4  -2  -9   48.13    1.66
  -4  -2  -9   48.27    1.68
  -4  -2  -9   50.46    1.59
  -4  -2  -9   50.13    1.23
   4   2   9   49.10    1.50
   4   2   9   49.69    1.93
   4   2   9   47.51    1.59
   4   2   9   50.37    1.39
   4   2   9   51.37    1.68
  -5  -2  -9  206.15    4.52
  -5  -2  -9  199.89    4.27
  -5  -2  -9  195.76    4.46
  -5  -2  -9  198.24    4.38
  -5  -2  -9  190.15    4.23
  -5  -2  -9  198.62    4.50
  -5  -2  -9  194.71    4.72
  -5  -2  -9  198.30    4.21
   5   2   9  197.62    4.33
   5   2   9  200.89    4.25
   5   2   9  195.53    4.15
  -6  -2  -9    5.61    0.90
  -6  -2  -9    6.06    0.61
  -6  -2  -9    5.14    1.05
  -6  -2  -9    3.41    1.04
  -6  -2  -9    5.40    0.74
  -6  -2  -9    6.26    1.19
  -6  -2  -9    4.54    0.79
  -6  -2  -9    6.10    1.08
   6   2   9    5.48    0.68
   6   2   9    4.81    0.70
   6   2   9    5.41    0.53
  -7  -2  -9   13.02    1.43
  -7  -2  -9   13.06    1.38
  -7  -2  -9   11.78    0.81
  -7  -2  -9   12.14    0.99
  -7  -2  -9   11.81    1.47
  -7  -2  -9   14.38    1.69
  -7  -2  -9   12.24    1.22
  -7  -2  -9   14.41    1.47
  -8  -2  -9    4.06    1.22
  -8  -2  -9    3.45    1.41
  -8  -2  -9    3.82    1.66
  -8  -2  -9    3.46    2.02
  -8  -2  -9    2.25    1.66
  -8  -2  -9    1.80    1.69
   5  -3  -9    0.80    2.30
   5  -3  -9    5.34    1.71
   5  -3  -9    5.54    1.37
   5  -3  -9    2.88    2.20
   5  -3  -9    7.48    1.74
   5  -3  -9    5.23    1.98
   5  -3  -9    8.20    2.50
  -5   3   9    3.91    1.67
  -5   3   9    4.16    1.67
  -5   3   9    4.30    1.60
  -5   3   9    7.09    1.26
  -5   3   9    4.24    1.96
  -5   3   9    3.96    2.98
  -5   3   9    4.37    1.36
   4  -3  -9    2.87    2.02
   4  -3  -9    4.84    1.37
   4  -3  -9    4.80    1.61
   4  -3  -9    7.64    1.42
   4  -3  -9    4.53    1.15
   4  -3  -9    4.73    1.91
  -4   3   9    4.88    1.01
  -4   3   9    6.86    1.41
  -4   3   9    2.61    1.73
  -4   3   9    4.03    1.01
  -4   3   9    4.10    1.22
  -4   3   9    4.38    1.31
  -4   3   9    2.03    1.28
   3  -3  -9    0.91    1.42
   3  -3  -9    0.82    1.73
   3  -3  -9    0.06    1.47
   3  -3  -9    1.82    1.03
   3  -3  -9    0.61    1.16
   3  -3  -9    1.26    0.89
  -3   3   9    0.81    0.98
  -3   3   9    1.46    0.73
  -3   3   9    1.45    0.98
  -3   3   9    1.33    1.25
  -3   3   9    0.82    0.93
  -3   3   9    0.18    0.72
   2  -3  -9   12.54    1.07
   2  -3  -9    7.49    1.04
   2  -3  -9   11.24    0.97
   2  -3  -9   13.74    1.08
   2  -3  -9   14.27    1.38
   2  -3  -9   14.16    1.11
  -2   3   9   10.13    1.04
  -2   3   9   10.57    1.13
  -2   3   9   11.83    0.96
  -2   3   9   12.42    0.81
  -2   3   9   11.36    0.92
   1  -3  -9  293.94    6.48
   1  -3  -9  308.03    6.49
   1  -3  -9  303.63    6.63
   1  -3  -9  302.31    6.74
   1  -3  -9  306.63    6.51
   1  -3  -9  309.43    6.49
   1  -3  -9  299.85    6.62
  -1   3   9  294.37    6.50
  -1   3   9  308.39    6.39
  -1   3   9  303.13    6.58
  -1   3   9  298.27    6.34
  -1   3   9  299.54    6.10
   0  -3  -9  104.68    2.71
   0  -3  -9  104.30    2.59
   0  -3  -9  103.33    2.72
   0  -3  -9  104.42    2.52
   0  -3  -9  102.46    2.83
   0  -3  -9  100.16    2.63
   0  -3  -9  104.37    2.66
   0   3   9  102.79    2.67
   0   3   9  100.77    2.55
   0   3   9   94.32    3.15
   0   3   9  103.68    2.48
   0   3   9   99.97    2.48
  -1  -3  -9  221.35    4.63
  -1  -3  -9  210.93    4.70
  -1  -3  -9  208.45    4.73
  -1  -3  -9  216.30    4.66
  -1  -3  -9  211.74    4.74
  -1  -3  -9  217.57    4.81
  -1  -3  -9  214.67    4.76
   1   3   9  213.07    4.64
   1   3   9  214.24    4.82
   1   3   9  216.72    4.56
   1   3   9  217.67    4.67
   1   3   9  218.76    4.76
  -2  -3  -9   35.71    1.27
  -2  -3  -9   34.18    1.36
  -2  -3  -9   35.53    1.42
  -2  -3  -9   36.38    1.45
  -2  -3  -9   36.28    1.32
  -2  -3  -9   35.55    1.48
  -2  -3  -9   37.04    1.29
   2   3   9   36.53    1.52
   2   3   9   34.88    1.41
   2   3   9   36.04    1.16
   2   3   9   36.45    1.22
  -3  -3  -9   89.13    2.29
  -3  -3  -9   87.85    2.52
  -3  -3  -9   81.97    2.75
  -3  -3  -9   90.85    2.34
  -3  -3  -9   91.12    2.30
  -3  -3  -9   89.99    2.18
  -3  -3  -9   92.23    2.27
   3   3   9   91.35    2.11
   3   3   9   89.89    2.47
   3   3   9   91.10    2.46
   3   3   9   88.20    2.12
  -4  -3  -9    4.18    0.69
  -4  -3  -9    4.02    0.63
  -4  -3  -9    3.65    0.62
  -4  -3  -9    3.46    0.65
  -4  -3  -9    4.75    0.57
  -4  -3  -9    2.34    0.80
  -4  -3  -9    4.02    0.70
   4   3   9    4.06    0.54
   4   3   9    4.05    0.50
   4   3   9    4.13    0.79
   4   3   9    4.80    0.48
  -5  -3  -9    0.22    0.51
  -5  -3  -9    0.00    0.96
  -5  -3  -9    0.13    0.67
  -5  -3  -9    0.38    0.64
  -5  -3  -9    0.67    0.59
  -5  -3  -9   -0.25    0.51
  -5  -3  -9   -0.07    0.66
  -5  -3  -9   -0.26    0.75
  -6  -3  -9    0.03    0.57
  -6  -3  -9   -0.50    0.73
  -6  -3  -9   -0.52    0.95
  -6  -3  -9    0.07    0.72
  -6  -3  -9   -0.53    0.87
  -6  -3  -9    0.41    0.67
  -6  -3  -9    1.09    1.19
  -6  -3  -9    0.96    0.87
  -7  -3  -9    2.88    1.29
  -7  -3  -9    1.56    1.05
  -7  -3  -9    1.54    1.39
  -7  -3  -9    3.11    1.18
  -7  -3  -9    1.92    0.92
  -7  -3  -9    1.43    0.65
  -7  -3  -9    2.19    1.18
  -7  -3  -9    2.02    0.73
  -8  -3  -9   19.97    1.78
  -8  -3  -9   20.79    1.76
  -8  -3  -9   20.77    1.66
  -8  -3  -9   19.49    1.24
  -8  -3  -9   17.05    1.94
  -8  -3  -9   19.58    2.08
   5  -4  -9    7.97    2.18
   5  -4  -9    5.24    2.88
  -5   4   9    6.29    1.88
  -5   4   9    4.29    1.57
   4  -4  -9   -0.24    2.79
   4  -4  -9    2.21    2.02
   4  -4  -9    0.55    1.18
   4  -4  -9    0.80    1.35
   4  -4  -9    0.16    1.49
   4  -4  -9    2.20    1.70
   4  -4  -9    3.70    1.74
  -4   4   9    0.83    1.12
  -4   4   9    0.01    1.58
  -4   4   9    3.35    1.71
  -4   4   9    2.08    1.33
  -4   4   9    2.06    1.46
  -4   4   9    0.60    2.07
  -4   4   9    1.90    0.99
   3  -4  -9   22.42    1.59
   3  -4  -9   19.98    1.96
   3  -4  -9   22.17    1.62
   3  -4  -9   20.58    1.43
   3  -4  -9   21.52    2.12
   3  -4  -9   18.58    1.51
   3  -4  -9   21.22    1.48
  -3   4   9   23.44    1.65
  -3   4   9   23.21    1.43
  -3   4   9   25.94    2.10
  -3   4   9   22.48    1.80
  -3   4   9   22.67    1.42
  -3   4   9   18.76    1.43
  -3   4   9   21.73    1.43
   2  -4  -9    4.32    1.17
   2  -4  -9    3.63    1.00
   2  -4  -9    5.05    1.31
   2  -4  -9    4.30    1.11
   2  -4  -9    6.04    1.06
   2  -4  -9    3.48    0.69
   2  -4  -9    6.04    1.42
  -2   4   9    4.32    0.71
  -2   4   9    2.83    0.84
  -2   4   9    3.22    0.87
  -2   4   9    4.47    0.63
  -2   4   9    4.65    1.15
  -2   4   9    4.54    1.14
  -2   4   9    3.02    1.35
   1  -4  -9   12.18    0.96
   1  -4  -9   11.62    0.83
   1  -4  -9   12.85    1.06
   1  -4  -9   10.10    1.23
   1  -4  -9   10.05    1.15
   1  -4  -9   11.46    1.08
   1  -4  -9   11.95    1.30
  -1   4   9   11.97    0.79
  -1   4   9    9.60    1.29
  -1   4   9   11.30    1.06
  -1   4   9   13.69    0.88
  -1   4   9   12.76    1.20
  -1   4   9   11.86    0.97
  -1   4   9   12.44    0.75
   0  -4  -9  104.63    2.52
   0  -4  -9  102.20    2.79
   0  -4  -9  101.16    2.88
   0  -4  -9   98.79    2.72
   0  -4  -9  101.63    2.82
   0  -4  -9   97.16    2.80
   0   4   9   97.50    2.82
   0   4   9   96.80    2.53
   0   4   9  102.36    2.68
   0   4   9  102.11    2.47
   0   4   9   97.49    2.46
  -1  -4  -9   98.67    2.47
  -1  -4  -9   98.39    2.64
  -1  -4  -9   98.71    2.71
  -1  -4  -9   96.32    2.63
  -1  -4  -9   98.20    2.60
  -1  -4  -9   97.39    2.69
  -1  -4  -9  100.29    2.41
   1   4   9   99.89    2.33
   1   4   9   97.22    2.41
   1   4   9   99.30    2.51
   1   4   9  100.88    2.77
   1   4   9   99.45    2.46
  -2  -4  -9    0.41    0.63
  -2  -4  -9   -0.60    0.51
  -2  -4  -9    0.19    0.53
  -2  -4  -9    0.40    0.73
  -2  -4  -9    0.63    0.67
  -2  -4  -9   -0.04    0.62
  -2  -4  -9    0.97    0.74
   2   4   9    0.34    0.56
   2   4   9   -0.13    0.41
   2   4   9    0.56    1.40
   2   4   9   -0.82    0.60
   2   4   9    0.29    0.45
  -3  -4  -9   11.21    1.07
  -3  -4  -9   15.55    1.06
  -3  -4  -9   12.70    0.96
  -3  -4  -9   13.92    0.91
  -3  -4  -9   13.64    1.62
  -3  -4  -9   12.73    1.15
  -3  -4  -9   12.67    1.01
  -3  -4  -9   15.24    1.04
   3   4   9   14.02    0.77
   3   4   9   14.44    0.96
   3   4   9   14.98    0.86
   3   4   9   13.15    0.81
   3   4   9   13.52    1.06
   3   4   9   14.13    0.95
  -4  -4  -9    5.51    0.95
  -4  -4  -9    5.95    0.63
  -4  -4  -9    6.17    0.69
  -4  -4  -9    6.55    0.47
  -4  -4  -9    6.56    0.56
  -4  -4  -9    8.00    0.64
  -4  -4  -9    6.28    0.73
  -4  -4  -9    7.18    0.84
  -4  -4  -9    7.59    0.71
  -5  -4  -9    1.22    1.03
  -5  -4  -9   -0.07    0.55
  -5  -4  -9    0.83    0.60
  -5  -4  -9    1.37    0.78
  -5  -4  -9    2.17    0.83
  -5  -4  -9    0.44    0.63
  -5  -4  -9   -0.33    0.58
  -5  -4  -9    0.55    0.64
  -5  -4  -9    0.35    0.48
  -6  -4  -9    4.12    0.61
  -6  -4  -9    4.62    1.03
  -6  -4  -9    5.23    0.86
  -6  -4  -9    2.75    1.29
  -6  -4  -9    4.62    0.72
  -6  -4  -9    4.92    0.87
  -6  -4  -9    6.25    0.82
  -6  -4  -9    4.11    0.90
  -7  -4  -9   27.24    1.94
  -7  -4  -9   27.61    1.47
  -7  -4  -9   22.98    1.83
  -7  -4  -9   29.55    1.89
  -7  -4  -9   27.65    1.25
  -7  -4  -9   25.44    1.93
  -7  -4  -9   24.03    1.56
  -7  -4  -9   29.60    1.91
  -7  -4  -9   27.92    1.73
  -8  -4  -9    4.48    1.42
  -8  -4  -9    3.32    1.86
  -8  -4  -9    4.15    1.13
  -8  -4  -9    3.75    1.03
  -8  -4  -9    2.84    0.90
  -8  -4  -9    3.75    1.97
  -8  -4  -9    3.07    1.35
  -8  -4  -9    1.65    1.40
   4  -5  -9   13.82    2.07
   4  -5  -9   12.84    2.03
   4  -5  -9   10.97    1.65
   4  -5  -9   16.42    2.69
   4  -5  -9   11.32    2.19
   4  -5  -9   13.50    2.79
   4  -5  -9   11.50    1.58
  -4   5   9   11.83    2.32
  -4   5   9   12.49    1.64
  -4   5   9   10.52    1.93
  -4   5   9   13.20    1.22
  -4   5   9    9.49    2.01
  -4   5   9   12.83    1.83
  -4   5   9   14.10    2.59
  -4   5   9   11.75    1.39
   3  -5  -9   22.05    1.72
   3  -5  -9   21.53    1.59
   3  -5  -9   20.80    1.75
   3  -5  -9   18.79    2.22
   3  -5  -9   20.70    1.96
   3  -5  -9   18.62    1.34
   3  -5  -9   21.30    2.29
  -3   5   9   25.27    2.39
  -3   5   9   15.51    1.86
  -3   5   9   20.60    1.94
  -3   5   9   22.73    2.18
  -3   5   9   21.02    1.54
  -3   5   9   23.61    1.66
  -3   5   9   22.76    1.54
   2  -5  -9   25.39    2.46
   2  -5  -9   25.75    2.07
   2  -5  -9   27.69    1.75
   2  -5  -9   28.24    2.18
   2  -5  -9   27.09    2.05
   2  -5  -9   29.59    1.97
   2  -5  -9   22.87    1.49
  -2   5   9   23.40    1.77
  -2   5   9   24.19    1.61
  -2   5   9   27.21    1.84
  -2   5   9   21.72    1.66
  -2   5   9   23.68    1.93
  -2   5   9   22.06    1.87
  -2   5   9   26.11    1.37
   1  -5  -9    2.90    1.15
   1  -5  -9    0.31    0.61
   1  -5  -9    0.62    0.83
   1  -5  -9    4.38    1.29
   1  -5  -9    1.33    1.29
   1  -5  -9    1.07    0.96
   1  -5  -9    0.95    1.01
  -1   5   9    0.18    0.75
  -1   5   9    1.38    0.55
  -1   5   9    1.03    1.03
  -1   5   9    0.70    1.19
  -1   5   9    0.85    0.63
   0  -5  -9   16.02    1.41
   0  -5  -9   14.09    1.13
   0  -5  -9   14.86    1.07
   0  -5  -9   14.08    1.25
   0  -5  -9   19.70    1.28
   0  -5  -9   16.37    0.90
   0  -5  -9   17.54    1.29
   0   5   9   13.85    1.25
   0   5   9   15.94    1.26
   0   5   9   17.57    1.29
   0   5   9   16.96    1.16
   0   5   9   16.90    0.76
   0   5   9   16.60    1.14
   0   5   9   19.38    1.75
  -1  -5  -9   19.09    1.25
  -1  -5  -9   20.26    1.74
  -1  -5  -9   16.03    1.16
  -1  -5  -9   19.02    1.34
  -1  -5  -9   19.41    1.25
  -1  -5  -9   19.25    1.15
   1   5   9   21.32    1.41
   1   5   9   18.30    1.50
   1   5   9   19.64    1.36
   1   5   9   18.79    1.25
   1   5   9   19.54    1.03
   1   5   9   18.63    1.11
  -2  -5  -9    3.77    0.68
  -2  -5  -9    3.53    0.98
  -2  -5  -9    3.13    0.62
  -2  -5  -9    4.10    0.80
  -2  -5  -9    4.48    0.86
  -2  -5  -9    2.74    0.92
  -2  -5  -9    4.52    0.85
   2   5   9    3.54    0.70
   2   5   9    3.10    0.48
   2   5   9    3.40    0.66
   2   5   9    5.83    0.80
   2   5   9    3.90    0.52
  -3  -5  -9   17.32    1.19
  -3  -5  -9   17.43    1.10
  -3  -5  -9   17.45    1.37
  -3  -5  -9   16.66    1.10
  -3  -5  -9   17.83    1.17
  -3  -5  -9   18.05    1.35
  -3  -5  -9   17.45    1.20
  -4  -5  -9    0.80    0.71
  -4  -5  -9    0.67    0.69
  -4  -5  -9    1.57    0.93
  -4  -5  -9    1.23    0.53
  -4  -5  -9    1.56    1.02
  -4  -5  -9    1.24    1.00
  -4  -5  -9    0.64    0.67
  -4  -5  -9    0.00    0.60
  -4  -5  -9    0.78    0.59
  -4  -5  -9    0.57    0.42
  -5  -5  -9    8.69    0.97
  -5  -5  -9    8.76    1.25
  -5  -5  -9   10.00    0.76
  -5  -5  -9    9.67    0.83
  -5  -5  -9    9.61    1.16
  -5  -5  -9   10.98    0.84
  -5  -5  -9    9.78    0.77
  -5  -5  -9    9.90    0.74
  -5  -5  -9   10.47    1.24
  -5  -5  -9   10.43    0.67
  -6  -5  -9   21.97    1.86
  -6  -5  -9   23.95    1.72
  -6  -5  -9   20.16    1.35
  -6  -5  -9   19.65    1.23
  -6  -5  -9   22.41    1.11
  -6  -5  -9   20.81    1.31
  -6  -5  -9   20.26    1.55
  -6  -5  -9   21.37    1.36
  -6  -5  -9   22.22    1.57
  -6  -5  -9   19.69    1.39
  -7  -5  -9   12.79    0.86
  -7  -5  -9   10.73    1.84
  -7  -5  -9   12.81    1.33
  -7  -5  -9   14.21    1.47
  -7  -5  -9   13.74    0.76
  -7  -5  -9   15.14    1.82
  -7  -5  -9   11.73    0.98
  -7  -5  -9   10.26    1.47
  -7  -5  -9   14.03    1.07
   3  -6  -9   37.02    3.05
   3  -6  -9   35.94    2.87
   3  -6  -9   38.73    2.59
   3  -6  -9   42.90    3.00
   3  -6  -9   32.17    2.15
   3  -6  -9   35.97    2.85
   3  -6  -9   35.71    2.68
  -3   6   9   38.97    2.15
  -3   6   9   30.86    2.93
  -3   6   9   37.49    1.92
  -3   6   9   36.29    2.89
  -3   6   9   20.46    3.02
  -3   6   9   39.85    2.49
   2  -6  -9    6.09    1.33
   2  -6  -9    5.26    1.16
   2  -6  -9    3.97    1.81
   2  -6  -9    8.45    1.53
   2  -6  -9    5.19    2.19
   2  -6  -9    6.23    1.49
   2  -6  -9    4.63    1.70
  -2   6   9    5.64    0.88
  -2   6   9    3.27    1.87
  -2   6   9    6.19    0.95
  -2   6   9    3.95    1.29
  -2   6   9    6.89    1.26
  -2   6   9    2.16    1.69
   1  -6  -9    3.09    1.05
   1  -6  -9    0.91    0.86
   1  -6  -9   -1.23    1.30
   1  -6  -9    1.46    1.40
   1  -6  -9    0.27    1.63
   1  -6  -9   -0.56    1.18
   1  -6  -9    0.26    1.17
  -1   6   9    1.07    0.96
  -1   6   9    1.33    1.36
  -1   6   9    1.77    1.31
  -1   6   9    1.61    0.77
  -1   6   9    1.53    0.71
  -1   6   9    1.28    0.94
   0  -6  -9    3.11    1.14
   0  -6  -9    5.75    0.75
   0  -6  -9    5.22    1.34
   0  -6  -9    2.35    0.83
   0  -6  -9    3.73    1.04
   0  -6  -9    3.43    1.29
   0  -6  -9    3.99    1.39
   0   6   9    4.02    1.13
   0   6   9    2.45    0.78
   0   6   9    4.24    0.85
   0   6   9    3.99    0.75
   0   6   9    4.11    0.60
   0   6   9    3.28    1.18
  -1  -6  -9    4.05    1.15
  -1  -6  -9    3.37    0.62
  -1  -6  -9    4.08    1.14
  -1  -6  -9    3.29    0.73
  -1  -6  -9    3.01    0.86
  -1  -6  -9    5.41    1.29
  -1  -6  -9    2.45    1.07
   1   6   9    3.18    0.78
   1   6   9    3.48    0.88
   1   6   9    2.17    0.66
   1   6   9    2.82    0.94
   1   6   9    3.85    0.62
  -2  -6  -9   96.57    3.03
  -2  -6  -9  100.20    3.02
  -2  -6  -9   96.28    2.80
  -2  -6  -9   93.41    2.49
  -2  -6  -9   96.58    2.20
  -2  -6  -9   92.35    2.36
  -2  -6  -9   90.93    2.87
   2   6   9   91.75    2.37
   2   6   9   92.00    2.20
   2   6   9   94.61    2.15
   2   6   9   96.23    2.32
  -3  -6  -9   31.81    1.21
  -3  -6  -9   30.99    2.12
  -3  -6  -9   32.23    1.14
  -3  -6  -9   32.49    1.86
  -3  -6  -9   34.64    1.59
  -3  -6  -9   31.79    2.20
  -3  -6  -9   31.77    1.39
  -3  -6  -9   31.88    1.67
  -3  -6  -9   30.96    1.42
  -4  -6  -9    4.01    0.59
  -4  -6  -9    4.59    0.69
  -4  -6  -9    4.81    1.27
  -4  -6  -9    2.55    0.79
  -4  -6  -9    3.69    0.77
  -4  -6  -9    3.77    0.74
  -4  -6  -9    3.59    0.68
  -4  -6  -9    4.67    1.29
  -4  -6  -9    4.96    0.93
  -5  -6  -9   -0.06    1.29
  -5  -6  -9   -0.18    0.78
  -5  -6  -9   -1.65    0.89
  -5  -6  -9    0.13    1.26
  -5  -6  -9   -1.08    1.25
  -5  -6  -9    0.38    0.60
  -5  -6  -9    0.06    0.65
  -5  -6  -9    0.03    0.79
  -5  -6  -9   -1.03    0.66
  -5  -6  -9    0.60    0.74
  -6  -6  -9    2.70    1.51
  -6  -6  -9    4.26    1.17
  -6  -6  -9    3.34    0.85
  -6  -6  -9    4.17    1.06
  -6  -6  -9    3.26    1.44
  -6  -6  -9    5.25    1.43
  -7  -6  -9    1.50    1.68
  -7  -6  -9    3.31    1.35
  -7  -6  -9    3.58    1.20
  -7  -6  -9    5.85    1.59
  -7  -6  -9    6.48    2.25
  -7  -6  -9    5.34    1.50
  -7  -6  -9   -0.29    1.59
  -7  -6  -9    4.69    1.82
   2  -7  -9    9.94    3.04
   2  -7  -9   10.79    2.83
   2  -7  -9   11.11    1.83
   2  -7  -9    7.87    1.69
   2  -7  -9    8.59    1.51
  -2   7   9    6.65    2.43
  -2   7   9    8.90    1.07
  -2   7   9    8.70    1.24
   1  -7  -9   -0.69    1.61
   1  -7  -9   -0.11    1.80
   1  -7  -9   -0.18    1.22
   1  -7  -9    1.23    1.82
   1  -7  -9    0.30    2.06
   1  -7  -9   -0.34    1.41
   1  -7  -9    1.09    1.10
  -1   7   9   -1.81    1.64
  -1   7   9    0.81    1.09
  -1   7   9    0.30    1.19
  -1   7   9    1.39    0.88
  -1   7   9    1.05    1.57
  -1   7   9   -0.68    0.90
   0  -7  -9    8.40    1.98
   0  -7  -9    8.92    1.89
   0  -7  -9    8.97    1.00
   0  -7  -9    9.12    1.64
   0  -7  -9    8.30    1.60
   0  -7  -9   11.69    1.11
   0  -7  -9    8.81    1.33
   0   7   9    8.44    1.08
   0   7   9    8.92    1.04
   0   7   9    7.81    1.34
   0   7   9   11.20    0.91
   0   7   9    9.79    1.02
   0   7   9   10.96    1.49
  -1  -7  -9   11.56    1.69
  -1  -7  -9   14.69    1.05
  -1  -7  -9   15.08    1.28
  -1  -7  -9   16.57    1.70
  -1  -7  -9   14.39    0.96
  -1  -7  -9   12.47    1.62
  -1  -7  -9   10.25    1.68
   1   7   9   11.96    0.89
   1   7   9   11.21    1.10
   1   7   9   13.92    1.23
  -2  -7  -9  101.29    2.53
  -2  -7  -9  100.98    3.15
  -2  -7  -9   98.57    3.44
  -2  -7  -9  101.05    3.47
  -2  -7  -9  103.85    3.36
  -2  -7  -9  106.59    2.68
  -2  -7  -9   99.51    2.78
   2   7   9   98.74    2.24
   2   7   9  100.53    2.34
   2   7   9   95.97    2.24
  -3  -7  -9   29.58    2.21
  -3  -7  -9   21.29    1.30
  -3  -7  -9   25.01    1.91
  -3  -7  -9   27.81    1.88
  -3  -7  -9   26.80    1.87
  -3  -7  -9   25.89    1.56
  -3  -7  -9   27.64    1.41
  -4  -7  -9   20.81    1.81
  -4  -7  -9   16.59    1.33
  -4  -7  -9   20.26    1.81
  -4  -7  -9   17.17    1.24
  -4  -7  -9   18.89    1.45
  -4  -7  -9   19.48    1.49
  -4  -7  -9   19.90    1.42
  -4  -7  -9   17.95    1.34
  -4  -7  -9   20.95    1.44
  -5  -7  -9    9.07    1.09
  -5  -7  -9   11.38    1.75
  -5  -7  -9    9.94    1.72
  -5  -7  -9    9.34    1.13
  -5  -7  -9    8.09    0.98
  -5  -7  -9   11.68    1.70
  -5  -7  -9    8.75    0.75
  -5  -7  -9   11.08    1.12
  -5  -7  -9    8.51    0.99
  -5  -7  -9   11.98    0.88
  -6  -7  -9   16.63    2.06
  -6  -7  -9   13.73    1.91
  -6  -7  -9   16.81    1.70
  -6  -7  -9   13.60    1.93
  -6  -7  -9   15.81    1.37
  -6  -7  -9   16.95    2.07
  -6  -7  -9   14.12    1.37
   0  -8  -9   43.87    2.75
   0   8   9   45.80    2.11
   0   8   9   44.79    2.85
  -1  -8  -9    4.76    1.37
  -1  -8  -9    6.93    2.74
  -1  -8  -9    3.58    1.44
  -1  -8  -9    5.45    0.94
   1   8   9    5.38    0.90
   1   8   9    5.77    1.95
  -2  -8  -9    4.22    1.23
  -2  -8  -9    2.34    1.24
  -2  -8  -9    4.95    0.84
  -2  -8  -9    2.82    1.81
  -2  -8  -9    5.30    2.36
  -2  -8  -9    3.15    2.10
  -3  -8  -9    2.34    1.88
  -3  -8  -9    1.39    0.85
  -3  -8  -9    0.74    1.76
  -3  -8  -9    1.41    1.08
  -3  -8  -9    3.36    1.14
  -3  -8  -9    2.98    1.55
  -4  -8  -9   14.95    2.15
  -4  -8  -9   11.22    2.58
  -4  -8  -9   15.18    1.25
  -4  -8  -9   18.41    1.36
  -4  -8  -9   12.75    2.10
  -4  -8  -9   17.40    1.33
  -4  -8  -9   14.61    1.23
  -4  -8  -9   14.14    1.13
   2   5 -10    1.29    1.77
   2   5 -10   -0.89    2.70
   2   5 -10   -2.69    2.11
   2   5 -10   -0.11    1.78
   2   5 -10    1.23    1.95
   2   5 -10   -1.76    2.03
  -2  -5  10    0.53    1.29
  -2  -5  10   -0.34    1.58
  -2  -5  10   -1.68    1.70
  -2  -5  10   -1.49    1.65
  -2  -5  10    1.89    1.28
  -2  -5  10    1.04    1.76
   1   5 -10   11.02    1.13
   1   5 -10   13.38    2.09
   1   5 -10   11.52    1.86
   1   5 -10   10.42    2.08
   1   5 -10    9.71    1.64
   1   5 -10   10.71    1.74
   1   5 -10   11.93    2.23
  -1  -5  10    7.31    1.71
  -1  -5  10   10.51    1.59
  -1  -5  10   13.92    1.65
  -1  -5  10    9.72    1.97
  -1  -5  10   10.94    1.33
  -1  -5  10   11.02    1.32
  -1  -5  10   12.63    1.64
   0   5 -10   -0.97    1.33
   0   5 -10    0.08    1.90
   0   5 -10    2.57    1.57
   0   5 -10   -2.28    2.02
   0   5 -10    0.81    1.54
   0   5 -10   -0.68    1.52
   0   5 -10    0.60    1.78
   0  -5  10    0.85    1.24
   0  -5  10    0.03    1.36
   0  -5  10   -0.11    1.67
   0  -5  10    1.02    1.64
   0  -5  10    2.48    1.45
   0  -5  10   -0.41    1.73
   0  -5  10    0.94    1.08
   0  -5  10    1.95    1.20
  -1   5 -10    4.14    1.75
  -1   5 -10    2.51    2.07
  -1   5 -10    4.03    1.73
  -1   5 -10    3.70    1.37
  -1   5 -10    5.72    1.46
  -1   5 -10    1.15    1.46
  -1   5 -10    2.66    2.01
  -1   5 -10    6.87    1.50
   1  -5  10    3.63    1.35
   1  -5  10    0.00    1.35
   1  -5  10    3.34    1.31
   1  -5  10    4.05    1.94
   1  -5  10    2.55    1.45
   1  -5  10    3.19    1.31
   1  -5  10    2.80    1.73
   1  -5  10    3.32    1.71
  -2   5 -10    0.37    1.72
  -2   5 -10    2.36    1.56
  -2   5 -10    4.25    1.93
  -2   5 -10    2.29    2.25
  -2   5 -10    3.29    1.49
  -2   5 -10    1.90    1.49
  -2   5 -10    0.52    1.37
  -2   5 -10    1.14    2.06
   2  -5  10    1.67    1.48
   2  -5  10    0.37    1.46
   2  -5  10    3.57    1.98
   2  -5  10    3.58    1.36
   2  -5  10    5.92    1.59
   2  -5  10    1.56    1.38
   2  -5  10    3.09    1.86
   2  -5  10   -1.32    1.92
  -3   5 -10   -2.10    2.16
  -3   5 -10    2.73    2.62
  -3   5 -10   -1.66    1.60
  -3   5 -10    4.73    2.56
  -3   5 -10    2.81    1.78
  -3   5 -10   -0.01    1.55
  -3   5 -10   -0.50    1.50
   3  -5  10    0.66    1.83
   3  -5  10   -1.42    2.12
   3  -5  10    1.15    2.52
   3  -5  10   -0.88    1.42
   3  -5  10    0.32    1.36
   3  -5  10    1.32    1.97
   3  -5  10   -0.52    2.42
   4   4 -10   16.46    2.19
   4   4 -10   20.11    2.82
  -4  -4  10   17.62    1.57
  -4  -4  10   15.37    1.64
  -4  -4  10   17.10    1.93
  -4  -4  10   18.20    1.74
   3   4 -10   -1.80    1.70
   3   4 -10    1.09    1.76
   3   4 -10    1.30    1.57
   3   4 -10    4.58    2.03
   3   4 -10    5.06    1.68
   3   4 -10    5.15    1.63
  -3  -4  10    6.11    1.55
  -3  -4  10    4.04    1.20
  -3  -4  10    4.47    1.46
  -3  -4  10    2.81    1.24
  -3  -4  10    5.66    1.70
  -3  -4  10    6.66    1.54
   2   4 -10   11.84    1.62
   2   4 -10   12.96    1.76
   2   4 -10   15.27    1.82
   2   4 -10   12.44    1.82
   2   4 -10   12.10    1.52
   2   4 -10   12.07    1.79
  -2  -4  10   12.56    1.50
  -2  -4  10    9.58    1.14
  -2  -4  10   11.69    1.71
  -2  -4  10   14.07    1.49
  -2  -4  10   12.74    1.43
  -2  -4  10   12.05    1.55
  -2  -4  10   11.09    1.21
   1   4 -10    0.71    1.64
   1   4 -10    1.02    1.32
   1   4 -10   -0.13    0.85
   1   4 -10   -0.62    1.46
   1   4 -10   -1.70    1.54
   1   4 -10   -0.75    1.38
   1   4 -10   -0.32    1.17
  -1  -4  10   -0.02    1.14
  -1  -4  10   -1.77    0.93
  -1  -4  10    0.19    1.68
  -1  -4  10   -0.68    1.20
  -1  -4  10    0.03    1.38
  -1  -4  10   -0.18    1.28
  -1  -4  10    0.99    0.89
   0   4 -10   16.28    1.23
   0   4 -10   17.60    1.45
   0   4 -10   17.47    1.83
   0   4 -10   19.44    1.49
   0   4 -10   19.79    1.69
   0   4 -10   18.01    1.67
   0   4 -10   15.67    1.81
   0  -4  10   14.55    1.20
   0  -4  10   17.33    1.66
   0  -4  10   17.72    2.13
   0  -4  10   16.59    1.24
   0  -4  10   20.16    1.61
   0  -4  10   16.16    1.37
  -1   4 -10    1.55    1.38
  -1   4 -10   -0.47    1.23
  -1   4 -10    0.35    1.47
  -1   4 -10   -0.15    1.29
  -1   4 -10    2.03    1.16
  -1   4 -10   -0.73    1.41
  -1   4 -10    1.59    1.08
  -1   4 -10    2.91    1.21
   1  -4  10    1.72    1.28
   1  -4  10    2.08    1.40
   1  -4  10    2.03    1.04
   1  -4  10    1.34    1.07
   1  -4  10    3.75    1.45
   1  -4  10    3.31    0.95
   1  -4  10   -0.06    1.06
   1  -4  10    0.98    1.77
  -2   4 -10    1.07    1.13
  -2   4 -10    2.12    1.37
  -2   4 -10    0.71    1.49
  -2   4 -10    3.37    1.17
  -2   4 -10    2.21    1.02
  -2   4 -10    2.18    1.72
  -2   4 -10    5.25    1.30
  -2   4 -10    3.05    1.63
   2  -4  10    0.29    1.39
   2  -4  10    2.11    1.21
   2  -4  10    3.96    1.79
   2  -4  10    2.81    1.10
   2  -4  10    1.60    1.44
   2  -4  10    2.62    1.22
   2  -4  10    1.60    1.02
   2  -4  10    2.20    1.48
  -3   4 -10    0.77    1.21
  -3   4 -10    0.72    1.26
  -3   4 -10    2.16    1.37
  -3   4 -10    0.15    1.40
  -3   4 -10   -0.72    1.87
  -3   4 -10    3.19    2.13
  -3   4 -10   -0.54    1.19
   3  -4  10   -0.01    1.10
   3  -4  10    0.68    1.29
   3  -4  10   -0.04    1.85
   3  -4  10    0.20    1.41
   3  -4  10    0.34    1.53
   3  -4  10    1.32    1.38
   3  -4  10   -0.56    1.07
   3  -4  10    0.51    1.54
  -4   4 -10   10.59    1.73
  -4   4 -10    7.91    2.09
  -4   4 -10   10.92    1.86
  -4   4 -10    8.12    1.46
  -4   4 -10   12.09    2.59
  -4   4 -10   12.59    1.54
  -4   4 -10    6.34    2.29
   4  -4  10    7.66    2.27
   4  -4  10   10.60    1.46
   4  -4  10   11.51    1.81
   4  -4  10    7.86    1.96
   4  -4  10    8.49    1.81
   4  -4  10   10.10    1.75
   4  -4  10   10.09    1.22
   4   3 -10   -0.34    2.19
   4   3 -10   -1.11    1.61
   4   3 -10   -2.05    1.56
   4   3 -10   -3.40    1.80
   4   3 -10   -0.21    1.65
   4   3 -10   -0.32    1.68
  -4  -3  10   -0.53    1.38
  -4  -3  10   -0.83    1.20
  -4  -3  10    2.19    1.62
  -4  -3  10   -0.76    1.32
  -4  -3  10   -0.29    1.16
  -4  -3  10    5.17    1.48
  -4  -3  10    0.06    1.44
   3   3 -10   46.65    2.88
   3   3 -10   42.62    2.89
   3   3 -10   45.01    2.89
   3   3 -10   46.46    2.71
   3   3 -10   40.44    2.82
   3   3 -10   47.40    3.20
  -3  -3  10   48.09    2.23
  -3  -3  10   44.89    2.56
  -3  -3  10   45.98    2.37
  -3  -3  10   47.01    2.32
  -3  -3  10   43.99    2.49
  -3  -3  10   42.22    1.97
  -3  -3  10   48.91    2.44
   2   3 -10   -0.77    1.27
   2   3 -10   -0.64    1.22
   2   3 -10    0.58    1.27
   2   3 -10   -0.22    1.26
   2   3 -10   -0.67    1.31
   2   3 -10   -0.88    1.39
  -2  -3  10    0.53    0.80
  -2  -3  10    0.34    1.09
  -2  -3  10    1.17    0.94
  -2  -3  10   -0.44    1.14
  -2  -3  10   -0.02    1.06
  -2  -3  10    0.57    0.96
  -2  -3  10    0.15    1.42
   1   3 -10    2.74    1.10
   1   3 -10    2.08    1.25
   1   3 -10    1.85    1.20
   1   3 -10    2.06    0.77
   1   3 -10    2.20    1.24
   1   3 -10    0.89    1.21
   1   3 -10    3.07    1.33
  -1  -3  10   -0.27    0.89
  -1  -3  10    2.05    1.13
  -1  -3  10    3.76    1.04
  -1  -3  10    2.75    1.38
  -1  -3  10    3.26    0.91
  -1  -3  10    3.69    1.18
  -1  -3  10    3.43    1.07
   0   3 -10    0.59    1.13
   0   3 -10    1.42    1.11
   0   3 -10    0.48    1.15
   0   3 -10    0.75    0.86
   0   3 -10    1.02    1.06
   0   3 -10    1.43    1.11
   0  -3  10   -0.27    0.95
   0  -3  10   -0.15    1.06
   0  -3  10    1.17    0.69
   0  -3  10    2.06    0.91
   0  -3  10    0.13    0.99
   0  -3  10   -0.19    0.82
   0  -3  10    0.39    1.07
  -1   3 -10    6.26    1.14
  -1   3 -10    5.58    0.84
  -1   3 -10    6.19    1.03
  -1   3 -10    5.38    1.04
  -1   3 -10    4.37    1.34
  -1   3 -10    4.79    0.95
  -1   3 -10    6.43    1.24
  -1   3 -10    4.13    1.30
   1  -3  10    5.85    1.12
   1  -3  10    5.36    0.79
   1  -3  10    6.16    1.35
   1  -3  10    3.62    0.93
   1  -3  10    4.74    0.91
   1  -3  10    6.55    1.09
   1  -3  10    6.60    1.22
  -2   3 -10    3.63    0.85
  -2   3 -10    3.55    1.02
  -2   3 -10    1.76    1.47
  -2   3 -10    3.93    1.11
  -2   3 -10    2.73    1.21
  -2   3 -10    4.47    0.99
  -2   3 -10    5.76    1.15
  -2   3 -10    6.27    1.47
   2  -3  10    4.42    0.82
   2  -3  10    5.01    1.20
   2  -3  10    3.26    1.28
   2  -3  10    5.40    1.03
   2  -3  10    5.74    0.90
   2  -3  10    5.58    1.18
   2  -3  10    3.75    1.00
   2  -3  10    4.69    1.10
  -3   3 -10   25.69    1.88
  -3   3 -10   27.80    1.71
  -3   3 -10   27.60    1.81
  -3   3 -10   31.10    2.12
  -3   3 -10   28.40    2.32
  -3   3 -10   30.75    2.14
   3  -3  10   29.84    2.36
   3  -3  10   24.58    2.03
   3  -3  10   31.06    2.22
   3  -3  10   28.34    1.68
   3  -3  10   30.11    2.78
   3  -3  10   27.69    2.09
   3  -3  10   30.45    2.26
   3  -3  10   26.33    2.20
  -4   3 -10    3.56    1.14
  -4   3 -10    4.39    1.48
  -4   3 -10   -0.25    1.61
  -4   3 -10    2.58    1.09
  -4   3 -10    4.34    1.76
  -4   3 -10    5.45    1.14
  -4   3 -10    0.55    1.60
  -4   3 -10    1.85    1.18
   4  -3  10    5.20    1.81
   4  -3  10    4.57    1.45
   4  -3  10    4.11    1.06
   4  -3  10    5.92    1.44
   4  -3  10    4.29    1.41
   4  -3  10    5.70    0.92
   4  -3  10    3.17    1.35
  -5   3 -10   10.51    1.41
  -5   3 -10    7.66    2.22
  -5   3 -10    9.00    1.42
  -5   3 -10   13.34    2.31
  -5   3 -10    6.01    1.89
  -5   3 -10    7.50    1.55
  -5   3 -10   10.54    2.13
   5  -3  10    8.51    0.95
   5  -3  10    9.92    2.19
   5  -3  10    9.46    1.79
   5  -3  10    8.53    1.35
   5  -3  10   10.21    1.66
   5  -3  10    6.72    1.59
   5  -3  10    9.22    1.78
   5   2 -10    7.85    2.37
   5   2 -10    5.66    1.86
   5   2 -10    8.58    2.02
  -5  -2  10    8.93    1.35
  -5  -2  10    9.77    1.38
  -5  -2  10   11.01    1.82
  -5  -2  10    8.91    1.79
  -5  -2  10    8.96    1.76
  -5  -2  10    4.56    1.49
   4   2 -10    4.37    1.76
   4   2 -10    2.47    1.58
   4   2 -10    0.45    1.43
   4   2 -10   -0.17    1.44
   4   2 -10    0.61    1.52
   4   2 -10    1.69    1.93
  -4  -2  10    0.38    1.28
  -4  -2  10   -1.35    1.18
  -4  -2  10   -1.56    1.24
  -4  -2  10   -0.33    1.32
  -4  -2  10    2.09    0.98
  -4  -2  10    1.26    1.26
  -4  -2  10   -0.40    1.32
   3   2 -10    6.02    1.42
   3   2 -10    5.60    1.49
   3   2 -10    4.90    1.31
   3   2 -10    4.87    1.31
   3   2 -10    5.88    1.57
   3   2 -10    5.27    1.27
  -3  -2  10    5.69    1.06
  -3  -2  10    4.79    1.01
  -3  -2  10    5.83    0.90
  -3  -2  10    5.88    1.19
  -3  -2  10    5.88    1.23
  -3  -2  10    7.12    1.02
  -3  -2  10    4.83    1.09
   2   2 -10    1.47    1.11
   2   2 -10    1.61    1.20
   2   2 -10    1.90    0.60
   2   2 -10    3.60    1.15
   2   2 -10    2.08    1.09
   2   2 -10    2.15    1.17
   2   2 -10    2.01    1.20
   2   2 -10    2.16    0.63
  -2  -2  10    1.44    1.03
  -2  -2  10    1.45    0.68
  -2  -2  10    1.80    0.80
  -2  -2  10    0.31    0.96
  -2  -2  10    2.28    0.93
  -2  -2  10    0.25    0.83
  -2  -2  10    0.28    0.84
   1   2 -10    7.35    1.23
   1   2 -10    7.25    0.81
   1   2 -10    7.49    1.20
   1   2 -10    8.74    1.08
   1   2 -10    7.17    1.18
   1   2 -10    8.81    1.14
   1   2 -10    8.43    1.10
  -1  -2  10    6.94    0.70
  -1  -2  10    7.92    0.91
  -1  -2  10    7.53    0.97
  -1  -2  10    6.16    0.82
  -1  -2  10    8.55    1.01
  -1  -2  10    6.52    1.00
  -1  -2  10    7.94    1.17
   0   2 -10   23.18    1.86
   0   2 -10   21.07    1.85
   0   2 -10   22.58    1.44
   0   2 -10   21.56    1.59
   0   2 -10   20.62    1.91
   0   2 -10   22.50    1.64
   0   2 -10   21.07    1.70
   0  -2  10   22.13    1.51
   0  -2  10   22.34    1.12
   0  -2  10   21.26    1.41
   0  -2  10   22.61    1.58
   0  -2  10   22.47    1.60
   0  -2  10   22.98    1.82
   0  -2  10   23.04    1.79
  -1   2 -10   64.84    2.55
  -1   2 -10   61.10    2.17
  -1   2 -10   62.93    2.08
  -1   2 -10   64.13    2.41
  -1   2 -10   63.88    2.18
  -1   2 -10   64.82    2.47
   1  -2  10   65.15    2.45
   1  -2  10   61.62    2.31
   1  -2  10   60.71    2.08
   1  -2  10   63.08    2.16
   1  -2  10   64.19    2.24
   1  -2  10   63.27    2.04
   1  -2  10   61.36    1.77
  -2   2 -10   80.93    2.38
  -2   2 -10   82.36    2.63
  -2   2 -10   80.94    2.11
  -2   2 -10   81.81    2.68
  -2   2 -10   77.87    2.86
  -2   2 -10   72.09    2.71
  -2   2 -10   82.81    2.79
  -2   2 -10   79.84    2.39
   2  -2  10   83.56    2.56
   2  -2  10   82.01    2.56
   2  -2  10   83.36    2.48
   2  -2  10   80.47    2.14
   2  -2  10   84.12    2.66
   2  -2  10   80.34    2.92
  -3   2 -10  463.08    9.71
  -3   2 -10  473.10   10.54
  -3   2 -10  453.21    9.93
  -3   2 -10  460.81    9.78
  -3   2 -10  475.96    9.56
  -3   2 -10  465.44    9.67
  -3   2 -10  464.53   10.15
   3  -2  10  471.97    9.89
   3  -2  10  477.59    9.83
   3  -2  10  470.14   10.05
   3  -2  10  465.97    9.85
   3  -2  10  456.31    9.60
   3  -2  10  470.69    9.79
   3  -2  10  459.26   10.07
   3  -2  10  461.78    9.60
  -4   2 -10   69.05    2.33
  -4   2 -10   72.03    2.85
  -4   2 -10   70.75    2.17
  -4   2 -10   66.65    3.11
  -4   2 -10   73.68    3.10
  -4   2 -10   69.98    2.92
  -4   2 -10   73.01    2.42
  -4   2 -10   64.90    2.20
   4  -2  10   66.46    2.03
   4  -2  10   68.46    2.56
   4  -2  10   70.41    2.80
   4  -2  10   66.15    3.08
   4  -2  10   69.71    2.73
   4  -2  10   66.68    2.55
   4  -2  10   68.47    2.19
   4  -2  10   65.94    2.67
  -5   2 -10   12.25    0.98
  -5   2 -10   14.95    1.88
  -5   2 -10   10.57    1.35
  -5   2 -10   11.62    1.66
  -5   2 -10   13.73    1.23
  -5   2 -10   13.75    1.91
  -5   2 -10   11.06    1.72
  -5   2 -10   10.78    1.24
   5  -2  10   12.66    1.16
   5  -2  10   13.32    1.60
   5  -2  10   14.67    1.56
   5  -2  10    9.55    1.19
   5  -2  10   12.67    1.40
   5  -2  10   10.79    1.81
   5  -2  10   10.89    0.89
  -6   2 -10    0.89    1.39
  -6   2 -10   -1.38    2.15
  -6   2 -10    0.34    1.88
  -6   2 -10   -0.06    1.37
  -6   2 -10   -0.47    1.36
  -6   2 -10    1.49    1.96
  -6   2 -10    0.54    2.06
   6  -2  10    0.27    1.96
   6  -2  10    0.69    1.72
   6  -2  10    0.82    1.45
   6  -2  10    1.05    1.25
   5   1 -10   13.39    3.04
   5   1 -10   12.74    2.21
   5   1 -10    7.16    1.61
   5   1 -10   13.84    2.12
   5   1 -10   10.76    1.90
   5   1 -10   12.84    1.68
  -5  -1  10   16.57    1.90
  -5  -1  10   13.72    1.37
  -5  -1  10   13.05    1.70
  -5  -1  10   12.33    1.47
  -5  -1  10   11.77    1.73
  -5  -1  10   13.51    1.82
  -5  -1  10   12.92    1.72
   4   1 -10   19.72    1.52
   4   1 -10   14.94    1.61
   4   1 -10   20.39    1.63
   4   1 -10   25.47    2.15
   4   1 -10   22.92    1.92
   4   1 -10   21.22    1.93
  -4  -1  10   19.90    1.43
  -4  -1  10   20.34    1.63
  -4  -1  10   19.89    1.44
  -4  -1  10   18.61    1.50
  -4  -1  10   20.51    1.37
  -4  -1  10   23.55    1.70
  -4  -1  10   18.57    1.59
   3   1 -10    4.48    1.40
   3   1 -10    4.22    0.61
   3   1 -10    5.56    1.47
   3   1 -10    4.82    0.65
   3   1 -10    4.65    1.17
   3   1 -10    5.31    1.21
   3   1 -10    6.28    1.37
   3   1 -10    5.14    1.25
  -3  -1  10    5.72    0.95
  -3  -1  10    4.73    1.05
  -3  -1  10    5.30    0.94
  -3  -1  10    3.98    1.01
  -3  -1  10    6.37    1.15
  -3  -1  10    4.63    1.03
  -3  -1  10    4.63    0.76
   2   1 -10   11.47    1.27
   2   1 -10   14.30    1.24
   2   1 -10   13.34    1.10
   2   1 -10   13.39    1.29
   2   1 -10   15.16    1.11
   2   1 -10   13.67    1.34
   2   1 -10   12.48    1.09
   2   1 -10   14.42    1.22
  -2  -1  10   14.21    1.01
  -2  -1  10   14.21    0.91
  -2  -1  10   12.97    1.03
  -2  -1  10   13.98    1.10
  -2  -1  10   13.02    0.97
  -2  -1  10   13.50    1.07
  -2  -1  10   14.87    1.24
   1   1 -10    7.30    1.00
   1   1 -10    4.23    1.05
   1   1 -10    4.94    1.01
   1   1 -10    7.13    0.75
   1   1 -10    3.15    0.88
   1   1 -10    6.45    1.05
   1   1 -10    6.40    1.10
   1   1 -10    6.82    0.72
  -1  -1  10    6.44    0.57
  -1  -1  10    5.70    0.96
  -1  -1  10    5.09    0.86
  -1  -1  10    7.84    0.81
  -1  -1  10    8.35    1.00
  -1  -1  10    6.06    0.66
  -1  -1  10    6.74    0.81
   0   1 -10   18.42    1.36
   0   1 -10   15.25    1.05
   0   1 -10   18.15    1.16
   0   1 -10   21.71    1.75
   0   1 -10   16.98    1.10
   0   1 -10   20.93    1.64
   0   1 -10   20.39    1.45
   0  -1  10   17.09    1.54
   0  -1  10   20.19    1.64
   0  -1  10   19.26    1.38
   0  -1  10   17.85    0.88
   0  -1  10   18.82    1.38
   0  -1  10   16.90    1.32
   0  -1  10   18.98    1.30
  -1   1 -10  112.72    2.84
  -1   1 -10  110.34    3.03
  -1   1 -10  114.16    2.92
  -1   1 -10  104.70    2.86
  -1   1 -10  108.89    3.11
  -1   1 -10  110.99    2.84
  -1   1 -10  113.71    3.06
   1  -1  10  112.90    3.02
   1  -1  10  110.99    2.87
   1  -1  10  112.74    2.89
   1  -1  10  108.99    3.00
   1  -1  10  122.91    2.53
   1  -1  10  108.69    2.82
  -2   1 -10  175.12    4.27
  -2   1 -10  186.92    4.38
  -2   1 -10  184.35    4.31
  -2   1 -10  185.46    4.13
  -2   1 -10  184.26    3.85
  -2   1 -10  185.27    4.12
  -2   1 -10  183.99    4.13
  -2   1 -10  178.50    4.42
   2  -1  10  181.26    4.28
   2  -1  10  178.45    4.19
   2  -1  10  181.20    4.21
   2  -1  10  175.96    3.87
   2  -1  10  179.01    4.39
   2  -1  10  176.47    4.07
  -3   1 -10   88.03    2.83
  -3   1 -10   91.01    2.49
  -3   1 -10   88.59    2.90
  -3   1 -10   91.24    2.20
  -3   1 -10   91.57    2.49
  -3   1 -10   98.57    2.88
  -3   1 -10   89.35    2.43
   3  -1  10   95.41    2.70
   3  -1  10   91.66    2.65
   3  -1  10   91.60    2.24
   3  -1  10   86.61    2.85
   3  -1  10   93.92    2.65
   3  -1  10   90.47    2.36
   3  -1  10   90.61    2.49
  -4   1 -10    8.04    0.82
  -4   1 -10    6.41    0.95
  -4   1 -10    9.16    1.00
  -4   1 -10    9.25    1.25
  -4   1 -10    8.88    1.30
  -4   1 -10    8.45    1.12
  -4   1 -10    7.91    1.16
  -4   1 -10    7.61    0.76
   4  -1  10    7.30    1.24
   4  -1  10    8.29    1.05
   4  -1  10    8.35    0.97
   4  -1  10    7.75    0.79
   4  -1  10    6.29    1.05
   4  -1  10    8.03    1.04
   4  -1  10    8.37    0.81
   4  -1  10    8.54    1.13
  -5   1 -10  118.22    3.18
  -5   1 -10  115.88    3.69
  -5   1 -10  120.18    3.75
  -5   1 -10  120.66    3.21
  -5   1 -10  118.60    3.54
  -5   1 -10  119.85    2.97
  -5   1 -10  112.60    3.72
  -5   1 -10  113.04    2.81
   5  -1  10  116.48    2.98
   5  -1  10  114.02    3.47
   5  -1  10  117.23    3.17
   5  -1  10  114.41    3.71
   5  -1  10  119.21    3.18
   5  -1  10  111.00    3.50
   5  -1  10  115.10    2.79
  -6   1 -10   45.32    2.43
  -6   1 -10   42.44    2.14
  -6   1 -10   46.35    3.33
  -6   1 -10   41.30    3.31
  -6   1 -10   42.15    3.00
  -6   1 -10   44.69    2.30
  -6   1 -10   45.71    3.31
   6  -1  10   43.94    2.64
   6  -1  10   44.16    2.84
   6  -1  10   41.80    2.19
   6  -1  10   44.45    2.04
   6  -1  10   43.63    3.14
   6  -1  10   39.60    2.32
  -7   1 -10    3.93    1.51
  -7   1 -10    2.97    1.64
  -7   1 -10    2.25    2.20
  -7   1 -10    1.74    1.97
   7  -1  10    5.53    1.85
   7  -1  10    5.97    2.39
   7  -1  10    1.12    1.28
   7  -1  10    3.22    1.33
   5   0 -10    5.88    2.33
   5   0 -10    7.58    1.62
   5   0 -10    5.42    1.43
   5   0 -10    9.72    2.35
   5   0 -10    9.79    2.27
   5   0 -10    9.13    1.86
  -5   0  10    8.51    2.04
  -5   0  10    9.30    1.45
  -5   0  10    7.63    1.60
  -5   0  10    7.25    1.56
  -5   0  10    7.35    1.50
   4   0 -10    1.06    1.27
   4   0 -10    1.78    0.73
   4   0 -10    0.89    1.38
   4   0 -10    0.01    1.76
   4   0 -10    3.26    1.80
   4   0 -10    0.30    0.82
   4   0 -10    2.82    1.62
   4   0 -10   -0.37    1.13
  -4   0  10    0.36    1.32
  -4   0  10    2.16    1.28
  -4   0  10    2.22    2.10
  -4   0  10    2.65    1.06
  -4   0  10    0.02    1.06
  -4   0  10    3.28    1.25
   3   0 -10    2.85    0.78
   3   0 -10    1.48    1.30
   3   0 -10    0.60    0.67
   3   0 -10    0.01    1.51
   3   0 -10    1.41    1.33
   3   0 -10    2.46    1.06
   3   0 -10   -0.46    1.30
   3   0 -10    1.39    1.05
  -3   0  10    2.27    1.14
  -3   0  10    1.92    0.90
  -3   0  10    1.89    0.88
  -3   0  10    1.78    0.86
  -3   0  10    0.89    0.97
  -3   0  10    2.16    1.05
  -3   0  10    1.38    0.65
   2   0 -10    5.46    0.72
   2   0 -10    5.44    1.14
   2   0 -10    4.70    1.11
   2   0 -10    6.74    0.99
   2   0 -10    6.10    1.05
   2   0 -10    5.00    1.07
   2   0 -10    6.38    1.23
   2   0 -10    5.45    0.78
  -2   0  10    4.37    0.96
  -2   0  10    5.22    0.95
  -2   0  10    4.88    0.79
  -2   0  10    9.27    1.59
  -2   0  10    4.38    0.76
  -2   0  10    5.48    0.71
  -2   0  10    5.19    0.57
   1   0 -10  111.89    2.95
   1   0 -10  114.33    3.00
   1   0 -10  110.67    3.10
   1   0 -10  109.49    2.72
   1   0 -10  113.23    3.16
   1   0 -10  108.81    2.93
   1   0 -10  117.50    3.00
   1   0 -10  115.27    2.70
  -1   0  10  116.64    2.94
  -1   0  10  111.63    2.54
  -1   0  10  103.25    2.92
  -1   0  10  110.48    2.47
  -1   0  10  113.97    2.94
  -1   0  10  114.62    2.83
  -1   0  10  114.12    2.80
   0   0 -10   10.03    1.00
   0   0 -10    8.42    0.93
   0   0 -10    9.72    0.86
   0   0 -10    8.29    0.89
   0   0 -10    9.60    0.87
   0   0 -10    8.77    0.83
   0   0 -10    8.83    0.97
   0   0  10   11.41    0.93
   0   0  10    9.65    0.90
   0   0  10    9.98    0.87
   0   0  10    9.76    0.59
   0   0  10   11.09    0.84
   0   0  10   10.99    0.80
   0   0  10    9.55    0.68
  -1   0 -10   46.26    1.77
  -1   0 -10   46.91    1.72
  -1   0 -10   49.06    1.66
  -1   0 -10   44.08    1.66
  -1   0 -10   48.07    1.85
  -1   0 -10   47.23    1.90
  -1   0 -10   40.71    2.00
   1   0  10   46.05    1.64
   1   0  10   45.47    1.77
   1   0  10   47.21    1.65
   1   0  10   46.67    1.65
   1   0  10   49.63    1.61
   1   0  10   45.53    1.13
  -2   0 -10   27.94    1.60
  -2   0 -10   25.07    1.54
  -2   0 -10   24.61    1.35
  -2   0 -10   27.56    1.58
  -2   0 -10   26.86    1.58
  -2   0 -10   26.98    1.31
   2   0  10   25.30    0.83
   2   0  10   25.57    1.31
   2   0  10   24.74    1.44
   2   0  10   26.06    1.52
   2   0  10   23.82    1.39
   2   0  10   26.48    1.38
  -3   0 -10    5.36    0.47
  -3   0 -10    5.49    1.20
  -3   0 -10    4.42    1.14
  -3   0 -10    5.47    0.74
  -3   0 -10    6.16    0.75
  -3   0 -10    5.07    0.75
  -3   0 -10    3.97    0.75
  -3   0 -10    6.12    0.99
   3   0  10    5.33    0.73
   3   0  10    4.82    0.49
   3   0  10    4.67    0.88
   3   0  10    5.33    0.90
   3   0  10    5.22    0.74
   3   0  10    4.53    0.82
  -4   0 -10    0.46    1.03
  -4   0 -10    0.34    0.53
  -4   0 -10   -0.57    0.86
  -4   0 -10    0.59    0.66
  -4   0 -10   -0.36    1.00
  -4   0 -10    0.18    0.78
  -4   0 -10    0.32    0.66
  -4   0 -10   -0.02    0.91
   4   0  10    0.46    0.66
   4   0  10    0.90    0.67
   4   0  10    1.06    0.93
   4   0  10    0.92    0.74
   4   0  10    1.59    0.89
   4   0  10   -0.98    0.93
   4   0  10    0.30    0.53
  -5   0 -10    0.12    1.23
  -5   0 -10    0.84    0.68
  -5   0 -10    0.37    0.94
  -5   0 -10    0.05    0.84
  -5   0 -10    0.03    1.05
  -5   0 -10   -0.06    0.65
  -5   0 -10   -0.58    1.17
  -5   0 -10   -0.52    1.04
   5   0  10   -0.23    0.71
   5   0  10    0.66    0.66
   5   0  10    0.19    1.09
   5   0  10   -0.05    0.80
   5   0  10   -0.38    0.98
   5   0  10   -0.41    0.70
  -6   0 -10   12.56    1.65
  -6   0 -10   12.26    1.47
  -6   0 -10   12.24    1.08
  -6   0 -10   12.62    1.03
  -6   0 -10   15.61    1.39
  -6   0 -10   12.13    1.75
  -6   0 -10   11.22    1.70
  -6   0 -10   11.06    1.52
   6   0  10   11.78    1.45
   6   0  10   12.51    1.12
   6   0  10   13.02    1.34
   6   0  10   10.99    1.00
   6   0  10   12.06    1.13
  -7   0 -10   31.50    2.50
  -7   0 -10   31.52    2.38
  -7   0 -10   32.65    2.31
  -7   0 -10   27.40    2.34
  -7   0 -10   32.52    2.69
  -7   0 -10   28.25    2.31
  -7   0 -10   31.98    2.96
   7   0  10   28.00    1.95
   7   0  10   30.32    2.48
   7   0  10   28.19    1.96
   7   0  10   30.17    2.03
   7   0  10   30.99    2.01
   5  -1 -10   19.93    2.36
   5  -1 -10   15.26    2.53
   5  -1 -10   17.00    1.75
   5  -1 -10   17.83    2.44
   5  -1 -10   17.94    1.41
   5  -1 -10   14.56    2.02
   5  -1 -10   20.61    1.83
  -5   1  10   17.71    1.86
  -5   1  10   16.33    1.93
  -5   1  10   17.21    1.61
  -5   1  10   19.56    1.59
  -5   1  10   18.58    1.71
  -5   1  10   16.58    1.79
   4  -1 -10   16.05    1.46
   4  -1 -10   15.06    1.45
   4  -1 -10   13.24    1.57
   4  -1 -10   17.79    1.25
   4  -1 -10   14.92    1.74
   4  -1 -10   16.33    2.02
   4  -1 -10   16.41    1.98
  -4   1  10   18.12    1.25
  -4   1  10   13.92    1.39
  -4   1  10   15.39    1.57
  -4   1  10   13.89    1.27
  -4   1  10   17.40    1.41
   3  -1 -10    7.06    1.30
   3  -1 -10    7.72    1.00
   3  -1 -10    8.86    1.16
   3  -1 -10    7.50    1.53
   3  -1 -10    5.67    1.40
   3  -1 -10    4.23    1.47
   3  -1 -10    5.69    1.06
  -3   1  10    7.01    0.90
  -3   1  10    6.34    1.11
  -3   1  10    7.77    0.94
  -3   1  10    5.11    1.21
  -3   1  10    7.95    1.11
   2  -1 -10    0.36    1.00
   2  -1 -10    0.15    0.81
   2  -1 -10    0.80    0.77
   2  -1 -10    0.37    1.01
   2  -1 -10    1.18    1.09
   2  -1 -10   -1.56    0.82
   2  -1 -10    0.11    1.15
  -2   1  10    0.38    0.74
  -2   1  10    0.31    0.72
  -2   1  10    0.47    0.45
  -2   1  10    0.64    0.86
  -2   1  10   -0.10    0.81
  -2   1  10   -1.46    0.92
  -2   1  10    0.07    0.58
   1  -1 -10   37.01    1.52
   1  -1 -10   36.23    1.62
   1  -1 -10   37.13    1.65
   1  -1 -10   37.27    1.46
   1  -1 -10   35.17    1.83
   1  -1 -10   37.90    1.71
   1  -1 -10   35.82    2.02
  -1   1  10   34.48    1.61
  -1   1  10   34.23    1.78
  -1   1  10   36.78    1.49
  -1   1  10   35.31    1.07
  -1   1  10   36.79    1.47
  -1   1  10   36.26    0.98
  -1   1  10   34.71    1.68
   0  -1 -10   59.08    2.07
   0  -1 -10   59.45    1.91
   0  -1 -10   60.02    1.99
   0  -1 -10   59.27    2.09
   0  -1 -10   60.25    1.93
   0  -1 -10   58.06    1.79
   0  -1 -10   61.35    1.87
   0  -1 -10   56.64    1.91
   0   1  10   61.94    1.94
   0   1  10   59.17    1.79
   0   1  10   57.72    1.76
   0   1  10   57.90    1.91
   0   1  10   57.41    1.92
  -1  -1 -10   39.23    1.55
  -1  -1 -10   32.34    2.33
  -1  -1 -10   40.98    1.72
  -1  -1 -10   38.67    1.57
  -1  -1 -10   39.42    1.53
  -1  -1 -10   39.65    1.70
  -1  -1 -10   39.10    1.50
   1   1  10   38.03    1.51
   1   1  10   40.21    1.41
   1   1  10   37.23    1.53
   1   1  10   39.21    1.48
   1   1  10   37.20    1.57
  -2  -1 -10    3.24    0.76
  -2  -1 -10    3.80    0.67
  -2  -1 -10    3.05    0.75
  -2  -1 -10    3.09    0.73
  -2  -1 -10    3.47    0.67
  -2  -1 -10    3.44    0.71
  -2  -1 -10    2.50    0.77
   2   1  10    3.84    0.67
   2   1  10    2.94    0.70
   2   1  10    3.50    0.68
  -3  -1 -10   -0.37    0.73
  -3  -1 -10    0.57    0.84
  -3  -1 -10    0.90    0.70
  -3  -1 -10    0.75    0.81
  -3  -1 -10   -0.28    0.58
  -3  -1 -10   -0.07    0.64
   3   1  10   -1.09    0.56
   3   1  10   -0.73    0.65
   3   1  10   -0.05    0.70
   3   1  10   -0.06    0.66
   3   1  10   -0.13    0.72
  -4  -1 -10   68.47    1.62
  -4  -1 -10   69.07    2.51
  -4  -1 -10   64.38    1.89
  -4  -1 -10   69.15    2.16
  -4  -1 -10   68.01    2.08
  -4  -1 -10   66.53    2.26
   4   1  10   68.92    2.24
   4   1  10   66.37    1.62
   4   1  10   66.90    1.91
   4   1  10   67.07    2.09
   4   1  10   67.74    1.98
   4   1  10   69.51    2.34
   4   1  10   68.00    2.01
  -5  -1 -10   21.27    1.66
  -5  -1 -10   16.97    1.40
  -5  -1 -10   21.43    1.69
  -5  -1 -10   22.76    1.80
  -5  -1 -10   21.58    1.17
  -5  -1 -10   21.98    1.34
  -5  -1 -10   19.77    1.17
  -5  -1 -10   23.79    2.07
   5   1  10   21.09    1.34
   5   1  10   21.71    1.25
   5   1  10   21.33    1.39
   5   1  10   19.52    1.71
   5   1  10   22.37    1.57
   5   1  10   21.30    1.07
  -6  -1 -10    0.70    1.07
  -6  -1 -10    2.26    1.15
  -6  -1 -10    0.00    1.27
  -6  -1 -10    2.95    1.39
  -6  -1 -10    0.70    1.10
  -6  -1 -10    1.37    0.81
  -6  -1 -10    0.84    0.87
  -6  -1 -10    2.02    0.61
   6   1  10    1.82    0.71
   6   1  10    1.37    0.95
   6   1  10    2.29    0.78
   6   1  10    1.46    0.77
   6   1  10    0.65    1.02
  -7  -1 -10   -1.22    1.86
  -7  -1 -10    4.08    1.47
  -7  -1 -10    0.75    1.17
  -7  -1 -10    1.11    1.12
  -7  -1 -10   -0.14    1.53
  -7  -1 -10    0.93    1.61
  -7  -1 -10    3.58    1.39
   7   1  10    0.97    0.89
   7   1  10    1.85    1.13
   7   1  10   -0.73    1.15
   7   1  10    1.36    0.88
   7   1  10    2.48    0.98
   5  -2 -10   33.26    3.21
   5  -2 -10   35.51    2.21
   5  -2 -10   35.75    2.76
   5  -2 -10   38.25    2.94
   5  -2 -10   37.46    2.89
   5  -2 -10   32.55    2.41
  -5   2  10   38.13    2.52
  -5   2  10   32.62    3.02
  -5   2  10   38.72    2.53
  -5   2  10   31.99    2.16
  -5   2  10   29.40    1.85
  -5   2  10   42.03    2.94
   4  -2 -10   11.09    2.17
   4  -2 -10    6.58    1.29
   4  -2 -10    9.77    1.66
   4  -2 -10   11.37    1.40
   4  -2 -10   12.93    2.11
   4  -2 -10   12.08    1.54
   4  -2 -10   10.80    1.88
  -4   2  10   10.39    1.14
  -4   2  10   11.99    1.38
  -4   2  10   10.94    1.73
  -4   2  10   12.62    1.51
  -4   2  10   12.54    1.21
  -4   2  10   10.87    1.53
   3  -2 -10   -1.16    1.07
   3  -2 -10    1.42    1.32
   3  -2 -10    2.27    1.28
   3  -2 -10   -0.25    1.50
   3  -2 -10   -0.27    1.05
   3  -2 -10    0.45    1.03
   3  -2 -10    0.77    1.24
  -3   2  10   -0.25    1.08
  -3   2  10    0.21    1.31
  -3   2  10    0.36    0.75
  -3   2  10    0.36    0.84
  -3   2  10   -2.57    1.02
  -3   2  10   -0.58    0.92
   2  -2 -10    0.56    1.13
   2  -2 -10    1.18    0.89
   2  -2 -10    0.24    1.21
   2  -2 -10   -0.38    0.87
   2  -2 -10    0.67    1.02
   2  -2 -10    0.48    1.01
   2  -2 -10    0.18    0.98
  -2   2  10   -0.97    0.92
  -2   2  10    1.81    1.03
  -2   2  10    0.78    0.68
  -2   2  10    0.32    0.52
   1  -2 -10    6.48    0.94
   1  -2 -10    7.67    0.92
   1  -2 -10    8.08    1.11
   1  -2 -10    8.57    0.95
   1  -2 -10   10.18    1.23
   1  -2 -10    8.75    0.86
   1  -2 -10   11.02    1.08
  -1   2  10    8.45    1.11
  -1   2  10    6.03    1.40
  -1   2  10    8.62    0.79
  -1   2  10    9.01    0.78
  -1   2  10    9.22    1.03
   0  -2 -10   24.53    1.46
   0  -2 -10   26.37    1.43
   0  -2 -10   25.57    1.58
   0  -2 -10   26.87    1.51
   0  -2 -10   26.81    1.74
   0  -2 -10   26.00    1.43
   0  -2 -10   27.01    1.41
   0   2  10   27.20    1.27
   0   2  10   24.89    1.82
   0   2  10   25.70    1.21
   0   2  10   26.86    1.54
   0   2  10   23.02    1.51
  -1  -2 -10    3.19    0.70
  -1  -2 -10    4.67    0.81
  -1  -2 -10    3.26    0.71
  -1  -2 -10    3.62    0.86
  -1  -2 -10    4.32    0.78
  -1  -2 -10    3.43    0.72
  -1  -2 -10    3.43    0.73
  -1  -2 -10    3.94    0.70
   1   2  10    3.70    0.72
   1   2  10    3.72    0.66
  -2  -2 -10   82.42    2.17
  -2  -2 -10   81.33    2.16
  -2  -2 -10   83.89    2.35
  -2  -2 -10   77.25    2.18
  -2  -2 -10   77.79    2.28
   2   2  10   78.61    2.19
   2   2  10   79.20    2.14
   2   2  10   81.95    2.10
   2   2  10   83.09    2.26
   2   2  10   80.79    2.29
  -3  -2 -10    1.21    0.65
  -3  -2 -10    2.19    0.81
  -3  -2 -10    1.75    0.62
  -3  -2 -10    1.54    0.69
  -3  -2 -10    1.25    0.72
  -3  -2 -10    2.15    0.60
  -3  -2 -10    1.83    0.67
   3   2  10    2.29    0.71
   3   2  10    2.65    0.62
   3   2  10    2.15    0.66
   3   2  10    1.65    0.60
   3   2  10    2.30    0.77
  -4  -2 -10   40.47    2.02
  -4  -2 -10   42.22    1.67
  -4  -2 -10   37.55    1.69
  -4  -2 -10   39.60    1.47
  -4  -2 -10   40.16    1.72
  -4  -2 -10   39.67    1.59
   4   2  10   40.32    1.36
   4   2  10   41.53    1.69
   4   2  10   41.86    1.95
   4   2  10   41.70    1.64
   4   2  10   41.34    1.54
  -5  -2 -10   10.87    0.80
  -5  -2 -10    8.90    0.94
  -5  -2 -10   14.03    1.18
  -5  -2 -10   12.24    1.35
  -5  -2 -10   11.91    1.07
  -5  -2 -10   11.55    0.91
  -5  -2 -10    9.78    1.06
  -5  -2 -10   10.23    0.78
   5   2  10   10.95    0.89
   5   2  10   12.46    1.02
   5   2  10   10.50    0.87
   5   2  10   10.62    0.73
  -6  -2 -10   37.42    1.90
  -6  -2 -10   36.60    2.18
  -6  -2 -10   33.54    1.38
  -6  -2 -10   38.36    2.13
  -6  -2 -10   37.35    2.10
  -6  -2 -10   34.66    1.60
  -6  -2 -10   41.36    1.56
  -6  -2 -10   34.30    2.51
   6   2  10   34.43    1.62
   6   2  10   35.59    1.31
   6   2  10   34.69    1.55
  -7  -2 -10   49.70    2.11
  -7  -2 -10   50.53    2.39
  -7  -2 -10   47.79    2.83
  -7  -2 -10   47.81    2.82
  -7  -2 -10   48.22    2.76
  -7  -2 -10   48.44    1.53
  -7  -2 -10   46.91    2.05
  -7  -2 -10   50.10    3.34
  -8  -2 -10    5.32    1.48
   4  -3 -10   45.74    2.58
   4  -3 -10   49.31    3.22
   4  -3 -10   36.92    3.28
   4  -3 -10   50.80    3.98
   4  -3 -10   58.05    3.72
   4  -3 -10   38.21    3.33
   4  -3 -10   56.45    2.97
  -4   3  10   45.82    3.38
  -4   3  10   52.99    3.02
  -4   3  10   49.89    2.76
  -4   3  10   49.77    2.25
  -4   3  10   46.58    2.73
   3  -3 -10    1.44    1.51
   3  -3 -10    1.26    1.23
   3  -3 -10    1.78    1.46
   3  -3 -10    0.82    1.17
   3  -3 -10   -1.34    1.25
   3  -3 -10    3.16    1.71
  -3   3  10    1.62    1.41
  -3   3  10    0.60    1.15
  -3   3  10   -0.58    1.03
  -3   3  10    3.18    1.33
  -3   3  10    2.30    0.90
  -3   3  10    0.34    0.79
   2  -3 -10   78.03    2.65
   2  -3 -10   74.33    2.53
   2  -3 -10   73.59    2.73
   2  -3 -10   73.94    2.57
   2  -3 -10   68.35    2.47
   2  -3 -10   74.21    2.90
  -2   3  10   69.83    2.47
  -2   3  10   73.62    2.34
  -2   3  10   75.80    2.73
  -2   3  10   74.86    2.18
  -2   3  10   75.23    2.68
  -2   3  10   76.10    1.87
   1  -3 -10    2.41    1.54
   1  -3 -10    2.36    0.92
   1  -3 -10    3.19    0.91
   1  -3 -10    3.58    1.03
   1  -3 -10    4.17    0.93
   1  -3 -10    3.16    1.10
  -1   3  10    3.72    0.97
  -1   3  10    3.72    0.71
  -1   3  10    4.66    0.88
  -1   3  10    3.30    1.00
   0  -3 -10   59.65    2.08
   0  -3 -10   50.56    2.58
   0  -3 -10   60.26    2.04
   0  -3 -10   61.04    1.96
   0  -3 -10   62.32    2.18
   0   3  10   60.26    2.06
   0   3  10   59.07    1.81
   0   3  10   56.98    1.91
   0   3  10   59.57    1.76
  -1  -3 -10  333.04    7.09
  -1  -3 -10  333.98    7.13
  -1  -3 -10  331.40    7.18
  -1  -3 -10  328.14    7.04
  -1  -3 -10  334.57    7.07
  -1  -3 -10  334.40    7.19
   1   3  10  336.62    7.03
   1   3  10  336.91    6.92
   1   3  10  334.80    7.18
   1   3  10  326.27    7.01
   1   3  10  326.54    7.07
  -2  -3 -10   51.39    1.91
  -2  -3 -10   49.67    1.81
  -2  -3 -10   53.56    1.90
  -2  -3 -10   49.18    1.77
  -2  -3 -10   50.65    1.66
  -2  -3 -10   52.96    1.70
  -2  -3 -10   50.57    1.82
  -2  -3 -10   50.27    1.87
   2   3  10   50.93    1.61
   2   3  10   49.78    1.96
   2   3  10   50.79    1.80
   2   3  10   52.14    1.53
   2   3  10   51.37    1.68
  -3  -3 -10   56.45    2.10
  -3  -3 -10   56.24    1.77
  -3  -3 -10   59.48    1.79
  -3  -3 -10   55.32    1.83
  -3  -3 -10   49.91    2.21
  -3  -3 -10   60.57    1.88
  -3  -3 -10   55.85    1.71
   3   3  10   56.44    1.99
   3   3  10   57.93    2.02
   3   3  10   54.85    1.62
   3   3  10   55.53    1.69
   3   3  10   57.33    1.66
  -4  -3 -10    7.35    0.86
  -4  -3 -10    7.00    0.79
  -4  -3 -10    6.06    0.79
  -4  -3 -10    7.83    0.85
  -4  -3 -10    6.39    0.70
  -4  -3 -10    6.32    0.81
  -4  -3 -10    7.81    1.05
   4   3  10    6.93    1.06
   4   3  10    8.43    1.01
   4   3  10    8.10    0.64
   4   3  10    7.23    0.66
   4   3  10    7.48    0.69
  -5  -3 -10    1.28    0.77
  -5  -3 -10    0.27    0.49
  -5  -3 -10   -0.04    1.11
  -5  -3 -10    1.16    0.81
  -5  -3 -10    0.34    0.85
  -5  -3 -10   -0.66    0.80
  -5  -3 -10   -0.83    0.72
   5   3  10    0.01    0.45
  -6  -3 -10   17.97    1.28
  -6  -3 -10   17.38    1.28
  -6  -3 -10   15.74    1.30
  -6  -3 -10   17.88    1.27
  -6  -3 -10   20.26    1.72
  -6  -3 -10   17.91    1.27
  -6  -3 -10   21.65    1.25
  -6  -3 -10   18.46    1.53
  -7  -3 -10   -1.24    1.32
  -7  -3 -10    1.36    1.05
  -7  -3 -10   -0.26    1.53
  -7  -3 -10   -0.93    0.77
  -7  -3 -10    1.20    1.48
  -7  -3 -10   -1.04    0.99
  -7  -3 -10    1.74    0.92
  -7  -3 -10   -0.84    1.25
  -8  -3 -10    2.75    1.36
  -8  -3 -10    3.89    1.90
  -8  -3 -10    3.72    1.22
   4  -4 -10   77.38    3.34
   4  -4 -10   90.78    4.01
   4  -4 -10   86.41    3.58
   4  -4 -10   87.00    4.23
   4  -4 -10   82.79    5.02
   4  -4 -10   80.17    4.92
  -4   4  10   86.77    4.37
  -4   4  10   81.76    2.78
  -4   4  10   78.17    3.56
  -4   4  10   84.24    3.81
  -4   4  10   86.60    3.42
  -4   4  10   88.99    4.92
  -4   4  10   89.15    2.83
   3  -4 -10    6.06    1.89
   3  -4 -10    7.08    1.62
   3  -4 -10    5.18    2.07
   3  -4 -10    3.84    1.55
   3  -4 -10    6.50    1.37
   3  -4 -10    6.02    1.59
  -3   4  10    6.20    0.91
  -3   4  10    6.36    1.28
  -3   4  10    5.27    1.40
  -3   4  10    5.50    0.99
  -3   4  10    6.83    1.53
  -3   4  10    8.47    1.76
  -3   4  10    6.47    1.99
   2  -4 -10    4.28    1.27
   2  -4 -10    5.23    1.21
   2  -4 -10    3.32    1.21
   2  -4 -10    4.65    1.57
   2  -4 -10    4.93    1.64
   2  -4 -10    5.05    1.30
  -2   4  10    4.88    0.65
  -2   4  10    5.13    0.84
  -2   4  10    2.26    1.24
  -2   4  10    3.96    1.01
  -2   4  10    6.59    1.67
  -2   4  10    4.09    1.04
  -2   4  10    6.43    1.38
   1  -4 -10   16.29    1.32
   1  -4 -10   18.76    1.20
   1  -4 -10   15.20    1.26
   1  -4 -10   16.58    1.54
   1  -4 -10   14.85    1.51
   1  -4 -10   14.83    1.29
   1  -4 -10   15.86    1.22
  -1   4  10   15.50    0.76
  -1   4  10   17.75    1.40
  -1   4  10   16.78    1.34
  -1   4  10   15.01    0.95
  -1   4  10   15.40    1.16
  -1   4  10   14.51    0.99
   0  -4 -10   93.38    2.62
   0  -4 -10   96.13    3.00
   0  -4 -10   94.01    2.79
   0  -4 -10   87.43    2.93
   0  -4 -10   92.88    2.85
   0  -4 -10   93.71    2.74
   0  -4 -10   93.28    2.71
   0   4  10   91.30    2.68
   0   4  10   93.07    2.51
   0   4  10   93.89    2.41
   0   4  10   91.24    2.88
   0   4  10   92.23    2.44
  -1  -4 -10    4.71    0.94
  -1  -4 -10    3.84    0.96
  -1  -4 -10    2.81    0.87
  -1  -4 -10    3.11    0.85
  -1  -4 -10    4.81    0.80
  -1  -4 -10    3.10    0.94
  -1  -4 -10    4.60    0.94
   1   4  10    2.72    0.98
   1   4  10    3.02    0.60
   1   4  10    4.01    0.69
   1   4  10    3.31    1.17
   1   4  10    2.84    0.83
  -2  -4 -10   29.56    1.77
  -2  -4 -10   27.45    1.50
  -2  -4 -10   25.08    1.70
  -2  -4 -10   27.59    1.51
  -2  -4 -10   30.05    1.66
  -2  -4 -10   24.41    1.82
  -2  -4 -10   26.61    1.38
   2   4  10   27.79    1.21
   2   4  10   26.86    1.49
   2   4  10   29.31    1.16
   2   4  10   27.56    1.36
   2   4  10   29.35    1.83
  -3  -4 -10  256.26    5.84
  -3  -4 -10  268.55    5.94
  -3  -4 -10  266.93    5.70
  -3  -4 -10  265.23    5.97
  -3  -4 -10  273.44    5.78
  -3  -4 -10  269.54    5.71
  -3  -4 -10  263.86    5.66
  -3  -4 -10  269.47    5.81
   3   4  10  264.83    5.57
   3   4  10  267.36    5.52
   3   4  10  266.17    5.88
   3   4  10  267.44    5.58
   3   4  10  267.89    6.00
  -4  -4 -10   15.05    1.18
  -4  -4 -10   13.89    1.33
  -4  -4 -10   13.54    0.87
  -4  -4 -10   14.19    1.28
  -4  -4 -10   15.58    1.08
  -4  -4 -10   13.40    1.26
  -4  -4 -10   17.43    1.34
  -4  -4 -10   12.64    1.18
  -5  -4 -10    5.04    0.96
  -5  -4 -10    4.24    1.19
  -5  -4 -10    4.62    0.83
  -5  -4 -10    5.00    0.69
  -5  -4 -10    3.27    0.93
  -5  -4 -10    5.37    0.48
  -5  -4 -10    5.31    0.85
  -5  -4 -10    5.71    0.56
  -5  -4 -10    5.37    0.88
  -6  -4 -10    5.58    0.71
  -6  -4 -10    5.45    0.90
  -6  -4 -10    5.43    0.75
  -6  -4 -10    6.05    1.60
  -6  -4 -10    5.87    0.90
  -6  -4 -10    5.81    1.01
  -6  -4 -10    6.02    1.16
  -6  -4 -10    4.87    1.00
  -7  -4 -10    8.70    1.55
  -7  -4 -10    9.88    1.13
  -7  -4 -10    7.97    1.34
  -7  -4 -10    9.43    1.06
  -7  -4 -10    9.86    1.92
  -7  -4 -10    7.79    1.29
  -7  -4 -10   10.50    1.08
   3  -5 -10    2.07    1.94
   3  -5 -10    4.54    2.36
   3  -5 -10    2.58    2.24
   3  -5 -10    4.36    1.62
   3  -5 -10    5.69    1.82
   3  -5 -10    4.66    1.70
   3  -5 -10    4.92    1.29
  -3   5  10    2.60    1.86
  -3   5  10    3.38    1.66
  -3   5  10    2.81    1.46
  -3   5  10    5.01    2.29
  -3   5  10    3.36    1.77
  -3   5  10    4.50    1.09
  -3   5  10    3.34    1.01
   2  -5 -10   55.15    2.96
   2  -5 -10   54.00    2.67
   2  -5 -10   53.08    3.71
   2  -5 -10   46.01    3.44
   2  -5 -10   50.28    1.83
   2  -5 -10   52.06    2.69
   2  -5 -10   52.53    2.68
  -2   5  10   49.78    2.36
  -2   5  10   52.04    1.73
  -2   5  10   53.83    3.44
  -2   5  10   50.47    3.05
  -2   5  10   47.72    2.91
  -2   5  10   51.15    2.35
  -2   5  10   54.74    1.98
   1  -5 -10    5.55    1.39
   1  -5 -10    6.00    0.67
   1  -5 -10    7.75    1.53
   1  -5 -10    7.50    1.27
   1  -5 -10    5.51    1.21
   1  -5 -10    6.78    1.58
   1  -5 -10    6.47    1.13
  -1   5  10    6.78    0.83
  -1   5  10    5.13    0.98
  -1   5  10    7.21    1.39
  -1   5  10    6.83    1.47
  -1   5  10    6.39    0.60
   0  -5 -10   45.21    2.37
   0  -5 -10   48.08    2.06
   0  -5 -10   48.28    2.39
   0  -5 -10   49.38    2.62
   0  -5 -10   45.55    2.21
   0   5  10   47.56    2.19
   0   5  10   49.67    2.52
   0   5  10   47.32    1.83
   0   5  10   46.88    2.37
   0   5  10   44.61    2.00
  -1  -5 -10    3.25    1.08
  -1  -5 -10    2.34    1.33
  -1  -5 -10    2.33    0.84
  -1  -5 -10    3.04    1.11
  -1  -5 -10    2.13    1.09
  -1  -5 -10    3.25    1.07
  -1  -5 -10    1.97    0.79
   1   5  10    3.58    0.92
   1   5  10    1.34    0.96
   1   5  10    3.76    0.67
   1   5  10    5.38    1.19
   1   5  10    2.45    0.70
  -2  -5 -10   91.98    2.94
  -2  -5 -10   89.90    2.81
  -2  -5 -10   91.42    2.49
  -2  -5 -10   93.83    2.69
  -2  -5 -10   94.66    2.67
  -2  -5 -10   94.29    2.80
   2   5  10   92.61    2.67
   2   5  10   93.20    2.44
   2   5  10   94.83    2.24
   2   5  10   91.30    2.29
   2   5  10   93.59    3.03
   2   5  10   95.25    2.57
  -3  -5 -10   28.99    1.73
  -3  -5 -10   30.97    1.91
  -3  -5 -10   28.60    1.44
  -3  -5 -10   29.27    1.53
  -3  -5 -10   29.06    1.54
  -3  -5 -10   30.88    2.02
  -3  -5 -10   28.33    1.39
   3   5  10   28.33    1.13
   3   5  10   29.18    1.13
   3   5  10   27.34    1.84
   3   5  10   27.67    1.01
   3   5  10   27.82    1.02
  -4  -5 -10   21.28    1.60
  -4  -5 -10   21.21    1.33
  -4  -5 -10   24.28    2.09
  -4  -5 -10   22.55    1.41
  -4  -5 -10   21.56    1.38
  -4  -5 -10   22.50    1.48
  -4  -5 -10   23.15    1.81
  -4  -5 -10   23.65    2.07
  -5  -5 -10   -0.83    1.24
  -5  -5 -10    0.99    0.62
  -5  -5 -10   -0.01    1.09
  -5  -5 -10    1.01    0.90
  -5  -5 -10   -0.20    0.49
  -5  -5 -10    1.78    0.77
  -5  -5 -10   -0.64    1.24
  -5  -5 -10    0.28    0.76
  -5  -5 -10   -0.10    0.95
  -5  -5 -10   -0.65    0.75
  -6  -5 -10   11.47    1.02
  -6  -5 -10   13.61    0.97
  -6  -5 -10   13.91    1.07
  -6  -5 -10   11.12    1.55
  -6  -5 -10   10.37    1.69
  -6  -5 -10    9.76    0.85
  -6  -5 -10   12.18    0.84
  -6  -5 -10    9.77    1.04
  -6  -5 -10   10.89    1.30
  -6  -5 -10    9.96    1.26
  -7  -5 -10   -0.01    0.77
  -7  -5 -10    0.02    1.12
  -7  -5 -10   -0.84    1.13
  -7  -5 -10    0.48    1.12
  -7  -5 -10   -0.14    0.92
  -7  -5 -10    1.02    1.07
  -7  -5 -10   -0.96    1.21
  -7  -5 -10   -0.44    1.48
  -7  -5 -10   -0.85    1.83
   2  -6 -10   20.63    2.65
   2  -6 -10   18.10    1.85
   2  -6 -10   18.67    2.35
   2  -6 -10   14.48    2.01
   2  -6 -10   18.33    1.85
   2  -6 -10   20.00    1.42
   2  -6 -10   20.64    1.73
  -2   6  10   15.42    2.16
  -2   6  10   15.75    1.54
  -2   6  10   15.23    1.98
  -2   6  10   19.42    1.25
  -2   6  10   17.49    1.15
   1  -6 -10   22.88    1.67
   1  -6 -10   23.53    2.01
   1  -6 -10   25.16    1.82
   1  -6 -10   24.81    2.19
   1  -6 -10   26.52    1.62
   1  -6 -10   26.73    2.32
   1  -6 -10   26.49    2.12
  -1   6  10   35.03    2.30
  -1   6  10   24.14    2.00
  -1   6  10   25.00    2.06
  -1   6  10   27.07    1.90
  -1   6  10   27.13    1.70
  -1   6  10   26.34    1.31
  -1   6  10   24.59    1.97
   0  -6 -10    3.03    1.12
   0  -6 -10    0.26    1.60
   0  -6 -10   -0.44    1.40
   0  -6 -10    1.65    1.02
   0  -6 -10    1.98    1.48
   0  -6 -10    4.72    1.39
   0  -6 -10    2.36    0.67
   0   6  10    1.53    0.88
   0   6  10    0.86    1.37
   0   6  10    1.64    0.93
   0   6  10    2.70    1.05
   0   6  10    2.66    0.56
   0   6  10    3.53    1.26
  -1  -6 -10   14.63    1.19
  -1  -6 -10   13.97    1.41
  -1  -6 -10   16.93    1.07
  -1  -6 -10   10.42    1.41
  -1  -6 -10   13.25    1.57
  -1  -6 -10   14.47    1.48
   1   6  10   14.22    0.88
   1   6  10   13.29    0.95
   1   6  10   16.10    1.20
   1   6  10   15.22    1.30
   1   6  10   14.82    1.10
  -2  -6 -10    7.47    0.94
  -2  -6 -10    7.86    1.06
  -2  -6 -10    8.33    1.07
  -2  -6 -10    8.30    1.32
  -2  -6 -10    8.22    1.33
  -2  -6 -10   10.09    1.24
  -2  -6 -10    7.00    1.27
   2   6  10    5.77    1.70
   2   6  10    8.09    0.68
   2   6  10    7.87    0.90
   2   6  10    7.99    0.71
   2   6  10    7.80    0.86
  -3  -6 -10    8.32    1.21
  -3  -6 -10    6.21    1.33
  -3  -6 -10    9.20    0.90
  -3  -6 -10    8.92    1.02
  -3  -6 -10    7.82    1.09
  -3  -6 -10   10.94    1.43
  -3  -6 -10    7.57    0.91
  -4  -6 -10    2.46    0.60
  -4  -6 -10    0.33    0.83
  -4  -6 -10    1.12    0.79
  -4  -6 -10   -0.30    0.92
  -4  -6 -10    2.72    1.40
  -4  -6 -10    1.14    0.89
  -4  -6 -10    1.80    1.02
  -4  -6 -10   -0.43    1.32
  -4  -6 -10   -0.26    1.24
  -5  -6 -10    1.31    0.68
  -5  -6 -10   -0.23    0.90
  -5  -6 -10    0.52    0.81
  -5  -6 -10   -0.03    0.78
  -5  -6 -10    0.83    1.03
  -5  -6 -10    1.71    1.60
  -5  -6 -10   -0.54    1.36
  -5  -6 -10    2.28    0.80
  -5  -6 -10    0.41    0.96
  -5  -6 -10    0.95    1.49
  -6  -6 -10    1.06    1.65
  -6  -6 -10   -2.14    1.20
  -6  -6 -10    0.71    0.90
  -6  -6 -10    0.31    0.86
  -6  -6 -10   -3.08    1.49
  -6  -6 -10    1.11    1.03
  -6  -6 -10    0.90    0.93
  -6  -6 -10   -0.16    1.72
  -6  -6 -10    0.86    0.94
  -6  -6 -10    0.58    0.83
   1  -7 -10   28.00    2.86
   1  -7 -10   32.24    2.31
   1  -7 -10   26.21    1.98
   1  -7 -10   31.66    2.42
  -1   7  10   29.72    1.97
  -1   7  10   28.16    1.70
   0  -7 -10    2.46    1.13
   0  -7 -10    1.99    1.44
   0  -7 -10    3.97    2.14
   0  -7 -10    3.15    1.69
   0  -7 -10    1.02    1.89
   0  -7 -10    3.87    1.15
   0  -7 -10    4.23    1.91
   0   7  10    2.41    1.60
   0   7  10    2.93    1.06
   0   7  10    5.01    1.13
   0   7  10    2.27    1.04
   0   7  10    4.14    0.81
  -1  -7 -10    0.31    1.71
  -1  -7 -10    2.32    1.61
  -1  -7 -10    2.97    0.99
  -1  -7 -10    2.70    1.66
  -1  -7 -10    5.27    1.84
  -1  -7 -10    3.58    0.92
  -1  -7 -10    2.51    1.23
   1   7  10    2.71    1.25
   1   7  10    3.35    1.10
   1   7  10    3.32    1.18
   1   7  10    2.64    0.86
   1   7  10    3.84    0.80
  -2  -7 -10    3.64    1.53
  -2  -7 -10    5.02    1.56
  -2  -7 -10    5.86    0.84
  -2  -7 -10    5.85    1.13
  -2  -7 -10    6.01    0.96
  -2  -7 -10    3.85    1.63
  -2  -7 -10    6.54    1.61
   2   7  10    6.24    0.79
   2   7  10    5.83    0.82
   2   7  10    6.76    0.64
   2   7  10    5.87    1.02
  -3  -7 -10   32.16    1.43
  -3  -7 -10   30.38    2.43
  -3  -7 -10   36.04    2.91
  -3  -7 -10   25.75    1.92
  -3  -7 -10   30.79    1.73
  -3  -7 -10   32.66    1.39
  -3  -7 -10   34.53    2.03
  -3  -7 -10   27.96    2.54
  -3  -7 -10   28.37    1.82
  -4  -7 -10   47.74    2.57
  -4  -7 -10   44.62    3.05
  -4  -7 -10   49.14    2.01
  -4  -7 -10   50.27    1.74
  -4  -7 -10   45.60    1.88
  -4  -7 -10   43.68    2.34
  -4  -7 -10   46.49    1.69
  -4  -7 -10   49.27    2.01
  -4  -7 -10   50.13    3.16
  -5  -7 -10    6.64    0.92
  -5  -7 -10    5.65    1.88
  -5  -7 -10    4.33    0.97
  -5  -7 -10    4.00    1.87
  -5  -7 -10    5.88    1.16
  -5  -7 -10    6.76    1.30
  -5  -7 -10    6.52    1.87
  -5  -7 -10    5.86    0.95
  -5  -7 -10    5.70    1.06
  -5  -7 -10    4.53    1.16
  -2  -8 -10    5.84    1.18
  -3  -8 -10    1.96    1.07
  -3  -8 -10    2.69    2.08
   0   5 -11    3.42    1.97
   0   5 -11   -1.65    2.25
   0   5 -11    0.91    1.50
   0   5 -11   -4.29    2.20
   0   5 -11   -0.73    2.86
   0   5 -11    2.61    2.06
   0  -5  11   -0.23    1.87
   0  -5  11   -0.16    2.04
   0  -5  11    1.08    1.79
   0  -5  11    3.55    1.46
   0  -5  11    1.67    1.86
   0  -5  11    0.33    2.38
   0  -5  11    0.83    1.49
   2   4 -11   44.67    3.77
   2   4 -11   48.36    3.56
   2   4 -11   44.85    3.84
   2   4 -11   49.21    3.36
   2   4 -11   55.34    3.73
   2   4 -11   51.47    3.23
  -2  -4  11   45.85    2.72
  -2  -4  11   53.29    3.69
  -2  -4  11   62.31    4.47
  -2  -4  11   49.41    2.43
  -2  -4  11   49.90    2.94
  -2  -4  11   47.92    3.11
  -2  -4  11   45.14    3.49
   1   4 -11    3.19    1.72
   1   4 -11    4.82    1.77
   1   4 -11    1.29    1.87
   1   4 -11    2.24    1.74
   1   4 -11    3.81    1.06
   1   4 -11    0.83    1.62
   1   4 -11    4.28    1.84
  -1  -4  11    2.80    1.70
  -1  -4  11    4.85    1.14
  -1  -4  11    1.56    1.57
  -1  -4  11    2.13    1.24
  -1  -4  11    4.54    1.37
  -1  -4  11    5.72    1.68
  -1  -4  11    3.65    1.45
   0   4 -11    8.90    1.72
   0   4 -11    6.77    1.31
   0   4 -11    7.51    1.49
   0   4 -11    5.30    1.64
   0   4 -11    9.29    2.05
   0   4 -11    5.37    1.91
   0   4 -11    5.31    1.67
   0  -4  11    8.26    1.13
   0  -4  11    6.29    1.40
   0  -4  11    5.24    1.71
   0  -4  11    6.61    1.97
   0  -4  11    9.13    1.63
   0  -4  11    7.50    1.54
   0  -4  11    4.39    1.30
  -1   4 -11    1.76    1.73
  -1   4 -11    4.17    1.55
  -1   4 -11   -0.64    1.58
  -1   4 -11   -1.78    1.72
  -1   4 -11   -0.69    1.71
  -1   4 -11    1.58    1.32
   1  -4  11   -0.67    1.28
   1  -4  11    2.55    1.75
   1  -4  11    2.24    1.50
   1  -4  11    1.58    1.58
   1  -4  11    3.95    1.12
   1  -4  11    0.82    1.29
   1  -4  11    1.30    1.72
  -2   4 -11    2.24    1.84
  -2   4 -11    4.21    2.17
  -2   4 -11    3.12    1.52
  -2   4 -11    3.34    1.39
  -2   4 -11    3.94    1.50
  -2   4 -11    3.07    1.26
  -2   4 -11    2.38    2.18
  -2   4 -11    5.28    1.70
   2  -4  11    4.88    1.44
   2  -4  11    5.09    1.86
   2  -4  11    1.60    1.32
   2  -4  11    3.85    1.17
   2  -4  11    4.41    1.47
   2  -4  11    3.57    1.59
   2  -4  11    3.48    1.77
   2  -4  11    4.47    1.99
  -3   4 -11   12.10    1.82
  -3   4 -11    8.12    2.46
  -3   4 -11   11.97    1.66
  -3   4 -11   12.55    2.44
  -3   4 -11   11.40    2.36
  -3   4 -11    6.88    1.66
  -3   4 -11    8.57    1.64
  -3   4 -11    9.27    1.48
   3  -4  11   11.97    1.81
   3  -4  11   10.54    2.31
   3  -4  11   10.03    1.45
   3  -4  11   13.04    2.11
   3  -4  11    8.57    1.78
   3  -4  11   12.01    2.00
   3  -4  11   10.23    1.39
   3  -4  11   10.58    1.95
   3   3 -11    3.19    1.93
   3   3 -11    2.40    1.57
   3   3 -11    4.28    1.90
   3   3 -11    5.93    2.16
   3   3 -11    3.33    1.81
   3   3 -11    5.06    1.92
  -3  -3  11    1.99    1.45
  -3  -3  11    4.08    1.33
  -3  -3  11    4.40    1.55
  -3  -3  11    3.54    1.19
  -3  -3  11    4.52    1.46
  -3  -3  11    6.14    1.77
  -3  -3  11    4.98    1.43
   2   3 -11   42.25    3.17
   2   3 -11   40.85    3.04
   2   3 -11   43.37    2.98
   2   3 -11   43.16    2.95
   2   3 -11   38.98    2.94
   2   3 -11   47.18    3.11
  -2  -3  11   40.30    1.94
  -2  -3  11   39.28    2.33
  -2  -3  11   43.34    2.52
  -2  -3  11   40.63    2.75
  -2  -3  11   41.08    2.56
  -2  -3  11   47.02    2.61
   1   3 -11   20.18    1.92
   1   3 -11   24.04    1.62
   1   3 -11   21.57    1.85
   1   3 -11   24.06    1.83
   1   3 -11   18.06    1.75
   1   3 -11   19.33    1.78
   1   3 -11   22.22    1.61
  -1  -3  11   22.19    1.58
  -1  -3  11   21.87    1.76
  -1  -3  11   22.51    1.64
  -1  -3  11   20.07    2.05
  -1  -3  11   22.81    1.43
  -1  -3  11   18.23    1.48
   0   3 -11   53.25    3.06
   0   3 -11   57.03    2.58
   0   3 -11   58.71    2.87
   0   3 -11   52.14    2.96
   0   3 -11   59.21    2.66
   0   3 -11   50.90    2.74
   0   3 -11   54.32    2.20
   0  -3  11   55.72    2.43
   0  -3  11   52.05    2.25
   0  -3  11   56.08    2.71
   0  -3  11   54.98    2.19
   0  -3  11   55.91    2.92
   0  -3  11   54.31    2.97
  -1   3 -11   16.52    1.55
  -1   3 -11   16.15    1.51
  -1   3 -11   10.36    2.36
  -1   3 -11   17.65    1.39
  -1   3 -11   15.48    1.65
  -1   3 -11   18.41    1.45
  -1   3 -11   12.59    1.48
   1  -3  11   14.49    1.55
   1  -3  11   14.20    1.56
   1  -3  11   18.16    1.47
   1  -3  11   14.74    1.28
   1  -3  11   16.54    1.32
   1  -3  11   18.07    1.47
  -2   3 -11    0.56    1.22
  -2   3 -11    1.94    1.73
  -2   3 -11    0.09    1.21
  -2   3 -11   -1.24    1.27
  -2   3 -11    0.47    1.14
  -2   3 -11   -0.43    1.36
  -2   3 -11   -2.19    1.54
  -2   3 -11   -0.12    1.23
   2  -3  11   -0.78    1.43
   2  -3  11    0.53    1.04
   2  -3  11    0.49    1.18
   2  -3  11    0.06    0.88
   2  -3  11   -0.54    1.27
   2  -3  11   -1.19    1.51
   2  -3  11    2.82    1.36
  -3   3 -11    4.37    1.90
  -3   3 -11    5.98    1.36
  -3   3 -11    5.04    1.31
  -3   3 -11    5.57    1.13
  -3   3 -11    4.97    1.78
  -3   3 -11    4.31    1.31
  -3   3 -11    5.02    1.88
  -3   3 -11    5.06    1.52
   3  -3  11    6.57    1.42
   3  -3  11    5.26    1.06
   3  -3  11    5.63    1.48
   3  -3  11    4.70    1.49
   3  -3  11    7.59    1.43
   3  -3  11    5.39    1.11
   3  -3  11    6.98    1.97
   3  -3  11    7.57    1.63
  -4   3 -11    2.05    1.38
  -4   3 -11    0.34    1.27
  -4   3 -11   -0.28    2.10
  -4   3 -11    0.10    1.73
  -4   3 -11    2.77    1.76
  -4   3 -11    1.34    2.22
  -4   3 -11   -0.02    1.20
  -4   3 -11    0.56    1.27
   4  -3  11    1.84    2.12
   4  -3  11    1.78    1.21
   4  -3  11    1.32    1.60
   4  -3  11    0.99    1.74
   4  -3  11    0.54    1.32
   4  -3  11    1.15    1.07
   4  -3  11    1.14    1.50
  -5   3 -11    2.63    1.65
  -5   3 -11    2.71    1.55
  -5   3 -11    1.61    1.48
  -5   3 -11    1.67    2.73
  -5   3 -11   -2.27    2.39
  -5   3 -11    4.05    2.24
  -5   3 -11    3.71    1.85
  -5   3 -11   -0.45    2.64
   5  -3  11    6.06    2.51
   5  -3  11    3.43    1.11
   5  -3  11    3.85    1.76
   5  -3  11    4.47    1.47
   4   2 -11   60.58    4.07
   4   2 -11   60.58    3.97
   4   2 -11   55.54    3.70
   4   2 -11   57.09    3.51
  -4  -2  11   53.24    3.38
  -4  -2  11   69.49    2.99
  -4  -2  11   60.95    2.52
  -4  -2  11   53.39    3.26
  -4  -2  11   65.80    3.03
   3   2 -11    1.30    1.66
   3   2 -11    1.30    1.56
   3   2 -11    0.12    1.50
   3   2 -11    2.99    1.84
   3   2 -11    1.76    1.53
   3   2 -11    3.92    1.79
  -3  -2  11    1.99    1.18
  -3  -2  11    0.47    1.19
  -3  -2  11    1.83    0.95
  -3  -2  11    1.51    1.19
  -3  -2  11    1.30    1.31
  -3  -2  11    1.57    1.40
  -3  -2  11    1.70    1.44
   2   2 -11    1.74    1.34
   2   2 -11    0.22    1.44
   2   2 -11    0.66    0.70
   2   2 -11    1.54    0.79
   2   2 -11    2.02    1.46
   2   2 -11    2.12    1.43
   2   2 -11   -0.85    1.56
   2   2 -11    1.29    1.43
  -2  -2  11    2.07    1.03
  -2  -2  11    2.29    1.21
  -2  -2  11    0.15    0.96
  -2  -2  11   -0.25    1.28
  -2  -2  11    1.30    1.22
  -2  -2  11    1.27    1.15
  -2  -2  11    1.41    0.82
   1   2 -11    9.79    1.46
   1   2 -11   11.05    1.51
   1   2 -11   10.40    1.31
   1   2 -11    8.39    1.33
   1   2 -11   10.62    0.99
   1   2 -11   11.73    1.47
   1   2 -11   11.26    1.43
  -1  -2  11   10.06    1.11
  -1  -2  11   10.83    1.18
  -1  -2  11   12.54    1.34
  -1  -2  11   10.39    1.10
  -1  -2  11   10.62    0.86
  -1  -2  11   14.14    1.46
   0   2 -11   12.37    1.32
   0   2 -11   14.41    1.14
   0   2 -11   13.14    1.30
   0   2 -11   14.13    1.36
   0   2 -11   16.01    1.38
   0   2 -11   12.90    1.43
   0   2 -11   14.33    1.47
   0  -2  11   11.02    1.05
   0  -2  11   12.39    0.85
   0  -2  11   15.20    1.46
   0  -2  11   13.35    1.18
   0  -2  11   15.07    1.43
   0  -2  11   15.29    1.45
   0  -2  11   12.55    1.21
  -1   2 -11    0.16    1.02
  -1   2 -11    0.18    1.20
  -1   2 -11    0.85    1.03
  -1   2 -11    5.24    1.97
  -1   2 -11    0.73    1.25
  -1   2 -11    0.13    1.25
  -1   2 -11    1.14    1.25
   1  -2  11    0.97    1.03
   1  -2  11    0.50    1.03
   1  -2  11    0.82    0.93
   1  -2  11    0.77    0.65
   1  -2  11   -0.23    1.10
   1  -2  11    1.23    0.90
   1  -2  11    2.42    1.20
  -2   2 -11    0.61    1.33
  -2   2 -11    0.40    1.05
  -2   2 -11   -0.44    0.71
  -2   2 -11   -0.42    1.00
  -2   2 -11    1.13    1.16
  -2   2 -11    0.52    1.24
  -2   2 -11    0.69    1.14
  -2   2 -11   -0.30    1.00
   2  -2  11    0.19    0.93
   2  -2  11   -0.60    1.01
   2  -2  11   -1.03    1.02
   2  -2  11    0.19    1.28
   2  -2  11    0.85    0.88
   2  -2  11    0.76    1.03
   2  -2  11   -0.86    0.63
  -3   2 -11    0.76    1.38
  -3   2 -11   -0.04    1.26
  -3   2 -11   -1.09    1.05
  -3   2 -11    0.77    1.16
  -3   2 -11    0.12    0.79
  -3   2 -11    0.21    1.46
  -3   2 -11    0.05    1.11
  -3   2 -11    1.07    1.40
   3  -2  11   -0.33    1.13
   3  -2  11   -0.33    1.35
   3  -2  11   -0.25    0.79
   3  -2  11    0.96    1.27
   3  -2  11    0.72    0.88
   3  -2  11    0.42    1.09
   3  -2  11   -0.75    1.21
  -4   2 -11   56.61    2.07
  -4   2 -11   54.14    2.97
  -4   2 -11   47.10    3.06
  -4   2 -11   52.98    2.38
  -4   2 -11   57.30    3.22
  -4   2 -11   53.95    2.26
  -4   2 -11   51.48    3.02
   4  -2  11   57.22    2.78
   4  -2  11   54.34    2.60
   4  -2  11   53.45    2.79
   4  -2  11   52.12    2.04
   4  -2  11   44.31    2.69
   4  -2  11   57.17    2.61
   4  -2  11   53.03    3.19
  -5   2 -11  176.46    5.60
  -5   2 -11  185.87    5.13
  -5   2 -11  178.77    4.55
  -5   2 -11  171.51    5.20
  -5   2 -11  182.92    4.51
  -5   2 -11  162.52    4.18
  -5   2 -11  176.54    4.75
  -5   2 -11  178.47    5.39
   5  -2  11  169.05    5.32
   5  -2  11  165.59    4.61
   5  -2  11  170.42    4.33
   5  -2  11  171.67    4.65
   5  -2  11  174.59    4.05
   5  -2  11  181.24    4.88
   5  -2  11  177.30    4.89
  -6   2 -11   31.59    2.56
  -6   2 -11   31.83    2.89
  -6   2 -11   25.68    1.99
  -6   2 -11   26.81    2.51
   6  -2  11   30.39    2.53
   6  -2  11   28.81    4.07
   4   1 -11    0.25    1.66
   4   1 -11    1.42    2.00
   4   1 -11    0.86    2.13
   4   1 -11    4.42    2.23
   4   1 -11   -0.90    1.55
   4   1 -11   -0.67    1.58
  -4  -1  11    0.62    1.36
  -4  -1  11    1.16    1.66
  -4  -1  11    1.57    1.17
  -4  -1  11   -0.07    1.05
  -4  -1  11    0.30    1.53
  -4  -1  11    2.24    1.31
  -4  -1  11   -0.57    1.41
   3   1 -11    5.89    1.46
   3   1 -11    1.74    1.42
   3   1 -11    1.18    1.62
   3   1 -11    3.13    1.71
   3   1 -11    2.15    1.39
   3   1 -11    2.49    0.74
   3   1 -11    2.58    1.67
  -3  -1  11    3.28    1.27
  -3  -1  11    1.97    0.94
  -3  -1  11    3.25    1.30
  -3  -1  11    3.48    1.36
  -3  -1  11    2.08    1.05
  -3  -1  11    3.66    1.18
  -3  -1  11    3.45    0.87
   2   1 -11   64.27    2.93
   2   1 -11   62.98    2.67
   2   1 -11   64.54    1.93
   2   1 -11   61.64    2.92
   2   1 -11   65.53    3.07
   2   1 -11   69.60    2.85
   2   1 -11   59.91    1.95
   2   1 -11   62.82    2.60
  -2  -1  11   65.30    2.36
  -2  -1  11   62.19    2.49
  -2  -1  11   65.45    2.58
  -2  -1  11   63.59    2.31
  -2  -1  11   57.61    2.45
  -2  -1  11   66.53    2.07
  -2  -1  11   60.67    1.85
   1   1 -11    0.52    1.19
   1   1 -11   -0.41    0.77
   1   1 -11   -0.85    1.04
   1   1 -11    0.16    0.81
   1   1 -11    0.25    1.10
   1   1 -11    0.13    1.11
   1   1 -11    0.40    1.13
   1   1 -11    0.76    1.13
  -1  -1  11   -0.13    0.93
  -1  -1  11    0.60    0.93
  -1  -1  11   -0.86    0.82
  -1  -1  11    0.39    0.89
  -1  -1  11    0.22    0.55
  -1  -1  11    0.34    0.66
  -1  -1  11   -0.20    0.89
   0   1 -11   -1.23    1.12
   0   1 -11    1.79    0.84
   0   1 -11    0.40    1.02
   0   1 -11    1.67    1.08
   0   1 -11   -0.25    0.99
   0   1 -11    0.60    1.00
   0   1 -11    0.96    0.96
   0  -1  11   -0.10    0.85
   0  -1  11    0.25    0.76
   0  -1  11    1.56    0.93
   0  -1  11    0.33    0.49
   0  -1  11    1.09    1.01
  -1   1 -11    0.49    0.91
  -1   1 -11   -1.61    0.90
  -1   1 -11   -0.14    0.96
  -1   1 -11   -1.11    1.05
  -1   1 -11   -0.89    1.01
  -1   1 -11   -0.55    1.04
  -1   1 -11    1.05    0.92
   1  -1  11    1.44    1.02
   1  -1  11   -1.03    0.99
   1  -1  11   -0.70    0.81
   1  -1  11   -0.34    0.80
   1  -1  11   -0.35    0.91
   1  -1  11    0.13    0.86
   1  -1  11    0.13    0.49
  -2   1 -11   17.12    1.19
  -2   1 -11   18.77    1.56
  -2   1 -11   18.21    1.19
  -2   1 -11   16.31    2.23
  -2   1 -11   17.37    1.30
  -2   1 -11   20.49    1.48
   2  -1  11   16.39    1.13
   2  -1  11   14.07    1.16
   2  -1  11   19.29    1.25
   2  -1  11   17.91    1.25
   2  -1  11   18.33    1.30
   2  -1  11   18.94    1.50
   2  -1  11   19.19    1.03
  -3   1 -11    2.63    1.24
  -3   1 -11    1.69    1.21
  -3   1 -11    1.21    1.19
  -3   1 -11    1.92    0.97
  -3   1 -11    1.96    1.15
  -3   1 -11    2.44    0.96
  -3   1 -11    2.06    1.09
  -3   1 -11    2.19    0.62
   3  -1  11    1.66    1.20
   3  -1  11    1.50    1.04
   3  -1  11    2.23    1.05
   3  -1  11    2.30    0.98
   3  -1  11    1.61    0.95
   3  -1  11    0.98    0.63
   3  -1  11    0.85    0.96
  -4   1 -11    6.30    0.84
  -4   1 -11    4.96    1.48
  -4   1 -11    4.24    1.17
  -4   1 -11    6.16    0.98
  -4   1 -11    5.16    0.89
  -4   1 -11    8.70    1.56
  -4   1 -11    7.55    1.11
  -4   1 -11    7.41    1.45
   4  -1  11    7.50    0.95
   4  -1  11    7.18    1.22
   4  -1  11    7.46    1.17
   4  -1  11    7.72    0.86
   4  -1  11    6.81    1.00
   4  -1  11    5.34    1.45
   4  -1  11    7.24    1.27
  -5   1 -11   90.47    2.63
  -5   1 -11   99.39    3.77
  -5   1 -11  100.00    3.75
  -5   1 -11   95.83    3.05
  -5   1 -11  100.60    3.54
  -5   1 -11   99.70    3.01
  -5   1 -11   98.41    2.67
  -5   1 -11   99.39    3.74
   5  -1  11   93.64    3.39
   5  -1  11   98.26    3.02
   5  -1  11   86.08    3.61
   5  -1  11   95.70    3.04
   5  -1  11   95.38    2.68
   5  -1  11   97.10    2.60
  -6   1 -11    8.71    1.30
  -6   1 -11    9.98    2.08
  -6   1 -11    7.74    1.56
  -6   1 -11    8.01    1.45
  -6   1 -11    6.53    2.09
  -6   1 -11    8.21    2.14
  -6   1 -11    9.60    1.86
  -6   1 -11    8.26    1.01
   6  -1  11    7.75    1.70
   6  -1  11    7.19    1.36
   6  -1  11    7.49    1.26
   6  -1  11   10.06    1.66
   6  -1  11    9.92    0.96
   6  -1  11   11.87    2.08
   6  -1  11    5.47    1.43
   4   0 -11    1.34    2.23
   4   0 -11   -0.58    1.55
   4   0 -11   -1.31    2.17
   4   0 -11   -0.22    1.44
   4   0 -11   -1.35    0.93
   4   0 -11    1.25    1.96
   4   0 -11   -1.09    1.70
   4   0 -11    0.53    0.87
  -4   0  11    1.48    1.26
  -4   0  11    0.79    1.31
  -4   0  11    0.36    1.25
  -4   0  11   -0.05    0.97
  -4   0  11    2.18    1.51
  -4   0  11    0.97    1.25
  -4   0  11    2.59    1.67
   3   0 -11    0.35    1.27
   3   0 -11    0.75    1.40
   3   0 -11    1.69    1.30
   3   0 -11    1.35    0.85
   3   0 -11    5.48    1.71
   3   0 -11    1.88    0.91
   3   0 -11    0.17    1.58
   3   0 -11    3.48    1.72
  -3   0  11    5.02    1.89
  -3   0  11    2.09    0.76
  -3   0  11    0.54    1.04
  -3   0  11    1.39    0.97
  -3   0  11    0.43    1.88
  -3   0  11    1.32    1.08
  -3   0  11    2.52    1.31
   2   0 -11   11.79    1.32
   2   0 -11   12.31    1.24
   2   0 -11   12.41    1.48
   2   0 -11   12.12    0.94
   2   0 -11   11.31    1.49
   2   0 -11   11.64    1.46
   2   0 -11   11.09    1.29
   2   0 -11   12.56    1.01
  -2   0  11   11.85    1.06
  -2   0  11   12.09    1.01
  -2   0  11    8.41    1.70
  -2   0  11   11.15    1.12
  -2   0  11   10.14    1.09
  -2   0  11   12.56    0.90
  -2   0  11   14.85    1.31
   1   0 -11    0.28    1.01
   1   0 -11    0.33    0.82
   1   0 -11    1.67    1.19
   1   0 -11    0.68    1.08
   1   0 -11    1.02    1.10
   1   0 -11    0.57    0.80
   1   0 -11    0.87    0.96
   1   0 -11    1.28    1.10
  -1   0  11    0.86    0.58
  -1   0  11    0.68    0.44
  -1   0  11    0.80    0.75
  -1   0  11    0.84    0.91
  -1   0  11    0.65    0.80
  -1   0  11    0.94    0.83
   0   0 -11   30.21    2.01
   0   0 -11   31.56    1.81
   0   0 -11   31.58    1.53
   0   0 -11   30.00    1.85
   0   0 -11   26.28    1.75
   0   0 -11   32.01    1.97
   0   0 -11   29.30    1.64
   0   0 -11   32.27    1.81
   0   0  11   28.37    1.56
   0   0  11   29.22    1.00
   0   0  11   30.76    1.77
   0   0  11   29.76    0.93
   0   0  11   31.96    1.57
   0   0  11   29.78    1.71
  -1   0 -11   65.67    2.40
  -1   0 -11   68.57    2.23
  -1   0 -11   66.34    2.23
  -1   0 -11   68.20    2.48
  -1   0 -11   67.53    2.33
  -1   0 -11   68.30    2.22
  -1   0 -11   68.22    2.21
   1   0  11   69.33    2.19
   1   0  11   65.49    2.12
   1   0  11   65.98    2.32
   1   0  11   66.55    2.20
   1   0  11   68.09    2.15
  -2   0 -11   53.24    2.23
  -2   0 -11   55.46    1.95
  -2   0 -11   52.65    2.15
  -2   0 -11   56.92    2.25
  -2   0 -11   54.11    1.97
  -2   0 -11   55.14    1.93
   2   0  11   54.28    2.16
   2   0  11   52.30    1.90
   2   0  11   50.49    1.96
   2   0  11   54.85    1.95
   2   0  11   55.89    2.05
   2   0  11   56.00    2.12
  -3   0 -11   36.08    1.60
  -3   0 -11   34.95    1.71
  -3   0 -11   31.78    1.99
  -3   0 -11   30.78    1.81
  -3   0 -11   33.41    1.92
  -3   0 -11   32.11    1.05
  -3   0 -11   31.14    1.90
  -3   0 -11   32.79    2.08
   3   0  11   31.19    1.89
   3   0  11   28.62    1.93
   3   0  11   35.24    1.77
   3   0  11   32.52    1.07
   3   0  11   32.59    1.64
   3   0  11   32.20    1.89
   3   0  11   32.48    1.64
  -4   0 -11   42.02    1.69
  -4   0 -11   42.83    1.37
  -4   0 -11   39.47    2.34
  -4   0 -11   38.83    2.18
  -4   0 -11   44.59    1.96
  -4   0 -11   42.54    2.45
  -4   0 -11   41.11    1.83
  -4   0 -11   40.64    2.14
   4   0  11   39.45    1.38
   4   0  11   40.79    1.76
   4   0  11   41.68    1.83
   4   0  11   44.51    2.29
   4   0  11   43.03    2.11
   4   0  11   42.11    2.37
   4   0  11   44.07    1.90
  -5   0 -11    1.06    1.26
  -5   0 -11   -0.65    1.20
  -5   0 -11    0.98    1.51
  -5   0 -11    0.69    0.80
  -5   0 -11    1.23    0.92
  -5   0 -11    1.27    1.35
  -5   0 -11    0.31    1.08
  -5   0 -11    0.39    0.74
   5   0  11   -0.51    0.91
   5   0  11   -0.46    1.28
   5   0  11    1.20    0.95
   5   0  11    1.68    1.11
   5   0  11   -0.17    0.72
   5   0  11    1.96    0.88
  -6   0 -11    0.09    1.45
  -6   0 -11    0.63    1.77
  -6   0 -11    0.33    1.73
  -6   0 -11   -0.85    1.51
  -6   0 -11    1.78    1.02
  -6   0 -11   -1.37    1.09
  -6   0 -11   -0.04    1.34
  -6   0 -11    1.59    0.88
   6   0  11   -1.01    1.05
   6   0  11    0.90    0.91
   6   0  11    1.27    1.52
   6   0  11    0.51    1.32
   6   0  11    0.64    1.03
   6   0  11    1.92    0.91
  -7   0 -11   -0.56    2.16
  -7   0 -11   -1.89    1.32
   7   0  11   -0.55    1.23
   7   0  11    1.08    1.17
   7   0  11    2.82    1.61
   4  -1 -11   18.41    1.78
   4  -1 -11   21.12    1.46
   4  -1 -11   19.11    1.27
   4  -1 -11   16.08    1.76
   4  -1 -11   18.70    2.33
   4  -1 -11   17.23    1.84
   4  -1 -11   19.15    2.45
   4  -1 -11   22.51    2.41
  -4   1  11   18.51    1.76
  -4   1  11   17.93    1.70
  -4   1  11   19.16    1.50
  -4   1  11   17.84    2.02
   3  -1 -11   14.04    1.93
   3  -1 -11   15.66    1.25
   3  -1 -11   16.02    1.84
   3  -1 -11   12.67    1.37
   3  -1 -11   13.64    1.09
   3  -1 -11   12.11    1.84
   3  -1 -11   16.64    1.51
   3  -1 -11   13.23    1.72
  -3   1  11   14.33    1.06
  -3   1  11   10.88    1.53
  -3   1  11   14.56    1.25
  -3   1  11   14.73    1.55
  -3   1  11   16.02    1.56
  -3   1  11   14.44    1.26
  -3   1  11   14.10    0.91
   2  -1 -11    3.64    1.30
   2  -1 -11    2.86    1.13
   2  -1 -11    3.40    1.31
   2  -1 -11    2.69    0.98
   2  -1 -11    2.72    1.48
   2  -1 -11    4.81    1.02
   2  -1 -11    3.63    1.40
   2  -1 -11    2.81    0.88
  -2   1  11    2.84    0.94
  -2   1  11    2.78    0.86
  -2   1  11    3.36    0.67
  -2   1  11    2.74    1.26
  -2   1  11    2.81    0.55
  -2   1  11    2.91    1.05
  -2   1  11    2.78    1.11
   1  -1 -11   29.56    1.64
   1  -1 -11   33.92    2.10
   1  -1 -11   30.36    1.59
   1  -1 -11   28.67    1.97
   1  -1 -11   30.96    2.27
   1  -1 -11   31.14    2.04
   1  -1 -11   32.14    1.84
   1  -1 -11   31.47    1.82
  -1   1  11   26.78    1.58
  -1   1  11   29.14    0.88
  -1   1  11   29.75    1.92
  -1   1  11   30.32    1.80
  -1   1  11   29.06    1.73
  -1   1  11   29.27    1.54
   0  -1 -11   20.74    1.63
   0  -1 -11   20.73    1.70
   0  -1 -11   20.89    1.50
   0  -1 -11   15.19    1.15
   0  -1 -11   17.89    1.43
   0  -1 -11   17.25    1.28
   0  -1 -11   21.11    1.64
   0  -1 -11   17.88    1.35
   0   1  11   16.47    1.35
   0   1  11   18.95    1.31
   0   1  11   17.96    1.58
   0   1  11   19.75    1.62
   0   1  11   14.37    1.08
  -1  -1 -11   46.06    1.89
  -1  -1 -11   50.87    1.89
  -1  -1 -11   48.57    1.87
  -1  -1 -11   50.05    1.97
  -1  -1 -11   50.61    2.04
   1   1  11   51.80    1.86
   1   1  11   48.95    1.92
   1   1  11   49.47    1.84
   1   1  11   48.76    1.94
   1   1  11   48.56    1.72
  -2  -1 -11   26.24    1.74
  -2  -1 -11   25.87    1.63
  -2  -1 -11   26.15    1.70
  -2  -1 -11   25.42    1.72
  -2  -1 -11   26.95    1.50
  -2  -1 -11   26.08    1.52
  -2  -1 -11   24.20    1.51
   2   1  11   25.83    1.63
   2   1  11   26.16    1.57
   2   1  11   23.50    1.70
   2   1  11   26.99    1.57
   2   1  11   26.16    1.47
  -3  -1 -11    3.70    0.94
  -3  -1 -11    2.94    1.38
  -3  -1 -11    2.48    0.78
  -3  -1 -11    2.98    0.86
  -3  -1 -11    0.94    1.01
  -3  -1 -11    4.06    0.96
  -3  -1 -11    1.65    0.86
   3   1  11    2.42    0.75
   3   1  11    3.16    0.86
   3   1  11    5.27    1.45
   3   1  11    2.93    0.85
   3   1  11    0.78    0.85
  -4  -1 -11   29.33    1.90
  -4  -1 -11   34.26    1.76
  -4  -1 -11   28.70    1.61
  -4  -1 -11   35.16    2.14
  -4  -1 -11   31.91    1.82
  -4  -1 -11   29.71    1.53
  -4  -1 -11   34.49    2.05
   4   1  11   33.53    1.56
   4   1  11   34.77    1.78
   4   1  11   30.94    1.88
   4   1  11   34.15    2.04
   4   1  11   34.61    1.70
  -5  -1 -11    0.98    0.78
  -5  -1 -11    3.55    1.12
  -5  -1 -11    1.93    0.86
  -5  -1 -11    1.49    1.10
  -5  -1 -11    2.07    0.62
  -5  -1 -11    1.27    1.34
  -5  -1 -11    1.94    1.14
  -5  -1 -11    1.83    1.10
   5   1  11    2.41    1.01
   5   1  11    2.02    1.50
   5   1  11    2.11    0.80
   5   1  11    2.33    1.11
   5   1  11    2.72    0.82
   5   1  11    2.40    0.59
  -6  -1 -11    5.31    0.90
  -6  -1 -11    6.34    1.35
  -6  -1 -11    5.22    1.69
  -6  -1 -11    6.18    1.42
  -6  -1 -11    4.47    0.79
  -6  -1 -11    6.64    1.57
  -6  -1 -11    3.53    1.31
  -6  -1 -11    3.25    1.08
   6   1  11    5.36    1.30
   6   1  11    7.08    1.20
   6   1  11    5.54    0.95
   6   1  11    4.51    0.98
   6   1  11    5.54    0.85
  -7  -1 -11    0.82    2.08
  -7  -1 -11    1.17    1.18
  -7  -1 -11   -2.26    1.87
  -7  -1 -11    1.40    1.96
  -7  -1 -11   -2.34    2.60
  -7  -1 -11   -0.77    1.28
   7   1  11    0.47    1.32
   7   1  11    1.12    1.03
   7   1  11    1.29    1.37
   7   1  11    0.23    1.01
   4  -2 -11    4.84    2.36
   4  -2 -11    7.76    1.88
   4  -2 -11    6.22    1.61
   4  -2 -11    7.29    1.91
   4  -2 -11    8.38    2.50
   4  -2 -11   10.75    1.71
   4  -2 -11    4.93    2.24
  -4   2  11    7.14    1.75
  -4   2  11    5.27    1.30
  -4   2  11    9.25    1.67
  -4   2  11    9.96    1.30
  -4   2  11    9.78    1.86
  -4   2  11    8.34    1.32
   3  -2 -11    2.63    1.56
   3  -2 -11    4.71    1.41
   3  -2 -11    2.48    1.36
   3  -2 -11    1.27    1.90
   3  -2 -11    1.37    1.48
   3  -2 -11    1.83    1.71
  -3   2  11    3.14    1.03
  -3   2  11    0.77    1.55
  -3   2  11    4.93    1.19
  -3   2  11    3.05    0.86
  -3   2  11    4.49    1.44
   2  -2 -11  113.80    3.25
   2  -2 -11  114.29    4.05
   2  -2 -11  115.39    3.49
   2  -2 -11  107.95    3.23
   2  -2 -11  119.55    3.69
   2  -2 -11  115.07    3.17
   2  -2 -11  104.34    3.43
  -2   2  11  110.98    3.25
  -2   2  11  111.78    2.58
  -2   2  11  120.26    3.08
  -2   2  11  111.71    3.03
  -2   2  11  113.83    2.52
  -2   2  11  111.69    3.39
  -2   2  11  111.42    3.42
   1  -2 -11    3.21    0.99
   1  -2 -11    4.66    1.21
   1  -2 -11    4.49    1.08
   1  -2 -11    3.48    1.08
   1  -2 -11    3.84    1.05
   1  -2 -11    3.78    1.00
  -1   2  11    3.98    1.08
  -1   2  11    3.84    0.83
  -1   2  11    4.56    1.05
  -1   2  11    3.37    0.81
  -1   2  11    3.70    0.89
   0  -2 -11    0.21    0.83
   0  -2 -11    0.81    0.93
   0  -2 -11    0.50    0.99
   0  -2 -11   -0.14    1.03
   0  -2 -11   -0.19    0.87
   0  -2 -11    0.52    0.89
   0   2  11    0.54    0.88
   0   2  11    0.61    0.93
   0   2  11   -0.94    0.72
   0   2  11    0.76    0.62
   0   2  11    0.24    0.72
  -1  -2 -11   -0.15    0.80
  -1  -2 -11   -0.55    0.82
  -1  -2 -11    0.81    0.96
  -1  -2 -11   -0.56    0.76
  -1  -2 -11    0.51    0.75
  -1  -2 -11    0.50    0.79
  -1  -2 -11    1.21    0.86
  -1  -2 -11    1.43    0.83
   1   2  11    0.07    0.72
   1   2  11    0.09    0.77
   1   2  11   -0.10    0.67
   1   2  11    0.15    0.67
   1   2  11   -0.79    0.86
  -2  -2 -11    3.54    0.90
  -2  -2 -11    2.84    0.93
  -2  -2 -11    3.68    0.82
  -2  -2 -11    2.76    0.89
  -2  -2 -11    3.22    0.85
  -2  -2 -11    2.66    0.79
  -2  -2 -11    0.93    0.77
   2   2  11    2.44    0.81
   2   2  11    3.00    0.81
   2   2  11    3.37    0.80
   2   2  11    2.92    0.87
   2   2  11    2.43    0.73
  -3  -2 -11   23.57    1.85
  -3  -2 -11   22.31    1.65
  -3  -2 -11   21.95    1.42
  -3  -2 -11   24.32    1.59
  -3  -2 -11   22.02    1.48
  -3  -2 -11   18.94    1.40
  -3  -2 -11   23.54    1.68
   3   2  11   21.36    1.42
   3   2  11   19.75    1.32
   3   2  11   21.68    1.50
   3   2  11   21.84    1.65
   3   2  11   20.75    1.46
  -4  -2 -11   -0.45    0.89
  -4  -2 -11   -0.40    1.08
  -4  -2 -11    0.06    0.74
  -4  -2 -11    0.31    0.79
  -4  -2 -11    0.91    0.86
  -4  -2 -11   -0.02    0.93
  -4  -2 -11    0.70    0.90
   4   2  11    0.81    0.79
   4   2  11    0.46    0.82
   4   2  11    0.98    0.90
   4   2  11   -0.50    0.67
   4   2  11    0.71    0.94
  -5  -2 -11   36.70    1.56
  -5  -2 -11   35.61    2.05
  -5  -2 -11   35.01    1.61
  -5  -2 -11   34.14    2.47
  -5  -2 -11   37.16    2.02
  -5  -2 -11   35.78    1.13
  -5  -2 -11   33.83    1.85
  -5  -2 -11   37.35    2.10
   5   2  11   36.17    1.73
   5   2  11   36.44    1.98
   5   2  11   37.23    1.85
   5   2  11   34.82    1.48
  -6  -2 -11    2.62    1.11
  -6  -2 -11    2.12    1.31
  -6  -2 -11    0.81    0.90
  -6  -2 -11    1.68    1.26
  -6  -2 -11    1.35    0.76
  -6  -2 -11    0.43    1.43
  -6  -2 -11    1.85    0.81
  -6  -2 -11    0.66    1.25
   6   2  11    0.93    0.96
   6   2  11    0.16    0.75
   6   2  11    3.34    0.92
  -7  -2 -11    6.48    2.02
  -7  -2 -11    8.34    0.92
  -7  -2 -11    9.33    1.29
  -7  -2 -11    6.15    1.74
  -7  -2 -11    9.92    1.26
  -7  -2 -11    8.14    1.83
  -7  -2 -11    9.25    1.70
   7   2  11    9.82    0.97
   7   2  11    8.20    0.81
   4  -3 -11    5.83    2.79
   4  -3 -11    5.08    1.68
   4  -3 -11    2.86    2.67
   4  -3 -11    4.27    2.36
   4  -3 -11    3.74    1.82
   4  -3 -11    5.18    2.14
   4  -3 -11    6.31    1.89
  -4   3  11    4.05    1.81
  -4   3  11    8.45    1.65
  -4   3  11    5.20    1.33
  -4   3  11    8.38    2.08
  -4   3  11    5.65    1.99
   3  -3 -11    0.00    1.40
   3  -3 -11   -1.60    1.50
   3  -3 -11   -0.45    1.97
   3  -3 -11    1.42    2.12
   3  -3 -11    0.38    1.50
   3  -3 -11   -2.32    1.70
   3  -3 -11   -1.17    1.44
  -3   3  11   -0.06    1.06
  -3   3  11   -0.04    1.56
  -3   3  11   -1.45    1.66
  -3   3  11    0.55    1.32
  -3   3  11   -0.56    1.30
  -3   3  11    1.45    0.85
   2  -3 -11   14.64    1.87
   2  -3 -11   17.77    1.87
   2  -3 -11   14.07    1.53
   2  -3 -11   13.16    1.40
   2  -3 -11   13.92    1.36
   2  -3 -11   10.88    1.67
   2  -3 -11   15.22    1.47
  -2   3  11   10.19    1.36
  -2   3  11   14.07    1.53
  -2   3  11   14.36    0.97
  -2   3  11   13.53    1.25
  -2   3  11   13.48    1.10
   1  -3 -11   22.57    2.00
   1  -3 -11   18.64    1.39
   1  -3 -11   20.78    1.36
   1  -3 -11   21.93    1.42
   1  -3 -11   22.70    1.70
   1  -3 -11   19.78    1.51
   1  -3 -11   23.85    1.97
  -1   3  11   19.61    1.44
  -1   3  11   23.33    1.53
  -1   3  11   19.55    1.71
  -1   3  11   24.10    1.60
  -1   3  11   22.09    1.52
   0  -3 -11    2.49    0.95
   0  -3 -11    2.41    1.09
   0  -3 -11    1.50    0.90
   0  -3 -11    1.65    0.87
   0  -3 -11    2.20    0.88
   0  -3 -11    2.25    1.02
   0  -3 -11    1.27    1.17
   0   3  11    1.75    0.87
   0   3  11    2.13    0.74
   0   3  11    3.44    1.07
   0   3  11    2.03    1.02
   0   3  11    2.37    0.75
  -1  -3 -11   54.26    2.04
  -1  -3 -11   51.84    2.12
  -1  -3 -11   53.76    1.95
  -1  -3 -11   54.82    1.91
  -1  -3 -11   52.55    2.07
  -1  -3 -11   51.99    2.11
  -1  -3 -11   51.92    2.27
  -1  -3 -11   52.23    2.08
   1   3  11   55.67    2.00
   1   3  11   52.76    1.76
   1   3  11   50.96    1.91
   1   3  11   51.25    1.87
   1   3  11   51.87    2.17
  -2  -3 -11   52.78    2.13
  -2  -3 -11   52.68    2.09
  -2  -3 -11   54.10    1.96
  -2  -3 -11   54.83    1.95
  -2  -3 -11   55.93    1.97
  -2  -3 -11   56.55    1.92
  -2  -3 -11   53.33    2.18
  -2  -3 -11   51.41    2.01
   2   3  11   54.04    1.75
   2   3  11   54.30    2.17
   2   3  11   55.62    1.92
   2   3  11   54.84    2.01
   2   3  11   53.56    1.83
  -3  -3 -11   57.75    2.02
  -3  -3 -11   59.13    2.11
  -3  -3 -11   58.01    1.96
  -3  -3 -11   57.25    2.09
  -3  -3 -11   60.92    2.01
  -3  -3 -11   60.11    1.88
  -3  -3 -11   59.69    2.34
   3   3  11   57.67    1.82
   3   3  11   56.71    1.84
   3   3  11   60.58    2.25
   3   3  11   57.62    1.90
   3   3  11   61.93    2.29
  -4  -3 -11    5.15    0.91
  -4  -3 -11    6.44    0.99
  -4  -3 -11    5.28    0.98
  -4  -3 -11    7.95    1.21
  -4  -3 -11    7.39    0.96
  -4  -3 -11    5.35    0.94
  -4  -3 -11    5.82    0.81
   4   3  11    8.11    1.21
   4   3  11    8.64    0.85
   4   3  11    8.00    1.15
   4   3  11    7.33    0.79
   4   3  11    7.51    0.77
  -5  -3 -11    0.46    0.89
  -5  -3 -11   -0.91    0.94
  -5  -3 -11    0.55    1.05
  -5  -3 -11   -0.16    0.77
  -5  -3 -11    2.20    1.00
  -5  -3 -11   -1.33    0.99
  -5  -3 -11    0.87    1.36
   5   3  11   -0.32    0.67
   5   3  11    0.76    0.62
   5   3  11    0.02    0.69
  -6  -3 -11   10.00    1.34
  -6  -3 -11   11.06    1.43
  -6  -3 -11   10.22    0.79
  -6  -3 -11    8.23    0.99
  -6  -3 -11   11.02    1.32
  -6  -3 -11    8.20    1.57
  -6  -3 -11    9.72    1.11
  -7  -3 -11   53.11    3.02
  -7  -3 -11   53.33    2.08
  -7  -3 -11   58.12    3.01
  -7  -3 -11   59.81    2.15
  -7  -3 -11   56.16    2.24
  -7  -3 -11   59.29    2.92
  -7  -3 -11   48.12    3.58
   3  -4 -11    6.00    1.75
   3  -4 -11    8.18    1.63
   3  -4 -11   10.93    2.06
   3  -4 -11    5.46    1.95
   3  -4 -11    8.98    2.39
   3  -4 -11    6.08    1.85
   3  -4 -11    6.74    2.50
  -3   4  11    7.10    1.20
  -3   4  11    9.11    1.53
  -3   4  11    6.75    1.62
  -3   4  11   11.39    1.88
  -3   4  11    6.71    2.23
  -3   4  11    7.66    0.97
  -3   4  11    6.60    2.01
   2  -4 -11   17.97    1.59
   2  -4 -11   19.21    1.98
   2  -4 -11   17.80    2.23
   2  -4 -11   16.71    1.63
   2  -4 -11   16.57    1.70
   2  -4 -11   16.14    1.65
   2  -4 -11   17.45    1.75
  -2   4  11   13.45    1.26
  -2   4  11   17.00    1.11
  -2   4  11   14.62    1.63
  -2   4  11   13.74    1.18
  -2   4  11   18.15    2.12
  -2   4  11   16.77    1.22
  -2   4  11   19.53    1.85
   1  -4 -11   -2.06    1.17
   1  -4 -11    0.84    1.41
   1  -4 -11    0.74    1.17
   1  -4 -11    2.08    1.23
   1  -4 -11   -1.08    1.55
   1  -4 -11   -0.04    1.24
   1  -4 -11    2.33    1.12
  -1   4  11   -0.42    1.15
  -1   4  11    1.88    1.31
  -1   4  11   -1.12    0.96
  -1   4  11    0.17    0.82
   0  -4 -11    0.78    1.13
   0  -4 -11    3.76    1.00
   0  -4 -11    1.18    1.25
   0  -4 -11    2.53    1.09
   0  -4 -11    1.82    1.04
   0  -4 -11    1.85    1.29
   0  -4 -11    1.97    0.99
   0   4  11    1.88    0.80
   0   4  11    1.16    1.19
   0   4  11    2.22    0.80
   0   4  11    1.79    0.88
   0   4  11    1.56    1.05
  -1  -4 -11   68.71    2.35
  -1  -4 -11   70.96    2.57
  -1  -4 -11   64.97    2.25
  -1  -4 -11   66.29    2.58
  -1  -4 -11   70.52    2.21
  -1  -4 -11   69.59    2.69
  -1  -4 -11   65.50    2.42
   1   4  11   64.65    2.10
   1   4  11   68.57    2.68
   1   4  11   67.13    1.99
   1   4  11   65.39    2.29
   1   4  11   66.23    2.20
  -2  -4 -11   93.84    2.55
  -2  -4 -11   92.06    2.69
  -2  -4 -11   94.20    2.59
  -2  -4 -11  100.04    3.23
  -2  -4 -11   93.60    2.87
  -2  -4 -11   91.29    2.92
  -2  -4 -11   98.86    2.82
   2   4  11   94.06    2.68
   2   4  11   89.19    2.45
   2   4  11   92.84    2.56
   2   4  11   92.64    2.38
   2   4  11   88.07    2.98
  -3  -4 -11   25.83    2.01
  -3  -4 -11   28.65    2.10
  -3  -4 -11   30.60    1.63
  -3  -4 -11   29.64    1.59
  -3  -4 -11   29.01    1.60
  -3  -4 -11   24.22    1.80
  -3  -4 -11   29.01    1.62
  -3  -4 -11   27.77    1.86
   3   4  11   29.48    1.32
   3   4  11   29.45    1.37
   3   4  11   29.32    1.90
   3   4  11   28.50    1.42
   3   4  11   31.26    2.14
  -4  -4 -11    7.32    1.00
  -4  -4 -11    5.69    1.21
  -4  -4 -11    5.78    1.31
  -4  -4 -11    6.41    1.00
  -4  -4 -11    6.87    0.99
  -4  -4 -11    4.80    1.03
  -4  -4 -11    5.58    0.89
  -4  -4 -11    5.78    0.86
   4   4  11    6.92    0.68
   4   4  11    3.03    1.24
   4   4  11    6.74    0.66
   4   4  11    7.29    0.68
   4   4  11    6.63    0.71
  -5  -4 -11  102.18    2.90
  -5  -4 -11  103.35    2.84
  -5  -4 -11  103.00    3.48
  -5  -4 -11  101.35    2.84
  -5  -4 -11  101.87    2.95
  -5  -4 -11  106.46    3.01
  -5  -4 -11  107.36    2.67
  -6  -4 -11    3.16    1.19
  -6  -4 -11    3.73    0.91
  -6  -4 -11    4.04    1.09
  -6  -4 -11    4.45    1.04
  -6  -4 -11    1.79    1.35
  -6  -4 -11    4.88    1.15
  -6  -4 -11    2.70    0.67
  -6  -4 -11    3.32    1.76
  -6  -4 -11    4.56    0.71
  -7  -4 -11   -1.50    1.56
  -7  -4 -11    0.58    2.39
  -7  -4 -11    0.16    1.41
  -7  -4 -11    1.62    1.04
  -7  -4 -11   -0.25    1.19
  -7  -4 -11    1.62    1.48
  -7  -4 -11   -0.67    1.06
  -7  -4 -11   -0.01    1.02
   2  -5 -11    5.97    1.63
   2  -5 -11   11.81    2.44
   2  -5 -11    6.88    1.77
   2  -5 -11    8.01    1.72
   2  -5 -11    7.95    1.90
   2  -5 -11    6.13    2.14
  -2   5  11    8.32    1.91
  -2   5  11   10.75    2.17
  -2   5  11    6.92    1.87
  -2   5  11    8.19    1.15
  -2   5  11    6.62    1.48
  -2   5  11    7.40    0.82
  -2   5  11    7.94    1.42
   1  -5 -11    9.09    1.56
   1  -5 -11    6.43    1.41
   1  -5 -11    7.11    1.90
   1  -5 -11   10.20    1.55
   1  -5 -11    4.09    1.73
   1  -5 -11    9.96    1.41
   1  -5 -11    8.24    1.65
  -1   5  11    7.87    1.26
  -1   5  11    7.66    1.57
  -1   5  11    9.96    1.05
  -1   5  11    5.21    1.69
   0  -5 -11   24.98    1.94
   0  -5 -11   26.57    2.23
   0  -5 -11   30.29    2.27
   0  -5 -11   25.55    1.83
   0  -5 -11   32.00    2.49
   0  -5 -11   26.62    2.06
   0  -5 -11   25.44    1.95
   0   5  11   23.74    1.86
   0   5  11   27.67    1.67
   0   5  11   25.09    1.74
   0   5  11   28.39    1.63
   0   5  11   26.08    2.49
   0   5  11   28.34    1.65
  -1  -5 -11    1.32    0.95
  -1  -5 -11    2.69    1.31
  -1  -5 -11    3.07    1.28
  -1  -5 -11    1.48    1.01
  -1  -5 -11    2.35    1.16
   1   5  11    2.36    0.76
   1   5  11    0.52    1.25
   1   5  11    1.64    1.09
   1   5  11    1.68    0.88
   1   5  11    1.75    0.81
   1   5  11    0.25    1.29
  -2  -5 -11   40.67    1.81
  -2  -5 -11   42.76    2.32
  -2  -5 -11   38.21    2.06
  -2  -5 -11   38.66    2.30
  -2  -5 -11   45.11    2.06
  -2  -5 -11   41.77    1.83
  -2  -5 -11   40.72    2.50
   2   5  11   44.24    2.04
   2   5  11   40.44    1.97
   2   5  11   43.47    1.52
   2   5  11   40.90    2.60
   2   5  11   43.98    1.84
   2   5  11   38.83    1.57
  -3  -5 -11   16.62    1.42
  -3  -5 -11   14.45    1.07
  -3  -5 -11   18.31    1.54
  -3  -5 -11   15.69    1.18
  -3  -5 -11   18.69    1.51
  -3  -5 -11   15.90    1.49
  -3  -5 -11   17.79    1.38
  -3  -5 -11   17.84    1.68
   3   5  11   18.22    1.35
   3   5  11   15.59    1.11
   3   5  11   16.45    1.30
   3   5  11   16.65    1.13
   3   5  11   16.21    0.94
  -4  -5 -11   14.57    1.54
  -4  -5 -11   15.27    1.12
  -4  -5 -11   13.41    1.10
  -4  -5 -11   15.72    1.08
  -4  -5 -11   16.25    1.25
  -4  -5 -11   13.42    1.37
  -4  -5 -11   15.00    1.15
  -4  -5 -11   14.63    1.53
  -5  -5 -11   -0.17    0.89
  -5  -5 -11    0.38    0.95
  -5  -5 -11   -0.38    1.48
  -5  -5 -11   -0.44    1.06
  -5  -5 -11    0.37    1.03
  -5  -5 -11    0.93    1.27
  -5  -5 -11    1.62    1.46
  -5  -5 -11   -0.67    0.93
  -6  -5 -11   13.97    1.95
  -6  -5 -11    9.90    0.94
  -6  -5 -11    9.28    1.78
  -6  -5 -11    9.25    1.21
  -6  -5 -11   10.53    1.22
  -6  -5 -11   10.48    1.07
  -6  -5 -11   11.50    1.26
  -6  -5 -11   10.91    1.43
  -6  -5 -11    8.97    1.41
   1  -6 -11    7.60    1.71
   1  -6 -11    8.30    1.57
   1  -6 -11    2.79    1.71
   1  -6 -11    6.46    0.94
   1  -6 -11    9.65    2.00
   1  -6 -11    6.69    2.38
   1  -6 -11    8.67    2.08
  -1   6  11    6.17    2.05
  -1   6  11    1.83    1.84
  -1   6  11    2.91    1.21
  -1   6  11    3.58    1.25
  -1   6  11    7.92    1.15
  -1   6  11    7.05    0.71
   0  -6 -11    5.63    1.87
   0  -6 -11    9.16    1.82
   0  -6 -11    4.25    1.32
   0  -6 -11    5.76    2.00
   0  -6 -11    6.46    1.31
   0  -6 -11    7.10    1.72
   0   6  11    5.63    1.12
   0   6  11    4.79    1.60
   0   6  11    4.46    1.49
   0   6  11    5.54    1.00
   0   6  11    4.87    1.95
   0   6  11    6.37    1.10
  -1  -6 -11   -0.21    1.01
  -1  -6 -11    1.75    1.57
  -1  -6 -11   -1.08    1.46
  -1  -6 -11   -1.31    1.07
  -1  -6 -11    0.84    1.23
  -1  -6 -11    1.21    1.45
  -1  -6 -11    2.31    1.58
   1   6  11   -0.17    1.26
   1   6  11    0.23    0.80
   1   6  11    1.73    1.17
   1   6  11    0.71    1.02
   1   6  11    0.47    0.87
  -2  -6 -11    2.31    1.46
  -2  -6 -11    3.96    1.37
  -2  -6 -11    5.06    1.54
  -2  -6 -11    3.95    1.17
  -2  -6 -11    2.33    1.02
  -2  -6 -11    3.12    1.45
  -2  -6 -11    3.59    1.08
   2   6  11    4.41    1.13
   2   6  11    2.77    0.77
   2   6  11    5.02    0.75
   2   6  11    3.68    1.02
   2   6  11    3.03    0.99
  -3  -6 -11   12.95    1.15
  -3  -6 -11    8.88    1.48
  -3  -6 -11   12.96    1.24
  -3  -6 -11   11.32    1.64
  -3  -6 -11   10.62    1.44
  -3  -6 -11   11.79    1.13
  -3  -6 -11   10.12    1.37
  -4  -6 -11   12.07    1.30
  -4  -6 -11   11.20    1.10
  -4  -6 -11   11.85    1.75
  -4  -6 -11   11.15    1.14
  -4  -6 -11   11.69    1.75
  -4  -6 -11   10.39    1.56
  -4  -6 -11   12.02    1.20
  -4  -6 -11   12.31    1.38
  -5  -6 -11   17.14    1.78
  -5  -6 -11   17.05    1.37
  -5  -6 -11   12.75    1.87
  -5  -6 -11   16.57    1.40
  -5  -6 -11   17.08    1.76
  -5  -6 -11   18.50    1.20
  -5  -6 -11   17.73    1.90
  -5  -6 -11   15.31    1.39
  -6  -6 -11    1.11    1.40
  -6  -6 -11   -0.52    1.19
  -6  -6 -11   -0.78    1.09
  -6  -6 -11    2.02    1.09
  -6  -6 -11    1.02    1.66
   0  -7 -11    1.90    1.40
   0  -7 -11    3.68    1.90
   0   7  11    0.68    1.34
  -1  -7 -11    4.28    1.41
  -1  -7 -11    4.95    1.27
   1   7  11    7.03    1.50
   1   7  11    4.41    1.00
   1   7  11    7.33    1.34
   1   7  11    5.20    0.97
  -2  -7 -11    2.39    2.66
  -2  -7 -11    3.10    1.21
  -2  -7 -11    4.24    1.14
  -2  -7 -11    2.43    1.50
  -2  -7 -11    2.96    1.89
  -2  -7 -11    1.75    1.72
   2   7  11    3.00    0.76
   2   7  11    2.28    0.95
   2   7  11    1.95    0.72
   2   7  11    2.47    0.96
  -3  -7 -11   -0.73    1.11
  -3  -7 -11    1.45    1.70
  -3  -7 -11    1.16    1.09
  -3  -7 -11    1.72    1.28
  -3  -7 -11    1.74    1.76
  -4  -7 -11   50.91    3.41
  -4  -7 -11   49.50    2.84
  -4  -7 -11   46.83    2.23
  -4  -7 -11   45.82    2.94
  -4  -7 -11   46.24    2.33
   0   4 -12    1.21    2.19
   0   4 -12    3.27    2.09
   0   4 -12    1.38    2.10
   0   4 -12    0.70    1.94
   0   4 -12    1.63    2.20
   0   4 -12    5.98    1.55
   0   4 -12    4.96    1.96
   0  -4  12    3.90    1.38
   0  -4  12    4.49    2.04
   0  -4  12    3.96    1.86
   0  -4  12    5.60    2.19
   0  -4  12    4.04    1.76
   0  -4  12    3.37    1.63
   0  -4  12    6.87    1.83
  -1   4 -12    2.55    1.99
  -1   4 -12    3.62    2.28
  -1   4 -12    3.54    1.66
  -1   4 -12    4.96    2.40
  -1   4 -12    1.20    1.92
  -1   4 -12    3.81    2.47
  -1   4 -12    2.61    1.73
   1  -4  12    1.63    1.64
   1  -4  12    2.50    1.39
   1  -4  12    2.00    1.61
   1  -4  12    1.95    2.02
   1  -4  12    3.04    1.94
   1  -4  12    2.14    2.02
   1  -4  12    1.67    1.81
   2   3 -12    6.65    2.01
   2   3 -12    1.91    2.17
   2   3 -12    6.12    2.31
   2   3 -12   -0.30    1.95
   2   3 -12    2.02    2.02
  -2  -3  12    1.70    1.46
  -2  -3  12    0.62    1.17
  -2  -3  12    5.19    1.59
  -2  -3  12    0.63    1.59
  -2  -3  12    1.12    1.37
  -2  -3  12    4.46    2.07
   1   3 -12    4.73    1.60
   1   3 -12    5.31    1.14
   1   3 -12    2.35    1.94
   1   3 -12    7.53    1.90
   1   3 -12    1.65    1.95
   1   3 -12    5.35    1.68
   1   3 -12    5.09    1.93
  -1  -3  12    4.08    1.66
  -1  -3  12    6.79    1.36
  -1  -3  12    6.78    1.60
  -1  -3  12    7.85    2.05
  -1  -3  12    3.31    1.60
  -1  -3  12    4.42    1.56
  -1  -3  12    4.93    1.06
   0   3 -12   66.90    3.49
   0   3 -12   61.35    3.60
   0   3 -12   66.99    3.21
   0   3 -12   60.38    3.30
   0   3 -12   60.42    2.69
   0   3 -12   64.35    3.23
   0   3 -12   66.47    3.65
   0  -3  12   64.44    2.94
   0  -3  12   65.54    2.33
   0  -3  12   67.87    3.25
   0  -3  12   67.03    3.08
   0  -3  12   62.22    2.76
   0  -3  12   61.47    3.56
   0  -3  12   62.91    3.41
  -1   3 -12    2.03    1.64
  -1   3 -12   -1.83    1.68
  -1   3 -12    0.09    1.55
  -1   3 -12   -0.56    1.55
  -1   3 -12   -0.19    1.94
  -1   3 -12    1.06    1.40
  -1   3 -12    0.03    1.78
   1  -3  12    0.16    1.29
   1  -3  12   -0.47    1.53
   1  -3  12   -0.07    1.64
   1  -3  12   -0.52    1.43
   1  -3  12   -0.45    1.00
   1  -3  12   -2.38    1.62
   1  -3  12   -0.94    1.29
  -2   3 -12   41.33    2.79
  -2   3 -12   39.46    2.79
  -2   3 -12   40.54    3.64
  -2   3 -12   41.92    3.36
  -2   3 -12   44.80    3.42
  -2   3 -12   41.42    2.85
   2  -3  12   35.19    3.43
   2  -3  12   43.46    2.95
   2  -3  12   40.20    3.16
   2  -3  12   43.05    2.50
   2  -3  12   44.03    2.07
   2  -3  12   43.05    3.02
   2  -3  12   36.51    2.80
  -3   3 -12    2.49    2.40
  -3   3 -12    2.46    1.61
  -3   3 -12    3.66    1.25
  -3   3 -12    5.12    1.60
  -3   3 -12    4.20    1.69
  -3   3 -12    4.99    1.81
  -3   3 -12    5.01    1.86
   3  -3  12    2.74    1.31
   3  -3  12    3.97    1.23
   3  -3  12    4.62    1.64
   3  -3  12    8.40    2.05
   3  -3  12    3.36    1.70
   3  -3  12    2.12    1.67
   3  -3  12    4.19    1.85
  -4   3 -12   -2.67    1.37
  -4   3 -12   -1.98    2.35
  -4   3 -12   -4.99    1.72
  -4   3 -12   -0.87    2.53
  -4   3 -12   -3.02    1.73
  -4   3 -12    2.55    2.05
  -4   3 -12    0.61    2.54
  -4   3 -12    0.73    2.01
   4  -3  12   -4.39    1.94
   4  -3  12   -0.55    2.08
   4  -3  12   -0.98    1.36
   4  -3  12   -1.22    1.91
   4  -3  12    0.02    1.30
   4  -3  12   -0.45    2.44
   3   2 -12    4.29    2.10
   3   2 -12    1.45    2.27
   3   2 -12   -0.29    1.81
   3   2 -12   -1.82    2.02
  -3  -2  12    2.04    1.41
  -3  -2  12    1.17    1.90
  -3  -2  12   -0.95    1.70
  -3  -2  12    1.74    1.19
  -3  -2  12    2.15    1.59
   2   2 -12   13.84    1.04
   2   2 -12   13.32    2.02
   2   2 -12   15.09    2.07
   2   2 -12   11.07    1.91
   2   2 -12   10.26    1.95
   2   2 -12   14.87    1.00
   2   2 -12   11.03    1.85
   2   2 -12   17.03    1.90
  -2  -2  12   13.56    1.12
  -2  -2  12   12.01    1.59
  -2  -2  12    9.32    1.41
  -2  -2  12   12.91    1.71
  -2  -2  12   13.28    1.64
  -2  -2  12   12.96    1.51
   1   2 -12   25.86    2.05
   1   2 -12   29.15    2.13
   1   2 -12   24.88    1.96
   1   2 -12   23.03    1.85
   1   2 -12   27.76    1.67
   1   2 -12   22.56    1.89
   1   2 -12   23.99    1.90
   1   2 -12   25.03    1.93
  -1  -2  12   24.41    1.75
  -1  -2  12   22.12    1.54
  -1  -2  12   29.74    2.34
  -1  -2  12   24.69    1.79
  -1  -2  12   21.29    1.53
  -1  -2  12   24.83    1.72
  -1  -2  12   26.97    1.57
   0   2 -12    2.13    1.51
   0   2 -12    2.98    1.28
   0   2 -12   -0.77    1.42
   0   2 -12    3.01    1.48
   0   2 -12    1.19    1.59
   0   2 -12    2.36    1.41
   0   2 -12    3.44    1.14
   0  -2  12    2.73    1.34
   0  -2  12    3.95    1.45
   0  -2  12    2.63    0.81
   0  -2  12    5.03    1.36
   0  -2  12    3.21    1.25
   0  -2  12    1.94    1.10
   0  -2  12    2.39    1.31
  -1   2 -12    5.68    1.69
  -1   2 -12    6.06    1.41
  -1   2 -12    4.57    1.34
  -1   2 -12    6.50    1.75
  -1   2 -12    7.75    1.31
  -1   2 -12    4.91    1.41
  -1   2 -12    7.52    2.66
   1  -2  12    5.73    1.50
   1  -2  12    6.75    0.86
   1  -2  12    6.56    1.63
   1  -2  12    7.22    1.39
   1  -2  12    6.28    1.36
   1  -2  12    7.76    1.21
   1  -2  12    6.91    1.27
  -2   2 -12    0.16    1.29
  -2   2 -12    1.02    1.35
  -2   2 -12    0.29    1.62
  -2   2 -12    2.42    1.36
  -2   2 -12   -0.30    1.59
  -2   2 -12    1.02    1.30
   2  -2  12    1.30    1.26
   2  -2  12    0.69    1.09
   2  -2  12    1.03    1.49
   2  -2  12    0.60    0.81
   2  -2  12   -3.39    1.26
   2  -2  12    0.28    1.33
   2  -2  12    0.34    1.30
  -3   2 -12   12.43    1.48
  -3   2 -12   11.31    1.95
  -3   2 -12   11.50    1.73
  -3   2 -12   13.12    1.44
  -3   2 -12   12.80    1.10
  -3   2 -12   10.22    1.78
  -3   2 -12   12.02    1.48
   3  -2  12   12.62    1.31
   3  -2  12   13.94    1.10
   3  -2  12   11.01    1.59
   3  -2  12   11.55    1.47
   3  -2  12   13.43    1.65
   3  -2  12   11.94    1.55
   3  -2  12   11.02    1.78
  -4   2 -12    6.65    1.84
  -4   2 -12    5.19    1.24
  -4   2 -12    6.34    1.37
  -4   2 -12    0.82    1.91
  -4   2 -12    4.70    1.88
  -4   2 -12    4.01    1.49
  -4   2 -12    7.37    2.09
   4  -2  12    5.68    1.47
   4  -2  12    3.77    1.36
   4  -2  12    6.02    1.67
   4  -2  12    5.11    1.66
   4  -2  12    4.90    1.19
   4  -2  12    3.82    1.18
   4  -2  12    5.48    1.99
  -5   2 -12   11.75    2.42
  -5   2 -12   10.72    1.38
  -5   2 -12   15.73    2.54
  -5   2 -12   12.78    2.79
  -5   2 -12    9.89    1.78
  -5   2 -12    7.42    2.20
  -5   2 -12   11.52    2.70
   5  -2  12   12.65    1.42
   5  -2  12   10.80    1.32
   5  -2  12   11.48    2.35
   5  -2  12   10.14    3.15
   3   1 -12    3.72    1.87
   3   1 -12    3.93    2.23
   3   1 -12    5.33    2.16
   3   1 -12    6.76    2.12
   3   1 -12    2.06    1.84
   3   1 -12    3.43    1.70
  -3  -1  12    1.91    1.66
  -3  -1  12    2.73    1.78
  -3  -1  12    5.26    1.41
  -3  -1  12    6.74    1.06
  -3  -1  12    4.90    1.42
   2   1 -12    1.11    0.95
   2   1 -12    1.09    1.81
   2   1 -12    1.20    1.80
   2   1 -12    1.30    1.60
   2   1 -12    0.90    1.64
   2   1 -12    1.03    0.98
   2   1 -12    3.01    1.53
   2   1 -12    2.60    1.50
  -2  -1  12    0.57    0.82
  -2  -1  12    0.57    1.46
  -2  -1  12    1.59    1.20
  -2  -1  12    3.70    1.27
  -2  -1  12    1.44    1.31
  -2  -1  12    1.81    1.39
  -2  -1  12    3.97    0.99
   1   1 -12    0.95    1.29
   1   1 -12    5.42    1.06
   1   1 -12    5.46    1.56
   1   1 -12    0.23    1.76
   1   1 -12    7.03    1.39
   1   1 -12    3.82    1.01
   1   1 -12    3.21    1.45
   1   1 -12    4.56    1.59
  -1  -1  12    3.88    1.21
  -1  -1  12    3.46    1.34
  -1  -1  12    5.02    1.17
  -1  -1  12    4.07    0.71
  -1  -1  12    4.90    0.83
  -1  -1  12    5.84    1.42
  -1  -1  12    4.55    1.14
   0   1 -12    7.52    1.49
   0   1 -12    7.14    1.14
   0   1 -12    5.71    1.40
   0   1 -12    3.28    1.24
   0   1 -12    7.02    1.31
   0   1 -12    6.72    1.43
   0   1 -12    4.53    1.35
   0  -1  12    4.72    1.19
   0  -1  12    5.30    0.66
   0  -1  12    5.50    1.06
   0  -1  12    6.18    1.19
   0  -1  12    7.19    1.22
   0  -1  12    7.35    1.27
   0  -1  12    4.95    0.71
  -1   1 -12    7.78    1.25
  -1   1 -12    7.33    1.17
  -1   1 -12    9.93    1.47
  -1   1 -12    9.69    1.27
  -1   1 -12    8.48    1.52
  -1   1 -12    8.29    2.10
  -1   1 -12    9.58    1.29
   1  -1  12    9.02    0.69
   1  -1  12   10.16    1.25
   1  -1  12    7.88    1.20
   1  -1  12    7.43    1.20
   1  -1  12    9.84    1.36
   1  -1  12    8.86    1.20
   1  -1  12    7.68    1.31
  -2   1 -12    3.92    1.18
  -2   1 -12    3.21    1.11
  -2   1 -12    2.63    1.12
  -2   1 -12    2.68    1.30
  -2   1 -12    3.52    1.31
  -2   1 -12    3.64    1.49
  -2   1 -12    4.87    1.41
   2  -1  12    1.91    1.06
   2  -1  12    2.94    1.22
   2  -1  12    5.46    1.20
   2  -1  12    3.31    1.13
   2  -1  12    2.29    1.19
   2  -1  12    2.45    0.65
   2  -1  12    2.47    1.17
  -3   1 -12   27.77    2.57
  -3   1 -12   27.88    2.45
  -3   1 -12   28.69    1.98
  -3   1 -12   29.20    1.59
  -3   1 -12   26.48    1.80
  -3   1 -12   31.32    2.60
  -3   1 -12   28.54    2.12
  -3   1 -12   22.94    1.97
   3  -1  12   26.88    1.72
   3  -1  12   26.60    2.27
   3  -1  12   22.52    1.70
   3  -1  12   26.42    1.39
   3  -1  12   30.61    2.18
   3  -1  12   29.39    2.20
   3  -1  12   29.56    1.93
  -4   1 -12   33.24    1.51
  -4   1 -12   31.04    2.02
  -4   1 -12   32.21    2.29
  -4   1 -12   31.11    2.78
  -4   1 -12   32.01    2.07
  -4   1 -12   31.76    2.23
  -4   1 -12   23.59    1.86
  -4   1 -12   30.52    2.19
   4  -1  12   34.55    2.32
   4  -1  12   32.98    2.01
   4  -1  12   34.91    2.73
   4  -1  12   28.63    2.04
   4  -1  12   32.41    1.65
   4  -1  12   33.05    2.24
   4  -1  12   34.40    2.53
  -5   1 -12  150.29    3.94
  -5   1 -12  159.82    5.07
  -5   1 -12  158.75    4.14
  -5   1 -12  160.67    4.78
  -5   1 -12  163.67    3.81
  -5   1 -12  154.17    5.01
  -5   1 -12  161.54    4.32
  -5   1 -12  155.59    5.11
   5  -1  12  149.66    4.56
   5  -1  12  147.44    4.97
   5  -1  12  158.47    3.87
   5  -1  12  162.10    3.83
   5  -1  12  149.38    4.15
   5  -1  12  155.84    4.27
   3   0 -12    9.41    1.75
   3   0 -12    7.47    1.10
   3   0 -12    7.04    1.73
   3   0 -12    8.94    1.18
   3   0 -12    8.00    2.16
   3   0 -12    7.38    1.80
   3   0 -12    4.59    2.08
   3   0 -12    7.69    2.16
  -3   0  12    8.14    1.35
  -3   0  12    9.20    0.99
  -3   0  12    7.44    1.65
  -3   0  12    8.21    1.23
  -3   0  12    5.40    1.19
  -3   0  12    7.06    1.78
  -3   0  12    9.86    1.71
   2   0 -12    2.35    1.05
   2   0 -12    1.95    1.47
   2   0 -12    4.08    1.67
   2   0 -12    2.64    1.07
   2   0 -12    2.34    1.47
   2   0 -12    2.39    1.64
   2   0 -12    0.79    1.74
   2   0 -12   -1.32    1.45
  -2   0  12    3.43    1.15
  -2   0  12    1.58    0.85
  -2   0  12    0.07    1.02
  -2   0  12    2.51    1.39
  -2   0  12    1.36    0.70
  -2   0  12    1.97    1.15
  -2   0  12    0.85    1.47
   1   0 -12    1.84    1.27
   1   0 -12    2.76    1.38
   1   0 -12    2.02    1.04
   1   0 -12    2.02    1.25
   1   0 -12    2.95    1.31
   1   0 -12    3.61    1.38
   1   0 -12    2.99    0.99
   1   0 -12    1.26    1.37
  -1   0  12    1.97    0.66
  -1   0  12    2.04    0.54
  -1   0  12    1.92    1.15
  -1   0  12    1.32    1.14
  -1   0  12    0.67    0.98
  -1   0  12    2.18    1.05
  -1   0  12    1.87    1.19
   0   0 -12   38.08    2.27
   0   0 -12   38.74    1.89
   0   0 -12   37.82    2.40
   0   0 -12   37.76    2.26
   0   0 -12   38.92    2.21
   0   0 -12   39.06    2.21
   0   0 -12   30.48    2.82
   0   0 -12   37.29    2.23
   0   0  12   33.60    1.91
   0   0  12   35.36    2.13
   0   0  12   35.61    2.13
   0   0  12   38.20    1.99
   0   0  12   37.93    2.16
  -1   0 -12    3.35    1.11
  -1   0 -12    4.68    1.15
  -1   0 -12    4.92    1.19
  -1   0 -12    3.00    1.17
  -1   0 -12    3.62    1.24
  -1   0 -12    3.62    1.09
  -1   0 -12    3.80    1.07
   1   0  12    3.29    1.07
   1   0  12    2.74    0.98
   1   0  12    3.45    1.01
   1   0  12    2.63    1.02
   1   0  12    3.03    0.93
  -2   0 -12   34.69    1.93
  -2   0 -12   30.25    1.88
  -2   0 -12   33.80    2.14
  -2   0 -12   27.21    2.20
  -2   0 -12   26.92    2.16
  -2   0 -12   30.57    2.21
  -2   0 -12   34.24    1.94
   2   0  12   31.11    1.92
   2   0  12   31.38    1.87
   2   0  12   32.29    2.19
   2   0  12   31.84    1.89
   2   0  12   30.62    1.99
  -3   0 -12   60.21    2.75
  -3   0 -12   59.54    2.28
  -3   0 -12   65.41    2.79
  -3   0 -12   62.85    2.69
  -3   0 -12   65.91    2.71
  -3   0 -12   66.48    2.39
  -3   0 -12   62.31    2.32
   3   0  12   69.08    2.46
   3   0  12   65.78    2.32
   3   0  12   59.70    2.44
   3   0  12   66.59    2.32
   3   0  12   62.86    2.59
   3   0  12   61.20    2.68
  -4   0 -12   94.72    2.22
  -4   0 -12   96.40    3.43
  -4   0 -12   87.64    3.29
  -4   0 -12   99.22    2.83
  -4   0 -12   95.28    2.98
  -4   0 -12   90.10    2.76
  -4   0 -12   89.65    3.17
  -4   0 -12   95.66    3.43
   4   0  12   94.93    2.28
   4   0  12   96.47    3.11
   4   0  12   96.60    2.86
   4   0  12   84.70    3.28
   4   0  12   96.25    2.83
   4   0  12  101.08    2.96
   4   0  12   90.15    3.34
  -5   0 -12   14.46    1.16
  -5   0 -12   15.73    1.39
  -5   0 -12   14.18    1.53
  -5   0 -12   12.48    1.93
  -5   0 -12   15.72    1.35
  -5   0 -12   13.27    1.94
  -5   0 -12    9.77    1.55
  -5   0 -12   14.59    1.82
   5   0  12   15.96    1.33
   5   0  12   11.34    1.76
   5   0  12   14.08    0.97
   5   0  12   14.83    1.29
   5   0  12   13.81    1.46
   5   0  12   13.96    1.31
  -6   0 -12   10.68    2.43
  -6   0 -12    8.30    1.21
  -6   0 -12    9.25    1.95
  -6   0 -12    7.62    2.49
  -6   0 -12    7.18    2.09
  -6   0 -12   13.28    3.62
  -6   0 -12    8.51    1.91
  -6   0 -12    8.71    1.16
   6   0  12    5.44    2.71
   6   0  12    9.39    1.36
   6   0  12    5.45    1.60
   6   0  12   10.22    1.42
   6   0  12    9.23    1.10
   3  -1 -12   33.96    3.12
   3  -1 -12   36.24    2.75
   3  -1 -12   35.97    2.68
   3  -1 -12   38.11    2.15
   3  -1 -12   27.61    2.01
   3  -1 -12   35.30    2.43
   3  -1 -12   38.64    2.34
   3  -1 -12   36.36    2.51
  -3   1  12   40.15    3.23
  -3   1  12   34.32    1.83
  -3   1  12   37.09    2.22
  -3   1  12   36.83    1.60
  -3   1  12   38.90    2.54
  -3   1  12   34.79    2.64
  -3   1  12   29.70    2.36
   2  -1 -12    3.25    1.22
   2  -1 -12    4.41    1.42
   2  -1 -12    2.16    1.65
   2  -1 -12    2.54    2.94
   2  -1 -12    3.64    1.12
   2  -1 -12    5.09    1.59
   2  -1 -12    3.38    1.63
   2  -1 -12    3.31    1.41
  -2   1  12    3.07    1.49
  -2   1  12    2.15    1.18
  -2   1  12    2.70    0.70
  -2   1  12    2.72    1.10
  -2   1  12    2.60    0.60
  -2   1  12    0.26    1.40
  -2   1  12    4.40    1.22
   1  -1 -12    5.18    1.44
   1  -1 -12    5.17    1.38
   1  -1 -12    6.72    1.16
   1  -1 -12    3.88    1.45
   1  -1 -12    6.31    1.65
   1  -1 -12    4.40    1.18
   1  -1 -12    4.17    1.35
  -1   1  12    6.14    1.30
  -1   1  12    4.89    1.30
  -1   1  12    6.91    1.09
  -1   1  12    3.44    1.01
  -1   1  12    5.12    1.06
   0  -1 -12    4.70    1.06
   0  -1 -12    5.06    1.33
   0  -1 -12    3.01    1.02
   0  -1 -12    3.33    1.25
   0  -1 -12    4.11    1.19
   0  -1 -12    3.23    1.17
   0  -1 -12    3.54    1.02
   0  -1 -12    2.59    1.07
   0   1  12    5.25    1.14
   0   1  12    4.24    0.91
   0   1  12    3.89    1.07
   0   1  12    4.12    0.94
   0   1  12    4.45    1.13
  -1  -1 -12   76.34    2.59
  -1  -1 -12   77.77    2.55
  -1  -1 -12   77.02    2.46
  -1  -1 -12   75.23    2.79
  -1  -1 -12   69.93    2.49
  -1  -1 -12   74.22    2.51
  -1  -1 -12   72.50    2.58
  -1  -1 -12   74.38    2.70
   1   1  12   76.27    2.33
   1   1  12   72.61    2.44
   1   1  12   73.91    2.50
   1   1  12   74.06    2.56
   1   1  12   74.05    2.58
  -2  -1 -12    0.70    1.01
  -2  -1 -12   -0.32    1.04
  -2  -1 -12    1.97    1.10
  -2  -1 -12   -0.18    1.10
  -2  -1 -12    0.03    0.92
  -2  -1 -12    1.55    0.97
  -2  -1 -12   -0.01    0.99
   2   1  12    0.18    0.99
   2   1  12    0.53    0.96
   2   1  12   -0.05    0.94
   2   1  12   -0.11    0.87
   2   1  12    0.67    0.94
  -3  -1 -12   35.40    1.84
  -3  -1 -12   35.25    2.04
  -3  -1 -12   37.73    2.20
  -3  -1 -12   37.79    1.95
  -3  -1 -12   40.05    2.33
  -3  -1 -12   36.65    1.85
  -3  -1 -12   33.98    2.16
   3   1  12   33.97    2.13
   3   1  12   35.46    1.80
   3   1  12   36.82    2.11
   3   1  12   37.36    1.98
   3   1  12   36.41    1.98
  -4  -1 -12   13.56    1.35
  -4  -1 -12   13.86    1.49
  -4  -1 -12   14.42    1.44
  -4  -1 -12   12.26    1.36
  -4  -1 -12   11.10    1.22
  -4  -1 -12   12.90    1.10
   4   1  12   13.99    1.24
   4   1  12   14.16    1.12
   4   1  12   14.73    1.26
   4   1  12   11.43    1.32
   4   1  12   12.92    1.46
  -5  -1 -12    2.82    1.58
  -5  -1 -12    3.31    0.62
  -5  -1 -12    3.41    1.04
  -5  -1 -12    2.81    1.29
  -5  -1 -12    4.67    1.33
  -5  -1 -12    4.08    1.48
  -5  -1 -12    3.65    1.05
  -5  -1 -12    4.95    1.55
   5   1  12    3.96    1.38
   5   1  12    2.60    1.19
   5   1  12    2.47    1.13
   5   1  12    2.77    0.99
  -6  -1 -12    2.23    0.89
  -6  -1 -12    1.75    1.25
  -6  -1 -12    3.28    1.08
  -6  -1 -12    3.65    1.55
  -6  -1 -12    2.02    1.96
  -6  -1 -12    2.16    1.49
  -6  -1 -12    3.83    1.83
  -6  -1 -12    4.40    1.65
   6   1  12    2.64    1.13
   6   1  12    2.90    1.20
   6   1  12    3.71    1.35
   6   1  12    3.15    1.52
   3  -2 -12   83.58    4.16
   3  -2 -12   84.75    3.26
   3  -2 -12   80.04    4.65
   3  -2 -12   83.63    3.70
   3  -2 -12   89.39    3.52
   3  -2 -12   78.46    3.38
   3  -2 -12   92.15    4.26
  -3   2  12   89.06    4.04
  -3   2  12   86.96    3.21
  -3   2  12   88.41    2.32
  -3   2  12   82.08    3.64
  -3   2  12   82.24    3.02
  -3   2  12   86.37    2.42
  -3   2  12   82.25    3.42
   2  -2 -12    3.05    1.35
   2  -2 -12    2.25    1.58
   2  -2 -12    3.56    1.35
   2  -2 -12    4.74    1.73
   2  -2 -12    2.84    1.58
   2  -2 -12    2.68    1.16
   2  -2 -12    4.76    1.94
   2  -2 -12    2.52    1.35
  -2   2  12    2.95    1.43
  -2   2  12    1.99    1.09
  -2   2  12    1.82    1.34
  -2   2  12    4.94    1.51
  -2   2  12    1.90    1.13
   1  -2 -12    5.62    1.55
   1  -2 -12    8.48    1.53
   1  -2 -12    4.59    1.25
   1  -2 -12    5.17    1.36
   1  -2 -12    3.35    1.07
   1  -2 -12    5.27    1.23
   1  -2 -12    5.57    1.12
   1  -2 -12    5.99    1.44
  -1   2  12    4.53    1.01
  -1   2  12    6.90    1.35
  -1   2  12    5.70    1.01
  -1   2  12    5.69    1.32
  -1   2  12    5.33    1.14
   0  -2 -12   25.27    2.04
   0  -2 -12   27.60    2.04
   0  -2 -12   25.99    1.97
   0  -2 -12   33.10    2.13
   0  -2 -12   31.45    2.08
   0  -2 -12   29.39    2.00
   0  -2 -12   33.90    2.50
   0  -2 -12   27.16    2.21
   0   2  12   27.00    2.10
   0   2  12   26.20    1.76
   0   2  12   25.18    1.85
   0   2  12   27.16    1.65
   0   2  12   26.74    2.10
  -1  -2 -12   13.58    1.19
  -1  -2 -12   14.92    1.35
  -1  -2 -12   13.12    1.21
  -1  -2 -12   13.70    1.18
  -1  -2 -12   11.91    1.21
  -1  -2 -12   14.38    1.27
  -1  -2 -12   12.78    1.12
  -1  -2 -12    9.62    1.05
   1   2  12   13.66    1.20
   1   2  12   14.39    1.30
   1   2  12   13.82    1.15
   1   2  12   14.40    1.15
   1   2  12   14.06    1.02
  -2  -2 -12   20.61    1.75
  -2  -2 -12   18.67    1.21
  -2  -2 -12   19.24    1.36
  -2  -2 -12   17.86    1.24
  -2  -2 -12   18.04    1.42
  -2  -2 -12   21.29    1.78
  -2  -2 -12   19.47    1.53
   2   2  12   19.01    1.21
   2   2  12   19.89    1.38
   2   2  12   17.83    1.24
   2   2  12   18.25    1.66
   2   2  12   19.83    1.59
  -3  -2 -12    7.93    1.10
  -3  -2 -12    6.18    1.08
  -3  -2 -12    6.99    1.02
  -3  -2 -12    7.02    1.14
  -3  -2 -12    6.87    1.12
  -3  -2 -12    6.98    1.28
  -3  -2 -12    6.89    1.03
   3   2  12    6.82    1.16
   3   2  12    7.74    0.99
   3   2  12    6.08    0.99
   3   2  12    5.03    1.09
   3   2  12    4.50    0.97
  -4  -2 -12   -1.35    0.86
  -4  -2 -12   -0.03    1.06
  -4  -2 -12   -0.67    1.32
  -4  -2 -12   -0.05    1.07
  -4  -2 -12   -0.71    1.10
  -4  -2 -12    0.46    0.97
  -4  -2 -12   -0.36    1.10
   4   2  12   -0.13    0.94
   4   2  12    0.60    1.07
   4   2  12   -0.29    0.85
   4   2  12    0.67    1.07
   4   2  12    0.55    1.14
  -5  -2 -12    0.68    1.15
  -5  -2 -12    1.62    1.25
  -5  -2 -12    2.64    1.16
  -5  -2 -12    1.47    0.93
  -5  -2 -12    2.46    1.27
  -5  -2 -12    2.26    1.52
   5   2  12    0.86    1.27
   5   2  12    0.98    1.02
   5   2  12    0.84    0.91
   5   2  12    1.74    1.11
  -6  -2 -12   32.14    2.38
  -6  -2 -12   29.82    1.38
  -6  -2 -12   26.09    1.79
  -6  -2 -12   28.00    2.31
  -6  -2 -12   28.38    1.96
  -6  -2 -12   29.71    1.81
  -6  -2 -12   35.49    2.09
  -6  -2 -12   36.03    2.66
   6   2  12   27.64    2.16
   6   2  12   32.82    2.02
   6   2  12   29.05    1.71
   3  -3 -12   36.31    2.63
   3  -3 -12   37.51    3.27
   3  -3 -12   39.42    2.95
   3  -3 -12   44.48    2.93
   3  -3 -12   41.73    3.20
   3  -3 -12   38.67    2.66
   3  -3 -12   42.24    3.20
  -3   3  12   39.76    3.03
  -3   3  12   45.66    3.74
  -3   3  12   39.02    2.53
  -3   3  12   41.84    1.75
   2  -3 -12    1.62    1.47
   2  -3 -12   -2.30    2.39
   2  -3 -12   -1.42    1.52
   2  -3 -12    1.37    1.62
   2  -3 -12   -0.63    1.65
   2  -3 -12    0.63    1.99
   2  -3 -12   -0.20    1.40
  -2   3  12   -0.76    1.51
  -2   3  12    2.64    1.40
  -2   3  12   -0.92    1.04
  -2   3  12   -3.67    1.66
  -2   3  12   -0.68    1.19
   1  -3 -12   -0.30    1.58
   1  -3 -12    0.48    1.32
   1  -3 -12    0.36    1.40
   1  -3 -12    0.09    1.21
   1  -3 -12    0.81    1.26
   1  -3 -12   -0.52    1.35
   1  -3 -12   -1.74    1.30
  -1   3  12    1.83    1.10
  -1   3  12    0.71    0.96
  -1   3  12    1.20    1.41
  -1   3  12    1.57    0.98
  -1   3  12    1.41    1.32
   0  -3 -12    2.00    1.08
   0  -3 -12    1.42    1.48
   0  -3 -12    1.87    1.37
   0  -3 -12    1.65    1.11
   0  -3 -12    1.95    1.20
   0  -3 -12    2.17    1.20
   0  -3 -12    2.77    1.17
   0   3  12    0.94    0.92
   0   3  12    2.22    1.09
   0   3  12    2.16    1.20
   0   3  12    2.24    1.20
   0   3  12    2.22    0.88
  -1  -3 -12   32.89    2.05
  -1  -3 -12   24.91    1.89
  -1  -3 -12   25.79    1.83
  -1  -3 -12   29.85    2.10
  -1  -3 -12   25.73    2.08
  -1  -3 -12   27.70    1.84
  -1  -3 -12   26.07    2.31
  -1  -3 -12   24.47    1.98
   1   3  12   29.02    2.13
   1   3  12   26.33    1.92
   1   3  12   25.75    1.74
   1   3  12   26.59    1.61
   1   3  12   24.96    1.77
  -2  -3 -12    5.78    1.00
  -2  -3 -12    7.08    1.25
  -2  -3 -12    6.01    1.20
  -2  -3 -12    7.85    1.13
  -2  -3 -12    6.34    1.05
  -2  -3 -12    8.54    1.09
  -2  -3 -12    7.76    1.06
  -2  -3 -12    6.58    1.28
   2   3  12    5.31    0.95
   2   3  12    6.70    0.90
   2   3  12    8.07    1.24
   2   3  12    7.45    1.07
   2   3  12    7.85    1.07
  -3  -3 -12    3.53    1.25
  -3  -3 -12    4.91    1.09
  -3  -3 -12    4.71    1.03
  -3  -3 -12    4.47    0.99
  -3  -3 -12    4.11    1.05
  -3  -3 -12    4.83    1.03
  -3  -3 -12    4.50    1.21
  -3  -3 -12    6.20    1.16
   3   3  12    5.01    0.93
   3   3  12    4.14    0.93
   3   3  12    4.08    1.19
   3   3  12    6.10    0.90
   3   3  12    5.05    1.22
  -4  -3 -12   61.17    2.38
  -4  -3 -12   56.56    2.05
  -4  -3 -12   55.19    2.75
  -4  -3 -12   55.93    2.39
  -4  -3 -12   56.75    2.30
  -4  -3 -12   61.86    2.34
  -4  -3 -12   53.90    2.20
   4   3  12   56.14    2.10
   4   3  12   58.38    1.99
   4   3  12   55.12    1.97
   4   3  12   59.36    2.64
   4   3  12   61.67    2.63
  -5  -3 -12   -0.86    1.03
  -5  -3 -12    2.05    1.18
  -5  -3 -12    0.33    1.25
  -5  -3 -12    2.57    1.00
  -5  -3 -12    1.12    1.20
  -5  -3 -12    1.79    1.17
  -5  -3 -12    1.96    1.60
   5   3  12    0.45    0.92
   5   3  12    0.92    0.82
   5   3  12    0.93    0.88
   5   3  12    2.31    1.35
  -6  -3 -12    7.53    1.09
  -6  -3 -12    8.02    1.57
  -6  -3 -12    7.05    1.46
  -6  -3 -12    5.55    1.79
  -6  -3 -12    7.11    1.54
  -6  -3 -12    7.42    1.24
  -6  -3 -12    7.18    1.29
   2  -4 -12   40.27    2.97
   2  -4 -12   37.38    2.68
   2  -4 -12   38.89    2.60
   2  -4 -12   38.10    3.27
   2  -4 -12   33.14    2.91
   2  -4 -12   38.29    2.31
   2  -4 -12   37.88    2.88
  -2   4  12   39.55    2.26
  -2   4  12   35.38    2.69
  -2   4  12   32.74    2.27
  -2   4  12   33.76    2.35
   1  -4 -12    5.87    1.58
   1  -4 -12    3.93    1.50
   1  -4 -12    2.67    1.70
   1  -4 -12    3.21    1.96
   1  -4 -12    4.40    1.47
   1  -4 -12    7.57    1.73
   1  -4 -12    3.04    1.41
  -1   4  12    5.36    1.24
  -1   4  12    5.47    1.13
  -1   4  12    4.16    1.06
  -1   4  12    5.68    1.58
  -1   4  12    4.62    1.70
   0  -4 -12   23.51    1.70
   0  -4 -12   20.20    1.44
   0  -4 -12   21.93    1.52
   0  -4 -12   21.79    1.57
   0  -4 -12   20.20    1.76
   0  -4 -12   18.75    1.88
   0  -4 -12   23.43    1.59
   0   4  12   22.97    1.64
   0   4  12   19.77    1.28
   0   4  12   16.96    1.28
   0   4  12   20.19    1.72
   0   4  12   20.47    1.33
  -1  -4 -12    3.55    1.15
  -1  -4 -12    2.62    1.25
  -1  -4 -12    4.39    1.12
  -1  -4 -12    3.10    1.44
  -1  -4 -12    3.08    1.24
  -1  -4 -12    3.46    1.08
  -1  -4 -12    3.60    1.31
   1   4  12    3.19    0.95
   1   4  12    3.30    0.84
   1   4  12    1.81    1.17
   1   4  12    2.67    1.38
   1   4  12    3.72    1.03
  -2  -4 -12   11.45    1.14
  -2  -4 -12   12.95    1.20
  -2  -4 -12   11.33    1.44
  -2  -4 -12   12.95    1.34
  -2  -4 -12   14.22    1.44
  -2  -4 -12   12.50    1.22
  -2  -4 -12   13.01    1.41
  -2  -4 -12   14.86    1.28
   2   4  12   12.23    1.04
   2   4  12   12.34    1.18
   2   4  12   15.41    1.01
   2   4  12   12.18    1.20
   2   4  12   14.89    1.56
  -3  -4 -12  244.44    5.35
  -3  -4 -12  237.70    5.35
  -3  -4 -12  229.83    5.41
  -3  -4 -12  236.22    5.70
  -3  -4 -12  232.51    5.32
  -3  -4 -12  228.82    5.43
  -3  -4 -12  248.25    5.69
  -3  -4 -12  239.98    5.56
   3   4  12  236.60    5.56
   3   4  12  236.03    5.20
   3   4  12  236.17    5.12
   3   4  12  227.42    5.19
   3   4  12  242.11    5.74
  -4  -4 -12   41.14    2.11
  -4  -4 -12   40.16    2.22
  -4  -4 -12   41.40    2.54
  -4  -4 -12   40.75    2.72
  -4  -4 -12   40.96    1.95
  -4  -4 -12   37.36    2.20
  -4  -4 -12   38.79    2.01
  -4  -4 -12   41.12    2.09
   4   4  12   39.34    1.65
   4   4  12   38.28    2.61
   4   4  12   37.06    1.60
   4   4  12   39.58    2.61
   4   4  12   36.89    1.54
  -5  -4 -12   22.01    1.99
  -5  -4 -12   22.89    1.49
  -5  -4 -12   23.89    1.49
  -5  -4 -12   24.20    1.90
  -5  -4 -12   20.00    1.88
  -5  -4 -12   22.72    1.54
  -5  -4 -12   23.15    2.03
  -6  -4 -12   10.26    1.43
  -6  -4 -12    9.60    2.23
  -6  -4 -12    8.41    1.23
  -6  -4 -12    7.53    1.56
  -6  -4 -12    5.93    1.26
  -6  -4 -12    6.99    1.48
   1  -5 -12   14.57    2.13
   1  -5 -12   11.29    1.76
   1  -5 -12    9.42    2.35
   1  -5 -12   13.51    1.71
   1  -5 -12   11.65    1.63
   1  -5 -12   12.31    2.05
   1  -5 -12    7.54    2.02
  -1   5  12   11.06    1.26
  -1   5  12    7.55    1.38
  -1   5  12   11.22    1.85
  -1   5  12    2.56    2.96
  -1   5  12    9.16    1.99
   0  -5 -12    0.31    1.85
   0  -5 -12   -1.79    1.55
   0  -5 -12    0.01    1.59
   0  -5 -12    1.64    1.71
   0  -5 -12   -0.79    1.35
   0  -5 -12    2.65    1.55
   0  -5 -12    1.47    1.36
   0   5  12    0.65    1.44
   0   5  12   -0.11    1.62
   0   5  12   -1.06    0.98
   0   5  12   -1.39    1.12
   0   5  12    0.45    1.04
   0   5  12    1.49    1.76
  -1  -5 -12   25.99    1.85
  -1  -5 -12   25.18    1.84
  -1  -5 -12   24.70    1.91
  -1  -5 -12   25.99    1.55
  -1  -5 -12   26.51    2.40
  -1  -5 -12   28.30    1.84
  -1  -5 -12   25.56    2.14
   1   5  12   26.81    1.64
   1   5  12   25.31    1.78
   1   5  12   24.98    1.87
   1   5  12   28.89    2.01
   1   5  12   28.08    2.28
   1   5  12   21.75    1.86
  -2  -5 -12   20.27    1.52
  -2  -5 -12   22.15    1.41
  -2  -5 -12   23.71    1.94
  -2  -5 -12   21.54    1.60
  -2  -5 -12   20.94    1.75
  -2  -5 -12   19.29    1.63
  -2  -5 -12   21.21    1.80
   2   5  12   20.92    1.90
   2   5  12   23.54    2.14
   2   5  12   20.58    1.47
   2   5  12   21.08    1.60
   2   5  12   20.55    1.48
   2   5  12   21.69    1.39
  -3  -5 -12    6.44    1.41
  -3  -5 -12   11.27    1.22
  -3  -5 -12   10.47    1.15
  -3  -5 -12   10.59    1.39
  -3  -5 -12   10.26    1.60
  -3  -5 -12    9.81    1.47
  -3  -5 -12   10.93    1.63
  -3  -5 -12    9.01    1.19
   3   5  12   10.27    0.91
   3   5  12    7.89    1.76
   3   5  12   11.61    1.41
   3   5  12   11.61    1.03
   3   5  12   10.45    0.88
   3   5  12   10.99    1.07
  -4  -5 -12   27.30    1.57
  -4  -5 -12   29.11    1.95
  -4  -5 -12   24.73    1.97
  -4  -5 -12   28.49    2.26
  -4  -5 -12   23.58    1.94
  -4  -5 -12   25.38    1.71
  -4  -5 -12   29.01    2.08
  -4  -5 -12   30.42    2.02
  -5  -5 -12  126.95    3.58
  -5  -5 -12  129.27    3.59
  -5  -5 -12  140.05    3.85
  -5  -5 -12  138.65    3.62
  -5  -5 -12  131.71    3.85
  -5  -5 -12  133.28    4.45
  -5  -5 -12  129.00    4.25
  -5  -5 -12  138.04    3.80
  -6  -5 -12    3.69    1.55
  -6  -5 -12    3.79    1.37
  -6  -5 -12    7.19    1.33
  -6  -5 -12   11.17    1.65
   0  -6 -12   27.13    2.62
   0  -6 -12   27.61    2.01
   0  -6 -12   25.29    2.35
   0  -6 -12   33.26    1.90
   0   6  12   18.35    2.26
   0   6  12   36.50    2.48
  -1  -6 -12    4.76    1.34
  -1  -6 -12    8.07    1.95
  -1  -6 -12    3.85    2.04
  -1  -6 -12    9.30    2.05
  -1  -6 -12    8.25    1.74
  -1  -6 -12    6.70    1.79
  -1  -6 -12    5.89    1.46
   1   6  12    6.42    1.03
   1   6  12    5.67    1.15
   1   6  12    6.14    1.36
   1   6  12    5.22    1.61
   1   6  12    5.37    2.12
  -2  -6 -12   31.48    2.25
  -2  -6 -12   24.62    1.93
  -2  -6 -12   21.55    1.97
  -2  -6 -12   21.55    1.91
  -2  -6 -12   29.38    2.46
  -2  -6 -12   22.36    1.95
  -2  -6 -12   23.93    1.52
   2   6  12   26.28    2.19
   2   6  12   28.27    1.59
   2   6  12   23.84    1.64
   2   6  12   28.51    1.70
   2   6  12   24.69    2.09
  -3  -6 -12    1.55    1.59
  -3  -6 -12    3.08    1.32
  -3  -6 -12    4.05    1.26
  -3  -6 -12   -0.96    1.47
  -3  -6 -12    1.87    1.20
  -3  -6 -12    1.39    1.82
  -3  -6 -12    1.62    1.64
  -4  -6 -12   43.81    2.67
  -4  -6 -12   40.82    2.96
  -4  -6 -12   45.53    2.28
  -4  -6 -12   42.14    3.02
  -4  -6 -12   39.67    3.45
  -4  -6 -12   37.65    2.22
  -4  -6 -12   41.98    2.78
  -5  -6 -12   24.65    1.65
  -5  -6 -12   15.71    1.69
  -5  -6 -12   25.02    2.21
  -5  -6 -12   24.04    2.03
  -1   3 -13    0.33    1.75
  -1   3 -13    1.78    2.05
  -1   3 -13    0.00    1.69
  -1   3 -13    3.64    2.43
  -1   3 -13    1.31    2.06
  -1   3 -13   -3.20    2.07
  -1   3 -13   -1.48    2.19
   1  -3  13    1.76    1.99
   1  -3  13    1.09    1.71
   1  -3  13   -1.18    1.93
   1  -3  13   -0.93    1.21
   1  -3  13    3.16    1.70
   1  -3  13    3.37    2.26
   1  -3  13    4.57    2.16
   1   2 -13   -2.51    1.91
   1   2 -13    2.11    2.09
   1   2 -13    0.24    1.96
   1   2 -13   -0.60    1.20
   1   2 -13   -1.71    2.02
   1   2 -13   -1.79    1.27
  -1  -2  13   -2.01    1.76
  -1  -2  13   -0.24    1.64
  -1  -2  13   -1.31    0.99
  -1  -2  13    1.22    1.75
  -1  -2  13   -1.35    1.15
  -1  -2  13   -2.14    1.60
   0   2 -13   11.75    1.92
   0   2 -13    8.20    1.96
   0   2 -13    6.54    1.83
   0   2 -13   10.51    2.15
   0   2 -13   11.07    2.09
   0   2 -13    9.52    1.53
   0   2 -13    9.39    2.24
   0  -2  13    8.72    1.71
   0  -2  13    6.84    1.46
   0  -2  13   10.00    1.71
   0  -2  13    6.86    1.86
   0  -2  13    7.42    1.04
   0  -2  13    7.71    1.58
  -1   2 -13   37.13    2.82
  -1   2 -13   31.56    2.12
  -1   2 -13   26.41    1.83
  -1   2 -13   28.91    2.10
  -1   2 -13   24.98    2.21
  -1   2 -13   25.78    2.12
  -1   2 -13   21.23    1.93
   1  -2  13   32.61    2.47
   1  -2  13   27.98    1.99
   1  -2  13   31.13    2.03
   1  -2  13   25.80    1.84
   1  -2  13   27.49    1.85
   1  -2  13   26.58    2.03
   1  -2  13   27.33    1.69
  -2   2 -13   10.86    1.73
  -2   2 -13    8.01    1.74
  -2   2 -13    8.91    2.11
  -2   2 -13    4.84    2.15
  -2   2 -13   13.06    1.74
  -2   2 -13   13.23    1.89
  -2   2 -13   10.58    1.76
   2  -2  13    9.92    1.75
   2  -2  13   10.96    1.80
   2  -2  13   11.22    1.55
   2  -2  13   12.10    1.11
   2  -2  13   10.03    2.03
   2  -2  13    8.00    1.69
   2  -2  13    8.52    1.69
  -3   2 -13    4.80    2.10
  -3   2 -13    4.07    2.36
  -3   2 -13    1.31    1.46
  -3   2 -13    5.53    1.73
  -3   2 -13    3.46    1.69
  -3   2 -13    0.60    1.83
   3  -2  13    4.63    2.11
   3  -2  13    5.25    1.79
   3  -2  13    4.68    1.12
   3  -2  13    3.21    1.77
   3  -2  13    4.30    1.79
   3  -2  13    1.90    1.64
   3  -2  13    4.67    1.48
   2   1 -13  120.96    3.35
   2   1 -13  117.11    4.81
   2   1 -13  127.32    3.30
   2   1 -13  126.13    4.98
   2   1 -13  121.80    4.51
   2   1 -13  119.38    4.66
  -2  -1  13  127.95    3.37
  -2  -1  13  130.03    4.18
  -2  -1  13  124.64    3.14
  -2  -1  13  131.30    4.39
  -2  -1  13  115.98    4.29
   1   1 -13    2.60    1.91
   1   1 -13    1.63    1.70
   1   1 -13    2.56    1.77
   1   1 -13    3.03    1.85
   1   1 -13    2.34    1.23
   1   1 -13    2.17    1.32
  -1  -1  13    1.68    0.78
  -1  -1  13   -0.94    0.91
  -1  -1  13    0.87    1.44
  -1  -1  13   -2.59    1.57
  -1  -1  13    0.99    1.38
  -1  -1  13    2.04    1.58
  -1  -1  13    1.39    1.53
   0   1 -13    3.41    1.82
   0   1 -13   -1.32    1.27
   0   1 -13    3.39    1.72
   0   1 -13   -0.51    1.72
   0   1 -13   -1.46    1.19
   0   1 -13   -2.13    1.47
   0   1 -13    4.46    1.69
   0  -1  13    0.57    0.76
   0  -1  13    0.89    1.57
   0  -1  13    1.72    1.43
   0  -1  13    2.92    1.34
   0  -1  13   -0.18    1.36
   0  -1  13   -0.65    1.25
   0  -1  13    1.48    0.69
  -1   1 -13    5.67    1.67
  -1   1 -13    5.41    1.45
  -1   1 -13    5.12    1.56
  -1   1 -13    2.69    1.44
  -1   1 -13    5.93    1.82
  -1   1 -13    9.60    1.73
  -1   1 -13    4.36    1.43
   1  -1  13    5.55    0.72
   1  -1  13    7.13    1.43
   1  -1  13    5.04    1.65
   1  -1  13    4.34    1.34
   1  -1  13    6.74    1.42
   1  -1  13    6.43    1.46
  -2   1 -13    9.39    1.60
  -2   1 -13    7.32    1.83
  -2   1 -13    6.96    1.47
  -2   1 -13    6.15    1.54
  -2   1 -13    7.30    1.50
  -2   1 -13    5.51    1.56
  -2   1 -13    5.97    1.69
   2  -1  13    6.62    1.53
   2  -1  13    7.79    1.38
   2  -1  13    6.67    1.36
   2  -1  13   10.33    1.79
   2  -1  13    7.11    1.51
   2  -1  13    7.71    0.77
   2  -1  13    9.22    1.43
  -3   1 -13    8.35    1.92
  -3   1 -13    3.74    1.86
  -3   1 -13    5.21    1.45
  -3   1 -13    2.76    1.52
  -3   1 -13    5.39    1.72
  -3   1 -13    1.60    1.82
  -3   1 -13    6.71    1.51
   3  -1  13    2.57    1.74
   3  -1  13    2.02    1.52
   3  -1  13    5.33    1.44
   3  -1  13    4.01    1.35
   3  -1  13    4.10    1.51
   3  -1  13    4.49    0.84
   3  -1  13    6.08    1.62
  -4   1 -13    0.66    1.44
  -4   1 -13    1.90    2.25
  -4   1 -13    0.46    1.60
  -4   1 -13    0.04    1.62
  -4   1 -13   -2.85    1.88
  -4   1 -13   -1.57    1.95
  -4   1 -13   -2.80    1.51
  -4   1 -13   -0.49    0.92
   4  -1  13    0.49    0.93
   4  -1  13    0.68    1.98
   4  -1  13    0.66    1.41
   4  -1  13    0.54    1.53
   4  -1  13   -1.68    1.51
   4  -1  13   -0.31    1.31
   4  -1  13    2.10    1.71
   2   0 -13    1.37    1.27
   2   0 -13    0.59    1.80
   2   0 -13    3.62    1.33
   2   0 -13    2.93    1.63
   2   0 -13    6.35    2.12
   2   0 -13    7.46    2.32
   2   0 -13    1.71    3.34
   2   0 -13    3.84    2.20
  -2   0  13    1.32    1.62
  -2   0  13    3.44    0.98
  -2   0  13    4.58    0.78
  -2   0  13   -0.44    1.76
  -2   0  13    4.00    1.42
  -2   0  13    2.25    2.53
  -2   0  13    3.38    1.49
   1   0 -13   12.79    2.05
   1   0 -13   13.81    2.07
   1   0 -13   13.82    1.44
   1   0 -13   15.56    1.81
   1   0 -13   13.58    1.75
   1   0 -13   13.91    1.88
  -1   0  13   13.96    1.70
  -1   0  13   12.67    1.71
  -1   0  13   14.76    1.46
  -1   0  13   15.96    1.69
  -1   0  13   13.65    1.54
   0   0 -13   28.13    2.05
   0   0 -13   27.13    1.91
   0   0 -13   29.76    2.20
   0   0 -13   36.43    2.64
   0   0 -13   25.52    2.18
   0   0 -13   26.78    1.88
   0   0 -13   30.23    2.76
   0   0 -13   26.03    1.81
   0   0  13   30.19    1.87
   0   0  13   25.46    1.82
   0   0  13   29.73    2.23
   0   0  13   29.27    2.46
   0   0  13   30.80    2.26
  -1   0 -13    0.49    1.37
  -1   0 -13   -0.77    1.25
  -1   0 -13    1.65    1.58
  -1   0 -13   -0.41    1.44
  -1   0 -13    1.67    1.45
  -1   0 -13   -0.79    1.23
  -1   0 -13   -0.46    1.30
   1   0  13    1.43    1.26
   1   0  13   -0.51    1.21
   1   0  13    0.58    1.15
   1   0  13    0.24    1.23
   1   0  13    0.83    1.18
  -2   0 -13    8.06    1.31
  -2   0 -13    7.93    1.46
  -2   0 -13    7.98    1.61
  -2   0 -13    8.14    1.53
  -2   0 -13    6.98    1.40
  -2   0 -13   11.86    1.66
  -2   0 -13    5.56    1.34
   2   0  13    7.49    1.29
   2   0  13    6.71    1.36
   2   0  13    5.08    1.30
   2   0  13    8.45    1.39
   2   0  13    6.66    1.31
  -3   0 -13    4.64    1.55
  -3   0 -13    3.55    1.37
  -3   0 -13    6.38    1.61
  -3   0 -13    6.39    1.59
  -3   0 -13    4.91    1.50
  -3   0 -13    5.19    1.36
  -3   0 -13    5.68    1.31
   3   0  13    5.40    1.56
   3   0  13    6.38    1.32
   3   0  13    5.60    1.50
   3   0  13    5.60    1.32
   3   0  13    7.79    1.29
  -4   0 -13    3.72    1.70
  -4   0 -13   -0.30    1.44
  -4   0 -13    0.63    1.68
  -4   0 -13    2.36    1.76
  -4   0 -13    1.64    1.87
  -4   0 -13    2.24    1.22
   4   0  13    3.70    1.25
   4   0  13    1.19    1.25
   4   0  13   -2.93    1.56
   4   0  13    2.24    1.61
   4   0  13    2.14    1.37
   4   0  13    2.85    1.33
  -5   0 -13    6.06    2.19
  -5   0 -13    9.45    0.93
  -5   0 -13   10.87    2.12
  -5   0 -13    7.65    1.80
  -5   0 -13    7.71    1.50
  -5   0 -13   11.89    3.17
   5   0  13    4.79    1.93
   5   0  13    8.65    1.96
   5   0  13   10.36    0.92
   5   0  13   10.41    1.44
   2  -1 -13    1.48    2.05
   2  -1 -13   -0.08    2.07
   2  -1 -13   -0.01    1.99
   2  -1 -13    1.84    1.82
   2  -1 -13    0.05    1.48
   2  -1 -13   -1.22    1.35
   2  -1 -13   -1.85    1.76
   2  -1 -13    2.13    1.74
  -2   1  13    2.68    1.81
  -2   1  13   -0.86    1.29
  -2   1  13   -1.68    1.33
  -2   1  13    0.14    1.71
  -2   1  13    0.03    1.74
   1  -1 -13    3.58    1.41
   1  -1 -13    0.25    1.73
   1  -1 -13    0.43    1.41
   1  -1 -13    3.31    1.81
   1  -1 -13    2.83    1.45
   1  -1 -13    3.13    1.70
   1  -1 -13    0.70    1.23
   1  -1 -13    2.50    1.62
  -1   1  13    5.07    1.63
  -1   1  13    1.10    1.15
  -1   1  13    1.87    1.18
  -1   1  13    3.63    1.52
  -1   1  13    2.22    1.21
   0  -1 -13    1.41    1.19
   0  -1 -13    1.99    1.71
   0  -1 -13    2.25    1.38
   0  -1 -13    3.63    1.49
   0  -1 -13   -2.04    1.38
   0  -1 -13    3.00    1.29
   0  -1 -13    1.77    1.48
   0  -1 -13   -0.58    1.15
   0   1  13    0.05    1.12
   0   1  13    0.91    1.27
   0   1  13    1.56    1.10
   0   1  13    1.23    1.27
   0   1  13    2.65    1.25
  -1  -1 -13   -0.95    1.42
  -1  -1 -13   -0.18    1.24
  -1  -1 -13    1.44    1.22
  -1  -1 -13   -1.28    1.29
  -1  -1 -13    0.54    1.19
  -1  -1 -13    1.34    1.21
  -1  -1 -13    2.96    1.40
  -1  -1 -13    0.46    1.23
   1   1  13   -0.20    1.06
   1   1  13    0.55    1.06
   1   1  13    0.35    1.03
   1   1  13    0.74    1.23
   1   1  13    1.28    1.19
  -2  -1 -13   -0.02    1.34
  -2  -1 -13    3.05    1.19
  -2  -1 -13    5.09    1.39
  -2  -1 -13    2.04    1.45
  -2  -1 -13    3.82    1.18
  -2  -1 -13    5.04    1.32
  -2  -1 -13    3.70    1.30
   2   1  13    4.14    1.30
   2   1  13    3.10    1.07
   2   1  13    4.77    1.16
   2   1  13    3.85    1.29
   2   1  13    0.72    1.15
  -3  -1 -13   42.85    2.41
  -3  -1 -13   36.85    2.28
  -3  -1 -13   41.57    2.24
  -3  -1 -13   35.95    2.70
  -3  -1 -13   45.77    2.61
  -3  -1 -13   44.37    2.70
  -3  -1 -13   42.86    2.67
   3   1  13   44.44    2.40
   3   1  13   42.01    2.24
   3   1  13   43.92    2.39
   3   1  13   39.82    2.53
   3   1  13   39.39    2.53
  -4  -1 -13   21.23    1.99
  -4  -1 -13   19.06    1.88
  -4  -1 -13   18.64    1.68
  -4  -1 -13   20.03    1.43
  -4  -1 -13   22.21    1.81
  -4  -1 -13   18.51    1.45
  -4  -1 -13   15.55    1.55
   4   1  13   20.68    1.56
   4   1  13   19.26    1.36
   4   1  13   17.49    1.75
   4   1  13   19.65    1.57
   4   1  13   16.18    1.65
  -5  -1 -13   41.06    2.82
  -5  -1 -13   32.23    2.63
  -5  -1 -13   31.55    2.13
  -5  -1 -13   36.54    3.09
  -5  -1 -13   32.83    2.25
  -5  -1 -13   27.55    2.32
   5   1  13   36.89    2.51
   5   1  13   34.53    2.91
   5   1  13   32.26    2.58
   2  -2 -13   17.55    1.82
   2  -2 -13   17.63    2.38
   2  -2 -13   15.86    2.57
   2  -2 -13   19.22    2.36
   2  -2 -13   16.68    2.19
   2  -2 -13   17.38    1.66
  -2   2  13   16.93    1.59
  -2   2  13   20.81    2.15
  -2   2  13   17.10    1.66
  -2   2  13   17.11    1.70
   1  -2 -13    0.04    1.49
   1  -2 -13    0.90    1.84
   1  -2 -13   -0.48    1.92
   1  -2 -13    3.28    1.62
   1  -2 -13    0.45    1.34
   1  -2 -13   -0.84    1.45
   1  -2 -13    4.09    1.76
   1  -2 -13   -0.52    1.30
  -1   2  13    0.69    1.20
  -1   2  13    2.92    1.68
  -1   2  13    0.36    1.57
  -1   2  13    0.19    1.21
  -1   2  13   -0.25    1.22
   0  -2 -13    6.96    1.42
   0  -2 -13    5.57    1.42
   0  -2 -13    6.28    1.43
   0  -2 -13    3.87    1.48
   0  -2 -13    3.94    1.64
   0  -2 -13    3.25    1.30
   0  -2 -13    4.62    1.32
   0  -2 -13    4.24    1.50
   0   2  13    4.44    1.40
   0   2  13    3.92    1.21
   0   2  13    5.92    1.13
   0   2  13    4.91    1.12
   0   2  13    3.02    1.43
  -1  -2 -13   10.20    1.43
  -1  -2 -13   11.38    1.42
  -1  -2 -13   10.97    1.48
  -1  -2 -13    9.08    1.43
  -1  -2 -13   11.38    1.42
  -1  -2 -13   13.02    1.47
  -1  -2 -13    7.48    1.36
  -1  -2 -13    9.20    1.63
   1   2  13   11.83    1.33
   1   2  13   10.91    1.16
   1   2  13   10.31    1.22
   1   2  13    8.87    1.46
   1   2  13   11.77    1.36
  -2  -2 -13    6.35    1.25
  -2  -2 -13    7.42    1.22
  -2  -2 -13    5.40    1.41
  -2  -2 -13    7.66    1.29
  -2  -2 -13    7.32    1.34
  -2  -2 -13    7.84    1.32
  -2  -2 -13    8.12    1.19
  -2  -2 -13    6.18    1.43
   2   2  13    7.01    1.17
   2   2  13    6.44    1.23
   2   2  13   10.00    1.43
   2   2  13    8.97    1.31
   2   2  13    8.07    1.31
  -3  -2 -13   51.88    2.42
  -3  -2 -13   59.80    3.37
  -3  -2 -13   57.20    2.94
  -3  -2 -13   53.71    2.77
  -3  -2 -13   55.56    2.76
  -3  -2 -13   56.01    2.38
  -3  -2 -13   59.41    2.55
   3   2  13   61.24    2.37
   3   2  13   54.97    2.32
   3   2  13   54.78    2.67
   3   2  13   57.03    2.52
   3   2  13   56.91    2.68
  -4  -2 -13   17.41    1.64
  -4  -2 -13   15.44    1.91
  -4  -2 -13   16.51    2.12
  -4  -2 -13   16.53    1.66
  -4  -2 -13   18.28    1.56
  -4  -2 -13   14.73    1.38
  -4  -2 -13   14.41    1.85
   4   2  13   17.00    1.30
   4   2  13   16.48    1.50
   4   2  13   17.04    1.39
   4   2  13   17.43    1.59
   4   2  13   16.03    1.74
  -5  -2 -13    2.72    1.71
  -5  -2 -13    0.33    1.40
  -5  -2 -13    1.25    1.34
  -5  -2 -13    2.89    1.48
  -5  -2 -13    3.72    1.60
  -5  -2 -13    2.51    1.50
  -5  -2 -13    1.00    1.17
   5   2  13    1.15    1.35
   5   2  13    2.46    1.27
   5   2  13    3.58    1.11
   5   2  13    4.63    1.52
  -6  -2 -13    6.86    1.48
   6   2  13    4.08    1.85
   2  -3 -13    7.30    2.11
   2  -3 -13    8.56    1.92
   2  -3 -13    3.73    2.58
   2  -3 -13    3.64    2.14
   2  -3 -13    4.50    2.16
   2  -3 -13    7.82    1.89
  -2   3  13    1.74    1.94
  -2   3  13    7.11    1.63
  -2   3  13    8.57    1.50
  -2   3  13    5.87    1.74
   1  -3 -13   19.16    1.74
   1  -3 -13   21.61    2.20
   1  -3 -13   19.11    1.79
   1  -3 -13   24.10    1.91
   1  -3 -13   22.43    2.43
   1  -3 -13   23.32    1.75
   1  -3 -13   21.71    2.03
   1  -3 -13   22.33    2.06
  -1   3  13   17.76    1.66
  -1   3  13   12.36    1.70
  -1   3  13   21.82    1.95
  -1   3  13   19.29    1.49
  -1   3  13   20.33    1.54
   0  -3 -13   60.95    2.95
   0  -3 -13   61.10    3.60
   0  -3 -13   59.56    2.94
   0  -3 -13   66.02    2.79
   0  -3 -13   61.49    2.98
   0  -3 -13   59.16    2.85
   0  -3 -13   61.74    3.20
   0  -3 -13   67.79    3.14
   0   3  13   57.46    3.06
   0   3  13   59.85    2.66
   0   3  13   58.11    2.53
   0   3  13   59.58    2.37
   0   3  13   64.97    2.99
  -1  -3 -13    4.01    1.63
  -1  -3 -13    3.42    1.37
  -1  -3 -13    4.40    1.49
  -1  -3 -13    4.12    1.45
  -1  -3 -13    2.31    1.36
  -1  -3 -13    2.75    1.34
  -1  -3 -13    2.22    1.32
  -1  -3 -13    3.15    1.32
   1   3  13    3.64    1.16
   1   3  13    5.89    1.07
   1   3  13    4.07    1.31
   1   3  13    3.51    1.15
   1   3  13    4.25    1.28
  -2  -3 -13    0.33    1.23
  -2  -3 -13    0.68    1.30
  -2  -3 -13    0.28    1.21
  -2  -3 -13    0.31    1.45
  -2  -3 -13    2.31    1.37
  -2  -3 -13    0.38    1.19
  -2  -3 -13    0.70    1.38
  -2  -3 -13   -0.09    1.25
   2   3  13    1.42    1.38
   2   3  13    0.93    1.15
   2   3  13    0.87    1.03
   2   3  13    1.00    1.01
   2   3  13    0.89    1.17
  -3  -3 -13   -0.60    1.63
  -3  -3 -13   -0.38    1.39
  -3  -3 -13   -0.54    1.19
  -3  -3 -13   -1.16    1.24
  -3  -3 -13   -0.98    1.32
  -3  -3 -13   -0.25    1.46
  -3  -3 -13    0.31    1.21
   3   3  13    0.23    1.08
   3   3  13   -0.20    1.31
   3   3  13   -0.53    1.06
   3   3  13   -1.05    1.37
   3   3  13    0.80    1.01
  -4  -3 -13   -0.21    1.25
  -4  -3 -13    0.21    1.39
  -4  -3 -13   -1.41    1.21
  -4  -3 -13   -0.63    1.22
  -4  -3 -13    0.64    1.24
  -4  -3 -13    0.80    1.77
  -4  -3 -13    0.77    1.32
   4   3  13   -0.48    1.05
   4   3  13    0.71    1.06
   4   3  13    1.17    1.48
   4   3  13   -0.93    1.46
   4   3  13    1.48    1.18
  -5  -3 -13    8.97    1.56
  -5  -3 -13    5.63    1.52
  -5  -3 -13    7.49    1.48
  -5  -3 -13    7.65    1.36
  -5  -3 -13    7.36    1.39
  -5  -3 -13    6.79    1.57
  -5  -3 -13    6.00    1.93
   5   3  13    9.12    1.72
   5   3  13    7.68    1.24
   5   3  13    7.76    1.11
  -6  -3 -13   10.01    1.56
   1  -4 -13    3.23    2.26
   1  -4 -13   -0.72    1.60
   1  -4 -13    0.29    2.04
   1  -4 -13    1.32    1.91
   1  -4 -13    1.52    2.36
   1  -4 -13   -0.73    1.86
  -1   4  13    1.38    1.83
  -1   4  13    0.99    1.27
  -1   4  13    0.50    1.40
   0  -4 -13   34.34    2.46
   0  -4 -13   38.12    2.79
   0  -4 -13   35.28    2.66
   0  -4 -13   28.30    2.17
   0  -4 -13   36.00    3.04
   0  -4 -13   30.95    2.98
   0  -4 -13   25.90    1.91
   0   4  13   29.00    1.90
   0   4  13   32.61    2.36
   0   4  13   30.50    2.40
   0   4  13   35.30    2.16
   0   4  13   28.50    2.15
  -1  -4 -13    2.85    1.61
  -1  -4 -13    3.61    1.53
  -1  -4 -13    3.19    1.35
  -1  -4 -13    5.71    1.43
  -1  -4 -13    4.64    1.75
  -1  -4 -13    3.71    1.58
  -1  -4 -13    4.80    1.50
  -1  -4 -13    2.57    1.62
   1   4  13    4.32    1.07
   1   4  13    1.57    1.63
   1   4  13    4.52    1.23
   1   4  13    1.85    1.42
   1   4  13    3.97    1.20
  -2  -4 -13   11.22    1.66
  -2  -4 -13    8.10    1.43
  -2  -4 -13    9.25    1.49
  -2  -4 -13    8.86    1.36
  -2  -4 -13    8.24    1.57
  -2  -4 -13    6.34    1.55
  -2  -4 -13    8.64    1.43
  -2  -4 -13    9.68    1.67
   2   4  13    8.11    1.71
   2   4  13   10.35    1.33
   2   4  13    8.05    1.16
   2   4  13    7.26    1.33
   2   4  13    7.88    1.10
  -3  -4 -13    7.01    1.65
  -3  -4 -13    3.56    1.38
  -3  -4 -13    5.89    1.35
  -3  -4 -13    4.19    1.36
  -3  -4 -13    6.02    1.32
  -3  -4 -13    4.27    1.62
  -3  -4 -13    5.54    1.59
  -3  -4 -13    6.69    1.34
   3   4  13    4.39    1.12
   3   4  13    5.83    1.44
   3   4  13    6.32    1.06
   3   4  13    7.32    1.21
   3   4  13    8.12    1.73
  -4  -4 -13   19.36    1.51
  -4  -4 -13   20.00    1.60
  -4  -4 -13   20.70    1.55
  -4  -4 -13   20.10    1.74
  -4  -4 -13   25.47    2.31
  -4  -4 -13   19.19    1.97
  -4  -4 -13   20.92    1.98
  -4  -4 -13   20.75    1.55
   4   4  13   21.59    2.02
   4   4  13   19.69    1.79
   4   4  13   20.72    1.75
   4   4  13   19.16    1.79
  -5  -4 -13   76.36    3.13
  -5  -4 -13   84.49    3.09
  -5  -4 -13   82.15    3.27
  -5  -4 -13   86.40    3.41
  -5  -4 -13   90.06    3.27
   0  -5 -13   49.37    4.25
   0  -5 -13   47.75    3.01
   0  -5 -13   49.89    3.14
   0  -5 -13   44.96    3.63
   0   5  13   41.33    2.61
  -1  -5 -13    4.29    1.55
  -1  -5 -13    2.55    1.90
  -1  -5 -13    5.66    1.70
  -1  -5 -13    7.54    1.89
  -1  -5 -13    1.03    1.71
  -1  -5 -13    2.08    1.42
  -1  -5 -13    6.59    2.01
   1   5  13    4.39    1.97
   1   5  13    3.75    1.77
   1   5  13    5.08    1.15
   1   5  13    2.83    1.24
   1   5  13    4.27    1.34
  -2  -5 -13    7.16    1.67
  -2  -5 -13    3.86    1.77
  -2  -5 -13    4.75    1.80
  -2  -5 -13    7.71    1.42
  -2  -5 -13    4.87    1.85
  -2  -5 -13   10.06    1.86
  -2  -5 -13    6.30    1.46
  -2  -5 -13    6.11    1.52
   2   5  13    9.53    2.03
   2   5  13    5.04    1.48
   2   5  13    6.97    1.09
   2   5  13    5.19    1.90
   2   5  13    6.23    1.49
   2   5  13    6.03    1.16
  -3  -5 -13   -1.26    1.80
  -3  -5 -13    0.25    1.30
  -3  -5 -13    0.65    1.39
  -3  -5 -13   -1.78    1.57
  -3  -5 -13    0.09    1.59
  -3  -5 -13    0.05    1.81
  -3  -5 -13    1.27    1.31
  -3  -5 -13   -0.83    1.76
   3   5  13   -0.11    1.00
   3   5  13   -0.60    1.86
   3   5  13    2.49    1.46
   3   5  13   -0.51    1.15
  -4  -5 -13   57.12    2.76
  -4  -5 -13   60.73    2.87
  -4  -5 -13   51.62    2.96
  -4  -5 -13   47.89    2.65
  -4  -5 -13   58.46    3.17
  -5  -5 -13    0.00    1.57
  -5  -5 -13    1.64    1.70
   0   1 -14   46.58    4.02
   0   1 -14   43.60    2.98
   0   1 -14   44.80    3.85
   0   1 -14   47.67    2.99
   0   1 -14   47.74    2.76
   0   1 -14   52.41    3.56
   0  -1  14   50.96    3.40
   0  -1  14   42.48    3.59
   0  -1  14   45.28    3.49
  -1   1 -14    8.31    1.96
  -1   1 -14   12.89    2.44
  -1   1 -14   13.79    2.25
  -1   1 -14   11.78    1.91
  -1   1 -14    8.41    4.77
  -1   1 -14   11.33    2.01
   1  -1  14    8.28    1.75
   1  -1  14    6.99    1.70
   1  -1  14    7.33    1.88
   1  -1  14    9.85    2.05
  -2   1 -14    3.76    1.87
  -2   1 -14   -1.51    2.00
  -2   1 -14    3.52    1.78
  -2   1 -14    0.41    2.07
  -2   1 -14    0.22    2.17
  -2   1 -14    0.95    1.79
   2  -1  14   -0.01    1.76
   2  -1  14    0.60    2.01
   2  -1  14    1.92    1.72
   2  -1  14    0.77    1.98
  -3   1 -14    3.28    2.10
  -3   1 -14    4.30    1.82
  -3   1 -14    6.30    2.38
  -3   1 -14    6.19    2.31
  -3   1 -14    5.03    2.07
   3  -1  14    4.78    1.76
   3  -1  14    6.23    2.29
   1   0 -14    7.83    1.65
   1   0 -14   11.70    1.64
   1   0 -14    8.62    2.46
   1   0 -14    9.89    2.45
   1   0 -14    7.40    2.25
   1   0 -14    8.26    2.49
  -1   0  14    8.47    1.79
  -1   0  14   11.36    1.75
  -1   0  14   10.32    2.07
   0   0 -14    3.08    1.81
   0   0 -14    1.46    1.58
   0   0 -14    0.98    1.53
   0   0 -14    3.41    2.34
   0   0 -14   -0.70    2.01
   0   0 -14    0.02    1.82
   0   0  14    1.79    1.67
   0   0  14    0.02    1.48
   0   0  14    1.64    1.78
   0   0  14    1.42    1.78
  -1   0 -14    2.57    1.99
  -1   0 -14    2.24    1.89
  -1   0 -14   -1.78    1.99
  -1   0 -14    2.60    1.94
  -1   0 -14    2.43    1.63
  -1   0 -14    0.01    1.52
  -1   0 -14    1.30    1.56
  -1   0 -14    0.60    1.66
   1   0  14   -2.29    1.57
   1   0  14    0.30    1.48
   1   0  14   -2.92    1.56
   1   0  14   -0.61    1.39
   1   0  14    0.85    1.79
  -2   0 -14   17.52    1.78
  -2   0 -14   15.68    1.98
  -2   0 -14   17.50    2.17
  -2   0 -14   14.26    1.81
  -2   0 -14   14.53    1.87
  -2   0 -14   18.56    2.05
  -2   0 -14   17.83    1.87
   2   0  14   17.61    1.67
   2   0  14   16.42    1.80
   2   0  14   14.31    1.93
   2   0  14   15.36    1.71
   2   0  14   14.26    1.71
  -3   0 -14    1.69    1.67
  -3   0 -14    3.20    1.94
  -3   0 -14    5.70    1.90
  -3   0 -14    0.26    2.23
  -3   0 -14   -0.34    1.81
  -3   0 -14   -0.18    1.60
   3   0  14    3.57    1.65
   3   0  14    2.58    1.50
   3   0  14    4.77    1.88
   3   0  14    0.34    1.89
  -4   0 -14    2.79    2.22
  -4   0 -14    2.53    2.03
  -4   0 -14    3.26    2.14
  -4   0 -14   -0.50    1.55
   4   0  14    1.36    1.60
   1  -1 -14    3.26    1.67
   1  -1 -14    1.30    2.31
   1  -1 -14   -0.36    2.05
   1  -1 -14   -2.15    2.09
   1  -1 -14    3.26    1.67
   1  -1 -14   -1.45    2.41
  -1   1  14    0.89    2.04
  -1   1  14    1.91    1.78
  -1   1  14    0.92    1.50
   0  -1 -14   -0.72    1.90
   0  -1 -14   -1.67    1.67
   0  -1 -14    1.32    1.69
   0  -1 -14    0.65    1.98
   0  -1 -14   -0.42    1.89
   0  -1 -14    1.16    1.91
   0  -1 -14   -1.22    1.55
   0  -1 -14   -2.39    1.54
   0   1  14   -0.21    1.70
   0   1  14   -0.04    1.40
   0   1  14   -2.08    1.72
   0   1  14    0.12    1.65
   0   1  14   -1.50    1.37
  -1  -1 -14    2.94    1.73
  -1  -1 -14    1.26    1.69
  -1  -1 -14   -0.48    1.61
  -1  -1 -14    0.64    1.87
  -1  -1 -14   -0.85    1.81
  -1  -1 -14    0.19    1.49
  -1  -1 -14   -0.25    1.52
  -1  -1 -14   -0.88    1.61
   1   1  14   -1.57    1.32
   1   1  14    1.50    1.53
   1   1  14   -0.15    1.50
   1   1  14   -0.57    1.33
   1   1  14    0.45    1.53
  -2  -1 -14   24.75    1.80
  -2  -1 -14   25.20    1.97
  -2  -1 -14   26.83    1.94
  -2  -1 -14   26.11    2.15
  -2  -1 -14   28.87    1.99
  -2  -1 -14   26.20    2.31
  -2  -1 -14   20.43    1.83
   2   1  14   24.15    1.85
   2   1  14   25.19    1.70
   2   1  14   24.24    1.91
   2   1  14   22.85    1.79
   2   1  14   21.53    1.72
  -3  -1 -14    2.16    1.80
  -3  -1 -14    1.01    1.83
  -3  -1 -14    0.18    1.77
  -3  -1 -14    4.96    1.66
  -3  -1 -14    1.53    1.46
  -3  -1 -14   -1.39    1.78
  -3  -1 -14    1.83    1.53
   3   1  14    1.22    1.58
   3   1  14   -1.68    1.52
   3   1  14    3.87    1.47
   3   1  14    0.12    1.42
   3   1  14   -0.55    1.59
  -4  -1 -14   18.60    1.68
  -4  -1 -14   15.35    2.21
  -4  -1 -14   15.48    2.06
  -4  -1 -14   20.14    2.21
   4   1  14   18.86    1.91
   4   1  14   19.87    2.32
   1  -2 -14   53.06    3.46
   1  -2 -14   53.62    3.28
   1  -2 -14   58.04    4.66
   1  -2 -14   51.12    3.97
   1  -2 -14   55.27    3.20
   1  -2 -14   62.87    4.33
  -1   2  14   48.48    3.30
  -1   2  14   55.99    3.78
   0  -2 -14    9.93    1.67
   0  -2 -14    9.39    1.81
   0  -2 -14   12.62    1.82
   0  -2 -14   11.26    2.07
   0  -2 -14   11.94    2.30
   0  -2 -14   11.37    1.98
   0  -2 -14   10.28    1.97
   0  -2 -14    9.38    1.78
   0   2  14    9.35    1.51
   0   2  14    9.01    1.62
   0   2  14   10.70    1.89
   0   2  14    6.17    1.46
   0   2  14   14.94    1.88
  -1  -2 -14    3.89    2.07
  -1  -2 -14    2.45    1.41
  -1  -2 -14    2.89    1.83
  -1  -2 -14    2.27    1.73
  -1  -2 -14    4.79    1.61
  -1  -2 -14    1.72    1.55
  -1  -2 -14    4.12    1.66
  -1  -2 -14    2.47    1.65
   1   2  14    3.25    1.48
   1   2  14    4.33    1.46
   1   2  14    5.31    1.61
   1   2  14    3.54    1.25
   1   2  14    5.09    1.71
  -2  -2 -14   -0.43    1.64
  -2  -2 -14   -1.74    1.55
  -2  -2 -14   -0.80    1.65
  -2  -2 -14    1.17    1.76
  -2  -2 -14   -2.54    1.49
  -2  -2 -14    1.32    1.47
  -2  -2 -14    2.09    1.60
  -2  -2 -14    1.52    1.66
   2   2  14   -0.14    1.61
   2   2  14   -0.70    1.41
   2   2  14    1.74    1.41
   2   2  14    1.09    1.48
   2   2  14    1.06    1.29
  -3  -2 -14   25.64    2.10
  -3  -2 -14   26.59    1.78
  -3  -2 -14   27.60    1.85
  -3  -2 -14   27.57    2.18
  -3  -2 -14   36.71    2.99
  -3  -2 -14   26.96    1.93
  -3  -2 -14   22.79    2.04
   3   2  14   23.90    1.73
   3   2  14   26.62    2.02
   3   2  14   33.33    2.48
   3   2  14   28.99    2.69
   3   2  14   31.74    2.06
  -4  -2 -14   -0.36    1.40
  -4  -2 -14    0.76    1.81
  -4  -2 -14    2.65    1.98
  -4  -2 -14    0.81    1.72
   4   2  14    3.83    1.63
   4   2  14    0.30    1.45
   4   2  14    0.44    1.68
   0  -3 -14    0.62    1.68
   0  -3 -14   -4.55    2.25
   0  -3 -14    2.64    1.95
   0  -3 -14    4.80    1.90
   0  -3 -14    2.10    2.03
   0  -3 -14    3.15    2.24
   0  -3 -14    0.54    1.67
   0   3  14    2.20    2.09
   0   3  14   -0.23    1.43
   0   3  14   -1.06    1.44
  -1  -3 -14   -1.48    1.75
  -1  -3 -14   -0.72    1.66
  -1  -3 -14    0.27    1.65
  -1  -3 -14    0.37    1.51
  -1  -3 -14    0.49    1.86
  -1  -3 -14    0.19    1.71
  -1  -3 -14    1.12    1.71
  -1  -3 -14    1.52    1.99
   1   3  14   -0.15    1.37
   1   3  14    2.18    1.59
   1   3  14    2.29    1.65
   1   3  14    2.05    1.42
   1   3  14    1.98    1.31
  -2  -3 -14   54.37    3.63
  -2  -3 -14   51.69    2.99
  -2  -3 -14   49.24    3.35
  -2  -3 -14   50.77    2.94
  -2  -3 -14   50.04    3.19
  -2  -3 -14   56.53    2.95
  -2  -3 -14   51.04    3.36
  -2  -3 -14   49.88    3.06
   2   3  14   47.24    2.92
   2   3  14   48.07    2.65
   2   3  14   55.50    3.29
   2   3  14   56.18    2.95
   2   3  14   56.28    2.62
  -3  -3 -14   -2.11    1.72
  -3  -3 -14   -1.47    1.71
  -3  -3 -14    0.22    1.79
  -3  -3 -14    1.25    1.39
  -3  -3 -14   -0.16    1.55
  -3  -3 -14   -0.14    1.54
  -3  -3 -14   -0.61    1.47
  -3  -3 -14    1.36    1.73
   3   3  14    0.60    1.69
   3   3  14    0.55    1.72
   3   3  14    0.60    1.30
   3   3  14    2.05    1.30
  -4  -3 -14    0.70    1.58
  -4  -3 -14    2.60    3.11
  -4  -3 -14    3.82    1.71
   4   3  14    2.03    1.37
   4   3  14    4.55    2.23
   4   3  14    3.73    1.89
   4   3  14    3.95    2.34
  -1  -4 -14   -0.96    1.55
  -1  -4 -14    0.27    2.17
  -1  -4 -14    1.99    1.74
  -1  -4 -14    3.38    2.01
  -1  -4 -14    3.17    1.83
   1   4  14    1.63    1.46
  -2  -4 -14    1.37    1.59
  -2  -4 -14   -1.77    1.59
  -2  -4 -14    1.79    1.52
  -2  -4 -14    2.61    1.99
  -2  -4 -14    1.03    1.96
  -2  -4 -14   -1.08    1.91
   2   4  14   -1.45    1.99
   2   4  14    1.93    1.95
   2   4  14   -1.35    1.24
   2   4  14    2.01    1.55
  -3  -4 -14   23.02    1.84
  -3  -4 -14   28.48    2.47
  -3  -4 -14   21.86    2.24
  -3  -4 -14   25.41    1.93
  -3  -4 -14   24.73    1.95
   3   4  14   23.39    2.01
   3   4  14   26.48    2.33
   3   4  14   30.74    2.33
  -4  -4 -14   -1.51    1.70
   4   4  14    1.43    2.89
   4   4  14    3.64    2.10
   4   4  14    0.46    1.21
   0   0   0    0.00    0.00


 _exptl_absorpt_process_details 'SADABS 2014/4'
 _exptl_absorpt_correction_type   multiscan
 _exptl_absorpt_correction_T_max  0.1876
 _exptl_absorpt_correction_T_min  0.1614
 _exptl_special_details
)
 The following wavelength and cell were deduced by SADABS from the
 direction cosines etc. They are given here for emergency use only:
 CELL 0.71076    7.088    7.105   11.155   79.690   78.502   78.276
)

_computing_structure_solution     'SHELXT 2014/5 (Sheldrick, 2014)'
;
_shelx_hkl_checksum              93227
_shelx_shelxl_version_number     2014/7
_olex2_submission_special_instructions 'No special instructions were received'
loop_
_space_group_symop_operation_xyz
'x, y, z'
'-x, -y, -z'
loop_
_atom_site_label
_atom_site_type_symbol
_atom_site_fract_x
_atom_site_fract_y
_atom_site_fract_z
_atom_site_U_iso_or_equiv
_atom_site_adp_type
_atom_site_occupancy
_atom_site_site_symmetry_order
_atom_site_calc_flag
_atom_site_refinement_flags_posn
O1 O -0.04474(10) 0.65902(10) 0.78591(6) 0.01807(17) Uani 1 1 d .
O2 O 0.39581(11) 0.30869(10) 0.38213(7) 0.02121(18) Uani 1 1 d .
H2 H 0.339(3) 0.288(3) 0.4701(17) 0.052(5) Uiso 1 1 d .
O3 O 0.34583(11) 1.06344(11) 0.14074(7) 0.02051(18) Uani 1 1 d .
H3 H 0.262(3) 1.149(3) 0.1848(16) 0.047(5) Uiso 1 1 d .
N1 N 0.06497(12) 0.32626(12) 0.80227(7) 0.01422(18) Uani 1 1 d .
N2 N 0.22986(12) 0.29460(12) 0.61169(8) 0.01486(18) Uani 1 1 d .
C1 C 0.04375(14) 0.51396(14) 0.74065(9) 0.0142(2) Uani 1 1 d .
C2 C 0.15320(13) 0.49237(13) 0.61530(9) 0.0137(2) Uani 1 1 d .
C3 C 0.17703(14) 0.20330(14) 0.72135(9) 0.0146(2) Uani 1 1 d .
C4 C 0.22678(15) -0.00859(14) 0.76082(10) 0.0188(2) Uani 1 1 d .
H4A H 0.2875 -0.0321 0.8350 0.028 Uiso 1 1 calc GR
H4B H 0.3183 -0.0684 0.6943 0.028 Uiso 1 1 calc GR
H4C H 0.1074 -0.0655 0.7793 0.028 Uiso 1 1 calc GR
C5 C -0.01167(15) 0.27159(15) 0.93226(9) 0.0185(2) Uani 1 1 d .
H5A H 0.0967 0.2321 0.9791 0.028 Uiso 1 1 calc GR
H5B H -0.0819 0.1631 0.9411 0.028 Uiso 1 1 calc GR
H5C H -0.1014 0.3828 0.9642 0.028 Uiso 1 1 calc GR
C6 C 0.17518(13) 0.64403(14) 0.52425(9) 0.0140(2) Uani 1 1 d .
H6 H 0.1099(19) 0.771(2) 0.5477(12) 0.021(3) Uiso 1 1 d .
C7 C 0.27661(13) 0.65580(14) 0.39699(9) 0.01407(19) Uani 1 1 d .
C8 C 0.37771(14) 0.49842(14) 0.33407(9) 0.0156(2) Uani 1 1 d .
C9 C 0.46673(14) 0.53785(15) 0.21015(9) 0.0176(2) Uani 1 1 d .
H9 H 0.5368(19) 0.427(2) 0.1668(12) 0.023(3) Uiso 1 1 d .
C10 C 0.45619(14) 0.72499(15) 0.14764(9) 0.0173(2) Uani 1 1 d .
H10 H 0.517(2) 0.749(2) 0.0615(13) 0.026(3) Uiso 1 1 d .
C11 C 0.35465(14) 0.88138(14) 0.20826(9) 0.0157(2) Uani 1 1 d .
C12 C 0.26899(14) 0.84649(14) 0.33057(9) 0.0151(2) Uani 1 1 d .
H12 H 0.2009(19) 0.958(2) 0.3750(12) 0.022(3) Uiso 1 1 d .
loop_
_atom_site_aniso_label
_atom_site_aniso_U_11
_atom_site_aniso_U_22
_atom_site_aniso_U_33
_atom_site_aniso_U_23
_atom_site_aniso_U_13
_atom_site_aniso_U_12
O1 0.0213(4) 0.0139(3) 0.0189(4) -0.0048(3) -0.0023(3) -0.0016(3)
O2 0.0284(4) 0.0115(3) 0.0195(4) -0.0021(3) 0.0020(3) 0.0001(3)
O3 0.0224(4) 0.0154(4) 0.0181(4) 0.0029(3) 0.0011(3) 0.0005(3)
N1 0.0161(4) 0.0127(4) 0.0136(4) -0.0008(3) -0.0024(3) -0.0028(3)
N2 0.0151(4) 0.0117(4) 0.0172(4) -0.0011(3) -0.0025(3) -0.0020(3)
C1 0.0145(4) 0.0140(4) 0.0152(4) -0.0017(3) -0.0045(3) -0.0037(3)
C2 0.0130(4) 0.0135(4) 0.0150(4) -0.0030(3) -0.0029(3) -0.0022(3)
C3 0.0132(4) 0.0138(4) 0.0172(4) -0.0025(3) -0.0035(3) -0.0024(3)
C4 0.0197(5) 0.0125(4) 0.0226(5) 0.0000(3) -0.0031(4) -0.0018(4)
C5 0.0227(5) 0.0187(5) 0.0132(4) 0.0000(3) -0.0021(4) -0.0048(4)
C6 0.0139(4) 0.0125(4) 0.0158(4) -0.0028(3) -0.0032(3) -0.0016(3)
C7 0.0129(4) 0.0139(4) 0.0157(4) -0.0018(3) -0.0036(3) -0.0021(3)
C8 0.0146(4) 0.0138(4) 0.0177(5) -0.0014(3) -0.0029(3) -0.0016(3)
C9 0.0166(4) 0.0171(5) 0.0178(5) -0.0043(4) -0.0009(4) -0.0005(4)
C10 0.0152(4) 0.0201(5) 0.0148(4) -0.0012(4) -0.0006(3) -0.0021(4)
C11 0.0137(4) 0.0149(4) 0.0172(4) 0.0011(3) -0.0033(3) -0.0021(3)
C12 0.0146(4) 0.0137(4) 0.0163(5) -0.0016(3) -0.0028(3) -0.0013(3)
loop_
_atom_type_symbol
_atom_type_description
_atom_type_scat_dispersion_real
_atom_type_scat_dispersion_imag
_atom_type_scat_source
C C 0.0033 0.0016 'International Tables Vol C Tables 4.2.6.8 and 6.1.1.4'
H H 0.0000 0.0000 'International Tables Vol C Tables 4.2.6.8 and 6.1.1.4'
N N 0.0061 0.0033 'International Tables Vol C Tables 4.2.6.8 and 6.1.1.4'
O O 0.0106 0.0060 'International Tables Vol C Tables 4.2.6.8 and 6.1.1.4'
loop_
_geom_angle_atom_site_label_1
_geom_angle_atom_site_label_2
_geom_angle_atom_site_label_3
_geom_angle
C8 O2 H2 112.9(11)
C11 O3 H3 109.1(11)
C1 N1 C3 108.64(8)
C1 N1 C5 124.70(8)
C3 N1 C5 126.61(8)
C3 N2 C2 106.77(8)
O1 C1 N1 125.52(9)
O1 C1 C2 130.95(9)
N1 C1 C2 103.52(8)
N2 C2 C1 108.27(8)
C6 C2 N2 128.30(9)
C6 C2 C1 123.40(9)
N1 C3 C4 121.48(9)
N2 C3 N1 112.80(8)
N2 C3 C4 125.72(9)
C3 C4 H4A 109.5
C3 C4 H4B 109.5
C3 C4 H4C 109.5
H4A C4 H4B 109.5
H4A C4 H4C 109.5
H4B C4 H4C 109.5
N1 C5 H5A 109.5
N1 C5 H5B 109.5
N1 C5 H5C 109.5
H5A C5 H5B 109.5
H5A C5 H5C 109.5
H5B C5 H5C 109.5
C2 C6 H6 114.5(8)
C2 C6 C7 132.37(9)
C7 C6 H6 113.1(8)
C8 C7 C6 126.86(9)
C8 C7 C12 117.97(9)
C12 C7 C6 115.16(8)
O2 C8 C7 125.77(9)
O2 C8 C9 115.35(9)
C9 C8 C7 118.88(9)
C8 C9 H9 118.3(8)
C10 C9 C8 121.88(9)
C10 C9 H9 119.8(8)
C9 C10 H10 120.7(8)
C9 C10 C11 119.78(9)
C11 C10 H10 119.5(8)
O3 C11 C10 117.14(9)
O3 C11 C12 123.49(9)
C12 C11 C10 119.38(9)
C7 C12 H12 118.4(8)
C11 C12 C7 122.10(9)
C11 C12 H12 119.5(8)
loop_
_geom_bond_atom_site_label_1
_geom_bond_atom_site_label_2
_geom_bond_distance
O1 C1 1.2273(12)
O2 H2 0.980(18)
O2 C8 1.3483(12)
O3 H3 0.897(18)
O3 C11 1.3712(11)
N1 C1 1.3797(12)
N1 C3 1.3862(12)
N1 C5 1.4550(12)
N2 C2 1.4039(12)
N2 C3 1.2993(13)
C1 C2 1.4747(13)
C2 C6 1.3524(13)
C3 C4 1.4804(13)
C4 H4A 0.9800
C4 H4B 0.9800
C4 H4C 0.9800
C5 H5A 0.9800
C5 H5B 0.9800
C5 H5C 0.9800
C6 H6 0.981(14)
C6 C7 1.4535(13)
C7 C8 1.4175(13)
C7 C12 1.4187(13)
C8 C9 1.4041(13)
C9 H9 0.993(14)
C9 C10 1.3809(14)
C10 H10 0.972(14)
C10 C11 1.3993(14)
C11 C12 1.3784(13)
C12 H12 0.999(14)
loop_
_geom_hbond_atom_site_label_D
_geom_hbond_atom_site_label_H
_geom_hbond_atom_site_label_A
_geom_hbond_distance_DH
_geom_hbond_distance_HA
_geom_hbond_distance_DA
_geom_hbond_angle_DHA
_geom_hbond_site_symmetry_A
O2 H2 N2 0.980(18) 1.619(19) 2.5886(11) 169.5(17) .
O3 H3 O1 0.897(18) 1.857(18) 2.6975(10) 155.2(16) 2_576
loop_
_geom_torsion_atom_site_label_1
_geom_torsion_atom_site_label_2
_geom_torsion_atom_site_label_3
_geom_torsion_atom_site_label_4
_geom_torsion
O1 C1 C2 N2 179.09(9)
O1 C1 C2 C6 0.74(16)
O2 C8 C9 C10 178.36(9)
O3 C11 C12 C7 178.38(9)
N1 C1 C2 N2 0.31(10)
N1 C1 C2 C6 -178.04(9)
N2 C2 C6 C7 1.33(17)
C1 N1 C3 N2 -0.43(11)
C1 N1 C3 C4 179.56(8)
C1 C2 C6 C7 179.32(9)
C2 N2 C3 N1 0.62(11)
C2 N2 C3 C4 -179.37(9)
C2 C6 C7 C8 2.25(17)
C2 C6 C7 C12 -178.62(10)
C3 N1 C1 O1 -178.82(9)
C3 N1 C1 C2 0.05(10)
C3 N2 C2 C1 -0.56(10)
C3 N2 C2 C6 177.67(10)
C5 N1 C1 O1 -1.34(15)
C5 N1 C1 C2 177.53(8)
C5 N1 C3 N2 -177.85(9)
C5 N1 C3 C4 2.14(15)
C6 C7 C8 O2 0.51(16)
C6 C7 C8 C9 179.68(9)
C6 C7 C12 C11 -178.66(9)
C7 C8 C9 C10 -0.90(15)
C8 C7 C12 C11 0.55(14)
C8 C9 C10 C11 0.08(15)
C9 C10 C11 O3 -178.72(9)
C9 C10 C11 C12 1.06(15)
C10 C11 C12 C7 -1.38(15)
C12 C7 C8 O2 -178.59(9)
C12 C7 C8 C9 0.58(14)
