#------------------------------------------------------------------------------
#$Date: 2019-11-23 05:44:52 +0200 (Sat, 23 Nov 2019) $
#$Revision: 232257 $
#$URL: file:///home/coder/svn-repositories/cod/cif/4/34/73/4347307.cif $
#------------------------------------------------------------------------------
#
# This file is available in the Crystallography Open Database (COD),
# http://www.crystallography.net/
#
# All data on this site have been placed in the public domain by the
# contributors.
#
data_4347307
loop_
_publ_author_name
'Kendall, Alexander J.'
'Zakharov, Lev N.'
'Tyler, David R.'
_publ_section_title
;
 Steric and Electronic Influences of Buchwald-Type Alkyl-JohnPhos Ligands.
;
_journal_issue                   6
_journal_name_full               'Inorganic chemistry'
_journal_page_first              3079
_journal_page_last               3090
_journal_paper_doi               10.1021/acs.inorgchem.5b02996
_journal_volume                  55
_journal_year                    2016
_chemical_formula_sum            'C32 H30 Cr O4 P2'
_chemical_formula_weight         592.50
_space_group_crystal_system      triclinic
_space_group_IT_number           2
_space_group_name_Hall           '-P 1'
_space_group_name_H-M_alt        'P -1'
_atom_sites_solution_hydrogens   difmap
_audit_creation_method           SHELXL-2013
_cell_angle_alpha                67.621(2)
_cell_angle_beta                 72.584(2)
_cell_angle_gamma                76.173(2)
_cell_formula_units_Z            1
_cell_length_a                   7.3216(3)
_cell_length_b                   9.6435(4)
_cell_length_c                   11.8158(4)
_cell_measurement_reflns_used    3694
_cell_measurement_temperature    173(2)
_cell_measurement_theta_max      66.56
_cell_measurement_theta_min      4.16
_cell_volume                     728.64(5)
_computing_cell_refinement       'Bruker SAINT'
_computing_data_collection       'Bruker APEX2'
_computing_data_reduction        'Bruker SAINT'
_computing_molecular_graphics    'Bruker SHELXTL'
_computing_publication_material  'Bruker SHELXTL'
_computing_structure_refinement  'SHELXL-2013 (Sheldrick 2013)'
_computing_structure_solution    'SHELXS-97 (Sheldrick 2008)'
_diffrn_ambient_temperature      173(2)
_diffrn_measured_fraction_theta_full 0.965
_diffrn_measured_fraction_theta_max 0.990
_diffrn_measurement_device_type  'Bruker APEX-II CCD'
_diffrn_measurement_method       '\f and \w scans'
_diffrn_radiation_type           CuK\a
_diffrn_radiation_wavelength     1.54178
_diffrn_reflns_av_R_equivalents  0.0432
_diffrn_reflns_av_unetI/netI     0.0429
_diffrn_reflns_Laue_measured_fraction_full 0.965
_diffrn_reflns_Laue_measured_fraction_max 0.990
_diffrn_reflns_limit_h_max       8
_diffrn_reflns_limit_h_min       -8
_diffrn_reflns_limit_k_max       11
_diffrn_reflns_limit_k_min       -11
_diffrn_reflns_limit_l_max       14
_diffrn_reflns_limit_l_min       -13
_diffrn_reflns_number            8026
_diffrn_reflns_point_group_measured_fraction_full 0.965
_diffrn_reflns_point_group_measured_fraction_max 0.990
_diffrn_reflns_theta_full        67.679
_diffrn_reflns_theta_max         66.661
_diffrn_reflns_theta_min         4.160
_diffrn_source                   'micro-focus Incoatec I\mS'
_exptl_absorpt_coefficient_mu    4.553
_exptl_absorpt_correction_T_max  0.7528
_exptl_absorpt_correction_T_min  0.6374
_exptl_absorpt_correction_type   multi-scan
_exptl_absorpt_process_details   SADABS
_exptl_crystal_colour            yellow
_exptl_crystal_density_diffrn    1.350
_exptl_crystal_description       cut-plate
_exptl_crystal_F_000             308
_exptl_crystal_size_max          0.100
_exptl_crystal_size_mid          0.070
_exptl_crystal_size_min          0.020
_refine_diff_density_max         0.290
_refine_diff_density_min         -0.262
_refine_diff_density_rms         0.052
_refine_ls_extinction_method     none
_refine_ls_goodness_of_fit_ref   1.057
_refine_ls_hydrogen_treatment    refall
_refine_ls_matrix_type           full
_refine_ls_number_parameters     238
_refine_ls_number_reflns         2550
_refine_ls_number_restraints     0
_refine_ls_restrained_S_all      1.057
_refine_ls_R_factor_all          0.0395
_refine_ls_R_factor_gt           0.0354
_refine_ls_shift/su_max          0.000
_refine_ls_shift/su_mean         0.000
_refine_ls_structure_factor_coef Fsqd
_refine_ls_weighting_details
'w=1/[\s^2^(Fo^2^)+(0.0511P)^2^+0.0877P] where P=(Fo^2^+2Fc^2^)/3'
_refine_ls_weighting_scheme      calc
_refine_ls_wR_factor_gt          0.0908
_refine_ls_wR_factor_ref         0.0934
_reflns_Friedel_coverage         0.000
_reflns_number_gt                2268
_reflns_number_total             2550
_reflns_threshold_expression     'I > 2\s(I)'
_cod_data_source_file            ic5b02996_si_002.cif
_cod_data_source_block           cu_dt34_0m
_cod_database_code               4347307
_shelx_space_group_comment
;
The symmetry employed for this shelxl refinement is uniquely defined
by the following loop, which should always be used as a source of
symmetry information in preference to the above space-group names.
They are only intended as comments.
;
_shelx_estimated_absorpt_t_min   0.659
_shelx_estimated_absorpt_t_max   0.914
_shelxl_version_number           2013-4
_shelx_res_file
;
TITL cu_dt34_0m in P-1
CELL 1.54178 7.3216 9.6435 11.8158 67.621 72.584 76.173
ZERR 1.00 0.0003 0.0004 0.0004 0.002 0.002 0.002
LATT 1
SFAC C  H  O  Cr P
UNIT 32  30  4  1  2
omit -3
L.S. 8
ACTA
BOND $H
FMAP 2
PLAN 30
CONF
HTAB
TEMP -100.000
SIZE 0.02 0.07 0.10
WGHT    0.051100    0.087700
FVAR       0.32791
CR1   4    0.500000    0.500000    1.000000    10.50000    0.02334    0.01827 =
         0.02217   -0.00774   -0.00683   -0.00083
P1    5    0.561141    0.716569    0.827390    11.00000    0.02266    0.02090 =
         0.02447   -0.00716   -0.00636   -0.00184
O1    3    0.507916    0.676218    1.162501    11.00000    0.07235    0.04307 =
         0.04326   -0.02549   -0.01607   -0.01012
O2    3    0.067879    0.604245    1.047813    11.00000    0.02816    0.03798 =
         0.05482   -0.01918   -0.00874    0.00277
C1    1    0.735285    0.819107    0.835853    11.00000    0.02915    0.03038 =
         0.04139   -0.01006   -0.00969   -0.00787
C2    1    0.685975    0.685834    0.677347    11.00000    0.02645    0.03265 =
         0.02796   -0.00991   -0.00328    0.00046
C3    1    0.360300    0.872439    0.794478    11.00000    0.02559    0.01820 =
         0.02731   -0.00554   -0.00397   -0.00428
C4    1    0.312182    0.966874    0.867311    11.00000    0.03500    0.03476 =
         0.03973   -0.01812   -0.01184   -0.00060
C5    1    0.172301    1.092891    0.847954    11.00000    0.04053    0.03112 =
         0.05448   -0.02580   -0.01050    0.00299
C6    1    0.078235    1.128763    0.752907    11.00000    0.03120    0.02334 =
         0.06168   -0.01287   -0.01195    0.00322
C7    1    0.119891    1.035387    0.681643    11.00000    0.02645    0.02652 =
         0.03876   -0.00710   -0.01144   -0.00097
C8    1    0.256183    0.904318    0.702912    11.00000    0.02200    0.02176 =
         0.02582   -0.00449   -0.00304   -0.00556
C9    1    0.273439    0.803837    0.629950    11.00000    0.02064    0.02794 =
         0.02886   -0.00899   -0.00991    0.00209
C10   1    0.227253    0.657175    0.690291    11.00000    0.02651    0.03017 =
         0.03578   -0.01264   -0.00763   -0.00136
C11   1    0.233548    0.566089    0.622312    11.00000    0.03131    0.03483 =
         0.05810   -0.02320   -0.01575    0.00090
C12   1    0.288049    0.621172    0.491847    11.00000    0.04702    0.05591 =
         0.05983   -0.04041   -0.02903    0.01644
C13   1    0.337609    0.764236    0.431076    11.00000    0.05311    0.05292 =
         0.03271   -0.02048   -0.01612    0.01026
C14   1    0.329239    0.855360    0.498790    11.00000    0.03702    0.03813 =
         0.03236   -0.00949   -0.01282    0.00059
C15   1    0.507994    0.606761    1.102153    11.00000    0.03645    0.02684 =
         0.02775   -0.00747   -0.00929   -0.00422
C16   1    0.231410    0.563644    1.028298    11.00000    0.02867    0.02121 =
         0.02697   -0.00752   -0.00615   -0.00301
H1A   2    0.756655    0.913917    0.762536    11.00000    0.04863
H1B   2    0.688679    0.848206    0.907059    11.00000    0.04610
H1C   2    0.856108    0.745378    0.846219    11.00000    0.05012
H2A   2    0.702874    0.780815    0.607090    11.00000    0.03882
H2B   2    0.807747    0.626584    0.691084    11.00000    0.03469
H2C   2    0.616575    0.625985    0.659687    11.00000    0.04004
H4    2    0.378400    0.942939    0.933817    11.00000    0.04313
H5    2    0.140917    1.147437    0.895539    11.00000    0.04152
H6    2   -0.014706    1.211811    0.740111    11.00000    0.04696
H7    2    0.051419    1.058090    0.616797    11.00000    0.03329
H10   2    0.193117    0.629538    0.775825    11.00000    0.03477
H11   2    0.202215    0.467763    0.667333    11.00000    0.04769
H12   2    0.290042    0.561068    0.450206    11.00000    0.05710
H13   2    0.374418    0.794529    0.341680    11.00000    0.04954
H14   2    0.362338    0.953906    0.457131    11.00000    0.05693
HKLF 4 1 1 0 0 0 1 0 0 0 1

REM  cu_dt34_0m in P-1
REM R1 =  0.0354 for    2268 Fo > 4sig(Fo)  and  0.0395 for all    2550 data
REM    238 parameters refined using      0 restraints

END

WGHT      0.0490      0.1102

REM No hydrogen bonds found for HTAB generation

REM Highest difference peak  0.290,  deepest hole -0.262,  1-sigma level  0.052
Q1    1   0.4425  0.7971  0.8141  11.00000  0.05    0.29
Q2    1   0.6513  0.7058  0.7484  11.00000  0.05    0.26
Q3    1   0.3958  0.5148  1.0754  11.00000  0.05    0.25
Q4    1   0.3871  0.5964  0.9876  11.00000  0.05    0.23
Q5    1   0.2105  0.7518  0.6612  11.00000  0.05    0.22
Q6    1   0.1719  0.6369  0.7425  11.00000  0.05    0.22
Q7    1   0.2688  0.8614  0.7682  11.00000  0.05    0.20
Q8    1   0.4461  0.5090  0.9225  11.00000  0.05    0.20
Q9    1   0.1207  0.6034  1.0977  11.00000  0.05    0.19
Q10   1   0.3045  0.9273  0.9634  11.00000  0.05    0.19
Q11   1   0.5820  0.6548  1.2172  11.00000  0.05    0.19
Q12   1   0.5353  0.6182  0.8863  11.00000  0.05    0.19
Q13   1   0.7913  0.8341  0.7730  11.00000  0.05    0.17
Q14   1   0.2551  0.8377  0.5727  11.00000  0.05    0.17
Q15   1   0.2981  0.6394  1.0927  11.00000  0.05    0.17
Q16   1   0.3797  0.9365  0.8021  11.00000  0.05    0.17
Q17   1   0.3559  0.9050  0.7375  11.00000  0.05    0.17
Q18   1   0.8250  0.8053  0.8100  11.00000  0.05    0.17
Q19   1   0.2794  1.0465  0.8378  11.00000  0.05    0.17
Q20   1   0.2077  1.2225  0.8601  11.00000  0.05    0.16
Q21   1   0.1547  1.0951  0.7009  11.00000  0.05    0.16
Q22   1   0.4622  0.7319  0.8941  11.00000  0.05    0.16
Q23   1   0.1704  1.1305  0.7718  11.00000  0.05    0.16
Q24   1   0.1417  0.9523  0.7113  11.00000  0.05    0.16
Q25   1   0.4973  0.6526  1.0263  11.00000  0.05    0.16
Q26   1   0.7877  0.5574  0.7329  11.00000  0.05    0.15
Q27   1   0.1849  0.6389  0.6436  11.00000  0.05    0.15
Q28   1   0.7035  0.4978  1.1008  11.00000  0.05    0.15
Q29   1   0.3104  0.6965  0.9174  11.00000  0.05    0.15
Q30   1   0.2531  0.8556  0.6721  11.00000  0.05    0.15
;
_shelx_res_checksum              47386
_shelx_hkl_file
;
  -1   0   0  396.52   23.58
  -1   0   0  398.71   16.55
  -1   0   0  403.15   17.96
   1   0   0  439.25   16.07
   1   0   0  405.20   18.96
  -2   0   0   41.81    1.73
  -2   0   0   42.36    2.78
   2   0   0   46.50    2.80
   2   0   0   41.14    1.92
   2   0   0   44.81    2.27
  -3   0   0   15.42    0.77
   3   0   0   14.31    0.90
   3   0   0   13.56    1.06
   3   0   0   15.42    1.29
   4   0   0   98.09    4.45
   4   0   0  106.65    6.46
   4   0   0   98.01    5.24
   5   0   0   75.98    5.06
   5   0   0   70.11    3.69
   5   0   0   74.60    3.57
   5   0   0   67.83    4.11
  -6   0   0    0.70    0.41
  -6   0   0    0.59    0.44
   6   0   0    0.53    0.36
  -7   0   0    2.21    1.15
  -7   0   0    3.07    0.64
   7   0   0    2.52    0.53
  -8   0   0   -0.49    0.48
  -8   0   0    0.04    0.25
   8   0   0    0.19    0.26
   7  -1   0   26.89    1.92
  -7   1   0   31.66    2.02
  -7   1   0   21.92    2.98
   6  -1   0   24.80    1.83
  -6   1   0   28.59    2.33
  -6   1   0   19.30    2.78
  -6   1   0   26.83    1.95
   5  -1   0   19.77    1.98
   5  -1   0   20.69    1.76
   5  -1   0   20.37    1.46
   4  -1   0  313.55   19.03
   4  -1   0  331.35   13.09
   4  -1   0  317.93   15.46
   3  -1   0  386.24   22.25
   3  -1   0  370.81   15.21
   3  -1   0  386.35   18.00
  -3   1   0  376.07   15.74
   2  -1   0  100.36    4.60
   2  -1   0   87.71    4.39
   2  -1   0  102.39    5.61
  -2   1   0   95.96    4.31
  -2   1   0  102.11    4.02
  -2   1   0   77.36    5.56
  -2   1   0   85.60    3.46
   1  -1   0   17.34    1.18
   1  -1   0   15.65    0.91
   1  -1   0   17.39    0.99
  -1   1   0   15.42    1.13
  -1   1   0   15.79    0.83
  -1   1   0   16.92    0.89
   0  -1   0   46.28    2.87
   0  -1   0   42.09    2.30
   0   1   0   47.89    2.00
   0   1   0   49.64    1.94
   0   1   0   51.48    2.86
   0   1   0   47.28    2.04
  -1  -1   0  349.56   16.56
  -1  -1   0  354.20   20.62
   1   1   0  374.06   20.60
   1   1   0  342.89   16.51
   1   1   0  359.32   14.79
   1   1   0  349.05   14.01
  -2  -1   0  160.11    7.97
  -2  -1   0  154.55   10.08
   2   1   0  182.79   10.10
   2   1   0  173.08    6.88
   2   1   0  178.96    8.10
   2   1   0  171.49    7.25
  -3  -1   0    3.16    0.41
  -3  -1   0    2.56    0.60
   3   1   0    2.09    0.53
   3   1   0    3.16    0.46
   3   1   0    2.72    0.46
   3   1   0    3.45    0.52
   4   1   0    9.97    1.08
   4   1   0   11.00    0.91
   4   1   0   10.30    0.88
   4   1   0    9.61    1.21
   5   1   0    0.39    0.47
   5   1   0    2.11    0.82
   5   1   0    1.49    0.58
   5   1   0    0.91    0.51
  -6  -1   0   12.42    1.20
  -6  -1   0   11.28    1.12
   6   1   0   10.68    1.07
  -7  -1   0   -0.21    0.88
  -7  -1   0    2.56    0.62
   7   1   0    2.65    0.57
  -8  -1   0    1.98    0.44
  -8  -1   0    1.95    0.62
   8   1   0    2.90    0.48
  -7   2   0   38.32    2.38
  -7   2   0   31.16    3.43
  -6   2   0   31.57    3.46
  -6   2   0   38.00    2.44
  -6   2   0   32.87    2.97
  -5   2   0    1.25    0.50
  -5   2   0    1.36    0.53
   4  -2   0   16.35    1.39
   4  -2   0   14.82    1.55
   4  -2   0   16.66    1.20
   3  -2   0   58.95    3.23
   3  -2   0   53.33    3.79
  -3   2   0   63.90    2.87
   2  -2   0  328.30   15.55
   2  -2   0  326.39   19.29
   2  -2   0  322.75   15.63
  -2   2   0  332.87   13.63
  -2   2   0  341.15   14.75
   1  -2   0  136.79    6.46
   1  -2   0  151.68    8.03
  -1   2   0  135.09    5.76
  -1   2   0  138.97    5.62
  -1   2   0  127.69    6.04
  -1   2   0  115.83    7.91
   0  -2   0    1.15    0.39
   0  -2   0    0.94    0.27
   0   2   0    1.15    0.18
   0   2   0    1.24    0.23
   0   2   0    0.94    0.24
   0   2   0    1.16    0.24
   0   2   0    1.40    0.37
  -1  -2   0    9.07    0.91
  -1  -2   0    9.15    0.65
   1   2   0    9.54    0.60
   1   2   0    8.16    0.62
   1   2   0    7.02    0.83
   1   2   0    8.01    0.56
   1   2   0    8.47    0.53
  -2  -2   0  328.45   16.13
  -2  -2   0  338.78   20.18
   2   2   0  340.64   14.43
   2   2   0  337.03   16.09
   2   2   0  359.96   20.15
   2   2   0  354.59   13.70
  -3  -2   0   15.72    1.53
   3   2   0   15.51    1.10
   3   2   0   17.53    1.06
   3   2   0   16.26    1.48
   3   2   0   14.76    1.00
  -4  -2   0    3.86    0.56
   4   2   0    3.10    0.56
   4   2   0    3.89    0.67
   4   2   0    2.68    0.55
   4   2   0    3.35    0.83
   5   2   0   41.78    2.39
   5   2   0   43.37    2.49
   5   2   0   42.75    3.47
  -6  -2   0    1.45    0.56
  -6  -2   0    1.21    0.48
   6   2   0    1.61    0.51
  -7  -2   0    6.90    0.93
  -7  -2   0    8.21    1.29
   7   2   0    8.90    0.96
  -8  -2   0   18.84    1.43
  -8  -2   0   22.31    1.67
   8   2   0   17.64    1.39
  -7   3   0   12.21    1.56
  -6   3   0    1.02    1.18
  -6   3   0    2.04    0.57
  -6   3   0    0.65    1.00
  -5   3   0   12.31    1.84
  -5   3   0   13.81    1.70
  -5   3   0   12.71    1.25
   4  -3   0    3.30    0.78
   4  -3   0    3.55    0.84
   4  -3   0    5.30    0.79
  -4   3   0    2.15    0.66
   3  -3   0    0.09    0.33
   3  -3   0    0.25    0.39
  -3   3   0   -0.37    0.31
   2  -3   0   90.67    4.49
   2  -3   0   87.73    4.54
   2  -3   0   83.91    5.53
  -2   3   0   91.43    4.21
  -2   3   0   84.35    3.93
   1  -3   0  110.03    5.49
   1  -3   0  113.22    6.80
  -1   3   0  112.82    4.87
  -1   3   0  109.12    4.75
  -1   3   0  107.75    6.68
  -1   3   0  109.35    5.06
   0  -3   0    0.81    0.49
   0  -3   0    0.78    0.33
   0   3   0    0.66    0.26
   0   3   0    0.37    0.24
   0   3   0    0.45    0.35
   0   3   0    0.48    0.24
   0   3   0    0.18    0.16
  -1  -3   0  106.49    5.11
  -1  -3   0   98.97    6.38
   1   3   0  109.34    4.32
   1   3   0  104.84    6.35
   1   3   0  103.85    4.50
   1   3   0   92.16    4.61
  -2  -3   0   17.54    1.12
  -2  -3   0   14.95    1.46
   2   3   0   14.09    0.92
   2   3   0   15.65    1.42
   2   3   0   13.48    0.97
   2   3   0   14.43    0.92
  -3  -3   0    7.94    1.23
   3   3   0    7.79    1.17
   3   3   0    8.57    0.74
   3   3   0    7.26    0.74
   3   3   0    7.22    0.76
  -4  -3   0   18.26    1.15
   4   3   0   16.94    1.24
   4   3   0   18.24    1.89
   4   3   0   15.67    1.20
  -5  -3   0   55.32    3.91
  -6  -3   0    6.38    0.90
  -6  -3   0    8.22    1.00
   6   3   0    5.18    0.79
  -7  -3   0   10.81    1.09
  -7  -3   0   10.31    1.06
   7   3   0   10.28    1.05
  -8  -3   0   20.48    1.43
   8   3   0   20.05    1.42
  -7   4   0    9.12    1.16
  -6   4   0   -0.40    0.95
  -6   4   0    0.33    0.37
  -5   4   0   -0.19    0.98
  -5   4   0    1.19    0.53
  -5   4   0    1.57    0.50
  -4   4   0    1.19    0.46
  -4   4   0    1.37    0.52
  -4   4   0    1.13    0.65
   3  -4   0    0.37    0.45
   3  -4   0    0.60    0.43
  -3   4   0    0.55    0.47
   2  -4   0   35.93    2.72
   2  -4   0   35.31    2.25
   2  -4   0   37.26    2.26
  -2   4   0   34.16    1.94
   1  -4   0    2.08    0.54
   1  -4   0    3.64    0.77
  -1   4   0    4.03    0.55
  -1   4   0    3.98    0.56
   0  -4   0   16.49    1.54
   0  -4   0   16.09    1.25
   0   4   0   14.16    1.41
   0   4   0   14.39    1.01
   0   4   0   17.00    1.01
   0   4   0   16.92    1.05
  -1  -4   0  267.86   16.07
  -1  -4   0  255.29   12.89
   1   4   0  291.01   16.03
   1   4   0  260.07   10.85
   1   4   0  262.66   11.20
   1   4   0  267.84   11.42
  -2  -4   0   74.24    4.01
  -2  -4   0   77.71    5.12
   2   4   0   73.30    3.37
   2   4   0   73.62    5.00
   2   4   0   75.05    3.50
  -3  -4   0   80.63    6.06
   3   4   0  100.67    6.14
   3   4   0   88.82    4.20
   3   4   0   91.09    4.09
  -4  -4   0   17.11    1.18
   4   4   0   16.85    1.29
   4   4   0   16.32    1.89
  -5  -4   0   11.59    1.21
  -5  -4   0   11.81    1.25
   5   4   0   11.97    1.18
  -6  -4   0   14.02    1.42
   6   4   0   13.99    1.31
  -7  -4   0    0.87    0.44
  -7  -4   0    0.84    0.43
   7   4   0    0.40    0.40
  -8  -4   0    0.70    0.27
   8   4   0    0.40    0.23
  -6   5   0    9.15    1.40
  -5   5   0    0.38    0.46
  -5   5   0    0.31    0.42
  -5   5   0   -0.30    1.11
  -4   5   0   10.72    1.04
  -4   5   0   11.25    1.80
  -4   5   0   10.54    1.19
   3  -5   0   74.24    5.15
   3  -5   0   77.34    4.47
  -3   5   0   75.06    4.10
  -3   5   0   80.22    3.91
   2  -5   0   63.30    3.67
   2  -5   0   59.91    4.40
  -2   5   0   62.99    3.17
   1  -5   0   84.93    4.65
   1  -5   0   78.54    5.61
  -1   5   0   86.32    3.97
  -1   5   0   86.16    4.04
   0  -5   0   39.31    3.02
   0  -5   0   36.01    2.39
   0   5   0   37.88    2.05
   0   5   0   35.27    2.02
  -1  -5   0  115.14    5.83
  -1  -5   0  112.77    7.26
   1   5   0  104.75    7.10
   1   5   0  107.82    4.99
   1   5   0  109.26    4.84
   1   5   0  108.96    5.03
  -2  -5   0   55.16    3.17
  -2  -5   0   45.54    3.90
   2   5   0   56.07    2.66
   2   5   0   52.18    2.68
   2   5   0   54.93    3.94
  -3  -5   0    8.67    1.56
   3   5   0    6.65    0.83
   3   5   0    6.36    1.27
  -4  -5   0    1.85    0.56
   4   5   0    1.57    0.55
   4   5   0    2.25    0.93
  -5  -5   0    0.26    0.43
   5   5   0    0.10    0.41
  -6  -5   0    0.77    0.52
   6   5   0    1.34    0.55
  -7  -5   0    0.14    0.35
  -7  -5   0    0.36    0.36
   7   5   0    0.06    0.34
  -6   6   0   24.12    2.02
  -5   6   0   50.61    2.86
  -4   6   0    7.42    0.91
  -4   6   0    7.47    0.91
  -4   6   0    7.01    0.89
  -4   6   0    7.81    1.53
  -3   6   0   27.16    1.87
  -3   6   0   23.82    1.77
  -3   6   0   21.14    2.36
  -3   6   0   23.47    1.64
   2  -6   0   25.09    2.05
   2  -6   0   20.01    1.69
  -2   6   0   24.05    1.68
  -2   6   0   21.64    1.77
  -2   6   0   23.50    1.76
  -2   6   0   23.51    1.76
  -2   6   0   22.58    2.10
  -2   6   0   24.25    1.55
   1  -6   0   62.59    4.46
   1  -6   0   55.38    3.57
   1  -6   0   55.15    3.46
  -1   6   0   56.59    3.07
   0  -6   0    3.15    0.79
   0  -6   0    3.78    1.09
   0   6   0    4.81    0.82
   0   6   0    3.38    0.68
  -1  -6   0    7.59    1.11
  -1  -6   0    9.30    1.56
   1   6   0    7.34    0.94
   1   6   0    6.62    0.88
   1   6   0    7.39    0.91
  -2  -6   0    0.70    0.60
  -2  -6   0    0.60    0.74
   2   6   0    1.01    0.54
   2   6   0    0.47    0.39
  -3  -6   0    7.43    1.58
   3   6   0    8.13    1.05
   3   6   0    7.69    1.56
   3   6   0    6.59    0.94
  -4  -6   0    3.02    0.64
  -4  -6   0    2.30    0.62
   4   6   0    3.76    0.73
   4   6   0    3.34    0.79
  -5  -6   0    0.28    0.48
   5   6   0    0.64    0.50
  -6  -6   0    1.35    0.54
   6   6   0    0.53    0.42
  -7  -6   0    1.43    0.39
  -7  -6   0    0.76    0.36
   7   6   0    0.69    0.34
  -5   7   0    3.96    0.86
  -5   7   0    6.36    0.66
  -4   7   0    0.56    0.42
  -4   7   0    0.87    0.45
   3  -7   0    6.84    0.86
  -3   7   0    8.11    0.92
  -3   7   0    6.91    0.87
  -3   7   0    3.93    1.01
  -3   7   0    4.72    0.82
   2  -7   0    0.21    0.37
  -2   7   0   -0.25    0.34
  -2   7   0   -0.28    0.34
  -2   7   0    0.32    0.37
  -2   7   0   -1.13    0.38
  -2   7   0    0.01    0.49
   1  -7   0    1.69    0.51
  -1   7   0    1.49    0.50
  -1   7   0    1.28    0.39
  -1   7   0   -0.45    0.46
  -1   7   0    1.94    0.53
   0  -7   0    1.96    0.56
   0   7   0    2.67    0.65
   0   7   0    2.16    0.52
   0   7   0    3.88    0.88
   0   7   0    3.10    0.68
  -1  -7   0    2.00    0.55
   1   7   0    4.16    0.67
   1   7   0    2.87    0.68
  -2  -7   0    0.40    0.41
   2   7   0    0.28    0.46
  -3  -7   0    5.02    0.77
   3   7   0    4.60    0.92
  -4  -7   0   36.08    2.50
  -4  -7   0   39.01    2.79
   4   7   0   36.22    2.75
   4   7   0   32.40    2.49
  -5  -7   0    6.88    1.06
   5   7   0   11.78    1.11
   5   7   0   10.37    1.22
  -6  -7   0   10.57    1.04
   6   7   0    8.37    0.91
  -4   8   0   13.17    1.05
  -4   8   0   14.04    1.03
   3  -8   0    0.76    0.37
  -3   8   0    1.03    0.42
  -3   8   0    0.56    0.43
   2  -8   0   10.71    1.05
  -2   8   0    8.05    0.98
  -2   8   0    8.28    0.86
  -2   8   0    8.68    1.07
   1  -8   0    0.23    0.40
  -1   8   0    0.04    0.39
  -1   8   0    0.28    0.46
  -1   8   0    0.36    0.42
  -1   8   0    0.62    0.43
  -1   8   0    0.88    0.40
   0  -8   0    4.24    0.78
   0   8   0    2.77    0.59
   0   8   0    2.35    0.60
   0   8   0    3.17    0.70
  -1  -8   0   12.21    1.24
   1   8   0   13.10    1.33
   1   8   0   11.07    1.22
  -2  -8   0   48.76    3.20
   2   8   0   45.83    3.42
  -3  -8   0    6.18    0.86
   3   8   0   10.14    1.21
  -4  -8   0    6.98    0.90
   4   8   0    8.45    1.09
  -5  -8   0   29.66    2.32
   5   8   0   32.69    2.34
  -6  -8   0   24.25    1.71
   6   8   0   22.40    1.56
   3  -9   0    4.60    0.54
  -3   9   0    4.71    0.60
  -3   9   0    5.69    0.54
   2  -9   0    6.58    0.79
  -2   9   0    7.72    0.69
  -2   9   0    7.52    0.80
   1  -9   0   10.46    1.05
  -1   9   0   11.88    1.00
  -1   9   0   10.71    0.99
  -1   9   0    9.81    1.01
  -1   9   0   10.87    1.06
   0  -9   0   10.64    1.17
   0   9   0   13.33    1.14
   0   9   0   14.19    1.25
   0   9   0   14.43    1.29
   0   9   0   12.89    1.12
  -1  -9   0   33.88    2.42
   1   9   0   34.20    2.54
  -2  -9   0   86.31    5.41
   2   9   0   90.90    5.78
  -3  -9   0    9.84    1.04
   3   9   0   10.72    1.17
  -4  -9   0    4.02    0.70
  -4  -9   0    3.38    0.59
   4   9   0    4.41    0.73
  -5  -9   0    1.49    0.40
   5   9   0    1.57    0.43
   1 -10   0   24.81    1.74
  -1  10   0   27.16    1.62
   0 -10   0   11.82    1.08
   0  10   0   13.77    0.98
   0  10   0   14.27    1.01
   0  10   0   13.70    1.06
  -1 -10   0    1.71    0.46
   1  10   0    1.40    0.40
   1  10   0    1.89    0.45
  -2 -10   0    0.02    0.30
   2  10   0    0.21    0.34
   2  10   0    0.73    0.31
  -3 -10   0    4.79    0.63
   3  10   0    3.81    0.58
   3  10   0    4.66    0.51
   2  10  -1    0.16    0.32
   2  10  -1   -0.06    0.21
  -2 -10   1    0.11    0.26
   1  10  -1    0.42    0.30
   1  10  -1    0.29    0.31
  -1 -10   1    0.51    0.30
   0  10  -1    1.77    0.37
   0  10  -1    1.72    0.34
   0 -10   1    1.33    0.35
   4   9  -1    1.93    0.50
  -4  -9   1    1.58    0.47
   3   9  -1    1.50    0.53
  -3  -9   1    0.88    0.40
   2   9  -1    1.91    0.57
  -2  -9   1    2.41    0.54
   1   9  -1    2.81    0.66
  -1  -9   1    0.86    0.44
   0   9  -1   30.06    2.41
   0   9  -1   34.19    2.10
   0  -9   1   36.98    2.38
  -1   9  -1   19.17    1.43
  -1   9  -1   21.62    1.53
  -1   9  -1   23.24    1.71
   1  -9   1   26.28    1.75
  -2   9  -1   19.85    1.23
  -2   9  -1   19.76    1.37
   2  -9   1   20.21    1.49
  -3   9  -1    9.89    0.80
  -3   9  -1    8.81    0.66
   3  -9   1    8.59    0.75
   5   8  -1    3.18    0.66
   5   8  -1    1.94    0.45
  -5  -8   1    2.63    0.57
   4   8  -1    2.63    0.63
  -4  -8   1    3.05    0.65
   3   8  -1   18.99    1.79
  -3  -8   1   20.46    1.60
  -3  -8   1   20.74    1.81
   2   8  -1   53.36    4.35
  -2  -8   1   76.21    4.18
   1   8  -1   35.51    2.75
  -1  -8   1   38.46    2.62
   0   8  -1   16.40    1.57
   0   8  -1   16.60    1.34
   0   8  -1   16.75    1.42
   0  -8   1   13.35    1.41
  -1   8  -1   27.01    2.12
  -1   8  -1   24.45    1.85
   1  -8   1   28.32    2.08
  -2   8  -1    8.56    0.98
  -2   8  -1    7.69    0.96
   2  -8   1    9.20    1.00
  -3   8  -1    1.06    0.37
  -3   8  -1    0.87    0.43
   3  -8   1    1.49    0.45
  -4   8  -1    0.23    0.28
  -4   8  -1    0.35    0.28
   4  -8   1    0.23    0.23
   6   7  -1   27.13    2.00
  -6  -7   1   33.86    2.20
   5   7  -1   16.28    1.34
  -5  -7   1   12.91    1.37
   4   7  -1   19.78    1.78
   4   7  -1   18.48    1.57
   3   7  -1   11.70    1.50
   3   7  -1   16.35    1.40
  -3  -7   1   16.76    1.35
   2   7  -1   49.56    3.52
  -2  -7   1   48.82    3.28
   1   7  -1   25.95    1.90
   1   7  -1   25.02    2.12
  -1  -7   1   23.50    1.90
   0   7  -1    1.58    0.50
   0   7  -1    1.35    0.49
   0   7  -1    2.00    0.62
   0  -7   1    2.23    0.62
  -1   7  -1    0.41    0.32
  -1   7  -1    0.28    0.40
  -1   7  -1    1.10    0.53
   1  -7   1    1.08    0.52
  -2   7  -1    2.52    0.60
  -2   7  -1    1.39    0.43
  -2   7  -1    1.58    0.60
  -2   7  -1    1.80    0.55
   2  -7   1    1.56    0.50
  -3   7  -1    7.96    0.93
  -3   7  -1    8.31    0.95
  -3   7  -1    9.35    1.03
   3  -7   1    8.79    0.99
  -4   7  -1   10.30    0.97
  -4   7  -1   11.03    1.52
  -4   7  -1   10.93    1.07
   4  -7   1    9.65    0.97
  -5   7  -1   -0.19    0.29
   7   6  -1    4.33    0.53
  -7  -6   1    3.19    0.47
  -7  -6   1    3.88    0.54
   6   6  -1    5.07    0.79
  -6  -6   1    4.35    0.75
   5   6  -1   10.98    1.13
  -5  -6   1    9.37    1.25
   4   6  -1   21.10    1.64
  -4  -6   1   17.39    1.72
   3   6  -1    1.31    0.51
   3   6  -1    0.63    0.46
  -3  -6   1    1.13    0.43
  -3  -6   1    0.39    0.43
   2   6  -1    0.73    0.51
   2   6  -1   -0.03    0.39
   2   6  -1    0.06    0.43
  -2  -6   1    0.87    0.84
  -2  -6   1   -0.55    0.39
  -2  -6   1    0.54    0.55
   1   6  -1    0.35    0.50
   1   6  -1    0.65    0.44
   1   6  -1    0.40    0.48
  -1  -6   1   -0.26    0.44
  -1  -6   1    1.08    0.85
   0   6  -1    6.51    0.93
   0   6  -1    7.48    1.03
   0  -6   1    9.30    1.70
   0  -6   1   10.07    1.42
  -1   6  -1    1.76    0.62
  -1   6  -1    0.93    0.57
   1  -6   1    1.48    0.85
   1  -6   1    0.96    0.67
  -2   6  -1    1.73    0.52
  -2   6  -1    1.34    0.50
  -2   6  -1    1.98    0.50
  -2   6  -1    2.81    0.58
   2  -6   1    1.45    0.47
  -3   6  -1    5.92    0.85
  -3   6  -1    7.22    0.89
  -3   6  -1    7.30    0.95
  -3   6  -1    7.62    1.21
   3  -6   1    7.66    0.90
  -4   6  -1   14.30    1.86
  -4   6  -1   16.34    1.36
  -4   6  -1   16.70    1.29
   4  -6   1   15.62    1.35
  -5   6  -1   10.70    0.98
  -5   6  -1    9.13    1.36
   5  -6   1   10.04    0.93
  -6   6  -1    7.44    0.91
   7   5  -1    1.90    0.43
  -7  -5   1    1.62    0.38
  -7  -5   1    1.84    0.43
   6   5  -1    0.02    0.38
  -6  -5   1    0.35    0.42
   5   5  -1    1.14    0.49
  -5  -5   1    0.66    0.48
   4   5  -1   10.72    1.11
  -4  -5   1   10.17    1.21
  -4  -5   1   10.89    1.11
   3   5  -1    5.14    0.78
   3   5  -1    4.47    1.12
   3   5  -1    5.04    0.81
  -3  -5   1    4.90    0.77
   2   5  -1   26.41    1.64
   2   5  -1   27.33    2.49
   2   5  -1   24.22    1.63
  -2  -5   1   30.13    2.72
  -2  -5   1   27.82    2.03
   1   5  -1   59.53    2.89
   1   5  -1   48.48    4.04
   1   5  -1   62.42    2.81
   1   5  -1   56.69    2.89
  -1  -5   1   59.36    3.41
  -1  -5   1   51.17    4.16
   0   5  -1   24.57    1.60
   0   5  -1   25.72    1.60
   0  -5   1   25.37    1.92
   0  -5   1   27.17    2.44
  -1   5  -1    3.34    0.61
  -1   5  -1    3.11    0.61
   1  -5   1    3.63    1.01
   1  -5   1    4.12    0.73
   1  -5   1    4.04    0.90
  -2   5  -1   12.58    1.20
   2  -5   1    7.51    1.25
   2  -5   1   10.67    1.65
  -3   5  -1   49.78    2.69
  -3   5  -1   41.02    3.10
  -3   5  -1   45.44    2.84
  -3   5  -1   49.26    3.70
   3  -5   1   49.71    3.10
   3  -5   1   42.39    2.98
  -4   5  -1   24.26    1.78
  -4   5  -1   21.66    2.43
  -4   5  -1   25.22    1.88
  -4   5  -1   22.80    1.69
   4  -5   1   25.94    1.85
  -5   5  -1    7.96    1.44
  -5   5  -1    7.22    0.88
   5  -5   1    8.40    0.92
  -6   5  -1   24.51    1.52
  -6   5  -1   25.07    2.27
   7   4  -1    0.92    0.41
  -7  -4   1    0.98    0.40
  -7  -4   1    0.56    0.35
   6   4  -1   -0.34    0.32
  -6  -4   1    0.17    0.42
   5   4  -1    0.36    0.42
  -5  -4   1    0.00    0.40
  -5  -4   1    0.39    0.47
   4   4  -1   18.07    2.10
   4   4  -1   20.95    1.51
   4   4  -1   21.70    1.50
  -4  -4   1   19.08    1.36
   3   4  -1    2.01    0.80
   3   4  -1    2.37    0.54
   3   4  -1    1.39    0.43
  -3  -4   1    1.43    0.42
  -3  -4   1    1.39    0.86
   2   4  -1    6.65    0.75
   2   4  -1    7.14    0.78
   2   4  -1    7.15    1.15
  -2  -4   1    6.92    1.23
  -2  -4   1    5.55    0.82
   1   4  -1   15.24    1.06
   1   4  -1   15.80    1.57
   1   4  -1   16.18    1.05
   1   4  -1   15.34    1.08
  -1  -4   1   16.63    1.65
  -1  -4   1   13.14    1.20
   0   4  -1   34.88    2.66
   0   4  -1   34.42    1.83
   0   4  -1   34.75    1.86
   0   4  -1   34.05    1.77
   0  -4   1   32.84    2.71
   0  -4   1   38.37    2.26
  -1   4  -1  302.23   13.83
  -1   4  -1  336.41   13.50
   1  -4   1  333.74   19.41
   1  -4   1  330.60   15.66
   1  -4   1  317.86   15.47
  -2   4  -1   47.36    2.50
  -2   4  -1   48.57    2.66
   2  -4   1   51.02    2.98
   2  -4   1   55.52    3.75
   2  -4   1   47.84    2.93
  -3   4  -1    0.59    0.42
   3  -4   1    1.74    0.62
   3  -4   1    0.56    0.47
  -4   4  -1    8.02    0.92
  -4   4  -1    7.43    0.93
   4  -4   1    8.29    0.91
  -5   4  -1   -2.13    0.80
  -5   4  -1    2.03    0.53
   5  -4   1    1.87    0.54
  -6   4  -1    1.60    0.93
   6  -4   1    2.60    0.52
  -7   4  -1    2.30    0.49
   7   3  -1    1.20    0.42
  -7  -3   1    2.35    0.46
  -7  -3   1    1.53    0.50
   6   3  -1    1.77    0.52
  -6  -3   1    2.69    0.60
  -6  -3   1    2.94    0.70
   5   3  -1   34.11    2.24
  -5  -3   1   28.84    2.28
  -5  -3   1   28.55    1.98
  -5  -3   1   29.23    2.38
   4   3  -1    4.62    0.74
   4   3  -1    3.48    0.68
   4   3  -1    3.76    0.99
  -4  -3   1    4.62    0.69
   3   3  -1  285.29   12.10
   3   3  -1  294.19   12.76
   3   3  -1  306.21   17.83
  -3  -3   1  300.29   11.35
   2   3  -1  128.49    6.21
   2   3  -1  132.84    5.65
   2   3  -1  121.88    8.31
   2   3  -1  137.66    5.98
  -2  -3   1  146.22    8.51
  -2  -3   1  142.23    6.73
   1   3  -1   19.80    1.14
   1   3  -1   18.26    1.07
   1   3  -1   17.06    1.06
   1   3  -1   18.79    1.61
  -1  -3   1   21.98    1.76
  -1  -3   1   19.10    1.33
   0   3  -1   43.22    2.28
   0   3  -1   47.46    2.16
   0   3  -1   48.36    2.21
   0   3  -1   51.28    2.29
   0  -3   1   49.27    3.30
   0  -3   1   45.53    2.62
  -1   3  -1    9.99    0.99
  -1   3  -1    8.13    0.67
  -1   3  -1    9.37    0.69
  -1   3  -1   10.74    0.75
   1  -3   1    9.20    0.82
   1  -3   1   10.47    0.92
   1  -3   1    9.80    1.08
  -2   3  -1   13.85    0.99
  -2   3  -1   13.52    0.94
   2  -3   1   14.89    1.41
   2  -3   1   14.12    1.16
   2  -3   1   14.35    1.12
  -3   3  -1   -0.11    0.29
  -3   3  -1   -0.11    0.33
   3  -3   1    0.57    0.44
   3  -3   1    1.00    0.41
  -4   3  -1    4.04    0.73
   4  -3   1    3.16    0.61
   4  -3   1    4.14    0.92
   4  -3   1    4.24    0.87
  -5   3  -1   -0.62    0.59
  -5   3  -1    0.69    0.43
   5  -3   1    0.38    0.38
  -6   3  -1   -1.26    0.69
   6  -3   1    0.23    0.35
  -7   3  -1    1.67    0.70
   7  -3   1    2.41    0.45
   8   2  -1   16.05    1.08
  -8  -2   1   13.06    1.07
   7   2  -1   27.00    1.85
  -7  -2   1   26.88    1.94
  -7  -2   1   21.88    2.44
   6   2  -1   45.68    3.01
  -6  -2   1   44.05    3.04
  -6  -2   1   47.04    3.13
  -6  -2   1   44.41    3.23
   5   2  -1   71.71    3.52
   5   2  -1   68.05    3.36
  -5  -2   1   56.89    4.19
  -5  -2   1   63.35    4.35
   4   2  -1   35.70    2.89
   4   2  -1   37.00    2.02
   4   2  -1   34.62    2.10
  -4  -2   1   35.91    1.85
   3   2  -1    1.10    0.35
   3   2  -1    1.48    0.36
   3   2  -1    0.72    0.35
   3   2  -1    0.95    0.51
  -3  -2   1    1.17    0.37
   2   2  -1    0.84    0.32
   2   2  -1    1.27    0.52
   2   2  -1    1.53    0.30
   2   2  -1    1.40    0.32
  -2  -2   1    1.02    0.35
  -2  -2   1    1.15    0.51
   1   2  -1  718.24   32.95
   1   2  -1  746.52   43.41
   1   2  -1  760.03   29.50
   1   2  -1  731.37   31.19
  -1  -2   1  736.60   35.00
  -1  -2   1  804.95   43.49
   0   2  -1   78.93    3.87
   0   2  -1   88.79    3.75
   0   2  -1   77.10    3.50
   0   2  -1   82.03    5.23
   0   2  -1   89.62    3.63
   0  -2   1   85.32    4.25
   0  -2   1   93.75    5.31
  -1   2  -1    5.07    0.46
  -1   2  -1    5.50    0.46
  -1   2  -1    5.79    0.64
  -1   2  -1    5.66    0.49
   1  -2   1    5.15    0.56
   1  -2   1    4.08    0.54
   1  -2   1    4.93    0.73
  -2   2  -1    1.83    0.35
  -2   2  -1    1.34    0.37
  -2   2  -1    1.49    0.45
   2  -2   1    2.28    0.46
   2  -2   1    2.49    0.43
  -3   2  -1   51.50    2.65
  -3   2  -1   53.21    2.47
   3  -2   1   51.03    2.86
   3  -2   1   44.15    3.35
   4  -2   1   61.04    2.91
   4  -2   1   60.09    3.50
   4  -2   1   57.13    4.11
  -5   2  -1   30.55    2.13
  -5   2  -1   24.39    2.74
  -5   2  -1   25.94    2.51
   5  -2   1   29.89    2.04
   5  -2   1   32.78    1.91
  -6   2  -1    7.67    1.42
  -6   2  -1    6.59    1.28
  -7   2  -1    6.45    1.32
   7  -2   1    7.35    0.80
  -8  -1   1   12.45    1.21
  -8  -1   1   11.19    0.96
   7   1  -1   24.73    1.82
  -7  -1   1   24.94    2.74
  -7  -1   1   27.13    1.94
   6   1  -1    1.22    0.45
  -6  -1   1   -2.33    0.97
  -6  -1   1    1.40    0.54
  -6  -1   1    1.77    0.46
   5   1  -1   31.05    2.73
   5   1  -1   29.52    1.99
   5   1  -1   33.51    2.07
   4   1  -1    8.30    0.95
   4   1  -1   11.14    1.09
   4   1  -1   10.27    1.02
   4   1  -1   10.52    1.24
  -4  -1   1    8.79    0.81
   3   1  -1   61.41    2.89
   3   1  -1   60.61    3.12
   3   1  -1   60.18    2.73
   3   1  -1   54.59    3.89
  -3  -1   1   60.53    2.55
   2   1  -1  332.88   13.30
   2   1  -1  332.93   12.58
   2   1  -1  327.75   18.46
   2   1  -1  307.51   14.74
  -2  -1   1  312.90   11.76
  -2  -1   1  302.66   18.47
  -2  -1   1  288.55   14.75
   1   1  -1  455.34   17.81
   1   1  -1  429.05   18.83
   1   1  -1  431.68   20.94
  -1  -1   1  463.30   26.23
  -1  -1   1  478.45   21.12
   0   1  -1    1.84    0.24
   0   1  -1    2.23    0.30
   0   1  -1    2.33    0.44
   0   1  -1    1.98    0.28
   0  -1   1    1.58    0.42
   0  -1   1    1.53    0.34
  -1   1  -1  306.32   12.54
  -1   1  -1  305.90   13.65
  -1   1  -1  316.37   12.90
  -1   1  -1  324.70   17.95
   1  -1   1  304.90   14.43
   1  -1   1  293.55   14.47
  -2   1  -1  988.29   38.83
  -2   1  -1  900.31   55.39
  -2   1  -1  984.69   42.19
   2  -1   1 1000.00   55.41
   2  -1   1  994.36   44.58
   2  -1   1  890.09   44.57
  -3   1  -1  161.35    7.86
  -3   1  -1  162.30    7.27
   3  -1   1  178.67    8.38
   3  -1   1  183.92   10.35
   3  -1   1  168.87    7.04
   4  -1   1    2.16    0.67
   4  -1   1    2.81    0.52
   4  -1   1    1.68    0.54
   5  -1   1   54.60    2.76
   5  -1   1   50.17    3.90
   5  -1   1   53.57    3.32
  -6   1  -1   76.15    5.01
  -6   1  -1   82.80    4.76
  -6   1  -1   74.53    6.05
   6  -1   1   76.96    4.78
  -7   1  -1   42.88    4.07
   7  -1   1   54.72    3.21
   8  -1   1    6.07    0.62
  -8   0   1    1.00    0.51
  -8   0   1    1.20    0.33
  -7   0   1    0.26    0.41
  -7   0   1   -0.51    1.09
  -6   0   1   -0.46    1.14
  -6   0   1    1.08    0.52
   5   0  -1    0.12    0.45
   5   0  -1    0.57    0.63
   5   0  -1   -0.02    0.44
   4   0  -1    6.78    0.84
   4   0  -1    6.42    0.77
   4   0  -1    7.61    1.10
   4   0  -1    6.10    0.83
   3   0  -1   57.76    3.80
   3   0  -1   59.47    3.11
   3   0  -1   57.50    2.67
  -3   0   1   60.72    2.45
   2   0  -1  100.62    6.03
   2   0  -1  104.16    4.18
   2   0  -1  104.77    4.89
  -2   0   1   93.26    6.05
  -2   0   1   99.46    3.87
   1   0  -1  328.06   18.78
   1   0  -1  307.76   15.08
   1   0  -1  315.06   12.81
  -1   0   1  328.46   11.98
  -1   0   1  341.98   18.81
  -1   0   1  326.46   15.14
   0   0  -1   99.35    6.68
   0   0  -1  125.04    5.13
   0   0  -1  115.15    4.82
   0   0   1  120.64    4.26
   0   0   1  115.62    5.42
  -1   0  -1    3.78    0.44
  -1   0  -1    4.26    0.27
  -1   0  -1    4.52    0.33
   1   0   1    4.24    0.31
   1   0   1    3.72    0.34
   1   0   1    4.00    0.43
  -2   0  -1  991.92   41.34
  -2   0  -1  962.42   54.33
   2   0   1  892.98   36.92
   2   0   1  903.71   43.65
   2   0   1  953.22   54.31
  -3   0  -1  385.89   17.05
  -3   0  -1  387.26   22.40
   3   0   1  396.82   15.24
   3   0   1  352.18   22.35
   3   0   1  386.81   18.03
   4   0   1   66.73    3.64
   4   0   1   63.77    4.39
   4   0   1   66.70    3.05
   5   0   1   25.13    1.64
   5   0   1   25.61    2.30
   5   0   1   24.06    1.91
  -6   0  -1   14.51    1.33
  -6   0  -1   10.63    1.76
  -6   0  -1   15.68    1.33
   6   0   1   15.63    1.26
  -7   0  -1   27.32    2.04
   7   0   1   28.49    2.03
   8   0   1    0.39    0.30
  -7   1   1    0.58    0.39
  -7   1   1    0.81    1.22
  -6   1   1    1.06    0.53
  -6   1   1    0.77    0.54
  -6   1   1    0.98    1.29
   5  -1  -1   22.52    1.57
   5  -1  -1   23.66    1.67
   5  -1  -1   21.81    1.81
  -5   1   1   20.47    1.64
  -5   1   1   21.31    1.96
  -5   1   1   16.07    2.24
   4  -1  -1  112.79    7.29
   4  -1  -1  121.53    6.08
   4  -1  -1  118.39    5.16
   3  -1  -1   11.42    0.83
   3  -1  -1   12.21    0.97
   3  -1  -1   11.32    1.04
  -3   1   1   10.77    0.89
   2  -1  -1  131.12    6.43
   2  -1  -1  136.61    5.46
   2  -1  -1  132.29    7.86
  -2   1   1  134.92    5.66
  -2   1   1  128.80    5.00
   1  -1  -1  287.21   16.26
   1  -1  -1  278.58   13.18
  -1   1   1  276.46   11.51
  -1   1   1  283.54   10.39
   0  -1  -1  563.14   32.32
   0   1   1  560.78   20.58
   0   1   1  561.90   22.69
  -1  -1  -1  183.49    7.91
  -1  -1  -1  195.47   10.49
   1   1   1  163.96   10.45
   1   1   1  180.70    7.11
   1   1   1  172.23    8.41
  -2  -1  -1   30.00    2.04
  -2  -1  -1   26.69    1.45
  -2  -1  -1   28.55    1.47
   2   1   1   28.93    1.36
   2   1   1   34.75    2.06
   2   1   1   29.05    1.62
  -3  -1  -1  162.34    9.15
   3   1   1  142.71    9.06
   3   1   1  152.60    6.19
   3   1   1  142.24    7.30
   4   1   1    4.48    0.88
   4   1   1    5.46    0.76
   4   1   1    5.36    0.67
   5   1   1    0.27    0.37
   5   1   1    0.12    0.44
   5   1   1   -0.16    0.48
   5   1   1   -0.27    0.31
  -6  -1  -1    6.11    1.44
  -6  -1  -1    9.85    1.04
  -6  -1  -1   11.30    1.09
   6   1   1    9.38    1.00
  -7  -1  -1    0.36    0.43
  -7  -1  -1    0.05    0.36
   7   1   1    0.40    0.39
  -8  -1  -1    0.21    0.51
   8   1   1    0.71    0.34
  -7   2   1   13.23    1.16
  -7   2   1   14.73    1.97
  -7   2   1    9.65    1.50
  -6   2   1   58.84    4.90
  -6   2   1   53.95    3.50
  -6   2   1   51.79    4.21
  -5   2   1   15.77    1.57
  -5   2   1   11.69    1.80
  -5   2   1   14.62    1.34
   4  -2  -1   36.72    1.99
   4  -2  -1   32.85    2.50
   4  -2  -1   33.17    2.24
   3  -2  -1   37.47    2.58
   3  -2  -1   39.00    1.92
   3  -2  -1   38.03    2.26
  -3   2   1   35.92    2.01
   2  -2  -1   52.88    2.49
   2  -2  -1   44.22    3.03
   2  -2  -1   52.29    2.66
  -2   2   1   46.35    1.94
  -2   2   1   48.08    2.31
   1  -2  -1   11.95    0.78
   1  -2  -1   13.28    0.93
  -1   2   1   11.33    0.73
  -1   2   1   11.46    0.56
   0  -2  -1  118.19    6.77
   0  -2  -1  113.28    5.48
   0   2   1  115.93    4.84
   0   2   1  111.28    4.76
   0   2   1  111.74    4.61
   0   2   1  113.87    6.72
  -1  -2  -1   97.40    4.51
  -1  -2  -1   83.36    5.62
   1   2   1   91.35    3.82
   1   2   1   97.81    5.63
   1   2   1   93.75    4.51
   1   2   1   94.57    3.96
  -2  -2  -1   69.14    4.39
  -2  -2  -1   69.72    3.40
   2   2   1   75.14    3.49
   2   2   1   60.55    4.32
   2   2   1   72.23    2.97
   2   2   1   67.28    3.05
  -3  -2  -1    2.33    0.64
   3   2   1    1.53    0.36
   3   2   1    1.88    0.56
   3   2   1    1.73    0.35
   3   2   1    2.14    0.45
   4   2   1   34.47    1.95
   4   2   1   37.84    2.28
   4   2   1   39.50    2.91
   4   2   1   36.83    1.97
   5   2   1    0.32    0.41
   5   2   1    0.59    0.68
   5   2   1   -0.28    0.44
  -6  -2  -1    0.69    0.47
  -6  -2  -1    0.98    0.47
   6   2   1    1.35    0.48
  -7  -2  -1    2.19    0.60
  -7  -2  -1    3.84    0.78
   7   2   1    2.64    0.59
  -8  -2  -1    1.76    0.44
   8   2   1    1.19    0.41
  -7   3   1   24.20    2.28
  -7   3   1   17.07    2.40
  -7   3   1   21.13    1.52
  -6   3   1   16.32    2.04
  -6   3   1   14.73    1.43
  -6   3   1   20.70    2.43
  -5   3   1    0.21    0.42
  -5   3   1   -0.21    1.17
  -5   3   1    1.27    0.63
   4  -3  -1   26.07    2.01
   4  -3  -1   28.71    1.75
  -4   3   1   28.32    1.89
   3  -3  -1    1.50    0.48
   3  -3  -1    0.96    0.47
  -3   3   1    0.71    0.38
   2  -3  -1    9.13    0.91
   2  -3  -1    8.96    0.76
   2  -3  -1    8.76    0.85
  -2   3   1   10.16    0.79
   1  -3  -1    0.33    0.31
   1  -3  -1    0.28    0.28
  -1   3   1    0.34    0.25
   0  -3  -1   29.65    1.63
   0  -3  -1   25.96    1.96
   0   3   1   27.40    1.36
   0   3   1   29.76    1.42
   0   3   1   26.01    1.91
   0   3   1   29.38    1.36
  -1  -3  -1    7.12    0.85
  -1  -3  -1    6.00    0.61
   1   3   1    5.79    0.75
   1   3   1    6.47    0.54
   1   3   1    6.08    0.48
  -2  -3  -1  125.87    6.17
  -2  -3  -1  122.87    7.81
   2   3   1  117.24    5.45
   2   3   1  137.16    7.80
   2   3   1  129.18    5.28
  -3  -3  -1    0.83    0.56
   3   3   1    0.43    0.30
   3   3   1    0.90    0.32
   3   3   1    0.58    0.34
   3   3   1    0.63    0.46
  -4  -3  -1   14.34    1.63
   4   3   1   12.79    1.20
   4   3   1   13.69    1.00
   4   3   1   15.33    1.12
   4   3   1   14.38    1.60
   5   3   1    4.62    1.12
   5   3   1    3.56    0.70
   5   3   1    5.36    0.92
  -6  -3  -1    9.10    1.06
   6   3   1    7.09    0.96
  -7  -3  -1   10.52    1.12
  -7  -3  -1   10.31    1.13
   7   3   1    9.80    1.09
  -8  -3  -1   32.36    2.28
  -8  -3  -1   35.51    2.24
   8   3   1   36.27    2.28
  -7   4   1    0.80    0.64
  -6   4   1   12.86    1.76
  -6   4   1   10.86    1.14
  -5   4   1    1.91    0.99
  -5   4   1    2.39    0.63
  -4   4   1    4.41    1.04
  -4   4   1    3.92    0.62
  -4   4   1    5.10    0.79
   3  -4  -1    1.51    0.55
  -3   4   1    0.91    0.49
   2  -4  -1    0.39    0.34
  -2   4   1    0.09    0.31
   1  -4  -1    4.17    0.73
   1  -4  -1    3.88    0.65
  -1   4   1    3.63    0.53
   0  -4  -1    2.20    0.47
   0  -4  -1    2.18    0.58
   0   4   1    2.65    0.44
   0   4   1    2.94    0.41
  -1  -4  -1   69.27    3.51
  -1  -4  -1   54.98    4.27
   1   4   1   67.11    3.00
   1   4   1   64.78    3.04
   1   4   1   69.84    4.32
   1   4   1   65.91    2.93
  -2  -4  -1    0.48    0.36
  -2  -4  -1    0.42    0.48
   2   4   1    0.99    0.30
   2   4   1    0.45    0.48
   2   4   1    0.80    0.31
  -3  -4  -1  122.53    8.46
   3   4   1  137.07    5.88
   3   4   1  130.16    8.43
   3   4   1  135.56    5.70
   3   4   1  135.50    6.63
  -4  -4  -1  156.21   10.58
   4   4   1  166.19    8.27
   4   4   1  172.67    7.12
  -5  -4  -1   72.39    3.26
  -5  -4  -1   78.51    4.72
   5   4   1   61.48    4.33
   5   4   1   66.71    3.48
  -6  -4  -1    3.49    0.78
   6   4   1    3.14    0.69
  -7  -4  -1    1.65    0.51
  -7  -4  -1    2.69    0.64
   7   4   1    1.76    0.50
  -8  -4  -1   23.38    1.57
  -8  -4  -1   21.79    1.58
   8   4   1   21.98    1.55
  -6   5   1    7.23    0.79
  -6   5   1    7.22    1.38
  -5   5   1    3.33    1.38
  -5   5   1    0.23    0.40
  -5   5   1    0.51    0.49
  -4   5   1    7.22    1.44
  -4   5   1    7.47    1.03
  -4   5   1    6.89    0.84
   3  -5  -1   33.15    2.36
  -3   5   1   26.13    2.75
  -3   5   1   31.45    1.93
  -3   5   1   32.49    2.05
   2  -5  -1   17.32    1.52
  -2   5   1   18.99    1.36
   1  -5  -1   79.30    4.29
   1  -5  -1   78.33    5.16
  -1   5   1   74.63    3.67
   0  -5  -1   45.44    3.39
   0  -5  -1   49.14    2.78
   0   5   1   45.05    2.33
   0   5   1   44.80    2.38
  -1  -5  -1  175.30    9.05
  -1  -5  -1  190.02   11.33
   1   5   1  185.18    7.89
   1   5   1  179.85    7.63
   1   5   1  181.88    7.95
  -2  -5  -1  155.60    8.17
  -2  -5  -1  166.24   10.30
   2   5   1  167.23    6.94
   2   5   1  168.31    7.20
   2   5   1  159.75   10.17
   2   5   1  161.05    7.18
  -3  -5  -1   53.38    4.02
  -3  -5  -1   45.87    2.97
   3   5   1   52.16    3.90
   3   5   1   53.07    2.61
  -4  -5  -1   28.54    2.84
   4   5   1   25.74    2.63
   4   5   1   29.98    1.80
  -5  -5  -1   13.26    1.36
   5   5   1   12.19    1.23
  -6  -5  -1   22.35    2.04
   6   5   1   26.50    1.93
  -7  -5  -1    0.30    0.40
  -7  -5  -1    0.16    0.35
   7   5   1    0.14    0.36
  -8  -5  -1    0.29    0.25
   8   5   1    0.69    0.28
  -6   6   1    3.54    0.82
  -5   6   1    7.61    0.91
  -5   6   1    7.77    0.84
  -5   6   1    9.57    1.77
  -4   6   1   12.08    1.09
  -4   6   1   11.09    1.23
  -4   6   1   11.02    1.82
  -3   6   1   76.18    4.19
  -3   6   1   72.58    5.82
  -3   6   1   83.47    4.78
  -3   6   1   75.67    4.46
   2  -6  -1   34.88    2.50
  -2   6   1   35.39    2.10
  -2   6   1   30.89    3.10
  -2   6   1   34.16    2.23
  -2   6   1   36.10    2.23
  -2   6   1   33.54    2.36
   1  -6  -1   76.95    4.55
   1  -6  -1   83.11    5.51
  -1   6   1   77.43    3.92
   0  -6  -1   36.09    2.96
   0  -6  -1   37.96    2.48
   0   6   1   31.36    1.96
   0   6   1   34.06    2.06
  -1  -6  -1  113.69    6.03
  -1  -6  -1  109.65    7.44
   1   6   1  111.17    5.03
   1   6   1  110.89    5.20
  -2  -6  -1   45.34    3.76
  -2  -6  -1   46.03    3.01
   2   6   1   47.87    2.51
   2   6   1   48.82    2.66
  -3  -6  -1   15.22    2.22
  -3  -6  -1   15.84    1.79
   3   6   1   14.94    1.41
  -4  -6  -1    0.02    0.48
  -4  -6  -1    0.75    0.44
   4   6   1    0.40    0.49
   4   6   1    0.05    0.38
  -5  -6  -1    0.29    0.47
   5   6   1   -0.05    0.41
  -6  -6  -1    0.19    0.46
   6   6   1    0.74    0.44
  -7  -6  -1    2.22    0.55
  -7  -6  -1    2.86    0.55
   7   6   1    2.55    0.54
  -5   7   1   43.63    2.65
  -5   7   1   38.93    3.29
  -5   7   1   43.86    2.35
  -4   7   1   31.97    2.02
  -4   7   1   30.46    1.95
  -4   7   1   27.62    3.07
  -4   7   1   30.01    2.15
  -3   7   1    8.65    1.06
  -3   7   1    5.54    0.76
  -3   7   1    6.55    1.36
  -3   7   1    6.64    0.89
  -2   7   1    1.83    0.54
  -2   7   1    0.41    0.67
  -2   7   1    1.97    0.52
  -2   7   1    1.26    0.53
   1  -7  -1    1.21    0.47
  -1   7   1    2.05    0.49
  -1   7   1    0.27    0.49
  -1   7   1    2.03    0.54
  -1   7   1    1.27    0.49
   0  -7  -1    4.19    1.07
   0  -7  -1    3.41    0.66
   0   7   1    3.70    0.73
   0   7   1    2.78    0.79
   0   7   1    3.97    0.68
   0   7   1    2.79    0.71
  -1  -7  -1    0.23    0.52
   1   7   1    0.18    0.44
   1   7   1    0.15    0.51
   1   7   1    0.11    0.47
  -2  -7  -1    0.30    0.39
  -2  -7  -1    0.48    0.59
   2   7   1    0.60    0.52
   2   7   1    0.10    0.48
   2   7   1    0.96    0.45
   2   7   1    0.10    0.45
  -3  -7  -1    1.23    0.47
   3   7   1    0.59    0.50
  -4  -7  -1    0.28    0.44
  -4  -7  -1    1.15    0.58
   4   7   1    0.54    0.50
  -5  -7  -1    1.22    0.57
   5   7   1    0.87    0.47
   5   7   1    1.60    0.64
  -6  -7  -1    7.41    0.98
   6   7   1    5.52    0.73
  -7  -7  -1    3.95    0.60
  -7  -7  -1    5.90    0.65
   7   7   1    4.95    0.60
  -4   8   1    0.36    0.36
  -4   8   1   -0.22    0.40
  -4   8   1   -0.23    0.30
  -4   8   1   -1.27    0.50
  -3   8   1    5.33    0.82
  -3   8   1    3.30    0.60
  -3   8   1    4.65    0.65
  -3   8   1    1.88    0.83
   2  -8  -1   -0.13    0.34
  -2   8   1   -0.08    0.34
  -2   8   1    0.04    0.53
  -2   8   1    0.60    0.43
  -2   8   1   -0.09    0.51
   1  -8  -1    0.04    0.35
  -1   8   1   -0.35    0.38
  -1   8   1   -0.79    0.45
  -1   8   1    0.11    0.33
  -1   8   1    0.31    0.42
  -1   8   1    0.24    0.36
   0  -8  -1    0.40    0.44
   0   8   1    0.20    0.37
   0   8   1   -0.25    0.42
   0   8   1    0.80    0.45
  -1  -8  -1   16.87    1.49
   1   8   1   17.47    1.39
   1   8   1   17.57    1.59
   1   8   1   17.20    1.53
  -2  -8  -1    4.46    0.76
   2   8   1    8.59    1.03
   2   8   1    4.00    0.81
  -3  -8  -1    3.02    0.61
   3   8   1    4.50    0.85
  -4  -8  -1   24.66    1.96
   4   8   1   28.41    2.20
  -5  -8  -1   23.99    1.97
   5   8   1   23.58    1.96
  -6  -8  -1    9.04    0.97
   6   8   1    8.68    0.97
  -3   9   1    1.48    0.43
  -3   9   1    0.80    0.36
  -3   9   1    0.86    0.34
   2  -9  -1    7.79    0.84
  -2   9   1    8.90    0.79
  -2   9   1    9.12    1.02
  -2   9   1    8.14    0.90
   1  -9  -1    0.76    0.38
  -1   9   1    0.48    0.38
  -1   9   1    0.91    0.32
  -1   9   1    0.23    0.43
  -1   9   1    1.52    0.46
   0  -9  -1    8.57    0.96
   0   9   1    8.71    0.93
   0   9   1    7.45    0.92
   0   9   1    6.94    0.93
   0   9   1    6.32    0.80
  -1  -9  -1   51.58    3.55
   1   9   1   58.69    3.56
   1   9   1   54.34    3.73
   1   9   1   53.51    3.10
  -2  -9  -1   30.91    2.15
   2   9   1   27.29    2.26
  -3  -9  -1   14.94    1.34
   3   9   1   16.25    1.49
   3   9   1   14.69    1.15
  -4  -9  -1   25.14    1.78
   4   9   1   21.49    1.86
  -5  -9  -1   19.84    1.66
   5   9   1   22.70    1.71
  -2  10   1   33.19    1.97
   1 -10  -1   16.78    1.24
  -1  10   1   17.16    1.18
  -1  10   1   15.39    1.27
   0 -10  -1   34.56    2.29
   0  10   1   34.59    2.09
   0  10   1   33.21    2.26
   0  10   1   34.23    1.98
  -1 -10  -1    6.77    0.78
   1  10   1    6.10    0.70
   1  10   1    6.38    0.76
  -2 -10  -1   35.66    2.36
   2  10   1   36.75    2.06
   2  10   1   31.86    2.42
  -3 -10  -1   36.74    2.42
   3  10   1   31.42    2.01
   3  10   1   41.58    2.59
  -4 -10  -1    3.73    0.54
   4  10   1    3.91    0.61
   3   9  -2    1.58    0.46
  -3  -9   2    2.16    0.52
   2   9  -2    0.20    0.39
  -2  -9   2    0.57    0.33
   1   9  -2    0.37    0.39
  -1  -9   2   -0.11    0.31
   0   9  -2    0.09    0.37
   0  -9   2    0.31    0.37
  -1   9  -2    3.93    0.51
  -1   9  -2    4.14    0.54
  -1   9  -2    3.61    0.58
   1  -9   2    3.37    0.59
  -2   9  -2   23.09    1.44
   2  -9   2   21.45    1.56
   5   8  -2    1.15    0.35
  -5  -8   2    1.23    0.36
   4   8  -2    5.94    0.84
   4   8  -2    4.53    0.66
  -4  -8   2    4.34    0.71
   3   8  -2    1.20    0.53
  -3  -8   2    1.31    0.49
   2   8  -2    5.78    0.99
  -2  -8   2    4.95    0.76
   1   8  -2   25.49    1.93
  -1  -8   2   18.23    1.66
   0   8  -2   52.26    3.87
   0  -8   2   59.18    3.68
  -1   8  -2   37.76    2.17
  -1   8  -2   32.10    2.44
   1  -8   2   26.60    2.27
  -2   8  -2    2.01    0.42
  -2   8  -2    4.52    0.74
  -2   8  -2    4.40    0.66
   2  -8   2    3.58    0.63
  -3   8  -2   21.45    1.57
  -3   8  -2   21.63    1.39
   3  -8   2   24.23    1.66
  -4   8  -2    7.21    0.67
  -4   8  -2    6.79    0.58
   4  -8   2    5.67    0.62
   6   7  -2    8.75    0.76
  -6  -7   2    9.30    0.79
  -6  -7   2    7.70    0.77
   5   7  -2    7.81    0.89
  -5  -7   2    8.87    1.01
   4   7  -2   14.06    1.30
  -4  -7   2   15.96    1.51
   3   7  -2    8.65    1.04
   3   7  -2   10.22    1.28
   2   7  -2   72.72    4.57
  -2  -7   2   60.41    4.14
   1   7  -2   66.32    4.75
  -1  -7   2   73.24    4.47
   0   7  -2    8.66    0.95
   0   7  -2   10.63    1.31
   0  -7   2    6.53    0.95
  -1   7  -2   19.83    1.84
  -1   7  -2   22.18    1.60
  -2   7  -2   11.89    1.01
  -2   7  -2   13.09    1.29
  -2   7  -2   10.24    1.11
   2  -7   2   11.08    1.20
  -3   7  -2    0.52    0.43
  -3   7  -2   -0.10    0.36
  -3   7  -2   -0.09    0.33
   3  -7   2    0.46    0.42
  -4   7  -2    7.60    0.77
  -4   7  -2    6.48    0.79
   4  -7   2    6.86    0.81
  -5   7  -2    0.09    0.27
   5  -7   2    0.40    0.24
   6   6  -2   17.60    1.38
  -6  -6   2   17.80    1.36
  -6  -6   2   17.86    1.43
   5   6  -2   31.94    2.35
  -5  -6   2   35.40    2.55
   4   6  -2   12.90    1.27
  -4  -6   2   13.10    1.41
   3   6  -2   13.51    1.35
  -3  -6   2   15.79    1.50
   2   6  -2    2.11    0.60
   2   6  -2    1.02    0.52
  -2  -6   2    2.06    0.67
  -2  -6   2    1.84    0.53
   1   6  -2    0.27    0.46
   1   6  -2    2.76    0.74
  -1  -6   2    1.78    0.56
  -1  -6   2    0.84    0.61
   0   6  -2   -0.25    0.43
   0   6  -2    0.84    0.56
   0  -6   2    0.37    0.56
   0  -6   2    0.33    0.39
  -1   6  -2    0.37    0.43
  -1   6  -2   -0.19    0.39
   1  -6   2    0.01    0.37
  -2   6  -2    4.86    0.66
  -2   6  -2    2.94    0.68
  -2   6  -2    3.70    0.66
   2  -6   2    4.98    0.78
  -3   6  -2    0.98    0.48
  -3   6  -2    0.74    0.42
  -3   6  -2    1.12    0.50
  -3   6  -2    1.79    0.62
   3  -6   2    1.62    0.54
  -4   6  -2    1.68    0.54
  -4   6  -2    1.75    0.50
  -4   6  -2    1.44    0.51
  -4   6  -2    0.06    0.63
   4  -6   2    1.54    0.51
  -5   6  -2   -0.61    0.55
  -5   6  -2    0.31    0.37
  -5   6  -2    0.76    0.41
   5  -6   2    0.38    0.31
   7   5  -2    0.97    0.30
  -7  -5   2    0.94    0.33
   6   5  -2    2.79    0.55
  -6  -5   2    2.12    0.51
  -6  -5   2    2.29    0.56
   5   5  -2    0.24    0.42
  -5  -5   2    0.23    0.44
   4   5  -2    5.52    0.82
  -4  -5   2    4.20    0.71
  -4  -5   2    3.00    0.72
   3   5  -2    0.61    0.43
   3   5  -2    0.33    0.45
   3   5  -2    0.63    0.49
  -3  -5   2    0.78    0.49
  -3  -5   2    1.10    0.55
   2   5  -2    9.46    1.01
   2   5  -2    8.50    0.94
   2   5  -2    8.01    1.48
   2   5  -2    8.94    1.02
  -2  -5   2    6.39    1.44
  -2  -5   2    7.45    1.09
  -2  -5   2    9.76    0.95
   1   5  -2    7.99    0.93
   1   5  -2    7.65    0.87
   1   5  -2    6.87    1.32
   1   5  -2    9.61    1.05
  -1  -5   2    8.59    1.57
  -1  -5   2    7.73    0.78
  -1  -5   2    7.26    1.07
   0   5  -2  106.79    4.82
   0   5  -2  101.80    4.93
   0  -5   2  103.67    7.13
   0  -5   2  100.79    5.65
  -1   5  -2   23.65    1.60
   1  -5   2   24.70    2.41
   1  -5   2   18.88    1.79
   2  -5   2   11.74    1.45
   2  -5   2    9.96    1.71
  -3   5  -2   29.38    2.22
  -3   5  -2   26.48    1.96
  -3   5  -2   28.49    2.43
   3  -5   2   30.70    2.12
  -4   5  -2    7.17    0.95
  -4   5  -2    6.55    1.10
  -4   5  -2    8.02    1.01
  -4   5  -2    7.23    0.90
   4  -5   2    9.06    0.97
  -5   5  -2    2.34    0.54
  -5   5  -2    0.51    0.68
   5  -5   2    2.89    0.59
  -6   5  -2   19.94    1.30
  -6   5  -2   17.78    1.76
   6  -5   2   21.18    1.44
   7   4  -2    0.39    0.30
  -7  -4   2    0.17    0.31
   6   4  -2    9.94    1.07
  -6  -4   2   10.10    1.08
  -6  -4   2   10.29    1.07
   5   4  -2    3.18    0.67
  -5  -4   2    2.36    0.71
  -5  -4   2    2.80    0.63
   4   4  -2   10.19    1.07
   4   4  -2   10.12    1.15
   4   4  -2   11.46    1.28
  -4  -4   2   10.41    1.34
  -4  -4   2   10.28    1.14
   3   4  -2   20.21    1.38
   3   4  -2   16.39    1.91
   3   4  -2   19.95    1.42
  -3  -4   2   20.27    1.33
   2   4  -2   -0.06    0.45
   2   4  -2    0.58    0.36
   2   4  -2    0.91    0.38
  -2  -4   2    0.24    0.53
  -2  -4   2    0.63    0.34
  -2  -4   2    0.17    0.42
   1   4  -2   37.30    2.08
   1   4  -2   40.04    2.17
   1   4  -2   41.57    3.16
   1   4  -2   40.46    2.04
  -1  -4   2   42.66    1.91
  -1  -4   2   37.20    3.15
  -1  -4   2   41.00    2.52
   0   4  -2   45.73    2.44
   0   4  -2   41.72    3.38
   0   4  -2   45.77    2.33
   0   4  -2   46.89    2.29
   0  -4   2   50.54    2.11
   0  -4   2   47.71    3.59
   0  -4   2   50.73    2.88
  -1   4  -2    3.75    0.59
  -1   4  -2    3.78    0.86
  -1   4  -2    2.61    0.47
   1  -4   2    3.50    0.94
   1  -4   2    3.49    0.61
   1  -4   2    2.76    0.66
  -2   4  -2   29.66    1.90
  -2   4  -2   30.76    1.88
   2  -4   2   33.65    2.20
   2  -4   2   33.65    2.80
   2  -4   2   31.86    2.08
  -3   4  -2  129.18    6.37
   3  -4   2  129.53    8.35
  -4   4  -2   79.27    4.65
  -4   4  -2   73.45    4.07
  -4   4  -2   62.78    5.16
   4  -4   2   62.22    4.29
  -5   4  -2    1.62    0.50
  -5   4  -2    1.50    0.54
  -5   4  -2    0.24    0.69
   5  -4   2    1.53    0.48
  -6   4  -2   11.74    1.46
  -6   4  -2   12.36    1.05
   6  -4   2   13.67    1.14
   7  -4   2   15.77    1.13
   7   3  -2    0.35    0.31
  -7  -3   2    0.28    0.39
   6   3  -2    1.81    0.54
  -6  -3   2    1.51    0.45
  -6  -3   2    0.87    0.63
  -6  -3   2    1.97    0.58
   5   3  -2    0.73    0.43
  -5  -3   2    0.53    0.40
  -5  -3   2   -0.92    0.60
   4   3  -2   45.77    3.67
   4   3  -2   45.96    2.53
  -4  -3   2   47.86    2.40
   3   3  -2  261.25   10.80
   3   3  -2  275.88   15.93
   3   3  -2  269.18   11.44
   3   3  -2  244.59   11.99
  -3  -3   2  257.76   10.15
   2   3  -2    5.13    0.67
   2   3  -2    6.05    0.68
   2   3  -2    7.38    0.77
   2   3  -2    6.34    1.05
  -2  -3   2    7.87    0.91
  -2  -3   2    5.61    0.64
  -2  -3   2    5.51    1.05
   1   3  -2   98.89    4.39
   1   3  -2   99.01    4.68
   1   3  -2  113.97    4.91
   1   3  -2  109.18    6.63
  -1  -3   2   96.30    6.63
  -1  -3   2  100.34    4.13
  -1  -3   2  105.91    5.35
   0   3  -2  313.39   14.09
   0   3  -2  315.35   13.01
   0   3  -2  298.96   12.62
   0   3  -2  315.12   13.41
   0   3  -2  354.53   18.77
   0  -3   2  309.52   15.12
   0  -3   2  300.80   11.77
  -1   3  -2  181.23    8.07
  -1   3  -2  182.22   10.68
  -1   3  -2  170.18    7.40
  -1   3  -2  175.09    7.67
   1  -3   2  166.49    8.66
   1  -3   2  178.28   10.79
   1  -3   2  177.12    8.50
  -2   3  -2  209.59    9.26
  -2   3  -2  217.13    8.96
  -2   3  -2  206.59    9.75
   2  -3   2  214.67   10.34
   2  -3   2  216.43   10.41
  -3   3  -2   19.47    1.41
   3  -3   2   19.64    1.83
   3  -3   2   19.14    1.53
   4  -3   2   27.86    2.52
   4  -3   2   29.07    1.71
   4  -3   2   26.52    2.08
  -5   3  -2    0.14    0.42
   5  -3   2    0.00    0.36
  -6   3  -2    5.70    1.15
   6  -3   2    8.38    0.91
   7  -3   2    1.03    0.37
   7   2  -2   21.40    1.57
  -7  -2   2   20.37    2.24
  -7  -2   2   23.18    1.69
   6   2  -2   17.78    1.43
  -6  -2   2   17.15    1.52
  -6  -2   2   15.22    1.64
   5   2  -2   78.00    4.98
  -5  -2   2   84.88    5.21
  -5  -2   2   77.50    6.13
  -5  -2   2   83.05    5.42
  -5  -2   2   80.53    4.95
   4   2  -2  117.65    5.28
   4   2  -2  124.34    7.66
   4   2  -2  110.90    5.55
  -4  -2   2  115.64    4.93
   3   2  -2   46.65    2.39
   3   2  -2   41.96    2.22
   3   2  -2   42.86    3.20
  -3  -2   2   45.50    2.13
   2   2  -2  268.42   15.08
   2   2  -2  241.34   10.21
   2   2  -2  250.74   10.83
   2   2  -2  247.89   11.42
  -2  -2   2  250.11    9.61
  -2  -2   2  248.22   15.11
  -2  -2   2  258.36   12.10
   1   2  -2  304.02   13.90
   1   2  -2  303.97   18.32
   1   2  -2  309.22   12.42
   1   2  -2  322.84   13.20
  -1  -2   2  321.76   14.82
  -1  -2   2  320.44   11.67
  -1  -2   2  296.16   18.39
   0   2  -2  542.33   21.51
   0   2  -2  548.74   31.75
   0   2  -2  476.80   24.07
   0   2  -2  572.70   22.81
   0  -2   2  524.73   20.12
   0  -2   2  548.64   25.64
   0  -2   2  606.64   31.87
  -1   2  -2   59.71    2.61
  -1   2  -2   61.71    3.84
  -1   2  -2   60.63    2.89
  -1   2  -2   62.56    2.75
   1  -2   2   52.55    2.99
   1  -2   2   59.20    3.14
   1  -2   2   59.22    2.29
  -2   2  -2    1.13    0.32
  -2   2  -2    0.75    0.31
  -2   2  -2    1.72    0.52
  -2   2  -2    0.94    0.27
   2  -2   2    0.47    0.43
   2  -2   2    1.64    0.41
   2  -2   2    1.11    0.36
  -3   2  -2   16.81    1.04
  -3   2  -2   15.17    1.12
   3  -2   2   13.81    1.43
   3  -2   2   16.34    1.28
  -4   2  -2   30.45    1.96
   4  -2   2   29.37    2.14
   4  -2   2   32.94    1.77
   4  -2   2   31.02    2.59
  -5   2  -2    3.13    0.64
  -5   2  -2    1.14    0.50
   5  -2   2    2.21    0.54
   5  -2   2    1.95    0.59
  -6   2  -2    2.36    0.60
  -6   2  -2    1.51    0.71
   6  -2   2    2.48    0.58
   7  -2   2    9.91    0.96
   7   1  -2   30.45    2.15
  -7  -1   2   31.34    3.06
  -7  -1   2   32.38    2.22
   6   1  -2   34.67    2.38
  -6  -1   2   33.39    2.63
  -6  -1   2   37.14    2.52
  -6  -1   2   33.08    3.32
  -5  -1   2   63.76    4.01
  -5  -1   2   67.50    5.05
  -5  -1   2   59.01    4.41
  -5  -1   2   64.83    4.80
   4   1  -2   33.93    2.15
   4   1  -2   39.41    2.90
   4   1  -2   37.67    2.09
  -4  -1   2   37.29    1.90
   3   1  -2  119.28    5.17
   3   1  -2  121.80    5.49
   3   1  -2  121.00    7.47
  -3  -1   2  118.38    4.84
   2   1  -2    5.48    0.77
   2   1  -2    6.02    0.64
   2   1  -2    4.95    0.54
   2   1  -2    5.83    0.47
  -2  -1   2    6.38    0.57
  -2  -1   2    5.30    0.59
   1   1  -2    0.37    0.27
   1   1  -2    0.91    0.24
   1   1  -2    1.33    0.31
   1   1  -2    0.94    0.36
  -1  -1   2    0.54    0.23
  -1  -1   2    0.85    0.28
  -1  -1   2    0.54    0.39
   0   1  -2  442.07   18.24
   0   1  -2  432.85   19.31
   0   1  -2  436.20   17.19
   0   1  -2  504.21   25.43
   0  -1   2  409.49   25.40
   0  -1   2  418.26   16.11
   0  -1   2  415.85   20.49
  -1   1  -2   67.50    3.05
  -1   1  -2   67.15    4.04
  -1   1  -2   65.62    2.86
  -1   1  -2   65.59    2.71
   1  -1   2   60.73    3.16
   1  -1   2   58.85    2.43
   1  -1   2   58.59    4.06
   1  -1   2   71.67    3.30
  -2   1  -2    5.63    0.48
  -2   1  -2    7.03    0.80
  -2   1  -2    5.47    0.52
  -2   1  -2    6.52    0.58
   2  -1   2    6.75    0.69
   2  -1   2    6.10    0.77
   2  -1   2    5.93    0.56
  -3   1  -2   10.64    0.77
  -3   1  -2   10.21    0.85
  -3   1  -2   12.61    1.24
   3  -1   2   10.96    0.97
   3  -1   2    8.87    1.06
   3  -1   2   10.63    0.75
  -4   1  -2  170.30    8.00
   4  -1   2  182.36   10.52
   4  -1   2  167.21    8.49
   4  -1   2  157.94    7.10
   5  -1   2   34.39    3.00
   5  -1   2   38.14    2.10
   5  -1   2   36.97    2.56
  -6   1  -2    7.65    0.99
  -6   1  -2    5.58    1.11
   6  -1   2    7.51    0.89
  -7   1  -2   24.78    1.88
   7  -1   2   24.71    1.84
   8  -1   2   25.16    1.70
  -7   0   2   37.16    2.63
  -7   0   2   42.31    3.70
  -6   0   2    6.05    1.49
  -6   0   2    7.58    1.20
  -6   0   2    6.75    0.95
  -5   0   2   19.20    2.05
  -5   0   2   18.50    1.86
  -5   0   2   18.63    1.56
   4   0  -2    0.37    0.41
   4   0  -2    0.64    0.49
   4   0  -2    0.25    0.38
   3   0  -2    0.86    0.37
   3   0  -2    0.38    0.28
   3   0  -2    0.42    0.28
   3   0  -2    0.15    0.36
  -3   0   2   -0.09    0.21
   2   0  -2   69.44    4.75
   2   0  -2   78.69    3.84
   2   0  -2   88.03    3.60
   2   0  -2   77.19    3.33
  -2   0   2   78.70    3.12
   1   0  -2    3.59    0.34
   1   0  -2    3.47    0.39
   1   0  -2    2.92    0.28
   1   0  -2    3.71    0.48
  -1   0   2    3.56    0.48
  -1   0   2    3.28    0.34
  -1   0   2    3.28    0.39
   0   0  -2   10.46    0.74
   0   0  -2    9.08    0.53
   0   0  -2    9.62    0.60
   0   0   2    7.29    0.70
   0   0   2    8.98    0.47
   0   0   2    8.53    0.62
  -1   0  -2  119.37    5.17
  -1   0  -2  116.92    4.84
  -1   0  -2  100.94    6.78
   1   0   2  114.36    4.25
   1   0   2  114.91    5.49
   1   0   2  119.65    5.44
  -2   0  -2    7.39    0.81
  -2   0  -2    7.94    0.60
   2   0   2    7.47    0.81
   2   0   2    6.96    0.48
   2   0   2    7.59    0.65
  -3   0  -2    5.04    0.58
  -3   0  -2    6.82    0.94
   3   0   2    3.54    0.69
   3   0   2    3.63    0.58
   3   0   2    5.44    0.51
   4   0   2   79.42    3.58
   4   0   2   84.72    4.36
   4   0   2   76.71    5.31
   5   0   2  245.52   12.23
  -6   0  -2   44.79    3.17
  -6   0  -2   42.15    3.76
   6   0   2   49.06    3.02
  -7   0  -2    1.54    0.49
  -7   0  -2   -1.06    0.53
   7   0   2    0.88    0.45
   8   0   2    2.37    0.48
  -7   1   2    6.53    1.51
  -7   1   2    3.30    0.81
  -7   1   2    4.56    0.72
  -6   1   2    2.96    0.75
  -6   1   2    2.28    0.74
  -6   1   2    4.10    1.48
  -5   1   2    0.31    0.48
  -5   1   2    0.50    0.43
  -5   1   2    0.57    0.75
   4  -1  -2    0.48    0.41
   4  -1  -2    0.94    0.48
   4  -1  -2    0.48    0.37
   3  -1  -2    9.58    0.76
   3  -1  -2    8.65    0.89
   3  -1  -2    9.40    0.86
  -3   1   2    9.61    0.63
   2  -1  -2   13.81    0.96
   2  -1  -2   13.64    1.04
   2  -1  -2   14.80    0.86
  -2   1   2   15.24    0.76
  -2   1   2   15.93    0.96
   1  -1  -2  121.46    6.91
  -1   1   2  111.86    4.99
  -1   1   2  123.24    4.52
   0  -1  -2  235.33   10.44
   0  -1  -2  241.04   13.60
   0   1   2  241.38    9.58
   0   1   2  223.97    8.72
  -1  -1  -2  395.16   17.58
   1   1   2  392.65   14.70
   1   1   2  393.61   23.14
   1   1   2  414.32   15.69
   1   1   2  402.62   18.62
  -2  -1  -2  118.48    4.97
  -2  -1  -2  104.39    6.60
   2   1   2   99.10    4.41
   2   1   2  112.61    5.30
  -3  -1  -2   42.50    2.78
  -3  -1  -2   35.96    2.00
   3   1   2   41.30    2.76
   3   1   2   38.05    1.81
   3   1   2   36.26    2.19
   4   1   2    1.33    0.36
   4   1   2    1.61    0.53
   4   1   2    1.43    0.59
   5   1   2   31.23    2.19
   5   1   2   31.41    2.69
   5   1   2   32.06    1.87
  -6  -1  -2    0.96    0.43
  -6  -1  -2    1.12    0.59
   6   1   2    0.67    0.39
  -7  -1  -2   10.42    1.38
  -7  -1  -2   10.20    1.15
   7   1   2   11.40    1.12
   8   1   2    3.85    0.60
  -7   2   2    1.06    1.29
  -7   2   2    0.48    0.38
  -7   2   2   -0.86    0.73
  -6   2   2    8.15    1.74
  -6   2   2    2.49    0.66
  -6   2   2    1.70    0.72
  -5   2   2    1.49    1.05
  -5   2   2    1.49    0.68
  -5   2   2    0.96    0.50
   4  -2  -2   70.03    3.28
   4  -2  -2   63.23    3.77
   3  -2  -2   64.19    3.02
   3  -2  -2   65.39    3.56
  -3   2   2   66.29    3.21
   2  -2  -2   50.88    2.92
   2  -2  -2   58.10    3.37
  -2   2   2   54.30    2.24
  -2   2   2   58.12    2.64
   1  -2  -2   22.75    1.27
   1  -2  -2   23.05    1.36
   1  -2  -2   21.02    1.37
  -1   2   2   21.71    0.99
  -1   2   2   22.40    1.17
   0  -2  -2    1.96    0.32
   0   2   2    1.71    0.24
   0   2   2    1.81    0.28
  -1  -2  -2   76.26    5.46
  -1  -2  -2   93.45    4.06
   1   2   2   99.37    5.50
   1   2   2   92.85    3.72
   1   2   2   93.94    4.46
  -2  -2  -2   44.36    2.08
  -2  -2  -2   40.62    2.22
  -2  -2  -2   49.69    2.96
   2   2   2   42.26    1.93
   2   2   2   39.09    2.86
   2   2   2   43.98    1.95
   2   2   2   47.33    2.35
  -3  -2  -2   45.99    3.11
   3   2   2   45.32    3.09
   3   2   2   41.14    2.05
   3   2   2   44.40    2.06
   3   2   2   43.45    2.43
  -4  -2  -2    0.37    0.47
   4   2   2    0.30    0.48
   4   2   2    0.51    0.34
   4   2   2    0.50    0.36
   5   2   2    2.55    0.87
   5   2   2    3.12    0.76
   5   2   2    2.78    0.62
  -6  -2  -2    7.21    0.97
  -6  -2  -2   10.24    1.16
  -6  -2  -2    8.13    0.95
   6   2   2    5.38    0.79
  -7  -2  -2   18.77    1.59
   7   2   2   13.83    1.38
  -8  -2  -2    0.47    0.35
   8   2   2    0.80    0.40
  -7   3   2    2.74    0.99
  -7   3   2    3.34    0.58
  -7   3   2    2.42    1.07
  -6   3   2   27.40    2.61
  -6   3   2   27.63    2.07
  -5   3   2   17.78    2.58
  -5   3   2   18.61    1.87
  -5   3   2   18.29    1.57
   4  -3  -2   78.19    3.70
   4  -3  -2   71.29    4.24
   3  -3  -2   65.94    3.72
   3  -3  -2   69.30    3.17
  -3   3   2   64.99    3.31
   2  -3  -2   43.61    2.55
   2  -3  -2   45.98    2.80
  -2   3   2   42.93    2.24
   1  -3  -2    4.88    0.59
   1  -3  -2    5.63    0.57
  -1   3   2    5.44    0.40
  -1   3   2    6.00    0.61
   0  -3  -2    4.11    0.58
   0  -3  -2    4.53    0.54
   0   3   2    3.86    0.46
  -1  -3  -2  252.38   12.19
  -1  -3  -2  259.95   15.12
   1   3   2  242.78   10.71
   1   3   2  254.79   10.26
   1   3   2  262.55   15.10
   1   3   2  267.42   10.60
  -2  -3  -2    5.40    0.55
  -2  -3  -2    6.26    0.91
   2   3   2    4.84    0.40
   2   3   2    6.01    0.86
   2   3   2    5.99    0.66
   2   3   2    7.01    0.56
  -3  -3  -2   39.51    3.02
   3   3   2   43.87    2.03
   3   3   2   40.93    2.35
   3   3   2   39.56    2.98
  -4  -3  -2   51.88    3.65
   4   3   2   40.39    3.41
   4   3   2   46.06    2.34
   4   3   2   48.81    2.78
   5   3   2   30.02    2.11
   5   3   2   29.11    2.73
   5   3   2   28.29    1.81
  -6  -3  -2   32.72    2.35
  -6  -3  -2   27.32    2.09
   6   3   2   29.42    2.17
  -7  -3  -2    0.58    0.47
  -7  -3  -2    0.54    0.42
   7   3   2    0.04    0.41
  -8  -3  -2    1.00    0.40
   8   3   2    1.73    0.45
  -6   4   2   31.93    2.95
  -6   4   2   37.36    3.90
  -6   4   2   26.87    2.13
  -5   4   2    0.70    0.50
  -5   4   2    2.76    1.45
  -5   4   2    0.69    0.84
  -4   4   2    0.43    0.45
  -4   4   2    1.63    0.64
   3  -4  -2   16.04    1.47
  -3   4   2   16.42    1.33
   2  -4  -2    1.63    0.52
  -2   4   2    1.70    0.49
   1  -4  -2    1.50    0.41
   1  -4  -2    1.43    0.42
  -1   4   2    0.63    0.31
   0  -4  -2    0.52    0.42
   0  -4  -2    0.24    0.36
   0   4   2    0.34    0.32
  -1  -4  -2   60.59    4.07
  -1  -4  -2   61.55    3.29
   1   4   2   57.80    4.02
   1   4   2   61.26    2.78
   1   4   2   64.80    2.88
   1   4   2   66.11    2.78
  -2  -4  -2    4.80    0.90
  -2  -4  -2    6.10    0.73
   2   4   2    6.20    0.96
   2   4   2    6.02    0.75
   2   4   2    6.29    0.67
  -3  -4  -2   15.45    1.60
  -3  -4  -2   13.25    1.08
   3   4   2   14.45    1.00
   3   4   2   13.74    1.14
   3   4   2   15.75    1.56
  -4  -4  -2   52.61    4.03
   4   4   2   53.54    3.06
   4   4   2   48.96    3.89
   4   4   2   52.04    2.61
   5   4   2   14.55    2.05
   5   4   2   15.32    1.58
   5   4   2   10.69    1.13
  -6  -4  -2   21.45    2.03
   6   4   2   29.00    1.97
  -7  -4  -2   22.47    1.73
  -7  -4  -2   19.45    1.83
   7   4   2   24.12    1.75
  -8  -4  -2   24.28    1.66
   8   4   2   24.60    1.72
  -6   5   2   17.10    2.14
  -6   5   2   10.06    1.05
  -5   5   2    5.08    1.43
  -4   5   2   29.63    2.82
  -4   5   2   29.12    1.87
  -4   5   2   29.71    2.21
   3  -5  -2    0.29    0.58
  -3   5   2   -0.12    0.43
  -3   5   2    0.11    0.72
  -3   5   2    0.90    0.43
  -3   5   2    1.04    0.51
   2  -5  -2    2.82    0.69
  -2   5   2    1.87    0.52
   1  -5  -2   38.46    2.74
   1  -5  -2   38.33    2.40
  -1   5   2   37.03    2.08
   0  -5  -2    0.10    0.36
   0  -5  -2    0.61    0.48
   0   5   2    0.99    0.36
  -1  -5  -2   25.27    1.73
  -1  -5  -2   25.77    2.12
   1   5   2   23.97    1.46
   1   5   2   25.27    1.43
  -2  -5  -2  151.48    8.01
  -2  -5  -2  176.94   10.15
   2   5   2  156.97    6.80
   2   5   2  158.30    7.04
  -3  -5  -2   84.98    4.75
  -3  -5  -2  102.91    6.31
   3   5   2   83.35    6.05
   3   5   2   92.87    4.82
   3   5   2   88.66    4.10
  -4  -5  -2   95.18    6.81
   4   5   2  102.08    4.52
   4   5   2   93.79    5.23
   4   5   2   98.01    6.78
  -5  -5  -2   44.41    3.22
  -6  -5  -2   33.00    2.55
   6   5   2   32.53    2.35
  -7  -5  -2    1.45    0.48
  -7  -5  -2    0.78    0.45
   7   5   2    1.11    0.49
  -8  -5  -2    7.85    0.79
   8   5   2    9.47    0.82
  -6   6   2    0.95    0.72
  -5   6   2    4.43    1.55
  -5   6   2    0.57    0.39
  -5   6   2    0.16    0.34
  -4   6   2    0.58    0.44
  -4   6   2    0.24    0.47
  -3   6   2   20.79    2.42
  -3   6   2   20.41    1.47
  -3   6   2   18.85    1.52
  -3   6   2   19.52    1.68
   2  -6  -2   69.13    4.02
  -2   6   2   64.18    4.07
  -2   6   2   70.39    3.53
  -2   6   2   65.20    3.55
  -2   6   2   60.32    3.80
   1  -6  -2   55.86    4.04
   1  -6  -2   59.35    3.52
  -1   6   2   57.79    3.04
   0  -6  -2    5.14    1.04
   0  -6  -2    6.33    1.01
   0   6   2    4.98    0.76
  -1  -6  -2   85.68    4.74
  -1  -6  -2   84.29    5.84
   1   6   2   86.19    4.13
  -2  -6  -2   81.38    5.86
  -2  -6  -2   89.79    4.73
   2   6   2   85.21    4.13
   2   6   2   82.03    3.96
  -3  -6  -2   22.13    2.39
  -3  -6  -2   19.56    1.74
   3   6   2   23.11    1.55
   3   6   2   24.63    1.65
  -4  -6  -2   28.42    2.13
   4   6   2   32.34    1.95
   4   6   2   29.02    2.33
  -5  -6  -2    2.21    0.59
  -5  -6  -2    2.24    0.67
   5   6   2    1.46    0.64
   5   6   2    1.95    0.62
  -6  -6  -2    1.80    0.59
   6   6   2    1.49    0.50
  -7  -6  -2    0.10    0.31
  -7  -6  -2    0.46    0.40
   7   6   2    0.17    0.36
  -5   7   2   26.27    1.61
  -5   7   2   28.82    1.88
  -5   7   2   27.80    2.59
  -4   7   2    9.46    0.99
  -4   7   2   11.11    1.79
  -4   7   2    9.52    1.07
  -3   7   2   48.18    2.88
  -3   7   2   49.20    3.05
  -3   7   2   49.34    4.16
  -3   7   2   51.29    3.27
  -2   7   2   37.73    2.36
  -2   7   2   42.11    2.75
  -2   7   2   39.27    2.57
  -2   7   2   39.34    3.35
  -1   7   2   15.57    1.43
  -1   7   2   16.48    1.22
  -1   7   2   15.72    1.31
  -1   7   2   15.58    1.21
   0  -7  -2   31.55    2.50
   0  -7  -2   34.80    2.99
   0   7   2   31.30    2.13
  -1  -7  -2    8.22    1.56
  -1  -7  -2    8.86    1.35
   1   7   2    5.86    0.99
  -2  -7  -2   52.98    4.24
  -2  -7  -2   51.92    3.36
   2   7   2   49.29    2.79
   2   7   2   48.75    2.90
  -3  -7  -2    1.71    0.81
  -3  -7  -2    2.10    0.56
   3   7   2    2.58    0.69
  -4  -7  -2    8.78    0.99
   4   7   2    6.60    1.00
  -5  -7  -2    0.27    0.50
  -5  -7  -2    0.91    0.47
   5   7   2    0.74    0.54
   5   7   2    0.37    0.43
  -6  -7  -2    0.59    0.42
   6   7   2    0.63    0.47
   6   7   2    0.53    0.39
  -7  -7  -2    2.39    0.52
   7   7   2    2.70    0.48
  -4   8   2    8.70    1.25
  -4   8   2    9.76    0.87
  -4   8   2   10.18    1.05
  -3   8   2    0.36    0.51
  -3   8   2    0.32    0.39
  -3   8   2    1.27    0.47
  -3   8   2   -0.33    0.76
  -2   8   2   14.27    1.28
  -2   8   2   11.98    1.62
  -2   8   2   16.52    1.24
  -2   8   2   14.42    1.47
  -1   8   2   44.88    2.87
  -1   8   2   48.39    2.70
  -1   8   2   44.14    2.65
  -1   8   2   45.17    3.08
   0  -8  -2    4.36    0.72
   0   8   2    2.59    0.51
   0   8   2    3.21    0.72
   0   8   2    5.93    0.79
   0   8   2    5.86    0.79
   0   8   2    3.50    0.63
  -1  -8  -2   16.91    1.40
   1   8   2   14.44    1.28
   1   8   2   16.85    1.47
   1   8   2   13.95    1.42
  -2  -8  -2    4.14    0.72
   2   8   2    5.22    0.79
   2   8   2    9.25    1.12
  -3  -8  -2    1.50    0.51
   3   8   2    0.94    0.53
  -4  -8  -2    2.01    0.55
   4   8   2    2.89    0.70
  -5  -8  -2    0.42    0.42
  -5  -8  -2    0.29    0.40
   5   8   2    0.28    0.48
  -6  -8  -2    9.37    1.04
   6   8   2   10.77    1.09
  -3   9   2    9.06    0.86
  -3   9   2   10.80    1.06
  -3   9   2   10.36    0.85
  -2   9   2    1.54    0.59
  -2   9   2    0.64    0.34
  -2   9   2    0.92    0.44
   1  -9  -2   -0.13    0.28
  -1   9   2    0.10    0.31
  -1   9   2   -0.18    0.50
  -1   9   2    0.09    0.38
  -1   9   2    0.07    0.37
   0  -9  -2   41.59    2.73
   0   9   2   36.42    2.51
   0   9   2   40.01    2.42
   0   9   2   42.28    2.82
  -1  -9  -2    0.94    0.44
   1   9   2    2.37    0.59
   1   9   2    2.67    0.65
   1   9   2    2.13    0.56
   1   9   2    3.17    0.62
  -2  -9  -2    0.68    0.42
   2   9   2    0.25    0.45
   2   9   2    0.64    0.44
   2   9   2    0.98    0.51
  -3  -9  -2   16.04    1.54
   3   9   2   20.58    1.42
   3   9   2   21.97    1.76
  -4  -9  -2    5.02    0.75
   4   9   2    5.84    0.89
  -5  -9  -2   25.39    1.93
   5   9   2   30.44    2.13
  -6  -9  -2   31.68    2.09
   6   9   2   27.80    2.06
  -2  10   2    0.09    0.27
  -2  10   2    0.59    0.33
  -2  10   2    0.29    0.22
   1 -10  -2    4.57    0.57
  -1  10   2    3.94    0.56
  -1  10   2    2.94    0.47
  -1  10   2    3.32    0.46
  -1  10   2    4.92    0.70
   0 -10  -2    7.83    0.82
   0  10   2    8.28    0.83
   0  10   2    8.93    1.04
   0  10   2    8.20    0.84
  -1 -10  -2    9.19    1.00
   1  10   2   11.64    0.99
   1  10   2   11.63    1.01
   1  10   2   13.86    1.22
   1  10   2   10.74    1.00
  -2 -10  -2   65.09    3.99
   2  10   2   61.62    3.45
   2  10   2   64.33    4.14
  -3 -10  -2   27.80    2.04
   3  10   2   27.53    1.73
   3  10   2   31.55    2.16
  -4 -10  -2   16.16    1.29
   4  10   2   17.17    1.41
   5  10   2    9.26    0.85
  -1 -11  -2    3.23    0.45
   1  11   2    3.84    0.46
  -2 -11  -2    2.98    0.48
   2  11   2    2.92    0.40
   2   9  -3    3.09    0.56
  -2  -9   3    2.26    0.48
   1   9  -3    4.04    0.65
  -1  -9   3    4.30    0.60
   0   9  -3    6.61    0.82
   0  -9   3    5.15    0.64
  -1   9  -3    4.52    0.59
   1  -9   3    3.89    0.57
   4   8  -3    0.39    0.30
  -4  -8   3    0.27    0.33
   3   8  -3    1.44    0.51
  -3  -8   3    0.56    0.40
   2   8  -3    0.37    0.42
  -2  -8   3    0.57    0.40
   1   8  -3    3.23    0.69
  -1  -8   3    2.48    0.57
   0   8  -3    0.67    0.50
   0  -8   3    1.16    0.47
  -1   8  -3    3.52    0.75
  -1   8  -3    4.08    0.61
   1  -8   3    4.37    0.73
  -2   8  -3   23.10    1.83
  -2   8  -3   22.29    1.61
   2  -8   3   25.59    1.79
  -3   8  -3   33.85    2.42
  -3   8  -3   38.29    2.23
  -3   8  -3   39.67    2.06
   3  -8   3   36.77    2.43
   5   7  -3    0.36    0.32
  -5  -7   3    0.45    0.34
   4   7  -3    0.91    0.44
  -4  -7   3    0.86    0.48
  -3  -7   3    2.10    0.61
   2   7  -3   27.08    2.17
   2   7  -3   22.59    1.87
  -2  -7   3   27.46    2.16
  -2  -7   3   24.39    1.85
   1   7  -3   26.06    2.20
  -1  -7   3   27.72    1.96
  -1  -7   3   22.77    2.14
   0   7  -3   13.05    1.48
   0  -7   3   12.64    1.29
  -1   7  -3   34.13    2.32
  -1   7  -3   36.13    2.76
   1  -7   3   37.83    2.60
  -2   7  -3   19.25    1.31
  -2   7  -3   18.05    1.46
  -2   7  -3   20.06    1.71
   2  -7   3   17.19    1.58
  -3   7  -3   15.10    1.34
  -3   7  -3   13.16    1.19
  -3   7  -3   13.78    1.07
   3  -7   3   13.71    1.28
  -4   7  -3    2.89    0.48
  -4   7  -3    3.33    0.55
  -4   7  -3    3.03    0.56
   4  -7   3    2.30    0.51
   6   6  -3   17.23    1.21
  -6  -6   3   14.46    1.16
  -6  -6   3   16.98    1.19
   5   6  -3   12.09    1.17
  -5  -6   3   13.22    1.25
   4   6  -3   10.66    1.12
  -4  -6   3   11.37    1.26
   3   6  -3   20.80    1.76
  -3  -6   3   23.36    1.91
   2   6  -3    5.29    0.95
   2   6  -3    6.70    0.92
  -2  -6   3   10.63    1.32
   1   6  -3   44.75    3.16
   1   6  -3   42.69    2.84
  -1  -6   3   41.47    3.08
  -1  -6   3   39.11    2.83
   0   6  -3    7.16    1.06
   0  -6   3    8.35    1.07
  -1   6  -3    5.89    0.99
  -1   6  -3    6.27    0.86
   1  -6   3    5.04    0.85
  -2   6  -3    0.51    0.34
  -2   6  -3    0.51    0.50
  -2   6  -3    0.37    0.42
   2  -6   3    0.60    0.49
  -3   6  -3    0.23    0.41
  -3   6  -3   -0.28    0.39
  -3   6  -3   -0.04    0.35
   3  -6   3   -0.37    0.36
  -4   6  -3    1.60    0.45
  -4   6  -3    2.23    0.56
  -4   6  -3    2.93    0.63
   4  -6   3    2.50    0.56
  -5   6  -3    3.41    0.54
  -5   6  -3    2.72    0.52
   5  -6   3    3.45    0.56
   6   5  -3    3.92    0.57
  -6  -5   3    3.30    0.54
  -6  -5   3    4.50    0.58
   5   5  -3   16.48    1.39
  -5  -5   3   14.38    1.39
   4   5  -3   30.51    2.21
  -4  -5   3   28.04    2.26
  -4  -5   3   31.32    2.36
   3   5  -3    5.00    0.82
  -3  -5   3    7.61    1.03
   2   5  -3    3.00    0.75
   2   5  -3    3.77    0.71
  -2  -5   3    3.41    0.65
  -2  -5   3    3.59    0.80
  -2  -5   3    3.33    0.90
   1   5  -3    2.51    0.98
   1   5  -3    2.88    0.64
  -1  -5   3    1.84    0.73
  -1  -5   3    3.69    1.14
   0   5  -3    4.24    0.78
   0   5  -3    2.88    0.98
   0  -5   3    5.16    1.08
   0  -5   3    3.93    1.19
  -1   5  -3   -0.30    0.42
   1  -5   3    0.12    0.60
   1  -5   3   -0.32    0.65
  -2   5  -3    9.84    1.00
  -2   5  -3    9.77    1.22
  -2   5  -3    9.44    1.16
   2  -5   3   11.96    1.56
   2  -5   3    9.22    1.03
  -3   5  -3    6.75    0.86
  -3   5  -3    9.54    1.12
   3  -5   3    9.20    1.02
  -4   5  -3    3.16    0.70
  -4   5  -3    4.42    0.74
  -4   5  -3    4.50    0.74
   4  -5   3    4.18    0.73
  -5   5  -3   12.87    1.46
  -5   5  -3   15.06    1.29
  -5   5  -3   13.65    1.15
  -5   5  -3   13.83    1.21
   5  -5   3   12.73    1.20
  -6   5  -3    8.52    0.78
  -6   5  -3    8.30    0.99
   6  -5   3    9.22    0.84
   7   4  -3    2.92    0.41
  -7  -4   3    2.72    0.42
   6   4  -3   19.43    1.52
  -6  -4   3   19.30    1.48
  -6  -4   3   20.34    1.54
   5   4  -3   15.84    1.44
  -5  -4   3   17.63    1.66
  -5  -4   3   17.41    1.50
   4   4  -3   36.07    2.48
  -4  -4   3   37.01    2.74
  -4  -4   3   33.17    2.59
   3   4  -3    0.35    0.39
   3   4  -3    1.27    0.87
   3   4  -3    1.29    0.53
  -3  -4   3    0.80    0.45
   2   4  -3    0.56    0.41
   2   4  -3    1.36    0.45
   2   4  -3    1.68    0.79
  -2  -4   3    1.80    0.49
  -2  -4   3    2.38    0.69
   1   4  -3   52.54    2.78
   1   4  -3   46.12    3.85
   1   4  -3   50.66    2.64
   1   4  -3   54.46    2.58
  -1  -4   3   56.01    3.26
  -1  -4   3   52.76    2.43
  -1  -4   3   57.88    4.17
   0   4  -3    6.29    1.16
   0   4  -3    5.30    0.76
   0  -4   3    4.67    1.13
   0  -4   3    5.54    0.89
  -1   4  -3    4.78    1.03
  -1   4  -3    6.02    0.85
   1  -4   3    4.77    0.88
   1  -4   3    5.33    1.17
  -2   4  -3   45.81    2.63
  -2   4  -3   46.98    2.57
   2  -4   3   45.19    3.70
   2  -4   3   44.87    2.92
   3  -4   3   29.41    2.72
  -4   4  -3   36.48    3.16
  -4   4  -3   45.80    2.86
  -4   4  -3   48.79    3.55
   4  -4   3   51.47    3.08
  -5   4  -3   17.23    1.43
  -5   4  -3   16.64    1.64
  -5   4  -3   19.23    1.59
   5  -4   3   16.78    1.47
  -6   4  -3   51.07    2.71
  -6   4  -3   45.69    3.57
   6  -4   3   46.31    3.07
   7  -4   3   26.25    1.72
   7   3  -3    1.10    0.34
  -7  -3   3    0.68    0.33
   6   3  -3    5.43    0.75
  -6  -3   3    3.30    0.62
  -6  -3   3    3.24    0.78
   5   3  -3    6.51    0.91
  -5  -3   3    4.28    1.03
  -5  -3   3    7.24    0.91
   4   3  -3   40.35    2.30
   4   3  -3   39.72    2.66
  -4  -3   3   41.57    2.82
  -4  -3   3   35.35    3.00
   3   3  -3    3.24    0.62
   3   3  -3    5.05    0.82
   3   3  -3    5.94    0.85
   3   3  -3    5.06    1.06
  -3  -3   3    4.49    0.72
   2   3  -3    2.10    0.45
   2   3  -3    2.55    0.53
   2   3  -3    2.90    0.82
   2   3  -3    2.47    0.51
  -2  -3   3    1.75    0.51
  -2  -3   3    2.83    0.50
   1   3  -3   76.13    3.55
   1   3  -3   73.98    3.28
   1   3  -3   74.62    3.68
   1   3  -3   69.21    4.94
  -1  -3   3   74.27    4.05
  -1  -3   3   69.96    5.03
  -1  -3   3   75.01    3.12
   0   3  -3   71.50    3.46
   0   3  -3   77.54    3.83
   0   3  -3   76.43    5.15
   0   3  -3   74.58    3.38
   0   3  -3   77.94    3.69
   0  -3   3   76.58    4.21
   0  -3   3   84.04    3.20
   0  -3   3   84.03    5.37
  -1   3  -3  131.22    7.86
  -1   3  -3  126.70    5.90
  -1   3  -3  129.08    5.63
   1  -3   3  111.41    7.90
   1  -3   3  122.44    6.38
  -2   3  -3  309.48   14.01
  -2   3  -3  312.58   13.28
   2  -3   3  298.88   14.73
   2  -3   3  309.64   18.63
   2  -3   3  310.85   14.92
  -3   3  -3  213.82    9.91
   3  -3   3  209.14   10.46
   3  -3   3  211.44   13.03
  -4   3  -3   61.18    4.85
  -4   3  -3   76.00    4.08
   4  -3   3   85.94    4.72
   4  -3   3   76.18    4.34
  -5   3  -3    9.95    1.10
  -5   3  -3    7.66    1.06
   5  -3   3    5.67    0.85
  -6   3  -3   20.89    1.74
  -6   3  -3   18.49    1.61
  -6   3  -3   16.64    1.34
   6  -3   3   19.08    1.55
   7  -3   3    3.43    0.54
   7   2  -3    3.92    0.53
  -7  -2   3    2.84    0.56
   6   2  -3    8.12    0.93
  -6  -2   3   10.94    1.33
  -6  -2   3   10.36    1.09
  -6  -2   3    5.84    1.45
   5   2  -3   10.59    1.12
  -5  -2   3   12.47    1.47
  -5  -2   3   11.09    1.19
  -5  -2   3   14.76    1.62
  -5  -2   3   10.48    1.39
  -5  -2   3   11.09    1.09
   4   2  -3   38.06    2.46
   4   2  -3   38.70    3.05
   4   2  -3   39.17    2.39
   4   2  -3   36.30    2.18
  -4  -2   3   35.47    2.01
   3   2  -3  209.19   12.63
   3   2  -3  206.17    8.66
   3   2  -3  214.28    9.23
   3   2  -3  201.31    9.69
  -3  -2   3  202.00    8.15
   2   2  -3  252.38   11.63
   2   2  -3  240.44   15.22
   2   2  -3  249.93   11.02
   2   2  -3  259.67   10.37
  -2  -2   3  261.41   12.35
  -2  -2   3  263.75    9.79
   1   2  -3   75.54    3.28
   1   2  -3   78.31    4.98
   1   2  -3   75.69    3.56
   1   2  -3   77.65    3.74
  -1  -2   3   80.14    5.07
  -1  -2   3   74.60    4.02
  -1  -2   3   71.04    3.13
   0   2  -3  427.98   24.87
   0   2  -3  441.92   16.80
   0   2  -3  427.13   17.86
   0   2  -3  466.16   18.93
   0  -2   3  416.52   20.11
   0  -2   3  415.18   15.75
   0  -2   3  370.63   24.89
  -1   2  -3   37.33    2.60
  -1   2  -3   34.15    1.82
  -1   2  -3   34.02    1.92
   1  -2   3   36.18    1.94
   1  -2   3   34.24    2.14
   1  -2   3   39.47    2.74
  -2   2  -3  114.25    5.80
  -2   2  -3  124.77    7.72
  -2   2  -3  118.22    5.49
   2  -2   3  133.65    7.87
   2  -2   3  125.42    6.22
   2  -2   3  125.72    6.12
  -3   2  -3   27.91    1.71
   3  -2   3   28.02    1.86
   3  -2   3   25.91    2.21
  -4   2  -3   21.81    1.59
   4  -2   3   20.79    2.10
   4  -2   3   21.59    1.73
  -5   2  -3   24.39    2.09
  -5   2  -3   31.72    2.25
   5  -2   3   23.88    1.97
  -6   2  -3    0.30    0.44
   6  -2   3   -0.11    0.35
  -7   2  -3   -0.06    0.35
   7  -2   3    0.09    0.32
  -7  -1   3   12.89    1.16
  -7  -1   3   10.60    1.56
  -6  -1   3   28.94    2.50
  -6  -1   3   28.90    2.96
  -6  -1   3   26.77    2.11
  -6  -1   3   28.47    2.32
  -5  -1   3   64.68    4.92
  -5  -1   3   67.20    5.12
  -5  -1   3   61.83    4.07
  -5  -1   3   66.20    4.56
   4   1  -3  106.68    5.09
   4   1  -3   99.34    6.65
   4   1  -3  102.54    4.74
  -4  -1   3  103.39    4.43
   3   1  -3   12.16    1.29
   3   1  -3   11.84    0.99
   3   1  -3   12.60    1.05
  -3  -1   3   12.58    0.91
   2   1  -3    2.10    0.38
   2   1  -3    2.21    0.46
   2   1  -3    2.94    0.62
  -2  -1   3    2.60    0.42
  -2  -1   3    2.84    0.51
   1   1  -3  127.70    5.65
   1   1  -3  122.76    5.25
   1   1  -3  136.78    6.01
  -1  -1   3  127.18    7.85
  -1  -1   3  130.41    6.36
  -1  -1   3  127.16    5.00
   0   1  -3  327.51   13.76
   0   1  -3  355.25   15.55
   0   1  -3  353.89   20.41
   0   1  -3  363.34   14.68
   0  -1   3  337.57   16.51
   0  -1   3  335.29   20.46
   0  -1   3  368.52   12.97
  -1   1  -3    5.91    0.80
  -1   1  -3    5.90    0.36
  -1   1  -3    6.10    0.50
  -1   1  -3    6.62    0.58
   1  -1   3    5.55    0.37
   1  -1   3    5.15    0.49
   1  -1   3    7.99    0.70
   1  -1   3    7.25    0.96
  -2   1  -3    0.88    0.47
  -2   1  -3    1.26    0.34
  -2   1  -3    0.49    0.27
   2  -1   3    1.12    0.36
   2  -1   3    1.91    0.41
   2  -1   3    1.51    0.50
  -3   1  -3    0.98    0.36
  -3   1  -3    1.54    0.57
   3  -1   3    1.51    0.43
   3  -1   3    1.69    0.34
   3  -1   3    1.46    0.54
  -4   1  -3   33.88    2.04
   4  -1   3   34.38    2.69
   4  -1   3   28.76    1.71
   4  -1   3   34.87    2.23
   5  -1   3   54.10    3.43
  -6   1  -3    9.88    1.13
  -6   1  -3    8.37    1.07
   6  -1   3    8.03    0.99
  -7   1  -3   58.51    3.77
   7  -1   3   53.57    3.59
   8  -1   3    0.50    0.28
  -7   0   3   34.16    3.15
  -7   0   3   29.85    2.17
  -6   0   3    4.72    0.93
  -6   0   3    4.67    0.79
  -6   0   3    4.94    1.31
  -5   0   3    9.65    1.38
  -5   0   3    7.61    0.98
  -5   0   3    6.03    1.16
  -5   0   3    5.97    1.04
   4   0  -3   63.10    3.19
   4   0  -3   66.62    3.46
   3   0  -3    0.35    0.36
   3   0  -3    0.32    0.31
   3   0  -3    0.65    0.39
  -3   0   3    0.41    0.28
   2   0  -3    2.07    0.46
   2   0  -3    2.28    0.43
   2   0  -3    2.84    0.40
  -2   0   3    1.78    0.34
   1   0  -3  267.70   11.21
   1   0  -3  260.74   10.52
   1   0  -3  256.17   15.45
   1   0  -3  275.97   11.91
  -1   0   3  271.86    9.92
  -1   0   3  254.23   12.56
   0   0  -3    7.10    0.60
   0   0  -3    5.71    0.65
   0   0  -3    5.64    0.36
   0   0  -3    6.48    0.53
   0   0   3    5.51    0.70
   0   0   3    6.08    0.45
   0   0   3    6.29    0.63
  -1   0  -3   53.92    2.65
  -1   0  -3   57.60    2.45
  -1   0  -3   54.28    3.48
   1   0   3   56.72    3.55
   1   0   3   55.02    2.86
   1   0   3   51.68    2.72
   1   0   3   56.82    2.15
  -2   0  -3   36.16    1.69
  -2   0  -3   36.80    2.50
  -2   0  -3   35.99    1.86
   2   0   3   34.33    1.95
   2   0   3   33.50    1.55
   2   0   3   35.50    1.96
   2   0   3   37.36    2.49
  -3   0  -3   58.70    2.99
  -3   0  -3   68.79    4.11
   3   0   3   54.15    3.94
   3   0   3   58.23    2.59
   3   0   3   58.45    3.20
  -4   0  -3    2.21    0.51
   4   0   3    1.13    0.47
   4   0   3    1.52    0.37
   4   0   3    1.86    0.67
   5   0   3    6.28    1.22
   5   0   3    9.65    1.27
  -6   0  -3    6.88    0.97
   6   0   3    5.25    0.83
  -7   0  -3   18.46    1.66
   7   0   3   21.53    1.65
   8   0   3   41.18    2.67
  -7   1   3    8.32    0.93
  -7   1   3    9.57    1.56
  -7   1   3    9.18    1.16
  -6   1   3    0.90    0.60
  -6   1   3    1.04    0.55
  -6   1   3    3.38    1.45
  -5   1   3   33.63    2.92
  -5   1   3   32.98    3.09
  -5   1   3   36.53    2.47
   4  -1  -3    9.35    1.06
   4  -1  -3   12.12    1.25
   3  -1  -3    0.51    0.30
   3  -1  -3    0.74    0.38
  -3   1   3    0.47    0.24
   2  -1  -3    0.78    0.27
   2  -1  -3    0.92    0.32
   2  -1  -3    1.09    0.28
   2  -1  -3    1.06    0.28
  -2   1   3    1.00    0.27
   1  -1  -3   40.41    2.04
   1  -1  -3   38.08    1.90
   1  -1  -3   41.63    2.44
   1  -1  -3   39.71    1.76
  -1   1   3   38.51    1.86
  -1   1   3   40.20    1.70
   0  -1  -3   30.74    1.40
   0  -1  -3   33.27    1.72
   0  -1  -3   36.61    2.12
   0  -1  -3   33.03    1.56
   0   1   3   35.84    1.43
   0   1   3   33.98    1.50
  -1  -1  -3   28.21    1.36
  -1  -1  -3   24.14    1.16
  -1  -1  -3   28.26    1.81
   1   1   3   25.16    1.11
   1   1   3   25.81    1.43
   1   1   3   27.43    1.78
  -2  -1  -3   42.31    3.36
  -2  -1  -3   57.91    2.56
   2   1   3   57.59    2.75
   2   1   3   50.29    3.39
   2   1   3   53.84    2.21
  -3  -1  -3    3.96    0.52
  -3  -1  -3    7.20    1.01
   3   1   3    6.04    0.71
   3   1   3    4.68    0.80
   3   1   3    4.20    0.45
  -4  -1  -3  134.62    8.86
  -4  -1  -3  143.20    6.68
   4   1   3  145.60    7.16
   4   1   3  140.39    8.86
   4   1   3  142.10    5.95
   5   1   3  126.84    6.58
   5   1   3  120.05    8.12
   5   1   3  127.47    5.52
  -6  -1  -3   25.03    1.96
   6   1   3   17.50    1.61
  -7  -1  -3   13.64    1.33
   7   1   3   10.77    1.19
  -8  -1  -3    0.41    0.36
   8   1   3    0.60    0.37
  -7   2   3    1.68    1.15
  -7   2   3   -0.20    0.30
  -7   2   3   -0.08    0.66
  -6   2   3    0.69    0.52
  -6   2   3    0.62    0.57
  -5   2   3   11.39    1.70
  -5   2   3   11.12    1.47
  -5   2   3   11.87    1.25
   4  -2  -3    0.06    0.49
   4  -2  -3    0.51    0.49
   3  -2  -3    3.41    0.57
   3  -2  -3    4.70    0.69
  -3   2   3    2.65    0.56
   2  -2  -3   58.30    3.04
   2  -2  -3   57.65    2.59
  -2   2   3   57.94    2.38
  -2   2   3   53.49    2.70
  -1   2   3  213.45    8.86
  -1   2   3  212.14    8.01
   0  -2  -3   92.58    4.21
   0  -2  -3   91.76    5.37
   0   2   3   88.30    3.87
   0   2   3   93.35    3.54
  -1  -2  -3  140.97    6.29
   1   2   3  136.75    5.61
   1   2   3  145.61    5.32
   1   2   3  142.48    6.75
   1   2   3  138.04    8.31
   1   2   3  139.34    5.80
  -2  -2  -3   48.20    2.36
  -2  -2  -3   55.35    3.32
   2   2   3   50.32    3.24
   2   2   3   45.63    2.13
   2   2   3   48.22    2.64
  -3  -2  -3  353.31   17.15
   3   2   3  384.58   15.38
   3   2   3  430.34   22.78
   3   2   3  377.80   18.26
  -4  -2  -3   47.01    3.30
   4   2   3   43.84    3.22
   4   2   3   40.88    2.11
   4   2   3   41.16    2.55
   5   2   3    4.71    1.05
   5   2   3    2.55    0.58
   5   2   3    4.19    0.86
   7   2   3    0.31    0.42
  -8  -2  -3   23.34    1.82
   8   2   3   24.50    1.78
  -7   3   3    1.30    0.92
  -7   3   3    0.13    0.27
  -7   3   3   -0.44    0.74
  -6   3   3   18.81    1.95
  -6   3   3   17.37    1.54
  -5   3   3   10.53    1.71
  -5   3   3   11.17    1.46
  -5   3   3   11.38    1.23
   4  -3  -3   43.31    2.43
  -4   3   3   41.33    2.80
  -4   3   3   41.96    3.38
  -4   3   3   42.68    3.51
   3  -3  -3   85.90    3.90
   3  -3  -3   83.95    4.53
  -3   3   3   82.66    4.08
   2  -3  -3  179.98    8.83
  -2   3   3  181.64    6.88
  -2   3   3  178.34    7.75
   1  -3  -3  173.23    8.78
  -1   3   3  186.48    6.92
  -1   3   3  187.08    7.72
   0  -3  -3    6.45    0.65
   0  -3  -3    7.72    0.51
   0   3   3    6.48    0.48
   0   3   3    7.49    0.57
  -1  -3  -3  294.14   15.09
   1   3   3  221.89   14.98
   1   3   3  263.54   10.55
   1   3   3  246.99   10.21
  -2  -3  -3   61.68    3.94
  -2  -3  -3   65.91    3.14
   2   3   3   57.73    3.16
   2   3   3   57.17    2.62
   2   3   3   58.03    3.90
  -3  -3  -3   16.77    1.61
  -3  -3  -3   16.80    1.13
   3   3   3   18.84    1.08
   3   3   3   16.40    1.28
   3   3   3   19.15    1.63
  -4  -3  -3    9.07    1.42
   4   3   3    7.77    1.00
   4   3   3    8.91    0.87
   4   3   3    8.39    1.30
   5   3   3    1.80    0.55
   5   3   3    5.01    1.14
   5   3   3    3.43    0.76
  -6  -3  -3    6.23    0.97
   6   3   3    8.14    1.02
  -7  -3  -3    2.26    0.65
   7   3   3    1.52    0.51
  -8  -3  -3    0.38    0.38
   8   3   3    0.45    0.38
  -6   4   3   20.84    2.22
  -6   4   3   15.37    1.44
  -5   4   3   40.26    3.88
  -5   4   3   34.93    3.19
  -5   4   3   38.98    2.66
  -4   4   3   44.02    2.95
  -4   4   3   43.98    3.52
   3  -4  -3   71.31    4.09
   3  -4  -3   72.62    3.49
  -3   4   3   71.05    3.66
   2  -4  -3    0.32    0.39
  -2   4   3    0.61    0.40
   1  -4  -3   14.21    1.14
  -1   4   3   15.77    1.05
   0  -4  -3   40.84    2.37
   0  -4  -3   42.59    2.75
   0   4   3   40.39    2.03
  -1  -4  -3   24.06    1.90
  -1  -4  -3   25.80    1.61
   1   4   3   25.98    1.31
   1   4   3   24.83    1.35
  -2  -4  -3    7.91    1.11
  -2  -4  -3    8.38    0.82
   2   4   3    8.32    0.75
   2   4   3    8.23    0.90
   2   4   3    7.97    0.77
   2   4   3    7.65    1.05
  -3  -4  -3   16.57    1.17
  -3  -4  -3   14.53    1.61
   3   4   3   15.17    1.25
   3   4   3   16.19    1.59
   3   4   3   15.28    1.02
  -4  -4  -3    0.75    0.63
   4   4   3   -0.22    0.33
   4   4   3    0.41    0.56
   4   4   3    1.37    0.40
  -5  -4  -3    0.95    0.83
   5   4   3    0.77    0.47
   5   4   3    0.67    0.77
   5   4   3    1.62    0.64
  -6  -4  -3   31.03    2.41
   6   4   3   30.94    2.25
  -7  -4  -3    1.32    0.56
   7   4   3    1.11    0.51
   8   4   3   12.07    1.08
  -6   5   3   18.80    2.23
  -6   5   3   12.28    1.15
  -5   5   3    9.38    1.54
  -5   5   3    8.31    1.09
  -4   5   3   10.13    1.19
  -4   5   3    9.63    1.53
   3  -5  -3    0.84    0.70
  -3   5   3    1.18    0.62
  -3   5   3    0.62    0.35
  -3   5   3    1.08    0.51
   2  -5  -3   55.47    3.36
  -2   5   3   54.32    2.91
   1  -5  -3    0.53    0.48
  -1   5   3    0.52    0.33
   0  -5  -3    4.14    0.70
   0  -5  -3    2.64    0.64
   0   5   3    2.88    0.50
  -1  -5  -3   40.32    2.41
  -1  -5  -3   39.94    2.93
   1   5   3   41.37    2.09
   1   5   3   38.16    1.97
  -2  -5  -3    3.82    0.65
  -2  -5  -3    1.92    0.71
   2   5   3    2.01    0.47
   2   5   3    2.96    0.54
  -3  -5  -3    8.19    1.36
  -3  -5  -3    6.91    0.89
   3   5   3    5.89    0.74
   3   5   3    5.28    0.83
  -4  -5  -3   66.98    4.84
   4   5   3   59.64    4.62
   4   5   3   59.37    3.05
  -5  -5  -3   38.37    2.82
  -5  -5  -3   39.41    2.65
   5   5   3   42.15    2.64
   5   5   3   29.94    2.73
   5   5   3   40.50    2.29
   5   5   3   41.88    2.73
  -6  -5  -3   27.65    2.16
   6   5   3   23.99    1.94
  -7  -5  -3   10.21    1.22
  -7  -5  -3   11.17    1.08
   7   5   3    9.79    1.08
   8   5   3   19.80    1.43
  -5   6   3    7.62    1.72
  -4   6   3   22.05    1.85
  -4   6   3   21.46    1.54
  -4   6   3   27.64    2.81
  -3   6   3    5.92    1.33
  -3   6   3    4.95    0.85
  -3   6   3    6.62    0.83
   2  -6  -3   32.44    2.40
  -2   6   3   33.18    2.27
  -2   6   3   33.02    2.10
  -2   6   3   28.63    2.02
  -2   6   3   30.60    1.94
   1  -6  -3    1.06    0.63
  -1   6   3    0.38    0.40
   0  -6  -3    9.64    1.25
   0  -6  -3    9.93    1.32
   0   6   3    8.33    0.95
  -1  -6  -3    8.50    1.11
  -1  -6  -3    7.53    1.24
   1   6   3    7.25    0.93
  -2  -6  -3   52.41    3.20
  -2  -6  -3   50.02    3.94
   2   6   3   56.87    2.75
   2   6   3   54.27    2.84
  -3  -6  -3   87.33    4.80
  -3  -6  -3   89.09    6.18
   3   6   3   83.17    4.24
   3   6   3   88.68    4.12
  -4  -6  -3   72.91    5.57
   4   6   3   69.67    3.71
   4   6   3   74.10    3.61
  -5  -6  -3   26.29    2.06
  -5  -6  -3   28.94    2.28
   5   6   3   28.92    2.04
   5   6   3   26.23    2.24
  -6  -6  -3   25.31    2.29
   6   6   3   31.61    2.39
   6   6   3   30.70    2.16
  -7  -6  -3    8.95    1.01
   7   6   3    5.64    0.81
  -8  -6  -3   -0.01    0.28
   8   6   3    0.13    0.26
  -5   7   3    3.84    1.13
  -5   7   3    2.03    0.49
  -4   7   3    1.33    0.47
  -4   7   3    4.26    1.43
  -4   7   3    0.86    0.47
  -3   7   3   25.08    1.81
  -3   7   3   24.44    1.74
  -3   7   3   28.24    2.96
  -3   7   3   26.57    2.03
  -2   7   3    8.61    0.99
  -2   7   3    9.09    1.60
  -2   7   3    8.91    1.11
  -2   7   3    7.19    0.89
  -1   7   3   77.32    4.28
  -1   7   3   76.51    3.96
  -1   7   3   65.72    4.50
  -1   7   3   74.90    3.99
   0  -7  -3  131.72    8.74
   0  -7  -3  139.42    7.32
   0   7   3  136.53    6.32
  -1  -7  -3   82.89    4.67
  -1  -7  -3   73.34    5.53
   1   7   3   82.83    4.08
  -2  -7  -3   76.57    5.63
  -2  -7  -3   80.90    4.58
   2   7   3   76.09    4.00
  -3  -7  -3    4.00    0.67
  -3  -7  -3    2.02    0.80
   3   7   3    3.68    0.66
   3   7   3    3.62    0.67
   3   7   3    4.68    0.79
   3   7   3    4.07    0.77
   3   7   3    2.24    0.65
  -4  -7  -3   24.75    1.83
   4   7   3   20.89    1.90
  -5  -7  -3   24.12    1.89
   5   7   3   23.85    2.05
  -6  -7  -3    0.05    0.41
   6   7   3    0.31    0.50
  -7  -7  -3    1.17    0.46
   7   7   3    1.40    0.50
   7   7   3    1.54    0.42
  -4   8   3   34.90    2.01
  -4   8   3   31.39    2.85
  -4   8   3   36.78    2.31
  -3   8   3   59.37    4.50
  -3   8   3   58.40    3.39
  -3   8   3   56.03    3.66
  -3   8   3   55.97    3.19
  -2   8   3   95.16    5.84
  -2   8   3   97.52    5.46
  -2   8   3   96.69    5.11
  -1   8   3    2.29    0.54
  -1   8   3    1.87    0.66
  -1   8   3    2.85    0.58
  -1   8   3    1.86    0.52
   0   8   3    0.01    0.38
   0   8   3   -0.10    0.51
   0   8   3    0.58    0.41
   0   8   3    0.45    0.37
  -1  -8  -3   63.50    4.08
   1   8   3   64.29    3.79
   1   8   3   66.26    4.27
   1   8   3   64.13    3.59
  -2  -8  -3   44.95    2.96
   2   8   3   40.66    3.10
   2   8   3   45.04    2.61
   2   8   3   46.79    2.99
  -3  -8  -3    3.23    0.64
   3   8   3    4.39    0.68
   3   8   3    3.34    0.77
  -4  -8  -3    2.98    0.64
   4   8   3    3.43    0.76
  -5  -8  -3    0.38    0.39
   5   8   3    0.43    0.52
  -6  -8  -3    0.05    0.38
  -6  -8  -3    0.27    0.38
   6   8   3   -0.18    0.38
  -7  -8  -3    0.18    0.28
   7   8   3   -0.22    0.27
  -3   9   3    5.82    0.67
  -3   9   3    5.01    0.64
  -3   9   3    5.50    0.75
  -2   9   3   35.88    2.32
  -2   9   3   37.81    2.57
  -2   9   3   35.97    2.16
  -1   9   3   11.18    1.03
  -1   9   3   10.27    1.21
  -1   9   3   11.08    0.98
  -1   9   3   10.64    1.08
   0  -9  -3    1.15    0.44
   0   9   3    0.72    0.58
   0   9   3    1.29    0.45
   0   9   3    0.93    0.40
   0   9   3    1.31    0.53
  -1  -9  -3   41.65    2.93
   1   9   3   47.92    2.78
   1   9   3   42.51    2.99
   1   9   3   44.47    3.03
   1   9   3   44.24    2.65
  -2  -9  -3    7.71    0.95
   2   9   3    9.98    1.16
   2   9   3    7.07    0.97
   2   9   3    8.12    0.92
  -3  -9  -3    9.02    1.03
   3   9   3    8.57    1.11
   3   9   3    6.96    0.82
  -4  -9  -3    0.52    0.42
   4   9   3    0.78    0.49
  -5  -9  -3    5.98    0.83
   5   9   3    9.96    1.05
  -6  -9  -3    8.96    0.93
   6   9   3    8.74    0.93
  -2  10   3    1.99    0.37
  -2  10   3    2.37    0.42
  -2  10   3    1.87    0.48
  -1  10   3    0.27    0.30
  -1  10   3    0.80    0.31
  -1  10   3    0.53    0.35
  -1  10   3    0.62    0.49
   0 -10  -3    0.35    0.28
   0  10   3    0.29    0.38
   0  10   3    0.40    0.50
   0  10   3    0.52    0.36
  -1 -10  -3   15.34    1.23
   1  10   3   16.59    1.21
   1  10   3   14.03    1.18
   1  10   3   12.32    1.34
  -2 -10  -3    7.05    0.84
   2  10   3    6.33    0.74
   2  10   3    7.41    0.85
  -3 -10  -3    2.23    0.54
   3  10   3    0.78    0.34
   3  10   3    0.79    0.44
  -4 -10  -3    1.59    0.47
   4  10   3    2.30    0.53
  -5 -10  -3   11.38    0.94
   5  10   3    9.89    0.99
   0  11   3    7.87    0.65
   0  11   3    8.30    0.83
  -1 -11  -3    1.95    0.39
   1  11   3    1.29    0.33
  -2 -11  -3    8.26    0.76
   2  11   3    6.94    0.67
  -3 -11  -3   29.54    2.05
   3  11   3   30.22    1.72
   3  11   3   33.94    2.09
  -3  -8   4    7.54    0.86
   2   8  -4    1.27    0.47
  -2  -8   4    0.16    0.36
   1   8  -4    0.18    0.38
  -1  -8   4    0.31    0.36
   0   8  -4    4.00    0.75
   0  -8   4    2.06    0.51
  -1   8  -4    0.61    0.42
   1  -8   4   -0.01    0.32
  -2   8  -4    1.50    0.46
  -2   8  -4    1.61    0.41
   2  -8   4    1.61    0.44
  -3   8  -4    1.32    0.32
   3  -8   4    1.56    0.37
   4   7  -4   -0.26    0.28
  -4  -7   4    0.12    0.34
   3   7  -4    0.52    0.41
  -3  -7   4    0.37    0.40
   2   7  -4    0.68    0.50
   2   7  -4    0.87    0.47
  -2  -7   4    0.74    0.44
   1   7  -4    5.48    1.00
  -1  -7   4    5.79    0.98
  -1  -7   4    3.41    0.64
   0   7  -4    1.51    0.66
   0  -7   4    1.74    0.54
  -1   7  -4    4.06    0.68
  -1   7  -4    7.41    1.06
   1  -7   4    5.31    0.83
  -2   7  -4    8.71    0.97
  -2   7  -4   10.49    1.22
   2  -7   4   11.59    1.15
  -3   7  -4   38.66    2.30
  -3   7  -4   32.06    2.05
  -3   7  -4   35.43    2.59
   3  -7   4   40.35    2.54
  -4   7  -4   21.10    1.39
  -4   7  -4   17.86    1.45
  -4   7  -4   21.05    1.26
   4  -7   4   22.29    1.53
   5   6  -4    1.32    0.40
  -5  -6   4    1.45    0.39
   4   6  -4    1.47    0.49
  -4  -6   4    1.71    0.54
   3   6  -4    4.16    0.74
  -3  -6   4    3.07    0.67
   2   6  -4   22.25    1.81
  -2  -6   4   24.41    2.03
   1   6  -4   69.78    4.85
   1   6  -4   76.01    4.52
  -1  -6   4   69.22    4.81
  -1  -6   4   69.44    4.45
   0   6  -4   17.96    1.56
   0   6  -4   17.68    1.73
   0  -6   4   17.25    1.54
  -1   6  -4   24.81    2.06
  -1   6  -4   25.20    1.72
   1  -6   4   18.48    1.77
  -2   6  -4   19.90    1.45
  -2   6  -4   24.84    2.00
  -2   6  -4   21.48    1.66
   2  -6   4   22.17    1.81
  -3   6  -4   20.65    1.60
  -3   6  -4   17.88    1.77
  -3   6  -4   22.43    1.47
   3  -6   4   22.15    1.75
  -4   6  -4    0.82    0.39
  -4   6  -4    0.01    0.40
  -4   6  -4    0.22    0.39
   4  -6   4    0.10    0.37
  -5   6  -4    1.71    0.42
  -5   6  -4    1.54    0.40
  -5   6  -4    1.32    0.38
   5  -6   4    1.90    0.44
   6   5  -4    1.09    0.32
  -6  -5   4    0.96    0.31
   5   5  -4   62.75    3.58
  -5  -5   4   50.43    3.62
  -5  -5   4   54.43    3.41
  -4  -5   4   52.55    4.03
  -4  -5   4   68.91    4.11
   3   5  -4   50.04    3.38
  -3  -5   4   53.29    3.57
  -3  -5   4   50.23    3.93
   2   5  -4    0.46    0.44
  -2  -5   4    0.19    0.45
   1   5  -4    8.55    0.95
  -1  -5   4    6.42    0.91
   0   5  -4   47.28    2.84
   0   5  -4   38.81    3.03
   0  -5   4   36.53    2.96
   0  -5   4   42.29    2.84
   0  -5   4   46.22    3.13
  -1   5  -4   25.63    1.83
  -1   5  -4   26.66    2.21
   1  -5   4   27.90    2.03
  -2   5  -4   12.81    1.15
  -2   5  -4   10.38    1.32
   2  -5   4   12.90    1.23
  -3   5  -4   -0.10    0.36
  -3   5  -4   -0.09    0.48
   3  -5   4    0.41    0.42
  -4   5  -4   -0.17    0.37
  -4   5  -4    0.34    0.48
   4  -5   4    0.49    0.47
  -5   5  -4    5.92    0.82
  -5   5  -4    4.41    0.67
  -5   5  -4    4.05    0.66
   5  -5   4    4.02    0.68
  -6   5  -4    0.02    0.28
   6  -5   4    0.20    0.26
   6   4  -4    9.56    0.90
  -6  -4   4    9.48    0.91
   5   4  -4    2.64    0.61
  -5  -4   4    1.89    0.48
  -5  -4   4    2.26    0.52
  -5  -4   4    1.95    0.70
   4   4  -4   31.19    2.18
  -4  -4   4   25.91    2.21
  -4  -4   4   30.39    2.59
  -4  -4   4   31.75    2.45
   3   4  -4   73.57    4.61
  -3  -4   4   69.19    4.93
  -3  -4   4   77.07    5.44
  -3  -4   4   75.33    4.86
   2   4  -4    5.37    1.18
   2   4  -4    6.29    0.91
  -2  -4   4    5.61    1.05
  -2  -4   4    4.10    0.69
   1   4  -4   14.68    1.27
   1   4  -4   18.27    1.94
  -1  -4   4   16.97    1.59
  -1  -4   4   13.54    1.09
   0   4  -4    4.44    0.75
   0   4  -4    3.54    0.95
   0  -4   4    2.76    0.71
   0  -4   4    3.05    1.03
  -1   4  -4    0.87    0.47
  -1   4  -4    0.27    0.60
   1  -4   4    0.36    0.66
   1  -4   4    0.42    0.57
  -2   4  -4    0.58    0.46
   2  -4   4    0.72    0.67
   2  -4   4    0.33    0.68
  -4   4  -4   54.56    3.84
  -4   4  -4   61.19    3.37
   4  -4   4   48.81    3.55
  -5   4  -4   10.25    1.08
  -5   4  -4   11.56    1.23
   5  -4   4   10.05    1.13
  -6   4  -4   15.73    1.17
  -6   4  -4   13.57    1.28
   6  -4   4   17.04    1.29
   6   3  -4   15.58    1.25
  -6  -3   4   16.55    1.30
  -6  -3   4   14.48    1.51
   5   3  -4    8.89    0.97
  -5  -3   4    9.26    0.92
  -5  -3   4    6.55    1.15
  -5  -3   4    8.03    0.95
  -5  -3   4    8.47    1.22
   4   3  -4   16.50    1.40
  -4  -3   4   15.40    1.40
  -4  -3   4   15.01    1.78
  -4  -3   4   17.41    1.77
   3   3  -4    6.84    1.39
   3   3  -4   12.28    1.31
   3   3  -4   12.38    1.32
  -3  -3   4   11.58    1.12
   2   3  -4   31.08    2.63
   2   3  -4   28.89    1.90
   2   3  -4   29.32    1.83
  -2  -3   4   29.63    2.13
  -2  -3   4   27.13    1.62
   1   3  -4   22.98    1.56
   1   3  -4   23.82    1.56
   1   3  -4   23.51    2.14
  -1  -3   4   25.25    1.83
  -1  -3   4   23.18    1.35
   0   3  -4   53.27    4.22
   0   3  -4   60.30    3.20
   0   3  -4   68.70    3.14
   0  -3   4   58.97    2.61
   0  -3   4   63.68    3.57
  -1   3  -4    5.88    0.76
  -1   3  -4    5.12    0.72
  -1   3  -4    6.06    1.06
   1  -3   4    4.87    1.12
   1  -3   4    4.55    0.82
  -2   3  -4   69.41    3.40
  -2   3  -4   64.24    3.54
  -2   3  -4   74.39    4.86
   2  -3   4   68.09    3.90
   2  -3   4   60.05    4.81
  -3   3  -4   38.12    2.36
   3  -3   4   38.12    3.17
  -4   3  -4   38.58    2.57
  -4   3  -4   27.21    2.45
  -4   3  -4   30.78    2.19
   4  -3   4   30.29    2.26
  -5   3  -4   58.13    4.27
  -5   3  -4   66.69    4.60
  -5   3  -4   59.08    3.69
   5  -3   4   66.46    4.06
  -6   3  -4   39.75    2.87
   6  -3   4   40.13    2.72
   7  -3   4   33.94    2.25
  -7  -2   4    0.56    0.31
   6   2  -4    0.87    0.36
  -6  -2   4    0.92    0.46
  -6  -2   4    1.19    0.71
   5   2  -4    0.60    0.42
  -5  -2   4    0.31    0.42
  -5  -2   4    1.11    0.87
  -5  -2   4    0.19    0.56
   4   2  -4    2.36    0.56
  -4  -2   4    2.56    0.78
  -4  -2   4    1.24    0.77
  -4  -2   4    1.41    0.44
   3   2  -4   31.05    2.58
   3   2  -4   29.66    2.02
   3   2  -4   30.79    1.96
  -3  -2   4   28.93    1.70
   2   2  -4   12.27    1.02
   2   2  -4   10.50    0.86
   2   2  -4   13.15    1.42
   2   2  -4   11.89    1.04
  -2  -2   4    9.11    1.13
  -2  -2   4   11.69    0.90
   1   2  -4    6.53    0.77
   1   2  -4    7.66    0.80
   1   2  -4    6.33    1.03
  -1  -2   4    7.35    0.69
  -1  -2   4    7.43    0.99
   0   2  -4   72.83    3.52
   0   2  -4   74.57    4.92
   0   2  -4   68.33    3.70
   0  -2   4   80.18    3.08
   0  -2   4   74.43    5.03
   0  -2   4   76.19    4.07
  -1   2  -4   61.54    3.28
  -1   2  -4   64.84    4.36
  -1   2  -4   62.22    3.09
   1  -2   4   66.66    4.53
   1  -2   4   68.88    3.63
  -2   2  -4  152.97    9.74
  -2   2  -4  158.09    6.95
  -2   2  -4  157.24    7.38
   2  -2   4  157.92    9.88
   2  -2   4  156.39    7.87
  -3   2  -4   45.84    2.60
  -3   2  -4   39.29    3.39
   3  -2   4   49.41    2.74
   3  -2   4   48.11    3.48
  -4   2  -4  100.80    5.33
   4  -2   4  104.47    5.68
   4  -2   4  110.20    7.11
  -5   2  -4   11.75    1.28
   5  -2   4   11.22    1.15
  -6   2  -4    5.65    0.93
   6  -2   4    5.42    0.80
  -7   2  -4    1.77    0.52
   7  -2   4    2.20    0.48
  -7  -1   4    1.30    0.39
  -7  -1   4    2.27    0.85
  -6  -1   4    0.46    0.49
  -6  -1   4    1.71    0.77
  -6  -1   4    0.70    0.98
  -6  -1   4    0.03    0.39
  -5  -1   4    0.62    0.45
  -5  -1   4    2.13    0.93
  -5  -1   4    1.07    0.64
  -5  -1   4    1.30    0.62
   4   1  -4   28.76    2.04
   4   1  -4   31.01    2.16
   4   1  -4   26.90    1.82
  -4  -1   4   29.24    2.54
  -4  -1   4   26.67    2.58
  -4  -1   4   27.24    2.05
  -4  -1   4   32.01    1.84
  -4  -1   4   28.96    2.32
   3   1  -4   35.36    2.18
   3   1  -4   35.36    1.98
   3   1  -4   37.66    2.79
   3   1  -4   37.41    2.34
  -3  -1   4   38.32    1.95
   2   1  -4  165.05    7.46
   2   1  -4  156.05    6.52
   2   1  -4  157.85    9.58
   2   1  -4  153.91    7.00
  -2  -1   4  149.00    6.18
   1   1  -4   20.89    1.70
   1   1  -4   20.40    1.33
   1   1  -4   19.79    1.04
   1   1  -4   19.58    1.24
  -1  -1   4   19.79    1.11
  -1  -1   4   20.95    1.49
   0   1  -4   52.32    2.65
   0   1  -4   57.55    3.72
   0   1  -4   57.80    2.88
   0  -1   4   51.74    2.32
   0  -1   4   57.58    3.11
   0  -1   4   58.76    3.81
  -1   1  -4    3.08    0.44
  -1   1  -4    3.68    0.70
  -1   1  -4    3.91    0.54
   1  -1   4    3.70    0.35
   1  -1   4    3.01    0.56
   1  -1   4    4.69    0.86
  -2   1  -4    0.71    0.27
  -2   1  -4    0.78    0.46
  -2   1  -4    0.64    0.31
   2  -1   4    0.96    0.37
   2  -1   4    0.39    0.44
   2  -1   4    0.85    0.32
  -3   1  -4   11.19    1.35
  -3   1  -4   12.38    1.01
   3  -1   4   11.80    1.07
   3  -1   4   14.61    1.42
  -4   1  -4    5.96    0.85
   4  -1   4    6.28    0.97
   4  -1   4    7.14    1.28
  -5   1  -4    7.17    1.03
   5  -1   4    8.29    1.01
   5  -1   4    6.25    1.08
  -6   1  -4    2.47    0.68
   6  -1   4    2.85    0.67
  -7   1  -4   20.73    1.75
   7  -1   4   22.12    1.68
   8  -1   4    0.87    0.32
  -7   0   4    7.11    0.79
  -7   0   4    7.28    1.24
  -6   0   4   22.65    1.82
  -6   0   4   21.00    2.07
  -6   0   4   25.55    2.65
  -5   0   4   35.89    2.91
  -5   0   4   37.16    3.23
  -5   0   4   36.82    3.11
  -5   0   4   35.97    2.57
   4   0  -4   32.64    2.08
   4   0  -4   29.90    1.85
  -4   0   4   29.44    2.56
  -4   0   4   29.37    2.65
  -4   0   4   25.21    2.30
   3   0  -4    0.78    0.43
   3   0  -4    1.05    0.46
   3   0  -4    0.68    0.41
  -3   0   4    0.86    0.36
   2   0  -4   50.11    2.36
   2   0  -4   50.62    2.60
   2   0  -4   53.31    3.38
   2   0  -4   49.55    2.75
  -2   0   4   50.78    2.30
   1   0  -4    7.70    0.54
   1   0  -4    9.09    0.77
   1   0  -4    7.61    0.66
   1   0  -4    7.28    0.80
  -1   0   4    7.73    0.60
   0   0  -4    1.52    0.36
   0   0  -4    1.39    0.33
   0   0  -4    1.35    0.41
   0   0   4    1.04    0.42
   0   0   4    1.13    0.26
   0   0   4    1.44    0.45
  -1   0  -4   55.54    2.51
  -1   0  -4   56.96    2.76
   1   0   4   55.46    2.22
   1   0   4   56.96    2.99
   1   0   4   51.61    2.73
  -2   0  -4   -0.01    0.18
  -2   0  -4    0.90    0.45
  -2   0  -4    0.44    0.27
   2   0   4    0.25    0.37
   2   0   4    0.89    0.38
   2   0   4    0.54    0.32
  -3   0  -4    0.83    0.36
  -3   0  -4    0.82    0.50
   3   0   4    0.81    0.40
   3   0   4    0.87    0.48
  -4   0  -4   27.10    1.73
  -4   0  -4   23.85    2.33
   4   0   4   29.52    2.37
   4   0   4   26.33    1.88
  -5   0  -4    1.43    0.55
   5   0   4    4.52    0.93
   5   0   4    3.57    1.10
  -6   0  -4    7.50    1.08
   6   0   4    8.40    1.06
  -7   0  -4   33.28    2.43
   7   0   4   30.65    2.28
  -8   0  -4    4.22    0.60
   8   0   4    4.51    0.63
  -7   1   4    4.18    0.71
  -7   1   4    5.40    0.69
  -7   1   4    7.17    1.20
  -6   1   4   11.77    1.49
  -6   1   4   13.26    1.36
  -6   1   4   19.22    2.48
  -5   1   4    6.83    1.00
  -5   1   4    8.27    1.28
  -5   1   4    5.80    1.11
   4  -1  -4   24.30    1.81
   4  -1  -4   27.69    1.75
  -4   1   4   27.64    2.36
  -4   1   4   25.50    2.41
  -4   1   4   21.89    1.85
   3  -1  -4    0.40    0.37
   3  -1  -4    0.39    0.37
  -3   1   4    0.17    0.28
   2  -1  -4   28.89    1.43
   2  -1  -4   26.87    1.57
  -2   1   4   25.47    1.35
   1  -1  -4   47.67    2.53
   1  -1  -4   47.19    2.33
   1  -1  -4   49.05    3.01
   1  -1  -4   49.52    2.13
  -1   1   4   49.60    2.10
   0  -1  -4   19.37    1.38
   0  -1  -4   19.31    1.19
   0  -1  -4   19.73    1.05
   0   1   4   20.86    0.99
  -1  -1  -4  111.93    4.90
  -1  -1  -4  123.58    6.98
  -1  -1  -4  118.33    5.33
   1   1   4  114.79    6.94
   1   1   4  120.28    4.43
   1   1   4  104.33    5.52
  -2  -1  -4   80.28    4.70
  -2  -1  -4   70.74    3.48
   2   1   4   76.16    3.73
   2   1   4   64.55    4.59
  -3  -1  -4    5.70    0.94
  -3  -1  -4    4.84    0.60
   3   1   4    6.02    0.75
   3   1   4    4.96    0.86
  -4  -1  -4   19.19    1.29
  -4  -1  -4   17.49    1.77
   4   1   4   18.64    1.39
   4   1   4   13.38    1.63
   5   1   4   42.43    3.67
   5   1   4   56.16    3.16
  -6  -1  -4   73.36    5.35
  -6  -1  -4   71.13    4.81
   6   1   4   70.89    4.51
  -7  -1  -4    5.20    0.89
   7   1   4    8.81    1.00
  -8  -1  -4    8.01    0.96
   8   1   4   10.19    0.96
  -7   2   4    0.11    0.29
  -7   2   4    1.51    0.95
  -7   2   4   -0.24    0.55
  -6   2   4    0.39    0.46
  -6   2   4    0.36    0.51
  -5   2   4    6.92    1.24
  -5   2   4    6.63    0.96
  -5   2   4    6.93    1.21
   4  -2  -4    1.60    0.70
   4  -2  -4    2.99    0.70
  -4   2   4    2.71    0.81
  -4   2   4    2.03    0.58
  -4   2   4    3.05    0.84
   3  -2  -4    0.32    0.32
   3  -2  -4    1.35    0.47
   2  -2  -4    1.14    0.36
   2  -2  -4    1.21    0.39
  -2   2   4    1.60    0.44
  -2   2   4    1.53    0.31
   1  -2  -4   45.58    2.24
   1  -2  -4   46.17    2.08
  -1   2   4   50.56    2.04
  -1   2   4   45.25    2.20
   0  -2  -4   76.48    3.38
   0  -2  -4   76.39    3.66
   0  -2  -4   79.76    4.60
   0   2   4   72.83    3.32
   0   2   4   81.03    3.09
  -1  -2  -4  371.09   19.98
  -1  -2  -4  351.17   15.18
   1   2   4  358.48   12.72
   1   2   4  289.60   19.88
   1   2   4  334.20   16.06
   1   2   4  349.07   13.89
  -2  -2  -4   42.47    2.90
  -2  -2  -4   40.05    2.09
   2   2   4   43.56    2.35
   2   2   4   42.47    2.87
  -3  -2  -4   69.74    3.46
  -3  -2  -4   74.59    4.78
   3   2   4   72.18    4.73
   3   2   4   69.89    3.78
  -4  -2  -4   61.73    3.19
  -4  -2  -4   67.28    4.49
   4   2   4   60.90    4.35
   4   2   4   60.11    3.50
   5   2   4  154.41    8.36
   5   2   4  172.27   10.49
   6   2   4   30.52    2.19
  -7  -2  -4    8.75    1.14
   7   2   4    9.03    1.06
  -8  -2  -4   13.96    1.27
   8   2   4   12.46    1.15
  -6   3   4    2.80    0.79
  -6   3   4    3.11    0.66
  -5   3   4    1.34    1.01
  -5   3   4    0.64    0.62
  -5   3   4    1.55    0.56
  -4   3   4    0.07    0.40
  -4   3   4    0.51    0.55
  -4   3   4    0.38    0.52
   3  -3  -4   27.82    1.72
  -3   3   4   31.19    1.94
   2  -3  -4   79.72    4.04
   2  -3  -4   73.81    3.40
  -2   3   4   75.21    3.14
  -2   3   4   74.31    3.59
  -1   3   4   73.56    2.99
  -1   3   4   72.00    3.34
   0  -3  -4   91.26    5.57
   0  -3  -4   91.10    4.36
   0   3   4   97.72    4.10
   0   3   4   97.93    3.73
  -1  -3  -4  364.24   21.20
  -1  -3  -4  360.43   16.05
   1   3   4  366.14   14.88
  -2  -3  -4  130.28    8.00
   2   3   4  132.55    5.34
   2   3   4  125.10    7.94
   2   3   4  136.75    6.49
   2   3   4  129.22    5.51
  -3  -3  -4  102.21    5.04
  -3  -3  -4   92.77    6.40
   3   3   4  110.93    6.46
   3   3   4  101.24    4.27
   3   3   4   95.67    5.16
  -4  -3  -4   81.66    5.27
   4   3   4   73.24    4.12
   4   3   4   74.20    5.16
   4   3   4   72.23    3.40
  -5  -3  -4    2.57    0.95
   5   3   4    1.31    0.60
   5   3   4    1.30    0.75
  -6  -3  -4    3.76    0.82
   6   3   4    3.30    0.66
   7   3   4    1.15    0.53
  -8  -3  -4    0.64    0.44
   8   3   4    0.85    0.42
  -6   4   4   13.54    1.25
  -6   4   4   15.43    1.88
  -5   4   4    2.59    0.63
  -5   4   4    3.05    1.40
  -5   4   4    1.57    0.76
  -4   4   4   10.27    1.33
  -4   4   4   11.00    1.15
  -4   4   4    7.55    1.29
   3  -4  -4  193.40    8.16
   3  -4  -4  181.17    9.53
  -3   4   4  195.78    8.56
   2  -4  -4  142.27    7.20
  -2   4   4  140.28    6.34
   1  -4  -4  122.53    6.08
  -1   4   4  118.39    5.33
  -1   4   4  118.91    4.73
   0  -4  -4   86.72    4.61
   0  -4  -4   90.97    5.37
   0   4   4   88.66    3.98
  -1  -4  -4    1.14    0.41
  -1  -4  -4    0.92    0.41
   1   4   4    1.47    0.35
  -2  -4  -4  173.79   10.30
  -2  -4  -4  173.13    8.31
   2   4   4  170.01    6.93
   2   4   4  161.76    7.14
   2   4   4  165.32    8.33
  -3  -4  -4    0.90    0.36
  -3  -4  -4    0.53    0.47
   3   4   4    0.76    0.31
   3   4   4    0.92    0.41
   3   4   4    0.95    0.55
  -4  -4  -4   16.95    1.82
   4   4   4   14.25    1.66
   4   4   4   14.34    1.30
   4   4   4   12.95    1.01
  -5  -4  -4    2.28    1.01
   5   4   4    1.63    0.90
   5   4   4    2.47    0.70
  -6  -4  -4    5.26    0.91
   6   4   4    5.38    0.83
  -7  -4  -4    3.57    0.74
   7   4   4    3.38    0.65
  -8  -4  -4    0.89    0.46
   8   4   4    1.05    0.43
  -6   5   4   17.55    1.91
  -6   5   4   12.27    1.12
  -5   5   4   51.08    4.04
  -5   5   4   47.24    3.22
  -4   5   4    7.63    1.24
  -4   5   4   11.88    1.21
  -3   5   4    1.25    0.58
  -3   5   4    0.96    0.46
  -3   5   4    1.09    0.43
   2  -5  -4   14.00    1.50
  -2   5   4   11.36    1.23
   1  -5  -4   34.15    2.25
  -1   5   4   37.27    2.04
   0  -5  -4    0.34    0.38
   0   5   4    0.18    0.30
  -1  -5  -4    0.37    0.42
  -1  -5  -4    0.39    0.38
   1   5   4    0.32    0.32
  -2  -5  -4   22.90    1.54
  -2  -5  -4   19.01    1.81
   2   5   4   20.18    1.23
   2   5   4   19.32    1.26
  -3  -5  -4   16.31    1.75
  -3  -5  -4   14.50    1.25
   3   5   4   16.40    1.13
   3   5   4   15.68    1.15
   3   5   4   16.89    1.42
  -4  -5  -4    4.15    1.15
   4   5   4    3.85    0.77
   4   5   4    4.71    0.69
  -5  -5  -4    1.03    0.60
  -5  -5  -4    0.28    0.42
   5   5   4    1.10    0.49
   5   5   4    0.53    0.47
   5   5   4    1.40    0.67
  -6  -5  -4    9.50    1.25
  -6  -5  -4    9.67    1.10
   6   5   4    9.13    1.06
   6   5   4   10.06    1.25
  -7  -5  -4   12.47    1.34
   7   5   4   11.30    1.15
   8   5   4   17.11    1.30
  -5   6   4   24.28    1.80
  -4   6   4    1.13    0.54
  -4   6   4    0.78    0.43
  -4   6   4    3.28    1.18
  -3   6   4    9.29    1.48
  -3   6   4    9.02    1.14
  -3   6   4    8.02    0.90
  -2   6   4   21.66    1.53
  -2   6   4   23.07    1.75
  -2   6   4   20.63    1.46
  -2   6   4   19.01    2.14
   1  -6  -4    8.92    1.24
  -1   6   4    8.89    1.06
   0  -6  -4    3.93    0.78
   0   6   4    3.97    0.72
  -1  -6  -4    0.36    0.43
  -1  -6  -4    0.20    0.53
   1   6   4    0.51    0.41
  -2  -6  -4  141.63   10.29
  -2  -6  -4  172.14    8.46
   2   6   4  173.23    7.11
   2   6   4  177.47    7.38
  -3  -6  -4   30.16    2.19
  -3  -6  -4   33.81    2.93
   3   6   4   32.70    1.98
   3   6   4   31.67    1.87
  -4  -6  -4   15.03    2.18
   4   6   4   12.90    1.29
   4   6   4   10.85    1.21
  -5  -6  -4   17.89    1.56
   5   6   4   18.69    1.71
  -6  -6  -4   60.09    4.26
  -6  -6  -4   68.17    4.58
   6   6   4   63.17    4.22
   6   6   4   79.32    4.69
  -7  -6  -4   34.58    2.60
   7   6   4   31.06    2.59
   7   6   4   39.88    2.44
   8   6   4    5.55    0.62
  -5   7   4    2.48    1.03
  -5   7   4    0.07    0.33
  -4   7   4    6.16    1.49
  -3   7   4    4.52    1.39
  -3   7   4    1.68    0.61
  -3   7   4    1.37    0.49
  -2   7   4   40.22    2.53
  -2   7   4   39.15    2.73
  -2   7   4   39.06    2.38
  -1   7   4   97.68    5.11
  -1   7   4   97.39    5.83
  -1   7   4   94.02    5.07
  -1   7   4   99.69    5.46
   0  -7  -4   12.80    1.54
   0   7   4   16.88    1.19
   0   7   4   15.82    1.23
   0   7   4   14.29    1.45
   0   7   4   14.17    1.23
   0   7   4   13.19    1.37
  -1  -7  -4    8.40    1.43
  -1  -7  -4   10.43    1.38
   1   7   4   11.95    1.27
  -2  -7  -4   86.36    5.86
  -2  -7  -4   77.74    4.72
   2   7   4   82.33    4.19
  -3  -7  -4  113.11    6.05
  -3  -7  -4  112.51    6.61
   3   7   4  119.33    5.36
   3   7   4  114.95    5.13
   3   7   4   97.47    6.42
   3   7   4  106.67    6.93
  -4  -7  -4   83.84    5.11
   4   7   4   79.68    5.38
  -5  -7  -4   20.68    1.72
   5   7   4   20.68    1.86
  -6  -7  -4   23.73    1.81
  -6  -7  -4   24.63    1.99
   6   7   4   20.81    1.92
  -7  -7  -4   12.82    1.24
   7   7   4   12.42    1.25
  -4   8   4    9.35    1.00
  -4   8   4   12.96    1.70
  -4   8   4    8.36    0.80
  -3   8   4    9.17    1.48
  -3   8   4    6.83    0.84
  -3   8   4    5.82    0.86
  -3   8   4    8.13    0.90
  -2   8   4   14.37    1.24
  -2   8   4   14.40    1.27
  -2   8   4   17.41    1.54
  -1   8   4   28.12    2.21
  -1   8   4   28.38    2.00
  -1   8   4   30.83    1.87
  -1   8   4   27.79    1.87
   0   8   4  234.61   12.91
   0   8   4  254.04   12.07
   0   8   4  241.39   12.10
   0   8   4  239.55   13.78
   1   8   4   35.33    2.10
   1   8   4   32.80    2.02
   1   8   4   33.36    2.20
   1   8   4   30.76    2.37
  -2  -8  -4    1.63    0.45
   2   8   4    3.25    0.63
   2   8   4    3.48    0.64
   2   8   4    1.45    0.51
   2   8   4    2.49    0.57
  -3  -8  -4   12.10    1.23
   3   8   4   12.98    1.31
   3   8   4   13.13    1.11
   3   8   4   14.27    1.29
  -4  -8  -4   14.20    1.38
   4   8   4   16.13    1.53
  -5  -8  -4    9.59    1.06
   5   8   4    7.11    1.03
  -6  -8  -4    6.88    0.89
   6   8   4    6.93    0.96
  -7  -8  -4    0.71    0.36
   7   8   4    0.42    0.35
  -3   9   4   20.09    1.39
  -3   9   4   21.12    1.59
  -3   9   4   20.79    1.36
  -2   9   4   14.24    1.34
  -2   9   4    9.66    1.00
  -2   9   4   10.09    0.96
  -1   9   4   10.48    1.04
  -1   9   4   11.30    1.02
  -1   9   4    9.83    0.96
  -1   9   4   11.95    1.38
   0   9   4    0.92    0.46
   0   9   4    1.51    0.53
   0   9   4    1.28    0.45
   0   9   4    0.98    0.64
  -1  -9  -4    0.41    0.35
   1   9   4   -0.01    0.51
   1   9   4    0.66    0.43
   1   9   4    0.32    0.40
  -2  -9  -4    0.80    0.42
   2   9   4   -0.10    0.40
   2   9   4    0.32    0.44
   2   9   4    0.31    0.36
   2   9   4    0.55    0.38
  -3  -9  -4    1.78    0.57
   3   9   4    1.41    0.45
   3   9   4    2.32    0.61
  -4  -9  -4    0.15    0.38
   4   9   4    0.02    0.40
  -5  -9  -4    1.74    0.52
   5   9   4    1.89    0.58
  -6  -9  -4    1.80    0.44
   6   9   4    2.03    0.50
  -2  10   4    3.33    0.44
  -2  10   4    2.52    0.55
  -2  10   4    3.02    0.47
  -1  10   4   11.33    1.18
  -1  10   4    9.26    0.83
  -1  10   4    9.04    0.95
  -1  10   4   10.14    0.84
   0  10   4    2.82    0.47
   0  10   4    5.00    0.68
   0  10   4    4.93    0.87
   0  10   4    5.80    0.74
  -1 -10  -4    0.28    0.29
   1  10   4    0.00    0.38
   1  10   4   -0.33    0.46
   1  10   4   -0.01    0.34
  -2 -10  -4    3.94    0.64
   2  10   4    4.21    0.74
   2  10   4    4.54    0.62
  -3 -10  -4    0.55    0.39
   3  10   4    0.80    0.35
   3  10   4    0.41    0.39
  -4 -10  -4    2.46    0.54
   4  10   4    2.39    0.54
  -5 -10  -4    1.81    0.44
   5  10   4    1.42    0.44
   0  11   4   -0.26    0.30
   0  11   4    0.14    0.23
  -1 -11  -4    2.75    0.44
   1  11   4    2.44    0.43
  -2 -11  -4    6.90    0.72
   2  11   4    6.73    0.64
  -3 -11  -4    5.88    0.65
   3  11   4    5.52    0.58
  -4 -11  -4    8.85    0.80
  -2  -8   5    3.41    0.53
   1   8  -5    0.69    0.36
  -1  -8   5    0.32    0.30
   0   8  -5    3.90    0.63
   0  -8   5    3.24    0.57
  -1   8  -5    0.23    0.33
   1  -8   5    0.25    0.26
   3   7  -5    7.16    0.78
  -3  -7   5    7.80    0.87
   2   7  -5    9.60    0.99
  -2  -7   5   10.37    1.14
  -2  -7   5   10.55    1.07
   1   7  -5    0.55    0.40
   1   7  -5    0.29    0.42
  -1  -7   5    0.81    0.45
   0   7  -5    0.24    0.43
   0  -7   5    0.56    0.43
   0  -7   5    0.59    0.38
  -1   7  -5    4.12    0.81
   1  -7   5    2.83    0.62
  -2   7  -5    1.53    0.55
  -2   7  -5    1.06    0.38
   2  -7   5    2.00    0.55
  -3   7  -5    8.26    0.82
  -3   7  -5    8.43    0.94
   3  -7   5    8.96    0.88
   4   6  -5    0.61    0.37
  -4  -6   5    0.55    0.37
   3   6  -5    1.97    0.53
  -3  -6   5    0.49    0.45
  -3  -6   5    1.40    0.53
   2   6  -5   13.69    1.31
  -2  -6   5   14.67    1.45
   1   6  -5   21.90    1.83
  -1  -6   5   26.45    2.09
   0   6  -5    5.43    0.96
   0   6  -5    6.07    0.85
   0  -6   5    5.82    0.97
   0  -6   5    6.45    0.88
  -1   6  -5    5.59    0.77
  -1   6  -5    7.49    1.15
   1  -6   5    4.47    0.83
   1  -6   5    6.24    0.91
  -2   6  -5   49.46    3.47
  -2   6  -5   47.12    2.94
   2  -6   5   46.88    3.21
  -3   6  -5   62.35    3.45
  -3   6  -5   62.99    3.74
  -3   6  -5   63.38    4.34
   3  -6   5   68.09    4.12
  -4   6  -5   25.97    1.99
  -4   6  -5   28.52    1.78
  -4   6  -5   24.00    1.59
   4  -6   5   27.28    1.93
  -5   6  -5    9.55    0.73
  -5   6  -5   10.17    0.81
   5  -6   5    9.04    0.84
   5   5  -5    7.24    0.75
  -5  -5   5    6.30    0.65
   4   5  -5    0.60    0.38
  -4  -5   5    0.96    0.45
  -4  -5   5    0.79    0.51
   3   5  -5   24.95    1.86
  -3  -5   5   21.89    1.89
  -3  -5   5   23.91    2.17
   2   5  -5   55.49    3.80
  -2  -5   5   63.11    4.13
   1   5  -5  142.26    8.84
  -1  -5   5  156.62    9.40
   0   5  -5   32.94    2.41
   0   5  -5   30.81    2.64
   0  -5   5   39.54    2.69
  -1   5  -5   20.31    1.84
  -1   5  -5   19.16    1.50
   1  -5   5   22.27    1.85
   1  -5   5   17.38    1.62
  -2   5  -5   58.71    3.38
  -2   5  -5   55.49    3.97
   2  -5   5   53.52    3.66
  -3   5  -5   20.26    1.57
  -3   5  -5   20.22    1.87
   3  -5   5   19.59    1.68
  -4   5  -5   11.12    1.04
  -4   5  -5    9.70    1.16
   4  -5   5    6.12    0.89
  -5   5  -5    3.06    0.61
  -5   5  -5    3.82    0.60
  -5   5  -5    2.32    0.52
   5  -5   5    3.52    0.66
   6   4  -5    0.73    0.26
   5   4  -5   49.96    3.34
  -5  -4   5   56.30    3.63
   4   4  -5  113.24    6.38
  -4  -4   5  109.74    6.64
  -4  -4   5   90.85    7.43
  -4  -4   5  106.82    6.78
   3   4  -5   26.57    1.92
  -3  -4   5   19.48    2.04
  -3  -4   5   24.97    2.24
  -3  -4   5   27.81    1.98
   2   4  -5    4.96    0.79
  -2  -4   5    3.80    0.73
   1   4  -5   35.42    2.45
  -1  -4   5   33.25    2.61
  -1  -4   5   36.29    2.62
   0   4  -5   95.89    4.67
   0   4  -5   93.02    6.71
   0  -4   5   89.97    5.34
  -1   4  -5    2.33    0.67
  -1   4  -5    1.00    0.76
   1  -4   5   -0.11    0.62
   1  -4   5    2.09    1.10
  -2   4  -5    1.33    0.51
  -2   4  -5    0.79    0.53
  -2   4  -5    0.92    0.44
   2  -4   5    1.25    0.49
  -3   4  -5   10.65    1.32
  -3   4  -5    9.10    1.03
   3  -4   5   11.19    1.12
  -4   4  -5    1.63    0.49
  -4   4  -5    1.97    0.68
   4  -4   5    1.37    0.52
  -5   4  -5    3.05    0.61
  -5   4  -5    3.45    0.74
   5  -4   5    4.28    0.72
  -6   4  -5    0.63    0.39
  -6   4  -5    0.62    0.38
   6  -4   5    0.49    0.34
   6   3  -5    1.39    0.34
  -6  -3   5    1.52    0.38
   5   3  -5   14.63    1.28
  -5  -3   5   13.72    1.59
  -5  -3   5   17.90    1.65
  -5  -3   5   15.87    1.30
   4   3  -5   20.10    1.60
  -4  -3   5   18.44    1.94
  -4  -3   5   19.41    1.57
  -4  -3   5   20.40    1.99
   3   3  -5   13.58    1.17
  -3  -3   5   11.24    1.40
  -3  -3   5   13.39    1.17
  -3  -3   5    7.98    1.26
   2   3  -5   11.65    1.31
   2   3  -5   10.32    1.23
  -2  -3   5   11.23    1.11
   1   3  -5    3.46    0.65
   1   3  -5    2.26    0.84
   1   3  -5    2.72    0.63
  -1  -3   5    1.92    0.77
  -1  -3   5    1.70    0.47
   0   3  -5   23.63    2.15
   0   3  -5   20.82    1.51
   0   3  -5   22.84    1.58
   0  -3   5   19.73    1.75
  -1   3  -5    2.58    0.84
  -1   3  -5    2.95    0.65
  -1   3  -5    2.05    0.53
   1  -3   5    2.57    0.95
   1  -3   5    2.06    0.68
  -2   3  -5    2.99    0.70
  -2   3  -5    3.12    0.65
  -2   3  -5    2.24    0.85
   2  -3   5    1.71    0.91
   2  -3   5    2.02    0.69
  -3   3  -5    9.35    1.30
  -3   3  -5    9.42    1.05
  -3   3  -5    8.21    1.11
   3  -3   5    8.35    0.98
  -4   3  -5   11.94    1.25
  -4   3  -5   12.72    1.46
   4  -3   5   13.57    1.25
  -5   3  -5   15.49    1.58
  -5   3  -5   13.11    1.29
   5  -3   5   16.92    1.42
  -6   3  -5    4.61    0.78
   6  -3   5    3.97    0.64
  -7   3  -5   36.54    2.38
   7  -3   5   35.03    2.30
  -6  -2   5    0.74    0.45
  -6  -2   5    0.90    0.37
  -6  -2   5    1.68    0.63
  -5  -2   5    4.12    0.92
  -5  -2   5    3.44    0.66
  -5  -2   5    3.97    0.99
   4   2  -5    1.79    0.52
  -4  -2   5    1.30    0.81
  -4  -2   5    2.19    0.56
  -4  -2   5    1.07    0.65
   3   2  -5    2.85    0.73
   3   2  -5    5.05    0.79
   3   2  -5    3.67    0.78
  -3  -2   5    2.63    0.57
  -3  -2   5    2.98    0.67
  -3  -2   5    2.81    0.77
  -3  -2   5    2.50    0.72
   2   2  -5    0.98    0.63
   2   2  -5    1.12    0.51
   2   2  -5    1.79    0.55
  -2  -2   5    0.76    0.39
   1   2  -5   13.54    1.16
   1   2  -5   13.21    1.13
   1   2  -5   14.60    1.58
  -1  -2   5   14.58    1.00
  -1  -2   5   15.05    1.42
   0   2  -5    6.95    0.82
   0   2  -5    6.81    1.13
   0   2  -5    6.44    0.84
   0  -2   5    6.65    0.69
   0  -2   5    8.15    1.11
  -1   2  -5    8.82    1.29
  -1   2  -5    7.70    0.85
  -1   2  -5    8.34    0.96
   1  -2   5    5.29    1.14
   1  -2   5    7.08    1.04
  -2   2  -5    3.14    0.58
  -2   2  -5    4.35    0.98
  -2   2  -5    4.15    0.72
   2  -2   5    4.16    0.84
  -3   2  -5   66.03    3.58
  -3   2  -5   66.30    4.82
   3  -2   5   64.53    4.71
  -4   2  -5   46.79    2.67
  -4   2  -5   42.67    3.00
  -4   2  -5   34.69    2.52
   4  -2   5   39.34    2.70
  -5   2  -5    4.39    0.75
  -5   2  -5    5.63    0.98
   5  -2   5    4.57    0.77
  -6   2  -5   24.09    1.95
   6  -2   5   20.56    1.73
  -7   2  -5   19.56    1.65
   7  -2   5   22.24    1.58
  -6  -1   5    1.92    1.07
  -6  -1   5    2.26    0.62
  -6  -1   5    2.90    0.58
  -6  -1   5    3.32    0.79
  -5  -1   5    6.69    1.13
  -5  -1   5    7.37    1.22
  -5  -1   5    4.48    0.79
  -5  -1   5    4.34    0.94
  -4  -1   5    4.82    0.98
  -4  -1   5    3.32    0.87
  -4  -1   5    4.42    0.98
  -4  -1   5    3.71    0.69
   3   1  -5    1.12    0.62
   3   1  -5    1.84    0.58
   3   1  -5    1.66    0.55
  -3  -1   5    1.52    0.49
   2   1  -5    4.42    0.88
   2   1  -5    3.69    0.71
   2   1  -5    3.12    0.65
  -2  -1   5    3.65    0.59
   1   1  -5    6.94    0.84
   1   1  -5    5.55    0.71
   1   1  -5    5.27    0.93
  -1  -1   5    6.24    0.67
  -1  -1   5    7.14    1.01
   0   1  -5  286.90   13.06
   0   1  -5  285.82   12.28
   0   1  -5  283.66   17.04
   0  -1   5  283.00   13.93
   0  -1   5  292.07   10.86
  -1   1  -5   39.11    2.92
  -1   1  -5   39.29    2.07
  -1   1  -5   39.11    2.24
   1  -1   5   41.80    1.76
   1  -1   5   41.53    2.52
   1  -1   5   40.30    3.06
  -2   1  -5    1.22    0.60
  -2   1  -5    0.97    0.40
  -2   1  -5    1.08    0.35
   2  -1   5    1.33    0.54
   2  -1   5    1.09    0.55
  -3   1  -5    4.61    1.02
  -3   1  -5    3.93    0.67
   3  -1   5    3.60    0.88
  -4   1  -5   30.66    2.06
   4  -1   5   33.50    2.27
   4  -1   5   31.41    2.81
  -5   1  -5  107.04    6.79
   5  -1   5  102.63    6.36
  -6   1  -5   10.30    1.25
   6  -1   5   10.02    1.12
  -7   1  -5    3.13    0.68
   7  -1   5    1.86    0.50
   8  -1   5    0.28    0.25
  -6   0   5    4.44    1.18
  -6   0   5    4.24    0.84
  -6   0   5    2.61    0.59
  -6   0   5    4.45    0.85
  -5   0   5    1.04    0.47
  -5   0   5    0.86    0.66
  -5   0   5    2.07    0.87
  -5   0   5    1.64    0.74
  -4   0   5   23.61    1.85
  -4   0   5   25.02    2.34
  -4   0   5   24.67    2.38
  -4   0   5   25.42    2.10
   3   0  -5   71.44    3.71
   3   0  -5   68.66    3.92
  -3   0   5   72.98    3.28
   2   0  -5  142.58    6.87
   2   0  -5  142.48    6.46
   2   0  -5  134.69    8.60
  -2   0   5  147.88    5.75
   1   0  -5    6.84    0.93
   1   0  -5    8.03    0.89
   1   0  -5    7.47    0.79
  -1   0   5    7.87    0.71
   0   0  -5   18.26    1.10
   0   0  -5   18.37    1.25
   0   0  -5   18.18    1.50
   0   0   5   17.78    1.00
  -1   0  -5  203.51    9.23
  -1   0  -5  191.38    8.59
  -1   0  -5  226.91   12.12
   1   0   5  191.01    7.60
   1   0   5  192.61    9.86
  -2   0  -5   21.51    1.43
  -2   0  -5   22.60    1.24
  -2   0  -5   26.00    1.98
   2   0   5   22.78    1.89
  -3   0  -5    1.03    0.55
  -3   0  -5    1.01    0.40
   3   0   5    0.64    0.36
   3   0   5    0.67    0.53
  -4   0  -5    0.70    0.46
  -4   0  -5    0.39    0.64
   4   0   5    0.58    0.49
   4   0   5    0.34    0.60
  -5   0  -5    7.04    1.03
  -5   0  -5    6.79    1.02
   5   0   5    7.87    0.92
   5   0   5   10.97    1.37
  -6   0  -5    6.79    1.08
   6   0   5    8.26    1.05
  -7   0  -5    2.02    0.61
   7   0   5    1.69    0.56
  -8   0  -5    0.91    0.41
   8   0   5    1.04    0.38
  -6   1   5   39.53    3.27
  -6   1   5   47.02    3.85
  -6   1   5   40.07    2.75
  -5   1   5    4.59    0.78
  -5   1   5    6.07    1.10
  -5   1   5    8.03    1.21
  -5   1   5    5.97    1.12
  -4   1   5   34.75    2.55
  -4   1   5   30.74    2.29
  -4   1   5   34.09    3.00
  -4   1   5   32.52    2.86
   3  -1  -5   64.23    3.55
   3  -1  -5   64.44    3.37
  -3   1   5   60.02    2.88
   2  -1  -5   60.20    3.32
   2  -1  -5   62.69    3.10
  -2   1   5   60.68    2.72
   1  -1  -5   10.62    0.84
   1  -1  -5   10.77    0.90
   1  -1  -5   10.42    0.93
  -1   1   5   11.25    0.77
   0  -1  -5   17.18    1.16
   0  -1  -5   16.87    1.02
   0  -1  -5   18.00    1.34
   0   1   5   17.57    0.95
  -1  -1  -5    2.94    0.49
  -1  -1  -5    3.61    0.37
  -1  -1  -5    2.58    0.53
   1   1   5    2.56    0.33
  -2  -1  -5    2.28    0.43
  -2  -1  -5    2.47    0.63
   2   1   5    3.14    0.51
   2   1   5    2.36    0.31
   2   1   5    3.38    0.68
  -3  -1  -5   88.46    4.32
  -3  -1  -5   91.88    5.84
   3   1   5   90.46    4.59
   3   1   5   81.15    5.70
  -4  -1  -5    5.56    0.77
  -4  -1  -5    4.56    1.09
   4   1   5    4.60    0.78
   4   1   5    3.31    0.90
  -5  -1  -5    3.08    0.68
   5   1   5    2.34    0.69
   5   1   5    1.70    0.81
  -6  -1  -5    1.90    0.63
   6   1   5    1.01    0.50
  -7  -1  -5    2.73    0.71
   7   1   5    2.51    0.58
  -8  -1  -5   29.87    2.23
   8   1   5   31.42    2.13
  -5   2   5    0.75    0.68
  -5   2   5    1.03    0.70
  -5   2   5    0.48    0.44
  -4   2   5   10.59    1.40
  -4   2   5    9.89    1.11
  -4   2   5   11.01    1.47
   3  -2  -5    4.23    0.76
  -3   2   5    5.26    0.69
   2  -2  -5    5.77    0.74
  -2   2   5    7.49    0.70
   1  -2  -5   13.68    1.10
   1  -2  -5   14.23    0.94
  -1   2   5   14.65    0.89
  -1   2   5   15.01    0.98
   0  -2  -5   30.75    1.78
   0  -2  -5   32.79    2.09
   0  -2  -5   33.08    1.60
   0   2   5   31.80    1.50
   0   2   5   32.86    1.62
  -1  -2  -5  116.19    7.05
  -1  -2  -5  115.79    5.41
   1   2   5  116.02    4.54
  -2  -2  -5   11.49    0.81
  -2  -2  -5    9.75    1.11
   2   2   5   11.85    0.95
  -3  -2  -5    3.29    0.51
  -3  -2  -5    3.75    0.82
   3   2   5    2.70    0.55
   3   2   5    3.09    0.74
  -4  -2  -5   65.94    4.52
  -4  -2  -5   58.61    3.20
   4   2   5   63.11    4.43
   4   2   5   60.76    3.54
  -5  -2  -5   63.66    3.53
  -5  -2  -5   59.46    4.84
   5   2   5   72.16    4.97
   5   2   5   68.56    3.96
   6   2   5   40.89    2.80
  -7  -2  -5   38.84    2.80
   7   2   5   34.77    2.56
  -8  -2  -5   22.09    1.81
   8   2   5   23.69    1.72
  -5   3   5    0.02    0.90
  -5   3   5    0.17    0.56
  -5   3   5    0.13    0.43
  -4   3   5   16.14    1.72
  -4   3   5   13.86    1.34
  -4   3   5   14.02    1.69
   3  -3  -5    0.64    0.50
   2  -3  -5   12.76    0.95
   2  -3  -5   11.53    0.97
  -2   3   5   12.40    0.85
  -2   3   5   12.67    1.05
   1  -3  -5   65.00    3.12
   1  -3  -5   68.18    3.41
  -1   3   5   65.10    3.11
  -1   3   5   68.54    2.84
   0  -3  -5  151.67    7.11
   0   3   5  163.04    6.58
   0   3   5  150.00    6.01
  -1  -3  -5   57.14    2.83
  -1  -3  -5   60.69    3.74
   1   3   5   58.43    2.46
  -2  -3  -5    0.48    0.41
   2   3   5    1.08    0.40
  -3  -3  -5   59.15    4.58
   3   3   5   80.03    3.84
  -4  -3  -5  200.68   11.74
   4   3   5  182.14    9.33
   4   3   5  177.86   11.58
  -5  -3  -5   26.50    2.73
   5   3   5   34.09    2.30
   5   3   5   28.18    2.71
  -6  -3  -5   19.67    1.78
   6   3   5   21.54    1.65
   7   3   5    0.62    0.47
  -8  -3  -5   14.11    1.34
   8   3   5   14.82    1.25
  -5   4   5    0.40    0.60
  -5   4   5    1.31    1.27
  -5   4   5    0.36    0.47
  -4   4   5   11.87    1.48
  -4   4   5   10.77    1.50
  -4   4   5   11.08    1.20
   3  -4  -5   23.61    1.72
   3  -4  -5   20.67    1.68
  -3   4   5   22.67    2.22
  -3   4   5   24.99    2.18
  -3   4   5   24.02    1.78
   2  -4  -5   13.90    1.06
  -2   4   5   11.94    1.23
   1  -4  -5   47.33    2.84
  -1   4   5   49.58    2.23
  -1   4   5   51.46    2.54
   0   4   5   28.39    1.42
   0   4   5   29.56    1.59
  -1  -4  -5  332.50   19.69
   1   4   5  339.07   13.86
  -2  -4  -5   77.24    4.88
   2   4   5   71.40    4.01
  -3  -4  -5    4.60    0.93
  -3  -4  -5    4.02    0.67
   3   4   5    4.90    0.78
  -4  -4  -5   13.03    1.68
   4   4   5   17.97    1.49
  -5  -4  -5   22.49    2.59
   5   4   5   26.82    2.03
  -6  -4  -5    2.01    0.54
  -6  -4  -5    2.16    0.61
   6   4   5    1.80    0.63
   6   4   5    2.93    0.61
  -7  -4  -5    4.51    0.80
   7   4   5    6.22    0.84
  -8  -4  -5    1.29    0.48
   8   4   5    1.12    0.41
  -5   5   5   31.62    2.91
  -5   5   5   31.86    2.29
  -4   5   5    0.32    0.48
  -4   5   5    1.11    0.65
  -3   5   5  101.38    7.28
  -3   5   5  102.36    6.10
   2  -5  -5  149.51    7.68
  -2   5   5  145.94    6.75
   1  -5  -5   15.37    1.36
  -1   5   5   15.05    1.20
   0  -5  -5   10.37    1.18
   0   5   5   10.12    0.86
  -1  -5  -5    5.27    0.87
  -1  -5  -5    6.46    0.88
   1   5   5    5.94    0.69
  -2  -5  -5   43.42    2.58
  -2  -5  -5   44.99    3.16
   2   5   5   38.25    2.13
  -3  -5  -5    5.10    1.12
  -3  -5  -5    4.05    0.71
   3   5   5    4.24    0.82
  -4  -5  -5    1.20    0.80
   4   5   5    1.86    0.67
  -5  -5  -5    0.54    0.44
   5   5   5    0.28    0.46
  -6  -5  -5    0.81    0.53
  -6  -5  -5    0.51    0.44
   6   5   5    0.39    0.43
   6   5   5    0.08    0.51
  -7  -5  -5    0.15    0.41
   7   5   5    0.13    0.37
   7   5   5    0.23    0.50
  -8  -5  -5    2.03    0.51
   8   5   5    1.70    0.45
  -5   6   5   30.98    2.57
  -5   6   5   21.82    1.77
  -4   6   5   22.01    1.80
  -4   6   5   22.85    2.44
  -3   6   5   13.01    1.28
  -3   6   5   11.35    1.60
  -3   6   5   11.64    1.05
  -2   6   5    1.28    0.56
  -2   6   5    0.22    0.41
   1  -6  -5   18.28    1.65
  -1   6   5   16.65    1.40
   0  -6  -5    0.88    0.52
   0   6   5    0.29    0.33
  -1  -6  -5    1.03    0.57
  -1  -6  -5    0.82    0.58
   1   6   5    1.10    0.45
  -2  -6  -5   30.05    2.65
  -2  -6  -5   35.92    2.29
   2   6   5   31.73    1.93
  -3  -6  -5    1.24    0.58
  -3  -6  -5    1.43    0.81
   3   6   5    1.45    0.48
   4   6   5   18.33    1.67
  -5  -6  -5   18.50    1.56
   5   6   5   17.91    1.67
  -6  -6  -5   12.39    1.28
  -6  -6  -5   12.78    1.35
   6   6   5   11.44    1.38
  -7  -6  -5    4.20    0.73
   7   6   5    6.53    0.93
   8   6   5   17.80    1.42
  -4   7   5    6.28    1.49
  -3   7   5    0.42    0.41
  -3   7   5    2.81    1.23
  -3   7   5    1.43    0.54
  -2   7   5   35.79    2.54
  -2   7   5   37.45    2.26
  -2   7   5   35.65    2.32
  -1   7   5    4.15    0.66
  -1   7   5    5.17    0.81
  -1   7   5    4.29    0.62
  -1   7   5    5.17    0.74
   0  -7  -5    0.88    0.67
   0   7   5    0.87    0.44
   0   7   5    0.76    0.40
   0   7   5    0.17    0.44
   0   7   5    0.09    0.48
   0   7   5    0.40    0.37
  -1  -7  -5   15.25    1.74
   1   7   5   16.75    1.34
  -2  -7  -5   96.79    6.68
  -2  -7  -5   98.58    5.56
   2   7   5  101.62    4.84
  -3  -7  -5   31.92    2.18
  -3  -7  -5   33.43    2.40
   3   7   5   30.29    1.88
   3   7   5   30.28    2.06
   3   7   5   28.15    2.24
   3   7   5   29.47    2.19
  -4  -7  -5    2.50    0.63
   4   7   5    2.07    0.63
  -5  -7  -5   80.09    4.79
   5   7   5   69.78    4.97
  -6  -7  -5   77.53    4.89
   6   7   5   78.53    5.19
  -7  -7  -5   17.36    1.53
   7   7   5   17.72    1.55
  -4   8   5    0.37    0.40
  -4   8   5    0.04    0.25
  -3   8   5    1.02    0.45
  -3   8   5    1.37    0.54
  -2   8   5    1.35    0.46
  -2   8   5    0.92    0.44
  -2   8   5    2.07    0.65
  -1   8   5   21.26    1.46
  -1   8   5   20.95    1.51
  -1   8   5   18.64    1.55
  -1   8   5   21.73    1.77
   0   8   5   29.09    2.31
   0   8   5   32.78    2.02
   0   8   5   32.11    2.15
   0   8   5   32.44    2.03
   1   8   5   10.89    1.33
   1   8   5   13.35    1.13
   1   8   5   13.71    1.10
   1   8   5   14.36    1.24
  -2  -8  -5  119.68    7.07
   2   8   5  119.16    6.13
   2   8   5  110.87    7.34
   2   8   5  125.50    6.58
   2   8   5  117.26    6.98
  -3  -8  -5   32.24    2.39
   3   8   5   34.44    2.09
   3   8   5   33.99    2.39
   3   8   5   35.97    2.53
  -4  -8  -5    0.40    0.45
   4   8   5    0.50    0.45
  -5  -8  -5    2.52    0.62
   5   8   5    1.66    0.60
  -6  -8  -5   21.66    1.68
   6   8   5   20.40    1.76
  -7  -8  -5   13.77    1.21
   7   8   5   13.20    1.19
  -3   9   5    0.50    0.32
  -3   9   5    1.36    0.48
  -2   9   5   21.13    1.47
  -2   9   5   21.95    1.76
  -2   9   5   20.66    1.53
  -1   9   5   32.48    2.35
  -1   9   5   29.42    1.91
  -1   9   5   31.05    2.09
   0   9   5    8.61    1.01
   0   9   5    8.44    1.14
   0   9   5    8.18    0.93
   0   9   5    7.91    0.89
   1   9   5    1.31    0.64
   1   9   5    1.43    0.51
   1   9   5    1.24    0.46
   1   9   5    0.90    0.41
  -2  -9  -5    1.01    0.43
   2   9   5    0.42    0.38
   2   9   5    0.09    0.46
  -3  -9  -5   23.34    1.75
   3   9   5   21.14    1.74
   3   9   5   20.85    1.51
  -4  -9  -5    0.08    0.38
   4   9   5    0.31    0.42
  -5  -9  -5    4.34    0.71
   5   9   5    2.97    0.66
  -6  -9  -5   10.17    0.96
   6   9   5    8.74    0.99
  -2  10   5   10.70    1.01
  -2  10   5    9.42    0.76
  -1  10   5    8.36    0.99
  -1  10   5    6.66    0.70
  -1  10   5    7.56    0.73
  -1  10   5    8.29    0.86
   0  10   5    2.11    0.43
   0  10   5    2.58    0.68
   0  10   5    4.36    0.67
   0  10   5    2.33    0.51
   1  10   5   12.56    1.09
   1  10   5   11.95    1.34
  -2 -10  -5   12.49    1.11
   2  10   5   11.87    1.28
   2  10   5   12.45    1.03
  -3 -10  -5    0.09    0.34
   3  10   5    0.22    0.35
   3  10   5    0.39    0.30
  -4 -10  -5    3.64    0.65
   4  10   5    3.47    0.62
  -5 -10  -5    0.33    0.33
   5  10   5    0.55    0.35
   0  11   5    0.81    0.28
   0  11   5    1.27    0.44
   1  11   5   -0.49    0.34
   1  11   5    0.14    0.29
  -2 -11  -5   -0.06    0.22
   2  11   5    0.49    0.28
  -3 -11  -5    8.13    0.78
   3  11   5    7.04    0.63
  -4 -11  -5    3.47    0.49
   2   7  -6    0.06    0.27
  -2  -7   6    0.19    0.32
  -2  -7   6    0.33    0.32
   1   7  -6    0.60    0.34
  -1  -7   6    0.70    0.37
   0   7  -6    0.23    0.40
   0  -7   6   -0.23    0.34
  -1   7  -6    1.23    0.50
   1  -7   6    1.10    0.45
  -2   7  -6    0.41    0.26
  -2   7  -6    0.35    0.38
   2  -7   6    0.07    0.28
   4   6  -6    0.04    0.23
   3   6  -6    0.28    0.32
  -3  -6   6    0.21    0.34
  -3  -6   6   -0.22    0.33
   2   6  -6    5.36    0.75
  -2  -6   6    5.27    0.79
  -2  -6   6    3.51    0.72
   1   6  -6    8.34    0.95
  -1  -6   6    7.71    1.07
   0   6  -6    9.88    1.03
   0   6  -6    9.51    1.21
   0  -6   6    8.60    1.10
  -1   6  -6    2.44    0.72
   1  -6   6    2.32    0.59
   1  -6   6    2.80    0.68
  -2   6  -6    9.67    0.97
  -2   6  -6   10.00    1.20
   2  -6   6   10.38    1.05
   2  -6   6    8.64    1.11
  -3   6  -6    9.26    1.08
  -3   6  -6    9.38    0.92
  -3   6  -6    8.64    0.75
   3  -6   6    9.10    0.98
  -4   6  -6   41.81    2.21
  -4   6  -6   42.69    2.41
  -4   6  -6   39.00    2.74
   4  -6   6   38.08    2.60
   4   5  -6    0.56    0.33
  -4  -5   6    0.28    0.29
  -4  -5   6    0.13    0.38
   3   5  -6    4.34    0.69
  -3  -5   6    4.09    0.79
  -3  -5   6    4.86    0.76
   2   5  -6   10.90    1.19
  -2  -5   6   14.92    1.36
  -2  -5   6   12.59    1.48
   1   5  -6   18.38    1.54
  -1  -5   6   18.02    1.67
   0   5  -6   38.18    2.66
  -1   5  -6  108.80    6.30
  -1   5  -6  104.68    6.75
   1  -5   6   95.99    6.31
  -2   5  -6   38.60    2.44
  -2   5  -6   33.53    2.85
   2  -5   6   37.76    2.83
   2  -5   6   40.44    2.67
  -3   5  -6   13.47    1.46
  -3   5  -6   11.80    1.18
   3  -5   6   13.15    1.26
  -4   5  -6   17.19    1.63
  -4   5  -6   19.64    1.46
   4  -5   6   19.26    1.55
  -5   5  -6   10.67    1.02
  -5   5  -6    9.71    0.80
  -5   5  -6   10.71    0.94
   5  -5   6    9.41    0.93
   5   4  -6    7.31    0.74
   4   4  -6    4.33    0.67
  -4  -4   6    5.88    0.93
  -4  -4   6    5.69    0.71
  -4  -4   6    5.01    0.83
   3   4  -6   44.57    3.11
  -3  -4   6   46.20    3.37
  -3  -4   6   47.03    3.22
  -3  -4   6   50.45    3.74
   2   4  -6   71.90    4.22
  -2  -4   6   60.14    4.39
   1   4  -6   21.86    1.74
  -1  -4   6   22.19    1.84
   0  -4   6   12.57    1.34
  -1   4  -6    1.11    0.46
   1  -4   6    1.28    0.60
  -2   4  -6   75.62    4.82
  -2   4  -6   88.72    5.22
  -2   4  -6   89.20    5.67
   2  -4   6   86.29    5.60
   2  -4   6   83.28    5.25
  -3   4  -6   21.31    1.95
  -3   4  -6   22.59    1.68
   3  -4   6   19.64    1.70
  -4   4  -6    1.87    0.67
  -4   4  -6    2.43    0.56
   4  -4   6    2.94    0.67
  -5   4  -6    2.19    0.56
  -5   4  -6    1.78    0.58
   5  -4   6    1.63    0.50
  -6   4  -6    2.62    0.45
  -6   4  -6    2.92    0.48
  -6   4  -6    3.51    0.56
   6  -4   6    3.43    0.52
   5   3  -6   22.59    1.57
  -5  -3   6   21.75    1.83
  -5  -3   6   20.66    1.89
   4   3  -6   18.17    1.54
  -4  -3   6   20.55    1.97
  -4  -3   6   20.83    1.93
   3   3  -6    6.04    0.84
  -3  -3   6    5.63    0.78
  -3  -3   6    2.98    0.92
  -3  -3   6    5.41    1.01
   2   3  -6   15.72    1.37
  -2  -3   6   15.12    1.44
  -2  -3   6   17.29    1.27
   1   3  -6   31.82    2.06
  -1  -3   6   29.44    1.79
  -1  -3   6   30.93    2.26
  -1  -3   6   27.63    1.87
  -1  -3   6   34.31    2.55
   0   3  -6    1.64    0.61
   0   3  -6    2.38    0.63
   0  -3   6    1.97    0.72
  -1   3  -6   28.31    1.91
  -1   3  -6   30.08    2.04
  -1   3  -6   25.65    2.61
   1  -3   6   30.58    2.38
  -2   3  -6   29.21    2.09
  -2   3  -6   30.29    2.01
  -2   3  -6   28.33    2.00
  -2   3  -6   26.59    2.09
   2  -3   6   28.54    2.30
   2  -3   6   32.69    2.15
   2  -3   6   27.25    2.36
  -3   3  -6    3.55    0.68
  -3   3  -6    3.53    0.85
  -3   3  -6    3.83    0.70
   3  -3   6    4.87    0.75
   3  -3   6    5.75    0.96
  -4   3  -6   15.94    1.44
  -4   3  -6   16.21    1.69
   4  -3   6   17.58    1.49
  -5   3  -6    1.73    0.54
  -5   3  -6    1.63    0.65
   5  -3   6    1.97    0.59
  -6   3  -6    1.10    0.44
  -6   3  -6    1.93    0.57
   6  -3   6    1.89    0.51
  -6  -2   6    2.74    0.55
  -6  -2   6    2.95    0.62
  -5  -2   6    3.58    0.77
  -5  -2   6    3.92    0.94
   4   2  -6    4.18    0.69
  -4  -2   6    3.87    0.89
  -4  -2   6    3.97    1.02
   3   2  -6    1.88    0.52
  -3  -2   6    2.05    0.48
  -3  -2   6    1.41    0.70
  -3  -2   6    1.23    0.66
   2   2  -6    9.04    1.19
   2   2  -6    5.77    0.82
   2   2  -6    7.58    1.00
  -2  -2   6    7.66    1.19
  -2  -2   6    7.82    0.96
  -2  -2   6    9.20    1.10
  -2  -2   6    7.07    0.92
  -2  -2   6    6.53    0.79
   1   2  -6   46.36    2.70
   1   2  -6   50.32    2.91
   1   2  -6   48.63    3.69
  -1  -2   6   49.13    3.23
  -1  -2   6   49.64    2.42
   0   2  -6    1.19    0.66
   0   2  -6    2.67    0.67
   0   2  -6    1.72    0.55
   0  -2   6    1.80    0.44
   0  -2   6    1.74    0.67
  -1   2  -6    0.55    0.48
  -1   2  -6    0.74    0.54
  -1   2  -6    1.05    0.45
   1  -2   6    1.08    0.64
  -2   2  -6    3.77    0.75
  -2   2  -6    3.62    0.97
  -2   2  -6    2.48    0.57
   2  -2   6    1.90    0.68
  -3   2  -6    6.91    1.46
  -3   2  -6    8.88    1.14
   3  -2   6    9.49    1.63
  -4   2  -6   23.29    1.74
  -4   2  -6   25.07    2.09
   4  -2   6   21.57    1.77
  -5   2  -6    3.86    0.87
  -5   2  -6    6.07    0.83
   5  -2   6    4.61    0.78
  -6   2  -6   32.32    2.52
   6  -2   6   32.07    2.28
  -7   2  -6   39.78    2.65
  -7   2  -6   36.97    2.12
   7  -2   6   37.41    2.50
  -6  -1   6    0.99    0.42
  -6  -1   6    0.78    0.33
  -6  -1   6    1.36    0.54
  -6  -1   6   -1.66    0.91
  -5  -1   6    4.01    1.00
  -5  -1   6    1.58    0.63
  -5  -1   6    1.57    0.64
  -5  -1   6    1.59    0.49
  -4  -1   6    0.80    0.62
  -4  -1   6    0.66    0.65
  -4  -1   6    1.73    0.78
  -3  -1   6    5.14    0.91
  -3  -1   6    6.22    1.08
  -3  -1   6    5.78    1.12
   2   1  -6    0.08    0.47
   2   1  -6    0.24    0.41
   2   1  -6    0.65    0.48
  -2  -1   6    0.14    0.41
   1   1  -6    0.64    0.49
   1   1  -6    0.97    0.45
   1   1  -6    0.51    0.39
  -1  -1   6    0.00    0.33
   0   1  -6    4.48    0.66
   0   1  -6    4.20    0.89
   0   1  -6    5.28    0.77
   0  -1   6    4.47    0.86
   0  -1   6    5.90    0.67
  -1   1  -6    7.45    1.22
  -1   1  -6    7.84    0.83
  -1   1  -6    7.99    0.95
   1  -1   6    7.94    1.16
  -2   1  -6   68.57    4.65
  -2   1  -6   63.90    3.48
  -2   1  -6   62.16    3.16
   2  -1   6   64.42    3.84
  -3   1  -6  111.41    7.27
  -3   1  -6  104.83    5.43
   3  -1   6  106.14    7.17
  -4   1  -6   80.65    4.28
  -4   1  -6   77.72    5.77
  -4   1  -6   75.43    4.50
   4  -1   6   81.20    5.73
  -5   1  -6   27.51    1.97
  -5   1  -6   27.81    2.29
   5  -1   6   27.26    2.05
  -6   1  -6    0.99    0.58
   6  -1   6    0.84    0.46
  -7   1  -6   21.14    1.79
   7  -1   6   22.10    1.63
  -6   0   6    0.28    0.40
  -6   0   6    1.68    0.98
  -6   0   6    1.40    0.56
  -6   0   6    0.32    0.31
  -5   0   6    0.16    0.39
  -5   0   6   -0.09    0.48
  -5   0   6    2.39    0.90
  -5   0   6    0.12    0.56
  -4   0   6    8.96    1.36
  -4   0   6    5.54    1.06
  -4   0   6    7.28    1.13
  -3   0   6   11.19    1.32
  -3   0   6   13.76    1.58
  -3   0   6   13.55    1.58
   2   0  -6   23.96    1.76
   2   0  -6   23.28    1.61
  -2   0   6   23.59    1.46
   1   0  -6   81.12    5.31
   1   0  -6   84.50    4.31
   1   0  -6   85.48    4.02
  -1   0   6   82.69    3.60
   0   0  -6  296.77   14.02
   0   0  -6  308.03   18.23
   0   0  -6  306.53   13.14
   0   0   6  316.79   11.68
  -1   0  -6  179.72    8.39
  -1   0  -6  172.64    7.76
  -1   0  -6  186.42   10.97
   1   0   6  177.03    6.90
  -2   0  -6   12.54    1.34
  -2   0  -6    9.74    1.04
  -3   0  -6   59.31    4.35
  -3   0  -6   60.44    3.25
  -4   0  -6   62.42    3.45
  -4   0  -6   61.44    4.70
  -5   0  -6   39.32    2.84
  -5   0  -6   34.26    2.41
   5   0   6   37.84    2.57
  -6   0  -6    1.70    0.65
   6   0   6    1.59    0.56
  -7   0  -6    4.42    0.81
   7   0   6    3.86    0.67
  -8   0  -6    0.71    0.39
   8   0   6    0.24    0.27
  -6   1   6   29.10    2.61
  -6   1   6   21.89    1.67
  -6   1   6   23.87    2.07
  -5   1   6    5.56    0.85
  -5   1   6    8.97    1.26
  -5   1   6    8.45    1.30
  -5   1   6    8.76    1.35
  -4   1   6   35.65    3.08
  -4   1   6   33.56    2.44
  -4   1   6   37.12    3.20
  -4   1   6   37.00    2.75
   3  -1  -6   20.61    1.56
  -3   1   6   16.42    1.93
  -3   1   6   18.96    1.37
  -3   1   6   18.78    1.71
  -3   1   6   18.44    1.88
   2  -1  -6   64.03    3.25
   2  -1  -6   59.76    3.43
  -2   1   6   62.87    2.86
   1  -1  -6  157.47    6.99
   1  -1  -6  155.99    7.50
  -1   1   6  156.99    6.23
   0  -1  -6   57.89    2.94
   0  -1  -6   62.54    3.27
   0  -1  -6   65.92    4.06
   0   1   6   63.12    2.71
  -1  -1  -6   52.16    2.56
  -1  -1  -6   39.19    3.13
   1   1   6   49.20    2.06
  -2  -1  -6    5.37    0.69
  -2  -1  -6    5.66    0.96
   2   1   6    5.86    0.51
  -3  -1  -6    8.06    0.93
  -3  -1  -6    9.30    1.34
   3   1   6    6.78    0.87
  -4  -1  -6   -0.17    0.60
  -4  -1  -6    0.43    0.38
   4   1   6    0.56    0.44
   4   1   6    0.44    0.64
  -5  -1  -6    1.65    0.62
  -5  -1  -6    1.45    0.51
  -5  -1  -6    1.85    0.60
   5   1   6    2.85    0.82
   5   1   6    1.72    0.49
   5   1   6    1.89    0.64
  -6  -1  -6   10.38    1.34
   6   1   6    9.96    1.11
  -7  -1  -6    1.13    0.53
   7   1   6    0.59    0.41
  -8  -1  -6    4.76    0.73
   8   1   6    4.63    0.66
  -6   2   6    9.41    1.07
  -6   2   6    8.44    0.85
  -5   2   6   16.21    1.75
  -5   2   6   16.62    1.43
  -5   2   6   15.44    1.88
  -4   2   6   15.89    1.57
  -4   2   6   15.56    1.88
  -4   2   6   17.21    1.47
  -4   2   6   16.84    1.83
   3  -2  -6   54.38    3.14
  -3   2   6   54.45    4.50
  -3   2   6   55.82    2.71
  -3   2   6   55.66    3.87
  -3   2   6   57.96    4.34
   2  -2  -6   13.26    1.24
   2  -2  -6   12.49    1.11
  -2   2   6   11.49    0.92
   1  -2  -6   10.38    0.97
   1  -2  -6    9.50    0.84
  -1   2   6    9.92    0.79
   0  -2  -6   19.14    1.32
   0  -2  -6   18.80    1.40
   0   2   6   19.70    1.10
  -1  -2  -6   21.08    1.64
  -1  -2  -6   20.37    1.31
   1   2   6   19.94    1.10
  -2  -2  -6    6.53    0.72
  -2  -2  -6    6.31    0.96
   2   2   6    5.56    0.55
   2   2   6    5.61    0.70
  -3  -2  -6   12.41    1.04
  -3  -2  -6   15.04    1.55
   3   2   6   12.19    1.15
  -4  -2  -6    1.87    0.80
  -4  -2  -6    1.74    0.48
   4   2   6    1.38    0.55
   4   2   6    1.93    0.79
  -5  -2  -6   12.47    1.93
   5   2   6    6.10    1.40
   5   2   6    9.95    1.34
  -6  -2  -6   33.59    2.46
   6   2   6   28.33    2.18
   6   2   6   29.11    2.39
  -7  -2  -6    2.74    0.69
   7   2   6    1.45    0.51
  -8  -2  -6   10.75    1.08
   8   2   6    9.40    0.97
  -6   3   6    7.04    0.98
  -6   3   6    6.79    0.76
  -5   3   6    1.31    0.91
  -5   3   6    1.34    0.69
  -5   3   6    1.12    0.50
  -4   3   6    0.53    0.60
  -4   3   6   -0.02    0.35
  -4   3   6   -0.16    0.49
  -3   3   6    2.99    0.70
  -3   3   6    2.93    0.81
  -3   3   6    1.89    0.49
  -3   3   6    3.04    0.77
   2  -3  -6    7.97    1.05
  -2   3   6    8.78    0.86
   1  -3  -6    2.67    0.56
  -1   3   6    3.53    0.49
   0  -3  -6   36.45    2.05
   0   3   6   37.46    1.78
  -1  -3  -6   12.17    1.08
  -1  -3  -6   10.66    0.84
   1   3   6   11.96    0.78
  -2  -3  -6   46.10    3.22
   2   3   6   45.13    2.63
  -3  -3  -6   20.99    1.96
   3   3   6   23.12    1.65
  -4  -3  -6    9.11    1.48
   4   3   6    8.64    1.11
  -5  -3  -6   14.00    2.10
   5   3   6   16.29    1.73
  -6  -3  -6   69.72    4.47
   6   3   6   75.21    4.78
   6   3   6   66.88    4.42
  -7  -3  -6   33.72    2.47
   7   3   6   29.00    2.23
  -8  -3  -6   26.15    1.99
   8   3   6   24.50    1.81
  -5   4   6   12.31    1.49
  -5   4   6   12.36    1.78
  -5   4   6   13.03    1.25
  -4   4   6    2.12    0.55
  -4   4   6    1.33    0.67
  -4   4   6    2.96    0.78
  -3   4   6    0.81    0.43
  -3   4   6    0.19    0.48
  -3   4   6    0.45    0.54
  -2   4   6    0.35    0.44
   1  -4  -6   10.80    1.06
  -1   4   6    7.20    0.84
  -1   4   6   11.05    0.82
   0   4   6   56.18    2.51
  -1  -4  -6   66.95    4.25
  -2  -4  -6  148.82    9.15
  -3  -4  -6  135.46    8.86
   3   4   6  145.55    7.25
  -4  -4  -6   93.70    6.66
   4   4   6  102.77    5.40
  -5  -4  -6    9.71    1.05
   5   4   6    9.20    1.13
   5   4   6    9.12    1.35
  -6  -4  -6   13.64    1.41
  -6  -4  -6   13.87    1.31
   6   4   6   14.41    1.29
   6   4   6   13.62    1.44
   7   4   6   11.84    1.18
   7   4   6   12.06    1.37
  -8  -4  -6    4.55    0.75
   8   4   6    3.93    0.62
  -5   5   6    0.78    0.78
  -5   5   6    0.06    0.38
  -4   5   6    1.81    0.56
  -4   5   6    2.48    0.78
  -3   5   6  118.37    8.34
  -3   5   6  116.92    6.97
  -2   5   6   54.83    3.37
  -2   5   6   48.96    2.87
   1  -5  -6   91.37    5.00
  -1   5   6   91.79    4.38
   0  -5  -6  115.99    5.79
   0   5   6  100.56    4.89
  -1  -5  -6   49.50    3.01
  -2  -5  -6   98.62    6.23
  -2  -5  -6   92.25    5.12
  -3  -5  -6    5.42    0.90
  -3  -5  -6    5.05    1.10
   3   5   6    5.73    0.94
  -4  -5  -6   46.15    3.91
   4   5   6   52.90    3.22
  -5  -5  -6   11.19    1.13
   5   5   6   10.13    1.22
  -6  -5  -6    5.31    0.87
  -6  -5  -6    5.64    0.87
   6   5   6    9.01    1.20
  -7  -5  -6    0.41    0.46
   7   5   6    0.82    0.52
  -8  -5  -6    9.65    1.01
   8   5   6    9.29    1.02
  -5   6   6   27.44    1.94
  -5   6   6   31.53    2.74
  -4   6   6   20.29    1.66
  -4   6   6   20.55    2.16
  -3   6   6    4.57    0.69
  -3   6   6    4.70    0.81
  -3   6   6    3.69    0.94
  -2   6   6   45.65    3.01
  -2   6   6   44.26    2.62
  -1   6   6   44.65    2.66
  -1   6   6   48.91    3.04
  -1   6   6   48.23    2.69
  -1   6   6   46.96    2.64
  -1   6   6   43.57    2.80
   0  -6  -6   63.52    3.68
   0   6   6   58.04    3.11
  -1  -6  -6   19.26    1.66
  -2  -6  -6    1.75    0.65
  -2  -6  -6    1.41    0.67
  -3  -6  -6    1.21    0.73
  -3  -6  -6    0.36    0.49
  -4  -6  -6    0.48    0.41
   4   6   6    0.20    0.38
  -5  -6  -6    0.25    0.39
   5   6   6    0.14    0.43
  -6  -6  -6    0.28    0.46
   6   6   6    0.28    0.51
  -7  -6  -6    5.19    0.79
  -7  -6  -6    5.15    0.85
   7   6   6    6.70    0.93
  -8  -6  -6    7.56    0.83
   8   6   6    6.24    0.78
  -4   7   6    6.63    1.51
  -3   7   6    9.73    0.95
  -3   7   6    9.80    1.08
  -2   7   6    3.34    0.64
  -2   7   6    2.36    0.60
  -1   7   6   11.68    1.09
  -1   7   6   10.62    1.16
  -1   7   6   11.57    1.00
  -1   7   6   12.55    1.11
   0   7   6    0.73    0.42
   0   7   6    0.17    0.45
   0   7   6    0.83    0.39
   0   7   6    0.43    0.40
  -1  -7  -6   21.05    1.92
   1   7   6   16.36    1.44
   1   7   6   20.07    1.39
   1   7   6   20.51    1.39
   1   7   6   22.10    1.59
  -2  -7  -6    1.90    0.77
   2   7   6    2.45    0.49
   2   7   6    2.14    0.46
   2   7   6    2.20    0.75
  -3  -7  -6   10.40    1.06
   3   7   6   12.29    1.12
   3   7   6   10.19    0.91
  -4  -7  -6   30.53    2.22
   4   7   6   29.97    2.29
  -5  -7  -6    5.17    0.84
   5   7   6    4.20    0.77
  -6  -7  -6    8.88    1.07
   6   7   6   10.02    1.26
  -7  -7  -6   15.34    1.36
  -7  -7  -6   14.85    1.26
   7   7   6   14.54    1.37
  -3   8   6    2.18    0.57
  -3   8   6    2.28    0.49
  -2   8   6    2.29    0.56
  -2   8   6    1.68    0.60
  -1   8   6    0.32    0.36
  -1   8   6    0.48    0.39
  -1   8   6    0.10    0.40
  -1   8   6    0.87    0.56
   0   8   6    1.90    0.55
   0   8   6    1.99    0.65
   0   8   6    2.07    0.52
   0   8   6    1.14    0.50
   1   8   6    1.36    0.61
   1   8   6    2.87    0.58
   1   8   6    1.48    0.45
   1   8   6    2.00    0.59
   2   8   6    3.87    0.72
   2   8   6    4.97    0.68
   2   8   6    3.86    0.58
  -3  -8  -6    3.29    0.67
   3   8   6    2.52    0.58
   3   8   6    3.31    0.81
   3   8   6    3.91    0.61
  -4  -8  -6    7.70    1.01
   4   8   6    6.76    0.94
  -5  -8  -6   54.22    3.57
   5   8   6   54.48    3.75
  -6  -8  -6   36.39    2.71
   6   8   6   43.96    2.91
  -7  -8  -6    0.74    0.33
   7   8   6    0.73    0.38
  -3   9   6    3.16    0.58
  -3   9   6    3.41    0.47
  -2   9   6    3.68    0.56
  -2   9   6    3.32    0.68
  -1   9   6    1.82    0.48
  -1   9   6    2.51    0.51
  -1   9   6    2.91    0.72
   0   9   6   17.90    1.49
   0   9   6   20.64    1.72
   0   9   6   17.99    1.36
   0   9   6   17.04    1.34
   1   9   6   39.20    2.33
   1   9   6   36.79    2.25
   1   9   6   37.15    2.66
   2   9   6   31.55    2.34
   2   9   6   33.69    2.07
  -3  -9  -6   12.55    1.20
   3   9   6   11.62    1.06
   3   9   6   12.46    1.13
  -4  -9  -6    1.72    0.53
   4   9   6    1.80    0.52
   4   9   6    1.33    0.59
  -5  -9  -6    4.38    0.73
   5   9   6    5.22    0.80
  -6  -9  -6    0.59    0.38
   6   9   6    0.43    0.40
  -1  10   6   17.00    1.17
  -1  10   6   19.23    1.24
  -1  10   6   18.88    1.52
   0  10   6   16.66    1.50
   0  10   6   15.12    1.17
   0  10   6   15.04    1.12
   1  10   6    7.05    0.79
   1  10   6    4.79    0.63
   1  10   6    4.69    0.80
   2  10   6    0.89    0.38
   2  10   6    1.53    0.57
  -3 -10  -6    4.76    0.70
   3  10   6    4.54    0.62
  -4 -10  -6    0.95    0.40
   4  10   6    0.91    0.38
  -5 -10  -6    0.74    0.36
   5  10   6    0.25    0.33
   5  10   6    0.57    0.38
   0  11   6   -0.30    0.31
   0  11   6    0.46    0.24
   1  11   6    0.60    0.31
   1  11   6    0.14    0.36
   2  11   6    0.00    0.24
  -3 -11  -6    0.46    0.28
   3  11   6    0.59    0.27
  -4 -11  -6    1.75    0.38
   0  -7   7   10.57    0.94
   2   6  -7    0.70    0.35
  -2  -6   7    0.61    0.34
  -2  -6   7    0.50    0.40
   1   6  -7    0.26    0.36
  -1  -6   7    0.15    0.40
  -1  -6   7    0.02    0.35
   0   6  -7    6.08    0.80
   0  -6   7    6.51    0.90
  -1   6  -7    0.32    0.42
   1  -6   7    0.83    0.43
  -2   6  -7    8.98    0.85
  -2   6  -7   10.02    1.09
   2  -6   7   11.06    1.09
  -3   6  -7   11.35    1.06
  -3   6  -7   10.21    0.85
   3  -6   7    9.95    0.89
   3   5  -7    0.86    0.40
  -3  -5   7    0.80    0.46
  -3  -5   7    0.70    0.33
   2   5  -7    0.71    0.43
  -2  -5   7    0.41    0.45
  -2  -5   7    0.51    0.40
   1   5  -7    3.54    0.64
  -1  -5   7    4.85    0.78
   0   5  -7   30.42    2.13
   0  -5   7   27.66    2.24
  -1   5  -7    3.21    0.65
  -1   5  -7    2.92    0.76
   1  -5   7    3.71    0.76
  -2   5  -7    0.67    0.49
  -2   5  -7    1.71    0.48
   2  -5   7    1.02    0.50
  -3   5  -7   46.17    3.33
  -3   5  -7   46.56    2.83
   3  -5   7   47.73    3.27
   3  -5   7   46.63    3.06
  -4   5  -7   59.86    3.19
  -4   5  -7   58.07    3.44
  -4   5  -7   67.00    4.08
   4  -5   7   56.70    3.73
   4   4  -7    0.58    0.32
  -4  -4   7    0.71    0.33
  -4  -4   7    0.46    0.43
   3   4  -7    2.65    0.57
  -3  -4   7    2.61    0.53
  -3  -4   7    1.98    0.67
   2   4  -7    0.55    0.39
  -2  -4   7    0.95    0.57
  -2  -4   7    0.55    0.43
   1   4  -7    8.29    0.97
  -1  -4   7    6.04    0.92
   0  -4   7   71.84    4.78
  -1   4  -7   67.27    4.31
   1  -4   7   69.27    4.62
  -2   4  -7   29.30    1.91
  -2   4  -7   25.62    1.96
  -2   4  -7   25.76    2.21
   2  -4   7   24.36    2.17
  -3   4  -7    8.80    1.02
  -3   4  -7    9.09    1.27
   3  -4   7    7.09    0.98
   3  -4   7    8.58    1.18
  -4   4  -7    8.71    0.95
  -4   4  -7    6.08    0.97
   4  -4   7    8.49    0.96
  -5   4  -7   11.40    1.02
  -5   4  -7   12.70    1.21
   5  -4   7   10.14    1.05
  -5  -3   7    4.38    0.65
  -5  -3   7    5.35    0.72
   4   3  -7   10.50    0.99
  -4  -3   7   11.02    1.29
  -4  -3   7   12.45    1.34
   3   3  -7   22.23    1.66
  -3  -3   7   21.72    1.60
  -3  -3   7   20.32    2.02
  -3  -3   7   16.91    1.90
   2   3  -7   37.17    2.49
  -2  -3   7   39.00    2.22
  -2  -3   7   35.87    3.01
  -2  -3   7   32.02    2.54
  -1  -3   7    2.70    0.59
  -1  -3   7    1.49    0.51
   0   3  -7   15.13    1.37
   0  -3   7   15.23    1.21
   0  -3   7   16.30    1.47
  -1   3  -7    9.17    1.09
   1  -3   7    7.44    1.07
   1  -3   7    6.80    0.82
  -2   3  -7    0.97    0.48
  -2   3  -7    0.17    0.41
   2  -3   7    0.28    0.51
  -3   3  -7    7.19    1.14
  -3   3  -7    5.80    0.88
   3  -3   7    6.68    1.04
   3  -3   7    4.93    0.80
  -4   3  -7   -0.24    0.51
  -4   3  -7    0.59    0.45
   4  -3   7    0.04    0.40
   4  -3   7    0.52    0.56
  -5   3  -7    2.92    0.70
  -5   3  -7    3.09    0.60
   5  -3   7    3.29    0.63
  -6   3  -7    7.13    0.82
  -6   3  -7    8.82    0.97
   6  -3   7    8.12    0.85
  -5  -2   7    6.10    0.89
  -5  -2   7    5.65    0.90
  -4  -2   7   14.99    1.62
  -4  -2   7   15.36    1.74
   3   2  -7   10.71    1.06
  -3  -2   7    9.55    1.40
  -3  -2   7   12.41    1.47
   2   2  -7    6.78    0.92
  -2  -2   7    9.75    0.95
  -2  -2   7    9.67    1.20
  -2  -2   7   10.01    1.30
  -2  -2   7    8.95    0.94
   1   2  -7    3.13    0.62
  -1  -2   7    4.40    0.68
  -1  -2   7    2.76    0.58
   0   2  -7    6.28    0.84
   0   2  -7    4.86    0.84
   0   2  -7    4.76    0.89
   0  -2   7    6.56    0.80
   0  -2   7    5.26    1.11
   0  -2   7    5.97    0.88
  -1   2  -7   18.95    1.55
  -1   2  -7   14.10    1.37
  -1   2  -7   15.48    1.33
   1  -2   7   19.65    2.11
   1  -2   7   13.12    1.40
  -2   2  -7    8.55    1.03
  -2   2  -7    9.82    1.05
  -2   2  -7    7.64    1.14
   2  -2   7    8.94    1.10
  -3   2  -7    4.76    0.93
  -3   2  -7    5.75    0.85
  -3   2  -7    8.39    1.05
   3  -2   7    7.16    0.94
   3  -2   7    8.86    1.17
  -4   2  -7    0.79    0.57
  -4   2  -7    0.89    0.49
  -4   2  -7    0.95    0.46
   4  -2   7    0.82    0.54
   4  -2   7    0.67    0.46
  -5   2  -7   13.77    1.56
  -5   2  -7   16.50    1.36
   5  -2   7   13.12    1.32
  -6   2  -7    2.59    0.54
  -6   2  -7    2.41    0.64
   6  -2   7    2.39    0.56
  -7   2  -7    4.64    0.50
  -7   2  -7    4.98    0.67
   7  -2   7    3.40    0.50
  -5  -1   7    2.59    0.80
  -5  -1   7    0.81    0.54
  -5  -1   7    0.61    0.59
  -4  -1   7    0.26    0.57
  -4  -1   7    0.34    0.53
  -4  -1   7    0.68    0.76
  -3  -1   7    0.39    0.63
  -3  -1   7    0.47    0.55
  -3  -1   7    0.68    0.57
  -2  -1   7    4.54    0.88
  -2  -1   7    4.02    0.91
  -2  -1   7    3.47    0.79
  -2  -1   7    3.40    0.59
   1   1  -7   14.11    1.49
   1   1  -7   12.94    1.56
  -1  -1   7   15.75    1.20
   0   1  -7    5.69    0.82
   0   1  -7    8.03    1.31
   0   1  -7    8.23    1.11
   0  -1   7    7.09    0.80
  -1   1  -7   37.59    3.23
  -1   1  -7   45.97    2.62
  -2   1  -7   16.36    1.41
  -2   1  -7   14.90    1.79
  -3   1  -7   13.20    1.43
  -3   1  -7   11.33    1.79
  -4   1  -7    5.51    0.99
  -4   1  -7    8.09    0.94
  -4   1  -7    5.82    0.79
   4  -1   7    7.73    0.91
   4  -1   7    9.33    1.14
  -5   1  -7   22.59    1.76
   5  -1   7   22.79    1.80
   5  -1   7   23.84    2.03
  -6   1  -7   37.42    2.55
  -6   1  -7   42.59    3.03
   6  -1   7   39.93    2.71
  -7   1  -7   20.32    1.62
   7  -1   7   17.82    1.44
  -5   0   7    6.84    1.09
  -5   0   7    6.67    1.06
  -5   0   7    8.59    1.17
  -4   0   7    7.68    1.26
  -4   0   7    7.41    1.16
  -4   0   7    8.21    1.31
  -3   0   7    7.19    1.23
  -3   0   7    7.16    1.09
  -3   0   7    6.46    1.21
   2   0  -7    0.09    0.43
  -2   0   7    0.36    0.34
  -2   0   7    0.67    0.55
  -2   0   7    0.31    0.51
  -2   0   7    0.32    0.55
   1   0  -7    0.64    0.46
   1   0  -7    0.41    0.36
   1   0  -7    0.75    0.48
  -1   0   7    0.79    0.39
   0   0  -7   31.10    2.42
   0   0  -7   30.97    2.01
   0   0   7   27.23    1.58
  -1   0  -7  117.39    5.89
  -1   0  -7  127.18    7.69
   1   0   7  112.03    4.78
  -2   0  -7   61.26    3.23
  -2   0  -7   52.98    4.12
  -3   0  -7   98.94    6.67
  -3   0  -7   94.47    4.99
  -4   0  -7   21.94    1.69
  -4   0  -7   21.86    1.78
  -4   0  -7   22.08    1.78
   4   0   7   23.53    1.94
  -5   0  -7   60.16    3.53
  -5   0  -7   66.55    3.82
  -5   0  -7   50.39    4.00
   5   0   7   52.64    3.99
   5   0   7   59.30    3.72
  -6   0  -7   25.57    2.13
   6   0   7   23.93    1.88
  -7   0  -7    8.07    1.03
   7   0   7    8.64    0.93
  -5   1   7   -0.51    0.49
  -5   1   7    2.26    0.84
  -5   1   7    0.29    0.51
  -4   1   7    1.27    0.68
  -4   1   7    2.21    0.83
  -4   1   7    2.00    0.69
  -3   1   7   11.17    1.55
  -3   1   7   10.87    1.48
  -3   1   7   11.81    1.34
   2  -1  -7   61.95    3.52
   2  -1  -7   60.01    3.25
  -2   1   7   60.99    4.14
  -2   1   7   62.40    4.81
  -2   1   7   57.59    4.62
  -2   1   7   60.14    2.94
   1  -1  -7   78.12    4.10
  -1   1   7   74.31    3.40
   0  -1  -7   48.70    2.67
   0  -1  -7   40.04    3.09
   0   1   7   48.45    2.19
  -1  -1  -7  127.43    7.86
  -1  -1  -7  119.92    6.07
   1   1   7  127.04    5.02
  -2  -1  -7   36.61    2.30
  -2  -1  -7   44.20    3.16
  -3  -1  -7   18.76    1.98
  -3  -1  -7   17.22    1.40
  -4  -1  -7   11.40    1.86
  -4  -1  -7    9.29    1.12
  -5  -1  -7    0.52    0.49
  -5  -1  -7    1.22    0.53
  -5  -1  -7    1.56    0.66
   5   1   7    1.00    0.49
   5   1   7    1.47    0.62
  -6  -1  -7    0.52    0.54
   6   1   7   -0.01    0.39
   6   1   7   -0.23    0.51
  -7  -1  -7    0.55    0.46
   7   1   7    0.59    0.43
  -8  -1  -7    2.01    0.47
   8   1   7    1.23    0.35
  -5   2   7   26.10    1.95
  -5   2   7   30.29    2.65
  -5   2   7   28.80    2.48
  -4   2   7   11.02    1.33
  -4   2   7   12.28    1.57
  -4   2   7   12.43    1.57
  -3   2   7   43.97    3.43
  -3   2   7   36.58    2.98
  -3   2   7   41.93    3.55
   2  -2  -7    9.82    1.21
  -2   2   7    9.06    1.18
  -2   2   7    8.33    0.96
  -2   2   7   10.35    1.35
   1  -2  -7   44.25    2.67
  -1   2   7   46.37    2.26
   0  -2  -7    5.90    0.81
   0   2   7    5.08    0.63
  -1  -2  -7   23.81    1.99
  -1  -2  -7   26.15    1.67
   1   2   7   26.63    1.40
  -2  -2  -7    0.60    0.33
  -2  -2  -7    0.26    0.49
   2   2   7    0.33    0.28
  -3  -2  -7    0.62    0.42
  -3  -2  -7    0.05    0.51
  -4  -2  -7    0.48    0.67
  -4  -2  -7    0.50    0.41
   4   2   7    0.43    0.49
  -5  -2  -7    3.33    0.71
  -5  -2  -7    1.50    0.54
   5   2   7    2.15    0.66
  -6  -2  -7    0.33    0.47
  -6  -2  -7    0.45    0.45
   6   2   7    0.45    0.55
   6   2   7    0.40    0.41
  -7  -2  -7    1.38    0.56
   7   2   7    2.56    0.66
   7   2   7    2.19    0.59
  -8  -2  -7    3.99    0.65
   8   2   7    3.87    0.56
  -5   3   7    1.00    0.86
  -5   3   7    0.84    0.59
  -5   3   7    0.87    0.40
  -4   3   7    6.81    1.18
  -4   3   7    4.50    0.96
  -4   3   7    5.35    0.82
  -3   3   7   33.04    2.77
  -3   3   7   30.97    2.89
  -3   3   7   30.59    2.44
   2  -3  -7   36.94    2.40
  -2   3   7   36.45    2.72
  -2   3   7   36.65    1.96
  -2   3   7   35.87    2.95
  -2   3   7   34.97    3.13
   1  -3  -7    0.93    0.46
  -1   3   7    1.38    0.40
   0  -3  -7   37.16    2.18
   0   3   7   37.10    1.87
  -1  -3  -7    0.20    0.38
  -1  -3  -7    0.16    0.31
   1   3   7    0.79    0.32
  -2  -3  -7    0.09    0.42
  -3  -3  -7    4.14    0.99
   3   3   7    3.70    0.74
  -4  -3  -7   21.57    2.20
   4   3   7   20.37    1.72
  -5  -3  -7   52.79    3.49
   5   3   7   49.95    3.06
   5   3   7   57.76    3.74
  -6  -3  -7   23.84    1.93
   6   3   7   25.86    2.12
  -7  -3  -7    0.28    0.44
   7   3   7   -0.04    0.46
   7   3   7    0.40    0.44
  -8  -3  -7   18.16    1.45
   8   3   7   15.36    1.24
  -5   4   7   14.45    1.23
  -5   4   7   14.36    1.51
  -5   4   7   15.60    2.08
  -4   4   7   29.77    2.68
  -4   4   7   29.84    2.79
  -4   4   7   32.80    2.23
  -3   4   7    3.11    0.85
  -3   4   7    4.74    0.97
  -2   4   7    4.31    0.94
  -2   4   7    3.41    0.82
  -2   4   7    4.02    0.80
  -1   4   7   33.62    1.80
   0   4   7   16.64    1.10
   1   4   7    9.45    0.85
  -2  -4  -7  133.83    8.33
  -3  -4  -7   15.40    1.68
   3   4   7   14.41    1.39
   4   4   7   52.10    3.28
  -5  -4  -7   43.90    3.21
   5   4   7   54.54    3.45
  -6  -4  -7   77.67    4.74
   6   4   7   71.19    4.96
  -7  -4  -7   33.59    2.51
   7   4   7   31.21    2.49
  -8  -4  -7    8.80    1.04
   8   4   7   12.36    1.13
  -5   5   7    4.67    0.61
  -5   5   7    5.17    0.96
  -4   5   7   15.28    1.66
  -4   5   7   15.62    1.39
  -3   5   7    3.02    0.82
  -3   5   7    2.47    0.60
  -1   5   7   24.74    2.23
  -1   5   7   28.61    1.75
  -1   5   7   29.97    1.76
   0  -5  -7   24.44    1.91
  -1  -5  -7   71.72    4.11
  -2  -5  -7  250.38   12.29
  -2  -5  -7  245.31   14.95
  -3  -5  -7  146.93    7.63
   4   5   7   30.74    2.35
   4   5   7   28.99    2.28
  -5  -5  -7    2.50    0.66
   5   5   7    2.51    0.61
  -6  -5  -7   22.42    1.83
   6   5   7   23.25    1.95
  -7  -5  -7    2.06    0.56
   7   5   7    3.10    0.68
  -8  -5  -7    0.02    0.32
   8   5   7    0.29    0.35
  -4   6   7   11.52    1.62
  -4   6   7   10.48    1.05
  -3   6   7   20.99    1.72
  -3   6   7   22.84    2.13
  -2   6   7   61.62    3.34
  -2   6   7   58.85    3.81
  -1   6   7   26.02    1.73
  -1   6   7   28.84    1.79
   0  -6  -7   57.59    3.58
   0   6   7   53.93    3.11
   0   6   7   59.27    3.16
  -1  -6  -7   12.78    1.45
  -2  -6  -7   41.23    2.79
  -3  -6  -7    1.58    0.79
  -3  -6  -7    2.31    0.70
   3   6   7    0.96    0.56
  -4  -6  -7    4.28    0.74
   4   6   7    3.38    0.69
  -5  -6  -7   19.07    1.67
   5   6   7   20.14    1.72
  -6  -6  -7    1.22    0.54
   6   6   7    0.85    0.52
  -7  -6  -7    3.02    0.60
   7   6   7    3.94    0.73
  -8  -6  -7   18.12    1.47
   8   6   7   18.45    1.43
  -4   7   7   10.10    0.99
  -3   7   7    0.92    0.46
  -2   7   7    1.49    0.53
  -2   7   7    2.06    0.52
  -1   7   7    9.00    0.88
  -1   7   7    8.21    0.91
  -1   7   7    8.24    1.02
   0   7   7    7.44    0.88
   0   7   7    6.08    0.75
   1   7   7    9.59    1.01
   1   7   7    8.06    1.13
   1   7   7    8.23    0.89
   2   7   7    4.08    0.78
   2   7   7    5.76    0.76
   2   7   7    4.10    0.59
  -3  -7  -7    3.46    0.64
   3   7   7    2.12    0.52
   3   7   7    2.17    0.69
   3   7   7    3.26    0.57
   3   7   7    2.03    0.47
  -4  -7  -7    5.90    0.83
   4   7   7    7.29    0.91
  -5  -7  -7   27.84    2.06
   5   7   7   25.42    2.11
  -6  -7  -7    0.75    0.46
   6   7   7    1.85    0.62
  -7  -7  -7   19.13    1.55
   7   7   7   22.12    1.70
  -3   8   7    4.22    0.54
  -3   8   7    3.20    0.60
  -2   8   7    1.45    0.55
  -2   8   7    0.96    0.46
  -1   8   7    3.42    0.65
  -1   8   7    3.40    0.74
  -1   8   7    3.62    0.60
   0   8   7    4.32    0.72
   0   8   7    3.03    0.72
   0   8   7    2.83    0.56
   1   8   7   19.08    1.42
   1   8   7   19.57    1.42
   2   8   7    5.27    0.72
   2   8   7    6.42    1.00
   2   8   7    3.66    0.60
  -3  -8  -7   11.35    1.19
   3   8   7   13.98    1.11
   3   8   7   16.02    1.53
  -4  -8  -7    1.04    0.47
   4   8   7    1.41    0.47
   4   8   7    0.50    0.56
  -5  -8  -7   10.38    1.12
   5   8   7    9.19    1.10
  -6  -8  -7    3.21    0.67
   6   8   7    2.06    0.57
  -7  -8  -7    7.62    0.82
   7   8   7    9.05    0.90
   7   8   7    9.10    0.97
  -2   9   7    1.75    0.53
  -2   9   7    2.26    0.47
  -1   9   7    0.72    0.54
  -1   9   7    0.56    0.37
  -1   9   7    0.45    0.41
   0   9   7    0.95    0.46
   0   9   7    0.47    0.41
   0   9   7    0.59    0.57
   1   9   7   13.41    1.16
   1   9   7   14.29    1.17
   1   9   7   14.06    1.43
   2   9   7   19.09    1.36
   2   9   7   19.87    1.42
  -3  -9  -7   26.79    1.92
   3   9   7   24.03    2.12
   3   9   7   26.12    1.70
  -4  -9  -7   22.40    1.75
   4   9   7   22.17    1.95
   4   9   7   22.69    1.73
  -5  -9  -7   17.01    1.42
   5   9   7   16.66    1.44
   5   9   7   17.25    1.62
  -6  -9  -7    9.99    1.02
   6   9   7   10.90    1.03
   6   9   7   11.65    1.16
  -1  10   7   24.36    1.74
  -1  10   7   23.97    1.46
   0  10   7   26.91    1.96
   0  10   7   29.95    1.72
   0  10   7   26.05    1.69
   1  10   7   26.84    1.66
   1  10   7   25.09    1.88
   1  10   7   23.82    1.56
   2  10   7   17.08    1.42
   2  10   7   15.56    1.20
  -3 -10  -7   48.01    3.19
   3  10   7   52.67    2.80
  -4 -10  -7   16.16    1.29
   4  10   7   15.02    1.42
  -5 -10  -7    1.70    0.43
   5  10   7    1.43    0.37
   5  10   7    1.62    0.48
   1  11   7    9.49    0.70
   1  11   7    9.60    0.87
   1  11   7    8.43    0.74
   2  11   7    4.04    0.50
  -3 -11  -7    2.29    0.41
   3  11   7    2.99    0.40
  -4 -11  -7    0.78    0.29
   1   6  -8    0.93    0.31
  -1  -6   8    1.44    0.35
  -1  -6   8    1.37    0.41
   0   6  -8    4.67    0.60
   0  -6   8    4.25    0.73
   0  -6   8    4.56    0.62
  -1   6  -8    3.77    0.65
   1  -6   8    2.81    0.54
  -2   6  -8    1.48    0.41
   2  -6   8    1.52    0.39
   2   5  -8    1.18    0.36
  -2  -5   8    1.52    0.48
  -2  -5   8    1.27    0.36
   1   5  -8    0.11    0.33
  -1  -5   8    0.16    0.36
  -1  -5   8    0.12    0.42
   0   5  -8    4.93    0.73
   0  -5   8    3.93    0.71
  -1   5  -8   17.16    1.37
   1  -5   8   17.27    1.48
  -2   5  -8   12.52    1.25
  -2   5  -8   11.01    1.12
   2  -5   8   11.37    1.13
  -3   5  -8    8.29    0.78
  -3   5  -8    8.21    0.98
   3  -5   8    7.71    0.92
  -4   5  -8    0.94    0.41
  -4   5  -8    0.91    0.27
   3   4  -8    2.87    0.50
  -3  -4   8    3.86    0.71
   2   4  -8    1.25    0.44
  -2  -4   8    1.56    0.59
  -2  -4   8    1.38    0.43
   1   4  -8    0.76    0.41
  -1  -4   8    0.32    0.41
  -1  -4   8    0.56    0.50
   0   4  -8    2.10    0.53
   0  -4   8    2.77    0.58
   1  -4   8    2.69    0.67
  -2   4  -8    5.11    0.68
   2  -4   8    6.19    0.95
  -3   4  -8   24.09    2.08
  -3   4  -8   28.04    1.79
   3  -4   8   24.88    2.06
  -4   4  -8   24.89    1.70
  -4   4  -8   26.98    2.04
   4  -4   8   24.25    1.97
  -5   4  -8    1.07    0.31
  -5   4  -8    1.08    0.38
  -5   4  -8    0.65    0.32
   5  -4   8    0.97    0.34
   4   3  -8    2.92    0.45
  -4  -3   8    2.54    0.58
  -4  -3   8    2.51    0.54
   3   3  -8   10.60    0.97
  -3  -3   8   10.73    1.28
  -3  -3   8    8.38    1.14
   2   3  -8    3.23    0.61
  -2  -3   8    4.30    0.93
  -2  -3   8    2.92    0.54
   1   3  -8    2.63    0.63
  -1  -3   8    2.22    0.54
  -1  -3   8    2.45    0.76
  -1  -3   8    1.88    0.54
   0   3  -8   65.69    4.08
   0  -3   8   59.46    3.50
   0  -3   8   65.56    4.26
  -1   3  -8   21.49    1.84
   1  -3   8   27.55    2.05
  -2   3  -8   17.77    1.63
  -2   3  -8   20.89    1.60
   2  -3   8   21.89    1.82
  -3   3  -8   13.15    1.32
  -3   3  -8   14.79    1.55
  -3   3  -8   16.73    1.38
   3  -3   8   14.98    1.52
  -4   3  -8    2.02    0.53
  -4   3  -8    2.10    0.62
   4  -3   8    1.33    0.55
  -5   3  -8    6.14    0.75
  -5   3  -8    9.07    1.07
   5  -3   8    4.53    0.76
   5  -3   8    5.11    0.73
  -6   3  -8    1.02    0.38
  -6   3  -8    0.78    0.30
   6  -3   8    0.74    0.31
  -4  -2   8   29.01    2.04
  -4  -2   8   20.55    2.02
   3   2  -8   11.14    1.05
  -3  -2   8   12.48    1.45
  -3  -2   8   11.04    1.44
   2   2  -8   21.23    1.67
  -2  -2   8   21.64    1.93
  -2  -2   8   22.24    2.14
  -2  -2   8   22.32    1.52
  -1  -2   8   36.96    3.07
  -1  -2   8   36.64    2.27
  -1  -2   8   37.39    2.63
   0   2  -8   41.59    2.78
   0  -2   8   41.07    2.89
   0  -2   8   39.21    2.41
  -1   2  -8    6.51    0.92
   1  -2   8    6.87    0.93
   1  -2   8    7.59    0.83
  -2   2  -8    2.02    0.54
  -2   2  -8    1.47    0.55
   2  -2   8    1.17    0.42
   2  -2   8    1.51    0.60
  -3   2  -8    0.04    0.40
  -3   2  -8    0.35    0.43
   3  -2   8    0.55    0.53
  -4   2  -8    3.98    0.74
  -4   2  -8    3.95    0.75
  -4   2  -8    3.03    0.79
   4  -2   8    4.24    0.83
  -5   2  -8   -0.16    0.38
  -5   2  -8    0.25    0.44
   5  -2   8    0.01    0.39
   5  -2   8   -0.42    0.34
  -6   2  -8    1.41    0.41
  -6   2  -8    1.82    0.57
   6  -2   8    1.59    0.45
  -5  -1   8    2.47    0.52
  -5  -1   8    4.40    0.71
  -4  -1   8    4.37    0.93
  -4  -1   8    2.27    0.69
  -4  -1   8    3.28    0.73
  -3  -1   8    8.95    1.33
  -3  -1   8    9.33    1.34
  -3  -1   8   10.07    1.32
  -2  -1   8   18.74    1.90
  -2  -1   8   18.24    1.35
  -2  -1   8   18.18    1.68
  -2  -1   8   15.97    1.87
   1   1  -8    1.39    0.44
  -1  -1   8    1.54    0.50
  -1  -1   8    1.40    0.43
  -1  -1   8    2.26    0.74
  -1  -1   8    1.21    0.57
  -1  -1   8    2.05    0.71
   0   1  -8    0.95    0.47
   0  -1   8    1.27    0.58
   0  -1   8    0.64    0.41
   0  -1   8    0.85    0.40
  -1   1  -8    0.48    0.43
   1  -1   8    0.15    0.40
   1  -1   8    0.29    0.39
   1  -1   8    1.63    0.65
  -2   1  -8    8.44    0.95
  -2   1  -8    7.39    1.00
   2  -1   8    8.94    1.02
   2  -1   8    6.77    0.78
  -3   1  -8    8.65    1.07
  -3   1  -8    6.09    0.87
   3  -1   8    6.59    0.99
  -4   1  -8    2.00    0.55
  -4   1  -8    2.23    0.59
   4  -1   8    1.77    0.65
  -5   1  -8    2.93    0.66
  -5   1  -8    3.72    0.69
  -5   1  -8    2.70    0.75
   5  -1   8    3.81    0.81
   5  -1   8    3.04    0.62
  -6   1  -8    0.19    0.45
  -6   1  -8   -0.01    0.40
   6  -1   8    0.42    0.39
   6  -1   8    0.34    0.43
  -7   1  -8    8.87    0.97
   7  -1   8    9.80    0.85
  -5   0   8    1.54    0.65
  -5   0   8    0.45    0.60
  -5   0   8    0.28    0.41
  -4   0   8    2.69    0.83
  -4   0   8    1.59    0.62
  -4   0   8    1.14    0.64
  -3   0   8    1.32    0.67
  -3   0   8    2.38    0.78
  -3   0   8    1.84    0.77
  -2   0   8    0.58    0.56
  -2   0   8    0.06    0.50
  -2   0   8    0.68    0.60
  -2   0   8    0.77    0.41
  -1   0   8    0.75    0.57
  -1   0   8    0.99    0.47
  -1   0   8    0.73    0.59
  -1   0   8    0.98    0.52
   0   0  -8    1.29    0.67
   0   0  -8    0.50    0.50
   0   0   8    0.73    0.48
   0   0   8    0.83    0.41
  -1   0  -8    8.20    1.11
  -1   0  -8   10.22    1.53
  -2   0  -8    2.82    1.01
  -2   0  -8    4.23    0.85
  -3   0  -8   19.68    1.59
  -3   0  -8   19.65    1.68
  -3   0  -8   22.52    1.84
   3   0   8   22.07    1.78
  -4   0  -8   44.24    3.02
  -4   0  -8   43.20    2.82
   4   0   8   45.36    3.22
  -5   0  -8   53.42    3.74
  -5   0  -8   47.57    3.38
  -5   0  -8   52.58    3.22
   5   0   8   53.76    3.67
  -6   0  -8   18.86    1.57
  -6   0  -8   21.66    1.87
   6   0   8   21.16    1.62
   6   0   8   19.76    1.80
  -7   0  -8    6.49    0.90
   7   0   8    4.64    0.67
  -5   1   8    3.50    0.76
  -5   1   8    3.05    0.68
  -5   1   8    2.13    0.70
  -4   1   8    1.17    0.65
  -4   1   8    0.94    0.54
  -4   1   8    1.31    0.70
  -3   1   8   18.18    1.72
  -3   1   8   15.83    1.89
  -3   1   8   17.75    1.92
  -2   1   8    1.38    0.65
  -2   1   8    1.69    0.50
  -2   1   8    0.97    0.57
  -2   1   8    0.98    0.60
   1  -1  -8    2.85    0.71
  -1   1   8    2.25    0.70
  -1   1   8    4.17    0.72
  -1   1   8    4.09    0.65
  -1   1   8    4.58    0.97
  -1   1   8    4.42    0.83
   0  -1  -8    9.52    1.17
   0   1   8   11.04    1.04
  -1  -1  -8   85.10    5.77
  -1  -1  -8   86.25    4.54
   1   1   8   88.04    3.73
  -2  -1  -8   31.56    2.71
  -2  -1  -8   30.18    2.04
  -3  -1  -8   31.42    2.21
  -3  -1  -8   38.15    3.21
  -4  -1  -8   54.41    3.37
  -4  -1  -8   54.54    3.62
   4   1   8   56.66    3.83
  -5  -1  -8   29.39    2.12
  -5  -1  -8   32.14    2.27
   5   1   8   28.42    2.38
  -6  -1  -8   10.08    1.07
  -6  -1  -8   10.20    1.07
  -6  -1  -8   10.69    1.29
   6   1   8   10.91    1.31
   6   1   8    8.69    1.03
  -7  -1  -8    0.98    0.47
   7   1   8    0.69    0.39
   7   1   8    0.70    0.46
  -5   2   8    0.80    0.49
  -5   2   8    1.41    0.64
  -5   2   8    1.58    0.69
  -4   2   8    3.55    0.87
  -4   2   8    3.77    0.81
  -4   2   8    4.44    0.94
  -3   2   8   14.47    1.69
  -3   2   8   14.15    1.50
  -3   2   8   15.54    1.78
  -2   2   8   27.26    2.50
  -2   2   8   28.73    2.31
  -2   2   8   30.24    2.67
  -2   2   8   26.21    1.77
   1  -2  -8   87.38    4.62
  -1   2   8   82.09    4.53
  -1   2   8   84.44    6.53
  -1   2   8   82.12    3.81
  -1   2   8   93.24    5.69
   0  -2  -8   53.00    3.05
   0   2   8   51.76    2.51
  -1  -2  -8   91.31    5.95
  -1  -2  -8   93.24    4.71
   1   2   8   90.66    3.91
  -2  -2  -8   21.65    1.51
  -2  -2  -8   19.09    1.90
   2   2   8   17.11    1.12
  -3  -2  -8    9.72    1.57
  -3  -2  -8    8.47    1.01
  -4  -2  -8    6.04    0.96
  -4  -2  -8    5.55    0.87
   4   2   8    5.37    0.86
   4   2   8    4.66    0.74
  -5  -2  -8    0.10    0.41
  -5  -2  -8    0.46    0.48
   5   2   8    0.61    0.51
  -6  -2  -8    5.34    0.83
  -6  -2  -8    6.56    1.05
   6   2   8    4.35    0.85
  -7  -2  -8   -0.27    0.34
   7   2   8    0.26    0.43
  -8  -2  -8    0.75    0.35
  -5   3   8   42.41    3.23
  -5   3   8   42.59    3.50
  -4   3   8   38.05    2.80
  -4   3   8   39.27    3.30
  -4   3   8   38.69    3.18
  -3   3   8   46.05    3.83
  -3   3   8   48.65    3.46
  -3   3   8   49.91    4.05
  -2   3   8    6.01    1.01
  -2   3   8    4.64    1.03
  -2   3   8    6.81    1.13
  -2   3   8    6.85    0.77
  -1   3   8    4.03    0.87
  -1   3   8    5.60    0.75
  -1   3   8    5.05    0.65
  -1   3   8    4.95    0.87
   0   3   8   37.51    1.99
   1   3   8   33.77    1.80
  -2  -3  -8   20.13    1.90
  -3  -3  -8    8.39    1.40
  -4  -3  -8    0.81    0.42
   4   3   8    0.16    0.41
   4   3   8    0.63    0.44
  -5  -3  -8    2.57    0.64
  -5  -3  -8    1.57    0.56
   5   3   8    1.59    0.62
   5   3   8    2.15    0.53
  -6  -3  -8    1.68    0.58
   6   3   8    2.33    0.70
  -7  -3  -8    2.09    0.58
   7   3   8    2.71    0.68
  -8  -3  -8    8.38    0.91
   8   3   8    7.65    0.87
  -5   4   8    0.11    1.00
  -5   4   8    0.83    0.47
  -4   4   8    2.38    0.74
  -4   4   8    2.16    0.76
  -3   4   8   35.21    2.68
  -3   4   8   34.28    2.98
  -3   4   8   38.09    3.20
  -2   4   8    3.11    0.83
  -2   4   8    2.82    0.76
  -1   4   8    1.19    0.37
  -1   4   8    0.76    0.58
  -1   4   8    1.81    0.65
   0   4   8    0.50    0.37
   1   4   8   17.52    1.18
  -2  -4  -8    2.33    0.70
  -3  -4  -8    3.93    0.96
  -4  -4  -8   63.43    3.63
   4   4   8   49.88    3.75
   4   4   8   52.69    3.71
   4   4   8   56.57    3.11
  -5  -4  -8   34.43    2.37
   5   4   8   30.32    2.03
   5   4   8   33.09    2.48
  -6  -4  -8   26.75    2.00
   6   4   8   23.51    2.06
  -7  -4  -8    6.02    0.82
  -7  -4  -8    8.18    1.05
   7   4   8    4.60    0.82
  -8  -4  -8   11.00    1.08
   8   4   8   12.21    1.12
  -4   5   8   14.01    1.39
  -4   5   8    9.86    1.46
  -3   5   8    1.89    0.68
  -3   5   8    2.43    0.74
  -2   5   8   19.93    1.78
  -1   5   8    1.72    0.48
  -1   5   8    1.57    0.62
  -1   5   8    1.46    0.42
   0  -5  -8   -0.61    0.54
   0   5   8    0.17    0.33
   0   5   8    0.26    0.47
   0   5   8    0.18    0.35
  -3  -5  -8   74.02    5.17
  -3  -5  -8   72.75    4.29
  -4  -5  -8   10.85    1.17
   4   5   8   13.56    1.21
   4   5   8   13.35    1.34
  -5  -5  -8   31.15    2.25
   5   5   8   29.26    2.29
   5   5   8   30.75    2.36
  -6  -5  -8   20.80    1.74
   6   5   8   21.93    1.85
   6   5   8   21.64    1.86
  -7  -5  -8   13.81    1.27
   7   5   8   13.00    1.34
  -8  -5  -8    8.87    0.90
   8   5   8    8.25    0.87
  -4   6   8    1.15    0.84
  -1   6   8   16.23    1.23
  -1   6   8   14.48    1.18
   0   6   8    9.72    0.97
   0   6   8    9.58    0.94
   0   6   8    9.68    1.19
   1   6   8   11.38    0.99
   1   6   8   10.05    0.99
   1   6   8   12.16    1.27
   2   6   8   60.84    3.30
   2   6   8   59.51    4.15
   2   6   8   60.53    3.35
   3   6   8    3.91    0.67
   3   6   8    5.85    0.98
   3   6   8    5.85    0.69
  -4  -6  -8   18.20    1.51
   4   6   8   19.07    1.70
   4   6   8   16.96    1.48
   4   6   8   17.05    1.29
  -5  -6  -8    9.31    1.13
   5   6   8    9.86    1.11
   5   6   8   11.35    1.28
  -6  -6  -8    1.66    0.57
   6   6   8    1.37    0.54
   6   6   8    1.27    0.59
  -7  -6  -8    0.16    0.37
   7   6   8    0.60    0.42
   7   6   8    0.38    0.44
   8   6   8    3.52    0.56
  -3   7   8    5.09    0.68
  -2   7   8   20.63    1.44
  -1   7   8    4.92    0.72
  -1   7   8    4.47    0.67
   0   7   8   11.97    1.03
   0   7   8   10.42    1.04
   1   7   8   12.21    1.05
   1   7   8   11.71    1.11
   1   7   8   12.19    1.36
   2   7   8    6.09    0.77
   2   7   8    5.38    0.74
   2   7   8    7.53    1.10
   3   7   8    0.55    0.38
   3   7   8    0.47    0.34
   3   7   8    0.53    0.54
  -4  -7  -8   42.67    2.75
   4   7   8   33.22    2.92
   4   7   8   43.10    2.80
  -5  -7  -8    2.53    0.66
   5   7   8    2.70    0.63
   5   7   8    3.71    0.86
  -6  -7  -8    1.04    0.50
   6   7   8    2.10    0.56
   6   7   8    1.60    0.58
  -7  -7  -8    3.85    0.63
   7   7   8    4.19    0.71
   7   7   8    4.70    0.72
  -2   8   8    6.77    0.89
  -2   8   8    8.28    0.84
  -1   8   8   13.02    1.12
  -1   8   8   12.72    1.05
   0   8   8    0.62    0.42
   0   8   8    0.75    0.42
   1   8   8   15.36    1.31
   1   8   8   18.33    1.31
   2   8   8    0.40    0.52
   2   8   8    0.21    0.37
   2   8   8    0.54    0.37
   3   8   8    2.74    0.53
   3   8   8    3.77    0.62
   3   8   8    2.73    0.78
  -4  -8  -8    0.34    0.39
   4   8   8    0.48    0.57
   4   8   8    0.73    0.37
  -5  -8  -8    1.02    0.50
   5   8   8    1.10    0.44
   5   8   8    0.53    0.57
  -6  -8  -8    0.74    0.42
   6   8   8    0.36    0.38
   6   8   8    0.52    0.49
  -7  -8  -8   11.03    0.94
   7   8   8   10.81    1.04
   7   8   8   10.33    0.99
  -2   9   8    0.02    0.26
  -2   9   8    0.41    0.41
  -1   9   8    1.35    0.43
  -1   9   8    1.45    0.55
  -1   9   8    0.60    0.33
   0   9   8    3.17    0.59
   0   9   8    3.05    0.56
   1   9   8    1.05    0.43
   1   9   8    2.33    0.51
   2   9   8    0.79    0.42
   2   9   8    0.57    0.41
   3   9   8   10.45    1.30
  -4  -9  -8   14.76    1.29
   4   9   8   16.21    1.57
  -5  -9  -8   21.98    1.67
   5   9   8   22.08    1.81
   5   9   8   19.82    1.57
  -6  -9  -8   60.61    3.54
   6   9   8   54.11    3.72
   6   9   8   53.59    3.59
  -1  10   8   17.13    1.12
   0  10   8   15.22    1.11
   0  10   8   18.34    1.19
   1  10   8   19.96    1.32
   1  10   8   19.00    1.34
   2  10   8   20.30    1.36
   2  10   8   21.94    1.42
   3  10   8   37.07    2.13
  -4 -10  -8   23.44    1.65
   4  10   8   21.89    1.81
  -5 -10  -8   23.74    1.66
   5  10   8   22.79    1.77
   1  11   8   27.35    1.59
   2  11   8   10.73    0.81
   3  11   8    8.28    0.66
   1   5  -9    0.14    0.24
  -1  -5   9    0.52    0.33
  -1  -5   9    0.23    0.23
   0   5  -9    1.10    0.35
   0  -5   9    1.67    0.51
   0  -5   9    1.26    0.37
  -1   5  -9    0.35    0.29
   1  -5   9    0.69    0.35
   2  -5   9    1.18    0.37
   2   4  -9    1.40    0.36
  -2  -4   9    0.81    0.41
   1   4  -9   -0.08    0.29
  -1  -4   9    0.16    0.31
  -1  -4   9   -0.06    0.44
   0   4  -9    0.48    0.39
   0  -4   9    0.40    0.48
   0  -4   9   -0.27    0.32
  -1   4  -9    4.95    0.72
   1  -4   9    6.89    0.86
  -2   4  -9    0.62    0.40
   2  -4   9    0.28    0.36
  -3   4  -9    5.13    0.74
  -3   4  -9    6.21    0.69
  -3   4  -9    5.98    0.84
   3  -4   9    7.71    0.85
  -4   4  -9    4.62    0.57
  -4   4  -9    6.36    0.80
   4  -4   9    5.73    0.72
   3   3  -9   -0.03    0.22
  -3  -3   9    0.22    0.37
   2   3  -9    0.34    0.30
  -2  -3   9    0.13    0.47
   1   3  -9    0.58    0.35
  -1  -3   9    0.40    0.54
  -1  -3   9    1.22    0.42
   0   3  -9    9.82    1.06
   0  -3   9   11.93    1.14
  -1   3  -9   20.41    1.61
   1  -3   9   20.46    1.71
  -2   3  -9   32.34    2.21
  -2   3  -9   39.62    2.45
   2  -3   9   31.00    2.51
  -3   3  -9   22.24    1.66
  -3   3  -9   25.22    1.78
   3  -3   9   21.96    1.89
  -4   3  -9   14.43    1.16
  -4   3  -9   13.52    1.33
   4  -3   9   12.28    1.26
  -5   3  -9    4.89    0.71
  -5   3  -9    6.28    0.68
   5  -3   9    5.79    0.77
  -3  -2   9   12.49    1.37
  -3  -2   9   11.80    1.34
   2   2  -9   10.19    1.02
  -2  -2   9   11.17    1.41
  -2  -2   9   12.51    1.02
   1   2  -9    8.58    1.00
  -1  -2   9    9.53    0.96
  -1  -2   9   10.64    1.00
  -1  -2   9    9.29    1.32
   0   2  -9   38.64    2.46
   0  -2   9   32.16    2.14
   0  -2   9   33.36    2.47
  -1   2  -9   53.83    3.57
   1  -2   9   55.42    3.10
   1  -2   9   54.57    3.72
  -2   2  -9   16.15    1.37
  -2   2  -9   16.54    1.44
   2  -2   9   15.03    1.48
   2  -2   9   14.37    1.14
  -3   2  -9   15.92    1.43
  -3   2  -9   15.92    1.40
   3  -2   9   15.62    1.55
  -4   2  -9    5.73    0.82
  -4   2  -9    7.98    0.97
  -4   2  -9    4.40    0.77
   4  -2   9    4.83    0.85
  -5   2  -9    6.73    0.83
  -5   2  -9    8.56    1.08
   5  -2   9    7.59    0.93
  -6   2  -9    0.41    0.29
  -6   2  -9    0.22    0.30
   6  -2   9    0.65    0.33
  -4  -1   9   34.39    2.29
  -4  -1   9   26.32    2.35
  -3  -1   9   27.06    2.30
  -3  -1   9   25.44    2.30
  -3  -1   9   25.48    2.13
  -2  -1   9   15.77    1.55
  -2  -1   9   15.44    1.21
  -2  -1   9   13.72    1.69
  -2  -1   9   14.92    1.70
  -1  -1   9    9.73    1.03
  -1  -1   9    9.78    1.41
  -1  -1   9   11.16    1.41
   0   1  -9   20.74    1.58
   0  -1   9   18.91    1.99
   0  -1   9   16.86    1.50
   0  -1   9   19.68    1.46
   0  -1   9   19.50    1.92
  -1   1  -9   11.93    1.21
   1  -1   9   13.24    1.54
   1  -1   9   11.16    1.20
   1  -1   9   11.75    1.08
  -2   1  -9    1.66    0.57
  -2   1  -9    1.43    0.52
   2  -1   9    1.62    0.56
   2  -1   9    1.81    0.73
   2  -1   9    1.47    0.48
  -3   1  -9    0.63    0.52
  -3   1  -9    1.10    0.50
   3  -1   9    0.72    0.51
  -4   1  -9    1.79    0.54
  -4   1  -9    2.72    0.66
   4  -1   9    2.00    0.64
  -5   1  -9   -0.32    0.33
  -5   1  -9   -0.04    0.39
  -5   1  -9   -0.11    0.42
   5  -1   9   -0.09    0.40
  -6   1  -9    0.33    0.43
  -6   1  -9    0.44    0.38
   6  -1   9    0.47    0.41
  -4   0   9    1.83    0.72
  -4   0   9    0.42    0.47
  -4   0   9   -0.25    0.36
  -3   0   9    3.00    0.78
  -3   0   9    4.80    1.00
  -3   0   9    4.38    0.90
  -2   0   9    7.47    1.22
  -2   0   9    6.08    0.79
  -2   0   9    8.10    1.30
  -2   0   9    4.37    0.87
  -1   0   9    0.17    0.51
  -1   0   9    0.13    0.38
  -1   0   9    0.15    0.53
  -1   0   9   -0.06    0.49
   0   0   9    4.53    0.69
   0   0   9    3.89    0.89
   0   0   9    4.02    0.88
  -1   0  -9    0.22    0.37
   1   0   9    0.94    0.44
   1   0   9    0.75    0.44
   1   0   9    0.57    0.58
  -2   0  -9    0.07    0.44
  -2   0  -9    0.01    0.37
   2   0   9   -0.41    0.32
   2   0   9    0.59    0.58
   2   0   9    0.01    0.38
  -3   0  -9    0.08    0.44
  -3   0  -9    0.17    0.44
   3   0   9    0.44    0.45
  -4   0  -9    0.31    0.45
  -4   0  -9    0.33    0.45
   4   0   9    0.00    0.48
  -5   0  -9    9.72    1.05
  -5   0  -9    8.91    1.02
   5   0   9    7.48    1.08
  -6   0  -9   13.71    1.38
  -6   0  -9   13.00    1.20
   6   0   9   12.83    1.33
  -7   0  -9    3.51    0.61
   7   0   9    5.20    0.69
  -4   1   9    0.74    0.49
  -4   1   9    0.73    0.53
  -4   1   9    0.95    0.67
  -3   1   9    0.18    0.52
  -3   1   9    0.28    0.51
  -3   1   9    0.25    0.57
  -2   1   9    0.05    0.52
  -2   1   9    0.10    0.36
  -2   1   9    0.71    0.60
  -2   1   9   -0.28    0.52
  -1   1   9    1.30    0.50
  -1   1   9    0.80    0.57
  -1   1   9    1.09    0.64
  -1   1   9    0.88    0.58
   0   1   9    1.54    0.69
   0   1   9    1.98    0.50
   0   1   9    1.83    0.61
   1   1   9   19.90    1.41
   1   1   9   17.47    1.49
   1   1   9   18.73    1.97
  -2  -1  -9   10.56    1.10
  -2  -1  -9   10.16    1.06
   2   1   9    9.59    1.06
   2   1   9   10.99    1.44
   2   1   9    9.11    0.92
   2   1   9    9.40    0.93
  -3  -1  -9   18.47    1.61
  -3  -1  -9   20.69    1.58
   3   1   9   17.95    1.62
   3   1   9   19.02    1.36
  -4  -1  -9   44.01    3.20
  -4  -1  -9   58.71    3.57
   4   1   9   55.36    3.67
  -5  -1  -9   40.60    2.83
  -5  -1  -9   39.79    2.66
   5   1   9   42.06    3.01
  -6  -1  -9   28.41    1.96
  -6  -1  -9   31.70    2.09
  -6  -1  -9   28.93    2.27
   6   1   9   23.64    2.16
  -7  -1  -9   10.04    1.09
   7   1   9    9.89    1.07
  -4   2   9    0.56    0.59
  -4   2   9    0.48    0.47
  -4   2   9    0.10    0.48
  -3   2   9    8.10    1.12
  -3   2   9    7.91    1.27
  -3   2   9    5.91    1.10
  -2   2   9   20.49    1.84
  -2   2   9   19.92    2.01
  -2   2   9   17.84    1.38
  -2   2   9   19.85    2.07
  -1   2   9   25.47    2.52
  -1   2   9   27.46    2.23
  -1   2   9   27.38    1.78
   0   2   9   32.75    2.92
   0   2   9   31.51    2.51
   0   2   9   34.36    2.06
  -1  -2  -9   54.85    3.20
   1   2   9   54.96    4.43
   1   2   9   57.95    3.10
   1   2   9   47.67    2.59
   1   2   9   58.04    3.16
  -2  -2  -9   85.11    4.77
   2   2   9   91.44    4.81
   2   2   9   92.33    4.81
   2   2   9   96.16    6.97
  -3  -2  -9   74.15    4.62
   3   2   9   73.60    4.77
   3   2   9   72.29    3.98
  -4  -2  -9   28.74    2.17
  -4  -2  -9   28.36    2.02
   4   2   9   29.16    2.24
   4   2   9   27.72    1.88
  -5  -2  -9   15.83    1.46
  -5  -2  -9   17.54    1.55
   5   2   9   16.40    1.61
  -6  -2  -9   14.42    1.26
  -6  -2  -9   12.81    1.29
   6   2   9   13.79    1.46
  -7  -2  -9    0.35    0.38
   7   2   9    0.36    0.40
  -4   3   9    3.10    0.73
  -4   3   9    3.66    0.72
  -4   3   9    4.71    0.85
  -3   3   9   36.26    3.15
  -3   3   9   36.73    2.71
  -3   3   9   35.46    3.01
  -2   3   9   52.84    4.59
  -2   3   9   57.69    4.41
  -2   3   9   58.55    3.20
  -2   3   9   59.38    4.02
  -1   3   9   85.12    6.22
  -1   3   9   75.19    5.32
  -1   3   9   79.43    4.29
   0   3   9    2.69    0.73
   0   3   9    3.16    0.85
   0   3   9    3.79    0.62
   1   3   9   15.24    1.18
   1   3   9   14.00    1.67
   1   3   9   14.01    1.11
   1   3   9   15.06    1.44
   1   3   9   15.07    1.15
  -2  -3  -9  142.47    8.86
   2   3   9  138.58    7.06
   2   3   9  141.17    7.21
   2   3   9  133.78   10.16
  -3  -3  -9   27.40    1.94
   3   3   9   27.56    1.74
   3   3   9   23.17    1.93
  -4  -3  -9    4.50    0.78
   4   3   9    2.70    0.62
   4   3   9    2.61    0.61
  -5  -3  -9    8.67    1.08
  -5  -3  -9    9.70    1.12
   5   3   9    9.73    1.16
   5   3   9    9.37    1.04
  -6  -3  -9    0.83    0.49
   6   3   9    0.59    0.53
  -7  -3  -9    2.07    0.59
  -7  -3  -9    1.74    0.49
   7   3   9    1.54    0.54
  -8  -3  -9    1.59    0.40
   8   3   9    1.36    0.41
  -4   4   9   18.12    1.64
  -4   4   9   16.70    1.73
  -3   4   9    3.79    0.89
  -3   4   9    4.81    0.93
  -3   4   9    4.59    0.80
  -2   4   9    7.72    1.12
  -2   4   9    7.67    1.32
  -2   4   9    7.80    0.85
  -1   4   9   24.99    2.08
  -1   4   9   23.94    1.61
  -1   4   9   22.76    2.33
   0   4   9   32.45    2.43
   0   4   9   27.84    1.85
   0   4   9   27.61    2.73
   0   4   9   32.66    1.92
   1   4   9    3.85    0.90
   1   4   9    3.71    0.58
   1   4   9    4.33    0.84
   1   4   9    4.33    0.65
   2   4   9   27.44    1.74
   2   4   9   25.80    2.13
   2   4   9   26.64    2.52
   2   4   9   27.69    1.69
  -3  -4  -9    0.55    0.35
   3   4   9    0.57    0.50
   3   4   9    0.54    0.41
   3   4   9    0.56    0.36
  -4  -4  -9    4.24    0.73
   4   4   9    3.13    0.72
   4   4   9    3.31    0.63
   4   4   9    3.01    0.59
  -5  -4  -9    0.11    0.42
   5   4   9    0.43    0.44
   5   4   9    0.46    0.46
  -6  -4  -9    4.29    0.79
   6   4   9    3.00    0.68
  -7  -4  -9    0.55    0.41
   7   4   9    0.22    0.41
  -8  -4  -9    0.95    0.36
   8   4   9    1.42    0.41
  -4   5   9    3.13    0.69
  -3   5   9    2.03    0.67
  -2   5   9   26.13    2.49
  -2   5   9   25.98    2.11
  -1   5   9   10.11    0.95
  -1   5   9    8.16    1.35
  -1   5   9    9.80    1.24
   0   5   9    7.17    0.82
   0   5   9    8.71    0.88
   0   5   9    8.21    1.13
   1   5   9   -0.08    0.46
   1   5   9    0.16    0.35
   1   5   9    0.47    0.41
   2   5   9    2.31    0.52
   2   5   9    1.92    0.53
   2   5   9    1.68    0.66
   3   5   9   21.12    1.88
   3   5   9   21.62    1.51
  -4  -5  -9    0.50    0.41
   4   5   9    0.32    0.38
   4   5   9    0.76    0.52
   4   5   9    0.49    0.39
  -5  -5  -9   23.28    1.82
   5   5   9   22.43    1.85
   5   5   9   21.46    1.58
   5   5   9   22.80    1.91
  -6  -5  -9   11.30    1.20
   6   5   9   11.67    1.25
  -7  -5  -9   29.56    2.12
   7   5   9   29.47    2.22
   8   5   9    5.85    0.70
  -1   6   9    1.54    0.48
  -1   6   9    1.48    0.60
  -1   6   9    1.70    0.49
   0   6   9    1.77    0.52
   0   6   9    1.56    0.45
   0   6   9    1.95    0.64
   1   6   9    0.20    0.34
   1   6   9    0.54    0.49
   1   6   9    0.61    0.44
   2   6   9   11.82    0.98
   2   6   9   11.62    1.07
   2   6   9    9.87    1.28
   3   6   9   60.44    3.43
   3   6   9   66.41    3.50
   3   6   9   61.76    4.35
  -4  -6  -9   36.01    2.58
   4   6   9   41.77    2.90
   4   6   9   40.28    2.66
   4   6   9   32.96    2.24
  -5  -6  -9    1.93    0.57
   5   6   9    0.93    0.56
   5   6   9    1.48    0.51
  -6  -6  -9    4.92    0.78
   6   6   9    4.85    0.81
   6   6   9    4.55    0.79
  -7  -6  -9    6.63    0.85
   7   6   9    7.79    0.92
  -1   7   9   14.31    1.15
  -1   7   9   13.71    1.11
   0   7   9   48.26    2.72
   0   7   9   48.65    2.73
   0   7   9   42.83    3.29
   1   7   9   18.71    1.36
   1   7   9   17.64    1.37
   1   7   9   17.76    1.68
   2   7   9   13.98    1.18
   2   7   9   12.28    1.10
   2   7   9   14.37    1.50
   3   7   9    8.18    0.85
   3   7   9   11.33    1.34
   3   7   9    6.11    0.78
  -4  -7  -9    2.14    0.55
   4   7   9    2.38    0.53
   4   7   9    3.09    0.83
   4   7   9    2.60    0.54
  -5  -7  -9   40.33    2.64
   5   7   9   32.70    2.60
   5   7   9   40.62    2.88
  -6  -7  -9    0.44    0.40
   6   7   9    0.04    0.39
   6   7   9    0.53    0.47
  -7  -7  -9    0.71    0.37
   7   7   9    0.75    0.40
   7   7   9    0.89    0.39
  -2   8   9   23.72    1.44
  -1   8   9   12.53    1.02
  -1   8   9   13.61    1.05
   0   8   9    8.22    0.91
   0   8   9    9.91    0.93
   1   8   9   29.20    1.86
   1   8   9   30.39    1.92
   1   8   9   27.54    2.28
   2   8   9   14.55    1.49
   2   8   9   13.74    1.19
   2   8   9   12.96    1.12
   3   8   9    2.37    0.52
   3   8   9    3.80    0.64
   3   8   9    3.19    0.81
  -4  -8  -9    0.33    0.38
   4   8   9    0.08    0.52
  -5  -8  -9    4.21    0.72
   5   8   9    4.22    0.66
   5   8   9    5.18    0.89
  -6  -8  -9    0.20    0.33
   6   8   9    0.75    0.47
   6   8   9    0.19    0.34
  -7  -8  -9    5.13    0.62
   7   8   9    3.91    0.60
   7   8   9    4.04    0.57
  -1   9   9    1.85    0.36
  -1   9   9    1.57    0.39
   0   9   9    0.62    0.37
   0   9   9    1.32    0.45
   1   9   9    0.46    0.38
   1   9   9    1.13    0.44
   2   9   9    0.51    0.36
   2   9   9    1.08    0.41
   2   9   9    1.30    0.57
   3   9   9   11.26    1.38
   3   9   9   13.67    1.03
   3   9   9   11.75    0.98
  -4  -9  -9    0.34    0.32
   4   9   9   -0.33    0.49
  -5  -9  -9    3.24    0.58
   5   9   9    3.88    0.78
  -6  -9  -9   14.77    1.19
   6   9   9   15.51    1.35
   6   9   9   15.87    1.16
   0  10   9    0.37    0.27
   0  10   9    0.38    0.28
   1  10   9    2.35    0.45
   1  10   9    3.22    0.50
   2  10   9    5.27    0.60
   2  10   9    5.44    0.60
   3  10   9    9.36    0.79
  -4 -10  -9    9.04    0.85
   4  10   9   10.32    1.06
  -5 -10  -9   14.50    1.13
   5  10   9   15.40    1.29
   0   4 -10    0.40    0.30
   0  -4  10    0.25    0.37
   0  -4  10    0.38    0.24
  -1   4 -10    0.48    0.30
   1  -4  10    0.60    0.39
   1  -4  10    0.23    0.30
  -2   4 -10    1.79    0.39
   2  -4  10    1.05    0.38
   2   3 -10    1.22    0.33
  -2  -3  10    1.01    0.47
   1   3 -10    0.38    0.31
  -1  -3  10    0.02    0.41
   0   3 -10   -0.10    0.28
   0  -3  10    0.12    0.32
   0  -3  10    0.07    0.43
  -1   3 -10    0.29    0.34
   1  -3  10    0.18    0.34
   1  -3  10    0.39    0.43
   2  -3  10    1.51    0.47
  -3   3 -10   12.65    0.94
   3  -3  10    8.75    1.01
  -4   3 -10    9.86    0.83
   4  -3  10    9.45    0.94
   2   2 -10    4.71    0.60
  -2  -2  10    4.64    0.85
   1   2 -10    1.94    0.45
  -1  -2  10    2.92    0.73
   0  -2  10    8.73    1.18
   0  -2  10    8.44    0.89
   0  -2  10    7.61    0.88
  -1   2 -10   19.96    1.77
   1  -2  10   26.26    1.90
   1  -2  10   28.50    1.64
  -2   2 -10   16.97    1.57
   2  -2  10   23.97    1.73
  -3   2 -10   31.31    2.21
  -3   2 -10   29.69    2.03
   3  -2  10   31.61    2.32
  -4   2 -10   23.80    1.66
  -4   2 -10   21.41    1.69
   4  -2  10   25.60    1.88
  -5   2 -10   13.77    1.05
  -5   2 -10   11.69    1.16
   5  -2  10   15.99    1.24
  -3  -1  10   12.15    1.30
  -3  -1  10   12.03    1.27
  -2  -1  10   19.58    1.80
  -2  -1  10   18.05    1.25
  -2  -1  10   14.27    1.54
  -2  -1  10   18.81    1.79
   1   1 -10   19.07    1.53
  -1  -1  10   22.05    1.48
  -1  -1  10   20.28    1.99
  -1  -1  10   20.82    2.00
   0   1 -10   26.21    1.94
   0  -1  10   25.23    2.35
   0  -1  10   28.42    1.82
   0  -1  10   27.45    2.51
  -1   1 -10   16.33    1.47
   1  -1  10   16.59    1.45
   1  -1  10   20.33    1.94
   1  -1  10   17.37    1.34
   1  -1  10   16.81    1.75
  -2   1 -10    4.81    0.73
  -2   1 -10    3.24    0.68
   2  -1  10    3.89    0.61
   2  -1  10    3.49    0.84
   2  -1  10    3.65    0.70
  -3   1 -10   14.25    1.28
  -3   1 -10   13.54    1.34
   3  -1  10   15.24    1.70
   3  -1  10   14.30    1.39
  -4   1 -10    3.52    0.62
  -4   1 -10    5.66    0.82
   4  -1  10    5.49    1.00
   4  -1  10    5.07    0.84
  -5   1 -10    0.09    0.36
  -5   1 -10    0.51    0.37
   5  -1  10    0.53    0.42
  -6   1 -10    0.34    0.29
  -6   1 -10    0.50    0.33
   6  -1  10    0.51    0.37
   6  -1  10    0.10    0.28
  -3   0  10   19.26    1.72
  -3   0  10   18.93    1.79
  -3   0  10   19.23    1.80
  -2   0  10    2.11    0.65
  -2   0  10    3.85    0.84
  -2   0  10    4.09    0.59
  -2   0  10    4.72    0.88
  -1   0  10   13.10    1.15
  -1   0  10   13.55    1.61
  -1   0  10   12.53    1.53
  -1   0  10   12.41    1.36
   0   0 -10    7.35    0.85
   0   0  10    5.21    1.02
   0   0  10    6.31    0.81
   0   0  10    4.91    0.95
  -1   0 -10   12.97    1.22
   1   0  10   11.53    1.10
   1   0  10   10.83    1.10
   1   0  10   13.48    1.61
  -2   0 -10    0.92    0.50
  -2   0 -10    0.69    0.48
   2   0  10    0.49    0.40
   2   0  10    0.75    0.59
   2   0  10    0.48    0.43
  -3   0 -10    7.57    0.99
  -3   0 -10    8.29    1.07
   3   0  10    5.40    1.10
   3   0  10    7.40    1.01
  -4   0 -10   -0.05    0.38
  -4   0 -10    0.25    0.41
   4   0  10    0.12    0.44
  -5   0 -10    0.78    0.44
  -5   0 -10    1.07    0.45
   5   0  10    0.45    0.48
  -6   0 -10    0.50    0.37
  -6   0 -10   -0.09    0.34
   6   0  10    1.13    0.44
  -3   1  10    9.46    1.13
  -3   1  10    7.74    1.15
  -3   1  10    8.41    1.16
  -2   1  10    0.49    0.51
  -2   1  10    0.79    0.61
  -2   1  10    0.66    0.43
  -2   1  10    0.42    0.53
  -1   1  10    6.32    1.06
  -1   1  10    9.58    1.35
  -1   1  10    7.10    1.04
  -1   1  10    7.67    0.85
   0   1  10    2.22    0.66
   0   1  10    2.05    0.57
   0   1  10    2.54    0.79
  -1  -1 -10   17.93    1.51
   1   1  10   18.80    1.42
   1   1  10   18.75    2.01
  -2  -1 -10    2.18    0.54
  -2  -1 -10    2.96    0.64
   2   1  10    2.37    0.53
   2   1  10    3.45    0.64
   2   1  10    1.96    0.77
   2   1  10    3.50    0.63
  -3  -1 -10    2.13    0.61
  -3  -1 -10    2.02    0.58
   3   1  10    2.07    0.58
   3   1  10    1.48    0.74
  -4  -1 -10    8.57    1.07
  -4  -1 -10    4.15    0.73
   4   1  10    6.52    0.93
  -5  -1 -10   12.78    1.19
  -5  -1 -10   12.66    1.20
   5   1  10   10.35    1.28
  -6  -1 -10   26.42    1.93
  -6  -1 -10   28.03    1.88
   6   1  10   28.15    2.12
  -7  -1 -10    7.55    0.84
   7   1  10    6.86    0.79
  -4   2  10    3.99    0.69
  -3   2  10    0.59    0.49
  -3   2  10    0.05    0.49
  -3   2  10    0.51    0.48
  -2   2  10    0.64    0.59
  -2   2  10    0.70    0.42
  -2   2  10    1.19    0.65
  -2   2  10    0.31    0.55
  -1   2  10   18.71    1.37
  -1   2  10   16.55    1.71
  -1   2  10   17.93    1.94
   0   2  10   14.39    1.52
   0   2  10   14.68    1.73
   0   2  10   14.86    1.25
   1   2  10    2.84    0.57
   1   2  10    3.39    0.77
   1   2  10    3.13    0.90
  -2  -2 -10   11.47    1.17
   2   2  10   12.39    1.09
   2   2  10   12.07    1.13
   2   2  10   11.96    1.08
   2   2  10   14.62    1.68
  -3  -2 -10   13.76    1.31
  -3  -2 -10   12.37    1.28
   3   2  10   13.69    1.30
   3   2  10   13.60    1.19
   3   2  10   14.28    1.71
  -4  -2 -10  105.37    6.61
  -4  -2 -10  108.89    6.13
   4   2  10  110.18    6.90
  -5  -2 -10   80.73    5.63
  -5  -2 -10   96.66    5.29
   5   2  10   98.76    5.97
  -6  -2 -10   12.90    1.15
  -6  -2 -10   10.44    1.12
   6   2  10   12.34    1.23
  -7  -2 -10    0.70    0.38
   7   2  10    0.66    0.41
  -3   3  10    1.57    0.58
  -3   3  10    1.14    0.54
  -3   3  10    1.97    0.64
  -2   3  10   12.16    1.38
  -2   3  10   12.88    1.08
  -2   3  10   12.10    1.57
  -1   3  10   13.26    1.13
  -1   3  10   13.15    1.63
  -1   3  10   11.70    1.47
   0   3  10   30.89    2.48
   0   3  10   31.47    1.99
   0   3  10   30.76    2.85
   1   3  10  142.38    9.97
   1   3  10  121.72    6.90
   1   3  10  134.13    8.57
   1   3  10  141.81    6.91
   2   3  10   62.42    3.22
   2   3  10   47.86    4.53
   2   3  10   59.66    3.92
   2   3  10   57.98    3.22
  -3  -3 -10    0.64    0.44
   3   3  10    0.95    0.65
   3   3  10    1.01    0.42
   3   3  10    0.63    0.48
  -4  -3 -10    5.21    0.81
   4   3  10    3.72    0.70
   4   3  10    3.08    0.63
  -5  -3 -10   13.36    1.27
  -5  -3 -10   11.24    1.27
   5   3  10   12.43    1.31
  -6  -3 -10   19.30    1.50
  -6  -3 -10   18.90    1.58
   6   3  10   18.10    1.63
  -7  -3 -10    0.94    0.35
   7   3  10    0.92    0.43
  -3   4  10   30.81    2.26
  -3   4  10   31.66    2.68
  -2   4  10   53.25    4.33
  -2   4  10   54.24    3.74
  -2   4  10   52.74    2.97
  -1   4  10    2.07    0.73
  -1   4  10    2.53    0.53
  -1   4  10    2.16    0.75
   0   4  10    6.55    0.81
   0   4  10    3.98    0.87
   0   4  10    5.18    1.08
   1   4  10    0.83    0.58
   1   4  10    1.06    0.45
   1   4  10    0.98    0.43
   1   4  10    1.21    0.64
   2   4  10  102.01    5.22
   2   4  10   90.45    5.17
   2   4  10  102.26    6.44
   2   4  10  101.91    7.53
  -3  -4 -10   11.71    1.15
   3   4  10   11.10    1.27
   3   4  10   13.10    1.64
   3   4  10   12.27    1.12
  -4  -4 -10   36.75    2.60
   4   4  10   38.05    2.68
   4   4  10   37.26    2.32
   4   4  10   37.05    2.75
  -5  -4 -10   11.55    1.22
  -5  -4 -10   13.25    1.27
   5   4  10   11.49    1.13
   5   4  10   11.14    1.22
  -6  -4 -10    2.16    0.58
  -6  -4 -10    1.69    0.56
   6   4  10    1.95    0.58
  -7  -4 -10    0.93    0.39
   7   4  10    0.66    0.42
  -3   5  10    0.43    0.44
  -2   5  10    7.62    1.01
  -2   5  10    7.74    1.22
  -1   5  10    5.99    0.98
  -1   5  10    7.55    1.22
  -1   5  10    6.86    0.80
   0   5  10    4.58    0.99
   0   5  10    4.14    0.65
   0   5  10    4.54    0.90
   0   5  10    4.32    0.66
   1   5  10   17.41    1.31
   1   5  10   18.49    1.36
   1   5  10   18.33    1.71
   2   5  10    6.00    0.78
   2   5  10    7.96    0.85
   2   5  10    5.70    0.98
   3   5  10   15.31    1.22
   3   5  10   18.78    1.37
   3   5  10   16.79    1.61
  -4  -5 -10    0.07    0.34
   4   5  10    0.01    0.39
   4   5  10    0.61    0.53
   4   5  10    0.13    0.35
  -5  -5 -10    0.43    0.44
   5   5  10    0.32    0.50
   5   5  10    0.16    0.42
   5   5  10   -0.03    0.37
  -6  -5 -10    1.50    0.53
   6   5  10    1.33    0.50
  -7  -5 -10    3.74    0.60
   7   5  10    3.14    0.59
  -1   6  10    2.55    0.65
  -1   6  10    1.84    0.48
   0   6  10    0.59    0.54
   0   6  10    0.61    0.41
   0   6  10    0.31    0.38
   1   6  10    1.42    0.65
   1   6  10    2.30    0.57
   1   6  10    2.33    0.57
   2   6  10    3.34    0.61
   2   6  10    3.95    0.85
   2   6  10    2.81    0.59
   3   6  10   20.77    2.00
   3   6  10   25.04    1.65
   3   6  10   23.85    1.55
  -4  -6 -10    1.99    0.52
   4   6  10    1.83    0.66
   4   6  10    1.84    0.55
  -5  -6 -10    8.65    0.97
   5   6  10    7.71    0.92
   5   6  10    6.02    0.99
   5   6  10    8.82    0.94
  -6  -6 -10   31.59    2.34
   6   6  10   33.07    2.41
   6   6  10   36.28    2.51
  -7  -6 -10   28.05    1.99
   7   6  10   29.89    2.07
  -1   7  10   17.38    1.17
  -1   7  10   13.34    1.11
   0   7  10   12.36    1.06
   0   7  10   11.30    1.30
   0   7  10   11.15    1.02
   1   7  10    6.97    0.88
   1   7  10    7.54    1.09
   1   7  10    7.56    0.89
   2   7  10   39.54    3.05
   2   7  10   43.17    2.49
   2   7  10   40.49    2.43
   3   7  10   48.79    3.82
   3   7  10   57.07    3.05
   3   7  10   57.68    3.12
  -4  -7 -10   37.29    2.52
   4   7  10   36.91    2.25
   4   7  10   37.13    2.85
  -5  -7 -10   30.67    2.12
   5   7  10   30.47    2.11
   5   7  10   26.62    2.29
  -6  -7 -10   16.79    1.28
   6   7  10   12.64    1.35
   6   7  10   14.19    1.24
  -7  -7 -10   14.85    1.18
   7   7  10   15.35    1.20
   7   7  10   14.65    1.30
  -1   8  10   34.49    2.00
  -1   8  10   36.04    2.03
   0   8  10   44.33    2.56
   0   8  10   45.45    2.56
   1   8  10   34.55    2.13
   1   8  10   33.14    2.09
   1   8  10   35.60    2.61
   2   8  10    7.63    1.07
   2   8  10    7.47    0.88
   2   8  10    5.51    0.70
   3   8  10   33.52    2.16
   3   8  10   36.72    2.17
   3   8  10   39.25    2.81
  -4  -8 -10   19.57    1.52
   4   8  10   19.72    1.37
   4   8  10   21.89    1.89
  -5  -8 -10    2.76    0.56
   5   8  10    3.20    0.73
  -6  -8 -10    1.09    0.38
   6   8  10    0.72    0.34
   6   8  10    0.80    0.47
  -1   9  10   28.71    1.63
   0   9  10   13.99    1.03
   0   9  10   12.66    0.98
   1   9  10    0.97    0.39
   1   9  10    1.19    0.41
   2   9  10    0.19    0.33
   2   9  10    0.10    0.33
   2   9  10    0.53    0.48
   3   9  10    8.32    1.06
   3   9  10    7.68    0.75
   3   9  10    7.20    0.75
  -4  -9 -10    0.48    0.28
   4   9  10    0.31    0.49
  -5  -9 -10    0.37    0.28
   5   9  10    0.33    0.44
  -6  -9 -10    0.99    0.29
   6   9  10    1.26    0.42
   1  10  10    0.28    0.24
   1  10  10    0.05    0.25
   2  10  10    0.33    0.27
   2  10  10    0.13    0.26
   3  10  10    0.51    0.24
   3  10  10    0.24    0.24
   3  10  10    0.20    0.37
   4  10  10    0.30    0.39
  -1   3 -11    0.06    0.25
   1  -3  11   -0.13    0.22
   1  -3  11   -0.03    0.31
  -2   3 -11    0.92    0.32
   2  -3  11    1.10    0.33
   1   2 -11    0.36    0.24
  -1  -2  11    0.27    0.38
   0   2 -11    2.46    0.46
   0  -2  11    1.53    0.52
   1  -2  11    9.58    1.08
   1  -2  11    9.39    0.87
  -2   2 -11    2.17    0.48
   2  -2  11    1.55    0.42
  -3   2 -11    5.03    0.58
  -3   2 -11    4.62    0.62
   3  -2  11    4.54    0.65
  -4   2 -11   13.28    0.95
  -4   2 -11   12.71    1.00
   4  -2  11   12.37    1.07
  -2  -1  11    2.45    0.56
  -1  -1  11    4.05    0.54
  -1  -1  11    3.48    0.72
   0   1 -11    8.17    0.86
   0  -1  11    9.27    1.15
   0  -1  11    9.14    1.24
   0  -1  11    9.93    0.90
  -1   1 -11   25.83    2.06
   1  -1  11   31.63    2.10
   1  -1  11   34.26    1.90
  -2   1 -11   38.25    2.49
   2  -1  11   35.73    2.52
   2  -1  11   36.80    3.02
   2  -1  11   34.16    2.08
  -3   1 -11   17.96    1.36
  -3   1 -11   17.30    1.46
   3  -1  11   17.41    1.77
   3  -1  11   19.73    1.53
  -4   1 -11    8.69    0.87
  -4   1 -11    7.81    0.86
   4  -1  11    7.71    0.91
   4  -1  11    7.25    1.02
  -5   1 -11   12.84    1.00
  -5   1 -11   12.70    0.97
   5  -1  11   13.51    1.29
   5  -1  11   12.02    1.07
  -2   0  11   49.12    3.08
  -2   0  11   41.57    3.30
  -2   0  11   44.73    3.46
  -2   0  11   41.16    2.39
  -1   0  11   49.30    2.68
  -1   0  11   45.19    3.22
  -1   0  11   45.36    3.62
  -1   0  11   49.22    3.79
   0   0  11    4.39    0.66
   0   0  11    3.27    0.80
  -1   0 -11    6.73    0.84
   1   0  11    7.19    1.15
   1   0  11    5.21    0.72
  -2   0 -11    6.62    0.90
   2   0  11    6.37    0.81
   2   0  11    5.86    0.72
   2   0  11    5.56    1.02
  -3   0 -11   18.28    1.38
  -3   0 -11   15.19    1.41
   3   0  11   17.24    1.83
   3   0  11   16.48    1.46
  -4   0 -11    9.44    1.04
  -4   0 -11   10.12    1.00
   4   0  11    8.92    1.28
   4   0  11   10.04    1.09
  -5   0 -11    1.37    0.45
  -5   0 -11    0.77    0.41
   5   0  11    0.84    0.41
   5   0  11    1.21    0.59
  -6   0 -11    0.63    0.32
   6   0  11    0.41    0.28
   6   0  11    0.94    0.41
  -3   1  11   14.45    1.35
  -3   1  11   15.47    1.41
  -2   1  11    3.84    0.77
  -2   1  11    3.62    0.77
  -2   1  11    3.82    0.54
  -2   1  11    4.39    0.77
  -1   1  11    3.11    0.67
  -1   1  11    3.72    0.82
  -1   1  11    3.41    0.58
   0   1  11   12.18    1.31
   0   1  11   10.34    1.45
   0   1  11   13.12    1.13
  -1  -1 -11    7.23    0.91
   1   1  11    4.73    0.71
   1   1  11    5.41    1.07
  -2  -1 -11    1.52    0.49
  -2  -1 -11    0.47    0.44
   2   1  11    0.70    0.62
   2   1  11    1.01    0.41
   2   1  11    0.88    0.44
  -3  -1 -11    2.55    0.62
  -3  -1 -11    2.64    0.62
   3   1  11    2.41    0.75
   3   1  11    3.75    0.66
  -4  -1 -11    4.25    0.71
  -4  -1 -11    2.48    0.56
   4   1  11    4.80    0.75
   4   1  11    3.64    0.90
  -5  -1 -11    0.84    0.42
  -5  -1 -11    0.77    0.43
   5   1  11    0.86    0.46
  -6  -1 -11   10.60    0.92
  -6  -1 -11    8.65    0.87
   6   1  11    9.87    0.98
  -3   2  11    1.72    0.47
  -3   2  11    2.16    0.57
  -2   2  11    1.36    0.56
  -2   2  11    1.33    0.59
  -2   2  11    0.94    0.53
  -2   2  11    1.57    0.40
  -1   2  11    1.81    0.49
  -1   2  11    1.59    0.66
  -1   2  11    1.34    0.57
   0   2  11   12.52    1.38
   0   2  11   12.50    1.12
   0   2  11   11.74    1.56
   1   2  11    2.01    0.67
   1   2  11    1.40    0.50
   1   2  11    1.37    0.65
  -2  -2 -11   19.81    1.54
  -2  -2 -11   17.82    1.54
   2   2  11   18.90    1.40
   2   2  11   17.56    1.39
   2   2  11   19.79    2.07
  -3  -2 -11    4.92    0.81
  -3  -2 -11    1.92    0.53
   3   2  11    3.05    0.82
   3   2  11    3.56    0.66
   3   2  11    3.07    0.60
  -4  -2 -11    4.82    0.76
  -4  -2 -11    4.62    0.75
   4   2  11    6.79    0.89
   4   2  11    3.82    0.87
  -5  -2 -11    1.01    0.47
  -5  -2 -11    0.52    0.44
   5   2  11    0.26    0.41
  -6  -2 -11   14.57    1.21
  -6  -2 -11   15.60    1.17
   6   2  11   13.94    1.29
  -3   3  11    2.13    0.57
  -3   3  11    2.98    0.60
  -2   3  11    0.46    0.34
  -2   3  11    0.19    0.48
  -2   3  11    0.41    0.47
  -1   3  11    1.70    0.64
  -1   3  11    2.14    0.51
  -1   3  11    1.28    0.62
   0   3  11   22.83    2.23
   0   3  11   21.99    1.96
   0   3  11   21.17    1.56
   1   3  11    0.10    0.53
   1   3  11    0.04    0.41
   1   3  11   -0.17    0.51
   2   3  11    1.31    0.51
   2   3  11    1.50    0.63
   2   3  11    0.47    0.60
   2   3  11    1.69    0.51
  -3  -3 -11   32.43    2.32
  -3  -3 -11   32.99    2.29
   3   3  11   32.02    2.09
   3   3  11   33.97    3.04
  -4  -3 -11   65.45    3.88
  -4  -3 -11   63.63    4.10
   4   3  11   66.31    3.60
   4   3  11   63.10    5.13
   4   3  11   62.97    4.23
  -5  -3 -11   16.75    1.43
  -5  -3 -11   17.86    1.44
   5   3  11   14.31    1.41
  -6  -3 -11    0.48    0.38
  -6  -3 -11    1.31    0.45
   6   3  11    0.84    0.45
  -7  -3 -11    1.12    0.32
   7   3  11    1.25    0.37
  -3   4  11    2.04    0.48
  -2   4  11    4.17    0.83
  -2   4  11    5.16    0.78
  -1   4  11   13.70    1.64
  -1   4  11   13.17    1.13
  -1   4  11   11.88    1.38
   0   4  11   20.35    2.14
   0   4  11   20.42    1.47
   0   4  11   19.82    1.88
   1   4  11   13.40    1.50
   1   4  11   13.76    1.72
   1   4  11   13.81    1.16
   1   4  11   15.00    1.21
   2   4  11   23.14    2.01
   2   4  11   21.76    2.32
   2   4  11   26.31    1.65
   2   4  11   23.24    1.64
  -3  -4 -11    1.63    0.52
   3   4  11    1.60    0.62
   3   4  11    1.54    0.57
   3   4  11    1.48    0.75
  -4  -4 -11    6.56    0.92
   4   4  11    6.76    1.22
   4   4  11    8.09    0.99
   4   4  11    5.79    0.80
  -5  -4 -11    7.79    1.02
  -5  -4 -11    8.59    1.02
   5   4  11    8.74    0.98
  -6  -4 -11    0.97    0.43
  -6  -4 -11    0.75    0.45
   6   4  11    0.88    0.44
  -7  -4 -11    3.55    0.53
   7   4  11    3.04    0.64
   7   4  11    2.95    0.51
  -2   5  11   23.30    2.17
  -2   5  11   25.75    1.89
  -1   5  11    5.78    0.92
  -1   5  11    5.26    1.03
  -1   5  11    5.41    0.71
   0   5  11    5.39    0.95
   0   5  11    5.58    0.75
   0   5  11    5.40    1.04
   1   5  11    7.24    0.84
   1   5  11    7.68    1.19
   1   5  11    7.83    1.29
   1   5  11    6.73    0.82
   2   5  11    0.38    0.54
   2   5  11   -0.11    0.36
   2   5  11    0.20    0.38
   2   5  11    0.45    0.61
   3   5  11    0.77    0.57
   3   5  11    0.69    0.42
   3   5  11    0.78    0.48
   3   5  11    0.50    0.64
  -4  -5 -11    1.68    0.52
   4   5  11    1.98    0.76
   4   5  11    2.31    0.65
   4   5  11    1.77    0.59
  -5  -5 -11    0.31    0.37
  -5  -5 -11    0.38    0.46
   5   5  11   -0.11    0.34
   5   5  11    0.28    0.36
  -6  -5 -11    0.26    0.38
  -6  -5 -11    0.17    0.38
   6   5  11    0.73    0.39
  -7  -5 -11    1.92    0.42
   7   5  11    1.11    0.36
  -1   6  11    0.03    0.31
  -1   6  11    0.11    0.43
   0   6  11    1.16    0.43
   0   6  11    0.43    0.40
   0   6  11    0.68    0.54
   1   6  11    0.18    0.54
   1   6  11    0.25    0.38
   1   6  11    0.38    0.40
   2   6  11    4.39    0.70
   2   6  11    3.20    0.59
   2   6  11    4.33    0.88
   3   6  11    1.32    0.62
   3   6  11    1.11    0.43
   3   6  11    0.85    0.49
  -4  -6 -11    0.33    0.35
   4   6  11    0.78    0.47
   4   6  11    0.46    0.53
  -5  -6 -11    4.17    0.68
   5   6  11    6.20    0.72
   5   6  11    5.82    0.84
   5   6  11    6.50    0.76
  -6  -6 -11    2.29    0.52
  -6  -6 -11    2.52    0.53
   6   6  11    2.26    0.50
  -7  -6 -11   14.01    1.13
   7   6  11   15.28    1.14
  -1   7  11    0.50    0.30
  -1   7  11    0.36    0.42
   0   7  11    0.17    0.34
   0   7  11    0.10    0.33
   0   7  11    0.29    0.47
   1   7  11    8.08    1.10
   1   7  11    6.87    0.77
   1   7  11    8.94    0.90
   2   7  11   18.68    1.39
   2   7  11   18.99    1.75
   2   7  11   18.38    1.31
   3   7  11   26.39    1.67
   3   7  11   26.62    2.18
   3   7  11   26.45    1.76
  -4  -7 -11   15.58    1.27
   4   7  11   16.01    1.23
   4   7  11   16.58    1.55
  -5  -7 -11   28.29    2.03
   5   7  11   28.04    1.77
   5   7  11   31.66    2.27
  -6  -7 -11   38.13    2.45
   6   7  11   36.39    2.45
   6   7  11   37.70    2.58
   0   8  11   16.69    1.18
   0   8  11   18.19    1.21
   1   8  11   37.29    2.06
   1   8  11   33.31    2.04
   1   8  11   32.70    2.55
   2   8  11   20.41    1.39
   2   8  11   21.25    1.45
   2   8  11   21.18    1.82
   3   8  11   25.30    1.58
   3   8  11   25.42    1.66
   3   8  11   26.55    2.11
   4   8  11    6.60    0.75
   4   8  11   10.61    1.17
  -5  -8 -11   20.39    1.53
   5   8  11   23.02    1.78
  -6  -8 -11   20.73    1.46
   6   8  11   20.58    1.55
   0   9  11   16.11    1.02
   0   9  11   14.62    1.00
   1   9  11    8.86    0.77
   1   9  11    9.13    0.79
   2   9  11    5.97    0.62
   2   9  11    4.75    0.76
   2   9  11    4.86    0.60
   3   9  11    5.66    0.84
   3   9  11    6.48    0.63
   3   9  11    6.58    0.70
   4   9  11    1.39    0.37
   4   9  11    1.76    0.54
  -5  -9 -11    0.41    0.23
   5   9  11    0.56    0.39
   0   1 -12    3.71    0.44
  -1   1 -12   24.84    1.69
  -2   1 -12    5.33    0.67
  -3   1 -12    1.28    0.35
  -3   1 -12    1.33    0.37
   3  -1  12    1.91    0.36
  -1   0  12    6.18    0.84
  -1   0  12    6.38    0.62
   0   0  12   14.09    1.09
   0   0  12   16.49    1.55
  -1   0 -12   35.99    2.32
   1   0  12   36.13    2.95
   1   0  12   34.60    2.07
  -2   0 -12   21.74    1.52
   2   0  12   19.45    1.90
   2   0  12   19.01    1.29
  -3   0 -12   13.26    1.07
  -3   0 -12   10.34    0.95
   3   0  12   11.67    1.33
   3   0  12   10.53    0.97
  -4   0 -12    9.89    0.91
  -4   0 -12    8.59    0.87
   4   0  12   11.45    1.22
   4   0  12    8.73    0.88
  -1   1  12   38.27    2.20
  -1   1  12   41.54    3.18
  -1   1  12   38.38    2.70
   0   1  12    8.43    0.85
   0   1  12    6.69    1.06
   1   1  12    2.18    0.49
   1   1  12    0.95    0.56
  -2  -1 -12    7.68    0.84
   2   1  12    7.83    0.80
   2   1  12    6.70    1.12
  -3  -1 -12    0.28    0.35
  -3  -1 -12    0.05    0.30
   3   1  12   -0.02    0.31
   3   1  12   -0.09    0.47
  -4  -1 -12    0.82    0.38
  -4  -1 -12    0.72    0.38
   4   1  12    0.91    0.57
   4   1  12    0.71    0.38
  -5  -1 -12    0.54    0.33
  -5  -1 -12    0.44    0.31
   5   1  12    0.85    0.38
   5   1  12    0.89    0.47
  -2   2  12    6.99    0.90
  -2   2  12    8.15    0.98
  -1   2  12    1.95    0.54
  -1   2  12    1.79    0.61
  -1   2  12    1.92    0.43
   0   2  12    7.65    0.82
   0   2  12    8.68    1.21
   0   2  12    8.69    1.06
   1   2  12    0.10    0.41
   1   2  12    0.58    0.40
   1   2  12    0.21    0.49
  -2  -2 -12    0.01    0.34
  -2  -2 -12    0.35    0.32
   2   2  12    0.09    0.44
   2   2  12   -0.45    0.31
  -3  -2 -12    4.78    0.71
  -3  -2 -12    4.53    0.71
   3   2  12    4.52    0.93
  -4  -2 -12    2.81    0.56
  -4  -2 -12    2.87    0.55
   4   2  12    4.06    0.60
   4   2  12    2.76    0.78
  -5  -2 -12    0.64    0.38
  -5  -2 -12    0.95    0.39
   5   2  12    0.55    0.51
   5   2  12    1.00    0.39
  -6  -2 -12    4.50    0.60
  -6  -2 -12    5.11    0.60
   6   2  12    4.71    0.77
   6   2  12    4.14    0.58
  -2   3  12    1.34    0.45
  -2   3  12    0.75    0.40
  -1   3  12    0.44    0.44
  -1   3  12    0.35    0.50
  -1   3  12    0.50    0.33
   0   3  12    1.12    0.54
   0   3  12    1.65    0.68
   0   3  12    0.81    0.44
   1   3  12    9.39    0.92
   1   3  12    5.61    1.12
   1   3  12   10.08    1.13
  -2  -3 -12    4.95    0.71
   2   3  12    3.51    0.91
   2   3  12    4.72    0.68
   2   3  12    3.24    0.70
   2   3  12    3.44    0.59
  -3  -3 -12    0.15    0.29
  -3  -3 -12    0.29    0.36
   3   3  12    0.47    0.44
   3   3  12    0.50    0.56
  -4  -3 -12    0.32    0.33
  -4  -3 -12    0.34    0.39
   4   3  12    0.44    0.56
   4   3  12    0.33    0.33
  -5  -3 -12    9.36    1.00
  -5  -3 -12   10.59    0.98
   5   3  12    9.67    0.96
   5   3  12   10.03    1.36
  -6  -3 -12   28.41    1.82
  -6  -3 -12   28.51    1.73
   6   3  12   26.99    1.89
   6   3  12   23.95    2.28
  -2   4  12    1.59    0.44
  -2   4  12    1.47    0.49
  -1   4  12    1.19    0.57
  -1   4  12    0.65    0.34
  -1   4  12    1.51    0.54
   0   4  12    5.69    1.02
   0   4  12    6.49    0.95
   0   4  12    5.79    0.74
   1   4  12   14.90    1.76
   1   4  12   16.37    1.23
   1   4  12   13.32    1.42
   2   4  12   33.17    2.85
   2   4  12   34.84    1.97
   2   4  12   23.46    1.84
   2   4  12   31.53    2.38
  -3  -4 -12   22.89    1.78
  -3  -4 -12   23.88    1.79
   3   4  12   25.19    2.01
   3   4  12   28.80    1.76
   3   4  12   24.14    2.43
  -4  -4 -12    5.64    0.75
  -4  -4 -12    4.01    0.66
   4   4  12    5.53    0.73
   4   4  12    5.01    1.01
  -5  -4 -12    0.48    0.36
  -5  -4 -12    1.40    0.47
   5   4  12    0.19    0.33
   5   4  12    0.39    0.53
  -6  -4 -12    9.73    0.92
  -6  -4 -12   11.23    0.97
   6   4  12   10.82    0.95
   6   4  12   10.86    1.25
  -1   5  12   11.23    1.19
  -1   5  12   12.97    1.38
  -1   5  12   11.87    0.93
   0   5  12   25.50    2.05
   0   5  12   24.51    2.33
   0   5  12   24.76    1.63
   1   5  12   10.97    1.48
   1   5  12   10.34    1.24
   1   5  12   10.22    0.96
   1   5  12   10.00    0.96
   2   5  12   23.37    2.22
   2   5  12   20.53    1.83
   2   5  12   21.34    1.48
   2   5  12   19.19    1.43
   3   5  12   32.82    2.06
   3   5  12   35.34    2.58
   3   5  12   35.61    2.17
   3   5  12   34.53    3.06
  -4  -5 -12    7.96    0.85
   4   5  12    7.26    1.16
   4   5  12    7.62    0.95
   4   5  12    7.66    0.85
  -5  -5 -12    7.82    0.89
  -5  -5 -12    4.89    0.69
   5   5  12    5.63    0.96
  -6  -5 -12    0.01    0.31
  -6  -5 -12    0.43    0.29
   6   5  12   -0.14    0.25
  -1   6  12   25.07    1.48
  -1   6  12   23.48    1.80
   0   6  12   16.90    1.22
   0   6  12   17.11    1.53
   1   6  12    1.13    0.62
   1   6  12    2.04    0.50
   1   6  12    1.98    0.47
   2   6  12    1.42    0.60
   2   6  12    0.07    0.40
   2   6  12    0.41    0.36
   3   6  12    2.06    0.55
   3   6  12    2.07    0.45
   3   6  12    1.66    0.59
  -4  -6 -12    0.69    0.33
   4   6  12    0.65    0.44
   4   6  12    0.96    0.45
  -5  -6 -12    0.77    0.36
  -5  -6 -12    0.44    0.41
   5   6  12    1.38    0.42
   5   6  12    0.73    0.43
  -6  -6 -12    1.73    0.42
  -6  -6 -12    2.39    0.46
   0   7  12    0.52    0.41
   0   7  12    0.36    0.30
   0   7  12   -0.03    0.27
   1   7  12    0.63    0.36
   1   7  12    0.39    0.33
   1   7  12    0.43    0.47
   2   7  12    0.02    0.36
   2   7  12   -0.15    0.47
   2   7  12    0.25    0.30
   3   7  12   14.77    1.38
   3   7  12   12.22    1.09
   3   7  12   13.24    1.01
   4   7  12    4.56    0.62
   4   7  12    5.49    0.84
  -5  -7 -12    1.23    0.37
   5   7  12    0.46    0.31
   5   7  12    1.22    0.43
  -6  -7 -12    0.89    0.31
   0   8  12    0.63    0.26
   1   8  12    0.89    0.34
   1   8  12    0.53    0.30
   1   8  12    0.99    0.47
   2   8  12    3.33    0.49
   2   8  12    3.82    0.56
   2   8  12    3.21    0.67
   3   8  12   22.49    1.53
   3   8  12   25.79    1.50
   3   8  12   24.95    1.94
   4   8  12    9.35    1.01
   4   8  12   10.41    0.82
  -5  -8 -12    7.97    0.74
   5   8  12    8.54    0.87
   5   8  12    9.74    0.72
   2   9  12    6.08    0.78
   2   9  12    5.40    0.56
   2   9  12    5.64    0.57
   3   9  12    5.43    0.77
   3   9  12    3.86    0.49
   3   9  12    5.34    0.51
   4   9  12    8.20    0.85
   0   1  13    6.08    0.58
   0   1  13    4.23    0.70
   1   1  13    8.08    0.69
   1   1  13    7.19    0.97
  -2  -1 -13    3.92    0.51
   2   1  13    3.16    0.43
   2   1  13    3.76    0.72
  -3  -1 -13    1.41    0.33
  -3  -1 -13    1.81    0.37
   3   1  13    1.80    0.54
  -4  -1 -13    6.38    0.62
  -4  -1 -13    5.18    0.59
   4   1  13    6.28    0.88
   0   2  13    9.72    0.91
   0   2  13    9.10    0.76
   0   2  13    8.70    1.10
   1   2  13    2.31    0.44
   1   2  13    3.53    0.75
   2   2  13    0.86    0.33
   2   2  13    0.72    0.48
  -3  -2 -13    4.33    0.58
  -3  -2 -13    4.77    0.60
   3   2  13    4.97    0.85
  -4  -2 -13    3.48    0.52
  -4  -2 -13    4.13    0.53
   4   2  13    4.75    0.78
   0   3  13   11.50    1.11
   0   3  13   11.90    1.30
   0   3  13   10.57    0.88
   1   3  13    2.99    0.59
   1   3  13    2.90    0.74
   1   3  13    3.16    0.50
   2   3  13    0.33    0.31
   2   3  13    0.79    0.54
  -3  -3 -13    0.38    0.29
  -3  -3 -13    0.26    0.33
   3   3  13    0.64    0.52
  -4  -3 -13    1.75    0.42
  -4  -3 -13    1.88    0.40
   4   3  13    2.08    0.64
  -5  -3 -13    1.87    0.36
  -5  -3 -13    1.65    0.39
   5   3  13    2.99    0.63
   0   4  13    0.15    0.29
   0   4  13    0.20    0.41
   0   4  13   -0.19    0.34
   1   4  13    0.14    0.46
   1   4  13    0.17    0.32
   1   4  13    0.79    0.45
  -2  -4 -13    3.94    0.64
   2   4  13    5.56    0.66
   2   4  13    4.17    0.89
   2   4  13    6.01    0.66
   2   4  13    5.65    0.79
  -3  -4 -13   12.42    1.08
   3   4  13   12.82    1.03
   3   4  13   12.35    1.49
  -4  -4 -13    7.84    0.75
  -4  -4 -13    8.69    0.88
   4   4  13    5.81    0.98
  -5  -4 -13   29.96    1.83
  -5  -4 -13   26.94    1.86
   5   4  13   28.24    2.38
   0   5  13   19.40    1.50
   0   5  13   17.55    1.19
   0   5  13   17.91    1.71
   1   5  13   21.71    1.39
   1   5  13   21.46    1.73
   1   5  13   20.33    1.97
  -2  -5 -13   46.03    2.69
   2   5  13   45.53    2.54
   2   5  13   45.73    3.12
   2   5  13   44.23    2.52
   2   5  13   44.80    3.64
  -3  -5 -13   36.74    2.25
   3   5  13   34.76    2.12
   3   5  13   35.84    2.57
   3   5  13   35.97    3.02
   3   5  13   36.42    2.07
  -4  -5 -13   10.97    1.02
  -4  -5 -13   11.30    0.93
   4   5  13   10.20    1.30
   4   5  13   13.15    0.99
  -5  -5 -13    9.04    0.78
  -5  -5 -13    8.86    0.83
   5   5  13    7.76    1.03
   0   6  13   23.26    1.41
   0   6  13   23.44    1.74
   1   6  13   22.95    1.75
   1   6  13   22.76    1.43
   1   6  13   22.09    1.37
   2   6  13   12.37    0.93
   2   6  13   10.55    0.93
   2   6  13   12.28    1.21
   3   6  13    7.51    0.90
   3   6  13    4.18    0.53
   3   6  13    4.60    0.61
  -4  -6 -13    1.45    0.42
   4   6  13    1.17    0.44
   4   6  13    0.86    0.37
  -5  -6 -13    6.69    0.72
  -5  -6 -13    4.77    0.56
   1   7  13    2.40    0.38
   1   7  13    2.02    0.38
   1   7  13    1.59    0.47
   2   7  13    3.26    0.48
   2   7  13    2.22    0.41
   2   7  13    3.06    0.61
   3   7  13    0.36    0.32
   3   7  13   -0.01    0.20
   3   7  13    0.43    0.42
   4   7  13    0.44    0.29
   4   7  13    0.23    0.34
   3   8  13    2.14    0.50
   3   8  13    2.10    0.38
   2   4  14    0.66    0.40
   3   4  14   -0.07    0.33
   0   0   0    0.00    0.00
;
_shelx_hkl_checksum              86645
loop_
_space_group_symop_operation_xyz
'x, y, z'
'-x, -y, -z'
loop_
_atom_site_label
_atom_site_type_symbol
_atom_site_fract_x
_atom_site_fract_y
_atom_site_fract_z
_atom_site_U_iso_or_equiv
_atom_site_adp_type
_atom_site_occupancy
_atom_site_site_symmetry_order
_atom_site_calc_flag
_atom_site_refinement_flags_posn
_atom_site_refinement_flags_occupancy
Cr1 Cr 0.5000 0.5000 1.0000 0.02098(15) Uani 1 2 d S P
P1 P 0.56114(7) 0.71657(5) 0.82739(5) 0.02283(16) Uani 1 1 d . .
O1 O 0.5079(3) 0.6762(2) 1.16250(17) 0.0485(5) Uani 1 1 d . .
O2 O 0.0679(2) 0.60425(19) 1.04781(17) 0.0408(4) Uani 1 1 d . .
C1 C 0.7353(4) 0.8191(3) 0.8359(2) 0.0332(5) Uani 1 1 d . .
C2 C 0.6860(3) 0.6858(3) 0.6773(2) 0.0306(5) Uani 1 1 d . .
C3 C 0.3603(3) 0.8724(2) 0.79448(19) 0.0246(4) Uani 1 1 d . .
C4 C 0.3122(4) 0.9669(3) 0.8673(2) 0.0348(5) Uani 1 1 d . .
C5 C 0.1723(4) 1.0929(3) 0.8480(3) 0.0401(6) Uani 1 1 d . .
C6 C 0.0782(4) 1.1288(3) 0.7529(3) 0.0402(6) Uani 1 1 d . .
C7 C 0.1199(3) 1.0354(2) 0.6816(2) 0.0314(5) Uani 1 1 d . .
C8 C 0.2562(3) 0.9043(2) 0.70291(19) 0.0244(4) Uani 1 1 d . .
C9 C 0.2734(3) 0.8038(2) 0.6299(2) 0.0260(5) Uani 1 1 d . .
C10 C 0.2273(3) 0.6572(3) 0.6903(2) 0.0307(5) Uani 1 1 d . .
C11 C 0.2335(4) 0.5661(3) 0.6223(3) 0.0388(6) Uani 1 1 d . .
C12 C 0.2880(4) 0.6212(3) 0.4918(3) 0.0482(7) Uani 1 1 d . .
C13 C 0.3376(4) 0.7642(3) 0.4311(2) 0.0462(7) Uani 1 1 d . .
C14 C 0.3292(4) 0.8554(3) 0.4988(2) 0.0365(6) Uani 1 1 d . .
C15 C 0.5080(3) 0.6068(2) 1.1022(2) 0.0305(5) Uani 1 1 d . .
C16 C 0.2314(3) 0.5636(2) 1.02830(19) 0.0259(5) Uani 1 1 d . .
H1A H 0.757(4) 0.914(3) 0.763(3) 0.049(8) Uiso 1 1 d . .
H1B H 0.689(4) 0.848(3) 0.907(3) 0.046(8) Uiso 1 1 d . .
H1C H 0.856(4) 0.745(3) 0.846(3) 0.050(8) Uiso 1 1 d . .
H2A H 0.703(4) 0.781(3) 0.607(2) 0.039(7) Uiso 1 1 d . .
H2B H 0.808(4) 0.627(3) 0.691(2) 0.035(7) Uiso 1 1 d . .
H2C H 0.617(4) 0.626(3) 0.660(2) 0.040(7) Uiso 1 1 d . .
H4 H 0.378(4) 0.943(3) 0.934(2) 0.043(7) Uiso 1 1 d . .
H5 H 0.141(4) 1.147(3) 0.896(2) 0.042(8) Uiso 1 1 d . .
H6 H -0.015(4) 1.212(3) 0.740(3) 0.047(8) Uiso 1 1 d . .
H7 H 0.051(4) 1.058(3) 0.617(2) 0.033(6) Uiso 1 1 d . .
H10 H 0.193(4) 0.630(3) 0.776(2) 0.035(7) Uiso 1 1 d . .
H11 H 0.202(4) 0.468(3) 0.667(3) 0.048(8) Uiso 1 1 d . .
H12 H 0.290(4) 0.561(3) 0.450(3) 0.057(9) Uiso 1 1 d . .
H13 H 0.374(4) 0.795(3) 0.342(3) 0.050(8) Uiso 1 1 d . .
H14 H 0.362(4) 0.954(3) 0.457(3) 0.057(9) Uiso 1 1 d . .
loop_
_atom_site_aniso_label
_atom_site_aniso_U_11
_atom_site_aniso_U_22
_atom_site_aniso_U_33
_atom_site_aniso_U_23
_atom_site_aniso_U_13
_atom_site_aniso_U_12
Cr1 0.0233(3) 0.0183(2) 0.0222(3) -0.00774(19) -0.00683(19) -0.00083(19)
P1 0.0227(3) 0.0209(3) 0.0245(3) -0.0072(2) -0.0064(2) -0.0018(2)
O1 0.0723(14) 0.0431(10) 0.0433(10) -0.0255(9) -0.0161(9) -0.0101(9)
O2 0.0282(10) 0.0380(9) 0.0548(11) -0.0192(8) -0.0087(8) 0.0028(7)
C1 0.0292(13) 0.0304(12) 0.0414(13) -0.0101(11) -0.0097(10) -0.0079(10)
C2 0.0264(13) 0.0327(12) 0.0280(11) -0.0099(10) -0.0033(9) 0.0005(10)
C3 0.0256(11) 0.0182(9) 0.0273(10) -0.0055(8) -0.0040(8) -0.0043(8)
C4 0.0350(14) 0.0348(13) 0.0397(13) -0.0181(11) -0.0118(11) -0.0006(10)
C5 0.0405(15) 0.0311(12) 0.0545(15) -0.0258(12) -0.0105(12) 0.0030(11)
C6 0.0312(14) 0.0233(11) 0.0617(16) -0.0129(11) -0.0119(12) 0.0032(10)
C7 0.0265(12) 0.0265(11) 0.0388(12) -0.0071(10) -0.0114(10) -0.0010(9)
C8 0.0220(11) 0.0218(10) 0.0258(10) -0.0045(8) -0.0030(8) -0.0056(8)
C9 0.0206(11) 0.0279(11) 0.0289(11) -0.0090(9) -0.0099(8) 0.0021(8)
C10 0.0265(12) 0.0302(12) 0.0358(12) -0.0126(10) -0.0076(9) -0.0014(9)
C11 0.0313(14) 0.0348(13) 0.0581(16) -0.0232(12) -0.0158(11) 0.0009(10)
C12 0.0470(17) 0.0559(17) 0.0598(17) -0.0404(15) -0.0290(14) 0.0164(13)
C13 0.0531(17) 0.0529(16) 0.0327(13) -0.0205(12) -0.0161(12) 0.0103(13)
C14 0.0370(14) 0.0381(13) 0.0324(12) -0.0095(11) -0.0128(10) 0.0006(11)
C15 0.0365(13) 0.0268(11) 0.0278(11) -0.0075(9) -0.0093(9) -0.0042(9)
C16 0.0287(13) 0.0212(10) 0.0270(10) -0.0075(8) -0.0062(9) -0.0030(9)
loop_
_atom_type_symbol
_atom_type_description
_atom_type_scat_dispersion_real
_atom_type_scat_dispersion_imag
_atom_type_scat_source
C C 0.0181 0.0091 'International Tables Vol C Tables 4.2.6.8 and 6.1.1.4'
H H 0.0000 0.0000 'International Tables Vol C Tables 4.2.6.8 and 6.1.1.4'
O O 0.0492 0.0322 'International Tables Vol C Tables 4.2.6.8 and 6.1.1.4'
Cr Cr -0.1635 2.4439 'International Tables Vol C Tables 4.2.6.8 and 6.1.1.4'
P P 0.2955 0.4335 'International Tables Vol C Tables 4.2.6.8 and 6.1.1.4'
loop_
_geom_angle_atom_site_label_1
_geom_angle_atom_site_label_2
_geom_angle_atom_site_label_3
_geom_angle
_geom_angle_site_symmetry_1
_geom_angle_site_symmetry_3
C15 Cr1 C15 180.0 2_667 .
C15 Cr1 C16 87.51(10) 2_667 2_667
C15 Cr1 C16 92.49(10) . 2_667
C15 Cr1 C16 92.49(10) 2_667 .
C15 Cr1 C16 87.51(10) . .
C16 Cr1 C16 180.0 2_667 .
C15 Cr1 P1 88.16(6) 2_667 2_667
C15 Cr1 P1 91.84(6) . 2_667
C16 Cr1 P1 92.13(6) 2_667 2_667
C16 Cr1 P1 87.88(6) . 2_667
C15 Cr1 P1 91.84(6) 2_667 .
C15 Cr1 P1 88.16(6) . .
C16 Cr1 P1 87.88(6) 2_667 .
C16 Cr1 P1 92.12(6) . .
P1 Cr1 P1 180.00(3) 2_667 .
C2 P1 C1 98.66(12) . .
C2 P1 C3 106.53(10) . .
C1 P1 C3 100.17(10) . .
C2 P1 Cr1 115.85(8) . .
C1 P1 Cr1 113.85(8) . .
C3 P1 Cr1 118.89(7) . .
P1 C1 H1A 113.0(16) . .
P1 C1 H1B 109.5(17) . .
H1A C1 H1B 106(2) . .
P1 C1 H1C 106.5(16) . .
H1A C1 H1C 113(2) . .
H1B C1 H1C 108(2) . .
P1 C2 H2A 112.5(15) . .
P1 C2 H2B 104.7(15) . .
H2A C2 H2B 112(2) . .
P1 C2 H2C 110.2(15) . .
H2A C2 H2C 110(2) . .
H2B C2 H2C 108(2) . .
C4 C3 C8 118.3(2) . .
C4 C3 P1 115.82(17) . .
C8 C3 P1 125.89(16) . .
C5 C4 C3 122.0(2) . .
C5 C4 H4 119.0(16) . .
C3 C4 H4 119.0(16) . .
C4 C5 C6 119.5(2) . .
C4 C5 H5 120.9(18) . .
C6 C5 H5 119.7(18) . .
C7 C6 C5 119.6(2) . .
C7 C6 H6 120.7(18) . .
C5 C6 H6 119.7(18) . .
C6 C7 C8 121.7(2) . .
C6 C7 H7 120.0(15) . .
C8 C7 H7 118.3(15) . .
C7 C8 C3 118.8(2) . .
C7 C8 C9 116.80(19) . .
C3 C8 C9 124.33(19) . .
C10 C9 C14 117.9(2) . .
C10 C9 C8 120.93(19) . .
C14 C9 C8 121.1(2) . .
C11 C10 C9 121.1(2) . .
C11 C10 H10 124.9(16) . .
C9 C10 H10 114.0(16) . .
C10 C11 C12 119.6(2) . .
C10 C11 H11 117.9(17) . .
C12 C11 H11 122.6(17) . .
C13 C12 C11 120.1(2) . .
C13 C12 H12 121.9(19) . .
C11 C12 H12 118(2) . .
C12 C13 C14 120.3(2) . .
C12 C13 H13 115.7(18) . .
C14 C13 H13 124.0(18) . .
C13 C14 C9 121.0(2) . .
C13 C14 H14 120.4(18) . .
C9 C14 H14 118.6(18) . .
O1 C15 Cr1 177.4(2) . .
O2 C16 Cr1 178.13(19) . .
loop_
_geom_bond_atom_site_label_1
_geom_bond_atom_site_label_2
_geom_bond_distance
_geom_bond_site_symmetry_2
Cr1 C15 1.881(2) 2_667
Cr1 C15 1.881(2) .
Cr1 C16 1.882(2) 2_667
Cr1 C16 1.882(2) .
Cr1 P1 2.3192(5) 2_667
Cr1 P1 2.3192(5) .
P1 C2 1.835(2) .
P1 C1 1.835(2) .
P1 C3 1.848(2) .
O1 C15 1.149(3) .
O2 C16 1.149(3) .
C1 H1A 1.00(3) .
C1 H1B 0.93(3) .
C1 H1C 1.00(3) .
C2 H2A 0.98(3) .
C2 H2B 0.96(3) .
C2 H2C 0.96(3) .
C3 C4 1.399(3) .
C3 C8 1.405(3) .
C4 C5 1.383(3) .
C4 H4 0.97(3) .
C5 C6 1.382(4) .
C5 H5 0.86(3) .
C6 C7 1.380(4) .
C6 H6 0.91(3) .
C7 C8 1.401(3) .
C7 H7 0.97(2) .
C8 C9 1.487(3) .
C9 C10 1.393(3) .
C9 C14 1.395(3) .
C10 C11 1.384(3) .
C10 H10 0.91(2) .
C11 C12 1.388(4) .
C11 H11 0.94(3) .
C12 C13 1.371(4) .
C12 H12 0.89(3) .
C13 C14 1.377(4) .
C13 H13 0.95(3) .
C14 H14 0.94(3) .
loop_
_geom_torsion_atom_site_label_1
_geom_torsion_atom_site_label_2
_geom_torsion_atom_site_label_3
_geom_torsion_atom_site_label_4
_geom_torsion
C2 P1 C3 C4 -147.38(18)
C1 P1 C3 C4 -45.1(2)
Cr1 P1 C3 C4 79.53(18)
C2 P1 C3 C8 31.7(2)
C1 P1 C3 C8 133.95(19)
Cr1 P1 C3 C8 -101.43(18)
C8 C3 C4 C5 -2.8(4)
P1 C3 C4 C5 176.3(2)
C3 C4 C5 C6 -0.9(4)
C4 C5 C6 C7 2.4(4)
C5 C6 C7 C8 -0.1(4)
C6 C7 C8 C3 -3.6(3)
C6 C7 C8 C9 173.5(2)
C4 C3 C8 C7 5.0(3)
P1 C3 C8 C7 -174.04(16)
C4 C3 C8 C9 -171.9(2)
P1 C3 C8 C9 9.1(3)
C7 C8 C9 C10 -115.9(2)
C3 C8 C9 C10 61.1(3)
C7 C8 C9 C14 61.7(3)
C3 C8 C9 C14 -121.4(2)
C14 C9 C10 C11 -1.0(3)
C8 C9 C10 C11 176.6(2)
C9 C10 C11 C12 0.5(4)
C10 C11 C12 C13 0.8(4)
C11 C12 C13 C14 -1.5(4)
C12 C13 C14 C9 1.0(4)
C10 C9 C14 C13 0.3(4)
C8 C9 C14 C13 -177.3(2)
