#------------------------------------------------------------------------------
#$Date: 2019-11-23 04:21:47 +0200 (Sat, 23 Nov 2019) $
#$Revision: 232107 $
#$URL: file:///home/coder/svn-repositories/cod/cif/4/34/70/4347004.cif $
#------------------------------------------------------------------------------
#
# This file is available in the Crystallography Open Database (COD),
# http://www.crystallography.net/
#
# All data on this site have been placed in the public domain by the
# contributors.
#
data_4347004
loop_
_publ_author_name
'Becker, Sabine'
'D\"urr, Maximilian'
'Miska, Andreas'
'Becker, Jonathan'
'Gawlig, Christopher'
'Behrens, Ulrich'
'Ivanovi\'c-Burmazovi\'c, Ivana'
'Schindler, Siegfried'
_publ_section_title
;
 Copper Chloride Catalysis: Do \m4-Oxido Copper Clusters Play a
 Significant Role?
;
_journal_issue                   8
_journal_name_full               'Inorganic chemistry'
_journal_page_first              3759
_journal_page_last               3766
_journal_paper_doi               10.1021/acs.inorgchem.5b02576
_journal_volume                  55
_journal_year                    2016
_chemical_formula_sum            'C4 H6 Cl4 Cu2 N2'
_chemical_formula_weight         350.99
_chemical_name_common            'compound 2'
_space_group_crystal_system      monoclinic
_space_group_IT_number           14
_space_group_name_Hall           '-P 2ybc'
_space_group_name_H-M_alt        'P 1 21/c 1'
_atom_sites_solution_hydrogens   geom
_audit_creation_method           SHELXL-2013
_audit_update_record
;
2016-03-02 # Formatted by publCIF

;
_cell_angle_alpha                90
_cell_angle_beta                 89.94(3)
_cell_angle_gamma                90
_cell_formula_units_Z            2
_cell_length_a                   3.7990(8)
_cell_length_b                   7.9080(16)
_cell_length_c                   18.075(4)
_cell_measurement_reflns_used    512
_cell_measurement_temperature    190(2)
_cell_measurement_theta_max      26.73
_cell_measurement_theta_min      1.00
_cell_volume                     543.0(2)
_computing_cell_refinement
;
 Denzo/Scalepack (HKL Research, Inc., 1997)

;
_computing_data_collection       'Bruker AXS Collect (2009)'
_computing_data_reduction
;
 Denzo/Scalepack (HKL Research, Inc., 1997)

;
_computing_publication_material  'Ortep 3v2'
_computing_structure_refinement  'SHELXL-2013 (Sheldrick, 2013)'
_computing_structure_solution    'SHELXS-97 (Sheldrick, 2008)'
_diffrn_ambient_temperature      190(2)
_diffrn_measured_fraction_theta_full 0.995
_diffrn_measured_fraction_theta_max 0.986
_diffrn_measurement_device_type  'Bruker Nonius KappaCCD'
_diffrn_measurement_method       'omega and phi scans'
_diffrn_radiation_type           MoK\a
_diffrn_radiation_wavelength     0.71073
_diffrn_reflns_av_R_equivalents  0.1491
_diffrn_reflns_av_unetI/netI     0.1149
_diffrn_reflns_Laue_measured_fraction_full 0.995
_diffrn_reflns_Laue_measured_fraction_max 0.986
_diffrn_reflns_limit_h_max       4
_diffrn_reflns_limit_h_min       -4
_diffrn_reflns_limit_k_max       7
_diffrn_reflns_limit_k_min       -10
_diffrn_reflns_limit_l_max       23
_diffrn_reflns_limit_l_min       -22
_diffrn_reflns_number            3334
_diffrn_reflns_point_group_measured_fraction_full 0.995
_diffrn_reflns_point_group_measured_fraction_max 0.986
_diffrn_reflns_theta_full        25.242
_diffrn_reflns_theta_max         27.574
_diffrn_reflns_theta_min         2.576
_diffrn_source                   'Bruker Nonius FR591 rotating anode'
_exptl_absorpt_coefficient_mu    4.847
_exptl_absorpt_correction_T_max  0.49496
_exptl_absorpt_correction_T_min  0.11067
_exptl_absorpt_correction_type   empirical
_exptl_absorpt_process_details
;
 Platon MULABS semi-empirical method using multiple scanned reflections

;
_exptl_crystal_colour            yellow
_exptl_crystal_density_diffrn    2.147
_exptl_crystal_description       needle
_exptl_crystal_F_000             340
_exptl_crystal_size_max          0.750
_exptl_crystal_size_mid          0.050
_exptl_crystal_size_min          0.020
_refine_diff_density_max         1.877
_refine_diff_density_min         -1.361
_refine_diff_density_rms         0.281
_refine_ls_extinction_method     none
_refine_ls_goodness_of_fit_ref   1.041
_refine_ls_hydrogen_treatment    constr
_refine_ls_matrix_type           full
_refine_ls_number_parameters     57
_refine_ls_number_reflns         1213
_refine_ls_number_restraints     0
_refine_ls_restrained_S_all      1.041
_refine_ls_R_factor_all          0.0959
_refine_ls_R_factor_gt           0.0747
_refine_ls_shift/su_max          0.001
_refine_ls_shift/su_mean         0.000
_refine_ls_structure_factor_coef Fsqd
_refine_ls_weighting_details
'w=1/[\s^2^(Fo^2^)+(0.1254P)^2^] where P=(Fo^2^+2Fc^2^)/3'
_refine_ls_weighting_scheme      calc
_refine_ls_wR_factor_gt          0.1936
_refine_ls_wR_factor_ref         0.2093
_reflns_Friedel_coverage         0.000
_reflns_number_gt                969
_reflns_number_total             1213
_reflns_threshold_expression     'I > 2\s(I)'
_cod_data_source_file            ic5b02576_si_005.cif
_cod_data_source_block           SCHNOV
_cod_original_cell_volume        543.02(19)
_cod_original_sg_symbol_H-M      'P 21/c'
_cod_database_code               4347004
_shelx_space_group_comment
;
The symmetry employed for this shelxl refinement is uniquely defined
by the following loop, which should always be used as a source of
symmetry information in preference to the above space-group names.
They are only intended as comments.
;
_shelx_estimated_absorpt_t_min   0.122
_shelx_estimated_absorpt_t_max   0.909
_shelxl_version_number           2013-4
_shelx_res_file
;
TITL sch12109r in P2(1)/c
CELL 0.71073   3.7990   7.9080  18.0750  90.000  89.937  90.000
ZERR    2.00   0.0008   0.0016   0.0036   0.000   0.030   0.000
LATT  1
SYMM -X, 0.5+Y, 0.5-Z
SFAC C H N CL CU
UNIT 8 12 4 8 4
LIST 4 ! automatically inserted. Change 6 to 4 for CHECKCIF!!

L.S. 4
BOND $H
FMAP 2
PLAN 9
ACTA
TEMP -83.15
SIZE 0.75x0.05x0.02
TWIN  1 0 0  0 -1 0  0 0 -1
WGHT    0.125400
BASF   0.45519
FVAR       0.63117
CU1   5    0.331519    0.576550    0.420331    11.00000    0.03546    0.02681 =
         0.03013    0.00268   -0.00397   -0.00370
CL1   4    0.307523    0.328313    0.485743    11.00000    0.03668    0.02661 =
         0.03274    0.00169   -0.00478   -0.00390
N1    3    0.354580    0.804134    0.376667    11.00000    0.04184    0.03440 =
         0.03170    0.00825   -0.00265   -0.00898
C1    1    0.429007    0.932870    0.353987    11.00000    0.03451    0.03010 =
         0.03744    0.00000   -0.01230   -0.00164
C2    1    0.530981    1.097734    0.323601    11.00000    0.04448    0.02453 =
         0.04636   -0.00860   -0.00438    0.00468
AFIX 137
H2A   2    0.680219    1.080942    0.279957    11.00000   -1.50000
H2B   2    0.661493    1.161641    0.361060    11.00000   -1.50000
H2C   2    0.319372    1.160780    0.309483    11.00000   -1.50000
AFIX   0
CL2   4   -0.073089    0.488263    0.339331    11.00000    0.03325    0.03415 =
         0.02985    0.00074   -0.00401   -0.00323
REM #####
HKLF 4

REM  sch12109r in P2(1)/c
REM R1 =  0.0747 for     969 Fo > 4sig(Fo)  and  0.0959 for all    1213 data
REM     57 parameters refined using      0 restraints

END

WGHT      0.1252      0.0000

REM Highest difference peak  1.877,  deepest hole -1.361,  1-sigma level  0.281
Q1    1   0.3936  0.5747  0.4612  11.00000  0.05    1.88
Q2    1   0.3178  0.5500  0.3773  11.00000  0.05    1.23
Q3    1   0.2925  0.3744  0.5260  11.00000  0.05    1.19
Q4    1   0.2361  0.6575  0.4689  11.00000  0.05    1.06
Q5    1   0.2884  0.3750  0.4378  11.00000  0.05    0.97
Q6    1   0.2880  0.7623  0.4278  11.00000  0.05    0.89
Q7    1  -0.3208  0.4842  0.3405  11.00000  0.05    0.89
Q8    1   0.3287  0.9458  0.4500  11.00000  0.05    0.78
Q9    1   0.1069  1.0991  0.2445  11.00000  0.05    0.77
;
_shelx_res_checksum              29565
_shelx_hkl_file
;
  -4  -6  -1  -20.01   22.13
  -4  -6   0  -16.14   18.83
  -4  -5  -7   25.45   18.72
  -4  -5  -6    1.03   18.02
  -4  -5  -4    0.48   16.41
  -4  -5  -4   19.03   16.98
  -4  -5  -3   76.86   16.80
  -4  -5  -2   77.57   21.44
  -4  -5  -2  100.14   20.30
  -4  -5  -1  101.88   23.13
  -4  -5  -1   68.03   21.37
  -4  -5   0  192.19   26.75
  -4  -4 -10   45.93   24.12
  -4  -4  -9   10.01   21.13
  -4  -4  -8   28.59   22.01
  -4  -4  -7    1.09   17.38
  -4  -4  -6   27.53   17.84
  -4  -4  -4   10.29   14.21
  -4  -4  -4   18.40   16.79
  -4  -4  -3   67.87   15.58
  -4  -4  -2  123.40   18.34
  -4  -4  -2   85.27   20.94
  -4  -4  -1  394.68   38.37
  -4  -4  -1  432.24   37.21
  -4  -4   0   12.83   15.07
  -4  -3 -11   25.82   25.25
  -4  -3 -10   30.06   19.47
  -4  -3  -9   49.95   22.97
  -4  -3  -8   83.36   21.14
  -4  -3  -5   -1.14   17.17
  -4  -3  -4   48.95   14.67
   4  -3   3    0.61   18.80
  -4  -3  -3   -1.74   16.28
  -4  -3  -3   18.41   13.24
  -4  -3  -2   96.00   16.13
   4  -3   2   29.67   19.01
  -4  -3  -1   55.18   14.01
   4  -3   1   55.05   19.40
   4  -3   0  118.37   20.71
  -4  -3   0  115.68   22.60
  -4  -2 -12   47.67   24.18
  -4  -2 -11    6.76   24.59
  -4  -2 -10   27.92   21.11
  -4  -2  -9   37.89   27.35
  -4  -2  -8  181.07   30.12
  -4  -2  -7  172.09   27.99
  -4  -2  -5  177.16   26.42
  -4  -2  -4  174.69   15.84
   4  -2   3   19.35   21.12
  -4  -2  -3   89.19   19.54
  -4  -2  -3   76.79   11.80
  -4  -2  -2   11.05    8.66
   4  -2   2   24.66   18.37
  -4  -2  -2   39.32   17.23
  -4  -2  -1   18.95   10.79
   4  -2   1   30.11   19.90
  -4  -2   0   52.42   19.22
   4  -2   0    5.70   19.37
  -4  -1 -13   57.31   27.80
  -4  -1 -12    3.12   23.71
  -4  -1 -11   30.01   22.37
  -4  -1 -10   21.37   27.86
  -4  -1  -9   57.29   22.84
  -4  -1  -8   72.06   21.51
  -4  -1  -7   59.19   21.29
  -4  -1  -6  152.51   25.73
  -4  -1  -5  252.70   34.63
  -4  -1  -4   74.24   20.05
  -4  -1  -3  185.63   24.64
  -4  -1  -3  178.12   14.22
  -4  -1  -2   26.04    8.08
  -4  -1  -1   55.87   18.26
   4  -1   1   10.03   20.07
  -4   0 -13   12.29   22.75
  -4   0 -12   17.86   23.61
  -4   0 -11   -0.66   27.54
  -4   0 -10   29.38   21.38
  -4   0  -9  -16.17   21.57
  -4   0  -8  208.97   31.50
  -4   0  -7   25.42   24.09
  -4   0  -6  149.82   27.38
  -4   0  -3  -15.14   17.04
  -4   0  -2   23.84    6.54
  -4   0   0   73.21   18.28
  -4   0   3    5.88   44.41
  -4   0   5   36.99   20.88
  -4   0   6   86.94   25.95
  -4   0   7  -20.50   24.61
  -4   0   8  184.47   29.36
  -4   0   9   21.98   24.74
  -4   0  10    0.00   24.08
  -4   0  11   11.73   23.46
  -4   0  12   33.26   26.35
  -4   0  13   12.57   27.94
  -4   1   3  174.41   23.89
  -4   1   5  223.99   29.70
  -4   1   6  162.71   25.10
  -4   1   7   67.77   21.56
  -4   1   8  104.34   26.84
  -4   1   9  110.32   25.73
  -4   1  10   -5.70   22.80
  -4   1  11    2.15   29.36
  -4   1  12   17.25   28.76
  -4   1  13   34.57   25.24
  -4   2   5  227.77   32.33
  -4   2   6   16.27   24.06
  -4   2   7  123.70   27.22
  -4   2   8  218.34   32.24
  -4   2   9  101.14   25.82
  -4   2  10   18.93   27.28
  -4   3   3   -2.78   22.21
  -4   4   1  294.01   36.23
  -4   4   2  108.36   23.88
  -3  -8  -3   46.48   20.42
  -3  -8  -2  162.09   26.08
  -3  -8  -2  116.76   24.31
  -3  -8  -1   79.41   23.02
  -3  -8  -1   62.67   23.27
  -3  -8   0  151.30   25.49
  -3  -7  -9   16.29   16.84
  -3  -7  -8   11.99   13.63
  -3  -7  -7  175.56   23.46
  -3  -7  -6   21.95   17.58
  -3  -7  -6   67.35   22.77
  -3  -7  -5  119.80   22.02
  -3  -7  -5  124.01   21.94
  -3  -7  -4    3.76   16.66
  -3  -7  -4    1.12   17.88
  -3  -7  -3   -6.42   19.81
  -3  -7  -3   17.07   18.79
  -3  -7  -2   36.03   18.64
  -3  -7  -1  143.54   23.60
  -3  -7   0   39.18   15.14
  -3  -7   0   83.29   21.33
  -3  -6 -12   56.46   17.49
  -3  -6 -11   10.02   15.03
  -3  -6 -10  -10.14   14.66
  -3  -6  -9   36.12   14.74
  -3  -6  -8  160.40   25.37
  -3  -6  -7   -3.91   16.74
  -3  -6  -6  482.07   41.82
  -3  -6  -6  573.78   45.89
  -3  -6  -5    0.00   16.15
  -3  -6  -5  -16.01   16.02
  -3  -6  -4  178.99   24.65
  -3  -6  -4  172.73   23.03
  -3  -6  -3   29.30   18.06
  -3  -6  -3   19.93   17.33
  -3  -6  -2   67.25   21.92
  -3  -6  -2   90.21   19.23
  -3  -6  -1   -2.28   19.39
  -3  -6   0   34.45   19.46
  -3  -5 -14   34.12   16.32
  -3  -5 -13   57.56   17.10
  -3  -5 -12   -3.97   14.76
  -3  -5 -11   30.72   18.58
  -3  -5 -10   11.70   18.72
   3  -5  10  -28.80   20.80
  -3  -5  -9   12.85   14.61
   3  -5   9    5.35   20.74
  -3  -5  -8   20.25   14.48
   3  -5   8    8.72   24.81
   3  -5   7   93.68   29.86
   3  -5   6   -0.68   20.37
  -3  -5  -6   48.54   15.09
  -3  -5  -6   30.05   17.04
  -3  -5  -5  471.80   37.98
   3  -5   5  252.27   33.23
  -3  -5  -5  333.34   31.05
  -3  -5  -4  356.64   29.30
   3  -5   4  172.05   28.66
  -3  -5  -4  297.27   29.30
  -3  -5  -3   37.90   14.62
   3  -5   3   64.08   20.56
  -3  -5  -3   46.48   20.14
  -3  -5  -2  146.38   22.20
   3  -5   2   96.49   21.66
  -3  -5  -2  177.21   20.48
   3  -5   1   97.45   19.08
  -3  -5  -1  170.70   22.53
  -3  -5  -1  148.60   22.71
  -3  -5   0  -12.51   16.90
   3  -5   0   12.48   14.98
  -3  -5   0    9.77   12.83
  -3  -4 -16    0.00   14.52
  -3  -4 -15  255.36   32.38
  -3  -4 -13   53.96   16.40
  -3  -4 -12   48.88   15.79
  -3  -4 -11  -13.11   13.72
   3  -4  10   17.61   22.55
  -3  -4 -10   18.11   15.10
   3  -4   9   56.63   24.15
  -3  -4  -9   56.87   17.02
   3  -4   8    7.80   24.81
  -3  -4  -8   39.09   17.48
  -3  -4  -7   23.32   14.96
   3  -4   7   23.33   23.34
  -3  -4  -6   75.62   15.38
  -3  -4  -6   51.54   18.42
   3  -4   6   39.36   22.53
   3  -4   5  155.38   25.55
  -3  -4  -5  211.74   25.48
  -3  -4  -5  319.15   24.53
  -3  -4  -4   76.41   17.91
   3  -4   4   60.60   22.11
  -3  -4  -4   79.94   13.21
  -3  -4  -3  717.15   48.79
  -3  -4  -3  633.45   45.04
   3  -4   3  458.16   43.62
   3  -4   2  104.08   18.92
  -3  -4  -2  132.40   21.22
  -3  -4  -2  147.04   18.02
  -3  -4  -1  171.36   21.33
   3  -4   1  124.86   20.57
  -3  -4  -1  136.06   20.03
   3  -4   0   35.15   16.64
  -3  -4   0   56.99   16.73
  -3  -3 -17   83.23   20.70
  -3  -3 -16  157.30   21.91
  -3  -3 -14   95.16   19.10
  -3  -3 -13   -6.78   14.69
  -3  -3 -12  -21.21   18.28
  -3  -3 -11  119.81   23.42
   3  -3  10  116.03   26.17
   3  -3   9   27.68   26.27
  -3  -3  -9   43.30   15.12
   3  -3   8   98.56   25.19
  -3  -3  -7   79.23   21.49
   3  -3   7   42.04   21.42
  -3  -3  -6   64.13   14.13
  -3  -3  -6   23.14   18.78
   3  -3   6    7.05   18.33
  -3  -3  -5  236.48   27.01
  -3  -3  -5  334.88   29.13
   3  -3   5  182.23   34.37
   3  -3   4  309.98   35.73
  -3  -3  -4  477.96   30.67
  -3  -3  -4  418.52   37.53
   3  -3   3  136.71   22.89
  -3  -3  -3  162.69   16.77
   3  -3   2  287.13   32.19
  -3  -3  -2  376.93   30.60
  -3  -3  -2  446.81   32.63
  -3  -3  -1  101.22   18.05
   3  -3   1  146.22   21.51
   3  -3   0   31.78   41.96
  -3  -3   0    9.45   13.51
  -3  -2 -17   -0.44   14.19
  -3  -2 -16   53.72   16.61
  -3  -2 -15   50.14   16.64
  -3  -2 -14   43.16   15.53
  -3  -2 -13  -14.67   14.11
  -3  -2 -12  103.20   25.15
  -3  -2 -11  278.75   32.77
  -3  -2 -10   91.79   18.70
   3  -2  10    8.80   22.33
   3  -2   9  305.94   36.55
  -3  -2  -9  495.53   40.51
  -3  -2  -8  247.00   28.49
   3  -2   8  152.42   30.53
   3  -2   7   94.84   23.34
  -3  -2  -7  135.66   20.76
  -3  -2  -6  272.61   26.75
   3  -2   6  216.01   33.20
   3  -2   5   93.89   24.63
  -3  -2  -5  123.48   13.46
  -3  -2  -5   79.04   21.83
  -3  -2  -4  172.16   26.73
  -3  -2  -4  193.89   18.35
   3  -2   4  139.92   27.45
  -3  -2  -3  327.71   25.13
  -3  -2  -3  331.67   30.92
  -3  -2  -2  110.46   12.64
  -3  -2  -2   96.41   21.69
   3  -2   2   83.11   18.52
  -3  -2  -1   54.96   19.96
   3  -2   1   53.96   21.37
  -3  -2   0   38.52   19.63
   3  -2   0   82.92   18.98
  -3  -1 -18    2.86   14.72
  -3  -1 -17   37.79   15.70
  -3  -1 -16  -21.31   13.46
  -3  -1 -14    2.65   14.82
  -3  -1 -12   87.79   18.72
  -3  -1 -11  387.21   45.48
   3  -1  10   66.37   24.63
  -3  -1 -10  191.96   28.62
  -3  -1  -9  104.81   21.03
   3  -1   9   41.02   20.54
   3  -1   8  177.83   27.51
  -3  -1  -8  267.37   29.58
   3  -1   7  187.94   31.72
  -3  -1  -7  315.65   32.03
   3  -1   6   35.12   22.06
  -3  -1  -6   92.76   19.51
   3  -1   5  178.07   30.71
  -3  -1  -5  276.66   33.74
  -3  -1  -4   35.10    7.58
  -3  -1  -4  101.05   20.75
   3  -1   3   10.27   16.05
  -3  -1  -3   19.24   19.24
  -3  -1  -3   20.98    6.67
  -3  -1  -2  159.52   23.72
   3  -1   2  167.96   23.01
   3  -1   1  869.44   66.26
  -3  -1  -1 1112.25   62.58
   3  -1   0   62.54   18.39
  -3  -1   0   87.71   19.90
  -3   0 -17  -10.00   17.39
  -3   0 -16   17.17   14.86
  -3   0 -15    8.44   14.90
  -3   0 -14  316.73   37.52
  -3   0 -12  453.14   39.69
  -3   0 -11    1.91   19.75
  -3   0 -10  196.70   26.54
  -3   0  -9   72.51   24.24
  -3   0  -8  186.02   28.67
  -3   0  -7  -11.46   18.63
  -3   0  -6  324.07   33.27
  -3   0  -5    2.15   18.67
  -3   0  -4   69.78   20.01
  -3   0  -3  -13.41   19.06
  -3   0  -3    0.60    4.82
  -3   0  -2  923.04   58.45
  -3   0   0 2350.02  126.29
  -3   0   1   -0.71   17.71
  -3   0   2 1022.56   65.87
  -3   0   3   17.94   15.08
  -3   0   4  123.36   16.84
  -3   0   6  206.77   22.58
  -3   0   8  173.62   22.38
  -3   0   9   -3.36   14.11
  -3   0  10  113.43   22.34
  -3   0  11   -8.68   20.02
  -3   0  12  311.98   39.52
  -3   0  13  -14.99   17.73
  -3   0  14  315.22   38.37
  -3   0  15   16.21   21.86
  -3   0  16   -4.29   24.33
  -3   0  17    0.72   27.49
  -3   0  18   61.04   30.62
  -3   1   1 1282.94   85.24
   3   1  -1 1275.39   88.94
  -3   1   2  205.81   24.14
   3   1  -2  151.68   23.34
  -3   1   3   20.64   16.38
   3   1  -3   25.06   13.94
   3   1  -4   45.13   18.50
  -3   1   4   87.95   19.47
   3   1  -5  307.19   35.34
  -3   1   5  239.91   23.94
   3   1  -6   95.97   20.26
   3   1  -7  281.42   31.21
  -3   1   8  233.77   25.73
   3   1  -8  206.50   23.81
  -3   1   9   72.98   19.09
   3   1  -9  103.14   15.84
  -3   1  10  173.35   22.42
   3   1 -10  203.15   20.37
   3   1 -11  325.99   26.56
  -3   1  11  282.38   34.35
   3   1 -12   54.70   15.55
  -3   1  12   42.09   21.11
  -3   1  13  247.82   34.69
  -3   1  14   12.09   19.21
  -3   1  15   59.36   23.04
  -3   1  16   -7.88   22.93
  -3   1  17   27.12   23.59
   3   2  -1   45.64   19.58
  -3   2   1   87.52   18.73
  -3   2   2  104.34   18.92
   3   2  -2  122.60   22.51
   3   2  -3  412.88   40.12
  -3   2   3  337.84   31.79
   3   2  -4  244.04   30.24
   3   2  -5  139.94   25.42
   3   2  -6  372.19   36.42
   3   2  -7  182.34   22.92
  -3   2   8  266.06   28.69
   3   2  -8  293.43   27.69
   3   2  -9  515.55   37.12
  -3   2   9  563.56   48.32
  -3   2  10   48.59   18.04
  -3   2  11  247.44   30.68
  -3   2  12   75.31   22.38
  -3   2  13    9.53   21.27
  -3   2  14   49.43   20.49
  -3   2  15   43.11   23.81
   3   3  -1  123.71   22.29
  -3   3   1  119.54   18.12
   3   3  -2  454.68   41.33
   3   3  -3  201.34   27.27
   3   3  -4  458.43   46.23
   3   3  -5  390.38   38.15
   3   3  -6  110.58   23.39
  -3   3   8  246.68   29.20
  -3   3   9   47.54   19.30
  -3   3  10  371.40   38.41
  -3   3  11  199.04   28.38
  -3   3  12   24.72   21.46
  -3   3  13   16.22   21.91
  -3   4   1   82.98   18.44
  -3   4   1   74.97   14.35
  -3   4   2   86.20   18.60
  -3   4   2   94.69   19.32
  -3   4   3  672.35   56.57
  -3   4   4  105.63   19.00
  -3   4   4   81.45   19.23
  -3   4   5  219.31   32.74
  -3   4   5  252.24   29.70
  -3   4   6   48.19   17.51
  -3   4   8   48.80   19.22
  -3   4   9   68.82   21.03
  -3   4  10   52.31   22.03
  -3   5   1   72.49   19.70
  -3   5   1   82.15   16.40
  -3   5   2   70.72   18.53
  -3   5   2   69.21   16.72
  -3   5   3   24.58   12.65
  -3   5   3   39.11   11.84
  -3   5   4  164.67   26.69
  -3   5   4  153.78   24.50
  -3   5   5  217.90   32.48
  -3   5   5  204.29   30.96
  -3   5   6   18.02   16.15
  -3   5   6   23.15   11.77
  -3   5   7  320.72   46.71
  -3   5   8   88.61   26.78
  -3   6   2   30.28   14.86
  -3   6   3   -0.63   13.93
  -3   6   4   62.16   17.64
  -3   6   5   21.42   21.45
   2  -9   6   64.61   19.85
  -2  -9  -5   37.57   12.82
   2  -9   5   96.51   22.33
  -2  -9  -4  164.57   26.89
  -2  -9  -4   81.73   15.54
   2  -9   4  124.82   24.91
  -2  -9  -3   34.95   13.77
  -2  -9  -3   38.30   20.29
  -2  -9  -2   20.12   14.83
  -2  -9  -2   12.10   19.67
  -2  -9  -1   56.41   16.27
  -2  -8 -11   39.08   10.24
  -2  -8 -10   -1.64    8.73
   2  -8   9    1.21    9.24
  -2  -8  -9   -0.55   12.18
   2  -8   8   39.76   13.68
  -2  -8  -8   55.09   14.52
  -2  -8  -7    0.54   10.81
   2  -8   7    4.45   12.86
  -2  -8  -6   11.11   19.30
  -2  -8  -6  -20.71   11.72
  -2  -8  -5   69.11   14.75
  -2  -8  -4  203.65   26.11
  -2  -8  -4  172.11   21.18
  -2  -8  -3   49.80   15.95
  -2  -8  -3   60.38   19.17
  -2  -8  -2   94.19   20.64
  -2  -8  -2   97.44   20.37
  -2  -8  -1  132.76   23.90
  -2  -8   0  166.67   24.96
  -2  -8   0  101.68   18.76
  -2  -7 -14   12.60    9.82
  -2  -7 -12   75.39   12.96
   2  -7  12   19.68    8.27
   2  -7  11   14.84    8.07
   2  -7  10   -3.69    8.13
  -2  -7 -10    6.77   12.97
  -2  -7  -9  374.63   36.12
   2  -7   9  303.88   31.05
  -2  -7  -8    1.71   11.40
   2  -7   8    2.39   10.52
   2  -7   7  103.68   15.56
  -2  -7  -7  106.98   14.64
  -2  -7  -6   80.80   15.45
  -2  -7  -6   78.59   19.85
  -2  -7  -5  334.15   34.58
  -2  -7  -5  239.87   26.50
  -2  -7  -4   66.35   15.91
   2  -7   4   13.10   14.98
  -2  -7  -4   12.80   18.15
  -2  -7  -3  189.91   21.20
   2  -7   3   52.63   16.77
  -2  -7  -3  245.45   28.34
   2  -7   2    5.43   12.23
  -2  -7  -2   50.59   15.29
  -2  -7  -2   52.10   15.26
   2  -7   1   41.40   11.09
  -2  -7  -1   63.15   15.14
  -2  -7  -1   79.62   16.86
  -2  -7   0  138.68   18.41
   2  -7   0   73.82   13.91
  -2  -7   0  138.24   20.43
  -2  -6 -13    0.00   10.32
   2  -6  13   -1.24    7.16
   2  -6  12   46.70   10.58
   2  -6  12   -4.06   20.29
  -2  -6 -12   89.33   14.06
   2  -6  11   24.87   18.36
  -2  -6 -11   47.25   14.33
   2  -6  11   39.22    8.50
  -2  -6 -10  220.74   24.68
   2  -6  10  178.14   25.29
   2  -6  10  143.76   18.64
   2  -6   9    7.10    8.00
  -2  -6  -9    1.78   11.89
   2  -6   9  -10.42   19.01
   2  -6   8  696.03   52.66
  -2  -6  -8  608.40   52.15
   2  -6   8  549.22   48.00
  -2  -6  -7   78.15   14.35
   2  -6   7   38.30   14.25
   2  -6   7  106.51   15.51
   2  -6   6  111.40   17.31
   2  -6   6  223.80   21.09
  -2  -6  -6  256.73   25.09
  -2  -6  -6  170.76   21.32
  -2  -6  -5   27.16   14.20
   2  -6   5    1.82   13.38
  -2  -6  -5   38.81   16.61
  -2  -6  -4  545.89   44.30
   2  -6   4  323.32   38.66
  -2  -6  -4  626.15   47.60
  -2  -6  -3   15.45   12.98
   2  -6   3   11.30   13.30
  -2  -6  -3    2.07   13.44
  -2  -6  -2   61.36   15.32
   2  -6   2   22.07   13.12
  -2  -6  -2   57.16   15.65
  -2  -6  -1    9.61   14.74
   2  -6   1   32.45   12.47
  -2  -6  -1   27.28   16.32
  -2  -6   0   37.06   13.47
  -2  -6   0   17.49   23.53
   2  -6   0   29.41   10.50
  -2  -5 -18   84.23   17.57
  -2  -5 -17   88.86   14.99
  -2  -5 -16   54.35   11.63
  -2  -5 -15   19.09   11.49
  -2  -5 -14  192.63   20.73
   2  -5  13   58.78   12.57
   2  -5  13   41.70   20.92
  -2  -5 -12  129.18   15.19
   2  -5  12   69.65   12.43
   2  -5  12   36.61   17.30
   2  -5  11    7.83   19.23
   2  -5  11   21.33    7.26
  -2  -5 -11   31.49   13.45
   2  -5  10   49.34    9.31
   2  -5  10   72.39   20.60
  -2  -5 -10   76.11   15.75
   2  -5   9  419.36   44.04
   2  -5   9  493.00   41.19
  -2  -5  -9  492.08   44.44
   2  -5   8   12.74    9.44
   2  -5   8   -8.84   17.00
   2  -5   7  220.62   27.40
   2  -5   7  413.08   28.92
  -2  -5  -7  305.26   28.77
  -2  -5  -6  110.80   17.93
  -2  -5  -6  202.76   23.80
   2  -5   6  219.91   20.60
   2  -5   6  133.44   19.16
  -2  -5  -5  305.85   27.87
   2  -5   5  121.02   24.07
  -2  -5  -5  238.47   23.63
  -2  -5  -4   60.08   14.90
   2  -5   4   49.62   12.68
  -2  -5  -4   88.97   16.37
  -2  -5  -3  507.26   39.00
   2  -5   3  377.39   40.10
  -2  -5  -3  498.64   39.70
   2  -5   2  267.25   32.00
  -2  -5  -2  334.47   27.54
  -2  -5  -2  372.84   30.30
  -2  -5  -1  112.74   18.98
  -2  -5  -1  120.81   17.33
   2  -5   1  112.11   18.48
  -2  -5   0  521.83   36.20
   2  -5   0  429.99   35.87
  -2  -5   0  524.35   43.72
  -2  -4 -19  182.40   22.60
  -2  -4 -18   16.88   14.37
  -2  -4 -17  153.57   19.88
  -2  -4 -15  299.09   27.38
   2  -4  13   17.47   19.50
  -2  -4 -12   92.80   16.91
   2  -4  12   54.27   15.97
  -2  -4 -11  221.15   22.39
   2  -4  11  118.03   23.55
   2  -4  11   97.48   13.47
  -2  -4 -10   -2.39   12.54
   2  -4  10    0.00    4.77
   2  -4  10   -1.41   18.35
   2  -4   9   30.12    6.73
  -2  -4  -9   73.12   14.77
   2  -4   9   39.00   18.50
  -2  -4  -8  139.30   16.49
   2  -4   8   98.49   20.15
   2  -4   8  144.44   13.99
  -2  -4  -7  215.40   21.91
   2  -4   7  263.89   19.45
   2  -4   7  154.91   23.84
  -2  -4  -6   61.35   14.44
   2  -4   6   52.67    8.94
  -2  -4  -6   33.95   13.23
   2  -4   6   20.89   14.64
  -2  -4  -5  401.64   31.27
  -2  -4  -5  299.37   30.23
   2  -4   5  241.77   25.87
  -2  -4  -4  300.77   27.03
  -2  -4  -4  381.00   27.44
   2  -4   4  261.75   26.92
  -2  -4  -3  490.00   37.92
   2  -4   3  419.63   43.48
  -2  -4  -3  614.02   41.05
   2  -4   2    8.84   15.64
  -2  -4  -2   54.79   12.89
  -2  -4  -2   59.37   16.76
  -2  -4  -1 1230.68   69.17
  -2  -4  -1 1259.18   78.19
   2  -4   1 1060.37   75.49
  -2  -4   0  349.00   27.56
   2  -4   0  333.45   28.53
  -2  -3 -19   23.83   14.60
  -2  -3 -18  188.07   22.03
  -2  -3 -16   46.01   12.66
  -2  -3 -15   16.78   12.13
  -2  -3 -14  210.45   19.96
   2  -3  14   43.89   18.10
   2  -3  13   25.94   13.02
  -2  -3 -13   58.46   12.95
   2  -3  12  141.57   22.29
  -2  -3 -12  364.01   30.49
  -2  -3 -11  283.70   30.38
  -2  -3 -10  320.12   28.39
   2  -3   9   11.07    4.78
  -2  -3  -9   28.37   13.91
   2  -3   9    4.07   12.22
  -2  -3  -8  240.52   28.03
   2  -3   8  222.19   18.15
   2  -3   8  174.22   27.56
  -2  -3  -7  204.96   22.18
   2  -3   7  260.24   15.55
   2  -3   7  155.47   22.15
  -2  -3  -6  575.19   50.78
  -2  -3  -6  976.93   56.97
   2  -3   6  530.68   47.25
  -2  -3  -5  738.25   44.74
   2  -3   5  452.05   39.28
  -2  -3  -5  525.33   42.54
   2  -3   4  199.82   23.59
  -2  -3  -4  291.77   23.43
  -2  -3  -4  302.65   25.60
  -2  -3  -3   31.84   13.18
   2  -3   3   21.99   12.67
  -2  -3  -3   36.52   11.31
  -2  -3  -2  670.68   43.72
   2  -3   2  487.90   42.39
  -2  -3  -2  566.02   47.37
   2  -3   1  374.06   33.86
  -2  -3  -1  433.31   29.05
  -2  -3   0 1096.88   58.13
   2  -3   0 1108.82   67.89
  -2  -2 -18  113.39   17.28
  -2  -2 -17   44.04   11.70
  -2  -2 -15   38.25   10.33
   2  -2  14   91.59   16.05
  -2  -2 -14  210.79   23.10
   2  -2  13   83.38   17.87
  -2  -2 -13  200.39   21.11
   2  -2  12   74.08   18.28
  -2  -2 -12  168.99   19.32
   2  -2  11  234.65   28.83
  -2  -2 -11  472.88   40.06
   2  -2  10  301.64   41.29
  -2  -2 -10  642.04   47.23
   2  -2   9  162.36   27.17
  -2  -2  -9  265.44   23.93
   2  -2   8   53.37   15.23
  -2  -2  -8   85.54   14.46
   2  -2   7  896.46   82.04
  -2  -2  -7 1237.90   78.82
   2  -2   6  576.27   46.82
   2  -2   5  558.29   49.50
  -2  -2  -5  794.30   55.00
  -2  -2  -5 1037.21   56.18
  -2  -2  -4   32.29   12.66
   2  -2   4   14.00   10.67
  -2  -2  -4    8.35    7.16
  -2  -2  -3  183.30   20.01
   2  -2   3  108.84   18.66
  -2  -2  -3  237.45   17.45
  -2  -2  -2  759.98   45.60
   2  -2   2  488.52   42.12
  -2  -2  -2  725.45   52.41
  -2  -2  -1   82.27   14.22
   2  -2   1   52.45   13.00
   2  -2   0  123.60   16.39
  -2  -2   0  190.90   19.66
  -2  -1 -21   12.80   13.52
  -2  -1 -20   33.06   12.83
  -2  -1 -19  105.71   17.59
  -2  -1 -18   57.78   12.94
  -2  -1 -17   28.85   11.54
  -2  -1 -15  600.42   49.23
  -2  -1 -14   33.39   11.34
  -2  -1 -13  341.67   28.93
   2  -1  13  152.60   22.14
   2  -1  12   27.01   13.53
  -2  -1 -12   62.29   15.81
   2  -1  11  232.09   32.61
   2  -1  10  144.33   21.96
  -2  -1 -10  225.62   23.64
   2  -1   9  195.93   28.80
  -2  -1  -9  365.46   31.10
   2  -1   9  336.36   20.76
   2  -1   8  111.97   22.71
  -2  -1  -8  221.37   26.41
  -2  -1  -7  224.20   24.20
   2  -1   7  143.99   20.89
   2  -1   6  327.08   36.68
  -2  -1  -6  481.84   36.46
   2  -1   5   77.84   16.36
  -2  -1  -5  147.39   18.49
   2  -1   4  478.08   42.10
  -2  -1  -4  619.99   46.16
  -2  -1  -4  767.71   39.31
  -2  -1  -3 1537.68   77.71
  -2  -1  -3 1533.65   90.59
   2  -1   3 1120.86   82.84
   2  -1   2   62.44   11.76
  -2  -1  -2  109.97   16.11
  -2  -1  -1 1468.63   81.83
   2  -1   1 1120.09   79.52
  -2  -1   0  172.06   19.49
   2  -1   0  195.26   20.72
  -2   0 -21    8.27   11.38
  -2   0 -20   48.52   13.69
  -2   0 -19    3.28   10.58
  -2   0 -18  127.78   19.13
  -2   0 -17   -0.78   11.73
  -2   0 -16  482.29   40.00
  -2   0 -15   -2.14   10.25
  -2   0 -14 1102.63   77.51
  -2   0 -13  -12.41   10.51
  -2   0 -12   71.12   13.38
  -2   0 -11  -17.87   11.38
  -2   0 -10  612.24   46.95
  -2   0  -9    3.05   12.81
  -2   0  -8   20.55   12.21
  -2   0  -7  -31.52   11.43
  -2   0  -6  734.45   47.21
  -2   0  -5   -1.43   12.14
  -2   0  -4  876.91   61.99
  -2   0  -3   14.52    4.44
  -2   0  -3   16.56   12.80
  -2   0  -2 6474.30  310.20
  -2   0  -1   13.26   14.04
  -2   0   0  538.97   43.35
  -2   0   1   10.02   10.79
  -2   0   2 5012.20  247.69
  -2   0   3   -9.48   10.21
  -2   0   4  871.39   54.26
  -2   0   5   26.10   13.07
  -2   0   6  650.75   44.24
  -2   0   7    3.93   11.12
  -2   0   8   17.42   10.34
  -2   0  10  765.02   61.07
  -2   0  11   12.52   14.50
  -2   0  11    0.70    6.70
  -2   0  12   96.46   11.19
  -2   0  12   66.08   18.38
  -2   0  13    3.90    6.18
  -2   0  13   -4.84   14.52
  -2   0  14  656.10   63.12
  -2   0  15   20.25   18.10
  -2   0  16  375.21   44.77
  -2   0  17   34.80   24.47
  -2   0  18  165.33   31.05
  -2   0  19  -18.42   25.06
  -2   0  20   57.41   31.34
  -2   0  21   -7.12   32.02
   2   1  -1 1440.32   69.32
  -2   1   1 1192.60   78.05
   2   1  -2  144.02   18.49
  -2   1   2  122.00   15.82
   2   1  -3 1416.90   83.05
  -2   1   3 1322.75   74.57
  -2   1   4  685.14   43.06
   2   1  -4  784.84   45.88
  -2   1   5  266.01   21.76
   2   1  -5  269.88   23.70
   2   1  -6  665.15   40.58
  -2   1   6  517.56   34.55
   2   1  -7  263.63   23.74
  -2   1   7  178.96   16.54
   2   1  -8  268.87   24.00
  -2   1   8  283.33   24.74
  -2   1   9  455.59   38.13
   2   1  -9  454.22   32.13
   2   1 -10  272.51   20.81
  -2   1  10  231.63   23.75
  -2   1  11  580.24   48.85
  -2   1  11  791.65   59.47
  -2   1  12   80.88   16.94
  -2   1  13  232.42   29.67
  -2   1  14   35.44    8.26
  -2   1  14   51.04   17.39
  -2   1  15  399.75   47.64
  -2   1  16   -6.84   20.53
  -2   1  17   37.78   24.23
  -2   1  18   16.36   23.81
  -2   1  19  137.10   30.28
  -2   1  20   25.23   31.56
   2   2  -1  149.16   18.94
   2   2  -2  893.19   59.74
   2   2  -3  285.58   25.07
  -2   2   3  230.12   20.88
  -2   2   4   20.01   11.56
   2   2  -4    2.63   12.47
  -2   2   5  886.59   56.42
   2   2  -5 1039.84   60.81
  -2   2   6  867.08   55.05
   2   2  -6 1010.33   53.21
  -2   2   7 1561.25   93.85
   2   2  -7 1564.07   82.87
  -2   2   8   94.73   14.40
   2   2  -8  119.59   15.09
   2   2  -9  374.12   28.09
  -2   2   9  296.64   24.21
  -2   2  10  781.70   56.56
  -2   2  11  556.43   45.16
  -2   2  11  427.38   42.41
  -2   2  12  196.16   18.82
  -2   2  12  167.68   22.96
  -2   2  13  143.17   22.26
  -2   2  13  208.50   20.33
  -2   2  14  178.71   24.37
  -2   2  14  233.25   25.84
  -2   2  15   40.53   15.59
  -2   2  16   11.65   16.76
  -2   2  17   71.25   24.48
  -2   2  18   93.77   24.60
  -2   3   1  675.75   40.73
   2   3  -1  636.77   45.14
  -2   3   2  833.26   51.66
   2   3  -2  836.99   55.83
  -2   3   2  760.73   50.95
   2   3  -3   50.74   14.56
  -2   3   3   70.69   12.53
  -2   3   4  204.33   20.31
   2   3  -4  328.52   27.47
   2   3  -5  617.72   44.44
  -2   3   5  538.61   41.23
  -2   3   6  756.03   53.36
   2   3  -6  879.91   51.47
  -2   3   7  143.24   16.19
   2   3  -7  252.75   22.46
  -2   3   8  377.89   40.11
   2   3  -8  356.58   32.73
  -2   3   9   27.87   11.67
   2   3  -9   23.40   13.52
  -2   3   9   41.62    7.40
  -2   3  10  429.69   38.11
  -2   3  10  357.42   34.63
  -2   3  11  341.97   30.51
  -2   3  11  252.54   28.39
  -2   3  12  373.35   35.35
  -2   3  13   51.65    9.84
  -2   3  13   57.91   15.89
  -2   3  14  194.73   25.24
  -2   3  14  278.95   27.49
  -2   3  15    0.72   15.06
  -2   3  16   50.16   17.72
   2   4  -1 1527.09   92.40
  -2   4   1 1444.54   83.44
  -2   4   1 1218.87   79.99
  -2   4   2   65.34    9.83
   2   4  -2   71.30   15.07
  -2   4   2   55.54    9.80
  -2   4   3  883.80   82.69
   2   4  -3  773.83   56.68
  -2   4   3  644.66   46.86
   2   4  -4  447.34   34.41
  -2   4   4  452.36   36.92
  -2   4   4  362.76   29.27
   2   4  -5  398.83   29.58
  -2   4   5  301.12   41.39
  -2   4   5  325.32   28.27
   2   4  -6   66.29   14.62
  -2   4   6   45.38   10.96
   2   4  -7  297.38   23.19
  -2   4   7  267.26   24.56
   2   4  -8  158.30   17.14
  -2   4   8  243.71   23.56
  -2   4   8  174.11   20.61
  -2   4   9   69.68   13.66
  -2   4  10   -6.19   11.51
  -2   4  10    2.77    4.16
  -2   4  11  241.46   27.99
  -2   4  11  246.95   27.86
  -2   4  12  112.28   19.26
  -2   4  13  179.30   23.32
  -2   4  14   18.55   16.19
   2   5  -1  111.43   18.41
  -2   5   1  130.16   18.01
  -2   5   1  112.66   13.50
   2   5  -2  477.86   40.85
  -2   5   2  390.41   32.31
  -2   5   2  451.31   35.38
   2   5  -3  597.09   48.23
  -2   5   3  616.28   45.30
  -2   5   3  639.99   45.36
   2   5  -4   74.15   16.44
  -2   5   4   62.37    9.69
  -2   5   4   74.07   14.95
  -2   5   5  280.60   24.06
  -2   5   5  369.25   31.08
   2   5  -5  312.52   28.17
  -2   5   6  108.43   21.07
   2   5  -6  157.34   19.43
  -2   5   6  114.02   14.69
  -2   5   7  217.72   25.41
  -2   5   7  349.43   38.02
  -2   5   7  299.77   41.35
   2   5  -7  329.77   28.51
  -2   5   8    9.39    8.09
  -2   5   8    7.80   17.73
  -2   5   9  479.36   54.08
  -2   5   9  420.48   58.31
  -2   5   9  511.91   80.30
  -2   5  10   62.56   13.08
  -2   5  11   27.61   12.82
   2   6  -1   25.13   14.15
  -2   6   1   25.08    7.85
  -2   6   2   86.78   11.23
  -2   6   2   65.79   14.87
   2   6  -2   55.53   15.69
  -2   6   3   17.56    5.85
  -2   6   3   26.97   14.20
   2   6  -3   11.20   10.68
  -2   6   4  644.45   52.04
  -2   6   5   32.91   13.51
  -2   6   6  196.32   24.79
  -2   6   7   76.54   19.77
  -2   7   1   81.10   13.97
  -2   7   3  184.71   24.35
  -2   7   4   34.95   18.52
   1  -9  10    4.87   13.63
   1  -9  10  -24.44   22.31
   1  -9   9   10.22   19.32
   1  -9   9   15.99   11.88
   1  -9   8  107.81   20.40
   1  -9   8  132.13   25.49
   1  -9   7   18.65   10.65
   1  -9   7    2.24   19.06
   1  -9   6  141.05   22.67
   1  -9   6  184.62   28.21
   1  -9   5    4.05    9.02
   1  -9   5   -2.23   19.55
   1  -9   4   95.93   22.18
  -1  -9  -4   99.67   11.78
   1  -9   4  101.60   17.43
  -1  -9  -3   22.35    8.44
   1  -9   3   35.64   19.64
   1  -9   3   38.74   11.02
  -1  -9  -2   39.55   19.35
   1  -9   2   44.20   19.56
  -1  -9  -2   30.20    9.11
  -1  -9  -1   74.90   19.64
  -1  -9  -1   64.80   12.66
  -1  -9   0  132.31   23.31
   1  -8  14  144.11   26.09
   1  -8  13   67.00   15.25
   1  -8  13   32.17   19.74
   1  -8  12  102.93   17.41
   1  -8  12   83.65   26.39
   1  -8  11   44.73   14.34
   1  -8  11   89.45   22.81
   1  -8  10   22.49   20.77
   1  -8  10   15.28   12.28
   1  -8   9   35.26   19.33
   1  -8   9   62.96   15.23
   1  -8   8    0.43    9.39
   1  -8   8   -9.31   15.72
   1  -8   7   48.01   18.39
   1  -8   7   34.77    8.85
  -1  -8  -6   14.25    6.57
   1  -8   6    0.00    7.56
   1  -8   6   -4.92   14.23
   1  -8   5   51.52    9.91
  -1  -8  -5   55.68    8.91
  -1  -8  -5  150.27   31.46
  -1  -8  -5   70.88   20.57
   1  -8   5   41.72   17.00
  -1  -8  -4  109.16   13.32
   1  -8   4  108.34   15.12
   1  -8   4  177.07   24.05
  -1  -8  -4  196.45   27.28
  -1  -8  -3  165.99   23.72
   1  -8   3  156.57   21.70
   1  -8   3   74.02   11.96
   1  -8   3   93.93   13.03
  -1  -8  -3  116.64   13.51
  -1  -8  -2  318.13   31.81
  -1  -8  -2  252.97   22.56
   1  -8   2  258.56   25.84
   1  -8   2  157.89   16.64
  -1  -8  -1  224.44   29.15
   1  -8   1  217.83   19.02
  -1  -8  -1  412.00   61.76
  -1  -8  -1  189.21   22.44
   1  -8   1  111.38   11.71
  -1  -8   0  893.57  121.18
  -1  -8   0  341.99   35.95
  -1  -8   0  345.71   38.98
  -1  -7 -15   65.91   17.90
  -1  -7 -14   12.46    4.66
  -1  -7 -13   87.66   19.13
   1  -7  12   33.83   18.71
   1  -7  11  412.88   52.24
   1  -7  11  214.77   25.08
   1  -7  10   35.87   17.69
   1  -7  10   53.69   19.71
   1  -7   9  406.32   48.20
  -1  -7  -9  383.63   32.17
   1  -7   9  239.90   28.60
   1  -7   8    4.92   14.76
   1  -7   8    3.51   10.53
  -1  -7  -7   63.52    8.77
   1  -7   7   39.08   10.67
   1  -7   7   87.46   17.34
   1  -7   6   14.60    8.90
  -1  -7  -6   18.00    6.87
  -1  -7  -5   92.95   11.36
  -1  -7  -5  141.60   21.44
   1  -7   5   91.24   11.99
   1  -7   5  105.80   16.28
  -1  -7  -4  189.07   18.63
  -1  -7  -4  253.21   27.05
   1  -7   4  224.52   22.01
   1  -7   4  235.70   22.61
   1  -7   4  140.43   14.17
  -1  -7  -3  307.04   25.88
   1  -7   3  198.60   20.79
  -1  -7  -3  406.33   35.74
   1  -7   3  323.44   30.03
   1  -7   2  227.23   21.85
   1  -7   2  211.90   23.93
  -1  -7  -2  195.87   20.71
  -1  -7  -2  226.70   27.03
   1  -7   2  101.80   14.03
   1  -7   1  142.06   14.86
  -1  -7  -1  581.28   56.44
  -1  -7  -1  219.57   24.15
   1  -7   1  243.78   21.41
   1  -7   1  168.76   24.97
  -1  -7  -1  225.69   24.55
  -1  -7   0  353.78   34.39
  -1  -7   0  156.89   19.95
  -1  -7   0  154.87   21.35
   1  -7   0  162.53   13.13
   1  -7   0  108.00   10.57
   1  -7   0  146.44   18.98
  -1  -6 -18    7.44    5.12
  -1  -6 -17   15.88    6.26
  -1  -6 -15   13.21    5.33
  -1  -6 -14   32.53    6.57
  -1  -6 -13   16.28    4.85
   1  -6  13    3.02   16.59
   1  -6  12  477.19   53.54
  -1  -6 -11   54.75    7.43
   1  -6  11   29.43   17.40
   1  -6  10  756.74   62.35
   1  -6   9   47.76   16.47
   1  -6   9   35.78   12.51
  -1  -6  -8  438.75   34.29
   1  -6   8  419.01   44.37
   1  -6   8  336.07   38.30
  -1  -6  -7   31.35    8.23
   1  -6   7   67.07   14.88
   1  -6   7   25.30   13.04
  -1  -6  -6   21.27    7.54
   1  -6   6   24.95   10.56
   1  -6   6   11.59   11.61
  -1  -6  -5   10.97    7.93
  -1  -6  -5   42.67   15.11
   1  -6   5   23.37   10.16
   1  -6   4  428.62   33.61
  -1  -6  -4  678.09   51.36
  -1  -6  -4  394.73   35.26
   1  -6   4  603.46   45.63
  -1  -6  -3    2.58    9.68
  -1  -6  -3   39.89   16.13
   1  -6   3    7.87    7.88
   1  -6   3   22.28   13.40
  -1  -6  -2  530.89   39.79
   1  -6   2  591.45   42.68
  -1  -6  -2  506.07   40.30
  -1  -6  -1    6.72   12.77
  -1  -6  -1   11.28   15.39
   1  -6   1   28.28   13.86
  -1  -6   0  618.59   43.52
  -1  -6   0  592.42   42.58
   1  -6   0  591.89   36.43
   1  -6   0  659.56   48.42
   1  -6   0  603.13   44.86
  -1  -5 -20   20.93    7.77
  -1  -5 -19   12.95    7.17
  -1  -5 -18   46.57   11.08
  -1  -5 -17   15.20    7.35
  -1  -5 -15   37.47    7.39
   1  -5  15   25.42   18.08
   1  -5  14  108.73   24.59
  -1  -5 -14  245.73   28.33
  -1  -5 -13  122.54   15.49
   1  -5  13   74.96   20.90
  -1  -5 -12  319.73   26.86
   1  -5  12  178.63   25.15
   1  -5  11  273.88   33.92
  -1  -5 -11  490.30   36.50
  -1  -5 -10  117.75   12.27
   1  -5  10   60.46   18.31
  -1  -5  -9  497.50   36.96
  -1  -5  -8   21.66    8.70
   1  -5   8    9.11   14.42
  -1  -5  -7  113.10   11.91
   1  -5   7  103.90   16.01
   1  -5   7   79.75   16.88
  -1  -5  -6   19.31    7.50
   1  -5   6   46.70   12.01
   1  -5   6   15.49   11.18
  -1  -5  -5  116.87   14.55
  -1  -5  -5  225.47   23.04
   1  -5   5  143.21   17.65
   1  -5   5  178.39   19.30
  -1  -5  -4   33.86    8.99
   1  -5   4   22.74    9.28
  -1  -5  -4   46.10   15.02
   1  -5   4   39.15   10.76
  -1  -5  -3  718.96   46.10
  -1  -5  -3  826.65   52.12
   1  -5   3  681.03   47.29
   1  -5   3  809.96   50.92
  -1  -5  -2  950.40   57.41
  -1  -5  -2  989.89   63.69
   1  -5   2  755.85   49.14
   1  -5   2  990.98   60.13
  -1  -5  -1  559.74   37.99
  -1  -5  -1  526.15   36.34
   1  -5   1  356.90   31.22
   1  -5   1  534.08   40.01
  -1  -5   0 1435.01   80.35
   1  -5   0 1562.33   92.69
  -1  -5   0 1382.30   87.07
  -1  -4 -21   65.63   14.19
  -1  -4 -20    8.74    9.71
  -1  -4 -19  169.80   22.29
  -1  -4 -18   28.35    9.59
  -1  -4 -17   73.16   12.19
  -1  -4 -16  125.24   15.35
  -1  -4 -15  148.56   19.64
   1  -4  14   67.30   15.55
  -1  -4 -13  659.56   50.10
   1  -4  13  130.86   21.55
   1  -4  12   73.99   16.34
   1  -4  11   86.19   22.31
  -1  -4 -11  549.09   35.41
  -1  -4 -10  129.03   14.39
   1  -4  10   25.56   13.17
  -1  -4  -9  151.70   15.75
   1  -4   9   62.56   16.56
  -1  -4  -8   75.34   10.75
   1  -4   8   34.94   12.46
  -1  -4  -7  153.91   14.91
   1  -4   7  106.00   14.76
  -1  -4  -6  166.49   14.09
   1  -4   6  118.58   17.18
  -1  -4  -5  206.42   19.17
  -1  -4  -5  298.02   24.94
   1  -4   5  163.80   22.04
   1  -4   5  247.73   21.78
  -1  -4  -4  172.95   16.95
  -1  -4  -4  234.16   21.41
   1  -4   4  195.59   18.67
   1  -4   4  202.65   17.32
  -1  -4  -3  794.50   50.93
   1  -4   3  763.50   51.35
   1  -4   3  821.95   51.20
  -1  -4  -3  910.29   50.75
  -1  -4  -2  312.04   26.34
  -1  -4  -2  347.12   24.33
   1  -4   2  311.42   23.34
   1  -4   2  375.26   26.02
  -1  -4  -1 3256.21  159.81
   1  -4   1 2521.83  145.19
   1  -4   1 3488.82  170.71
  -1  -4  -1 2976.88  154.40
  -1  -4   0  908.16   53.24
  -1  -4   0  906.88   54.25
   1  -4   0  648.82   37.61
   1  -4   0 1085.66   62.76
  -1  -3 -20  112.12   17.76
  -1  -3 -19  139.35   19.71
  -1  -3 -18  178.15   23.11
  -1  -3 -17   19.64   10.31
  -1  -3 -16  195.24   20.03
   1  -3  15   83.66   12.84
  -1  -3 -13  362.62   30.53
   1  -3  13  170.07   22.77
  -1  -3 -12  958.76   55.70
   1  -3  12  347.42   34.71
  -1  -3 -11   22.39   10.41
   1  -3  11    8.44   11.82
  -1  -3 -10  297.92   24.01
  -1  -3  -9  551.24   36.44
   1  -3   9  311.95   27.41
  -1  -3  -8  698.52   42.38
   1  -3   8  443.47   39.57
  -1  -3  -7  634.15   39.75
   1  -3   7  374.19   38.36
  -1  -3  -6  829.24   42.92
   1  -3   6  733.57   53.29
  -1  -3  -5  247.34   19.16
  -1  -3  -5  406.78   25.48
   1  -3   5  232.66   22.05
  -1  -3  -4  485.72   29.76
  -1  -3  -4  609.03   37.37
   1  -3   4  436.98   39.16
   1  -3   4  551.02   40.65
  -1  -3  -3   83.16   13.83
  -1  -3  -3   66.09   11.19
   1  -3   3   59.94    9.70
   1  -3   3   79.30    9.99
  -1  -3  -2 1134.74   67.23
  -1  -3  -2 1229.03   63.24
   1  -3   2  947.02   59.26
   1  -3   2 1091.72   57.39
  -1  -3  -1  211.94   17.64
  -1  -3  -1  202.60   16.13
   1  -3   1  139.81   14.48
   1  -3   1  214.18   18.43
  -1  -3   0 2474.53  122.22
   1  -3   0 2039.95   99.17
  -1  -2 -22  171.05   24.05
  -1  -2 -20  201.28   22.18
  -1  -2 -19  127.15   17.35
  -1  -2 -18  143.48   18.07
  -1  -2 -17   82.74   13.91
  -1  -2 -16   85.48   12.93
  -1  -2 -15   25.07    8.76
   1  -2  15   -0.41    7.79
  -1  -2 -13  366.54   29.17
   1  -2  13  146.82   17.59
   1  -2  12   48.69   11.17
   1  -2  11  210.48   22.19
  -1  -2 -10  831.14   50.52
   1  -2  10  411.96   31.12
  -1  -2  -9 1343.34   77.14
   1  -2   9  812.70   58.80
  -1  -2  -8  925.17   58.42
   1  -2   8  598.72   49.01
  -1  -2  -7 2330.15  115.60
   1  -2   7 1787.99  118.23
  -1  -2  -6 1104.17   58.32
   1  -2   6  947.87   64.80
  -1  -2  -5 1559.09   81.91
   1  -2   5 1551.49  102.03
  -1  -2  -4  604.89   36.78
  -1  -2  -4  825.77   42.56
   1  -2   4  606.28   46.39
  -1  -2  -3  254.12   19.28
  -1  -2  -3  245.63   18.13
   1  -2   3  191.87   20.96
   1  -2   3  230.40   18.27
  -1  -2  -2  199.75   17.32
  -1  -2  -2  179.29   14.12
   1  -2   2  142.03   14.35
   1  -2   2  175.93   13.41
   1  -2   1  201.25   16.34
  -1  -2  -1  273.41   20.14
  -1  -2   0  192.91   14.69
   1  -2   0  129.83   12.88
  -1  -1 -22   47.56   16.99
  -1  -1 -21  100.07   16.78
  -1  -1 -20   86.15   15.28
  -1  -1 -17  717.09   55.65
  -1  -1 -16   -3.28    9.37
  -1  -1 -15  616.92   45.68
   1  -1  14   16.35   10.36
  -1  -1 -13  107.94   13.25
   1  -1  13   47.57   11.96
  -1  -1 -12   98.40   12.86
   1  -1  12   59.01   11.43
  -1  -1 -11  235.72   19.94
   1  -1  11  104.62   12.68
  -1  -1 -10  149.94   15.08
   1  -1  10   91.11   11.15
  -1  -1  -9 1932.42  105.08
   1  -1   9 1122.46   73.39
  -1  -1  -8  603.45   39.65
   1  -1   8  402.16   30.37
  -1  -1  -7 1525.69   86.99
   1  -1   7 1127.63   76.42
  -1  -1  -6 1600.51   87.03
   1  -1   6 1407.86   86.13
   1  -1   5 2920.08  164.24
  -1  -1  -5 2950.19  145.59
   1  -1   4 1558.44   94.30
  -1  -1  -4 1691.01   88.11
   1  -1   3 3132.28  188.12
  -1  -1  -3 3556.04  182.35
  -1  -1  -3 4293.35  201.38
  -1  -1  -2  433.99   28.18
  -1  -1  -2  427.95   28.21
   1  -1   2  347.08   28.56
  -1  -1  -1   62.06   11.56
   1  -1   1   58.13    8.93
  -1  -1   0  115.63   12.04
   1  -1   0  114.12   12.05
  -1   0 -22   85.49   16.82
  -1   0 -21  -14.95   13.31
  -1   0 -20  154.01   17.71
  -1   0 -19    6.46   11.20
  -1   0 -17   -3.56    9.80
  -1   0 -16 1564.58  102.64
  -1   0 -15   -4.60    8.74
  -1   0 -14  572.57   41.21
  -1   0 -13   12.89    9.08
  -1   0 -12   86.57   12.22
  -1   0 -11    3.02   11.59
  -1   0 -10  642.67   39.89
  -1   0  -9   -9.29    7.66
  -1   0  -8  723.90   45.47
  -1   0  -7    9.68    9.08
  -1   0  -6 1197.26   68.13
  -1   0  -5   22.14    9.14
  -1   0  -4 4384.78  223.47
  -1   0  -3    2.02    8.10
  -1   0  -2 2986.13  160.42
  -1   0  -2 3131.75  148.58
  -1   0  -1   55.30   12.29
  -1   0   0 2626.20  122.04
  -1   0   1   87.07   13.24
  -1   0   2 3953.22  193.19
  -1   0   3  -20.50    8.91
  -1   0   4 4686.67  232.57
  -1   0   5   34.83    9.08
  -1   0   6  896.33   56.34
  -1   0   7    4.17    7.83
  -1   0   7    5.91    3.63
  -1   0   8  508.18   38.80
  -1   0   8  595.13   41.52
  -1   0   9   -4.08    8.17
  -1   0   9   -1.12    3.07
  -1   0  10  329.34   28.71
  -1   0  11    5.34   10.16
  -1   0  11   -3.09    3.94
  -1   0  12   67.12   11.93
  -1   0  12   59.65    8.12
  -1   0  13   17.53   13.60
  -1   0  13   -4.85    5.17
  -1   0  14  256.01   28.80
  -1   0  15  -18.31   14.21
  -1   0  15   -7.98    7.99
  -1   0  16  592.83   55.87
  -1   0  17  -12.10   15.14
  -1   0  18  521.58   44.04
  -1   0  19    7.90   17.02
  -1   0  20   67.69   18.49
  -1   0  21    7.78   19.16
  -1   0  22   39.54   18.41
  -1   0  23  -20.87   21.48
   1   1  -1   82.12    9.59
  -1   1   1   77.33   10.43
   1   1  -2  635.34   35.22
  -1   1   2  589.28   34.50
   1   1  -3 5771.77  255.21
  -1   1   3 4291.72  228.99
   1   1  -4 2445.64  115.95
  -1   1   4 2094.51  117.74
   1   1  -5 3096.73  158.14
  -1   1   5 3017.49  170.86
   1   1  -6 1584.19   86.85
  -1   1   6 1648.94  100.21
  -1   1   7 1571.80   89.98
  -1   1   8  416.04   35.14
  -1   1   8  473.37   34.07
  -1   1   9 1312.08   87.98
  -1   1   9 1179.72   88.51
  -1   1  10   91.14   11.35
  -1   1  10  109.18   14.78
  -1   1  11  148.70   18.61
  -1   1  12  131.10   18.00
  -1   1  12  117.21   11.76
  -1   1  13  107.74   16.62
  -1   1  14   27.54    8.62
  -1   1  14   14.02   12.03
  -1   1  15  521.09   41.66
  -1   1  15  612.34   48.49
  -1   1  16    4.37    8.74
  -1   1  16    5.28   12.53
  -1   1  17  485.07   41.99
  -1   1  18   11.44   15.90
  -1   1  19  185.72   22.58
  -1   1  20   27.00   17.45
  -1   1  21   74.08   17.80
  -1   1  22    2.78   18.92
   1   2  -1  276.79   21.06
  -1   2   1  247.26   18.86
  -1   2   1  298.62   23.77
   1   2  -2  257.16   18.92
  -1   2   2  216.76   15.81
   1   2  -3  380.07   24.55
  -1   2   3  405.11   25.22
   1   2  -4  857.77   44.47
  -1   2   4  764.46   44.57
   1   2  -5 2292.42  108.75
  -1   2   5 1817.57  105.48
   1   2  -6 1304.11   69.32
  -1   2   6 1071.73   71.38
  -1   2   6 1382.21   91.74
  -1   2   7 2362.43  150.37
  -1   2   7 2913.45  181.65
  -1   2   8 1241.23   81.54
  -1   2   8 1329.23   89.01
  -1   2   9 1037.55   73.50
  -1   2   9 1251.40   89.31
  -1   2  10  625.71   45.60
  -1   2  11  554.31   41.61
  -1   2  11  654.08   45.10
  -1   2  12   96.11   15.50
  -1   2  13  361.39   31.59
  -1   2  13  420.43   30.43
  -1   2  14    6.94   13.19
  -1   2  14   27.40   10.55
  -1   2  15   35.19   13.63
  -1   2  15   15.70   10.66
  -1   2  16   87.06   17.51
  -1   2  16  107.52   15.23
  -1   2  17   67.25   14.22
  -1   2  18   98.89   15.27
  -1   2  19   64.20   16.84
  -1   2  20  128.60   20.62
   1   3  -1  267.24   18.95
  -1   3   1  258.44   17.42
  -1   3   1  257.99   16.99
   1   3  -2 1237.02   68.98
  -1   3   2  934.97   56.49
  -1   3   2 1107.39   67.73
   1   3  -3  109.92   12.24
  -1   3   3   76.82    8.04
  -1   3   3  112.47   13.16
   1   3  -4  801.57   43.58
  -1   3   4  791.38   45.28
   1   3  -5  393.89   24.60
  -1   3   5  292.86   21.54
  -1   3   5  446.45   29.69
  -1   3   6  932.30   52.81
  -1   3   7  861.78   54.55
  -1   3   7 1317.00   82.00
  -1   3   8  580.61   38.34
  -1   3   9  434.48   32.66
  -1   3  10  275.35   24.49
  -1   3  10  347.56   25.70
  -1   3  11   19.54   10.89
  -1   3  12  941.71   67.39
  -1   3  12 1131.98   76.55
  -1   3  13  370.73   32.11
  -1   3  13  411.41   33.55
  -1   3  14  416.55   38.01
  -1   3  15  204.65   23.81
  -1   3  15  214.10   25.20
  -1   3  16  147.61   20.05
  -1   3  16  148.99   17.98
  -1   3  17    0.00    9.65
  -1   3  18  157.94   21.87
   1   4  -1 3751.84  192.39
  -1   4   1 3420.57  179.98
   1   4  -2  436.22   29.06
  -1   4   2  394.56   30.76
   1   4  -3 1013.88   60.25
  -1   4   3  816.73   60.64
   1   4  -4  237.12   19.38
  -1   4   4  215.89   20.56
  -1   4   5  304.40   18.07
  -1   4   5  430.86   30.56
  -1   4   6  201.32   12.78
  -1   4   6  285.82   25.42
  -1   4   7  162.83   12.11
  -1   4   7  201.56   24.16
  -1   4   8   69.78    9.40
  -1   4   9  162.44   14.31
  -1   4  10  143.74   14.50
  -1   4  10  159.21   13.64
  -1   4  11  557.87   43.29
  -1   4  12  212.90   22.98
  -1   4  12  271.21   22.37
  -1   4  13  558.22   51.91
  -1   4  13  540.19   44.63
  -1   4  14  126.01   18.46
  -1   4  14  142.06   16.32
  -1   4  15  120.88   19.56
  -1   4  16   70.00   14.34
  -1   4  16   85.49   13.30
   1   5  -1  727.26   48.18
  -1   5   1  635.07   44.15
   1   5  -2 1156.73   74.24
  -1   5   2  885.30   64.93
  -1   5   3  813.77   58.92
   1   5  -3  933.98   61.86
  -1   5   4   56.50   13.46
  -1   5   5  177.55   19.35
  -1   5   6   28.46   13.06
  -1   5   7  105.53   17.57
  -1   5   8    0.00   13.00
  -1   5   9  670.30   63.87
  -1   5  10  123.46   10.79
  -1   5  10  190.98   27.20
  -1   5  10  133.64   12.29
  -1   5  11  442.52   39.14
  -1   5  11  419.76   36.06
  -1   5  11  553.02   67.08
  -1   5  12  296.31   28.75
  -1   5  12  370.40   33.62
  -1   5  13  150.47   19.59
  -1   5  13  113.38   17.13
  -1   5  14  204.07   26.84
  -1   5  14  177.77   25.85
  -1   5  15   37.12   13.03
  -1   6   2  505.39   39.91
  -1   6   3    2.10   14.03
  -1   6   4  504.03   46.82
  -1   6   5   20.05   14.26
  -1   6   6   17.79   12.30
  -1   6   7   37.72   14.28
  -1   6   8  542.21   48.97
  -1   6   9   20.44   15.08
  -1   7   4  159.08   24.95
  -1   7   5   63.71   18.12
   0 -10   5    6.90   15.69
   0 -10   5  -10.90   39.76
   0 -10   4   28.78   28.20
   0 -10   3  131.51   30.36
   0 -10  -1   49.63   23.98
   0  -9  11   55.13   17.09
   0  -9  11   63.70   25.82
   0  -9  10  156.32   24.68
   0  -9  10  157.53   37.54
   0  -9   9   61.11   17.21
   0  -9   9   69.45   28.50
   0  -9   8   37.41   14.17
   0  -9   8   61.09   25.42
   0  -9   7   13.83   11.58
   0  -9   7  -22.06   18.90
   0  -9   6    2.40   11.99
   0  -9   6   35.70   26.74
   0  -9   5   17.25   12.61
   0  -9   5    6.41   24.35
   0  -9   4   61.95   14.30
   0  -9   4   89.72   21.54
   0  -9   3  122.35   19.84
   0  -9  -2  408.32   40.27
   0  -9   2  259.66   27.46
   0  -9  -1  104.64   21.89
   0  -9   1   77.35   12.19
   0  -8  14   68.16   18.15
   0  -8  13  133.11   23.97
   0  -8  12   22.37   17.50
   0  -8  11   73.69   17.96
   0  -8  10  132.75   19.26
   0  -8  10  121.43   30.53
   0  -8   9   33.04   13.65
   0  -8   9   62.92   25.32
   0  -8   8  -13.79   13.28
   0  -8   8    1.34   20.74
   0  -8   7   47.15   13.73
   0  -8   7   44.02   22.59
   0  -8   6  188.00   22.75
   0  -8   6  250.92   36.06
   0  -8   5   29.96   10.48
   0  -8   5   30.91    9.23
   0  -8   4   -1.09   10.31
   0  -8   3  179.81   19.61
   0  -8  -2  442.78   42.12
   0  -8   2  290.79   30.80
   0  -8   2  285.91   43.59
   0  -8   2  377.12   42.43
   0  -8  -1  145.03   23.58
   0  -8   1  138.76   16.80
   0  -8   1  191.26   24.59
   0  -8   0  298.83   25.17
   0  -8   0  444.41   41.65
   0  -7  17   37.34   16.66
   0  -7  16   91.32   18.82
   0  -7  15   76.33   17.42
   0  -7  14  215.07   26.21
   0  -7  13   55.64   14.57
   0  -7  13   47.31   15.75
   0  -7  12   17.55   15.45
   0  -7  12   23.79   12.58
   0  -7  11  206.29   22.49
   0  -7  11  212.61   24.53
   0  -7  10   18.17   13.65
   0  -7  10  -16.25   11.28
   0  -7   9   -2.32   11.58
   0  -7   9   -8.05   14.87
   0  -7   8   74.13   15.51
   0  -7   7 1462.56  105.86
   0  -7   7 1696.17  122.15
   0  -7   7 1298.82  133.74
   0  -7   6   64.36   13.53
   0  -7   5  699.51   51.68
   0  -7   4   79.97   12.98
   0  -7   4   66.77   17.02
   0  -7   3  143.73   16.60
   0  -7  -3  207.15   24.87
   0  -7   3  141.26   20.32
   0  -7   2   25.96    9.15
   0  -7  -2   12.35   17.91
   0  -7   2   43.74    7.26
   0  -7   2   50.46   15.87
   0  -7   1   80.77   12.78
   0  -7  -1   66.47    9.06
   0  -7  -1   73.38   20.34
   0  -7   1   96.08   11.36
   0  -7   1   86.96   19.76
   0  -7   0   -5.38    8.07
   0  -7   0   -0.37    2.58
   0  -7   0  -31.55   13.27
   0  -6  19    3.30   15.03
   0  -6  18  231.58   28.74
   0  -6  17  -11.65   11.68
   0  -6  16   18.92   14.73
   0  -6  15  -21.63   12.51
   0  -6  14  116.86   17.67
   0  -6  14   88.01   16.77
   0  -6  13   -0.44   12.34
   0  -6  13   13.01   13.62
   0  -6  12  103.76   19.55
   0  -6  12  100.12   17.55
   0  -6  11   -9.83   11.81
   0  -6  10   34.73   11.02
   0  -6  10   41.10   16.30
   0  -6   9  215.28   22.45
   0  -6   8 1015.22   71.84
   0  -6   8 1192.97   98.99
   0  -6   7  113.32   16.39
   0  -6   7   83.22   20.08
   0  -6   6 3402.98  198.27
   0  -6   5  270.57   22.31
   0  -6   5  185.09   24.88
   0  -6   4  456.22   33.79
   0  -6   4  486.79   41.11
   0  -6   4  399.74   38.79
   0  -6  -3    9.64   13.50
   0  -6   3    4.78    5.98
   0  -6   3   -1.23   15.42
   0  -6   3   -1.75    8.76
   0  -6  -2   14.45    4.62
   0  -6   2   26.57    9.53
   0  -6   2   18.96    6.42
   0  -6  -2    4.93   12.32
   0  -6   2   18.17   14.68
   0  -6  -1   57.82    8.98
   0  -6  -1   55.94   14.28
   0  -6   1   54.45   10.60
   0  -6   1   80.63    9.61
   0  -6   1   66.16   16.78
   0  -6  -1   83.86    8.29
   0  -6   0   44.23    8.90
   0  -6   0   42.82   15.51
   0  -5  20   -0.67   14.78
   0  -5  19  213.50   25.89
   0  -5  18   73.76   17.00
   0  -5  17   12.22    9.37
   0  -5  16  426.15   47.40
   0  -5  15  173.14   20.98
   0  -5  15  174.89   20.40
   0  -5  14  215.78   25.17
   0  -5  14  229.11   22.44
   0  -5  13    0.00    7.40
   0  -5  13   19.66   11.42
   0  -5  12   22.38   10.70
   0  -5  12    9.63   10.40
   0  -5 -11   27.04    5.37
   0  -5  11    7.86   10.62
   0  -5  11   29.62   11.60
   0  -5 -10   61.45    8.03
   0  -5  10   39.33    9.93
   0  -5  10   59.83   12.15
   0  -5   9   70.50   12.72
   0  -5   9   59.70   11.88
   0  -5  -8  229.89   20.86
   0  -5   8  159.03   17.42
   0  -5   8  163.90   19.16
   0  -5   7 2497.95  159.30
   0  -5   7 2292.29  155.23
   0  -5   6  104.49   13.48
   0  -5   6   91.38   11.79
   0  -5   5 2931.49  170.42
   0  -5   4 1353.89   79.56
   0  -5   4 1488.63   92.58
   0  -5  -3  105.42   16.75
   0  -5   3  125.73   12.19
   0  -5   3  143.16   13.12
   0  -5   3  115.41   18.10
   0  -5  -2  432.32   26.54
   0  -5  -2  575.92   39.15
   0  -5   2  584.67   36.07
   0  -5   2  530.96   39.82
   0  -5  -1   20.82    6.35
   0  -5  -1   20.28    4.32
   0  -5  -1   11.76   12.35
   0  -5   1   28.06    7.70
   0  -5   1   53.81    6.78
   0  -5   1   31.99   12.28
   0  -5   0   -7.13    6.54
   0  -5   0    7.37    4.32
   0  -5   0    6.93   10.97
   0  -4  21   46.63   13.46
   0  -4  20   11.10   13.73
   0  -4 -19   68.44   12.59
   0  -4  19   38.26   14.28
   0  -4 -18  110.04   17.47
   0  -4  18   93.59   13.65
   0  -4 -17  768.16   98.99
   0  -4 -16   98.44   14.15
   0  -4 -15  631.27   66.28
   0  -4  15  310.90   29.80
   0  -4 -14   47.47    7.75
   0  -4  14   41.54   10.28
   0  -4 -13  356.40   33.53
   0  -4  13  189.29   19.62
   0  -4 -12   11.90    5.40
   0  -4  12    6.03    8.61
   0  -4 -11   -1.32    5.73
   0  -4  11  404.83   72.36
   0  -4   7   84.95   10.45
   0  -4   6  526.74   34.98
   0  -4   5 1785.99  119.54
   0  -4   5 1723.52  103.58
   0  -4   4  276.78   21.04
   0  -4  -3 2304.57  130.04
   0  -4  -3 2778.69  148.21
   0  -4   3 3189.22  173.76
   0  -4   3 3560.64  185.44
   0  -4  -2  457.41   29.40
   0  -4  -2  544.93   36.32
   0  -4   2  627.08   35.80
   0  -4   2  814.42   46.46
   0  -4   2  502.95   40.09
   0  -4  -1  502.13   34.53
   0  -4  -1  415.24   26.51
   0  -4   1  558.60   33.65
   0  -4   1  516.77   38.02
   0  -4   0   86.12    9.00
   0  -4   0  102.19   13.41
   0  -3  22   62.73   16.39
   0  -3 -21   14.25    7.54
   0  -3  21   21.31   13.40
   0  -3 -20   93.18   13.97
   0  -3 -19   48.03   10.14
   0  -3 -17    6.07    6.46
   0  -3 -16 1217.17   95.51
   0  -3  16  391.24   36.36
   0  -3 -15  186.21   19.44
   0  -3  15   70.04   10.28
   0  -3 -14  556.43   50.95
   0  -3  14  185.19   19.13
   0  -3  13   17.56    6.13
   0  -3 -12  192.59   18.28
   0  -3  12   73.34   10.77
   0  -3  11   10.81    7.11
   0  -3  10  528.06   39.57
   0  -3   9  489.77   36.10
   0  -3   8  759.15   51.03
   0  -3   6   57.93    7.95
   0  -3  -5  645.92   48.33
   0  -3   4 3008.05  174.42
   0  -3  -3 3858.25  200.13
   0  -3  -3 4137.35  196.84
   0  -3   3 3717.32  206.52
   0  -3  -2 1190.64   70.60
   0  -3  -2 1345.41   72.01
   0  -3   2 1319.19   84.17
   0  -3   2 1450.48   85.27
   0  -3  -1    6.18    4.33
   0  -3  -1   23.58    8.66
   0  -3   1   15.33    4.32
   0  -3   1   17.51    9.41
   0  -3   0    1.66    3.86
   0  -3   0   -3.60    6.60
   0  -2  23   91.25   20.83
   0  -2 -22   25.59   10.47
   0  -2  22   -5.80   14.91
   0  -2 -21  582.92   55.58
   0  -2 -20   14.49   12.04
   0  -2 -19  110.02   15.43
   0  -2 -18   15.72    9.03
   0  -2 -16  527.73   43.00
   0  -2  16  147.29   15.45
   0  -2 -15   61.85   12.47
   0  -2 -14  172.26   17.74
   0  -2  14   58.06    8.76
   0  -2  13   -4.54    4.54
   0  -2  12  643.15   49.63
   0  -2  11  549.45   46.76
   0  -2   9 1821.71  134.78
   0  -2   8  844.28   64.54
   0  -2   6   75.37    7.43
   0  -2   4 1317.47   94.10
   0  -2   3  655.12   48.32
   0  -2  -2  316.96   17.69
   0  -2  -2  401.64   25.07
   0  -2   2  298.68   22.51
   0  -2   1  336.56   26.88
   0  -2  -1  376.93   24.06
   0  -2   1  380.62   28.30
   0  -2  -1  380.47   23.41
   0  -2   0 2621.80  151.15
   0  -2   0 2841.02  168.01
   0  -1  23    5.50   16.04
   0  -1 -22  219.20   27.93
   0  -1 -21  296.71   32.62
   0  -1 -20  231.97   25.08
   0  -1 -19   60.10   13.89
   0  -1 -18   44.02   17.78
   0  -1 -17  412.22   39.71
   0  -1 -16   15.54   10.56
   0  -1  16   -4.09    6.48
   0  -1 -15   28.27   10.72
   0  -1  15   -1.94    5.83
   0  -1  14   42.73    7.22
   0  -1 -14   97.69   13.81
   0  -1 -13 2734.51  197.69
   0  -1  12  263.17   23.43
   0  -1  11  709.76   61.20
   0  -1  10  272.03   27.54
   0  -1   9  156.18   16.92
   0  -1   7  320.30   32.77
   0  -1   6  338.55   35.40
   0  -1  -4  606.06   53.61
   0  -1  -3  108.37   10.19
   0  -1  -2  871.80   56.07
   0  -1  -1 4832.49  248.33
   0  -1  -1 6255.30  280.22
   0  -1   1 3516.22  314.62
   0  -1   0   -0.39    1.17
   0  -1   0   -6.19    3.11
   0   0 -22  137.05   21.21
   0   0 -21    2.85   12.35
   0   0 -20  371.16   36.78
   0   0 -19   -5.23   10.94
   0   0 -18  214.88   22.44
   0   0 -17   -4.23   10.33
   0   0 -16  162.39   17.44
   0   0   3    1.56    2.87
   0   0   4 1210.42  141.87
   0   0   5    5.95    2.78
   0   0   6  181.80   21.19
   0   0   7   10.19    4.19
   0   0   8  123.64   13.50
   0   0   9   18.32    4.73
   0   0  10   22.38    5.35
   0   0  11    8.24    5.05
   0   0  12 2827.56  211.20
   0   0  13   -6.39    8.40
   0   0  14  651.19   51.95
   0   0  15    6.62    7.51
   0   0  16  103.39   13.95
   0   1   1 6543.18  303.95
   0   1   1 6328.11  273.01
   0   1   2  847.90   51.40
   0   1  -2  492.36   62.09
   0   1   4  633.59   50.27
   0   1   8 1119.82   88.93
   0   1   9  329.01   29.51
   0   1  10  535.29   41.43
   0   1  11 1305.44   94.86
   0   1 -12  422.22   36.48
   0   1  13 2153.02  150.51
   0   1 -13 2237.91  155.35
   0   1  14   78.61   12.92
   0   1 -14   70.32    9.96
   0   1  15    4.64    9.86
   0   1 -15   12.21    7.66
   0   1  16   27.99   11.98
   0   1 -16    9.90    8.33
   0   1 -17  265.05   23.53
   0   1 -18   27.78   10.63
   0   1 -19   58.67   13.34
   0   1 -20  210.04   22.48
   0   1 -21  268.17   29.27
   0   1 -22  230.83   27.32
   0   2   1  414.16   25.03
   0   2   1  422.13   25.02
   0   2   2  457.12   26.27
   0   2   2  494.22   29.49
   0   2  -2  332.24   33.37
   0   2   3  952.09   54.73
   0   2   3 1269.30   67.59
   0   2  -3  737.95   79.01
   0   2   4 2049.28  110.63
   0   2   4 2902.69  152.28
   0   2   6  127.28   10.94
   0   2   7  387.55   30.88
   0   2   8 1513.91  105.41
   0   2  10  328.32   26.79
   0   2 -11  958.05   71.49
   0   2  12 1377.33  100.89
   0   2 -12 1065.38   72.17
   0   2  13   -5.07   10.77
   0   2 -13   -3.36    5.04
   0   2  14  117.08   15.04
   0   2 -14  114.59   11.23
   0   2  15   44.71   12.62
   0   2  16  307.21   30.40
   0   2 -16  414.31   30.61
   0   2 -17   40.56   10.19
   0   2 -18   15.46    9.38
   0   2 -19   53.59   11.95
   0   2 -20   34.23   11.80
   0   2 -21  499.72   47.79
   0   3   1   -2.33    5.83
   0   3   2 1343.72   83.07
   0   3   2 1484.53   82.82
   0   3   3 3898.88  195.79
   0   3   3 4265.81  179.46
   0   3   4 3811.00  202.37
   0   3   4 3687.13  189.94
   0   3  -4 3664.81  292.77
   0   3   5  582.38   36.99
   0   3   5  767.26   47.79
   0   3  -5  596.09   52.03
   0   3   6  158.00   18.43
   0   3   6   69.40    7.94
   0   3   7   38.60    6.72
   0   3   7   47.45   12.19
   0   3  -8  964.23   88.30
   0   3   8  908.86   68.18
   0   3   9  680.47   49.07
   0   3  10  802.21   63.45
   0   3 -10  798.40   69.24
   0   3  11   13.63    8.08
   0   3 -11   13.19    4.51
   0   3  12  101.40   13.35
   0   3 -12  101.54   10.89
   0   3  13   34.18    8.99
   0   3  14  281.72   27.73
   0   3 -14  330.99   27.78
   0   3  15  112.42   16.76
   0   3 -15  139.03   13.00
   0   3  16  642.87   55.35
   0   3 -16  877.53   59.74
   0   3 -17    1.50    7.79
   0   3 -18   20.76    9.50
   0   3 -20  100.57   16.29
   0   4   2  568.28   33.96
   0   4   3 2649.27  123.49
   0   4   4  239.30   14.23
   0   4   4  296.01   22.00
   0   4   5 1590.33   86.54
   0   4   5 1690.89   96.80
   0   4   6  557.70   32.90
   0   4   6  628.25   40.53
   0   4  -6  664.68   49.01
   0   4   7   92.08    9.00
   0   4   7   95.96   13.97
   0   4  -7  128.22   12.43
   0   4   8    9.58    6.86
   0   4   8    3.85   10.91
   0   4   9  498.74   40.05
   0   4   9  692.19   56.67
   0   4  -9  714.28   58.17
   0   4  10  271.36   36.10
   0   4  10  365.71   35.22
   0   4 -10  348.68   32.80
   0   4  11    6.41    8.34
   0   4  11   10.26   14.66
   0   4 -11    4.16    5.06
   0   4  12    5.77    6.42
   0   4  12   27.76   16.72
   0   4 -12    6.87    5.75
   0   4  13  193.54   20.26
   0   4 -13  252.36   24.92
   0   4 -14   40.28    7.87
   0   4  14   40.00   10.56
   0   4  15  401.59   35.98
   0   4 -15  531.76   48.44
   0   4 -16   92.04   12.60
   0   4 -17  823.67   69.17
   0   5   3  113.97   15.10
   0   5   4 1064.92   58.23
   0   5   5 2337.73  121.54
   0   5   6   56.32   15.01
   0   5   7 2210.49  133.02
   0   5   7 1964.94  126.16
   0   5   8  119.47   10.55
   0   5   8  123.60   16.60
   0   5   9   40.63    7.09
   0   5   9   35.09   13.77
   0   5  10   37.86    7.56
   0   5  10   46.65   13.95
   0   5  11   14.70   10.32
   0   5  11   24.75   14.91
   0   5  12   14.43   10.67
   0   5  12   -8.52   15.74
   0   5  13   13.42   11.08
   0   5  14  162.04   22.08
   0   5  15  119.80   22.53
   0   5  16  277.56   39.77
   0   6   4  339.87   29.27
   0   6   5  138.37   19.34
   0   6   6 2476.00  149.75
   0   6   7   56.69   16.71
   0   6   8  636.79   55.57
   0   6   9   91.44   18.11
   0   6  11   -5.48    4.32
   0   6  11   -1.53    6.14
   0   6  12   39.58    8.57
   0   6  12   56.50   10.80
   0   6  13    3.84    9.99
   0   6  14   50.60   16.29
  -1 -10   2   22.23   18.70
  -1 -10   2   14.45   24.28
  -1 -10   1    1.96   13.70
  -1  -9  10    1.04   18.18
  -1  -9  10   19.24   22.62
  -1  -9   9   15.10   17.14
  -1  -9   9   17.73   22.13
  -1  -9   8  100.17   21.24
  -1  -9   8   93.58   30.37
  -1  -9   7   15.56   14.59
  -1  -9   7   20.95   22.20
  -1  -9   6  150.47   24.02
  -1  -9   6  251.50   39.63
  -1  -9   5   32.42   14.36
  -1  -9   5   22.96   20.89
  -1  -9   4  110.01   22.25
  -1  -9   3   48.43   16.61
  -1  -9   2   -6.48   14.40
  -1  -9   1   86.11   17.81
  -1  -9   1   72.06   17.66
  -1  -8  13   68.48   24.24
  -1  -8  12   77.35   24.29
  -1  -8  11   52.64   21.41
  -1  -8  10   44.11   22.13
  -1  -8   9   41.00   16.15
  -1  -8   8   -5.17   16.10
  -1  -8   7   43.10   16.37
  -1  -8   7   81.27   26.46
  -1  -8   6   12.75   13.32
  -1  -8   6   26.37   17.20
  -1  -8   4  130.95   18.45
  -1  -8   4  268.61   32.98
  -1  -8   3  213.08   29.13
  -1  -8   2  262.88   27.96
  -1  -8   2  349.20   41.26
  -1  -8   1  196.37   22.86
  -1  -8   1  205.12   26.57
  -1  -7  16   38.57   23.54
  -1  -7  15  142.71   28.77
  -1  -7  14   49.33   24.45
  -1  -7  13  164.30   29.12
  -1  -7  12   45.12   21.35
  -1  -7  12   62.73   14.21
  -1  -7  11  411.25   42.89
  -1  -7  10   75.10   21.09
  -1  -7  10   96.94   13.78
  -1  -7   9  549.15   45.22
  -1  -7   9  680.57   57.40
  -1  -7   8   12.62   15.15
  -1  -7   8   18.76   10.43
  -1  -7   7  104.21   18.88
  -1  -7   7  139.35   19.01
  -1  -7   6   25.02   13.15
  -1  -7   6   40.63    9.88
  -1  -7   5   81.26   17.36
  -1  -7   4  218.11   22.94
  -1  -7   4  413.51   37.98
  -1  -7   4  198.18   30.33
  -1  -7   3  312.72   29.16
  -1  -7   3  666.57   59.16
  -1  -7   3  376.27   41.51
  -1  -7   2  246.75   23.92
  -1  -7   2  502.70   46.82
  -1  -7   2  259.63   27.45
  -1  -7   1  211.53   24.55
  -1  -7   1  603.77   56.66
  -1  -7   1  276.41   29.21
  -1  -6  18    8.69   18.69
  -1  -6  17   19.97   18.19
  -1  -6  16   62.93   19.37
  -1  -6  15   54.73   18.80
  -1  -6  14   43.38   15.49
  -1  -6  13   47.76   18.47
  -1  -6  13   16.36   11.53
  -1  -6  12  610.30   59.45
  -1  -6  12  671.52   50.97
  -1  -6  11   91.17   20.17
  -1  -6  11   96.35   14.39
  -1  -6  10 1220.04   92.32
  -1  -6  10 1342.94   99.05
  -1  -6   9   24.87   14.95
  -1  -6   8  628.66   49.51
  -1  -6   8  885.13   72.49
  -1  -6   7   41.83   14.24
  -1  -6   7   71.09   10.89
  -1  -6   6   25.38   13.33
  -1  -6   6   58.06   23.16
  -1  -6   5   20.14   11.87
  -1  -6   5   20.80    9.06
  -1  -6   4  534.51   46.23
  -1  -6   4  930.81   67.15
  -1  -6   3   12.85    9.94
  -1  -6   3   31.85   14.06
  -1  -6   2  557.16   41.50
  -1  -6   2 1176.41   82.33
  -1  -6   2  588.21   50.52
  -1  -6   1   22.84   11.76
  -1  -6   1   19.00   15.34
   1  -6  -1   11.18    3.58
  -1  -5  20   14.85   17.05
  -1  -5  19    3.98   12.31
  -1  -5  18   56.32   13.93
  -1  -5  17    0.00   13.08
  -1  -5  16   57.93   12.84
  -1  -5  15   26.58   12.98
  -1  -5  14  241.36   27.46
  -1  -5  13  183.87   21.27
  -1  -5  13  171.93   18.14
  -1  -5  12  357.37   32.22
  -1  -5  12  407.80   35.57
  -1  -5  11  552.75   46.61
  -1  -5  10  127.33   16.51
  -1  -5   9  614.26   48.58
  -1  -5   9  845.00   60.96
  -1  -5   8   30.16   13.76
  -1  -5   8   40.21   10.55
  -1  -5   7  168.54   19.46
  -1  -5   7  206.93   21.59
  -1  -5   6   24.80   11.87
  -1  -5   6   37.98    7.29
  -1  -5   5  208.48   22.36
  -1  -5   5  328.68   24.73
  -1  -5   4   50.05   11.54
  -1  -5   4   81.50    9.95
  -1  -5   3  689.58   49.70
  -1  -5   2  779.34   51.39
  -1  -5   1  594.11   38.11
  -1  -5   1  599.32   42.72
   1  -5  -1  598.87   32.57
  -1  -4  21   78.06   16.60
  -1  -4  20   36.86   15.70
  -1  -4  19  127.92   20.68
  -1  -4  18    4.68   10.37
  -1  -4  17   66.20   12.78
  -1  -4  16   98.47   13.78
  -1  -4  15  141.43   17.45
  -1  -4  14  108.28   13.80
  -1  -4  14  165.02   17.45
  -1  -4  13  442.53   41.02
  -1  -4  12  236.40   22.55
  -1  -4  12  297.63   27.49
  -1  -4  11  455.57   36.36
  -1  -4  11  599.79   46.24
  -1  -4  10  124.51   14.98
  -1  -4  10  194.97   18.90
  -1  -4   9  178.86   15.43
  -1  -4   8   87.09   14.31
  -1  -4   8  106.93   10.84
  -1  -4   7  188.08   18.79
  -1  -4   7  247.83   19.20
  -1  -4   6  215.53   18.49
  -1  -4   6  347.82   24.81
  -1  -4   5  334.87   24.41
  -1  -4   5  492.23   36.30
  -1  -4   4  214.41   20.03
  -1  -4   3  784.96   50.42
   1  -4  -3  735.49   45.17
  -1  -4   2  365.95   25.07
   1  -4  -2  302.06   18.78
  -1  -4   1 2763.12  148.43
  -1  -3  21   89.52   18.71
  -1  -3  20   92.91   16.49
  -1  -3  19  101.71   15.65
  -1  -3  18  126.77   17.58
  -1  -3  17   12.68   10.65
  -1  -3  16  120.66   15.72
  -1  -3  15  165.87   17.92
  -1  -3  14  352.38   30.90
  -1  -3  14  401.36   36.78
  -1  -3  13  260.49   24.52
  -1  -3  13  347.43   28.70
  -1  -3  12  552.70   41.92
  -1  -3  12  832.09   60.37
  -1  -3  11   15.85    7.02
  -1  -3  10  198.67   17.51
  -1  -3  10  307.23   22.37
  -1  -3   9  345.65   26.55
  -1  -3   9  519.56   32.03
  -1  -3   8  480.60   34.67
  -1  -3   8  843.06   47.90
  -1  -3   7  686.96   44.62
  -1  -3   7 1341.53   74.19
  -1  -3   6  833.70   55.17
  -1  -3   6 1545.58   83.19
  -1  -3   5  297.27   21.18
  -1  -3   4  678.76   40.31
  -1  -3   3  110.71   12.52
  -1  -3   2  943.53   54.09
  -1  -3   1  219.03   17.25
   1  -3  -1  266.70   17.38
  -1  -2  22   92.76   23.58
  -1  -2  21   28.19   16.60
  -1  -2  20  130.36   23.22
  -1  -2  19   93.73   15.81
  -1  -2  18  137.24   18.60
  -1  -2  17   70.50   14.20
  -1  -2  16   83.40   12.34
  -1  -2  15   12.77    8.66
  -1  -2  14   36.27    9.18
  -1  -2  13  228.13   20.62
  -1  -2  12   68.18   10.20
  -1  -2  12   73.87    9.60
  -1  -2  11  285.70   23.43
  -1  -2  11  382.20   30.65
  -1  -2  10  448.19   31.50
  -1  -2   9  725.61   51.61
  -1  -2   9 1212.54   71.30
  -1  -2   8  729.83   49.25
  -1  -2   8 1362.73   74.84
  -1  -2   7 1782.41  106.97
  -1  -2   7 3304.45  171.73
  -1  -2   6  990.49   56.61
  -1  -2   5 1718.17   92.66
   1  -2  -5 1681.81  107.54
  -1  -2   4  681.45   39.14
   1  -2  -4  686.20   42.77
  -1  -2   3  333.33   21.95
   1  -2  -3  265.86   19.43
  -1  -2   2  265.30   18.65
   1  -2  -2  195.19   13.85
  -1  -2   1  236.60   18.80
   1  -2  -1  224.81   17.50
  -1  -1  22   11.87   17.53
  -1  -1  21   41.96   21.38
  -1  -1  20   39.14   16.68
  -1  -1  19  186.02   26.01
  -1  -1  18   40.65   12.88
  -1  -1  17  464.42   41.98
  -1  -1  16   -2.98   12.92
  -1  -1  15  362.24   37.89
  -1  -1  15  456.66   38.47
  -1  -1  14   19.36   12.94
  -1  -1  14   32.92    6.72
  -1  -1  13   56.67   12.26
  -1  -1  13   56.78    7.93
  -1  -1  12   83.83   11.71
  -1  -1  11  112.07   14.04
  -1  -1  11  137.49   12.17
  -1  -1  10   83.09   11.38
  -1  -1   9  986.11   64.90
  -1  -1   8  378.66   29.72
  -1  -1   8  538.79   34.14
  -1  -1   7 1346.47   90.48
  -1  -1   7 2262.81  125.85
  -1  -1   6 1186.96   72.08
   1  -1  -6 1454.87   95.49
  -1  -1   5 2484.72  138.23
   1  -1  -5 2772.71  165.94
  -1  -1   4 2039.12  106.50
   1  -1  -4 2164.03  121.75
  -1  -1   3 5091.59  250.38
   1  -1  -3 4901.10  254.77
  -1  -1   2  578.88   33.00
   1  -1  -2  489.07   32.65
  -1  -1   1   60.94   10.78
   1  -1  -1   53.70   10.12
   1   0  -6  930.69   59.96
   1   0  -5   28.76    7.76
   1   0  -4 4456.86  228.44
   1   0  -3   -9.74    7.80
   1   0  -2 3773.56  187.34
   1   0  -1   17.11    9.69
   1   0   0 2656.27  126.04
   1   0   1   30.14    9.55
   1   0   2 2962.23  158.99
   1   0   3    8.18    8.86
   1   0   4 3850.77  217.45
   1   0   4 5604.93  232.20
   1   0   6  752.73   54.27
   1   0   7   11.54    6.69
   1   0   8  426.31   35.28
   1   0   9   -3.78    5.94
   1   0  10  332.42   27.65
   1   0  11   -3.00    6.50
   1   0  12   33.40   10.91
   1   0  13   -2.93    8.31
   1   0  14  260.38   30.27
   1   0  15   -8.46    9.46
   1   1   0  161.36   14.75
  -1   1   0  165.10   14.77
   1   1   1   61.63   12.76
  -1   1  -1   88.28   10.82
  -1   1  -1   95.89    7.38
   1   1   2  471.12   31.75
  -1   1  -2  441.05   29.89
   1   1   3 4132.75  199.90
  -1   1  -3 4135.75  216.03
   1   1   4 1832.84  102.19
   1   1   4 1823.51   93.38
  -1   1  -4 2127.01  111.14
   1   1   5 3038.15  171.58
   1   1   5 3632.52  164.18
  -1   1  -5 3816.04  189.14
   1   1   6 1527.94   97.87
   1   1   6 2222.58  109.45
  -1   1  -6 2068.89  107.49
   1   1   7 1249.22   89.51
  -1   1  -7 1790.79   96.76
   1   1   8  392.96   33.97
  -1   1  -8  649.17   39.72
   1   1   9 1207.90   87.59
  -1   1  -9 1978.11  102.40
   1   1  10   90.56   13.10
  -1   1 -10  175.43   15.10
   1   1  11  120.57   15.41
   1   1  12   42.87   11.17
   1   1  13   31.37   10.02
   1   1  15  338.35   43.76
  -1   1 -15  654.00   44.13
  -1   1 -16   15.91    9.91
  -1   1 -17  740.30   56.30
  -1   1 -18   51.43   13.58
  -1   1 -20   60.53   13.30
  -1   1 -21   99.19   20.53
  -1   1 -22   39.35   13.90
   1   2   0  199.22   15.63
  -1   2   0  170.11   13.67
  -1   2   0  220.89   15.00
   1   2   1  342.53   22.68
  -1   2  -1  297.64   21.25
  -1   2  -1  261.83   15.94
   1   2   2  236.74   18.13
  -1   2  -2  206.13   17.73
   1   2   3  330.86   25.77
   1   2   4  765.96   49.39
   1   2   4  683.93   39.24
  -1   2  -4  884.45   52.07
   1   2   5 1937.89  110.73
   1   2   5 1787.97   92.85
  -1   2  -5 2237.74  118.34
   1   2   6 1144.61   74.38
   1   2   6 1275.72   67.47
  -1   2  -6 1359.98   77.09
   1   2   7 2229.15  143.46
   1   2   7 2916.16  145.98
  -1   2  -7 2942.77  154.55
   1   2   8  846.46   67.21
   1   2   8 1096.01   72.71
  -1   2  -8 1116.08   66.39
   1   2   9  983.31   73.22
   1   2   9 1457.39   90.67
  -1   2  -9 1363.46   80.58
   1   2  10  524.77   46.48
   1   2  10  802.19   58.93
  -1   2 -10  842.62   52.59
   1   2  11  186.20   27.85
  -1   2 -11  437.81   30.65
   1   2  13  195.26   21.15
   1   2  14   20.38   12.26
  -1   2 -14   60.35   10.67
   1   2  15   27.69   11.27
  -1   2 -16  102.84   14.83
  -1   2 -18  182.65   19.88
  -1   2 -19   96.06   17.82
  -1   2 -21   81.54   15.81
  -1   2 -22  105.98   21.07
   1   3   0 2821.54  141.68
  -1   3   0 2935.98  155.92
  -1   3   0 2740.42  130.26
   1   3   1  262.47   20.35
   1   3   2 1328.56   73.60
   1   3   3   97.78   13.36
  -1   3  -3   82.63    8.79
   1   3   4  755.79   46.22
   1   3   4  606.60   35.65
  -1   3  -4  692.42   49.29
   1   3   5  401.38   30.28
   1   3   5  332.55   21.34
  -1   3  -5  369.89   27.62
   1   3   6 1065.12   65.93
   1   3   6 1000.78   56.47
  -1   3  -6 1108.29   76.26
   1   3   7  769.03   55.26
   1   3   7  831.88   50.91
   1   3   8  627.26   43.94
   1   3   8  684.69   43.73
   1   3   9  393.06   33.65
   1   3   9  533.59   37.74
   1   3  10  169.83   22.45
   1   3  10  212.11   22.02
   1   3  11    7.51   11.90
   1   3  11   18.06   10.86
  -1   3 -11   15.54    8.80
   1   3  12  519.82   49.85
   1   3  12  683.22   59.53
  -1   3 -12  929.50   59.73
   1   3  13  176.68   24.56
   1   3  13  238.37   30.64
   1   3  14  276.09   35.45
   1   3  14  537.93   49.34
  -1   3 -14  730.98   47.34
   1   3  15  113.35   22.32
   1   3  15  217.40   28.97
  -1   3 -15  358.61   27.43
   1   3  16   89.41   20.18
   1   3  17    0.00   17.31
  -1   3 -17    8.41    9.95
  -1   3 -18  204.00   21.71
  -1   3 -19  154.14   19.04
  -1   3 -21  168.47   21.16
   1   4   0 1220.76   67.37
  -1   4   0 1001.31   58.41
   1   4   1 3783.44  197.02
   1   4   2  412.19   27.53
   1   4   3  993.04   64.12
  -1   4  -3  961.25   78.95
   1   4   4  234.25   20.15
  -1   4  -4  220.60   20.53
   1   4   5  369.74   26.94
   1   4   5  261.46   21.63
  -1   4  -5  340.01   31.20
   1   4   6  222.24   18.50
   1   4   6  207.20   17.93
   1   4   7  164.22   16.86
   1   4   7  158.83   16.56
   1   4   8   58.23   10.94
   1   4   8   53.93   12.96
   1   4   9  147.53   18.56
   1   4   9  139.35   18.56
  -1   4  -9  197.62   19.94
   1   4  10   72.37   15.17
   1   4  10  100.86   19.59
  -1   4 -10  160.22   17.49
   1   4  11  358.49   38.03
   1   4  11  423.32   37.81
  -1   4 -11  644.59   51.81
   1   4  12  184.34   22.84
   1   4  12  191.71   24.45
  -1   4 -12  355.90   29.44
   1   4  13  395.47   44.55
   1   4  13  553.92   50.20
  -1   4 -13  881.49   65.63
   1   4  14   87.70   19.09
   1   4  14  106.00   17.41
  -1   4 -14  194.04   19.24
   1   4  15  116.82   17.81
  -1   4 -15  232.34   25.11
  -1   4 -18   15.02   10.28
  -1   4 -19  257.18   27.06
  -1   4 -20   10.32   13.64
  -1   4 -21   93.42   17.16
   1   5   0 1861.10  121.68
  -1   5   0 2272.22  141.25
   1   5   1  799.58   56.40
  -1   5  -1  788.11   56.15
   1   5   2 1138.11   79.45
  -1   5  -2 1523.06  101.83
   1   5   3  912.23   64.86
  -1   5  -3 1246.67   85.90
   1   5   4   52.04   10.65
  -1   5  -4   66.61    9.88
   1   5   5  228.18   19.87
  -1   5  -5  277.98   25.11
   1   5   6   38.00   10.56
   1   5   6   34.99   10.66
   1   5   7  111.67   15.56
   1   5   7   72.57   16.53
  -1   5  -7  141.59   16.21
   1   5   8   -5.14    9.54
   1   5   8    7.52   11.90
   1   5   9  454.61   40.12
   1   5   9  536.66   47.06
  -1   5  -9  582.86   52.94
   1   5  10   81.74   14.38
   1   5  10   80.43   16.83
  -1   5 -10  124.40   15.68
   1   5  11  342.37   33.59
   1   5  11  360.08   37.32
   1   5  12  209.11   30.04
   1   5  12  213.82   27.63
  -1   5 -12  434.65   42.15
   1   5  13   82.54   20.86
   1   5  13  124.57   19.69
  -1   5 -13  166.51   20.24
   1   5  14  194.00   33.26
  -1   5 -14  360.10   35.28
  -1   5 -15   42.81   10.54
  -1   5 -16   89.50   13.99
  -1   5 -17    1.76   10.91
   1   6   0  822.31   66.69
   1   6   1    6.67    9.71
   1   6   2  763.88   60.35
   1   6   3   29.42   10.17
  -1   6  -3   12.54    5.87
   1   6   4  748.64   58.33
  -1   6  -4  992.89   71.70
   1   6   5   31.10   12.07
  -1   6  -5   17.95    7.09
   1   6   6   27.23   10.51
   1   6   7   57.64   12.15
   1   6   8  531.52   48.75
   1   6   8  436.83   46.19
   1   6   9   39.06   11.00
   1   6   9   20.63   14.40
  -1   6  -9   59.91   10.26
   1   6  10  747.62   75.80
  -1   6 -10 1223.38  107.15
   1   6  11   28.56   13.42
  -1   6 -11   65.70   12.13
   1   6  12  456.16   51.50
  -1   6 -12  777.48   75.62
   1   6  13   13.12   18.55
  -1   6 -13   46.32   11.53
   1   6  14   32.50   20.99
  -1   6 -14   57.25   11.43
  -1   6 -15    7.59    8.99
  -1   6 -16   91.02   17.73
  -1   6 -17   23.20   11.22
  -1   6 -18   23.05   12.34
   1   7   3  439.98   46.70
   1   7   4  325.42   34.77
   1   7   5  124.07   17.98
   1   7   6   30.05    9.81
  -1   7  -6   41.91    8.96
   1   7   7   86.25   15.08
  -1   7  -7   87.38   12.97
   1   7   8   19.81   10.89
  -1   7  -8   26.05    8.19
   1   7   9  309.71   42.47
   1   7  10   39.62   11.60
  -1   7 -10  119.81   17.06
   1   7  11  225.38   38.26
  -1   7 -12   72.82   12.54
  -1   7 -13  186.35   24.70
  -1   7 -14   28.59   13.41
  -1   7 -15  138.88   20.52
  -2  -9   6   26.60   20.42
  -2  -9   6   49.06   30.51
  -2  -9   5   61.48   22.32
  -2  -9   5  117.39   32.54
  -2  -9   4   91.19   26.39
  -2  -9   4  122.15   33.86
  -2  -9   3   53.42   21.54
  -2  -9   3   14.43   22.25
  -2  -9   2   13.14   18.69
  -2  -8  11   48.43   26.43
  -2  -8  10    2.40   20.41
  -2  -8   9    4.11   21.14
  -2  -8   8   65.79   18.69
  -2  -8   7   32.68   17.26
  -2  -8   6    9.25   16.19
  -2  -8   6   -3.49   21.62
  -2  -8   5   47.40   19.09
  -2  -8   2   91.78   19.69
  -2  -7  14   16.00   24.90
  -2  -7  13   91.05   25.59
  -2  -7  12  100.91   25.23
  -2  -7  11   44.34   21.33
  -2  -7  10  -10.24   18.07
  -2  -7   9  365.60   41.08
  -2  -7   9  621.97   46.46
  -2  -7   8   -4.69   15.24
  -2  -7   7  103.27   18.47
  -2  -7   5  352.84   35.55
  -2  -7   3  208.41   21.50
  -2  -7   2   38.10   14.05
  -2  -7   2   58.92   17.48
  -2  -7   1   90.45   15.33
  -2  -7   1   79.19   18.48
   2  -7  -1   48.17    9.55
  -2  -6  16   41.38   18.67
  -2  -6  15   -2.47   19.78
  -2  -6  14   41.46   21.08
  -2  -6  13    4.22   18.97
  -2  -6  12  118.50   22.67
  -2  -6  11   26.24   18.08
  -2  -6  10  270.22   35.27
  -2  -6  10  343.29   27.94
  -2  -6   9   -0.55   14.39
  -2  -6   9    8.42    9.23
  -2  -6   8  721.85   61.19
  -2  -6   8 1136.31   78.57
  -2  -6   7  137.31   22.29
  -2  -6   7  214.96   20.79
  -2  -6   6  256.45   22.43
  -2  -6   5   56.80   14.93
   2  -6  -4  589.11   50.61
  -2  -6   3   24.48   13.17
   2  -6  -3   27.09    7.23
  -2  -6   2   72.57   14.38
  -2  -6   2   65.42   17.36
   2  -6  -2   38.89    8.79
  -2  -6   1    6.29   15.09
  -2  -6   1   14.42   16.76
  -2  -5  18   44.76   19.82
  -2  -5  17   46.05   15.93
  -2  -5  16   31.48   17.43
  -2  -5  15    4.15   17.44
  -2  -5  14  148.46   21.88
  -2  -5  13   94.78   17.38
  -2  -5  12  113.42   16.72
  -2  -5  11   22.83   13.55
  -2  -5  10   68.80   16.95
  -2  -5  10  125.55   14.45
  -2  -5   9  419.89   44.14
  -2  -5   9  912.64   60.13
  -2  -5   8    7.02   12.04
  -2  -5   8   15.10    8.83
  -2  -5   5  291.44   24.78
  -2  -5   3  584.37   34.70
   2  -5  -3  495.17   33.90
  -2  -5   2  434.24   30.92
   2  -5  -2  323.96   25.05
  -2  -5   1  122.75   16.12
   2  -5  -1  102.26   14.07
  -2  -4  19  117.94   22.29
  -2  -4  18    5.41   17.40
  -2  -4  17   83.35   17.65
  -2  -4  16   60.13   14.37
  -2  -4  15  207.03   23.84
  -2  -4  14   13.84    9.25
  -2  -4  13  152.14   19.61
  -2  -4  12   66.11   14.63
  -2  -4  12  148.54   17.29
  -2  -4  11  143.18   18.95
  -2  -4  10   -5.50    8.04
  -2  -4  10    7.94    8.78
  -2  -4   9   40.92   11.97
  -2  -4   8  114.31   17.05
  -2  -4   7  209.83   20.15
   2  -4  -7  252.35   22.71
   2  -4  -6   44.68    8.45
  -2  -4   5  317.19   26.98
  -2  -4   4  352.89   25.50
   2  -4  -4  311.68   23.84
  -2  -4   3  711.69   42.18
   2  -4  -3  502.61   38.38
  -2  -4   2   55.96   13.30
   2  -4  -2   66.56   13.61
  -2  -4   1 1315.91   68.20
   2  -4  -1 1176.29   73.35
  -2  -3  20    3.83   22.97
  -2  -3  19    6.50   20.88
  -2  -3  18  119.21   29.68
  -2  -3  17   80.77   20.36
  -2  -3  16   28.89   14.91
  -2  -3  15   -2.07   13.28
  -2  -3  14  147.58   18.83
  -2  -3  13   15.74   11.72
  -2  -3  12  234.91   28.46
  -2  -3  12  610.31   37.83
  -2  -3  11  134.81   20.21
  -2  -3  11  423.90   31.02
  -2  -3  10  192.83   23.99
  -2  -3  10  565.25   33.70
  -2  -3   9   44.52   12.74
  -2  -3   8  269.95   22.24
   2  -3  -8  312.18   26.98
   2  -3  -7  223.31   19.24
  -2  -3   6  606.55   41.48
   2  -3  -6  645.70   43.06
  -2  -3   5  503.12   33.45
   2  -3  -5  485.52   37.49
  -2  -3   4  282.54   22.99
   2  -3  -4  233.89   21.81
  -2  -3   3   24.86   12.77
   2  -3  -3   67.10   12.10
  -2  -3   2  767.58   43.15
   2  -3  -2  639.22   42.18
  -2  -3   1  484.46   38.97
   2  -3  -1  538.56   40.89
  -2  -2  20   30.44   22.87
  -2  -2  19   59.53   20.76
  -2  -2  18   35.13   22.91
  -2  -2  17   73.12   22.38
  -2  -2  16   25.20   18.93
  -2  -2  15   -5.60   13.74
  -2  -2  14  106.67   18.17
  -2  -2  13   87.13   18.54
  -2  -2  13  255.73   20.92
  -2  -2  12   91.26   15.93
  -2  -2  12  231.17   17.86
  -2  -2  11  248.07   28.10
  -2  -2  11  684.77   50.21
  -2  -2  10  566.25   47.35
  -2  -2  10 1330.47   68.61
  -2  -2   9  262.07   22.81
   2  -2  -9  296.08   24.74
   2  -2  -8   82.59   10.52
  -2  -2   7 1162.18   65.57
   2  -2  -7 1322.80   82.99
  -2  -2   6  813.32   47.80
   2  -2  -6  775.55   47.10
  -2  -2   5  794.50   46.20
   2  -2  -5  758.94   48.31
  -2  -2   4    7.78   13.61
   2  -2  -4   -3.08   12.32
  -2  -2   3  254.40   19.92
   2  -2  -3  214.46   19.93
  -2  -2   2  724.21   40.79
   2  -2  -2  789.74   53.14
  -2  -2   1  100.05   15.39
   2  -2  -1  149.77   18.03
  -2  -1  21   29.99   32.06
  -2  -1  20   44.31   30.05
  -2  -1  19  121.32   30.22
  -2  -1  18   21.44   23.46
  -2  -1  17   34.91   24.40
  -2  -1  16   -3.87   18.04
  -2  -1  15  265.54   37.59
  -2  -1  14   21.36   15.27
  -2  -1  13  150.66   23.17
  -2  -1  13  356.85   29.92
  -2  -1  12   59.58   16.34
  -2  -1  12   97.48   12.13
  -2  -1  11  542.45   44.19
  -2  -1  11  913.94   58.10
  -2  -1  10  244.80   22.47
  -2  -1   9  381.24   30.83
   2  -1  -9  369.96   28.79
  -2  -1   8  300.45   24.24
   2  -1  -8  241.96   21.35
   2  -1  -7  217.89   20.66
  -2  -1   6  532.46   36.55
   2  -1  -6  507.15   36.61
  -2  -1   5  224.05   20.53
   2  -1  -5  186.60   18.46
  -2  -1   4  735.02   41.82
   2  -1  -4  681.98   45.13
  -2  -1   3 1292.87   65.96
   2  -1  -3 1233.21   80.07
  -2  -1   2  106.66   16.37
   2  -1  -2  121.61   17.16
  -2  -1   1 1191.53   74.95
   2  -1  -1 1293.33   84.49
   2   0 -10  722.91   52.28
   2   0  -9    0.83    9.60
   2   0  -8    7.43   11.16
   2   0  -7   -8.29   10.37
   2   0  -6  679.99   42.29
   2   0  -5   26.08   11.82
   2   0  -4  888.45   60.66
   2   0  -3   19.39   12.47
   2   0  -2 5533.76  280.12
   2   0  -1   28.65   13.24
   2   0   0  669.25   42.03
   2   0   1   25.90   12.59
   2   0   2 5901.54  317.40
   2   0   3    2.88   10.81
   2   0   4  804.66   66.78
   2   0   5   13.44   11.32
   2   0   6  456.11   40.62
   2   0   7  -18.47   10.27
   2   0   8    1.98   10.58
   2   0   9    8.85   11.38
   2   0   9    6.31    5.68
   2   0  10  379.83   45.58
   2   0  10  488.48   39.66
   2   0  11   -5.66    9.62
   2   0  11   -8.73    6.55
   2   0  12   14.99   11.79
   2   0  12   26.52    7.63
   2   0  13  -14.26   10.20
   2   0  13    2.74    7.13
   2   1   0  211.15   22.66
  -2   1   0  218.39   20.56
   2   1   1 1582.60   99.91
  -2   1  -1 1534.33   95.35
   2   1   2  108.90   17.28
  -2   1  -2   95.66   14.09
   2   1   3 1404.81  100.89
  -2   1  -3 1481.99   93.08
   2   1   4  607.62   50.24
  -2   1  -4  712.03   44.51
   2   1   5  139.34   19.28
  -2   1  -5  157.82   20.90
   2   1   6  363.22   39.79
  -2   1  -6  617.30   45.41
   2   1   7  169.54   23.72
  -2   1  -7  281.56   27.07
   2   1   8  161.82   25.06
  -2   1  -8  291.64   28.55
   2   1   9  295.69   32.79
   2   1   9  315.41   24.49
   2   1  10  147.39   22.95
   2   1  10  164.45   16.68
  -2   1 -10  307.33   24.82
   2   1  11  294.92   41.47
   2   1  11  307.80   32.58
  -2   1 -11  638.53   44.49
   2   1  12   18.57   14.53
   2   1  12   45.72    8.25
   2   1  13  132.17   24.47
   2   1  13  213.69   18.98
  -2   1 -13  402.87   29.89
   2   1  14   26.54    8.92
  -2   1 -14   45.33   12.59
   2   1  15  421.75   37.91
  -2   1 -15  673.59   48.48
   2   1  16   18.34   11.24
  -2   1 -16   20.97   11.78
   2   1  17   13.61   12.58
  -2   1 -17   40.58   12.59
  -2   1 -18   16.60   11.99
  -2   1 -19  116.82   16.60
  -2   1 -20   48.13   14.20
   2   2   0  239.44   21.41
  -2   2   0  144.17   18.28
   2   2   1  134.38   18.33
  -2   2  -1   92.28   21.68
  -2   2  -1  104.63   15.70
   2   2   2  957.48   60.83
  -2   2  -2  843.33   51.81
  -2   2  -2  726.16   37.70
   2   2   3  248.97   26.47
  -2   2  -3  235.75   23.65
   2   2   4    4.86   11.35
  -2   2  -4   21.06   13.55
   2   2   5  700.36   63.34
  -2   2  -5 1048.65   64.28
   2   2   6  654.84   59.34
  -2   2  -6 1062.39   67.94
   2   2   7 1125.30   98.98
  -2   2  -7 1560.31   86.66
   2   2   8   43.88   18.19
  -2   2  -8  124.95   16.60
   2   2   9  181.93   30.97
   2   2   9  205.79   24.27
  -2   2  -9  344.40   30.46
   2   2  10  511.92   56.38
   2   2  10  481.48   41.82
  -2   2 -10  907.00   56.31
   2   2  11  287.54   35.75
   2   2  11  334.67   31.52
  -2   2 -11  647.14   46.23
   2   2  12   78.30   20.41
   2   2  12   84.12   13.65
  -2   2 -12  241.13   22.36
   2   2  13  101.77   16.45
  -2   2 -13  216.44   22.72
   2   2  14  157.27   16.28
  -2   2 -14  301.53   23.69
   2   2  15   16.05    9.20
  -2   2 -15   31.05   12.39
   2   2  16   13.31   10.12
  -2   2 -16   36.80   12.79
   2   2  17    7.45   11.64
  -2   2 -18  100.94   16.80
  -2   2 -19  107.02   17.45
   2   3   0 1433.21   79.79
  -2   3   0 1042.47   70.68
  -2   3   0 1198.61   63.87
   2   3   1  575.35   41.28
  -2   3  -1  415.08   37.18
  -2   3  -1  494.67   34.02
   2   3   2  728.71   53.09
  -2   3  -2  542.13   47.49
   2   3   3   42.29   17.59
  -2   3  -3   48.76   13.91
   2   3   4  292.07   33.22
  -2   3  -4  392.14   31.03
  -2   3  -5  781.17   51.58
   2   3   5  631.10   53.85
   2   3   6  753.82   60.90
  -2   3  -6 1047.40   60.09
   2   3   7  226.21   27.04
   2   3   8  229.39   32.67
  -2   3  -8  399.24   34.08
   2   3   9   16.68   18.20
  -2   3  -9   40.57   15.13
   2   3  10  215.09   30.76
   2   3  10  201.91   24.52
   2   3  11  173.56   28.72
   2   3  11  165.96   21.13
   2   3  12  245.89   35.54
   2   3  12  229.92   22.43
   2   3  13   40.14   12.12
  -2   3 -13   66.90   15.10
   2   3  14  127.11   16.95
  -2   3 -14  265.97   26.74
   2   3  15   -5.05   12.39
  -2   3 -15    3.25   12.99
   2   3  16   26.08   13.55
   2   3  17   42.97   13.19
  -2   3 -17  129.99   18.30
  -2   3 -18  249.97   41.97
  -2   3 -19   22.55   15.61
  -2   3 -20   46.06   16.79
   2   4   0  385.11   32.18
  -2   4   0  297.87   25.52
  -2   4   0  356.43   26.68
   2   4   1 1451.58   82.50
  -2   4  -1 1083.54   89.27
   2   4   2   82.94   15.91
  -2   4  -2   60.85   12.03
   2   4   3  780.04   52.54
  -2   4  -3  647.86   52.49
   2   4   4  351.94   34.82
   2   4   5  384.69   39.03
  -2   4  -5  483.25   33.11
   2   4   6   52.10   14.67
   2   4   7  248.78   26.67
   2   4   8  149.58   23.28
   2   4   9   38.78   18.70
   2   4  10    8.07   17.60
  -2   4 -10    4.49   11.47
   2   4  11  202.53   29.74
   2   4  11  150.58   21.95
  -2   4 -11  354.71   26.51
   2   4  12   61.17   14.45
   2   4  13  118.86   20.22
  -2   4 -13  232.56   25.10
   2   4  14    4.95   12.87
   2   4  15  110.53   19.62
  -2   4 -15  360.45   33.99
  -2   4 -17  135.64   20.54
  -2   4 -19  207.94   28.23
   2   5   0  627.56   43.89
  -2   5   0  560.48   40.98
  -2   5   0  434.14   33.27
   2   5   1  130.87   19.53
  -2   5  -1  136.44   14.24
   2   5   2  487.62   41.58
   2   5   3  612.93   50.62
   2   5   4  101.06   17.07
   2   5   5  317.21   29.44
  -2   5  -5  291.66   31.55
   2   5   6  131.05   19.22
   2   5   7  330.40   31.48
   2   5   8   -2.09   16.73
   2   5   9  484.25   48.85
  -2   5  -9  768.83   58.74
  -2   5 -10   93.07   14.65
  -2   5 -12  188.47   23.39
  -2   5 -13  129.08   17.79
  -2   5 -15   21.31   12.59
  -2   5 -16   39.02   14.68
  -2   5 -18  105.59   20.37
   2   6   0   35.15   12.48
  -2   6   0   32.41    8.24
   2   6   2   62.06   16.47
  -2   6  -2   67.61   11.95
   2   6   3   31.54   14.41
  -2   6  -3    7.37   10.82
   2   6   4  660.01   61.93
  -2   6  -4  666.84   66.01
   2   6   5   33.91   16.33
  -2   6  -5   26.37   10.65
   2   6   6  209.72   26.32
  -2   6  -6  260.19   27.14
   2   6   7   92.70   19.43
  -2   6  -7  122.35   16.55
  -2   6 -13    3.45   10.74
  -2   6 -14   32.77   12.78
  -2   6 -15    6.83   12.15
  -2   6 -16   60.21   15.29
  -2   7  -1   97.06   15.77
  -2   7  -6   57.88   15.34
  -2   7  -8  -11.23   11.72
  -2   7 -10    4.18   12.12
  -2   7 -11   28.26   10.36
  -2   7 -12   94.34   16.79
  -3  -8   3   63.93   26.57
  -3  -8   3  122.96   36.54
  -3  -8   1   27.96   19.30
  -3  -7   9    5.67   20.97
  -3  -7   8    4.00   21.15
  -3  -7   7  173.87   31.85
  -3  -7   6   38.01   19.94
  -3  -7   5   96.48   21.63
  -3  -7   4   13.19   20.39
  -3  -7   3  -13.33   16.37
  -3  -7   3   -6.06   21.55
  -3  -7   2   37.29   22.11
  -3  -7   1   56.57   18.37
  -3  -6  12   14.21   19.42
  -3  -6  11   10.72   18.51
  -3  -6  10   19.04   18.05
  -3  -6   9    7.22   20.10
  -3  -6   8  251.54   32.06
  -3  -6   7   18.59   16.96
  -3  -6   6  495.89   44.78
  -3  -6   5   15.01   19.63
  -3  -6   2   35.69   14.57
  -3  -6   1   -0.60   12.68
  -3  -6   1   -3.83   15.97
  -3  -5  14    3.48   15.84
  -3  -5  13   30.63   16.36
  -3  -5  12  -13.59   14.83
  -3  -5  11    0.86   18.00
  -3  -5  10   41.23   15.76
  -3  -5   9   22.59   16.02
  -3  -5   8   46.08   16.43
  -3  -5   6   67.46   16.61
  -3  -5   5  286.14   28.61
   3  -5  -5  275.98   30.58
   3  -5  -4  174.92   25.51
  -3  -5   3   46.27   15.30
   3  -5  -3   37.64   12.82
  -3  -5   2  107.32   19.44
   3  -5  -2   55.95   14.71
  -3  -5   1  122.80   20.76
   3  -5  -1   66.49   16.92
  -3  -4  16   -3.45   14.19
  -3  -4  15  122.68   22.64
  -3  -4  14   38.60   16.51
  -3  -4  13   20.54   13.98
  -3  -4  12   27.85   13.57
  -3  -4  11   -7.44   13.65
  -3  -4  10   25.20   15.23
  -3  -4   9   64.03   15.82
  -3  -4   8   23.58   15.25
   3  -4  -8   58.57   13.86
  -3  -4   7   33.58   14.73
   3  -4  -7   35.68   11.30
   3  -4  -6   47.46   12.44
   3  -4  -5  181.21   20.86
  -3  -4   4   60.51   16.15
   3  -4  -4   57.16   14.30
   3  -4  -3  394.74   37.41
  -3  -4   2  139.73   20.45
   3  -4  -2   70.16   18.44
  -3  -4   1   96.49   17.70
   3  -4  -1  131.00   19.74
  -3  -3  17   55.59   23.17
  -3  -3  16   90.17   24.04
  -3  -3  15   -1.34   18.32
  -3  -3  14   49.70   19.02
  -3  -3  13  -21.89   13.60
  -3  -3  12   22.96   15.48
  -3  -3  11  117.14   18.60
   3  -3 -11  156.50   18.49
  -3  -3  10  240.76   25.82
   3  -3 -10  332.10   29.07
  -3  -3   9   35.15   16.87
   3  -3  -9   36.80   11.50
  -3  -3   8  207.17   23.43
   3  -3  -8  226.34   22.44
  -3  -3   7   64.44   17.47
   3  -3  -7   87.54   15.18
   3  -3  -6   62.78   14.20
   3  -3  -5  318.03   31.36
  -3  -3   4  460.32   33.55
   3  -3  -4  355.17   33.07
  -3  -3   3  216.48   20.96
   3  -3  -3   94.14   18.20
   3  -3  -2  276.33   30.03
  -3  -3   1   88.28   17.92
   3  -3  -1  265.14   54.20
  -3  -2  18   -6.59   28.75
  -3  -2  17   -2.91   24.46
  -3  -2  16   16.40   23.77
  -3  -2  15   18.15   20.36
  -3  -2  14   34.90   18.84
  -3  -2  13   12.15   15.85
  -3  -2  12   89.29   19.22
  -3  -2  11  205.89   24.46
   3  -2 -11  294.32   26.75
  -3  -2  10   87.09   18.09
   3  -2 -10   58.82   12.28
  -3  -2   9  385.33   32.95
   3  -2  -9  499.10   35.87
  -3  -2   8  203.16   24.66
   3  -2  -8  225.87   22.96
  -3  -2   7  164.81   20.74
   3  -2  -7  131.16   17.22
  -3  -2   6  297.58   27.45
   3  -2  -6  301.30   26.51
   3  -2  -5   93.34   17.20
  -3  -2   4  290.66   26.62
   3  -2  -4  193.51   23.88
  -3  -2   3  491.82   34.43
   3  -2  -3  249.13   28.35
  -3  -2   2  165.89   23.87
   3  -2  -2   98.63   21.84
  -3  -2   1   77.48   18.56
   3  -2  -1   26.56   17.73
  -3  -1  18   -3.45   30.39
  -3  -1  17   35.29   28.53
  -3  -1  16   39.83   25.94
  -3  -1  15   55.74   26.67
  -3  -1  14   -8.86   19.00
  -3  -1  13  536.35   74.00
  -3  -1  12   59.45   20.96
   3  -1 -12   47.25   12.28
  -3  -1  11  290.12   34.61
   3  -1 -11  355.03   29.15
  -3  -1  10  185.86   24.78
   3  -1 -10  208.07   20.61
  -3  -1   9   99.02   19.04
   3  -1  -9   74.36   13.65
  -3  -1   8  200.79   21.99
   3  -1  -8  191.12   21.40
   3  -1  -6   62.45   16.17
  -3  -1   5  369.87   30.38
   3  -1  -5  211.73   25.21
  -3  -1   4   48.09   15.83
   3  -1  -4   61.98   14.96
   3  -1  -3   30.01   15.69
  -3  -1   2  168.52   22.76
   3  -1  -2  177.27   24.61
  -3  -1   1 1359.18   85.26
   3  -1  -1 1077.08   76.91
   3   0 -12  323.32   26.69
   3   0 -11   -9.04   12.59
   3   0 -10  159.16   17.44
   3   0  -9    2.87   11.47
   3   0  -8  187.45   21.06
   3   0  -7   14.89   14.89
   3   0  -6  224.14   27.26
   3   0  -5   -9.04   14.86
   3   0  -4   82.58   18.80
   3   0  -3  -22.91   15.51
   3   0  -2  911.67   66.11
   3   0  -1   -9.94   17.90
   3   0   0 2080.75  133.07
   3   0   1    9.71   16.82
   3   0   2  736.49   59.40
   3   0   3  -23.56   13.76
   3   0   4   33.52   16.11
   3   0   5   -8.91   13.71
   3   0   6  218.61   28.44
   3   0   7   24.69   21.87
   3   0   8  156.94   29.82
   3   0   9  -28.41   19.42
   3   1   0   66.09   20.02
  -3   1   0   85.90   18.48
   3   1   1 1010.52   77.52
  -3   1  -1 1002.52   73.21
   3   1   2  141.25   24.75
  -3   1  -2  141.70   23.24
   3   1   3   31.61   18.56
  -3   1  -3   21.04   15.97
   3   1   4   32.74   18.82
  -3   1  -4   40.29   17.61
   3   1   5  174.12   27.29
  -3   1  -5  224.81   33.06
   3   1   6   82.23   25.32
  -3   1  -6  134.13   21.77
   3   1   7  247.28   36.11
   3   1   8  134.36   30.68
  -3   1  -8  218.82   32.28
  -3   1  -9  122.05   19.91
  -3   1 -10  222.58   29.63
  -3   1 -11  492.21   42.72
  -3   1 -13  332.94   36.31
  -3   1 -14   36.60   16.19
  -3   1 -15   64.65   16.79
  -3   1 -16   17.55   15.19
  -3   1 -17   59.32   17.52
  -3   1 -18   -5.05   15.15
   3   2   0   56.41   21.73
  -3   2   0   28.54   16.44
   3   2   1   73.51   23.12
  -3   2  -1   43.21   18.77
  -3   2  -1   27.11    7.69
   3   2   2   71.23   23.79
  -3   2  -2  138.68   20.86
   3   2   3  354.22   35.50
  -3   2  -3  375.31   39.18
  -3   2  -4  180.35   30.99
   3   2   5   80.01   23.56
  -3   2  -5  110.75   21.93
   3   2   6  247.05   33.90
  -3   2  -6  326.23   36.94
   3   2   7  125.33   26.29
  -3   2  -7  204.11   29.22
  -3   2  -8  296.75   31.99
  -3   2  -9  685.95   55.67
  -3   2 -10   41.92   19.34
  -3   2 -11  337.37   35.15
  -3   2 -14   52.12   17.99
  -3   2 -15   86.91   38.68
  -3   2 -16   62.91   19.62
   3   3   0   42.26   19.30
  -3   3   0   19.03    9.21
   3   3   1  129.88   23.24
  -3   3  -1  109.80   17.54
  -3   3  -1  102.81    9.99
   3   3   2  460.90   42.46
  -3   3  -2  432.56   34.98
   3   3   3  173.88   28.48
  -3   3  -3  169.58   26.72
   3   3   4  387.75   42.71
  -3   3  -4  489.83   42.57
  -3   3  -5  287.80   41.56
  -3   3  -6   54.77   21.42
  -3   3  -7   88.41   18.35
  -3   3 -10  373.88   38.78
  -3   3 -11  392.50   62.64
  -3   3 -12   -1.74   15.09
  -3   3 -13   -1.11   17.81
  -3   3 -14   99.35   21.68
  -3   3 -17  108.58   21.26
  -3   4   0   56.36   12.98
  -3   4   0   56.29   10.48
  -3   4  -1  154.05   19.33
  -3   4  -4   70.64   17.43
  -3   4  -5  298.69   30.09
  -3   4  -6   74.71   15.53
  -3   4  -7   19.11   14.20
  -3   4  -8   67.67   16.44
  -3   4  -9   87.74   17.86
  -3   4 -10   49.04   17.05
  -3   4 -11   -1.09   15.32
  -3   4 -12   48.38   18.74
  -3   4 -14   67.98   19.38
  -3   4 -15  308.76   32.62
  -3   5   0   26.07   15.33
  -3   5  -1  169.65   22.03
  -3   5  -2  200.20   21.77
  -3   5  -4  367.33   32.17
  -3   5  -5  447.84   37.48
  -3   5  -8   48.09   18.11
  -3   5  -9   35.87   15.58
  -3   5 -10   17.03   14.63
  -3   5 -11   33.36   18.21
  -3   5 -12    2.34   14.51
  -3   5 -14   57.24   18.01
  -3   6  -3   12.61   16.24
  -3   6  -4  193.99   24.36
  -3   6  -6  635.40   64.05
  -3   6  -8  256.68   31.00
  -3   6 -10   -4.85   13.24
  -4  -6   2  170.43   31.60
  -4  -6   1   30.84   25.20
  -4  -5   7   17.38   20.03
  -4  -5   6   29.53   21.35
  -4  -5   5  -12.95   20.27
  -4  -5   4   11.47   20.65
  -4  -5   3   61.85   19.77
  -4  -5   2  117.14   23.58
  -4  -5   1   75.44   19.78
  -4  -4  10   25.14   21.36
  -4  -4   9    4.98   19.90
  -4  -4   8   15.18   20.42
  -4  -4   7   -8.24   20.87
  -4  -4   6   18.89   21.76
  -4  -4   5   15.38   21.89
  -4  -3  12   46.12   23.62
  -4  -3  11  -11.79   23.59
  -4  -3  10   25.39   24.34
  -4  -3   9   34.04   25.82
  -4  -3   8   65.76   24.09
  -4  -3   7  102.91   28.69
  -4  -3   6  159.48   26.81
   4  -3  -2   71.48   17.14
   4  -3  -1   29.20   14.63
  -4  -2  13   27.45   26.30
  -4  -2  12   12.85   24.54
  -4  -2  11  -12.96   28.28
  -4  -2  10   14.36   24.54
  -4  -2   9   68.53   25.17
  -4  -2   8  204.56   29.42
  -4  -2   7  148.58   27.31
  -4  -2   6    7.88   23.00
   4  -2  -6  -32.83   18.15
   4  -2  -5  163.46   24.53
   4  -2  -4  123.70   23.44
   4  -2  -3  100.53   22.12
   4  -2  -2    4.68   14.62
   4  -2  -1   -4.61   15.57
  -4  -1  13  -18.41   27.62
  -4  -1  12   53.60   31.43
  -4  -1  11   26.75   26.11
  -4  -1  10   14.42   24.25
  -4  -1   9  120.28   29.31
  -4  -1   8   88.12   24.84
  -4  -1   7  111.87   32.51
   4  -1  -7   38.36   19.50
  -4  -1   6  138.37   25.42
   4  -1  -6  117.23   22.93
   4  -1  -5  233.19   26.67
   4  -1  -4   68.91   18.71
   4  -1  -3   90.39   22.79
  -4  -1   2   19.14   16.51
   4  -1  -2   35.64   20.48
   4  -1  -1   29.74   16.04
  -4   1   0   -5.63   15.02
  -4   1  -3  168.43   61.14
  -4   1  -4  103.94   22.61
  -4   1  -5  303.82   38.74
  -4   1  -6  147.89   25.61
  -4   1  -7   81.26   24.22
  -4   1  -8   62.16   24.24
  -4   1  -9   41.91   28.88
  -4   1 -10   -6.77   22.36
  -4   1 -11   37.76   23.87
  -4   1 -12  -23.74   21.82
  -4   1 -13   32.76   23.51
  -4   2  -2   -1.32   16.47
  -4   2  -3  121.80   22.49
  -4   2  -4  137.29   26.24
  -4   2  -5  173.51   28.80
  -4   2  -6   -9.72   20.13
  -4   2  -7  177.39   29.75
  -4   2  -8  236.72   37.42
  -4   2 -10   25.44   22.78
  -4   2 -11   22.83   22.84
  -4   2 -12   41.70   24.67
  -4   3   0  159.56   23.30
  -4   3  -1   64.79   19.75
  -4   3  -2  163.45   27.21
  -4   3  -3   34.78   18.46
  -4   3  -6  144.65   26.44
  -4   3  -7  121.04   24.72
  -4   3  -8   97.33   23.59
  -4   3  -9   46.36   22.92
  -4   3 -10   44.62   22.37
  -4   3 -11   -3.72   22.94
  -4   4   0   23.42   19.44
  -4   4  -1  399.14   42.14
  -4   4  -2   96.54   22.24
  -4   4  -3   43.31   18.47
  -4   4  -4   -5.85   18.85
  -4   4  -5   26.94   19.28
  -4   4  -8   52.07   21.32
  -4   4  -9   49.65   21.98

;
_shelx_hkl_checksum              21447
loop_
_space_group_symop_operation_xyz
'x, y, z'
'-x, y+1/2, -z+1/2'
'-x, -y, -z'
'x, -y-1/2, z-1/2'
loop_
_atom_site_label
_atom_site_type_symbol
_atom_site_fract_x
_atom_site_fract_y
_atom_site_fract_z
_atom_site_U_iso_or_equiv
_atom_site_adp_type
_atom_site_occupancy
_atom_site_site_symmetry_order
_atom_site_calc_flag
_atom_site_refinement_flags_posn
_atom_site_refinement_flags_adp
Cu1 Cu 0.3315(4) 0.57655(13) 0.42033(8) 0.0308(4) Uani 1 1 d . .
Cl1 Cl 0.3075(8) 0.3283(3) 0.48574(13) 0.0320(6) Uani 1 1 d . .
N1 N 0.355(3) 0.8041(11) 0.3767(5) 0.036(2) Uani 1 1 d . .
C1 C 0.429(3) 0.9329(12) 0.3540(7) 0.034(3) Uani 1 1 d . .
C2 C 0.531(4) 1.0977(12) 0.3236(8) 0.038(3) Uani 1 1 d . .
H2A H 0.6802 1.0809 0.2800 0.058 Uiso 1 1 calc R U
H2B H 0.6615 1.1616 0.3611 0.058 Uiso 1 1 calc R U
H2C H 0.3194 1.1608 0.3095 0.058 Uiso 1 1 calc R U
Cl2 Cl -0.0731(7) 0.4883(3) 0.33933(14) 0.0324(6) Uani 1 1 d . .
loop_
_atom_site_aniso_label
_atom_site_aniso_U_11
_atom_site_aniso_U_22
_atom_site_aniso_U_33
_atom_site_aniso_U_23
_atom_site_aniso_U_13
_atom_site_aniso_U_12
Cu1 0.0355(8) 0.0268(6) 0.0301(6) 0.0027(5) -0.0040(7) -0.0037(5)
Cl1 0.0367(14) 0.0266(10) 0.0327(12) 0.0017(8) -0.0048(13) -0.0039(11)
N1 0.042(6) 0.034(5) 0.032(5) 0.008(4) -0.003(5) -0.009(5)
C1 0.035(6) 0.030(5) 0.037(6) 0.000(4) -0.012(5) -0.002(4)
C2 0.044(7) 0.025(5) 0.046(6) -0.009(5) -0.004(6) 0.005(5)
Cl2 0.0333(13) 0.0341(12) 0.0299(11) 0.0007(10) -0.0040(11) -0.0032(11)
loop_
_atom_type_symbol
_atom_type_description
_atom_type_scat_dispersion_real
_atom_type_scat_dispersion_imag
_atom_type_scat_source
C C 0.0033 0.0016 'International Tables Vol C Tables 4.2.6.8 and 6.1.1.4'
H H 0.0000 0.0000 'International Tables Vol C Tables 4.2.6.8 and 6.1.1.4'
N N 0.0061 0.0033 'International Tables Vol C Tables 4.2.6.8 and 6.1.1.4'
Cl Cl 0.1484 0.1585 'International Tables Vol C Tables 4.2.6.8 and 6.1.1.4'
Cu Cu 0.3201 1.2651 'International Tables Vol C Tables 4.2.6.8 and 6.1.1.4'
loop_
_geom_angle_atom_site_label_1
_geom_angle_atom_site_label_2
_geom_angle_atom_site_label_3
_geom_angle
_geom_angle_site_symmetry_3
N1 Cu1 Cl2 93.1(3) .
N1 Cu1 Cl1 172.6(3) .
Cl2 Cu1 Cl1 92.48(10) .
N1 Cu1 Cl1 88.3(3) 3_666
Cl2 Cu1 Cl1 172.89(14) 3_666
Cl1 Cu1 Cl1 85.59(10) 3_666
Cu1 Cl1 Cu1 94.41(10) 3_666
C1 N1 Cu1 168.0(11) .
N1 C1 C2 178.8(14) .
C1 C2 H2A 109.5 .
C1 C2 H2B 109.5 .
H2A C2 H2B 109.5 .
C1 C2 H2C 109.5 .
H2A C2 H2C 109.5 .
H2B C2 H2C 109.5 .
loop_
_geom_bond_atom_site_label_1
_geom_bond_atom_site_label_2
_geom_bond_distance
_geom_bond_site_symmetry_2
Cu1 N1 1.967(8) .
Cu1 Cl2 2.236(3) .
Cu1 Cl1 2.293(3) .
Cu1 Cl1 2.310(3) 3_666
Cl1 Cu1 2.310(3) 3_666
N1 C1 1.133(13) .
C1 C2 1.467(15) .
C2 H2A 0.9800 .
C2 H2B 0.9800 .
C2 H2C 0.9800 .
