#------------------------------------------------------------------------------
#$Date: 2019-11-23 05:42:32 +0200 (Sat, 23 Nov 2019) $
#$Revision: 232254 $
#$URL: file:///home/coder/svn-repositories/cod/cif/4/34/72/4347299.cif $
#------------------------------------------------------------------------------
#
# This file is available in the Crystallography Open Database (COD),
# http://www.crystallography.net/
#
# All data on this site have been placed in the public domain by the
# contributors.
#
data_4347299
loop_
_publ_author_name
'Otake, Ken-ichi'
'Otsubo, Kazuya'
'Sugimoto, Kunihisa'
'Fujiwara, Akihiko'
'Kitagawa, Hiroshi'
_publ_section_title
;
 Neutral-Type One-Dimensional Mixed-Valence Halogen-Bridged Platinum Chain
 Complexes with Large Charge-Transfer Band Gaps.
;
_journal_issue                   5
_journal_name_full               'Inorganic chemistry'
_journal_page_first              2620
_journal_page_last               2626
_journal_paper_doi               10.1021/acs.inorgchem.5b02980
_journal_volume                  55
_journal_year                    2016
_chemical_absolute_configuration ad
_chemical_formula_moiety         'C8 H14 Br N4 Pt'
_chemical_formula_sum            'C8 H14 Br N4 Pt'
_chemical_formula_weight         441.22
_space_group_crystal_system      orthorhombic
_space_group_IT_number           18
_space_group_name_Hall           'P 2 2ab'
_space_group_name_H-M_alt        'P 21 21 2'
_atom_sites_solution_hydrogens   geom
_atom_sites_solution_primary     direct
_atom_sites_solution_secondary   difmap
_cell_angle_alpha                90.0000
_cell_angle_beta                 90.0000
_cell_angle_gamma                90.0000
_cell_formula_units_Z            2
_cell_length_a                   5.5648(11)
_cell_length_b                   9.958(2)
_cell_length_c                   10.755(2)
_cell_measurement_reflns_used    4393
_cell_measurement_temperature    100(2)
_cell_measurement_theta_max      28.23
_cell_measurement_theta_min      2.79
_cell_volume                     596.0(2)
_computing_cell_refinement       'APEX2 (Bruker, 2006)'
_computing_data_collection       'APEX2 (Bruker, 2006)'
_computing_data_reduction        'CrystalStructure 4.2 (Rigaku, 2015)'
_computing_molecular_graphics    'CrystalStructure 4.2'
_computing_publication_material  'CrystalStructure 4.2 (Rigaku, 2015)'
_computing_structure_refinement  'SHELXL Version 2014/3 (Sheldrick, 2008)'
_computing_structure_solution    'SIR2004 (Burla, et al., 2005)'
_diffrn_ambient_temperature      100
_diffrn_measured_fraction_theta_full 1.000
_diffrn_measured_fraction_theta_max 0.965
_diffrn_measurement_device_type  'Bruker APEX-II CCD'
_diffrn_measurement_method       'phi and omega scans'
_diffrn_radiation_monochromator  graphite
_diffrn_radiation_source         'sealed tube'
_diffrn_radiation_type           'Mo K\a'
_diffrn_radiation_wavelength     0.71073
_diffrn_reflns_av_R_equivalents  0.0207
_diffrn_reflns_Laue_measured_fraction_full 1.000
_diffrn_reflns_Laue_measured_fraction_max 0.965
_diffrn_reflns_limit_h_max       7
_diffrn_reflns_limit_h_min       -7
_diffrn_reflns_limit_k_max       13
_diffrn_reflns_limit_k_min       -12
_diffrn_reflns_limit_l_max       13
_diffrn_reflns_limit_l_min       -14
_diffrn_reflns_number            6786
_diffrn_reflns_point_group_measured_fraction_full 1.000
_diffrn_reflns_point_group_measured_fraction_max 0.942
_diffrn_reflns_theta_full        25.240
_diffrn_reflns_theta_max         28.405
_diffrn_reflns_theta_min         1.893
_diffrn_standards_number         0
_exptl_absorpt_coefficient_mu    15.058
_exptl_absorpt_correction_T_max  0.7457
_exptl_absorpt_correction_T_min  0.4622
_exptl_absorpt_correction_type   multi-scan
_exptl_absorpt_process_details   '(SADABS; Sheldrick, 1996)'
_exptl_crystal_colour            blue
_exptl_crystal_density_diffrn    2.459
_exptl_crystal_density_method    'not measured'
_exptl_crystal_description       needle
_exptl_crystal_F_000             406.00
_exptl_crystal_size_max          0.20
_exptl_crystal_size_mid          0.01
_exptl_crystal_size_min          0.01
_refine_diff_density_max         0.84
_refine_diff_density_min         -0.86
_refine_ls_abs_structure_details
;
 Flack x determined using 474 quotients [(I+)-(I-)]/[(I+)+(I-)]
 (Parsons, Flack and Wagner, Acta Cryst. B69 (2013) 249-259).
;
_refine_ls_abs_structure_Flack   0.021(13)
_refine_ls_extinction_method     none
_refine_ls_goodness_of_fit_ref   1.094
_refine_ls_hydrogen_treatment    constr
_refine_ls_number_parameters     69
_refine_ls_number_reflns         1417
_refine_ls_number_restraints     1
_refine_ls_R_factor_all          0.0136
_refine_ls_R_factor_gt           0.0118
_refine_ls_shift/su_max          0.001
_refine_ls_structure_factor_coef Fsqd
_refine_ls_weighting_details
'w = 1/[\s^2^(Fo^2^)+(0.0109P)^2^+0.3415P] where P=(Fo^2^+2Fc^2^)/3'
_refine_ls_weighting_scheme      calc
_refine_ls_wR_factor_gt          0.0295
_refine_ls_wR_factor_ref         0.0301
_reflns_Friedel_coverage         0.625
_reflns_Friedel_fraction_full    1.000
_reflns_Friedel_fraction_max     0.908
_reflns_number_gt                1302
_reflns_number_total             1417
_reflns_threshold_expression     F^2^>2.0\s(F^2^)
_cod_data_source_file            ic5b02980_si_007.cif
_cod_data_source_block           complex6
_cod_database_code               4347299
_shelxl_version_number           2014-3
_shelx_res_file
;
TITL OrthoP_05a
CELL  0.71069 5.56480 9.95790 10.75470 90.00000 90.00000 90.00000
ZERR  2 0.00110 0.00200 0.00210 0.00000 0.00000 0.00000
LATT -1
SYMM    -X,    -Y,    +Z
SYMM .50+X, .50-Y,    -Z
SYMM .50-X, .50+Y,    -Z
SFAC C N BR PT H
UNIT 16 8 2 2 28
L.S. 50
FMAP 2
PLAN 25
WPDB -2
HTAB
BOND $H
CONF
LIST 4
TEMP -173.0
ACTA
SIZE 300.000 10.000 10.000
EADP H2A H2B
SADI 0.0200 N2 H2A N2 H2B
WGHT    0.010900    0.341500
FVAR       0.12424
PT1   4    1.000000    1.000000    0.997961    10.50000    0.00947    0.01031 =
         0.02320    0.00000    0.00000    0.00017
BR1   3    0.552841    1.003918    1.013083    10.50000    0.01185    0.02135 =
         0.01919   -0.00223    0.00046    0.00118
N1    2    1.013580    1.222691    1.198445    11.00000    0.01856    0.01964 =
         0.02964    0.00480   -0.00062    0.00147
N2    2    0.989513    0.862748    0.851346    11.00000    0.01853    0.01472 =
         0.02657   -0.00156    0.00169   -0.00272
AFIX  23
H2A   5    1.134807    0.821657    0.843591    11.00000   -1.20000
H2B   5    0.876949    0.798650    0.866993    11.00000   -1.20000
AFIX   0
C1    1    1.008573    1.140607    1.128399    11.00000    0.00891    0.01427 =
         0.03500    0.00910   -0.00314    0.00182
C2    1    0.928903    0.934997    0.733443    11.00000    0.01649    0.01945 =
         0.02457   -0.00081    0.00013   -0.00003
AFIX  13
H2    5    0.753934    0.957824    0.735078    11.00000   -1.20000
AFIX   0
C3    1    0.978092    0.851638    0.617804    11.00000    0.02814    0.02545 =
         0.02876   -0.00524    0.00533   -0.00177
AFIX  23
H3A   5    0.875411    0.770453    0.618392    11.00000   -1.20000
H3B   5    1.148150    0.822444    0.617323    11.00000   -1.20000
AFIX   0
C4    1    0.925717    0.934653    0.501352    11.00000    0.03606    0.03682 =
         0.02636   -0.00610   -0.00137   -0.00011
AFIX  23
H4A   5    0.752412    0.956870    0.498303    11.00000   -1.20000
H4B   5    0.965366    0.881267    0.426455    11.00000   -1.20000
AFIX   0
HKLF 4

REM  OrthoP_05a
REM R1 =  0.0118 for    1302 Fo > 4sig(Fo)  and  0.0136 for all    1417 data
REM     69 parameters refined using      1 restraints

END

WGHT      0.0108      0.3314

REM Instructions for potential hydrogen bonds
EQIV $1 -x+5/2, y-1/2, -z+2
HTAB N2 N1_$1
EQIV $2 -x+3/2, y-1/2, -z+2
HTAB N2 N1_$2

REM Highest difference peak  0.837,  deepest hole -0.855,  1-sigma level  0.092
Q1    1   1.1509  1.0012  1.0049  11.00000  0.05    0.84
Q2    1   1.0000  1.0000  0.9222  10.50000  0.05    0.64
Q3    1   0.9694  1.1533  1.1876  11.00000  0.05    0.54
Q4    1   1.0000  1.0000  1.1001  10.50000  0.05    0.52
Q5    1   1.0000  1.0000  0.7360  10.50000  0.05    0.42
Q6    1   1.0028  1.0959  1.0137  11.00000  0.05    0.34
Q7    1   0.5000  1.0000  1.2593  10.50000  0.05    0.32
Q8    1   0.9639  1.1156  1.1214  11.00000  0.05    0.32
Q9    1   1.0817  1.2388  1.2235  11.00000  0.05    0.31
Q10   1   0.9280  1.2409  1.2198  11.00000  0.05    0.31
Q11   1   1.0071  1.2206  1.2563  11.00000  0.05    0.28
Q12   1   1.0592  1.1229  1.1216  11.00000  0.05    0.28
Q13   1   0.9979  1.3458  1.2013  11.00000  0.05    0.27
Q14   1   1.0007  1.2584  1.1638  11.00000  0.05    0.26
Q15   1   0.7212  1.0605  0.9751  11.00000  0.05    0.26
Q16   1   1.0000  1.0000  0.5074  10.50000  0.05    0.26
Q17   1   1.0362  0.8410  0.8427  11.00000  0.05    0.24
Q18   1   0.7169  0.9400  0.9733  11.00000  0.05    0.24
Q19   1   0.5624  0.9004  0.9853  11.00000  0.05    0.23
Q20   1   0.5727  1.1000  0.9802  11.00000  0.05    0.23
Q21   1   0.9908  0.9133  0.6682  11.00000  0.05    0.22
Q22   1   0.5669  1.0355  0.9235  11.00000  0.05    0.21
Q23   1   1.1454  1.0714  1.0726  11.00000  0.05    0.19
Q24   1   0.7763  0.9735  0.3455  11.00000  0.05    0.19
Q25   1   0.9796  0.9012  0.7783  11.00000  0.05    0.19
;
_shelx_res_checksum              9931
_shelx_hkl_file
;
   0   0  -1  621.54   21.10
   0   0   2  489.55   12.99
   0   0   2  458.40   12.49
   0   0   3  272.35    7.29
   0   0  -3  280.34    8.38
   0   0   3  278.28    7.52
   0   0   3  278.57    8.89
   0   0   4  388.44   10.23
   0   0   4  397.33   12.52
   0   0  -4  391.50   11.84
   0   0   4  388.08   10.73
   0   0  -5  391.25   11.84
   0   0   5  400.31   10.63
   0   0   5  381.45   10.26
   0   0   5  394.88   12.49
   0   0   6  355.08    9.50
   0   0   6  368.42   11.52
   0   0  -6  361.54   10.95
   0   0   7  242.98    6.66
   0   0  -7  260.89    6.84
   0   0   7  255.96    8.00
   0   0  -7  247.11    7.66
   0   0  -8  261.80    7.01
   0   0  -8  254.90    7.86
   0   0   8  256.54    6.84
   0   0  -9   96.86    3.13
   0   0  -9  104.73    2.79
   0   0   9   97.12    2.76
   0   0 -10  109.17    3.48
   0   0  10  111.62    3.08
   0   0 -11   70.26    2.28
   0   0  11   68.78    2.03
   0   0 -12   50.66    1.72
   0   0  12   49.52    1.55
   0   0 -13   32.13    1.19
   0   0  13   31.15    1.09
   0  -1   0    0.01    0.01
   0   1   0    0.00    0.01
   0   1   0    0.00    0.01
   0  -1   0    0.00    0.01
   0   1   1   13.95    0.39
   0   1   1   14.75    0.41
   0   1  -1   13.89    0.41
   0  -1   1   14.26    0.47
   0  -1   1   13.85    0.39
   0  -1  -1   14.34    0.47
   0  -1  -1   15.11    0.45
   0   1  -2    7.20    0.24
   0  -1   2    6.41    0.24
   0  -1  -2    7.22    0.26
   0  -1   2    7.15    0.22
   0   1   2    7.07    0.22
   0   1   2    6.67    0.24
   0   1  -2    7.06    0.22
   0  -1  -2    6.93    0.24
   0   1   3    5.71    0.23
   0   1  -3    5.72    0.20
   0  -1  -3    5.74    0.24
   0   1  -3    5.28    0.22
   0  -1  -3    5.66    0.21
   0   1   3    5.58    0.21
   0  -1   3    5.42    0.21
   0  -1   3    5.60    0.21
   0   1  -4    1.03    0.10
   0   1   4    1.14    0.10
   0  -1   4    0.99    0.08
   0  -1  -4    1.03    0.11
   0   1  -4    1.09    0.10
   0  -1  -4    1.19    0.09
   0  -1   4    1.04    0.10
   0   1   4    0.97    0.11
   0  -1   5    1.56    0.15
   0   1   5    1.28    0.12
   0   1  -5    1.23    0.12
   0  -1   5    1.57    0.11
   0  -1  -5    1.60    0.11
   0   1   5    1.72    0.17
   0   1  -5    1.49    0.13
   0  -1  -5    1.55    0.16
   0  -1  -6    2.67    0.20
   0   1  -6    2.41    0.16
   0   1   6    2.86    0.21
   0  -1   6    2.79    0.15
   0   1  -6    2.33    0.19
   0  -1  -6    2.68    0.15
   0   1   6    2.69    0.19
   0  -1   6    2.54    0.19
   0   1  -7    5.59    0.25
   0  -1   7    5.68    0.28
   0   1   7    5.53    0.27
   0  -1  -7    4.82    0.29
   0   1   7    5.22    0.30
   0   1  -7    5.20    0.29
   0  -1   7    5.32    0.23
   0   1  -8    0.17    0.10
   0  -1  -8    0.06    0.12
   0   1  -8    0.07    0.13
   0   1   8    0.09    0.12
   0   1   8    0.31    0.12
   0  -1   8    0.06    0.11
   0  -1  -9    0.40    0.16
   0  -1   9    0.64    0.15
   0   1  -9    0.24    0.15
   0   1  -9    0.46    0.13
   0   1   9    0.55    0.14
   0  -1 -10    6.40    0.38
   0   1 -10    6.50    0.38
   0  -1  10    5.85    0.35
   0   1  10    6.63    0.36
   0   1  11    3.13    0.29
   0   1 -11    3.11    0.31
   0  -1 -11    3.19    0.31
   0  -1  11    3.26    0.29
   0   1  12    1.98    0.26
   0  -1 -12    1.87    0.27
   0   1 -12    2.03    0.28
   0  -1  12    2.04    0.25
   0   1  13    1.31    0.24
   0   1 -13    0.91    0.27
   0  -1  13    1.10    0.24
   0  -1 -13    1.35    0.27
   0  -2   0  558.11   20.34
   0   2   0  585.88   15.46
   0  -2   0  559.12   14.95
   0   2  -1  489.86   13.65
   0  -2   1  503.20   13.26
   0  -2  -1  508.37   16.05
   0  -2   1  511.62   16.06
   0   2   1  483.45   13.69
   0   2   1  524.87   13.24
   0  -2  -1  496.58   15.26
   0   2  -2  715.99   21.43
   0  -2   2  703.01   22.53
   0   2   2  700.61   18.58
   0  -2  -2  739.53   21.45
   0  -2   2  698.12   18.61
   0  -2  -2  727.15   22.53
   0   2   2  673.85   19.28
   0   2  -2  697.39   19.18
   0   2   3  553.03   15.58
   0   2  -3  608.73   17.42
   0  -2  -3  560.58   18.27
   0  -2   3  574.73   15.14
   0  -2   3  583.84   18.27
   0  -2  -3  585.15   17.43
   0   2   3  557.62   15.10
   0   2  -3  560.21   15.56
   0  -2  -4  585.40   18.65
   0   2   4  576.60   15.41
   0  -2   4  602.82   18.66
   0   2   4  574.98   15.92
   0   2  -4  575.62   15.91
   0   2  -4  583.22   17.76
   0  -2  -4  602.23   17.69
   0  -2   4  580.82   15.45
   0   2  -5  229.46    7.01
   0  -2   5  222.46    7.34
   0  -2  -5  242.11    7.04
   0  -2  -5  231.77    7.34
   0   2  -5  232.14    6.27
   0  -2   5  230.80    6.09
   0   2   5  232.36    6.10
   0   2   5  228.45    6.31
   0  -2   6  248.09    6.79
   0  -2   6  240.43    8.17
   0   2   6  261.86    7.05
   0  -2  -6  259.72    8.18
   0   2   6  257.08    6.80
   0   2  -6  266.98    6.99
   0   2  -6  256.04    7.81
   0  -2  -6  269.86    7.84
   0  -2   7  233.57    7.34
   0   2   7  234.87    6.36
   0  -2   7  221.34    6.12
   0   2  -7  227.90    6.29
   0   2   7  228.11    6.13
   0  -2  -7  234.57    7.35
   0  -2  -7  239.20    7.06
   0   2  -7  227.75    7.03
   0  -2  -8  212.05    6.29
   0   2   8  203.68    5.47
   0   2  -8  203.49    6.27
   0   2   8  204.26    5.68
   0  -2   8  199.08    5.46
   0   2  -8  205.41    5.60
   0  -2  -9  118.86    3.65
   0   2  -9  119.28    3.24
   0   2   9  114.62    3.20
   0   2  -9  113.97    3.63
   0  -2   9  114.47    3.20
   0  -2  10   91.19    2.61
   0   2 -10   95.34    2.62
   0   2 -10   92.13    2.95
   0  -2 -10   91.87    2.95
   0   2  10   92.66    2.61
   0  -2 -11   72.19    2.33
   0  -2  11   69.51    2.07
   0   2 -11   73.55    2.34
   0   2  11   69.07    2.07
   0  -2 -12   63.69    2.17
   0   2  12   64.16    1.95
   0   2 -12   68.95    2.20
   0  -2  12   64.97    1.95
   0   2 -13   32.02    1.21
   0   2  13   33.46    1.13
   0  -2  13   31.56    1.10
   0  -2 -13   31.64    1.20
   0  -3   0    0.02    0.03
   0  -3   0    0.01    0.03
   0   3   0    0.02    0.04
   0  -3   0   -0.01    0.03
   0  -3  -1    0.34    0.04
   0   3  -1    0.35    0.05
   0   3   1    0.37    0.04
   0   3  -1    0.37    0.05
   0  -3  -1    0.38    0.05
   0  -3   1    0.35    0.05
   0  -3   1    0.32    0.05
   0   3   1    0.31    0.05
   0  -3  -2    1.70    0.10
   0  -3   2    1.69    0.11
   0   3  -2    1.66    0.10
   0  -3   2    1.81    0.10
   0   3   2    1.70    0.12
   0   3  -2    1.79    0.11
   0   3   2    1.71    0.09
   0  -3  -2    1.98    0.11
   0   3   3   11.86    0.40
   0  -3  -3   11.20    0.41
   0   3   3   11.06    0.36
   0  -3   3   11.89    0.42
   0  -3  -3   11.82    0.42
   0   3  -3   11.45    0.37
   0   3  -3   11.30    0.40
   0  -3   3   11.82    0.36
   0   3   4    0.38    0.09
   0   3   4    0.42    0.08
   0  -3   4    0.50    0.08
   0  -3   4    0.41    0.06
   0   3  -4    0.40    0.08
   0  -3  -4    0.52    0.10
   0   3  -4    0.59    0.08
   0  -3  -4    0.49    0.07
   0  -3   5    0.47    0.07
   0  -3  -5    0.50    0.07
   0   3   5    0.41    0.09
   0   3  -5    0.56    0.09
   0   3  -5    0.45    0.09
   0  -3  -5    0.48    0.11
   0  -3   5    0.53    0.09
   0   3   5    0.53    0.10
   0  -3  -6    4.86    0.28
   0   3  -6    4.34    0.22
   0  -3   6    4.44    0.23
   0   3   6    4.94    0.26
   0  -3  -6    4.36    0.22
   0   3   6    4.26    0.24
   0   3  -6    4.41    0.24
   0  -3   6    4.45    0.22
   0   3   7    1.58    0.16
   0  -3  -7    1.44    0.13
   0   3   7    1.38    0.17
   0  -3  -7    1.60    0.18
   0  -3   7    1.45    0.15
   0  -3   7    1.28    0.13
   0   3  -7    1.25    0.16
   0   3  -7    1.56    0.14
   0  -3   8    5.03    0.29
   0   3   8    5.29    0.29
   0   3  -8    5.22    0.31
   0   3   8    5.35    0.32
   0   3  -8    5.35    0.28
   0  -3  -8    5.50    0.33
   0   3  -9    4.11    0.30
   0  -3  -9    4.01    0.30
   0  -3   9    4.13    0.28
   0   3   9    3.77    0.28
   0   3  -9    4.20    0.26
   0   3  10    0.82    0.18
   0   3 -10    0.92    0.16
   0   3 -10    0.79    0.20
   0  -3 -10    0.82    0.20
   0  -3  10    0.82    0.17
   0  -3  11    1.13    0.20
   0   3  11    1.32    0.21
   0   3 -11    1.18    0.23
   0  -3 -11    1.09    0.23
   0   3  12    0.47    0.20
   0  -3 -12    0.36    0.22
   0  -3  12    0.27    0.18
   0   3 -12   -0.01    0.22
   0  -3 -13    1.38    0.28
   0  -3  13    1.27    0.25
   0   3  13    1.52    0.26
   0   3 -13    0.71    0.27
   0  -4   0  339.99    8.93
   0  -4   0  357.50   10.91
   0  -4   0  338.36   10.26
   0   4   0  312.79    9.26
   0  -4   1  431.12   14.11
   0  -4  -1  431.95   14.05
   0   4   1  432.43   12.00
   0   4   1  455.50   11.58
   0   4  -1  415.82   12.01
   0  -4  -1  445.99   13.33
   0   4  -1  451.80   13.32
   0  -4   1  439.26   11.63
   0  -4  -2  395.88   12.72
   0   4   2  381.40   10.94
   0  -4  -2  415.93   12.10
   0  -4   2  393.68   10.53
   0   4  -2  391.67   10.75
   0   4   2  406.36   10.55
   0   4  -2  394.13   12.10
   0  -4   2  401.57   12.81
   0   4  -3  434.88   11.72
   0  -4   3  405.27   11.34
   0  -4   3  435.30   13.76
   0   4   3  427.97   11.33
   0  -4  -3  437.12   12.95
   0  -4  -3  426.29   13.65
   0   4   3  433.42   11.79
   0   4  -3  417.15   13.00
   0  -4  -4  479.40   15.75
   0  -4   4  491.52   13.00
   0   4  -4  482.73   13.31
   0   4   4  493.23   13.56
   0   4  -4  478.21   14.90
   0  -4   4  516.13   15.74
   0   4   4  488.40   12.89
   0  -4  -4  510.81   14.89
   0  -4  -5  323.56    9.75
   0   4   5  311.93    8.43
   0  -4   5  323.40   10.21
   0  -4   5  305.23    8.43
   0  -4  -5  330.80   10.21
   0   4  -5  317.05    8.71
   0   4  -5  337.99    9.72
   0   4   5  321.05    8.75
   0   4   6  225.72    6.18
   0   4   6  224.67    5.95
   0  -4   6  221.86    5.95
   0  -4  -6  228.43    7.17
   0  -4  -6  227.40    6.87
   0   4  -6  221.14    6.13
   0  -4   6  221.45    7.17
   0   4  -6  227.85    6.84
   0   4   7  139.69    3.97
   0  -4   7  141.56    4.55
   0  -4   7  142.50    3.82
   0   4  -7  140.97    4.36
   0  -4  -7  147.97    4.39
   0   4   7  137.38    3.82
   0  -4  -7  142.88    4.55
   0   4  -7  139.55    3.91
   0   4  -8  108.61    3.08
   0   4   8  108.14    3.15
   0   4   8  110.98    3.03
   0  -4  -8  112.78    3.47
   0   4  -8  109.26    3.43
   0  -4   8  110.90    3.02
   0   4  -9  122.87    3.88
   0  -4   9  124.33    3.42
   0   4   9  122.65    3.42
   0   4  -9  125.31    3.48
   0  -4  -9  127.91    3.92
   0  -4 -10  106.61    3.26
   0  -4  10   99.85    2.85
   0   4  10   99.36    2.85
   0   4 -10  102.85    3.23
   0   4 -10  100.02    2.88
   0  -4  11   73.10    2.15
   0  -4 -11   75.25    2.42
   0   4 -11   73.99    2.41
   0   4  11   72.61    2.15
   0   4 -12   49.56    1.71
   0  -4 -12   50.64    1.71
   0  -4  12   47.89    1.53
   0   4  12   49.18    1.54
   0  -4  13   27.11    0.98
   0   4  13   26.33    0.97
   0  -5   0    0.13    0.06
   0  -5   0    0.13    0.04
   0   5   0    0.17    0.06
   0  -5   1    4.23    0.21
   0  -5  -1    4.33    0.18
   0  -5   1    4.07    0.17
   0   5   1    4.07    0.17
   0  -5  -1    4.09    0.20
   0   5   1    3.83    0.20
   0   5  -1    4.36    0.18
   0   5  -1    3.81    0.20
   0  -5  -2    1.77    0.12
   0  -5  -2    1.79    0.13
   0  -5   2    1.65    0.12
   0  -5   2    1.86    0.13
   0   5  -2    1.58    0.13
   0   5   2    1.87    0.15
   0   5   2    1.89    0.11
   0   5  -2    1.72    0.12
   0   5   3    0.62    0.10
   0  -5   3    0.42    0.08
   0  -5   3    0.52    0.09
   0  -5  -3    0.46    0.08
   0   5   3    0.57    0.08
   0   5  -3    0.53    0.07
   0   5  -3    0.47    0.09
   0  -5  -3    0.49    0.08
   0   5   4    0.00    0.06
   0  -5  -4    0.03    0.07
   0  -5   4    0.06    0.06
   0   5   4    0.00    0.09
   0   5  -4    0.06    0.07
   0  -5   4    0.07    0.07
   0  -5  -4    0.04    0.08
   0   5  -4    0.07    0.06
   0   5  -5    1.87    0.16
   0   5  -5    1.71    0.16
   0  -5  -5    1.77    0.15
   0   5   5    1.82    0.15
   0  -5   5    1.85    0.16
   0  -5   5    1.83    0.15
   0  -5  -5    1.97    0.19
   0   5   5    1.85    0.18
   0  -5  -6    2.67    0.19
   0   5  -6    2.51    0.19
   0  -5   6    2.48    0.19
   0   5   6    2.97    0.24
   0   5  -6    2.52    0.19
   0  -5   6    2.84    0.20
   0  -5  -6    2.67    0.24
   0   5   6    2.67    0.20
   0  -5  -7    3.39    0.27
   0   5   7    3.01    0.27
   0   5  -7    3.13    0.24
   0  -5   7    3.15    0.21
   0  -5  -7    3.20    0.22
   0  -5   7    3.21    0.23
   0   5  -7    3.38    0.23
   0   5   7    3.03    0.23
   0  -5   8    1.84    0.19
   0   5  -8    2.00    0.19
   0   5  -8    1.90    0.20
   0   5   8    1.77    0.19
   0  -5  -8    1.81    0.22
   0  -5  -9    1.05    0.21
   0   5  -9    1.02    0.19
   0   5   9    1.20    0.19
   0  -5   9    1.33    0.18
   0   5  -9    1.13    0.18
   0   5 -10    0.84    0.18
   0  -5  10    0.94    0.19
   0  -5 -10    0.76    0.21
   0   5  10    1.07    0.19
   0  -5 -11    1.37    0.25
   0  -5  11    1.40    0.22
   0   5  11    1.46    0.23
   0  -5 -12    1.52    0.28
   0   5  12    1.52    0.25
   0  -5  12    1.37    0.24
   0  -6   0  329.46    9.97
   0   6   0  312.75    8.88
   0   6   0  338.38    8.67
   0  -6   0  330.32   10.48
   0  -6  -1  360.86   10.72
   0  -6  -1  345.32   11.30
   0  -6   1  354.22   11.49
   0   6  -1  336.34    9.60
   0  -6   1  371.25   10.77
   0  -6   1  359.03    9.39
   0   6   1  367.21    9.37
   0   6   1  341.67    9.61
   0  -6   2  316.98    8.49
   0   6  -2  338.97    9.76
   0   6   2  334.70    8.53
   0  -6  -2  300.14   10.24
   0  -6  -2  324.05    9.76
   0   6   2  315.61    8.76
   0   6  -2  314.67    8.74
   0  -6   2  334.86   10.40
   0   6  -3  290.73    7.92
   0  -6   3  285.69    9.28
   0   6   3  294.51    7.95
   0  -6   3  286.85    7.65
   0   6  -3  294.78    8.81
   0   6   3  293.78    7.64
   0  -6  -3  295.65    8.82
   0  -6  -3  289.57    9.28
   0  -6   4  160.79    4.38
   0   6   4  165.05    4.38
   0  -6  -4  166.36    5.31
   0  -6  -4  167.84    5.05
   0   6  -4  161.77    4.54
   0  -6   4  168.59    5.31
   0   6   4  165.68    4.58
   0   6  -5  232.06    6.35
   0   6   5  233.65    6.14
   0  -6   5  226.81    6.14
   0  -6  -5  228.24    7.42
   0   6   5  235.91    6.41
   0  -6   5  233.72    7.43
   0  -6  -5  235.77    7.09
   0  -6   6  187.86    5.08
   0   6  -6  187.37    5.25
   0   6   6  197.47    5.31
   0  -6  -6  195.81    5.86
   0   6   6  188.03    5.07
   0  -6   6  186.52    6.12
   0  -6  -6  191.39    6.12
   0  -6  -7  174.73    5.25
   0  -6  -7  172.80    5.47
   0   6  -7  164.75    4.69
   0   6   7  173.92    4.76
   0  -6   7  167.91    4.55
   0  -6   7  164.36    5.47
   0   6   7  168.58    4.55
   0   6  -8  124.32    3.49
   0  -6  -8  128.54    3.90
   0   6   8  125.28    3.40
   0  -6   8  116.97    4.03
   0  -6   8  125.56    3.40
   0  -6  -9   95.47    2.98
   0   6   9   92.31    2.61
   0   6  -9   89.16    2.66
   0  -6   9   94.14    2.61
   0   6  10   59.28    1.81
   0  -6 -10   63.88    2.05
   0   6 -10   61.06    1.83
   0  -6  10   59.95    1.81
   0  -6 -11   52.55    1.72
   0   6 -11   49.13    1.53
   0  -6  11   46.36    1.52
   0   6  11   48.99    1.53
   0   6  12   33.97    1.13
   0  -6  12   30.27    1.10
   0  -6 -12   32.99    1.22
   0  -7   0    0.15    0.08
   0   7   1    0.32    0.07
   0   7   1    0.40    0.11
   0  -7   1    0.34    0.08
   0  -7  -1    0.26    0.07
   0  -7   1    0.30    0.10
   0   7  -1    0.18    0.10
   0  -7  -1    0.29    0.09
   0  -7   2    0.03    0.07
   0   7   2    0.01    0.06
   0  -7  -2    0.06    0.08
   0  -7  -2    0.07    0.07
   0   7  -2    0.05    0.10
   0  -7   2    0.00    0.08
   0   7   2    0.08    0.10
   0   7   3    0.04    0.11
   0  -7  -3   -0.01    0.08
   0  -7   3    0.08    0.08
   0  -7   3    0.01    0.07
   0   7   3    0.06    0.07
   0  -7  -3   -0.03    0.08
   0   7  -3   -0.02    0.10
   0  -7   4    5.62    0.25
   0   7   4    5.60    0.32
   0   7  -4    5.16    0.28
   0   7   4    5.81    0.25
   0  -7  -4    5.52    0.29
   0  -7   4    5.64    0.30
   0  -7  -4    5.50    0.29
   0   7   5    4.07    0.31
   0  -7   5    4.03    0.25
   0  -7  -5    4.27    0.28
   0   7   5    4.07    0.23
   0  -7  -5    4.43    0.26
   0  -7   5    4.49    0.23
   0   7  -5    4.30    0.27
   0   7   6    0.57    0.18
   0  -7  -6    0.61    0.16
   0  -7   6    0.59    0.13
   0   7   6    0.59    0.13
   0  -7  -6    0.81    0.14
   0   7  -6    0.57    0.16
   0  -7   6    0.68    0.13
   0  -7  -7    0.33    0.16
   0   7   7    0.16    0.13
   0   7  -7    0.27    0.15
   0  -7   7    0.25    0.12
   0  -7   8    0.84    0.16
   0  -7  -8    1.54    0.22
   0   7   8    1.03    0.18
   0   7  -8    1.41    0.20
   0  -7   8    1.02    0.16
   0   7  -9    2.45    0.25
   0  -7  -9    2.57    0.27
   0   7   9    2.88    0.27
   0  -7   9    2.43    0.24
   0   7  10    2.24    0.25
   0   7 -10    1.45    0.22
   0  -7 -10    1.93    0.27
   0  -7  10    1.45    0.22
   0   7 -11    0.46    0.20
   0   7  11    0.65    0.21
   0  -7  11    0.35    0.19
   0  -7 -11    0.56    0.24
   0   7  12    2.33    0.30
   0  -7  12    2.54    0.30
   0   8   0  247.34    6.24
   0  -8   0  238.85    7.59
   0   8   0  223.75    6.49
   0   8   1  269.82    6.85
   0  -8   1  268.96    8.35
   0   8  -1  248.95    7.13
   0  -8  -1  255.74    8.33
   0   8   1  259.11    7.14
   0  -8   2  205.04    5.46
   0   8   2  205.96    5.71
   0   8   2  211.46    5.45
   0  -8   2  214.86    6.65
   0   8  -2  202.54    5.69
   0  -8  -2  198.93    6.63
   0  -8   3  183.13    5.72
   0  -8   3  179.47    4.70
   0  -8  -3  169.60    5.69
   0   8   3  176.80    4.92
   0   8  -3  172.94    4.89
   0   8   3  177.88    4.69
   0   8   4  121.22    3.23
   0   8  -4  117.06    3.38
   0  -8  -4  117.38    3.93
   0   8   4  122.92    3.43
   0  -8   4  120.64    3.24
   0  -8   4  121.93    3.94
   0   8   5  176.03    4.61
   0   8  -5  167.36    4.80
   0  -8   5  173.49    4.61
   0   8   5  176.73    4.86
   0  -8   5  169.98    5.59
   0  -8  -5  178.87    5.32
   0  -8  -5  166.05    5.58
   0   8   6  137.82    3.89
   0  -8   6  132.12    4.43
   0  -8  -6  140.04    4.23
   0  -8  -6  134.42    4.43
   0  -8   6  132.61    3.67
   0   8   6  137.56    3.67
   0   8  -6  134.76    3.82
   0   8  -7  121.58    3.45
   0  -8   7  122.86    3.32
   0   8   7  120.14    3.32
   0  -8  -7  122.72    3.82
   0  -8   7  119.38    3.99
   0   8  -8   84.53    2.46
   0  -8   8   81.02    2.81
   0  -8   8   85.75    2.37
   0  -8  -8   86.28    2.71
   0   8   8   81.17    2.37
   0   8   9   78.02    2.29
   0   8  -9   78.29    2.36
   0  -8  -9   82.33    2.60
   0   8  10   48.46    1.56
   0   8 -10   50.75    1.61
   0  -8 -10   53.63    1.77
   0   8  11   35.36    1.20
   0   8 -11   34.38    1.21
   0  -8 -11   37.81    1.35
   0   9   0   -0.09    0.12
   0  -9   0   -0.02    0.10
   0  -9   1    2.31    0.23
   0  -9  -1    2.24    0.21
   0   9  -1    2.38    0.22
   0   9   1    2.59    0.25
   0  -9  -2    0.04    0.10
   0   9  -2    0.10    0.12
   0  -9   2    0.11    0.11
   0   9   2    0.01    0.12
   0   9  -3    0.06    0.15
   0  -9  -3    0.00    0.12
   0   9   3    0.24    0.15
   0  -9   3    0.17    0.13
   0   9   4    0.04    0.15
   0  -9  -4    0.13    0.12
   0  -9   4    0.08    0.13
   0   9  -4   -0.08    0.13
   0  -9   5    1.10    0.18
   0   9   5    0.95    0.20
   0   9  -5    1.00    0.20
   0  -9  -5    0.90    0.16
   0   9  -6    1.31    0.22
   0  -9  -6    1.46    0.21
   0   9   6    1.74    0.25
   0  -9   6    1.43    0.20
   0   9  -7    0.04    0.18
   0  -9   7    0.23    0.14
   0  -9   8    0.59    0.18
   0   9  -8    0.67    0.21
   0   9  -9    0.58    0.22
   0   9 -10    0.30    0.22
   0 -10   0   99.22    3.27
   0  10   0   97.32    2.85
   0  10   1  140.46    4.00
   0 -10   1  141.83    4.61
   0  10  -1  142.44    3.99
   0 -10  -1  137.71    4.60
   0  10  -2  139.92    3.99
   0  10   2  142.53    4.02
   0 -10  -2  135.71    4.61
   0 -10   2  146.00    4.63
   0  10  -3  140.98    4.02
   0 -10   3  142.94    4.66
   0 -10  -3  137.99    4.64
   0  10   3  145.51    4.06
   0  10  -4  130.96    3.86
   0 -10  -4  135.41    4.46
   0 -10   4  140.42    4.48
   0  10  -5  110.88    3.19
   0  10   5  110.81    3.23
   0 -10   5  110.96    3.67
   0 -10  -5  106.61    3.64
   0 -10   6   85.80    2.90
   0 -10  -6   83.10    2.87
   0  10  -6   85.69    2.53
   0 -10   7   67.20    2.34
   0  10  -7   66.86    2.06
   0  10  -8   46.29    1.52
   0  11   0    0.17    0.18
   0 -11   0    0.17    0.15
   0 -11  -1    0.04    0.15
   0  11   1   -0.01    0.17
   0  11  -1   -0.02    0.16
   0 -11   1    0.10    0.13
   0  11  -2    0.17    0.19
   0 -11  -2    0.11    0.16
   0  11   2   -0.01    0.18
   0 -11   2    0.13    0.16
   0  11   3    0.45    0.18
   0 -11  -3    0.59    0.19
   0  11  -3    0.48    0.18
   0 -11   3    0.49    0.18
   0 -11  -4    0.35    0.18
   0  11  -4    0.39    0.21
   0  11   4    0.29    0.21
   0 -11   4    0.26    0.16
   0 -11  -5   -0.10    0.17
   0  11  -5   -0.09    0.17
   0 -11   5    0.11    0.18
   0  11   5   -0.11    0.18
   0 -11   6    0.15    0.19
   0 -11  -6    0.26    0.19
   0  11  -6    0.06    0.21
   0 -11   7    0.19    0.19
   0 -12   0   82.89    2.83
   0  12   0   82.29    2.52
   0  12   1   81.41    2.48
   0 -12   1   80.89    2.78
   0  12  -1   80.03    2.46
   0 -12  -1   81.03    2.77
   0  12  -2   91.51    2.73
   0 -12   2   90.41    3.09
   0 -12  -2   89.52    3.08
   0  12   2   90.79    2.75
   0 -12   3   94.40    3.18
   0  12  -3   89.87    2.79
   0  12   3   95.95    2.83
   0 -12  -3   92.23    3.17
   0  12   4   86.47    2.59
   0 -12  -4   78.70    2.85
   0 -12   4   83.73    2.88
   0  12  -4   84.22    2.54
   0 -12  -5   64.81    2.31
   0 -12   5   66.38    2.33
   0 -12  -6   55.16    1.99
   1   0   0    0.01    0.02
   1   0   0    0.01    0.03
   1   0   0    0.02    0.05
   1   0  -1    8.42    0.27
   1   0  -1    9.04    0.30
  -1   0   1    8.42    0.25
   1   0   1    8.83    0.26
   1   0  -1    9.00    0.32
   1   0   1    8.90    0.31
   1   0  -2    5.59    0.23
   1   0  -2    5.38    0.17
   1   0   2    5.66    0.20
   1   0   2    5.73    0.26
  -1   0   2    5.53    0.18
   1   0  -2    5.76    0.22
   1   0   2    5.46    0.19
  -1   0  -2    5.38    0.20
  -1   0  -3    9.88    0.35
   1   0  -3   10.05    0.37
   1   0  -3   10.35    0.29
   1   0   3   10.09    0.33
  -1   0   3   10.23    0.32
   1   0   3   11.05    0.40
   1   0  -3   10.08    0.38
   1   0  -4   17.05    0.59
  -1   0  -4   15.81    0.55
   1   0  -4   16.83    0.58
   1   0   4   16.37    0.51
  -1   0   4   16.00    0.50
   1   0   4   16.73    0.59
   1   0  -4   16.52    0.47
   1   0   5    5.64    0.25
  -1   0   5    5.82    0.25
   1   0   5    5.63    0.31
  -1   0  -5    5.69    0.26
   1   0  -5    5.65    0.20
   1   0  -5    6.06    0.29
   1   0   6    7.40    0.37
  -1   0   6    7.27    0.30
  -1   0  -6    6.40    0.31
  -1   0   6    7.69    0.31
   1   0  -6    6.59    0.33
   1   0  -6    6.89    0.25
   1   0   6    6.77    0.30
  -1   0  -7    3.88    0.26
   1   0  -7    4.43    0.19
   1   0  -7    3.81    0.27
  -1   0   7    4.14    0.24
  -1   0   7    4.68    0.24
   1   0   7    4.28    0.25
   1   0   7    4.07    0.30
  -1   0  -8   28.74    1.02
  -1   0   8   31.48    1.05
   1   0  -8   29.93    1.06
   1   0   8   29.77    1.03
  -1   0   8   29.67    0.93
   1   0   8   28.98    0.93
  -1   0  -9   24.89    0.91
   1   0   9   24.98    0.84
   1   0  -9   26.76    0.96
  -1   0   9   25.00    0.83
  -1   0 -10    4.08    0.31
   1   0  10    3.77    0.29
   1   0 -10    3.73    0.34
  -1   0 -10    4.12    0.28
  -1   0  10    3.69    0.28
  -1   0  11    4.85    0.33
  -1   0 -11    5.42    0.34
   1   0  11    5.37    0.35
   1   0 -11    5.14    0.41
  -1   0 -11    5.40    0.36
  -1   0  12    5.55    0.37
   1   0 -12    5.06    0.42
  -1   0 -12    5.61    0.38
   1   0  12    5.32    0.38
  -1   0  13    9.34    0.50
   1   0  13    8.93    0.49
   1   0 -13    8.12    0.54
   1   1   0  439.56   13.07
   1  -1   0  435.89   11.33
  -1   1   0  423.21   11.68
   1  -1   0  421.38   13.75
   1   1   0  427.23   11.75
   1   1   0  438.66   11.45
   1  -1   0  421.26   13.03
  -1  -1   0  420.85   13.75
   1  -1  -1   94.34    2.80
   1   1   1   91.66    2.42
  -1  -1   1   93.72    2.95
   1   1   1   95.46    2.82
  -1   1  -1   90.51    2.80
  -1  -1   1   90.99    2.43
   1   1   1   89.46    2.54
   1   1  -1   94.25    2.81
  -1   1   1   91.58    2.51
   1   1  -1   90.94    2.51
   1  -1   1   94.32    2.96
  -1   1   1   91.46    2.43
  -1  -1  -1   90.97    2.94
   1  -1   1   90.01    2.43
   1   1   2   91.72    2.62
  -1  -1   2   93.07    3.03
   1   1   2   92.60    2.49
   1  -1  -2   96.32    3.03
  -1   1  -2   88.54    2.86
   1  -1  -2   99.35    2.88
  -1  -1   2   89.52    2.48
  -1  -1  -2   88.29    3.00
   1   1  -2   97.27    2.88
   1   1  -2   92.10    2.56
   1  -1   2  102.84    3.02
  -1  -1  -2   95.12    2.87
   1  -1   2   94.91    2.50
   1  -1   2   97.60    2.64
  -1   1   2   94.59    2.49
  -1  -1   3   44.81    1.49
  -1  -1   3   42.88    1.23
   1   1   3   44.18    1.33
   1  -1  -3   46.26    1.50
   1  -1  -3   47.39    1.43
   1   1   3   44.56    1.24
  -1   1  -3   45.27    1.41
  -1   1   3   44.34    1.23
   1  -1   3   46.72    1.35
  -1  -1  -3   44.14    1.46
   1   1  -3   47.55    1.43
   1  -1   3   47.71    1.46
   1   1  -3   44.83    1.25
   1  -1   3   45.23    1.24
  -1  -1   4   76.27    2.44
   1   1   4   76.63    2.16
   1  -1  -4   76.86    2.44
  -1   1  -4   76.27    2.31
   1  -1  -4   72.51    2.33
  -1  -1   4   74.39    2.02
   1   1   4   74.44    2.03
   1   1  -4   76.19    2.05
  -1   1   4   70.55    2.06
  -1   1   4   72.64    2.02
   1   1  -4   76.41    2.33
   1  -1   4   74.61    2.03
   1  -1   4   77.87    2.17
  -1  -1  -4   73.82    2.31
   1  -1   4   76.28    2.40
  -1   1  -5   58.46    1.78
   1  -1  -5   55.29    1.80
   1   1   5   54.94    1.57
  -1  -1   5   57.85    1.86
  -1  -1   5   57.03    1.56
   1  -1  -5   57.26    1.87
   1   1   5   55.12    1.68
   1  -1   5   53.64    1.82
   1   1  -5   58.48    1.80
  -1   1   5   57.22    1.56
  -1  -1  -5   56.86    1.78
   1   1  -5   57.49    1.57
   1  -1   5   56.13    1.57
   1   1   6   75.78    2.24
   1  -1  -6   70.77    2.41
   1  -1  -6   78.89    2.50
   1   1   6   75.34    2.11
  -1  -1   6   74.28    2.10
  -1   1  -6   77.37    2.39
  -1   1  -6   75.15    2.16
   1  -1  -6   79.22    2.10
  -1  -1   6   79.92    2.50
  -1   1   6   78.04    2.10
  -1  -1  -6   76.39    2.40
   1  -1   6   75.28    2.11
   1   1  -6   78.05    2.11
   1   1  -6   76.54    2.41
   1   1   7   65.59    1.95
  -1  -1   7   63.72    1.81
  -1   1  -7   64.25    1.86
  -1   1  -7   62.75    2.05
   1  -1  -7   66.40    1.80
  -1  -1   7   66.89    2.14
   1  -1  -7   67.10    2.14
   1   1   7   64.32    1.83
   1  -1  -7   62.22    2.08
  -1  -1  -7   64.77    2.06
   1   1  -7   65.37    1.81
   1   1  -7   62.80    2.07
   1  -1   7   64.84    1.83
  -1   1   7   65.18    1.82
  -1  -1   8   72.75    2.10
   1  -1  -8   76.02    2.42
   1   1   8   78.06    2.26
  -1   1  -8   75.66    2.38
  -1  -1   8   76.59    2.47
  -1   1  -8   76.40    2.15
   1   1   8   75.10    2.12
   1   1  -8   73.30    2.41
  -1  -1  -8   74.82    2.40
  -1   1   8   76.08    2.12
   1  -1   8   72.97    2.12
  -1   1  -9   24.92    0.87
  -1   1  -9   24.97    0.79
  -1  -1   9   23.75    0.79
   1  -1  -9   23.89    0.90
   1   1   9   23.67    0.80
   1   1   9   24.02    0.89
   1  -1   9   22.93    0.80
  -1   1   9   24.80    0.80
   1   1  -9   22.73    0.89
  -1  -1  -9   22.29    0.86
  -1   1 -10   32.43    1.00
   1   1  10   31.66    1.11
  -1  -1  10   30.23    1.00
   1  -1 -10   30.13    1.13
   1   1  10   29.93    1.01
  -1   1 -10   30.64    1.08
  -1   1  10   31.03    1.01
   1  -1  10   30.77    1.01
   1   1 -10   31.77    1.14
  -1  -1 -10   30.32    1.10
  -1   1 -11   23.01    0.78
  -1  -1  11   22.29    0.80
   1   1  11   20.86    0.79
  -1   1 -11   22.69    0.84
   1  -1 -11   22.42    0.90
   1  -1  11   21.05    0.79
  -1   1  11   21.95    0.79
   1   1 -11   21.12    0.89
  -1  -1 -11   22.29    0.86
  -1  -1  12   19.90    0.76
   1  -1 -12   21.61    0.89
  -1   1 -12   19.60    0.80
   1   1  12   20.33    0.78
   1   1 -12   20.82    0.87
  -1  -1 -12   20.19    0.82
  -1   1  12   20.76    0.77
   1  -1  12   19.61    0.77
   1   1  13   13.59    0.62
  -1  -1  13   13.78    0.61
   1  -1 -13   14.35    0.71
  -1   1 -13   12.71    0.62
  -1   1  13   13.63    0.62
  -1  -1 -13   13.39    0.64
   1  -1  13   13.07    0.62
   1   1 -13   12.79    0.68
   1   2   0    4.77    0.20
  -1   2   0    4.66    0.17
   1  -2   0    4.76    0.17
   1  -2   0    4.92    0.20
  -1  -2   0    4.78    0.19
   1   2   0    4.88    0.19
   1  -2  -1   16.12    0.50
  -1  -2   1   15.61    0.42
  -1   2  -1   14.92    0.46
  -1   2  -1   15.78    0.48
   1  -2  -1   16.01    0.54
   1   2   1   15.84    0.50
  -1  -2   1   15.90    0.54
   1   2   1   15.03    0.43
  -1  -2  -1   15.26    0.52
   1  -2   1   15.14    0.45
  -1   2   1   14.93    0.44
   1  -2   1   16.15    0.53
   1   2  -1   15.09    0.52
   1   2  -1   14.99    0.46
  -1   2   1   15.27    0.44
  -1  -2   2   11.46    0.42
   1   2   2   11.34    0.41
   1   2   2   10.58    0.34
  -1   2  -2   11.27    0.37
  -1  -2   2   11.50    0.33
   1  -2  -2   12.01    0.39
  -1   2  -2   11.50    0.36
   1  -2  -2   11.57    0.42
   1  -2   2   11.66    0.35
  -1   2   2   11.60    0.34
  -1  -2  -2   11.20    0.39
  -1   2   2   10.79    0.33
  -1  -2  -2   10.32    0.38
   1  -2   2   12.16    0.40
   1   2  -2   11.25    0.35
   1   2  -2   11.62    0.40
  -1   2  -3    1.68    0.13
  -1  -2   3    1.58    0.10
   1   2   3    1.65    0.12
   1   2   3    1.47    0.14
   1   2  -3    1.08    0.10
   1   2  -3    1.03    0.09
   1  -2   3    1.16    0.10
  -1  -2  -3    0.99    0.09
  -1   2   3    1.08    0.09
   1  -2   3    1.21    0.09
  -1  -2  -3    1.01    0.07
  -1   2   3    1.09    0.07
  -1  -2   4    2.40    0.16
   1  -2  -4    2.37    0.16
   1  -2  -4    2.20    0.18
  -1   2  -4    2.51    0.16
  -1  -2   4    2.35    0.15
   1   2   4    2.42    0.16
   1   2   4    2.29    0.20
  -1   2  -4    2.53    0.16
  -1   2   4    3.33    0.15
   1  -2   4    3.26    0.16
  -1  -2  -4    3.16    0.12
   1   2  -4    3.37    0.18
   1   2  -4    3.25    0.14
  -1   2   4    3.58    0.15
  -1   2  -5   17.43    0.59
  -1  -2   5   18.63    0.63
   1  -2  -5   17.62    0.63
   1  -2  -5   14.96    0.61
   1   2   5   16.95    0.55
   1   2   5   17.07    0.62
  -1   2  -5   17.65    0.57
  -1  -2   5   17.69    0.54
   1  -2   5   16.89    0.55
   1   2  -5   17.87    0.62
  -1   2   5   17.89    0.54
   1   2  -5   16.98    0.52
  -1  -2  -5   17.22    0.57
  -1  -2  -5   16.75    0.60
   1  -2   5   16.00    0.58
  -1   2   5   17.01    0.54
  -1  -2   6   11.72    0.43
   1  -2  -6   11.24    0.50
   1   2   6   11.98    0.50
   1  -2  -6   12.54    0.48
  -1   2  -6   12.17    0.45
   1   2   6   12.15    0.44
  -1  -2   6   12.41    0.48
  -1   2  -6   11.93    0.46
   1   2  -6   12.89    0.41
  -1  -2  -6   12.04    0.48
   1   2  -6   12.23    0.49
  -1   2   6   12.64    0.44
  -1   2   6   14.00    0.43
   1  -2   6   12.20    0.44
  -1   2  -7   14.08    0.50
  -1   2  -7   13.97    0.53
  -1  -2   7   14.21    0.50
   1   2   7   14.26    0.58
   1  -2  -7   13.70    0.54
   1   2   7   13.71    0.50
  -1  -2   7   14.32    0.54
   1  -2  -7   12.03    0.55
  -1   2   7   13.82    0.50
   1  -2   7   13.57    0.50
  -1  -2  -7   13.11    0.54
   1   2  -7   13.31    0.55
   1   2  -7   14.62    0.46
  -1   2  -8    9.17    0.41
   1  -2  -8    8.73    0.45
  -1  -2   8    9.59    0.41
  -1   2  -8    8.65    0.39
   1   2   8    9.70    0.48
   1  -2  -8    9.46    0.41
   1   2   8    8.91    0.40
  -1  -2   8   10.18    0.41
   1  -2   8   10.05    0.41
  -1  -2  -8    9.84    0.45
   1   2  -8    9.89    0.37
  -1   2   8    9.60    0.41
   1   2  -8    9.61    0.45
  -1   2  -9    8.30    0.39
  -1  -2   9    8.55    0.39
   1   2   9    8.59    0.46
   1  -2  -9    7.92    0.44
  -1   2  -9    8.96    0.38
   1   2   9    8.37    0.40
   1  -2   9    7.37    0.38
  -1   2   9    8.08    0.39
  -1  -2  -9    7.39    0.40
   1   2  -9    7.03    0.42
   1   2  10    9.56    0.51
  -1   2 -10    9.71    0.42
  -1   2 -10    8.60    0.43
  -1  -2  10    9.13    0.43
   1  -2 -10    9.41    0.50
   1   2  10    9.47    0.45
  -1   2  10    8.81    0.43
   1  -2  10    9.57    0.45
   1   2 -10    8.91    0.48
  -1  -2 -10    9.55    0.47
  -1   2 -11   10.05    0.50
   1   2  11   11.46    0.51
  -1   2 -11   10.93    0.47
   1  -2 -11   10.43    0.55
  -1  -2  11   10.80    0.49
  -1  -2 -11   10.71    0.53
   1   2 -11   10.36    0.55
   1  -2  11   10.97    0.51
  -1   2  11   10.72    0.50
   1   2  12   12.12    0.56
   1  -2 -12   11.40    0.61
  -1   2 -12   11.37    0.55
  -1  -2  12   11.79    0.53
  -1  -2 -12   11.40    0.58
  -1   2  12   11.87    0.55
   1  -2  12   11.96    0.55
   1   2 -12   11.76    0.61
  -1  -2  13    6.92    0.42
  -1   2 -13    6.66    0.44
   1   2  13    7.02    0.44
   1  -2 -13    7.15    0.51
  -1   2  13    6.74    0.43
  -1  -2 -13    5.94    0.43
   1   2 -13    6.40    0.49
   1  -2  13    5.93    0.42
  -1   2 -14    2.83    0.33
   1   3   0   14.68    0.51
   1  -3   0   15.78    0.44
  -1  -3   0   14.11    0.51
  -1   3   0   14.45    0.44
   1   3   0   14.91    0.40
   1   3   0   13.92    0.47
   1  -3   0   14.75    0.52
   1  -3  -1   72.27    2.02
   1   3   1   69.98    1.75
  -1  -3   1   70.93    2.15
   1  -3  -1   71.15    2.15
   1   3   1   69.25    1.87
  -1   3  -1   68.60    1.83
  -1  -3   1   68.86    1.75
  -1  -3  -1   60.14    2.12
  -1   3   1   61.91    1.77
   1   3  -1   61.85    2.04
  -1   3   1   62.36    1.81
  -1  -3  -1   64.11    2.04
   1  -3   1   66.67    2.14
   1   3  -1   59.48    1.83
   1  -3   1   64.75    1.78
   1   3   2  123.77    3.23
   1   3   2  122.96    3.39
  -1  -3   2  121.67    3.22
   1  -3  -2  124.14    3.93
  -1   3  -2  118.51    3.72
   1  -3  -2  123.58    3.73
  -1   3  -2  118.87    3.34
  -1  -3  -2  123.51    3.73
  -1   3   2  121.96    3.23
   1   3  -2  117.95    3.34
   1   3  -2  122.38    3.74
   1  -3   2  134.26    3.92
   1  -3   2  122.02    3.24
  -1  -3  -2  120.20    3.90
  -1   3   2  120.58    3.32
   1   3   3  138.85    3.68
   1   3   3  135.96    3.85
  -1   3  -3  140.13    4.21
  -1   3  -3  134.21    3.80
   1  -3  -3  134.52    4.46
  -1  -3   3  138.82    4.45
  -1  -3   3  138.09    3.66
   1  -3  -3  119.65    4.23
   1  -3   3  152.74    4.45
   1  -3   3  142.35    3.69
  -1  -3  -3  139.92    4.24
  -1   3   3  144.49    3.68
   1   3  -3  144.56    4.25
   1   3  -3  141.94    3.79
  -1   3   3  144.88    3.78
  -1  -3  -3  133.98    4.42
  -1   3  -4  181.97    5.45
  -1   3  -4  175.51    4.91
  -1  -3   4  183.86    5.75
  -1  -3   4  178.96    4.74
   1   3   4  180.45    4.97
   1   3   4  174.42    4.75
   1  -3  -4  182.55    5.76
  -1  -3  -4  175.09    5.47
   1  -3   4  176.34    4.76
  -1   3   4  178.84    4.89
   1   3  -4  182.15    5.48
  -1  -3  -4  176.81    5.71
  -1   3   4  179.21    4.75
   1  -3   4  188.67    5.74
   1   3  -4  183.71    4.89
   1  -3  -5   41.15    1.45
   1   3   5   47.03    1.28
   1  -3  -5   47.91    1.51
  -1  -3   5   46.40    1.26
  -1   3  -5   45.05    1.30
  -1   3  -5   47.68    1.41
   1   3   5   45.21    1.37
  -1  -3   5   48.55    1.51
   1  -3   5   40.25    1.47
  -1   3   5   43.03    1.26
  -1  -3  -5   44.53    1.46
   1  -3   5   41.98    1.26
  -1   3   5   45.69    1.29
  -1  -3  -5   42.77    1.43
   1   3  -5   45.42    1.28
   1   3  -5   44.07    1.44
   1   3   6   43.29    1.41
   1   3   6   45.53    1.32
  -1   3  -6   47.01    1.46
   1  -3  -6   43.41    1.54
  -1   3  -6   45.20    1.35
  -1  -3   6   44.57    1.30
   1  -3  -6   44.65    1.51
  -1  -3   6   45.35    1.54
   1   3  -6   48.03    1.33
  -1  -3  -6   48.30    1.50
  -1  -3  -6   46.81    1.49
  -1   3   6   47.62    1.34
   1   3  -6   47.64    1.50
   1  -3   6   46.01    1.32
  -1   3   6   45.79    1.31
  -1  -3   7   38.23    1.14
  -1   3  -7   37.71    1.17
   1   3   7   38.75    1.15
  -1  -3   7   39.78    1.33
   1  -3  -7   38.39    1.33
   1   3   7   36.75    1.25
   1  -3  -7   37.56    1.31
  -1   3  -7   39.04    1.26
   1  -3   7   40.83    1.17
  -1  -3  -7   38.11    1.29
   1   3  -7   39.91    1.31
  -1   3   7   40.06    1.15
   1   3  -7   39.59    1.14
   1  -3  -8   33.71    1.20
   1   3   8   33.66    1.05
   1  -3  -8   36.14    1.21
  -1  -3   8   34.70    1.04
   1   3   8   35.14    1.16
  -1  -3   8   35.81    1.19
  -1   3  -8   35.01    1.06
  -1   3  -8   35.29    1.15
   1   3  -8   34.16    1.03
   1  -3   8   32.56    1.06
  -1   3   8   32.97    1.05
  -1  -3  -8   32.52    1.18
   1   3  -8   34.55    1.19
   1   3   9   37.35    1.27
  -1  -3   9   36.34    1.14
  -1   3  -9   37.65    1.17
  -1   3  -9   38.00    1.26
   1   3   9   38.35    1.17
   1  -3  -9   39.35    1.33
  -1   3   9   38.08    1.17
   1  -3   9   37.56    1.18
  -1  -3  -9   36.64    1.30
   1   3  -9   37.15    1.31
  -1  -3  10   31.46    1.02
   1  -3 -10   33.07    1.18
   1   3  10   31.60    1.14
   1   3  10   31.85    1.04
  -1   3 -10   31.56    1.11
  -1   3 -10   31.80    1.03
  -1  -3 -10   32.03    1.15
   1   3 -10   32.08    1.16
  -1   3  10   31.69    1.04
   1  -3  10   31.53    1.04
   1  -3 -11   28.45    1.06
  -1  -3  11   26.23    0.91
  -1   3 -11   28.18    0.91
   1   3  11   27.93    0.95
  -1   3 -11   26.22    0.98
  -1   3  11   25.79    0.93
  -1  -3 -11   26.86    1.01
   1  -3  11   27.08    0.95
   1   3 -11   26.15    1.04
   1   3  12   27.01    0.96
  -1   3 -12   28.20    0.93
   1  -3 -12   27.85    1.07
  -1   3 -12   25.90    1.00
  -1  -3  12   27.38    0.94
  -1  -3 -12   26.96    1.04
  -1   3  12   26.43    0.96
   1  -3  12   25.13    0.95
   1   3 -12   27.12    1.07
   1  -3 -13   11.89    0.65
   1   3  13   11.01    0.56
  -1  -3  13   11.86    0.56
   1  -3  13   11.04    0.57
   1   3 -13   11.40    0.63
  -1   3  13   11.24    0.56
  -1  -3 -13   11.75    0.60
   1   4   0    2.15    0.08
  -1  -4   0    1.86    0.12
   1  -4   0    1.89    0.12
  -1   4   0    1.97    0.12
   1   4   0    1.99    0.15
   1   4   0    1.89    0.15
   1  -4   0    2.29    0.14
  -1  -4   1    5.94    0.18
  -1  -4   1    5.59    0.24
   1   4   1    5.77    0.18
   1   4   1    5.86    0.26
   1  -4  -1    5.97    0.26
  -1   4  -1    5.91    0.22
   1  -4  -1    5.89    0.21
  -1   4   1    5.46    0.21
   1   4  -1    5.22    0.23
  -1   4   1    5.18    0.21
  -1  -4  -1    5.27    0.23
   1   4  -1    5.23    0.24
   1  -4   1    5.42    0.25
   1  -4   1    5.12    0.21
  -1  -4  -1    5.42    0.23
  -1  -4   2    1.26    0.11
  -1  -4   2    1.28    0.08
   1  -4  -2    1.17    0.12
   1   4   2    1.34    0.09
   1  -4  -2    1.37    0.12
   1   4   2    1.11    0.12
  -1   4  -2    1.21    0.11
   1  -4   2    1.21    0.12
  -1  -4  -2    1.15    0.10
  -1  -4  -2    1.22    0.12
   1   4  -2    1.08    0.11
   1  -4   2    1.25    0.12
  -1   4   2    1.19    0.10
  -1   4   2    1.18    0.10
   1   4  -2    1.18    0.13
   1  -4  -3    5.69    0.27
  -1   4  -3    5.77    0.25
  -1  -4   3    5.71    0.26
  -1  -4   3    5.81    0.21
   1   4   3    6.19    0.23
   1   4   3    6.00    0.29
  -1   4  -3    5.85    0.21
  -1   4   3    5.60    0.23
  -1   4   3    5.60    0.22
   1  -4   3    5.92    0.26
   1   4  -3    5.14    0.25
   1   4  -3    5.63    0.24
  -1  -4  -3    5.40    0.25
   1  -4   3    5.42    0.23
  -1  -4  -3    5.42    0.23
  -1   4  -4   18.90    0.61
   1   4   4   17.39    0.65
  -1   4  -4   17.67    0.60
  -1  -4   4   17.41    0.67
  -1  -4   4   18.01    0.56
   1  -4  -4   18.35    0.68
   1   4   4   18.44    0.57
  -1  -4  -4   19.33    0.64
  -1   4   4   18.78    0.57
  -1  -4  -4   18.61    0.64
   1   4  -4   18.72    0.65
  -1   4   4   19.50    0.59
   1  -4   4   18.10    0.58
   1   4  -4   19.74    0.59
   1  -4   4   20.28    0.68
   1  -4  -5   13.19    0.52
   1   4   5   13.50    0.53
  -1   4  -5   13.23    0.46
  -1   4  -5   14.48    0.47
  -1  -4   5   14.06    0.52
  -1  -4   5   14.27    0.44
   1   4   5   13.47    0.45
   1  -4  -5   12.14    0.52
  -1   4   5   13.40    0.45
   1   4  -5   12.71    0.50
  -1   4   5   13.34    0.46
  -1  -4  -5   13.79    0.48
  -1  -4  -5   12.12    0.49
   1  -4   5   12.83    0.46
   1   4  -5   13.35    0.45
   1  -4   5   11.80    0.50
   1   4   6    2.25    0.22
   1   4   6    2.03    0.18
   1  -4  -6    1.58    0.18
  -1  -4   6    2.00    0.17
  -1   4  -6    1.97    0.19
   1  -4  -6    2.08    0.18
  -1  -4   6    2.02    0.17
  -1   4  -6    1.91    0.17
   1  -4   6    1.56    0.14
  -1   4   6    1.88    0.16
  -1  -4  -6    2.02    0.13
   1   4  -6    1.78    0.19
   1   4  -6    1.90    0.16
  -1  -4  -6    1.93    0.19
   1  -4   6    2.05    0.18
  -1   4  -7    5.98    0.29
   1   4   7    5.99    0.30
   1   4   7    5.79    0.36
  -1  -4   7    6.14    0.29
  -1   4  -7    5.56    0.29
   1  -4  -7    5.89    0.30
  -1  -4   7    6.21    0.30
   1  -4  -7    5.96    0.35
  -1   4   7    5.65    0.30
   1   4  -7    5.42    0.32
  -1  -4  -7    5.54    0.32
   1   4  -7    6.09    0.28
   1  -4   7    6.03    0.30
   1   4   8    6.80    0.41
  -1  -4   8    6.84    0.34
  -1   4  -8    6.52    0.33
   1   4   8    7.02    0.35
  -1   4  -8    6.33    0.34
   1  -4  -8    6.45    0.34
  -1  -4   8    6.84    0.34
   1  -4  -8    6.61    0.39
   1   4  -8    7.39    0.33
  -1  -4  -8    7.44    0.38
   1  -4   8    7.57    0.36
   1   4  -8    7.49    0.38
  -1   4   8    7.72    0.36
  -1   4  -9   11.08    0.45
  -1  -4   9   10.73    0.45
   1  -4  -9   10.54    0.52
   1   4   9   11.70    0.55
   1   4   9   10.83    0.46
  -1   4  -9   10.77    0.47
  -1   4   9    9.55    0.45
  -1  -4  -9    9.44    0.49
   1  -4   9    9.08    0.45
   1   4  -9    9.95    0.50
  -1  -4  10   14.38    0.56
  -1   4 -10   13.88    0.55
   1   4  10   14.45    0.57
   1  -4 -10   14.12    0.64
  -1  -4 -10   12.72    0.60
   1  -4  10   13.54    0.57
  -1   4  10   13.57    0.57
   1   4 -10   13.24    0.62
  -1   4 -11    7.45    0.40
   1   4  11    8.62    0.44
   1  -4 -11    8.01    0.49
  -1  -4  11    7.11    0.40
  -1   4  11    7.51    0.43
  -1  -4 -11    7.52    0.45
   1  -4  11    7.36    0.43
   1   4 -11    7.34    0.46
  -1   4 -12    9.33    0.47
  -1  -4  12    9.26    0.48
   1   4  12    9.75    0.51
   1  -4 -12    8.95    0.54
  -1  -4 -12    9.53    0.52
  -1   4  12    9.47    0.50
   1  -4  12    9.50    0.50
   1   4 -12    9.05    0.54
   1   4  13    6.87    0.44
  -1  -4  13    6.37    0.42
   1   4 -13    5.53    0.46
  -1   5   0   68.20    1.95
   1   5   0   69.01    2.18
   1   5   0   73.81    1.85
  -1  -5   0   68.09    2.28
   1  -5   0   69.22    1.90
   1  -5   0   71.22    2.30
   1   5   1   95.53    2.37
   1   5   1   88.38    2.52
  -1  -5   1   95.31    2.37
  -1  -5   1   90.15    2.90
   1  -5  -1   98.62    2.93
  -1   5  -1   89.30    2.48
   1  -5  -1   86.08    2.73
   1   5  -1   87.78    2.77
   1  -5   1   90.65    2.91
  -1  -5  -1   87.41    2.89
  -1   5   1   88.76    2.40
   1  -5   1   86.55    2.40
   1   5  -1   82.99    2.50
  -1  -5  -1   89.44    2.76
  -1   5   1   85.97    2.47
   1   5   2   62.73    1.66
  -1  -5   2   64.67    1.66
   1   5   2   59.77    1.79
  -1  -5   2   60.50    2.03
   1  -5  -2   61.62    2.05
  -1   5  -2   58.66    1.74
   1   5  -2   58.69    1.75
  -1  -5  -2   58.69    2.01
   1  -5   2   62.24    1.70
   1  -5   2   66.90    2.05
  -1   5   2   62.65    1.68
  -1  -5  -2   64.23    1.93
  -1   5   2   62.06    1.74
   1   5  -2   62.72    1.94
  -1  -5   3   72.21    2.36
   1   5   3   70.60    2.09
  -1  -5   3   71.14    1.93
  -1   5  -3   70.81    2.03
   1   5   3   73.36    1.94
   1  -5  -3   69.51    2.37
  -1   5   3   73.02    1.96
  -1   5   3   74.71    2.02
  -1  -5  -3   72.94    2.34
   1  -5   3   70.17    1.97
   1   5  -3   72.00    2.25
   1  -5   3   77.49    2.38
  -1  -5  -3   72.46    2.24
   1   5  -3   69.67    2.03
   1  -5  -4   66.53    2.18
  -1   5  -4   67.96    1.87
   1  -5  -4   56.35    2.07
  -1  -5   4   67.91    1.78
   1   5   4   68.67    1.80
   1   5   4   66.13    1.94
  -1  -5   4   67.00    2.17
  -1  -5  -4   65.43    2.06
   1  -5   4   64.40    1.81
   1   5  -4   65.07    2.06
   1   5  -4   64.41    1.87
  -1  -5  -4   62.73    2.13
  -1   5   4   67.07    1.80
   1  -5   4   66.45    2.17
  -1   5   4   68.94    1.86
   1   5   5   85.48    2.39
  -1   5  -5   81.46    2.30
   1   5   5   84.20    2.23
  -1  -5   5   83.13    2.67
   1  -5  -5   84.09    2.69
  -1  -5   5   81.78    2.21
   1  -5  -5   80.38    2.57
  -1   5   5   81.73    2.22
  -1   5   5   83.76    2.31
   1   5  -5   78.85    2.54
   1  -5   5   78.81    2.23
  -1  -5  -5   79.21    2.54
   1  -5   5   74.13    2.66
  -1  -5  -5   83.14    2.64
   1   5  -5   81.55    2.30
  -1  -5   6   51.28    1.77
   1   5   6   50.84    1.63
   1  -5  -6   53.13    1.79
  -1   5  -6   52.68    1.55
   1   5   6   52.97    1.50
  -1  -5   6   53.62    1.48
   1  -5  -6   54.28    1.74
  -1  -5  -6   53.55    1.70
  -1  -5  -6   54.69    1.74
   1  -5   6   53.22    1.51
   1   5  -6   54.95    1.55
  -1   5   6   53.67    1.50
   1   5  -6   54.42    1.71
   1  -5   6   44.95    1.76
   1  -5  -7   33.17    1.21
  -1   5  -7   33.35    1.06
   1  -5  -7   34.45    1.20
  -1  -5   7   34.64    1.03
   1   5   7   34.16    1.16
  -1  -5   7   34.14    1.20
   1   5   7   34.77    1.05
   1  -5   7   34.22    1.05
  -1   5   7   35.32    1.04
   1   5  -7   33.77    1.17
  -1  -5  -7   33.82    1.17
   1   5  -7   35.52    1.06
  -1  -5   8   27.34    0.97
  -1   5  -8   26.15    0.88
   1  -5  -8   26.01    0.99
   1   5   8   27.25    0.88
   1   5   8   28.26    0.99
  -1  -5   8   28.45    0.86
   1  -5  -8   29.66    1.01
   1   5  -8   25.84    0.87
  -1   5   8   26.42    0.87
   1  -5   8   25.27    0.87
   1   5  -8   26.94    0.97
  -1  -5  -8   25.52    0.97
   1   5   9   35.96    1.11
   1  -5  -9   37.65    1.27
  -1  -5   9   35.44    1.09
  -1   5  -9   35.15    1.12
   1   5   9   36.10    1.24
   1   5  -9   35.15    1.24
   1  -5   9   34.30    1.12
  -1  -5  -9   34.43    1.24
   1   5  -9   33.07    1.10
  -1   5   9   34.66    1.11
   1  -5 -10   32.10    1.14
  -1   5 -10   30.29    1.00
   1   5  10   29.58    0.99
  -1  -5  10   29.92    0.98
  -1   5  10   30.29    1.01
   1  -5  10   29.62    1.01
   1   5 -10   29.40    1.11
  -1  -5 -10   29.27    1.11
   1  -5 -11   26.08    1.00
   1   5  11   24.79    0.88
  -1   5 -11   25.02    0.87
  -1  -5  11   25.11    0.87
   1  -5  11   24.59    0.90
  -1  -5 -11   24.00    0.96
   1   5 -11   23.96    0.97
  -1   5  11   24.40    0.89
   1   5  12   15.26    0.66
  -1  -5  12   15.74    0.65
   1  -5 -12   16.43    0.75
  -1   5 -12   15.66    0.63
   1  -5  12   13.61    0.65
  -1  -5 -12   14.57    0.70
  -1   5  12   14.68    0.66
  -1  -5  13   14.05    0.64
   1   6   0    0.16    0.09
  -1   6   0    0.23    0.07
   1  -6   0    0.16    0.08
  -1  -6   0    0.30    0.07
   1   6   0    0.31    0.05
   1  -6  -1    1.57    0.16
  -1   6  -1    1.51    0.13
  -1  -6   1    1.55    0.14
   1   6   1    1.39    0.15
   1   6   1    1.66    0.10
   1  -6  -1    1.34    0.12
  -1   6   1    1.45    0.13
   1  -6   1    1.56    0.16
   1   6  -1    1.72    0.16
   1  -6   1    1.43    0.13
  -1  -6  -1    1.60    0.14
   1   6  -1    1.30    0.13
  -1   6   1    1.34    0.12
  -1  -6  -1    1.59    0.14
   1  -6  -2    1.09    0.13
   1   6   2    1.14    0.14
  -1   6  -2    1.07    0.11
  -1  -6   2    1.20    0.10
  -1  -6   2    1.24    0.13
   1   6   2    1.05    0.09
   1  -6   2    0.93    0.13
  -1   6   2    0.96    0.11
  -1   6   2    0.91    0.10
  -1  -6  -2    1.08    0.11
  -1  -6  -2    1.02    0.11
   1   6  -2    1.14    0.12
   1   6  -2    0.90    0.12
   1  -6   2    0.88    0.11
  -1  -6   3    5.19    0.26
   1   6   3    5.03    0.21
   1  -6  -3    4.93    0.27
  -1   6  -3    4.82    0.24
   1   6   3    5.06    0.30
  -1  -6   3    5.05    0.20
   1   6  -3    4.44    0.25
  -1  -6  -3    4.76    0.24
  -1   6   3    5.18    0.22
  -1   6   3    4.63    0.24
   1  -6   3    4.64    0.23
   1  -6   3    4.79    0.26
   1   6  -3    4.98    0.25
  -1  -6  -3    4.78    0.24
   1  -6  -4    0.77    0.13
  -1  -6   4    0.86    0.10
   1  -6  -4    0.60    0.13
  -1   6  -4    0.91    0.13
   1   6   4    1.09    0.12
  -1  -6   4    0.97    0.12
   1   6   4    0.79    0.15
   1  -6   4    1.48    0.16
   1  -6   4    1.34    0.14
  -1  -6  -4    1.38    0.13
   1   6  -4    1.37    0.15
  -1   6   4    1.30    0.12
   1   6  -4    1.33    0.14
  -1  -6  -4    1.31    0.13
  -1   6   4    1.39    0.14
   1  -6  -5    2.88    0.22
  -1  -6   5    2.75    0.17
  -1   6  -5    2.46    0.21
   1   6   5    2.42    0.24
   1   6   5    2.41    0.19
  -1  -6   5    2.55    0.19
   1  -6  -5    2.47    0.24
   1  -6   5    2.18    0.19
  -1   6   5    2.01    0.17
  -1  -6  -5    2.00    0.19
   1   6  -5    1.66    0.19
   1   6  -5    2.05    0.19
   1  -6   5    1.91    0.18
  -1  -6  -5    1.82    0.16
  -1   6   5    1.99    0.19
   1  -6  -6   13.87    0.57
   1  -6  -6   14.23    0.58
  -1   6  -6   13.43    0.51
  -1  -6   6   14.26    0.48
  -1  -6   6   13.78    0.56
   1   6   6   14.08    0.50
   1   6   6   14.08    0.60
   1  -6   6   11.32    0.54
   1  -6   6   14.04    0.51
   1   6  -6   14.22    0.52
  -1  -6  -6   14.05    0.53
  -1   6   6   13.98    0.49
   1   6  -6   13.31    0.54
  -1  -6  -6   13.54    0.55
   1   6   7    8.63    0.38
  -1  -6   7    8.37    0.40
   1  -6  -7    8.96    0.45
   1  -6  -7    8.70    0.42
   1   6   7    8.75    0.47
  -1  -6   7    9.66    0.37
  -1   6  -7    8.25    0.38
   1   6  -7    7.66    0.40
   1  -6   7    7.95    0.37
   1   6  -7    8.55    0.39
  -1  -6  -7    8.14    0.41
  -1   6   7    8.21    0.37
   1   6   8    6.58    0.35
   1  -6  -8    7.60    0.43
  -1  -6   8    6.27    0.34
  -1   6  -8    6.13    0.34
   1   6   8    7.36    0.44
   1  -6  -8    6.81    0.37
  -1  -6   8    6.51    0.33
  -1   6   8    6.99    0.36
   1  -6   8    6.68    0.35
  -1  -6  -8    6.58    0.39
   1   6  -8    6.36    0.35
   1   6  -8    6.28    0.37
   1   6   9    6.98    0.45
   1   6   9    6.42    0.36
   1  -6  -9    6.79    0.42
  -1   6  -9    5.80    0.35
  -1  -6   9    6.31    0.34
   1  -6   9    5.50    0.34
   1   6  -9    5.78    0.35
  -1   6   9    5.27    0.35
  -1  -6  -9    5.25    0.38
   1   6  10    6.80    0.39
  -1   6 -10    5.88    0.37
  -1  -6  10    6.42    0.36
   1  -6 -10    6.51    0.44
   1  -6  10    6.14    0.38
  -1   6  10    6.32    0.39
  -1  -6 -10    5.72    0.41
   1  -6 -11    8.35    0.52
  -1   6 -11    8.21    0.44
   1   6  11    8.45    0.45
  -1  -6  11    7.41    0.42
  -1  -6 -11    7.98    0.48
   1  -6  11    7.88    0.45
  -1   6  11    8.30    0.46
   1  -6 -12    4.04    0.43
  -1   6 -12    4.07    0.34
   1   6  12    3.85    0.36
  -1   6  12    4.33    0.37
   1  -6  12    3.18    0.33
  -1  -7   0   71.69    2.15
   1  -7   0   69.80    2.30
  -1   7   0   67.20    1.88
  -1  -7   0   68.58    2.27
   1   7   0   66.55    2.00
  -1   7   0   68.64    1.96
   1   7   1   77.04    2.30
  -1   7  -1   79.28    2.25
  -1  -7   1   79.51    2.62
   1  -7  -1   83.32    2.64
  -1   7   1   78.00    2.25
  -1  -7  -1   78.08    2.61
   1  -7   1   79.01    2.18
   1   7  -1   74.51    2.27
  -1   7   1   82.50    2.17
   1  -7   1   81.97    2.64
  -1  -7  -1   78.87    2.47
   1   7  -1   82.89    2.50
   1  -7  -2   70.12    2.33
  -1  -7   2   67.63    2.31
  -1   7  -2   67.81    2.00
   1   7  -2   66.59    2.01
  -1   7   2   68.77    2.00
  -1   7   2   70.85    1.92
   1  -7   2   69.38    1.93
   1   7  -2   71.43    2.20
   1  -7   2   71.47    2.34
  -1  -7  -2   72.57    2.31
  -1  -7  -2   72.06    2.19
  -1  -7   3   55.18    1.85
   1   7   3   54.75    1.50
   1  -7  -3   53.20    1.86
  -1   7  -3   53.42    1.60
   1   7   3   53.51    1.66
  -1  -7  -3   54.15    1.83
   1   7  -3   53.98    1.75
  -1  -7  -3   55.01    1.74
   1   7  -3   53.34    1.62
  -1   7   3   57.28    1.54
   1  -7   3   56.12    1.87
  -1   7   3   57.27    1.61
   1  -7   3   55.78    1.55
   1   7   4   15.58    0.49
  -1   7  -4   14.91    0.54
  -1  -7   4   16.06    0.61
   1   7   4   15.07    0.62
   1  -7  -4   12.89    0.57
   1  -7  -4   15.49    0.61
   1   7  -4   14.94    0.56
  -1  -7  -4   14.76    0.57
  -1   7   4   15.10    0.55
   1  -7   4   14.81    0.61
  -1   7   4   14.56    0.50
   1  -7   4   14.45    0.52
  -1  -7  -4   14.82    0.56
   1   7   5   50.76    1.53
   1  -7  -5   49.59    1.66
   1   7   5   47.70    1.36
  -1   7  -5   47.62    1.43
   1  -7  -5   47.47    1.58
  -1  -7   5   47.82    1.63
   1  -7   5   44.11    1.64
  -1  -7  -5   46.96    1.60
   1  -7   5   46.12    1.38
  -1   7   5   45.92    1.36
  -1   7   5   50.55    1.44
   1   7  -5   48.15    1.44
  -1  -7  -5   46.11    1.55
   1  -7  -6   47.15    1.51
  -1  -7   6   44.58    1.55
   1   7   6   44.67    1.30
   1  -7  -6   44.62    1.56
   1   7   6   44.64    1.46
  -1   7  -6   44.46    1.35
  -1  -7  -6   43.82    1.47
   1  -7   6   44.53    1.32
   1  -7   6   39.58    1.54
  -1   7   6   44.70    1.30
  -1  -7  -6   45.44    1.52
   1   7  -6   46.44    1.38
   1   7   7   55.01    1.75
  -1   7  -7   53.03    1.64
  -1  -7   7   54.48    1.87
   1  -7  -7   53.23    1.89
   1  -7  -7   57.92    1.83
   1   7   7   53.73    1.58
   1   7  -7   56.26    1.66
  -1  -7  -7   53.31    1.80
   1  -7   7   54.60    1.60
  -1   7   7   54.50    1.58
  -1   7  -8   40.02    1.29
  -1  -7   8   40.92    1.45
   1   7   8   39.87    1.40
   1   7   8   40.36    1.25
   1  -7  -8   47.29    1.46
   1   7  -8   40.26    1.30
  -1   7   8   39.53    1.25
   1  -7   8   40.51    1.26
  -1  -7  -8   39.95    1.41
  -1   7  -9   26.67    0.94
   1   7   9   27.92    0.92
   1  -7  -9   30.66    1.06
  -1  -7   9   26.20    1.02
   1   7  -9   26.47    0.94
  -1   7   9   27.18    0.93
   1  -7   9   26.46    0.92
  -1  -7  -9   27.12    1.03
   1   7  10   15.27    0.63
   1  -7 -10   16.99    0.73
  -1   7 -10   15.72    0.64
   1  -7  10   14.82    0.63
  -1   7  10   15.15    0.64
  -1  -7 -10   15.04    0.69
  -1   7 -11   13.40    0.60
   1  -7 -11   14.72    0.69
   1  -7  11   13.53    0.62
  -1   7  11   13.87    0.62
  -1  -7 -11   13.45    0.66
  -1  -8   0    0.13    0.09
   1   8   0    0.13    0.11
  -1   8   0   -0.04    0.11
  -1   8   0    0.15    0.09
   1  -8   0    0.11    0.10
   1   8   1    0.12    0.11
  -1   8  -1    0.10    0.11
  -1  -8   1    0.18    0.09
   1  -8  -1    0.14    0.11
   1  -8   1    0.12    0.10
  -1  -8  -1    0.09    0.09
   1  -8   1    0.03    0.08
  -1   8   1    0.06    0.08
  -1  -8  -1    0.09    0.09
  -1   8   1    0.16    0.11
   1   8  -1    0.02    0.10
  -1  -8   2    0.72    0.13
   1  -8  -2    0.51    0.13
  -1   8  -2    0.72    0.13
   1   8   2    0.51    0.15
   1  -8   2    0.64    0.11
  -1   8   2    0.59    0.11
   1   8  -2    0.51    0.13
  -1  -8  -2    0.68    0.12
  -1   8   2    0.73    0.14
  -1  -8  -2    0.72    0.12
   1  -8   2    0.61    0.14
  -1  -8   3    3.74    0.26
   1  -8  -3    3.49    0.27
   1   8   3    3.34    0.27
  -1   8  -3    3.65    0.25
  -1   8   3    3.68    0.22
   1  -8   3    3.80    0.27
   1   8  -3    3.70    0.26
  -1  -8  -3    3.39    0.23
  -1   8   3    4.17    0.28
  -1  -8  -3    3.94    0.23
   1  -8   3    3.84    0.23
  -1  -8   4    1.59    0.18
   1   8   4    1.26    0.21
  -1   8  -4    1.32    0.18
   1  -8  -4    1.18    0.18
   1   8  -4    1.13    0.18
   1  -8   4    1.18    0.15
   1  -8   4    1.28    0.18
  -1   8   4    1.15    0.14
  -1   8   4    1.26    0.18
  -1  -8  -4    1.01    0.13
  -1  -8  -4    1.12    0.15
  -1   8  -5    1.03    0.16
  -1  -8   5    1.30    0.17
   1  -8  -5    1.17    0.19
   1   8   5    1.20    0.22
  -1   8   5    1.02    0.14
  -1  -8  -5    0.97    0.14
   1  -8   5    0.87    0.16
   1  -8   5    1.05    0.15
   1   8  -5    1.14    0.19
  -1  -8  -5    1.07    0.16
   1   8   6    6.48    0.43
  -1  -8   6    5.68    0.33
   1  -8  -6    5.97    0.37
  -1   8  -6    6.13    0.35
   1   8  -6    5.51    0.35
   1  -8   6    5.09    0.33
  -1  -8  -6    5.89    0.34
  -1   8   6    6.24    0.31
   1  -8   6    5.75    0.31
   1  -8  -7    7.26    0.42
  -1  -8   7    7.39    0.39
   1   8   7    7.37    0.47
  -1   8  -7    6.73    0.37
  -1   8   7    7.25    0.36
   1   8  -7    8.01    0.42
  -1  -8  -7    6.97    0.40
   1  -8   7    7.42    0.36
   1  -8   7    5.71    0.37
   1   8   8    5.66    0.45
  -1  -8   8    6.35    0.37
  -1   8  -8    6.23    0.38
   1   8  -8    6.81    0.41
  -1  -8  -8    6.35    0.41
   1  -8   8    6.91    0.37
  -1   8   8    6.33    0.37
  -1   8  -9    4.62    0.35
  -1  -8  -9    4.80    0.38
   1   8  -9    4.55    0.36
   1  -8   9    4.67    0.34
  -1   8   9    4.85    0.36
   1  -8 -10    5.00    0.43
  -1   8 -10    4.27    0.36
  -1  -8 -10    4.14    0.38
   1  -8  10    3.95    0.34
  -1   8  10    3.94    0.35
   1  -8 -11    3.56    0.37
   1  -8  11    3.41    0.33
   1   9   0   41.27    1.36
   1  -9   0   42.62    1.52
  -1   9   0   44.35    1.25
  -1  -9   0   43.26    1.50
  -1   9   0   42.79    1.32
   1  -9  -1   58.65    2.01
  -1  -9   1   58.54    1.98
  -1   9  -1   56.93    1.63
  -1   9  -1   58.70    1.73
   1   9   1   54.89    1.77
  -1   9   1   58.55    1.73
   1  -9   1   59.06    2.00
  -1   9   1   58.88    1.63
   1   9  -1   56.97    1.76
  -1  -9  -1   58.40    1.97
  -1   9  -2   38.35    1.24
   1  -9  -2   39.15    1.43
   1   9   2   39.41    1.30
  -1  -9   2   39.04    1.40
  -1   9   2   40.90    1.17
  -1   9   2   41.13    1.25
  -1  -9  -2   40.54    1.40
   1  -9   2   40.07    1.18
   1   9  -2   37.95    1.26
   1  -9   2   41.48    1.44
  -1   9  -3   36.65    1.16
   1   9   3   37.28    1.23
   1  -9  -3   34.70    1.31
  -1  -9   3   38.29    1.31
   1   9  -3   35.60    1.18
  -1  -9  -3   35.14    1.28
   1  -9   3   35.17    1.09
  -1   9   3   36.60    1.08
  -1   9   3   37.76    1.17
   1  -9   3   36.74    1.33
  -1   9  -4   36.45    1.17
  -1  -9   4   36.35    1.31
   1   9   4   36.30    1.25
   1  -9  -4   35.23    1.32
  -1   9   4   37.90    1.18
   1  -9   4   37.11    1.34
   1   9  -4   35.21    1.18
  -1   9   4   36.92    1.09
  -1  -9  -4   35.08    1.28
   1  -9   4   36.71    1.10
  -1  -9   5   45.90    1.64
   1   9   5   47.17    1.55
   1  -9  -5   47.81    1.67
  -1   9  -5   46.11    1.45
  -1  -9  -5   44.83    1.54
   1  -9   5   46.77    1.67
  -1  -9  -5   46.28    1.61
  -1   9   5   48.39    1.37
   1  -9   5   46.47    1.38
   1   9  -5   46.61    1.48
  -1  -9   6   33.50    1.23
   1   9   6   33.62    1.21
  -1   9  -6   34.12    1.11
   1  -9  -6   34.46    1.26
   1   9  -6   33.39    1.13
  -1   9   6   33.99    1.04
  -1  -9  -6   33.38    1.17
   1  -9   6   31.06    1.24
   1  -9   6   32.97    1.05
   1   9   7   27.01    1.03
  -1   9  -7   25.50    0.90
  -1  -9   7   24.76    0.99
   1  -9  -7   26.51    1.02
   1  -9   7   25.49    0.86
  -1  -9  -7   25.94    0.96
   1   9  -7   26.29    0.94
  -1   9   7   25.59    0.86
   1  -9   7   22.78    0.99
  -1   9  -8   15.55    0.65
  -1  -9   8   16.00    0.69
   1   9  -8   16.24    0.68
  -1  -9  -8   14.98    0.68
   1  -9   8   14.99    0.62
  -1   9   8   15.59    0.62
  -1   9  -9   27.95    1.03
  -1  -9  -9   29.74    1.12
   1   9  -9   30.30    1.07
   1  -9   9   30.38    1.01
  -1   9   9   29.00    1.01
   1  -9  10   19.89    0.78
  -1  -9 -10   19.71    0.85
   1   9 -10   20.04    0.83
  -1   9  10   19.89    0.79
  -1 -10   0    0.12    0.13
   1  10   0    0.06    0.16
  -1  10   0    0.08    0.16
   1 -10   0    0.16    0.14
  -1  10   0    0.00    0.10
   1 -10  -1    0.17    0.14
  -1  10  -1    0.34    0.17
  -1  10  -1    0.15    0.11
   1  10   1    0.08    0.16
  -1 -10   1    0.12    0.12
  -1  10   1    0.04    0.10
   1  10  -1    0.18    0.15
   1 -10   1    0.04    0.14
  -1  10   1    0.13    0.15
  -1 -10  -1    0.12    0.12
   1  10   2    1.28    0.21
  -1  10  -2    1.35    0.22
  -1 -10   2    1.45    0.19
   1 -10  -2    1.51    0.21
  -1  10   2    1.51    0.16
   1 -10   2    1.54    0.22
  -1  10   2    1.35    0.21
  -1 -10  -2    1.63    0.18
   1  10  -2    1.47    0.23
   1  10   3    1.34    0.22
  -1  10  -3    0.75    0.20
   1 -10  -3    1.00    0.19
  -1 -10   3    1.18    0.19
   1 -10   3    1.17    0.21
  -1  10   3    1.20    0.21
   1 -10   3    1.19    0.17
  -1 -10  -3    1.11    0.18
   1  10  -3    1.13    0.22
  -1  10   3    1.02    0.16
  -1 -10   4    2.52    0.26
   1 -10  -4    2.24    0.26
   1  10   4    2.46    0.30
  -1  10  -4    2.25    0.26
  -1 -10  -4    2.01    0.22
  -1  10   4    1.99    0.24
   1 -10   4    1.80    0.23
   1 -10   4    2.00    0.20
  -1  10   4    2.17    0.20
   1  10  -4    1.92    0.24
   1 -10  -5    2.20    0.26
   1  10   5    1.73    0.29
  -1 -10   5    2.45    0.27
  -1  10  -5    2.15    0.26
   1  10  -5    2.32    0.27
  -1  10   5    2.63    0.24
  -1 -10  -5    2.80    0.27
   1 -10   5    2.33    0.26
   1 -10  -6    1.58    0.24
  -1 -10   6    1.61    0.22
  -1  10  -6    1.53    0.23
   1  10   6    1.29    0.28
  -1  10   6    1.65    0.20
   1  10  -6    1.14    0.22
   1 -10   6    1.46    0.23
   1 -10  -7    3.63    0.35
  -1 -10   7    3.58    0.30
   1  10   7    3.85    0.39
  -1  10  -7    4.29    0.36
   1 -10   7    3.16    0.32
  -1  10   7    3.49    0.30
   1  10  -7    3.53    0.35
  -1  10  -8    1.79    0.28
  -1 -10   8    1.89    0.25
  -1  10   8    1.35    0.24
   1  10  -8    1.31    0.25
  -1  10   9    2.33    0.30
   1  10  -9    2.44    0.32
   1 -11   0   16.19    0.73
  -1 -11   0   15.06    0.68
   1  11   0   15.01    0.69
  -1  11   0   16.08    0.66
  -1 -11   1   29.49    1.10
  -1  11  -1   28.34    0.99
   1 -11  -1   27.04    1.11
   1  11   1   26.62    1.04
  -1 -11  -1   28.61    1.08
   1 -11   1   29.09    1.13
  -1  11   1   29.71    1.01
   1  11  -1   28.14    1.04
   1 -11  -2   40.45    1.52
  -1  11  -2   41.66    1.35
   1  11   2   41.33    1.41
  -1 -11   2   42.33    1.51
   1  11  -2   39.51    1.37
   1 -11   2   41.19    1.53
  -1 -11  -2   40.40    1.48
  -1  11   2   42.67    1.36
  -1  11  -3   47.38    1.50
  -1 -11   3   49.21    1.70
   1  11   3   47.08    1.57
   1 -11  -3   45.48    1.69
  -1  11   3   47.41    1.52
   1  11  -3   44.56    1.52
  -1 -11  -3   45.38    1.65
   1 -11   3   46.93    1.71
   1  11   4   39.36    1.40
  -1  11  -4   39.80    1.32
   1 -11  -4   37.87    1.48
  -1 -11   4   41.40    1.49
   1 -11   4   40.18    1.50
  -1 -11  -4   41.07    1.45
   1  11  -4   39.44    1.36
  -1  11  -5   24.72    0.92
   1 -11  -5   23.68    1.02
   1  11   5   23.47    1.01
  -1 -11   5   24.37    1.00
  -1 -11  -5   27.66    1.02
   1 -11   5   25.80    1.05
   1  11  -5   25.16    0.97
   1  11   6   22.00    0.96
   1 -11  -6   20.19    0.90
  -1 -11   6   21.30    0.90
  -1  11  -6   21.11    0.84
   1  11  -6   21.19    0.86
   1 -11   6   20.57    0.92
   1 -11  -7   19.07    0.87
  -1 -11   7   19.71    0.85
  -1 -12   0    0.55    0.18
   1 -12   0    0.42    0.21
   1  12   0    0.50    0.23
  -1  12   0    0.35    0.21
  -1 -12   1    0.30    0.17
   1  12   1    0.10    0.22
  -1  12  -1    0.10    0.20
   1 -12  -1    0.03    0.17
   1 -12   1    0.35    0.19
  -1 -12  -1    0.24    0.16
  -1  12   1    0.40    0.22
   1  12  -1    0.05    0.22
   1  12   2    0.11    0.20
  -1  12  -2    0.09    0.20
   1 -12  -2   -0.01    0.17
  -1 -12   2    0.28    0.17
   1 -12   2    0.25    0.18
  -1  12   2    0.16    0.19
   1  12  -2    0.22    0.20
  -1 -12  -2    0.38    0.17
  -1  12  -3    0.51    0.23
   1 -12  -3    0.24    0.20
  -1 -12   3    0.30    0.20
   1  12   3    0.42    0.24
  -1  12   3    0.60    0.22
   1  12  -3    0.42    0.23
  -1 -12  -3    0.56    0.20
   1 -12   3    0.26    0.19
   1 -12  -4    0.92    0.24
  -1 -12   4    1.47    0.24
   1  12   4    1.17    0.29
  -1 -12  -4    0.97    0.22
   1 -12   4    0.90    0.23
   1  12   5    1.64    0.32
   1 -12   5    1.99    0.29
  -1 -12  -5    1.21    0.25
  -1  13   2   21.69    0.91
   2   0   0  996.22   29.76
   2   0   0 1000.00   25.73
   2   0   0  965.42   31.36
   2   0   0  964.82   26.74
   2   0   1  520.49   16.17
   2   0  -1  489.40   16.21
   2   0  -1  494.48   13.66
   2   0   1  507.30   15.29
   2   0  -1  508.29   15.35
   2   0   1  521.66   13.23
   2   0   1  509.23   13.68
  -2   0   1  471.81   13.21
   2   0   2  331.46    8.70
  -2   0  -2  324.89   10.05
   2   0   2  346.60   10.64
   2   0   2  342.94    9.02
  -2   0   2  321.21    8.67
   2   0  -2  323.70    8.97
   2   0  -2  325.91   10.00
  -2   0  -3  228.84    6.95
   2   0  -3  232.52    6.97
  -2   0   3  221.01    6.02
   2   0   3  226.50    6.03
   2   0  -3  235.07    7.34
   2   0   3  234.87    6.34
   2   0   4  250.58    6.84
   2   0  -4  251.32    7.92
  -2   0  -4  244.88    7.50
   2   0  -4  250.36    7.52
   2   0   4  248.03    6.51
  -2   0   4  247.41    6.50
  -2   0  -4  241.53    7.87
   2   0   5  290.95    8.06
  -2   0   5  288.83    7.67
   2   0  -5  303.80    8.88
   2   0   5  290.06    7.69
   2   0  -5  291.96    9.33
  -2   0  -5  288.26    8.84
   2   0  -6  273.14    8.00
   2   0   6  262.60    7.27
  -2   0   6  262.94    8.38
  -2   0   6  258.14    6.91
   2   0   6  258.84    6.93
  -2   0  -6  256.93    7.95
   2   0   7  190.53    5.13
  -2   0  -7  187.90    5.86
   2   0   7  192.65    5.41
   2   0  -7  194.64    5.92
  -2   0   7  191.13    5.11
  -2   0   7  194.06    6.18
  -2   0   8  179.77    5.66
   2   0   8  172.57    4.72
  -2   0   8  176.27    4.70
  -2   0  -8  175.07    5.39
   2   0   8  177.68    4.99
   2   0  -8  169.29    5.43
  -2   0   9   93.72    2.94
   2   0   9   86.99    2.50
   2   0   9   88.64    2.69
  -2   0   9   89.01    2.48
   2   0  -9   83.74    2.86
  -2   0  -9   88.37    2.81
   2   0 -10   82.43    2.77
  -2   0  10   85.42    2.40
  -2   0 -10   85.51    2.71
   2   0  10   84.15    2.42
  -2   0 -11   58.56    1.73
  -2   0  11   57.39    1.70
  -2   0 -11   54.11    1.88
   2   0 -11   56.18    1.96
   2   0  11   56.64    1.73
  -2   0  12   38.56    1.24
  -2   0 -12   38.07    1.25
   2   0 -12   38.14    1.44
  -2   0 -12   37.71    1.35
   2   0  12   39.05    1.28
   2   0  13   31.02    1.09
  -2   0 -13   28.83    1.13
   2   0 -13   31.12    1.24
  -2   0  13   29.42    1.05
   2  -1   0    6.44    0.25
   2  -1   0    6.37    0.22
   2  -1   0    6.45    0.28
   2   1   0    6.50    0.20
  -2  -1   0    6.29    0.27
   2  -1   0    6.48    0.29
   2   1   0    6.29    0.27
   2   1   0    6.32    0.27
   2   1   1    1.20    0.12
   2  -1  -1    1.50    0.12
   2   1   1    1.43    0.08
   2  -1  -1    1.33    0.13
   2   1   1    1.30    0.13
   2  -1  -1    1.23    0.12
  -2  -1   1    1.29    0.07
  -2  -1  -1    1.30    0.10
   2  -1   1    1.42    0.14
   2   1  -1    1.17    0.13
  -2   1   1    1.21    0.08
   2  -1   1    1.45    0.12
   2  -1   1    1.49    0.12
   2   1  -1    1.44    0.12
   2  -1   1    1.22    0.10
   2   1   2    1.97    0.11
   2   1   2    2.00    0.18
   2  -1  -2    1.70    0.14
  -2  -1   2    1.78    0.09
  -2   1  -2    1.71    0.11
   2  -1  -2    2.03    0.16
  -2   1   2    1.93    0.08
   2   1  -2    2.07    0.15
   2  -1   2    2.01    0.20
   2  -1   2    1.87    0.12
  -2  -1  -2    1.96    0.13
   2   1  -2    2.04    0.14
  -2  -1  -2    1.85    0.11
  -2   1   2    1.98    0.11
   2  -1   2    2.10    0.13
  -2   1  -3    0.74    0.08
   2   1   3    0.59    0.13
   2  -1  -3    0.76    0.10
   2  -1  -3    0.80    0.11
   2   1   3    0.86    0.08
  -2  -1   3    0.71    0.10
  -2  -1   3    0.76    0.07
   2   1  -3    0.89    0.08
   2  -1   3    0.89    0.09
  -2   1   3    0.95    0.08
   2  -1   3    0.69    0.13
  -2  -1  -3    0.83    0.09
  -2  -1  -3    0.86    0.07
   2  -1   3    0.86    0.09
   2   1  -3    0.79    0.11
   2   1   4    0.81    0.14
   2   1   4    0.83    0.09
   2  -1  -4    0.72    0.11
  -2   1  -4    0.71    0.09
  -2  -1   4    0.56    0.09
  -2  -1   4    0.77    0.11
   2  -1  -4    0.77    0.11
   2   1  -4    0.65    0.11
  -2   1   4    0.62    0.08
   2  -1   4    0.73    0.08
   2  -1   4    0.65    0.15
  -2  -1  -4    0.61    0.05
  -2  -1  -4    0.64    0.09
   2   1  -4    0.68    0.07
   2  -1   4    0.73    0.09
   2   1   5    1.37    0.12
  -2  -1   5    0.98    0.12
   2  -1  -5    1.25    0.14
   2   1   5    1.27    0.18
  -2  -1   5    1.14    0.12
   2  -1  -5    0.98    0.13
  -2   1  -5    1.21    0.13
   2  -1   5    1.16    0.12
  -2  -1  -5    0.97    0.12
   2   1  -5    1.18    0.09
   2  -1   5    1.31    0.19
  -2   1   5    1.23    0.12
   2   1  -5    1.25    0.14
   2  -1   5    1.28    0.08
   2   1   6    0.52    0.15
  -2  -1   6    0.55    0.11
   2   1   6    0.69    0.12
  -2   1  -6    0.47    0.10
  -2  -1   6    0.42    0.10
   2  -1  -6    0.63    0.14
   2  -1  -6    0.71    0.13
  -2  -1  -6    0.49    0.11
  -2   1   6    0.63    0.11
   2  -1   6    0.69    0.12
   2   1  -6    0.66    0.14
   2  -1   6    0.41    0.15
  -2  -1   7    1.44    0.16
  -2   1  -7    1.27    0.15
  -2  -1   7    1.11    0.15
   2   1   7    1.38    0.16
   2  -1  -7    1.22    0.16
   2  -1  -7    1.42    0.19
   2   1   7    1.38    0.22
  -2   1   7    1.35    0.16
   2  -1   7    1.55    0.17
   2   1  -7    1.38    0.19
   2  -1   7    1.56    0.23
  -2  -1  -7    1.28    0.16
  -2  -1   8    0.34    0.12
  -2  -1   8    0.48    0.13
   2  -1  -8    0.29    0.16
  -2   1  -8    0.19    0.14
   2   1   8    0.47    0.19
   2   1   8    0.37    0.14
   2  -1   8    0.38    0.14
  -2   1   8    0.16    0.13
  -2  -1   9    0.28    0.13
  -2  -1   9    0.36    0.15
  -2   1  -9    0.18    0.16
   2   1   9    0.10    0.17
  -2   1  -9    0.31    0.15
   2   1   9   -0.07    0.13
   2  -1  -9    0.09    0.17
  -2   1   9    0.26    0.14
   2  -1   9    0.50    0.15
  -2  -1  -9    0.49    0.17
   2   1  -9    0.17    0.18
  -2   1   9    0.36    0.13
  -2  -1  10    2.73    0.25
   2  -1 -10    2.52    0.30
   2   1  10    2.80    0.27
   2   1  10    2.66    0.32
  -2   1 -10    2.67    0.27
  -2   1 -10    2.23    0.24
   2  -1  10    2.63    0.26
  -2   1  10    2.60    0.25
  -2  -1 -10    2.77    0.29
   2   1 -10    2.59    0.30
  -2   1 -11    1.20    0.22
   2   1  11    1.19    0.27
   2  -1 -11    1.40    0.28
  -2   1 -11    1.23    0.22
   2   1  11    1.60    0.25
  -2  -1  11    1.58    0.22
   2  -1  11    1.33    0.23
  -2   1  11    1.46    0.23
  -2  -1 -11    1.19    0.23
   2   1 -11    1.43    0.28
   2   1  12    1.02    0.24
  -2  -1  12    1.30    0.23
   2  -1 -12    0.97    0.29
  -2   1 -12    1.21    0.23
  -2   1 -12    1.04    0.24
   2   1 -12    0.84    0.28
  -2   1  12    0.86    0.22
  -2  -1 -12    1.32    0.25
   2  -1  12    1.01    0.24
  -2   1 -13    0.75    0.24
  -2  -1  13    0.65    0.22
   2   1  13    0.29    0.22
   2  -1  13    0.53    0.23
  -2  -1 -13    0.80    0.26
  -2   1  13    0.53    0.22
   2   1 -13    0.36    0.28
   2  -2   0  335.34   10.06
  -2  -2   0  330.61   10.53
  -2   2   0  329.98    9.05
   2  -2   0  336.79    8.68
   2  -2   0  336.09   10.69
   2   2   0  348.17    9.01
   2   2   0  330.87   10.14
  -2  -2   0  307.52    8.70
   2   2   1  367.86   11.08
  -2  -2   1  351.12    9.49
   2  -2  -1  377.21   10.99
  -2  -2   1  376.34   11.59
   2   2   1  360.86    9.82
   2   2   1  385.35    9.49
  -2   2  -1  350.36    9.89
   2  -2  -1  372.84   11.68
   2  -2   1  358.37    9.52
   2   2  -1  357.05   10.97
   2  -2   1  366.90   10.99
  -2   2   1  353.59    9.80
  -2  -2  -1  340.98   11.59
   2   2  -1  368.77    9.79
  -2   2   1  340.97    9.52
   2  -2   1  356.93   11.63
   2   2   2  435.77   11.57
   2   2   2  442.97   11.98
  -2   2  -2  435.96   11.91
  -2   2  -2  438.41   13.37
  -2  -2   2  432.99   11.61
   2  -2  -2  433.71   14.11
   2  -2  -2  444.39   13.41
  -2  -2   2  423.30   14.21
  -2  -2  -2  437.85   14.07
   2  -2   2  457.10   11.71
  -2   2   2  444.84   11.93
  -2  -2  -2  436.48   13.45
   2   2  -2  439.69   13.43
   2   2  -2  460.82   12.03
  -2   2   2  436.42   11.64
   2  -2   2  465.23   14.18
  -2  -2   3  369.29   12.52
  -2   2  -3  388.83   11.92
  -2  -2   3  393.38   10.33
   2   2   3  381.20   10.73
   2   2   3  394.73   10.34
   2  -2  -3  404.76   11.90
  -2   2   3  392.12   10.38
   2   2  -3  397.46   11.98
  -2  -2  -3  396.01   12.52
  -2   2   3  378.61   10.70
   2  -2   3  394.60   10.41
   2  -2   3  411.14   12.66
  -2  -2  -3  403.06   11.98
   2   2  -3  415.09   10.65
  -2   2  -4  339.64   10.10
   2  -2  -4  362.94   10.14
   2   2   4  318.80    9.15
  -2   2  -4  318.72    9.07
  -2  -2   4  327.40   10.65
  -2  -2   4  336.94    8.76
   2  -2  -4  340.90   10.66
   2   2   4  342.41    8.77
   2  -2   4  328.09    8.78
  -2  -2  -4  332.97   10.12
  -2   2   4  328.56    8.77
   2   2  -4  345.16    9.04
  -2  -2  -4  317.07   10.61
   2   2  -4  332.19   10.14
   2  -2   4  348.53   10.66
  -2  -2   5  198.17    5.25
   2   2   5  194.69    5.54
  -2   2  -5  201.34    6.03
  -2   2  -5  197.66    5.45
   2   2   5  202.91    5.27
   2  -2  -5  193.80    6.38
   2  -2  -5  202.51    6.08
  -2  -2   5  200.53    6.38
   2   2  -5  204.68    5.39
   2  -2   5  194.51    5.27
  -2   2   5  193.53    5.25
  -2  -2  -5  195.24    6.05
   2   2  -5  196.74    6.08
   2  -2   5  204.66    6.32
  -2   2  -6  186.72    5.85
  -2  -2   6  196.24    6.18
   2  -2  -6  191.07    5.90
   2   2   6  192.56    5.12
  -2   2  -6  187.87    5.28
   2   2   6  186.94    5.38
  -2  -2   6  193.37    5.10
   2  -2  -6  186.19    6.18
   2   2  -6  196.83    5.90
   2   2  -6  197.45    5.22
   2  -2   6  197.39    5.13
  -2  -2  -6  191.38    5.87
  -2   2   6  193.23    5.10
  -2  -2   7  177.29    5.68
   2  -2  -7  162.58    5.44
  -2   2  -7  178.14    4.87
  -2  -2   7  178.26    4.71
   2  -2  -7  176.70    5.69
   2   2   7  172.10    4.99
   2   2   7  169.06    4.72
  -2   2  -7  178.62    5.39
   2  -2   7  178.50    4.73
   2   2  -7  180.99    5.44
  -2  -2  -7  183.23    5.41
  -2   2   7  178.51    4.71
   2  -2  -8  151.33    4.79
   2   2   8  145.81    4.24
  -2  -2   8  152.66    3.97
   2   2   8  146.92    4.00
  -2  -2   8  156.01    4.78
   2  -2  -8  130.76    4.59
  -2   2  -8  147.66    4.11
  -2   2  -8  152.60    4.54
  -2  -2  -8  145.56    4.55
   2  -2   8  144.88    4.00
   2   2  -8  145.06    4.59
  -2   2   8  145.40    3.98
  -2  -2   9  100.87    2.65
   2   2   9   93.10    2.87
  -2   2  -9   95.81    2.99
   2  -2  -9   87.77    3.07
  -2   2  -9   97.22    2.74
   2  -2  -9   98.11    3.16
  -2  -2   9  100.98    3.15
   2   2   9   96.56    2.68
  -2  -2  -9   92.97    3.02
   2  -2   9   92.71    2.68
  -2   2   9   92.63    2.66
   2   2  -9   93.70    3.06
   2  -2 -10   70.88    2.42
   2   2  10   71.80    2.11
  -2   2 -10   73.87    2.33
  -2  -2  10   73.60    2.08
  -2   2 -10   71.46    2.13
   2   2  10   75.03    2.29
  -2   2  10   69.71    2.09
  -2  -2 -10   70.94    2.36
   2   2 -10   73.25    2.41
   2  -2  10   73.25    2.12
  -2   2 -11   56.33    1.75
   2  -2 -11   58.77    2.01
   2   2  11   60.00    1.92
  -2   2 -11   56.92    1.90
  -2  -2  11   57.55    1.72
   2   2  11   59.59    1.76
  -2  -2 -11   56.52    1.94
   2   2 -11   57.02    1.99
  -2   2  11   58.71    1.74
   2  -2  11   55.83    1.75
  -2  -2  12   52.74    1.57
  -2   2 -12   51.50    1.59
   2  -2 -12   53.89    1.84
  -2   2 -12   49.88    1.71
   2   2  12   50.92    1.60
   2  -2  12   50.59    1.61
  -2  -2 -12   49.56    1.75
   2   2 -12   49.02    1.81
  -2   2  12   50.07    1.59
  -2  -2  13   30.70    1.06
   2   2  13   31.92    1.10
  -2   2 -13   30.54    1.05
   2   2 -13   28.71    1.22
   2  -3   0    5.50    0.22
   2   3   0    5.23    0.27
   2  -3   0    5.65    0.26
   2   3   0    5.42    0.26
  -2  -3   0    5.57    0.25
  -2   3   0    5.47    0.21
   2  -3   0    5.55    0.21
  -2   3  -1    0.76    0.08
  -2  -3   1    0.80    0.09
   2   3   1    0.75    0.11
   2   3   1    0.94    0.13
   2  -3  -1    0.82    0.10
   2  -3  -1    0.90    0.08
  -2   3   1    0.86    0.08
   2  -3   1    0.72    0.09
  -2  -3  -1    0.83    0.09
   2  -3   1    0.91    0.09
   2   3  -1    0.77    0.11
   2   3  -1    0.86    0.11
   2  -3   1    0.98    0.09
  -2   3   1    0.83    0.08
   2  -3  -2    1.40    0.12
  -2   3  -2    1.33    0.09
   2   3   2    1.20    0.14
  -2  -3   2    1.24    0.13
  -2  -3   2    1.28    0.08
  -2   3  -2    1.22    0.11
   2  -3  -2    1.16    0.13
   2   3   2    1.32    0.08
   2   3  -2    1.23    0.11
  -2   3   2    1.04    0.10
   2  -3   2    1.31    0.12
   2   3  -2    1.24    0.13
   2  -3   2    1.08    0.10
  -2   3   2    1.04    0.08
  -2  -3  -2    0.99    0.10
  -2  -3  -2    1.15    0.12
   2   3   3    2.64    0.23
   2  -3  -3    2.42    0.17
   2  -3  -3    2.11    0.17
  -2   3  -3    2.18    0.12
   2   3   3    2.50    0.13
  -2  -3   3    2.22    0.12
  -2   3  -3    2.08    0.16
  -2  -3   3    2.23    0.17
  -2  -3  -3    2.31    0.16
   2  -3   3    2.51    0.16
  -2   3   3    2.31    0.14
   2   3  -3    2.54    0.19
   2   3  -3    2.51    0.16
  -2  -3  -3    2.28    0.12
   2  -3   3    2.45    0.16
  -2   3   3    2.58    0.11
  -2  -3   4    3.12    0.20
   2  -3  -4    2.92    0.21
   2   3   4    3.32    0.25
  -2   3  -4    3.14    0.21
   2   3   4    3.08    0.17
  -2   3  -4    3.16    0.16
  -2  -3   4    3.08    0.16
   2  -3  -4    3.27    0.21
  -2  -3  -4    2.75    0.19
   2   3  -4    2.80    0.21
  -2   3   4    2.85    0.12
  -2   3   4    2.73    0.16
  -2  -3  -4    2.92    0.14
   2  -3   4    2.96    0.18
   2   3  -4    3.07    0.17
   2  -3   4    2.98    0.18
   2   3   5    0.87    0.12
  -2  -3   5    0.83    0.12
  -2   3  -5    0.90    0.11
   2   3   5    0.88    0.16
  -2   3  -5    0.77    0.13
   2  -3  -5    0.69    0.13
   2  -3  -5    1.25    0.15
  -2  -3   5    0.75    0.10
  -2   3   5    0.95    0.11
   2   3  -5    0.83    0.14
  -2  -3  -5    0.77    0.12
   2   3  -5    0.98    0.10
   2  -3   5    0.88    0.12
  -2  -3  -5    1.07    0.08
   2  -3   5    1.15    0.12
  -2  -3   6    1.75    0.18
   2   3   6    1.62    0.16
   2  -3  -6    1.58    0.17
  -2   3  -6    1.65    0.17
  -2   3  -6    1.52    0.16
   2   3   6    1.61    0.22
   2  -3  -6    1.84    0.19
  -2  -3   6    1.75    0.16
   2   3  -6    1.83    0.14
   2  -3   6    1.57    0.16
   2   3  -6    1.58    0.18
  -2   3   6    1.90    0.17
  -2  -3  -6    1.65    0.18
  -2  -3   7    0.38    0.12
   2  -3  -7    0.25    0.15
   2   3   7    0.35    0.13
  -2   3  -7    0.48    0.12
  -2   3  -7    0.36    0.13
   2   3   7    0.59    0.18
  -2  -3   7    0.63    0.12
   2  -3  -7    0.41    0.13
   2  -3   7    0.60    0.13
   2   3  -7    0.52    0.16
  -2   3   7    0.56    0.13
  -2  -3  -7    0.34    0.13
   2   3   8    3.31    0.33
  -2  -3   8    3.51    0.25
  -2   3  -8    3.71    0.25
   2  -3  -8    2.82    0.29
  -2  -3   8    3.69    0.26
   2  -3  -8    3.64    0.26
   2   3   8    3.64    0.27
  -2   3  -8    3.45    0.26
  -2   3   8    3.01    0.26
   2  -3   8    3.52    0.27
  -2  -3  -8    3.58    0.27
   2   3  -8    3.31    0.30
  -2   3  -9    2.10    0.23
   2   3   9    2.15    0.29
  -2  -3   9    2.35    0.23
   2  -3  -9    2.35    0.24
   2   3   9    2.60    0.24
  -2   3  -9    2.33    0.24
   2  -3  -9    1.69    0.27
  -2  -3   9    2.32    0.22
  -2   3   9    2.60    0.24
   2   3  -9    2.64    0.28
  -2  -3  -9    2.20    0.24
   2  -3   9    2.63    0.25
   2  -3 -10   -0.11    0.21
  -2  -3  10    0.36    0.16
  -2   3 -10    0.29    0.19
   2   3  10    0.19    0.21
   2   3  10    0.41    0.18
  -2  -3 -10    0.19    0.19
   2  -3  10    0.09    0.15
  -2   3  10    0.31    0.17
   2   3 -10    0.01    0.19
   2   3  11    0.28    0.19
   2   3  11    0.25    0.24
   2  -3 -11    0.08    0.24
  -2   3 -11    0.31    0.20
  -2  -3  11    0.57    0.18
   2   3 -11    0.16    0.22
  -2  -3 -11    0.17    0.20
  -2   3  11    0.46    0.19
   2  -3  11    0.15    0.17
   2   3  12    0.52    0.22
  -2  -3  12    0.34    0.19
  -2   3 -12    0.13    0.21
   2  -3 -12    0.05    0.27
   2  -3  12    0.06    0.19
  -2   3  12    0.68    0.21
  -2  -3 -12    0.28    0.23
   2   3 -12   -0.03    0.23
   2   3  13    0.49    0.23
  -2   3 -13    0.58    0.24
  -2  -3  13    0.60    0.22
   2  -4   0  229.82    6.28
   2   4   0  240.36    7.27
  -2   4   0  237.93    6.46
   2  -4   0  244.02    7.63
   2   4   0  245.11    6.53
   2  -4   0  238.01    7.21
  -2  -4   0  235.52    7.65
  -2  -4   1  304.27   10.25
   2   4   1  320.81    8.63
   2  -4  -1  322.98   10.08
   2   4   1  326.46    9.60
  -2   4  -1  315.74    8.55
   2  -4  -1  329.61    9.57
  -2   4   1  298.58    8.28
   2   4  -1  312.90    9.59
  -2  -4  -1  300.15   10.10
   2   4  -1  312.01    8.59
   2  -4   1  337.15   10.08
  -2   4   1  313.31    8.53
  -2  -4   2  286.42    9.21
   2   4   2  278.31    7.92
   2   4   2  293.70    7.56
  -2  -4   2  293.17    7.58
   2  -4  -2  294.13    8.74
  -2   4  -2  278.88    7.84
   2  -4  -2  289.04    9.23
  -2  -4  -2  289.99    8.77
  -2  -4  -2  285.98    9.18
   2  -4   2  319.57    9.23
   2   4  -2  280.45    8.78
  -2   4   2  295.99    7.81
   2   4  -2  287.34    7.86
   2  -4   2  288.90    7.61
  -2   4   2  277.14    7.59
   2   4   3  309.72    8.51
  -2   4  -3  296.78    8.41
  -2  -4   3  290.48    9.88
  -2  -4   3  308.84    8.12
   2   4   3  303.70    8.12
   2  -4  -3  303.97    9.90
   2  -4  -3  327.64    9.39
   2  -4   3  339.25    9.90
  -2   4   3  321.53    8.38
   2   4  -3  304.19    9.42
   2   4  -3  318.57    8.43
  -2  -4  -3  294.88    9.86
  -2   4   3  309.51    8.14
  -2  -4  -3  317.31    9.41
  -2   4  -4  351.30   10.36
   2   4   4  342.49    9.41
   2   4   4  322.23    9.00
  -2  -4   4  352.84    9.02
  -2  -4   4  326.36   10.93
   2  -4  -4  336.21   10.95
  -2   4  -4  332.28    9.31
   2  -4  -4  366.50   10.40
   2   4  -4  339.73   10.42
   2  -4   4  338.80    9.03
   2   4  -4  346.60    9.31
   2  -4   4  359.77   10.93
  -2  -4  -4  347.56   10.88
  -2  -4  -4  350.95   10.40
  -2   4   4  337.21    9.01
   2   4   5  218.13    6.21
  -2  -4   5  241.09    7.53
  -2   4  -5  233.53    6.42
   2  -4  -5  243.70    7.18
   2   4   5  235.76    6.53
  -2  -4   5  249.77    6.19
   2  -4  -5  233.69    7.54
   2   4  -5  229.44    6.40
   2  -4   5  232.04    6.23
  -2  -4  -5  247.22    7.46
  -2  -4  -5  232.66    7.15
  -2   4   5  240.37    6.21
   2   4  -5  227.89    7.17
   2  -4   5  223.97    7.50
  -2  -4   6  169.90    4.38
   2   4   6  164.41    4.67
   2   4   6  154.88    4.41
  -2  -4   6  167.72    5.32
   2  -4  -6  160.73    5.33
  -2   4  -6  162.95    4.55
   2  -4  -6  150.39    5.09
  -2  -4  -6  168.03    5.06
   2   4  -6  175.83    4.54
   2   4  -6  166.18    5.09
  -2   4   6  170.03    4.41
  -2  -4   7  111.74    2.96
  -2  -4   7  112.33    3.58
   2  -4  -7  107.60    3.60
  -2   4  -7  106.01    3.08
   2   4   7  108.07    3.21
   2   4   7  107.05    3.00
  -2   4   7  111.93    2.99
  -2  -4  -7  109.53    3.42
   2   4  -7  112.05    3.45
   2   4  -7  107.62    3.06
   2  -4   7  108.07    3.01
   2   4   8   85.70    2.38
  -2   4  -8   83.49    2.43
  -2  -4   8   87.71    2.34
  -2  -4   8   86.60    2.80
   2  -4  -8   84.19    2.82
   2   4   8   83.93    2.57
  -2   4   8   82.18    2.35
   2   4  -8   82.36    2.71
   2  -4   8   83.33    2.38
  -2  -4  -8   83.03    2.68
  -2  -4   9  103.17    2.77
  -2  -4   9  104.26    3.30
   2  -4  -9   95.00    3.23
   2   4   9  102.84    2.81
   2  -4  -9   98.53    3.32
  -2   4  -9   99.50    2.86
   2   4   9   98.53    3.01
   2   4  -9   99.04    3.20
   2  -4   9   98.59    2.81
  -2  -4  -9   98.14    3.17
  -2   4   9   99.34    2.79
   2   4  10   83.90    2.39
  -2   4 -10   82.95    2.43
   2   4  10   82.81    2.59
  -2  -4  10   81.58    2.35
   2  -4 -10   83.27    2.76
   2   4 -10   84.12    2.73
   2  -4  10   82.00    2.41
  -2   4  10   82.82    2.39
  -2  -4 -10   83.72    2.70
   2   4  11   60.67    1.84
  -2   4 -11   62.09    1.86
  -2  -4  11   62.98    1.82
   2  -4 -11   65.59    2.15
   2   4  11   60.24    2.03
  -2   4  11   61.21    1.85
   2  -4  11   59.83    1.87
   2   4 -11   59.55    2.10
  -2  -4 -11   59.27    2.07
   2  -4 -12   45.52    1.59
  -2   4 -12   44.21    1.36
  -2  -4  12   42.84    1.34
   2   4  12   43.53    1.38
  -2   4  12   39.74    1.36
  -2  -4 -12   40.39    1.50
   2   4 -12   38.88    1.54
   2  -4  12   39.66    1.38
   2   4  13   23.07    0.92
  -2   4 -13   25.02    0.91
  -2   5   0    3.09    0.17
   2  -5   0    2.85    0.17
   2  -5   0    2.93    0.21
  -2  -5   0    2.81    0.18
   2   5   0    2.70    0.21
   2   5   0    2.59    0.20
  -2  -5   1    2.79    0.19
  -2   5  -1    2.63    0.18
   2   5   1    2.67    0.22
   2  -5  -1    2.82    0.21
   2  -5  -1    3.06    0.15
   2   5  -1    3.18    0.22
   2   5  -1    3.13    0.22
   2  -5   1    3.24    0.21
  -2   5   1    3.13    0.18
  -2   5   1    3.18    0.16
  -2  -5  -1    3.16    0.18
   2  -5   1    3.12    0.19
  -2  -5   2    0.80    0.11
   2  -5  -2    0.89    0.13
   2  -5  -2    1.00    0.09
  -2   5  -2    0.74    0.11
   2   5   2    0.99    0.16
  -2   5   2    1.06    0.11
   2  -5   2    0.98    0.12
   2   5  -2    0.89    0.13
  -2  -5  -2    1.07    0.12
   2  -5   2    1.07    0.14
   2   5  -2    0.88    0.13
  -2   5   2    1.21    0.12
  -2  -5  -2    0.95    0.10
  -2   5  -3    0.30    0.10
   2  -5  -3    0.23    0.10
   2   5   3    0.23    0.07
  -2  -5   3    0.26    0.09
   2   5   3    0.15    0.11
   2  -5  -3    0.32    0.08
  -2   5   3    0.14    0.06
  -2  -5  -3    0.17    0.06
  -2  -5  -3    0.12    0.09
   2  -5   3    0.17    0.09
   2   5  -3    0.09    0.09
   2  -5   3    0.14    0.08
   2   5  -3    0.11    0.10
  -2   5   3    0.18    0.08
  -2   5  -4    3.42    0.21
   2   5   4    2.68    0.17
  -2  -5   4    3.06    0.21
   2   5   4    3.11    0.29
   2  -5  -4    3.36    0.23
   2  -5  -4    3.62    0.22
   2  -5   4    2.86    0.21
  -2   5   4    3.20    0.19
  -2  -5  -4    2.95    0.17
   2   5  -4    2.99    0.23
   2  -5   4    2.87    0.20
   2   5  -4    3.38    0.21
  -2  -5  -4    2.87    0.22
   2   5   5    0.33    0.10
   2   5   5    0.45    0.17
  -2  -5   5    0.35    0.11
   2  -5  -5    0.44    0.13
  -2   5  -5    0.35    0.11
   2  -5  -5    0.28    0.12
  -2   5   5    0.41    0.10
   2   5  -5    0.45    0.13
   2   5  -5    0.44    0.11
  -2  -5  -5    0.50    0.08
  -2  -5  -5    0.49    0.12
   2  -5   5    0.65    0.12
   2  -5   5    0.44    0.11
   2  -5  -6    1.10    0.17
  -2  -5   6    1.29    0.15
   2   5   6    1.48    0.16
  -2   5  -6    1.70    0.18
   2  -5  -6    1.13    0.18
   2   5   6    1.51    0.24
  -2   5   6    1.70    0.16
   2   5  -6    1.52    0.16
   2   5  -6    1.54    0.19
   2  -5   6    1.44    0.17
  -2  -5  -6    1.68    0.17
  -2   5  -7    1.12    0.18
   2  -5  -7    1.48    0.18
   2   5   7    1.49    0.18
   2   5   7    1.37    0.24
  -2  -5   7    1.17    0.16
   2  -5   7    1.37    0.18
   2   5  -7    1.62    0.17
   2   5  -7    1.35    0.20
  -2  -5  -7    1.30    0.18
  -2   5   7    1.51    0.18
  -2   5  -8    1.01    0.19
   2   5   8    1.18    0.25
  -2  -5   8    1.45    0.18
   2   5   8    1.18    0.18
  -2   5   8    1.31    0.19
   2   5  -8    1.15    0.21
  -2  -5  -8    1.29    0.20
   2  -5   8    1.40    0.19
   2  -5  -9    0.27    0.16
  -2   5  -9    0.18    0.18
  -2  -5   9    0.26    0.14
   2   5   9    0.42    0.22
   2  -5  -9    0.03    0.21
   2   5   9    0.24    0.16
  -2  -5  -9    0.30    0.18
   2  -5   9    0.47    0.17
  -2   5   9    0.06    0.16
   2   5  -9    0.38    0.19
   2  -5 -10   -0.14    0.23
   2   5  10    0.71    0.25
  -2   5 -10    0.40    0.20
   2   5  10    0.53    0.19
  -2  -5 -10    0.41    0.21
   2  -5  10    0.43    0.18
   2   5 -10    0.22    0.20
  -2   5  10    0.18    0.19
   2   5  11    0.72    0.21
   2  -5 -11    0.39    0.29
  -2   5 -11    0.66    0.22
   2   5 -11    0.46    0.24
  -2   5  11    0.70    0.22
  -2  -5 -11    0.68    0.24
   2  -5  11    0.63    0.21
   2  -5 -12    0.33    0.30
   2   5  12    0.58    0.22
  -2   5 -12    0.72    0.23
   2   5 -12    0.47    0.26
  -2  -6   0  254.04    8.07
   2   6   0  255.56    7.73
  -2   6   0  257.26    6.88
   2   6   0  245.65    6.95
  -2  -6   1  259.26    8.23
   2   6   1  257.27    7.10
   2  -6  -1  270.13    8.28
  -2   6  -1  254.96    7.01
   2  -6   1  246.69    6.81
   2  -6   1  272.44    8.28
  -2   6   1  258.89    6.80
  -2  -6  -1  249.24    8.22
  -2   6   1  263.30    7.00
  -2  -6  -1  261.91    7.85
   2   6  -1  247.83    7.07
   2   6  -1  253.72    7.86
  -2  -6   2  242.26    7.63
  -2   6  -2  235.00    6.50
   2   6   2  238.07    6.60
   2  -6  -2  235.58    7.66
   2  -6   2  253.84    7.67
  -2   6   2  242.24    6.48
   2   6  -2  237.66    6.55
  -2   6   2  229.36    6.29
   2   6  -2  235.11    7.28
   2  -6   2  232.30    6.31
  -2  -6  -2  242.92    7.26
  -2  -6  -2  238.12    7.60
  -2   6  -3  209.72    5.85
   2  -6  -3  211.40    6.89
  -2  -6   3  217.95    6.86
   2   6   3  216.09    5.97
  -2  -6  -3  217.77    6.53
   2  -6   3  223.09    6.90
   2   6  -3  213.43    5.88
  -2   6   3  208.80    5.66
  -2  -6  -3  204.82    6.82
   2  -6   3  216.77    5.68
  -2   6   3  216.62    5.82
   2   6  -3  209.86    6.54
  -2  -6   4  140.09    4.43
  -2   6  -4  134.11    3.79
   2  -6  -4  136.05    4.46
   2  -6  -4  145.86    4.21
   2   6   4  139.48    3.92
   2   6  -4  138.29    3.82
   2   6  -4  134.22    4.23
   2  -6   4  130.55    3.68
  -2  -6  -4  131.55    4.38
   2  -6   4  132.83    4.45
  -2  -6  -4  140.15    4.21
  -2   6   4  134.28    3.66
   2  -6  -5  166.14    5.38
   2   6   5  168.24    4.72
   2  -6  -5  162.25    5.11
  -2  -6   5  170.99    5.36
  -2   6  -5  163.89    4.58
  -2  -6  -5  164.45    5.09
  -2   6   5  161.77    4.43
   2   6  -5  164.42    5.12
   2  -6   5  161.12    4.45
   2   6  -5  173.31    4.61
  -2  -6  -5  165.37    5.30
   2   6   6  143.68    4.14
  -2   6  -6  140.38    4.00
   2  -6  -6  142.35    4.69
  -2  -6   6  141.59    4.66
   2  -6   6  144.24    3.89
   2   6  -6  149.46    4.02
   2   6  -6  142.99    4.46
  -2  -6  -6  145.38    4.44
  -2   6   6  140.05    3.86
   2  -6  -7  129.58    4.25
  -2  -6   7  126.73    4.21
  -2   6  -7  125.44    3.62
   2   6   7  127.64    3.77
  -2   6   7  128.15    3.51
   2   6  -7  129.65    4.05
  -2  -6  -7  130.35    4.02
   2  -6   7  128.29    3.53
   2   6  -7  133.69    3.65
   2  -6  -8  103.61    3.44
  -2   6  -8  100.29    2.94
  -2  -6   8  103.63    3.41
   2   6   8  104.94    3.11
   2   6  -8  104.23    3.29
  -2  -6  -8  103.58    3.27
  -2   6   8  100.08    2.86
   2  -6   8  103.99    2.89
   2  -6  -9   66.51    2.39
   2  -6  -9   72.53    2.46
  -2   6  -9   72.06    2.12
   2   6   9   71.89    2.28
  -2  -6   9   73.06    2.42
   2  -6   9   71.95    2.09
   2   6  -9   70.44    2.36
  -2   6   9   70.55    2.06
  -2  -6  -9   71.73    2.34
  -2   6 -10   48.76    1.56
   2   6  10   49.74    1.74
   2  -6 -10   52.51    1.81
  -2  -6 -10   51.63    1.74
   2   6 -10   50.08    1.75
  -2   6  10   49.37    1.55
   2  -6  10   48.72    1.56
   2  -6 -11   45.62    1.59
  -2   6 -11   40.35    1.34
  -2   6  11   41.28    1.36
  -2  -6 -11   40.81    1.50
   2  -6  11   40.66    1.37
  -2   7   0    0.28    0.10
  -2   7   0    0.32    0.10
   2   7   0    0.36    0.14
  -2  -7   0    0.31    0.10
   2  -7   0    0.20    0.12
   2   7   1    1.00    0.16
   2  -7  -1    0.92    0.16
  -2  -7   1    1.19    0.14
  -2   7  -1    1.06    0.14
  -2   7   1    0.85    0.12
  -2  -7  -1    0.76    0.11
   2   7  -1    0.74    0.15
  -2  -7  -1    0.66    0.13
  -2   7   1    0.73    0.12
   2   7  -1    0.59    0.15
   2  -7   1    0.79    0.16
   2  -7   1    0.77    0.13
   2  -7  -2    0.24    0.12
  -2  -7   2    0.31    0.11
  -2   7  -2    0.36    0.12
   2   7   2    0.31    0.14
  -2   7   2    0.27    0.10
  -2   7   2    0.33    0.11
   2   7  -2    0.31    0.13
   2   7  -2    0.26    0.12
   2  -7   2    0.25    0.11
  -2  -7  -2    0.28    0.10
   2  -7   2    0.33    0.12
  -2  -7  -2    0.40    0.12
  -2  -7   3    0.32    0.11
  -2   7  -3    0.19    0.12
   2  -7  -3    0.22    0.12
   2   7   3    0.13    0.14
   2   7  -3    0.29    0.13
  -2  -7  -3    0.25    0.10
  -2   7   3    0.22    0.10
   2   7  -3    0.31    0.13
   2  -7   3    0.29    0.13
   2  -7   3    0.30    0.11
  -2  -7  -3    0.28    0.12
  -2   7   3    0.21    0.10
  -2   7  -4    3.21    0.26
  -2  -7   4    3.18    0.25
   2  -7  -4    3.53    0.27
   2   7   4    3.29    0.30
  -2  -7  -4    3.38    0.25
   2  -7   4    3.39    0.28
   2   7  -4    3.57    0.27
  -2   7   4    3.38    0.22
   2  -7   4    3.58    0.24
  -2  -7  -4    3.69    0.22
   2   7  -4    3.84    0.27
   2  -7  -5    1.67    0.20
  -2   7  -5    1.69    0.19
   2   7   5    1.36    0.24
  -2  -7   5    1.69    0.19
  -2  -7  -5    2.07    0.21
   2   7  -5    1.75    0.20
   2  -7   5    2.14    0.19
  -2  -7  -5    1.89    0.17
  -2   7   5    2.14    0.19
   2  -7   5    1.45    0.19
   2   7  -5    2.16    0.21
   2   7   6    0.98    0.23
  -2   7  -6    1.23    0.19
   2  -7  -6    0.98    0.20
  -2  -7   6    1.03    0.16
  -2   7   6    0.61    0.14
  -2  -7  -6    0.73    0.16
   2  -7   6    0.70    0.15
   2  -7   6    0.20    0.12
   2   7  -6    0.68    0.17
   2   7  -6    0.68    0.17
   2  -7  -7    0.17    0.15
  -2   7  -7    0.02    0.17
   2   7   7    0.21    0.21
  -2  -7   7    0.27    0.13
   2   7  -7    0.04    0.15
  -2  -7  -7    0.11    0.15
  -2   7   7    0.13    0.13
   2  -7   7    0.22    0.14
   2   7  -7    0.27    0.16
  -2   7  -8    0.41    0.19
   2   7   8    0.60    0.24
   2  -7  -8   -0.13    0.19
   2  -7  -8    0.73    0.19
  -2  -7   8    0.54    0.15
   2  -7   8    0.57    0.17
  -2   7   8    0.36    0.16
  -2  -7  -8    0.63    0.19
   2   7  -8    0.41    0.18
  -2  -7   9    0.86    0.18
  -2   7  -9    0.53    0.21
   2   7   9    0.83    0.27
   2  -7  -9    0.37    0.25
  -2   7   9    0.92    0.21
   2  -7   9    0.64    0.19
  -2   7 -10    1.13    0.22
   2   7  10    0.95    0.31
   2  -7 -10    0.72    0.30
   2  -7  10    1.05    0.23
  -2   7  10    0.72    0.23
  -2  -7 -10    1.09    0.25
   2  -7 -11    0.13    0.29
  -2   8   0  205.60    5.50
  -2   8   0  199.19    5.32
  -2  -8   0  198.57    6.43
   2   8   0  192.57    5.57
   2  -8   0  197.63    6.49
  -2  -8   0  206.27    6.13
  -2  -8   1  195.33    6.31
  -2   8  -1  196.96    5.39
   2   8   1  190.06    5.48
   2  -8  -1  198.83    6.36
  -2  -8  -1  196.61    6.00
  -2  -8  -1  192.13    6.29
  -2   8   1  194.18    5.21
   2  -8   1  202.03    6.37
   2  -8   1  193.79    5.23
  -2   8   1  203.75    5.39
   2   8  -1  199.12    6.03
   2   8  -1  186.94    5.46
  -2  -8   2  154.16    5.11
   2  -8  -2  155.61    5.16
   2   8   2  156.34    4.48
  -2   8  -2  157.21    4.37
   2   8  -2  153.95    4.43
   2   8  -2  159.06    4.88
   2  -8   2  153.51    4.24
  -2   8   2  164.54    4.37
  -2  -8  -2  159.97    4.86
  -2   8   2  152.02    4.22
  -2  -8  -2  160.29    5.09
   2  -8   2  164.90    5.17
  -2   8  -3  129.62    3.70
   2   8   3  129.37    3.82
   2  -8  -3  126.60    4.35
  -2  -8   3  136.63    4.33
  -2  -8  -3  135.08    4.10
  -2  -8  -3  135.36    4.29
   2  -8   3  133.39    4.38
  -2   8   3  131.84    3.57
   2  -8   3  129.06    3.59
  -2   8   3  138.26    3.69
   2   8  -3  132.16    3.76
   2   8  -3  130.11    4.12
   2   8   4   99.89    2.99
  -2  -8   4   98.82    3.30
   2  -8  -4   96.70    3.34
  -2   8  -4   99.05    2.84
  -2  -8  -4   98.77    3.13
   2   8  -4   99.47    2.89
  -2   8   4  100.77    2.75
   2  -8   4  101.00    3.37
  -2  -8  -4  105.02    3.27
   2  -8   4   99.69    2.77
   2   8   5  126.64    3.74
  -2   8  -5  126.78    3.58
  -2  -8   5  125.97    4.17
   2  -8  -5  122.12    4.20
  -2  -8  -5  128.49    3.96
   2   8  -5  133.77    3.65
  -2   8   5  127.02    3.46
   2   8   6  108.67    3.27
  -2  -8   6  110.44    3.61
   2  -8  -6  106.68    3.63
  -2   8  -6  109.21    3.11
   2   8  -6  113.26    3.16
  -2  -8  -6  106.76    3.42
   2  -8   6  106.29    3.02
  -2   8   6  109.18    3.00
  -2  -8   7   93.16    3.19
  -2   8  -7   95.89    2.77
   2   8   7   97.00    2.94
   2  -8  -7   97.28    3.24
   2   8  -7   99.47    2.82
  -2  -8  -7   97.13    3.05
   2  -8   7   90.76    2.69
  -2   8   7   94.80    2.67
  -2   8  -8   70.19    2.15
   2   8   8   73.51    2.34
  -2  -8   8   72.85    2.46
   2  -8  -8   74.66    2.52
  -2   8   8   70.72    2.08
   2  -8   8   68.63    2.10
   2   8  -8   74.57    2.21
  -2  -8  -8   72.37    2.37
   2   8   9   60.68    2.04
  -2  -8   9   59.63    2.10
  -2   8  -9   59.72    1.86
  -2   8   9   61.38    1.81
   2  -8   9   59.77    1.83
  -2  -8  -9   62.46    2.05
  -2  -8 -10   41.45    1.49
   2  -8  10   39.92    1.34
  -2   8  10   41.84    1.35
   2  -9   0    0.17    0.15
  -2   9   0    0.18    0.12
  -2  -9   0    0.12    0.12
   2   9   0   -0.10    0.14
  -2   9   0    0.07    0.14
  -2   9  -1    1.40    0.19
   2   9   1    1.30    0.22
   2  -9  -1    1.37    0.21
  -2  -9   1    1.50    0.19
  -2   9   1    1.86    0.20
  -2   9   1    1.74    0.18
  -2  -9  -1    1.79    0.19
   2   9  -1    1.42    0.21
  -2  -9  -1    1.82    0.21
   2  -9   1    2.02    0.23
   2   9   2    0.22    0.18
  -2  -9   2    0.31    0.13
  -2   9  -2    0.25    0.15
   2  -9  -2    0.20    0.15
   2  -9   2    0.22    0.12
  -2   9   2    0.40    0.14
  -2  -9  -2    0.26    0.13
   2  -9   2    0.26    0.16
  -2   9   2    0.26    0.12
  -2  -9  -2    0.22    0.13
   2   9  -2    0.30    0.17
   2   9   3    0.21    0.19
  -2  -9   3    0.28    0.13
   2  -9  -3    0.21    0.15
  -2   9  -3    0.43    0.17
   2  -9   3    0.17    0.12
   2  -9   3    0.29    0.17
   2   9  -3    0.29    0.15
  -2  -9  -3    0.32    0.13
  -2  -9  -3    0.28    0.14
  -2   9   3    0.24    0.12
   2   9   4   -0.05    0.18
   2  -9  -4    0.06    0.16
  -2   9  -4   -0.05    0.16
  -2  -9   4    0.21    0.15
   2   9  -4   -0.07    0.16
  -2   9   4    0.01    0.11
   2  -9   4    0.11    0.12
   2  -9   4    0.04    0.16
  -2  -9  -4    0.09    0.11
  -2  -9  -4    0.04    0.14
  -2   9  -5    1.09    0.21
   2  -9  -5    0.73    0.20
  -2  -9   5    0.90    0.18
   2   9   5    1.23    0.27
  -2  -9  -5    0.75    0.18
   2  -9   5    0.58    0.18
   2  -9   5    0.66    0.16
  -2   9   5    0.63    0.15
   2   9  -5    0.79    0.19
   2  -9  -6    0.96    0.21
  -2   9  -6    1.03    0.22
   2   9   6    0.88    0.24
  -2  -9   6    0.95    0.19
   2  -9   6    0.73    0.20
  -2   9   6    1.14    0.18
   2  -9   6    1.48    0.20
  -2  -9  -6    1.12    0.21
   2   9  -6    0.97    0.22
   2   9   7    0.41    0.25
   2  -9  -7    0.40    0.21
  -2   9  -7    0.39    0.20
  -2  -9   7    0.24    0.17
   2  -9   7    0.22    0.15
  -2  -9  -7    0.19    0.18
   2   9  -7    0.18    0.21
  -2   9   7    0.18    0.15
  -2  -9   8    0.07    0.15
   2  -9  -8    0.04    0.18
  -2   9  -8   -0.14    0.18
   2   9   8   -0.09    0.23
   2  -9   8    0.09    0.16
   2   9  -8    0.12    0.20
  -2   9   8    0.14    0.17
  -2  -9  -8    0.16    0.20
  -2  -9   9    0.21    0.16
   2   9   9    0.34    0.28
  -2  -9  -9    0.17    0.22
  -2   9   9    0.27    0.20
   2  -9   9    0.26    0.19
   2 -10   0   85.50    2.94
   2  10   0   82.04    2.58
  -2  10   0   86.42    2.40
  -2  10   0   87.18    2.50
  -2 -10   0   88.04    2.88
   2 -10  -1  107.69    3.73
  -2  10  -1  111.22    3.17
  -2  10  -1  110.67    3.05
  -2 -10   1  110.41    3.67
   2  10   1  106.23    3.27
   2 -10   1  112.42    3.75
  -2  10   1  114.83    3.18
   2  10  -1  110.22    3.26
  -2 -10  -1  112.93    3.67
  -2  10   1  114.66    3.06
   2 -10  -2  113.53    3.85
  -2 -10   2  113.66    3.79
  -2  10  -2  114.05    3.27
   2  10   2  109.95    3.38
  -2  10   2  120.94    3.28
  -2  10   2  114.02    3.15
  -2 -10  -2  120.64    3.79
   2 -10   2  113.29    3.86
   2  10  -2  111.19    3.35
  -2 -10   3  117.69    3.75
  -2  10  -3  116.28    3.23
   2  10   3  110.02    3.36
   2 -10  -3  107.80    3.78
  -2  10   3  111.27    3.10
   2  10  -3  111.50    3.31
   2 -10   3  111.54    3.81
   2 -10   3  114.01    3.12
  -2 -10  -3  113.96    3.71
   2 -10  -4  105.86    3.72
   2  10   4  110.29    3.34
  -2 -10   4  110.35    3.68
  -2  10  -4  112.09    3.19
   2  10  -4  116.62    3.28
   2 -10   4  108.83    3.76
  -2 -10  -4  111.57    3.65
   2 -10   4  108.89    3.08
  -2  10   4  112.23    3.06
   2  10   5   83.91    2.64
  -2 -10   5   86.84    2.85
  -2  10  -5   83.42    2.47
   2 -10  -5   78.24    2.87
   2  10  -5   85.66    2.55
   2 -10   5   85.73    2.40
  -2  10   5   88.87    2.38
   2 -10   5   78.12    2.91
  -2  10  -6   68.31    2.01
   2 -10  -6   64.18    2.32
  -2 -10   6   67.07    2.28
   2  10   6   68.02    2.18
   2  10  -6   67.97    2.08
  -2  10   6   68.11    1.91
   2 -10   6   66.47    1.94
   2 -10   6   54.95    2.31
   2 -10  -7   53.98    1.97
  -2 -10   7   54.08    1.91
  -2  10  -7   51.34    1.68
   2  10   7   55.89    1.88
   2 -10   7   52.60    1.64
   2  10  -7   54.45    1.77
  -2  10   7   54.23    1.62
  -2 -10  -7   53.57    1.82
   2 -10  -8   39.03    1.53
  -2 -10   8   39.03    1.47
  -2  10   8   39.45    1.27
  -2 -10  -8   39.45    1.42
   2  10  -8   42.63    1.42
   2 -10   8   37.46    1.28
   2  11   0    0.07    0.19
  -2  11   0   -0.03    0.13
  -2 -11   0    0.09    0.16
   2 -11   0    0.01    0.16
  -2  11   0    0.09    0.18
  -2  11  -1    0.71    0.17
  -2 -11   1    0.57    0.17
   2  11   1    0.38    0.21
  -2  11  -1    0.79    0.21
   2 -11  -1    0.68    0.21
  -2 -11  -1    0.59    0.17
   2  11  -1    0.51    0.22
  -2  11   1    0.54    0.19
  -2  11   1    0.51    0.16
   2 -11   1    0.42    0.21
  -2  11  -2    0.57    0.16
   2 -11  -2    0.48    0.20
   2  11   2    0.69    0.24
  -2  11  -2    0.78    0.21
  -2 -11   2    0.42    0.18
  -2 -11  -2    0.48    0.16
   2 -11   2    0.58    0.22
   2  11  -2    0.14    0.21
  -2  11   2    0.34    0.15
  -2 -11   3    0.44    0.18
   2  11   3    0.38    0.22
  -2  11  -3    0.25    0.20
   2 -11  -3    0.41    0.21
   2  11  -3    0.66    0.24
   2 -11   3    0.36    0.17
  -2 -11  -3    0.30    0.17
  -2  11   3    0.62    0.16
   2 -11   3    0.32    0.20
  -2 -11   4    0.01    0.15
   2  11   4    0.01    0.20
   2 -11  -4   -0.02    0.18
  -2  11  -4    0.19    0.18
   2 -11   4    0.05    0.19
   2  11  -4    0.22    0.21
   2 -11   4    0.18    0.16
  -2 -11  -4    0.08    0.16
  -2  11   4    0.12    0.15
   2  11   5    0.34    0.26
   2 -11  -5    0.55    0.21
  -2 -11   5    0.37    0.20
  -2  11  -5    0.84    0.24
  -2  11   5    0.54    0.18
   2 -11   5    0.30    0.20
   2  11  -5    0.50    0.23
   2 -11   5    0.30    0.17
   2 -11  -6    0.25    0.21
   2  11   6    0.29    0.27
  -2  11   6    0.18    0.17
   2  11  -6    0.13    0.23
   2 -11   6    0.29    0.18
   2 -11   7    0.05    0.17
  -2  11   7    0.17    0.18
  -2  12   0   67.67    2.08
  -2 -12   0   73.70    2.39
   2 -12   0   63.69    2.42
   2  12   0   66.21    2.18
   2  12   1   64.35    2.17
  -2 -12   1   69.62    2.36
   2 -12  -1   61.92    2.40
  -2  12  -1   68.50    2.07
   2 -12   1   66.42    2.42
  -2  12   1   71.67    2.09
  -2 -12  -1   71.41    2.35
   2  12  -1   64.41    2.16
   2  12   2   73.99    2.38
  -2  12  -2   74.41    2.24
   2  12  -2   70.92    2.33
   2 -12   2   73.79    2.63
  -2 -12  -2   73.98    2.53
  -2  12  -3   78.16    2.37
  -2 -12  -3   78.03    2.67
   2 -12   3   77.97    2.78
  -2 -12  -4   69.65    2.41
   3   0   0   -0.08    0.10
   3   0   0   -0.04    0.07
   3   0   0   -0.01    0.07
   3   0   0    0.06    0.05
   3   0   1    0.02    0.05
   3   0   1   -0.03    0.11
  -3   0   1    0.00    0.04
   3   0  -1    0.00    0.07
   3   0  -1    0.05    0.09
   3   0   1   -0.02    0.07
   3   0  -1   -0.06    0.08
   3   0   1    0.04    0.08
   3   0   2    0.72    0.16
   3   0  -2    0.70    0.12
   3   0   2    0.85    0.09
   3   0   2    0.78    0.12
   3   0  -2    0.74    0.11
  -3   0   2    0.87    0.08
   3   0   2    0.70    0.10
   3   0  -2    0.76    0.12
  -3   0   3    3.38    0.16
   3   0  -3    3.38    0.24
  -3   0  -3    2.93    0.19
   3   0  -3    3.27    0.22
   3   0  -3    3.64    0.19
   3   0   3    3.50    0.30
  -3   0  -3    3.30    0.18
   3   0   3    3.42    0.18
   3   0  -4    4.83    0.28
  -3   0  -4    4.90    0.25
  -3   0  -4    4.91    0.21
   3   0  -4    4.80    0.29
   3   0   4    4.46    0.22
  -3   0   4    4.76    0.21
   3   0   4    4.65    0.34
  -3   0  -5    1.68    0.17
   3   0  -5    1.87    0.19
   3   0   5    1.50    0.22
   3   0   5    1.90    0.16
  -3   0   5    1.84    0.15
   3   0  -6    3.10    0.26
  -3   0   6    3.02    0.21
   3   0   6    3.54    0.23
   3   0   6    3.38    0.32
  -3   0  -6    2.95    0.22
  -3   0   6    3.03    0.24
   3   0   7    2.17    0.27
  -3   0  -7    2.65    0.23
   3   0   7    2.73    0.23
  -3   0   7    2.56    0.23
  -3   0   7    2.42    0.21
   3   0  -7    2.48    0.27
  -3   0   8    9.99    0.48
   3   0   8   10.15    0.44
   3   0  -8    9.89    0.52
  -3   0  -8    9.70    0.45
   3   0   8    9.71    0.57
  -3   0   8    9.85    0.43
   3   0   9    9.03    0.45
  -3   0   9    9.62    0.47
  -3   0  -9    8.96    0.45
  -3   0   9    9.27    0.42
   3   0  -9    8.57    0.51
   3   0   9    9.12    0.57
  -3   0 -10    1.50    0.23
  -3   0  10    1.95    0.23
  -3   0  10    1.78    0.21
   3   0  10    1.23    0.28
   3   0  10    1.94    0.25
   3   0 -10    1.53    0.29
  -3   0 -11    1.49    0.26
  -3   0  11    1.35    0.22
   3   0 -11    1.24    0.30
   3   0  11    1.57    0.26
   3   0  12    1.89    0.29
  -3   0 -12    1.39    0.27
  -3   0  12    1.55    0.25
  -3   0 -12    1.22    0.27
   3   0 -12    1.14    0.32
   3  -1   0  202.16    6.44
   3   1   0  201.99    6.13
   3  -1   0  201.11    6.11
   3   1   0  197.89    5.53
  -3  -1   0  199.38    6.43
   3  -1   0  200.59    5.53
   3  -1   0  201.52    5.28
   3   1   1  127.05    3.57
   3   1   1  129.28    3.92
   3  -1  -1  132.96    3.53
   3   1   1  133.76    3.35
   3  -1  -1  130.28    3.90
  -3  -1   1  124.06    3.34
   3  -1  -1  128.47    4.12
  -3   1   1  120.27    3.36
  -3  -1  -1  125.85    4.09
   3   1  -1  121.73    3.53
   3  -1   1  126.50    4.10
   3  -1   1  126.28    3.90
   3   1  -1  122.56    3.91
   3  -1   1  127.14    3.37
   3  -1   1  126.08    3.57
   3  -1  -2  101.04    3.13
   3   1   2  102.83    2.69
  -3  -1   2   96.35    2.67
   3   1   2   98.77    3.15
   3  -1  -2   99.90    3.31
   3  -1  -2  101.13    2.80
  -3  -1   2   96.83    3.30
   3   1   2   97.71    2.90
   3  -1   2  109.49    3.29
   3  -1   2  107.07    2.71
   3   1  -2   97.91    2.82
  -3   1   2  100.89    2.69
   3   1  -2  100.79    3.15
   3  -1   2  102.32    2.91
  -3  -1  -2  101.94    3.26
  -3   1  -3   75.55    2.35
   3  -1  -3   75.32    2.38
  -3  -1   3   74.01    2.02
   3   1   3   76.40    2.04
  -3  -1   3   77.05    2.52
   3   1   3   76.91    2.26
   3  -1   3   73.92    2.06
  -3  -1  -3   74.46    2.36
  -3   1   3   71.87    2.04
  -3  -1  -3   75.51    2.45
   3  -1   3   80.68    2.48
   3   1  -3   76.66    2.40
   3  -1   3   75.65    2.25
  -3  -1   4   68.68    2.30
   3   1   4   69.00    1.87
   3  -1  -4   69.51    2.18
   3  -1  -4   68.64    2.31
  -3  -1   4   69.43    1.86
   3   1   4   67.28    2.07
  -3   1  -4   68.34    2.14
   3   1  -4   67.19    2.19
   3  -1   4   67.15    1.88
   3  -1   4   69.82    2.09
  -3   1   4   64.96    1.86
  -3  -1  -4   66.56    2.15
  -3  -1  -4   68.76    2.21
   3  -1   4   73.73    2.24
   3   1   5   80.71    2.17
   3  -1  -5   76.17    2.64
  -3  -1   5   80.62    2.65
  -3   1  -5   80.38    2.46
  -3  -1   5   80.38    2.15
   3   1   5   79.47    2.40
   3  -1  -5   80.97    2.52
   3   1  -5   75.91    2.52
  -3  -1  -5   79.63    2.48
   3  -1   5   80.53    2.40
  -3   1   5   77.21    2.15
   3  -1   5   77.52    2.18
  -3   1  -6   78.87    2.44
   3  -1  -6   80.35    2.51
   3   1   6   76.16    2.38
   3   1   6   77.38    2.16
   3  -1  -6   76.47    2.62
  -3  -1   6   79.87    2.15
  -3  -1   6   77.66    2.62
   3  -1   6   75.91    2.17
   3   1  -6   79.15    2.51
  -3   1   6   77.16    2.15
  -3  -1  -6   79.79    2.46
   3  -1   6   77.94    2.39
   3  -1  -7   67.47    2.25
  -3  -1   7   68.92    1.93
   3  -1  -7   68.63    2.35
  -3   1  -7   69.85    2.19
   3   1   7   66.13    2.16
   3   1   7   70.18    1.96
  -3  -1   7   67.57    2.34
   3  -1   7   69.66    2.18
  -3   1   7   70.00    1.94
   3  -1   7   71.45    1.97
  -3  -1  -7   68.99    2.20
   3   1  -7   68.88    2.26
  -3   1  -8   62.79    2.01
   3   1   8   61.59    2.02
   3   1   8   63.62    1.82
   3  -1  -8   62.69    2.09
  -3  -1   8   63.14    2.15
  -3  -1   8   63.04    1.79
  -3   1   8   61.80    1.79
   3   1  -8   63.54    2.10
   3  -1   8   63.07    1.83
   3  -1   8   62.28    2.02
  -3  -1  -8   60.71    2.02
  -3   1  -9   36.30    1.17
   3   1   9   36.72    1.33
   3   1   9   37.40    1.17
  -3  -1   9   37.86    1.13
   3  -1  -9   35.46    1.34
  -3   1  -9   37.05    1.25
  -3  -1   9   37.52    1.33
   3  -1   9   34.64    1.16
  -3   1   9   36.04    1.14
  -3  -1  -9   35.20    1.25
   3   1  -9   34.62    1.33
  -3   1   9   35.09    1.32
  -3  -1  10   30.00    1.01
  -3  -1  10   31.38    1.18
   3   1  10   29.52    1.05
   3   1  10   30.80    1.21
  -3   1 -10   30.54    1.12
  -3   1 -10   32.37    1.07
   3  -1 -10   28.12    1.21
  -3   1  10   33.08    1.19
  -3  -1 -10   31.44    1.14
  -3   1  10   32.75    1.04
   3   1 -10   32.16    1.22
   3  -1  10   31.88    1.06
   3   1  11   21.72    1.00
  -3   1 -11   24.12    0.87
  -3  -1  11   24.84    0.84
   3  -1 -11   20.96    1.00
   3   1  11   23.37    0.88
  -3   1 -11   22.62    0.89
   3   1 -11   23.39    1.01
  -3   1  11   24.25    0.85
   3  -1  11   23.38    0.88
  -3  -1 -11   23.04    0.92
   3   1  12   18.62    0.78
   3  -1 -12   17.11    0.89
  -3   1 -12   17.43    0.76
  -3   1 -12   18.50    0.75
  -3  -1  12   18.67    0.72
  -3   1  12   18.99    0.75
   3   1 -12   17.82    0.88
  -3  -1 -12   18.60    0.80
   3  -1  12   19.07    0.78
  -3  -1 -13   16.95    0.74
  -3  -2   0    5.19    0.18
  -3  -2   0    5.08    0.27
   3  -2   0    5.58    0.26
   3   2   0    5.77    0.30
   3  -2   0    5.61    0.29
   3   2   0    4.88    0.28
   3  -2   0    5.70    0.23
  -3   2   0    5.46    0.23
   3   2   1    4.83    0.27
  -3  -2   1    4.75    0.26
   3   2   1    4.85    0.29
  -3   2  -1    4.55    0.23
  -3  -2   1    4.66    0.16
   3  -2  -1    5.00    0.25
   3   2   1    5.20    0.18
   3  -2  -1    4.65    0.27
   3  -2   1    4.89    0.24
  -3   2   1    4.53    0.20
   3  -2   1    4.73    0.27
  -3  -2  -1    4.64    0.24
  -3   2   1    4.75    0.20
   3   2  -1    4.63    0.27
   3  -2   1    4.75    0.22
   3   2  -1    5.15    0.28
  -3   2  -2    3.55    0.18
   3   2   2    3.57    0.28
   3  -2  -2    3.55    0.24
   3  -2  -2    3.31    0.21
   3   2   2    3.43    0.24
   3   2   2    3.38    0.15
  -3  -2   2    3.67    0.23
  -3  -2   2    3.36    0.14
   3  -2   2    3.38    0.19
   3   2  -2    3.32    0.23
   3   2  -2    3.46    0.23
  -3  -2  -2    3.32    0.19
   3  -2   2    3.62    0.22
  -3   2   2    3.05    0.17
  -3   2   2    3.25    0.14
   3  -2  -3    0.97    0.13
   3  -2  -3    1.01    0.14
   3   2   3    0.91    0.16
  -3  -2   3    1.04    0.09
   3   2   3    1.08    0.09
  -3  -2   3    0.94    0.13
   3   2  -3    0.62    0.11
   3  -2   3    0.66    0.10
  -3  -2  -3    0.58    0.11
  -3   2   3    0.63    0.09
   3  -2   3    0.61    0.10
   3   2  -3    0.59    0.13
  -3  -2  -3    0.65    0.08
   3  -2  -4    0.21    0.11
   3   2   4    0.28    0.16
  -3  -2   4    0.23    0.10
  -3   2  -4    0.29    0.08
   3   2   4    0.30    0.08
   3  -2  -4    0.18    0.10
  -3  -2   4    0.24    0.08
  -3   2   4    0.47    0.09
   3  -2   4    0.53    0.10
   3  -2   4    0.45    0.09
  -3  -2  -4    0.35    0.11
   3   2  -4    0.29    0.12
   3   2  -4    0.48    0.10
  -3  -2  -4    0.51    0.07
  -3  -2   5    4.23    0.22
  -3   2  -5    3.79    0.21
   3   2   5    4.07    0.21
   3  -2  -5    4.32    0.28
   3   2   5    3.73    0.34
   3  -2  -5    3.52    0.26
  -3  -2   5    4.11    0.26
  -3  -2  -5    3.48    0.24
  -3   2   5    3.16    0.20
   3   2  -5    3.12    0.27
   3  -2   5    3.17    0.22
  -3  -2   6    5.76    0.27
  -3  -2   6    5.15    0.33
   3   2   6    5.53    0.28
   3  -2  -6    5.67    0.33
   3   2   6    5.54    0.40
  -3   2  -6    5.43    0.27
   3  -2  -6    5.48    0.33
  -3   2   6    5.38    0.27
   3  -2   6    5.26    0.29
  -3  -2  -6    5.41    0.30
   3   2  -6    5.35    0.34
   3   2   7    6.17    0.32
  -3  -2   7    5.61    0.34
  -3   2  -7    5.32    0.32
  -3  -2   7    5.98    0.30
  -3   2  -7    5.53    0.30
   3  -2  -7    5.59    0.37
   3  -2  -7    5.38    0.35
   3   2   7    5.11    0.40
  -3   2   7    5.42    0.29
  -3  -2  -7    5.66    0.32
   3   2  -7    5.39    0.36
   3  -2   7    5.31    0.30
  -3  -2   8    3.18    0.26
  -3   2  -8    2.55    0.25
  -3   2  -8    2.94    0.26
   3   2   8    3.41    0.34
   3  -2  -8    3.01    0.27
  -3  -2   8    3.47    0.25
   3   2   8    2.84    0.27
   3  -2  -8    3.10    0.34
  -3  -2  -8    3.98    0.29
  -3   2   8    4.09    0.27
   3  -2   8    3.66    0.28
   3   2  -8    3.92    0.33
  -3  -2   9    3.87    0.28
  -3  -2   9    4.03    0.28
  -3   2  -9    3.43    0.31
   3  -2  -9    3.21    0.35
  -3   2  -9    3.29    0.28
   3   2   9    3.31    0.36
   3  -2  -9    3.80    0.30
   3   2   9    3.43    0.31
   3   2  -9    2.54    0.30
   3  -2   9    2.90    0.27
  -3  -2  -9    2.89    0.29
  -3   2   9    2.61    0.26
   3   2  10    4.04    0.35
  -3  -2  10    4.27    0.32
  -3  -2  10    4.46    0.31
  -3   2 -10    3.93    0.34
   3  -2 -10    3.25    0.38
   3   2  10    4.12    0.42
  -3   2 -10    4.18    0.32
   3   2 -10    3.85    0.39
  -3   2  10    4.28    0.32
  -3  -2 -10    4.08    0.34
   3  -2  10    4.21    0.34
  -3   2  10    4.07    0.33
  -3   2 -11    4.87    0.38
   3  -2 -11    4.05    0.46
   3   2  11    5.30    0.49
  -3  -2  11    5.27    0.35
   3   2  11    5.41    0.41
   3  -2  11    4.30    0.38
  -3  -2 -11    4.95    0.39
  -3   2  11    4.77    0.36
   3   2 -11    3.83    0.43
  -3  -2  12    4.76    0.36
  -3   2 -12    4.10    0.37
   3  -2 -12    4.02    0.45
   3   2  12    5.12    0.50
   3   2  12    4.97    0.42
   3   2 -12    4.04    0.45
  -3  -2 -12    4.40    0.41
  -3   2  12    4.53    0.37
   3  -2  12    4.92    0.41
  -3  -2  13    2.91    0.31
   3   3   0   48.85    1.50
   3  -3   0   51.09    1.56
   3  -3   0   49.65    1.69
   3  -3   0   50.03    1.39
  -3   3   0   49.15    1.40
   3   3   0   49.88    1.62
  -3  -3   0   47.90    1.66
   3  -3  -1   90.30    2.85
   3   3   1   90.07    2.72
   3  -3  -1   92.57    2.66
  -3   3  -1   86.23    2.39
  -3  -3   1   86.92    2.82
   3   3   1   93.21    2.27
   3   3   1   88.47    2.50
  -3   3   1   81.34    2.32
   3  -3   1   85.21    2.65
  -3   3   1   81.36    2.36
   3   3  -1   81.70    2.70
  -3  -3  -1   80.91    2.79
   3  -3   1   84.71    2.33
   3   3  -1   81.88    2.46
   3  -3   1   83.20    2.83
   3   3   2  107.76    3.26
  -3   3  -2  114.44    3.48
  -3  -3   2  112.30    3.72
   3  -3  -2  118.86    3.52
   3   3   2  117.81    3.01
   3  -3  -2  113.95    3.74
  -3   3  -2  107.98    3.16
  -3   3   2  110.41    3.05
   3  -3   2  114.02    3.08
   3  -3   2  116.84    3.72
  -3   3   2  117.63    3.11
  -3  -3  -2  115.73    3.68
   3   3  -2  115.21    3.57
   3   3  -2  115.72    3.22
  -3   3  -3  126.02    3.81
  -3  -3   3  119.14    4.07
  -3   3  -3  118.79    3.47
   3   3   3  122.05    3.59
   3  -3  -3  123.69    4.10
   3  -3  -3  119.78    3.85
   3   3   3  122.79    3.31
  -3   3   3  123.34    3.35
   3  -3   3  128.98    3.37
  -3  -3  -3  125.51    3.87
   3   3  -3  132.53    3.50
   3  -3   3  131.59    4.06
  -3  -3  -3  131.06    4.02
   3   3  -3  127.42    3.90
   3  -3  -4  123.51    4.10
  -3   3  -4  120.94    3.48
   3   3   4  127.47    3.33
   3  -3  -4  127.13    3.87
  -3   3  -4  127.33    3.82
  -3  -3   4  124.14    4.08
   3   3   4  124.18    3.61
  -3  -3   4  124.04    3.32
   3  -3   4  124.62    3.38
  -3  -3  -4  125.50    3.87
   3  -3   4  129.31    4.05
   3   3  -4  128.26    3.48
  -3  -3  -4  124.37    4.00
   3   3  -4  123.94    3.90
  -3   3   4  120.82    3.35
   3   3   5   65.64    2.04
  -3  -3   5   66.53    2.23
   3  -3  -5   66.51    2.25
   3   3   5   68.65    1.82
  -3   3  -5   67.84    2.06
  -3   3  -5   64.93    1.92
  -3  -3   5   66.29    1.81
   3  -3  -5   70.62    2.12
   3   3  -5   63.38    2.14
  -3   3   5   63.69    1.83
  -3  -3  -5   65.23    2.11
   3  -3   5   62.64    1.85
   3   3   6   57.49    1.56
   3  -3  -6   57.75    1.82
  -3  -3   6   55.65    1.54
  -3   3  -6   53.98    1.73
   3   3   6   53.36    1.76
  -3  -3   6   53.86    1.88
   3  -3  -6   53.45    1.90
  -3   3  -6   53.27    1.63
   3   3  -6   54.78    1.82
  -3  -3  -6   53.93    1.78
  -3   3   6   54.28    1.55
   3  -3   6   55.10    1.59
   3   3   7   47.76    1.39
   3   3   7   45.15    1.58
   3  -3  -7   46.03    1.66
  -3  -3   7   49.43    1.36
   3  -3  -7   48.14    1.62
  -3  -3   7   45.62    1.64
  -3   3  -7   46.60    1.44
  -3   3   7   46.51    1.38
   3  -3   7   47.86    1.41
   3   3  -7   47.17    1.61
  -3  -3  -7   46.97    1.56
   3  -3  -8   38.19    1.37
  -3  -3   8   38.20    1.35
   3   3   8   38.27    1.35
   3  -3  -8   36.66    1.35
  -3  -3   8   39.17    1.13
   3   3   8   37.08    1.16
  -3   3  -8   37.44    1.20
   3  -3   8   37.38    1.18
   3   3  -8   35.56    1.33
  -3  -3  -8   35.48    1.28
  -3   3   8   35.64    1.13
   3   3   9   39.28    1.27
  -3   3  -9   41.83    1.29
   3  -3  -9   42.58    1.49
  -3  -3   9   42.53    1.46
   3  -3  -9   36.48    1.47
   3   3   9   38.67    1.44
  -3   3   9   40.66    1.25
  -3  -3  -9   39.56    1.39
   3  -3   9   40.60    1.28
   3   3  -9   40.28    1.46
  -3   3 -10   31.91    1.09
   3  -3 -10   33.99    1.25
   3   3  10   29.82    1.09
   3   3  10   31.88    1.27
  -3  -3  10   31.35    1.21
  -3   3  10   33.07    1.08
   3  -3  10   33.58    1.11
   3   3 -10   34.25    1.26
  -3  -3 -10   33.24    1.19
   3   3  11   27.16    1.14
  -3   3 -11   28.31    0.97
   3  -3 -11   23.67    1.13
   3   3  11   28.01    1.00
   3  -3  11   27.82    1.00
  -3   3  11   27.35    0.96
   3   3 -11   26.48    1.11
   3  -3 -12   23.31    1.10
   3   3  12   24.61    1.09
   3   3  12   24.69    0.95
  -3   3 -12   26.13    0.92
  -3   3  12   23.21    0.90
   3   3 -12   22.90    1.04
   3  -4   0    0.45    0.12
   3  -4   0    0.39    0.09
  -3  -4   0    0.52    0.10
  -3   4   0    0.53    0.08
   3  -4   0    0.42    0.08
   3   4   0    0.48    0.14
   3   4   0    0.48    0.12
   3   4   1    3.05    0.24
   3  -4  -1    3.06    0.18
  -3  -4   1    3.18    0.21
  -3   4  -1    3.33    0.20
   3   4   1    3.21    0.27
   3  -4  -1    3.10    0.24
   3   4  -1    2.50    0.23
   3  -4   1    2.65    0.19
  -3  -4  -1    2.63    0.18
   3   4  -1    2.58    0.23
  -3   4   1    2.79    0.16
  -3   4   1    2.56    0.17
   3  -4   1    2.52    0.22
   3   4   2    0.62    0.15
  -3   4  -2    0.67    0.11
   3  -4  -2    0.46    0.12
   3  -4  -2    0.72    0.11
  -3  -4   2    0.67    0.13
  -3   4   2    0.71    0.08
  -3   4   2    0.78    0.11
   3   4  -2    0.54    0.13
  -3  -4  -2    0.74    0.10
   3  -4   2    0.69    0.13
   3   4  -2    0.71    0.14
   3  -4   2    0.52    0.11
  -3  -4  -2    0.45    0.12
   3  -4  -3    2.25    0.23
  -3  -4   3    2.02    0.19
   3  -4  -3    1.98    0.17
   3   4   3    2.11    0.23
  -3   4  -3    2.16    0.19
  -3  -4  -3    2.23    0.20
   3   4  -3    1.79    0.17
   3   4  -3    1.69    0.19
  -3   4   3    1.92    0.16
  -3  -4  -3    2.10    0.15
   3  -4   3    1.99    0.19
   3  -4   3    2.15    0.18
   3  -4  -4    7.17    0.36
   3   4   4    7.25    0.43
  -3   4  -4    7.16    0.34
  -3  -4   4    6.93    0.37
   3  -4  -4    6.91    0.40
   3   4  -4    7.74    0.40
  -3  -4  -4    8.25    0.38
   3  -4   4    8.78    0.39
  -3   4   4    7.80    0.32
   3  -4   4    8.50    0.35
  -3  -4  -4    8.46    0.32
   3   4  -4    8.68    0.37
   3  -4  -5    6.80    0.38
  -3   4  -5    6.39    0.33
  -3  -4   5    7.10    0.36
   3  -4  -5    7.06    0.35
   3   4   5    6.91    0.42
  -3   4   5    5.72    0.28
  -3  -4  -5    6.04    0.33
   3   4  -5    6.02    0.37
   3  -4   5    5.71    0.30
   3   4  -5    6.54    0.32
   3  -4  -6    0.92    0.17
   3  -4  -6    0.54    0.16
  -3  -4   6    0.62    0.15
  -3   4  -6    0.71    0.17
   3   4   6    0.55    0.21
   3   4  -6    0.57    0.17
  -3  -4  -6    0.17    0.13
   3  -4   6    0.34    0.13
  -3   4   6    0.42    0.12
   3  -4  -7    2.21    0.25
   3  -4  -7    2.06    0.23
   3   4   7    2.50    0.30
  -3   4  -7    2.01    0.21
  -3  -4   7    2.11    0.22
  -3  -4  -7    1.62    0.20
   3   4  -7    1.84    0.24
  -3   4   7    1.95    0.19
   3  -4   7    1.97    0.21
  -3  -4   8    2.34    0.23
   3  -4  -8    2.51    0.29
   3  -4  -8    2.01    0.25
  -3   4  -8    1.77    0.24
   3   4   8    2.22    0.31
   3  -4   8    2.89    0.27
   3   4  -8    2.90    0.31
  -3   4   8    2.84    0.24
  -3  -4  -8    2.92    0.27
   3   4   9    4.78    0.45
   3  -4  -9    3.46    0.39
  -3   4  -9    5.33    0.36
   3  -4  -9    5.01    0.37
  -3  -4   9    5.13    0.33
   3   4  -9    4.41    0.38
   3  -4   9    4.75    0.34
  -3   4   9    4.50    0.33
  -3  -4  -9    4.59    0.35
  -3   4 -10    5.85    0.39
   3  -4 -10    5.77    0.41
   3   4  10    6.52    0.52
  -3  -4  10    6.21    0.38
  -3  -4 -10    5.81    0.41
  -3   4  10    5.77    0.39
   3  -4  10    6.02    0.41
   3   4 -10    5.11    0.44
   3  -4 -11    2.02    0.38
   3   4  11    2.81    0.40
  -3   4 -11    3.23    0.32
  -3  -4 -11    2.76    0.33
   3  -4  11    3.14    0.33
  -3   4  11    3.01    0.32
   3   4 -11    2.85    0.36
   3   4  12    3.61    0.45
   3   5   0   80.53    2.58
  -3  -5   0   82.64    2.66
   3  -5   0   80.21    2.71
  -3   5   0   80.26    2.25
   3   5   0   80.36    2.38
   3   5   1   84.89    2.52
  -3  -5   1   84.57    2.81
   3   5   1   87.29    2.73
  -3   5  -1   84.54    2.39
   3  -5  -1   90.48    2.87
  -3   5   1   85.13    2.34
   3   5  -1   84.23    2.48
   3   5  -1   82.95    2.72
  -3  -5  -1   84.18    2.79
  -3   5   1   85.68    2.37
   3  -5   1   86.27    2.85
  -3   5  -2   74.14    2.12
   3   5   2   73.55    2.25
  -3  -5   2   74.24    2.49
   3  -5  -2   73.37    2.53
  -3   5   2   78.79    2.09
   3   5  -2   74.46    2.41
  -3   5   2   73.08    2.06
   3   5  -2   75.97    2.20
   3  -5   2   78.48    2.53
  -3  -5  -2   76.86    2.46
  -3  -5  -2   72.75    2.38
   3  -5   2   75.15    2.09
   3  -5  -3   74.77    2.41
  -3  -5   3   72.68    2.56
   3   5   3   73.74    2.32
  -3   5  -3   73.41    2.19
  -3  -5  -3   77.84    2.45
   3  -5   3   80.26    2.16
   3   5  -3   78.94    2.25
  -3   5   3   77.49    2.13
  -3  -5  -3   80.19    2.52
   3  -5   3   82.12    2.60
   3   5  -3   78.47    2.49
  -3   5  -4   84.07    2.32
   3   5   4   82.84    2.46
   3  -5  -4   86.05    2.55
  -3  -5   4   82.71    2.70
   3  -5  -4   81.04    2.74
   3  -5   4   80.55    2.71
  -3   5   4   77.27    2.23
   3  -5   4   77.55    2.25
  -3  -5  -4   78.54    2.63
   3   5  -4   82.10    2.35
   3   5  -4   78.77    2.60
  -3  -5  -4   81.61    2.57
  -3   5  -5   77.21    2.18
   3  -5  -5   75.46    2.57
   3   5   5   75.66    2.33
  -3  -5   5   75.75    2.53
   3  -5  -5   81.15    2.41
  -3  -5  -5   72.61    2.40
   3   5  -5   77.87    2.21
   3  -5   5   72.61    2.12
  -3   5   5   72.96    2.09
   3   5  -5   73.03    2.44
  -3   5  -6   54.11    1.65
   3   5   6   53.18    1.80
  -3  -5   6   51.27    1.89
   3  -5  -6   58.38    1.83
   3  -5  -6   53.36    1.93
   3  -5   6   55.64    1.62
  -3  -5  -6   55.66    1.81
  -3   5   6   55.89    1.58
   3   5  -6   58.38    1.86
   3  -5  -7   39.24    1.37
  -3   5  -7   37.77    1.22
   3   5   7   39.40    1.38
  -3  -5   7   37.26    1.37
   3  -5  -7   36.67    1.41
   3  -5   7   38.83    1.20
  -3  -5  -7   38.71    1.32
  -3   5   7   36.83    1.16
   3   5  -7   39.70    1.37
   3  -5  -8   33.24    1.23
   3  -5  -8   28.48    1.18
  -3   5  -8   33.10    1.06
   3   5   8   31.89    1.23
  -3  -5   8   32.81    1.19
   3  -5   8   30.67    1.04
   3   5  -8   31.62    1.19
  -3  -5  -8   32.61    1.14
  -3   5   8   30.97    1.01
  -3  -5   9   36.65    1.31
  -3   5  -9   35.94    1.17
   3  -5  -9   36.83    1.35
   3   5   9   35.42    1.35
   3  -5   9   34.70    1.16
  -3   5   9   34.33    1.12
   3   5  -9   33.52    1.31
  -3  -5  -9   34.54    1.26
  -3  -5  10   32.33    1.19
  -3   5 -10   29.73    1.06
   3   5  10   31.35    1.26
  -3   5  10   31.62    1.06
   3  -5  10   32.07    1.09
   3   5 -10   30.52    1.22
   3   5  11   24.43    1.10
  -3   5 -11   23.81    0.90
  -3  -5 -11   24.65    1.00
   3  -5  11   24.87    0.94
   3   5 -11   24.43    1.05
  -3   5  11   24.76    0.91
   3   5  12   17.16    0.91
   3   6   0   -0.01    0.13
   3   6   0    0.05    0.13
  -3   6   0    0.01    0.08
  -3  -6   0   -0.02    0.08
   3  -6   0   -0.11    0.12
  -3   6  -1    1.40    0.14
   3   6   1    1.27    0.21
  -3  -6   1    1.59    0.17
   3  -6  -1    1.34    0.18
  -3   6   1    1.55    0.16
   3   6  -1    1.44    0.19
  -3  -6  -1    1.55    0.17
   3  -6   1    1.54    0.16
  -3   6   1    1.40    0.13
   3  -6   1    1.28    0.19
   3   6  -1    1.50    0.19
   3   6   2    0.59    0.18
  -3  -6   2    0.76    0.13
  -3   6  -2    0.66    0.12
   3  -6  -2    0.51    0.16
   3   6  -2    0.70    0.16
  -3  -6  -2    0.40    0.14
   3  -6   2    0.48    0.14
   3   6  -2    0.59    0.16
   3  -6   2    0.66    0.13
  -3   6   2    0.49    0.12
  -3  -6  -2    0.49    0.11
   3  -6  -3    1.65    0.20
   3   6   3    1.39    0.23
  -3  -6   3    1.47    0.17
  -3   6  -3    1.58    0.17
   3   6  -3    1.29    0.18
  -3  -6  -3    1.37    0.18
  -3  -6  -3    1.36    0.15
  -3   6   3    1.21    0.14
   3   6  -3    1.24    0.19
   3  -6   3    1.29    0.19
   3  -6   3    1.35    0.16
  -3   6  -4    0.38    0.14
  -3  -6   4    0.43    0.13
   3  -6  -4    0.50    0.17
   3   6   4    0.47    0.19
   3  -6   4    0.76    0.16
   3   6  -4    0.98    0.17
   3  -6   4    0.95    0.16
  -3   6   4    1.00    0.14
   3   6  -4    0.98    0.18
  -3  -6  -4    0.94    0.12
  -3  -6  -4    1.07    0.17
   3  -6  -5    1.68    0.22
  -3  -6   5    2.09    0.21
   3   6   5    1.98    0.27
  -3   6  -5    2.02    0.21
   3  -6   5    2.00    0.23
   3  -6   5    1.65    0.19
   3   6  -5    1.90    0.22
  -3  -6  -5    1.50    0.19
  -3   6   5    1.44    0.17
   3   6  -5    1.72    0.23
  -3  -6   6    5.24    0.33
  -3   6  -6    4.93    0.31
   3  -6  -6    5.26    0.36
   3   6   6    4.86    0.43
   3   6  -6    5.32    0.37
  -3   6   6    5.07    0.29
  -3  -6  -6    5.25    0.33
   3  -6   6    5.35    0.32
  -3   6  -7    3.52    0.28
   3  -6  -7    3.53    0.31
   3   6   7    3.47    0.38
  -3  -6   7    3.16    0.28
   3   6  -7    2.76    0.31
  -3   6   7    3.40    0.25
   3  -6   7    3.05    0.27
  -3  -6  -7    2.94    0.28
   3  -6  -8    3.14    0.34
  -3   6  -8    2.67    0.26
  -3  -6   8    2.69    0.26
   3   6   8    3.35    0.38
   3  -6  -8    2.89    0.31
   3   6  -8    2.83    0.31
   3  -6   8    2.80    0.27
  -3   6   8    2.91    0.26
  -3  -6  -8    3.06    0.30
  -3   6  -9    3.52    0.33
  -3  -6   9    3.00    0.29
   3   6   9    2.75    0.39
   3  -6  -9    3.37    0.35
  -3  -6  -9    2.55    0.29
   3  -6   9    2.57    0.28
  -3   6   9    2.58    0.27
   3   6  -9    2.33    0.32
  -3  -6  10    1.88    0.24
  -3   6 -10    1.85    0.26
   3   6  10    2.17    0.37
  -3   6  10    1.69    0.26
   3  -6  10    1.76    0.27
  -3  -6 -10    1.62    0.28
   3   6 -10    1.57    0.30
   3  -6 -11    1.41    0.37
   3   6  11    3.29    0.44
   3   6 -11    3.08    0.37
   3   7   0   88.96    2.89
  -3   7   0   90.96    2.53
   3   7   0   87.24    2.66
   3  -7   0   93.48    3.05
  -3   7   0   87.87    2.48
  -3  -7   0   91.85    2.97
   3  -7  -1   75.52    2.61
   3   7   1   74.38    2.31
  -3   7  -1   77.89    2.17
  -3  -7   1   77.28    2.54
  -3  -7  -1   76.97    2.53
  -3  -7  -1   76.28    2.44
   3   7  -1   76.35    2.48
   3  -7   1   78.08    2.62
   3   7  -1   72.41    2.27
  -3   7   1   79.12    2.16
  -3   7   1   76.71    2.13
   3  -7   1   74.29    2.14
  -3   7  -2   71.16    2.04
  -3  -7   2   70.15    2.38
   3  -7  -2   69.44    2.44
   3   7   2   70.71    2.20
   3  -7   2   74.48    2.46
  -3   7   2   70.47    1.99
   3   7  -2   70.47    2.13
  -3  -7  -2   71.58    2.36
   3  -7   2   69.17    2.01
   3   7  -2   71.74    2.32
  -3  -7  -2   72.30    2.28
   3  -7  -3   54.12    1.96
   3   7   3   54.13    1.79
  -3  -7   3   54.66    1.91
  -3   7  -3   56.64    1.64
   3  -7   3   54.28    1.97
  -3   7   3   53.67    1.59
   3   7  -3   57.90    1.87
  -3  -7  -3   58.45    1.87
  -3  -7  -3   56.62    1.83
   3   7  -3   56.13    1.72
   3   7   4   29.55    1.12
   3  -7  -4   29.47    1.16
  -3   7  -4   31.38    0.97
  -3  -7   4   29.78    1.10
   3  -7   4   29.17    0.96
  -3  -7  -4   29.89    1.06
   3   7  -4   31.23    1.04
  -3   7   4   29.05    0.93
   3  -7   4   28.80    1.16
  -3  -7  -4   30.05    1.05
   3   7  -4   30.44    1.10
  -3  -7   5   44.80    1.54
   3   7   5   43.39    1.51
   3  -7  -5   44.14    1.59
  -3   7  -5   44.35    1.34
  -3   7   5   43.59    1.29
   3   7  -5   44.03    1.51
  -3  -7  -5   43.13    1.47
   3   7  -5   45.95    1.42
   3  -7   5   36.26    1.56
   3  -7   5   44.11    1.33
   3  -7  -6   47.41    1.75
  -3  -7   6   47.78    1.70
  -3   7  -6   47.32    1.48
   3   7   6   49.43    1.68
  -3   7   6   47.24    1.43
   3  -7   6   47.70    1.46
  -3  -7  -6   48.84    1.63
   3   7  -6   49.68    1.67
   3   7  -6   49.64    1.55
   3   7   7   54.47    1.84
  -3  -7   7   53.10    1.87
   3  -7  -7   54.51    1.93
  -3   7  -7   52.52    1.63
  -3   7   7   53.45    1.58
   3   7  -7   52.48    1.83
  -3  -7  -7   53.39    1.79
   3  -7   7   52.72    1.61
  -3  -7   8   46.94    1.68
   3  -7  -8   48.82    1.75
   3   7   8   48.75    1.69
  -3   7  -8   45.79    1.48
   3  -7   8   46.15    1.47
  -3  -7  -8   47.43    1.62
   3   7  -8   46.36    1.66
  -3   7   8   45.80    1.43
  -3  -7   9   23.54    0.98
   3  -7  -9   25.42    1.06
   3   7   9   26.24    1.12
  -3   7  -9   24.82    0.91
   3   7  -9   24.19    1.02
   3  -7   9   24.81    0.91
  -3   7   9   24.78    0.88
  -3  -7  -9   26.20    0.99
  -3  -7  10   17.52    0.76
   3   7  10   17.07    0.91
  -3   8   0    0.47    0.14
  -3   8   0    0.35    0.13
  -3  -8   0    0.45    0.13
   3   8   0    0.33    0.18
   3  -8   0    0.45    0.17
   3  -8  -1    0.24    0.17
   3   8   1    0.44    0.19
  -3   8  -1    0.52    0.14
  -3  -8   1    0.46    0.14
  -3   8   1    0.35    0.13
  -3   8   1    0.38    0.12
   3  -8   1    0.37    0.18
  -3  -8  -1    0.42    0.14
   3   8  -1    0.22    0.17
  -3  -8  -1    0.12    0.14
   3   8  -1    0.54    0.17
  -3   8  -2    0.24    0.14
   3   8   2    0.01    0.18
   3  -8  -2    0.46    0.17
  -3  -8   2    0.23    0.13
   3  -8   2    0.23    0.13
   3  -8   2    0.28    0.18
  -3   8   2    0.39    0.13
   3   8  -2    0.26    0.17
   3   8  -2    0.31    0.17
  -3  -8  -2    0.41    0.13
  -3  -8  -2    0.25    0.15
   3   8   3    0.82    0.23
  -3  -8   3    1.02    0.17
   3  -8  -3    0.78    0.21
  -3   8  -3    1.20    0.19
  -3  -8  -3    1.21    0.16
   3  -8   3    1.27    0.18
  -3   8   3    1.02    0.16
   3  -8   3    0.96    0.20
   3   8  -3    1.30    0.22
  -3  -8  -3    1.09    0.18
   3   8  -3    0.98    0.20
  -3  -8   4    1.41    0.19
   3   8   4    1.28    0.27
   3  -8  -4    1.39    0.22
  -3   8  -4    1.46    0.19
  -3   8   4    1.00    0.16
  -3  -8  -4    1.12    0.19
   3  -8   4    0.84    0.21
   3  -8   4    1.07    0.18
   3   8  -4    0.92    0.21
   3   8  -4    1.28    0.23
   3  -8  -5    0.67    0.22
  -3  -8   5    0.85    0.19
  -3   8  -5    0.80    0.20
   3   8   5    0.76    0.24
   3   8  -5    0.67    0.20
   3   8  -5    0.79    0.21
   3  -8   5    0.47    0.18
   3  -8   5    0.66    0.16
  -3   8   5    0.48    0.15
  -3  -8  -5    0.80    0.19
   3  -8  -6    1.84    0.26
   3   8   6    2.04    0.33
  -3   8  -6    2.22    0.24
  -3  -8   6    2.01    0.23
   3   8  -6    2.29    0.28
   3   8  -6    2.13    0.27
   3  -8   6    1.66    0.22
  -3   8   6    2.02    0.22
  -3  -8  -6    2.17    0.25
   3   8   7    2.43    0.37
  -3   8  -7    2.42    0.28
   3  -8  -7    2.55    0.30
  -3  -8   7    2.39    0.26
  -3   8   7    2.58    0.25
   3  -8   7    2.34    0.25
  -3  -8  -7    2.67    0.28
   3   8   8    2.76    0.40
  -3  -8   8    3.21    0.31
  -3   8  -8    3.25    0.32
   3  -8  -8    3.59    0.38
  -3   8   8    3.44    0.30
  -3  -8  -8    3.16    0.34
   3  -8   8    3.43    0.31
   3   8   9    2.65    0.41
  -3  -8   9    2.61    0.28
   3  -8  -9    2.63    0.32
  -3  -8  -9    2.13    0.30
   3  -8   9    2.80    0.30
  -3   9   0   57.12    1.65
  -3  -9   0   55.24    1.94
   3  -9   0   57.13    2.04
  -3   9   0   58.52    1.68
   3   9   0   53.73    1.81
  -3  -9   0   56.99    1.87
  -3   9  -1   57.81    1.71
  -3   9  -1   57.17    1.67
  -3  -9   1   56.50    1.97
   3   9   1   52.61    1.84
   3  -9   1   59.23    2.09
  -3  -9  -1   58.20    1.90
  -3  -9  -1   59.96    1.97
   3   9  -1   60.17    1.95
   3   9  -1   53.45    1.81
  -3   9   1   58.07    1.67
  -3  -9   2   43.57    1.57
   3   9   2   43.23    1.52
   3  -9  -2   40.90    1.63
  -3   9  -2   45.85    1.37
  -3   9   2   42.85    1.32
   3  -9   2   44.66    1.35
   3   9  -2   43.98    1.47
  -3  -9  -2   45.79    1.55
   3   9  -2   44.46    1.55
   3  -9   2   46.78    1.69
  -3  -9  -2   44.84    1.50
  -3  -9   3   41.64    1.45
   3  -9  -3   39.98    1.51
   3   9   3   39.83    1.43
  -3   9  -3   40.97    1.26
  -3   9   3   39.57    1.22
  -3  -9  -3   39.80    1.38
   3   9  -3   40.30    1.37
   3  -9   3   39.13    1.24
  -3  -9  -3   40.17    1.41
   3  -9   3   39.23    1.55
  -3  -9   4   45.98    1.64
   3   9   4   46.81    1.61
   3  -9  -4   44.33    1.69
  -3   9  -4   47.92    1.43
  -3  -9  -4   47.27    1.56
  -3   9   4   48.37    1.39
   3  -9   4   39.11    1.70
   3   9  -4   47.71    1.55
   3  -9  -5   42.47    1.66
  -3  -9   5   43.19    1.61
  -3   9  -5   44.66    1.41
   3   9   5   44.05    1.59
   3   9  -5   46.70    1.53
   3  -9   5   45.87    1.39
  -3  -9  -5   46.14    1.54
  -3   9   5   45.39    1.36
   3   9   6   38.29    1.42
   3  -9  -6   36.29    1.44
  -3   9  -6   38.36    1.22
  -3  -9   6   37.54    1.38
  -3  -9  -6   36.45    1.31
   3   9  -6   38.30    1.33
  -3   9   6   36.03    1.16
   3  -9   6   34.13    1.18
  -3  -9   7   28.82    1.12
  -3   9  -7   30.51    1.03
  -3  -9  -7   28.67    1.08
   3  -9   7   26.89    0.99
  -3   9   7   28.47    0.96
   3   9   8   23.10    1.05
  -3  -9   8   19.68    0.88
   3  -9  -8   22.03    0.98
  -3  -9  -8   21.51    0.89
  -3 -10   0    0.95    0.19
  -3  10   0    1.06    0.21
   3 -10   0    0.61    0.21
  -3  10   0    0.61    0.17
   3  10   0    0.69    0.24
  -3  10  -1   -0.09    0.15
  -3  10  -1    0.18    0.15
   3  10   1   -0.19    0.19
   3 -10  -1    0.15    0.19
  -3 -10   1    0.03    0.14
  -3  10   1   -0.06    0.13
   3 -10   1   -0.11    0.17
   3  10  -1   -0.12    0.18
  -3 -10  -1   -0.03    0.13
   3  10   2    0.72    0.25
  -3  10  -2    1.02    0.20
   3 -10  -2    0.68    0.21
  -3 -10   2    0.97    0.19
  -3 -10  -2    0.87    0.17
  -3  10   2    0.90    0.17
   3 -10   2    1.03    0.24
   3  10  -2    0.90    0.24
   3 -10  -3    0.32    0.20
  -3  10  -3    0.75    0.21
   3  10   3    0.76    0.27
  -3 -10   3    0.67    0.18
  -3  10   3    0.62    0.16
  -3 -10  -3    0.49    0.16
   3 -10   3    0.34    0.17
  -3 -10  -3    0.53    0.19
   3 -10   3    0.58    0.22
   3  10  -3    0.45    0.23
   3  10   4    2.27    0.35
   3 -10  -4    1.96    0.28
  -3 -10   4    2.44    0.27
  -3  10  -4    2.32    0.26
   3  10  -4    1.86    0.30
  -3  10   4    1.92    0.22
  -3 -10  -4    1.85    0.24
   3 -10   4    2.16    0.24
   3 -10   4    2.04    0.31
   3 -10  -5    1.02    0.25
  -3 -10   5    0.84    0.22
  -3  10  -5    1.29    0.25
   3  10   5    0.99    0.31
  -3  10   5    1.60    0.21
  -3 -10  -5    1.27    0.23
   3  10  -5    1.75    0.30
   3 -10   5    1.30    0.22
   3  10   6    0.45    0.29
   3 -10  -6    0.75    0.25
  -3 -10   6    0.50    0.19
  -3  10  -6    0.34    0.22
   3 -10   6    0.45    0.18
  -3 -10  -6    0.46    0.21
  -3  10   6    0.78    0.19
   3  10  -6    0.58    0.27
  -3 -10  -7    1.28    0.27
   3 -11   0   19.99    0.96
  -3 -11   0   22.39    0.89
  -3  11   0   21.76    0.77
   3  11   0   21.14    0.92
  -3  11  -1   30.98    1.06
  -3 -11   1   30.43    1.19
   3  11   1   27.19    1.18
  -3  11  -1   30.99    1.03
   3 -11  -1   27.88    1.26
  -3  11   1   33.65    1.03
   3  11  -1   30.18    1.19
   3 -11   1   33.42    1.32
  -3 -11  -1   34.32    1.20
   3 -11  -2   41.55    1.66
  -3 -11   2   44.14    1.59
   3  11   2   41.40    1.57
  -3  11  -2   45.02    1.40
  -3  11  -2   44.53    1.35
   3 -11   2   43.16    1.72
   3  11  -2   41.48    1.52
  -3 -11  -2   45.36    1.58
  -3  11   2   43.76    1.35
   3  11   3   46.29    1.72
  -3 -11   3   47.71    1.75
  -3  11  -3   48.31    1.54
  -3  11   3   47.25    1.47
   3 -11   3   48.19    1.89
   3  11  -3   47.79    1.67
  -3 -11  -3   52.90    1.74
  -3  11  -4   40.75    1.36
   3 -11   4   43.08    1.34
  -3  11   4   44.82    1.32
   3  11  -4   43.44    1.51
   3 -11   4   36.20    1.64
   3  11  -5   30.15    1.20
  -3  12   0    2.06    0.25
  -3  12  -1    0.15    0.21
  -3  12  -1    0.00    0.16
  -3  12   1    0.01    0.15
   4   0   0  276.31    7.63
   4   0   0  278.60    8.45
  -4   0   0  275.77    7.26
   4   0   1  202.18    5.76
   4   0  -1  208.00    5.71
   4   0   1  207.46    5.44
   4   0  -1  205.53    6.32
   4   0   1  205.62    6.32
   4   0  -1  207.74    6.66
  -4   0   1  205.38    5.42
   4   0   2  142.58    3.72
   4   0  -2  143.35    3.90
   4   0   2  137.07    4.33
  -4   0   2  138.03    3.70
   4   0  -2  137.14    4.33
   4   0  -2  137.49    4.57
  -4   0  -2  141.42    4.52
   4   0   2  138.69    4.00
  -4   0  -3  111.98    3.57
   4   0  -3  111.13    3.45
   4   0   3  110.90    2.95
  -4   0   3  108.32    2.93
  -4   0  -3  108.98    3.40
   4   0   3  106.46    3.22
  -4   0   4   95.01    3.24
  -4   0   4   97.12    2.62
   4   0   4   97.56    2.91
   4   0   4   97.31    2.64
  -4   0  -4   96.85    3.03
   4   0  -4   98.54    3.08
   4   0   5  136.64    3.67
  -4   0   5  137.99    4.50
   4   0   5  130.60    3.97
  -4   0  -5  139.82    4.22
  -4   0   5  138.43    3.65
   4   0  -5  134.29    4.27
   4   0   6  116.98    3.50
  -4   0   6  114.77    3.90
   4   0  -6  115.51    3.72
  -4   0  -6  118.92    3.65
   4   0   6  117.46    3.20
  -4   0   6  120.18    3.18
  -4   0   7   96.24    2.61
   4   0  -7   94.47    3.06
  -4   0  -7   95.16    2.98
   4   0   7   90.48    2.90
   4   0   7   96.75    2.64
  -4   0   7   94.13    3.20
  -4   0   8   80.09    2.25
   4   0  -8   79.94    2.65
   4   0   8   76.03    2.52
  -4   0  -8   80.74    2.55
   4   0   8   81.79    2.29
  -4   0   8   79.46    2.74
   4   0   9   54.56    1.93
  -4   0   9   58.07    1.68
  -4   0  -9   56.01    1.88
   4   0   9   58.71    1.73
   4   0  -9   55.72    1.99
  -4   0   9   57.68    2.03
   4   0  10   43.35    1.62
   4   0 -10   42.91    1.65
  -4   0  10   45.64    1.64
   4   0  10   44.72    1.43
  -4   0 -10   44.85    1.54
  -4   0  10   44.84    1.38
  -4   0  11   32.15    1.06
   4   0  11   32.09    1.12
   4   0 -11   28.93    1.27
  -4   0 -11   30.60    1.16
  -4   0  11   31.33    1.23
  -4   0  12   20.14    0.79
   4  -1   0    3.60    0.25
  -4   1   0    4.06    0.20
  -4  -1   0    3.50    0.25
   4  -1   0    3.41    0.27
   4  -1   0    3.55    0.30
  -4  -1   0    3.96    0.17
   4   1   0    3.63    0.30
   4   1   0    3.76    0.27
   4  -1  -1   -0.01    0.11
   4  -1  -1    0.00    0.10
  -4  -1   1   -0.08    0.10
   4   1   1    0.01    0.11
   4   1   1   -0.16    0.13
   4   1   1    0.13    0.07
   4  -1  -1    0.09    0.11
  -4  -1   1    0.03    0.06
   4   1  -1    0.15    0.12
   4  -1   1    0.07    0.08
   4   1  -1    0.08    0.13
  -4   1   1    0.05    0.07
   4  -1   1   -0.04    0.10
  -4  -1  -1    0.04    0.10
   4  -1   1    0.02    0.10
   4  -1   1    0.05    0.14
   4  -1  -2    0.17    0.12
  -4  -1   2   -0.08    0.12
   4  -1  -2    0.17    0.12
  -4  -1   2    0.18    0.07
   4   1   2    0.17    0.12
   4   1   2    0.03    0.15
   4   1   2    0.15    0.08
   4  -1   2    0.10    0.11
   4   1  -2    0.10    0.12
   4  -1   2    0.15    0.10
  -4  -1  -2    0.04    0.09
   4  -1   2    0.11    0.16
   4   1  -2    0.07    0.11
  -4   1   2    0.10    0.08
   4  -1   2    0.13    0.09
  -4   1  -3    0.44    0.11
   4   1   3    0.29    0.18
   4  -1  -3    0.43    0.14
  -4  -1   3    0.24    0.13
   4   1   3    0.27    0.09
  -4  -1   3    0.33    0.08
   4  -1  -3    0.29    0.14
  -4   1   3    0.17    0.09
   4  -1   3    0.36    0.10
   4   1  -3    0.18    0.13
  -4  -1  -3    0.22    0.09
  -4  -1  -3    0.32    0.12
   4  -1   3    0.11    0.15
   4  -1   3    0.18    0.10
  -4  -1   4    0.05    0.08
   4  -1  -4    0.02    0.13
  -4  -1   4    0.01    0.12
   4   1   4    0.06    0.16
  -4   1  -4    0.03    0.10
   4   1   4    0.03    0.08
   4  -1  -4   -0.08    0.12
  -4   1   4    0.03    0.09
   4  -1   4    0.04    0.09
   4   1  -4   -0.05    0.12
   4  -1   4    0.07    0.16
  -4  -1  -4    0.01    0.11
  -4  -1   5    0.00    0.13
   4   1   5    0.10    0.09
   4  -1  -5    0.09    0.14
  -4   1  -5    0.02    0.11
  -4  -1   5    0.05    0.10
   4   1   5    0.00    0.17
   4  -1  -5   -0.10    0.14
   4   1  -5    0.05    0.14
  -4   1   5    0.01    0.09
   4  -1   5    0.03    0.19
   4  -1   5    0.15    0.10
  -4  -1  -5    0.08    0.12
  -4  -1   6    0.17    0.13
   4   1   6    0.64    0.13
   4   1   6    0.12    0.19
   4  -1  -6    0.35    0.18
   4  -1  -6    0.46    0.18
  -4  -1   6    0.31    0.15
  -4   1  -6    0.57    0.14
   4  -1   6    0.40    0.13
   4   1  -6    0.38    0.18
   4  -1   6    0.23    0.22
  -4   1   6    0.43    0.13
  -4  -1  -6    0.68    0.16
  -4  -1   7    0.21    0.15
   4   1   7    0.30    0.21
  -4   1  -7    0.19    0.14
  -4  -1   7    0.16    0.14
   4   1   7    0.16    0.13
   4  -1  -7    0.12    0.17
  -4   1   7    0.18    0.13
  -4  -1  -7    0.20    0.15
   4  -1   7    0.24    0.23
   4  -1   7    0.13    0.13
   4   1  -7    0.15    0.18
   4   1   8    0.69    0.28
  -4  -1   8    0.57    0.17
   4  -1  -8    0.79    0.23
  -4  -1   8    0.62    0.18
   4   1   8    0.61    0.17
  -4   1  -8    0.31    0.17
  -4   1   8    0.99    0.19
  -4  -1  -8    0.75    0.19
  -4   1   8    0.78    0.20
   4  -1   8    0.89    0.27
   4  -1   8    0.80    0.18
   4   1  -8    1.11    0.24
  -4  -1   9    0.65    0.18
   4   1   9    0.37    0.27
  -4   1  -9    0.13    0.18
   4  -1  -9    0.81    0.24
  -4  -1   9    0.42    0.18
   4   1   9    0.64    0.19
  -4   1   9    0.10    0.18
  -4  -1  -9    0.34    0.19
   4  -1   9    0.34    0.18
  -4   1   9    0.26    0.17
   4   1  -9    0.15    0.21
   4  -1 -10    0.13    0.24
  -4  -1  10   -0.07    0.18
  -4   1 -10    0.02    0.19
   4   1  10   -0.26    0.17
   4   1  10   -0.25    0.26
  -4   1 -10   -0.06    0.23
  -4   1  10    0.16    0.19
   4   1 -10    0.06    0.23
  -4   1  10    0.20    0.19
  -4  -1 -10    0.07    0.20
   4  -1  10    0.11    0.19
  -4  -1  11   -0.18    0.18
   4  -1 -11    0.09    0.26
   4   1  11    0.03    0.25
  -4   1 -11    0.04    0.24
   4   1  11    0.03    0.21
  -4   1  11   -0.03    0.19
   4  -1  11   -0.09    0.20
  -4  -1 -11    0.08    0.22
  -4   1  11    0.35    0.21
   4   1 -11   -0.05    0.24
   4   1  12   -0.01    0.23
   4   2   0  133.31    4.20
   4  -2   0  137.34    4.41
   4  -2   0  137.88    4.16
  -4   2   0  131.70    3.70
   4   2   0  131.93    3.83
  -4  -2   0  135.01    4.38
   4  -2  -1  154.43    5.05
  -4  -2   1  151.57    5.02
   4  -2  -1  162.16    4.77
   4   2   1  158.80    4.81
   4   2   1  159.85    4.40
   4  -2   1  149.91    5.03
  -4  -2  -1  153.69    5.00
   4   2  -1  152.31    4.35
   4  -2   1  153.40    4.13
   4   2  -1  154.58    4.81
  -4   2   1  153.23    4.23
   4  -2   1  155.00    4.76
  -4   2   1  153.37    4.12
   4  -2  -2  171.51    5.62
   4  -2  -2  169.71    5.31
   4   2   2  167.45    4.89
  -4  -2   2  173.41    5.60
   4   2   2  169.98    5.35
  -4  -2  -2  173.46    5.55
   4   2  -2  170.14    4.82
   4  -2   2  177.08    5.59
   4  -2   2  177.50    4.61
  -4   2   2  172.72    4.58
   4   2  -2  175.96    5.35
   4  -2  -3  164.41    5.38
  -4  -2   3  158.35    5.35
   4   2   3  164.32    4.71
   4  -2  -3  163.17    5.08
  -4   2  -3  160.06    5.03
   4   2  -3  165.74    5.11
  -4   2   3  164.02    4.38
  -4  -2  -3  166.89    5.28
  -4  -2  -3  161.77    5.07
   4  -2   3  167.23    4.41
   4  -2   3  174.43    5.33
  -4   2  -4  130.95    3.94
  -4  -2   4  127.91    4.22
   4  -2  -4  132.13    4.00
   4  -2  -4  125.65    4.24
   4   2  -4  126.21    4.03
   4  -2   4  127.99    3.47
  -4  -2  -4  124.59    3.98
  -4   2   4  129.77    3.45
  -4  -2   5  100.52    3.34
   4  -2  -5  102.74    3.17
  -4   2  -5  101.98    3.10
   4  -2  -5   95.76    3.35
   4   2  -5   98.88    3.19
   4  -2   5   99.18    2.75
  -4  -2  -5   98.73    3.14
  -4   2   5  101.45    2.72
  -4  -2   6   90.48    3.06
  -4   2  -6   88.01    2.62
   4  -2  -6   87.38    3.07
   4  -2  -6   92.82    2.92
   4   2   6   90.92    2.80
  -4   2  -6   92.73    2.83
  -4  -2  -6   91.13    2.87
  -4   2   6   94.10    2.50
   4   2  -6   89.31    2.93
   4  -2   6   89.69    2.52
   4   2   7   87.19    2.46
   4  -2  -7   85.40    3.01
  -4   2  -7   85.44    2.58
   4  -2  -7   90.95    2.88
   4   2   7   88.32    2.77
  -4  -2   7   88.96    3.00
   4   2  -7   87.15    2.88
  -4   2   7   91.04    2.46
  -4  -2  -7   88.04    2.81
   4  -2   7   91.34    2.49
   4   2   8   73.60    2.06
  -4   2  -8   70.45    2.13
   4  -2  -8   76.16    2.41
   4   2   8   70.13    2.32
   4  -2  -8   70.99    2.48
  -4  -2   8   73.37    2.47
   4   2  -8   68.80    2.39
   4  -2   8   68.38    2.06
  -4  -2  -8   70.04    2.31
  -4   2   8   69.11    2.02
   4   2   9   55.21    1.94
  -4  -2   9   55.98    2.00
   4  -2  -9   58.20    1.99
  -4   2  -9   57.60    1.76
   4  -2   9   58.32    1.72
   4   2  -9   53.86    1.97
  -4  -2  -9   56.46    1.88
  -4   2   9   54.39    1.67
   4  -2 -10   35.82    1.49
  -4   2 -10   37.38    1.29
  -4  -2  10   38.22    1.46
   4   2  10   38.06    1.49
  -4   2  10   40.61    1.26
   4  -2  10   43.02    1.32
   4   2 -10   39.58    1.50
  -4   2  10   39.27    1.48
  -4  -2 -10   40.21    1.40
  -4   2 -11   32.06    1.12
   4  -2 -11   26.99    1.30
   4   2  11   32.04    1.33
  -4  -2  11   31.82    1.24
   4   2 -11   32.31    1.31
  -4   2  11   32.84    1.10
  -4   2  11   32.78    1.27
   4  -2  11   34.72    1.17
   4  -3   0    3.17    0.26
  -4  -3   0    3.24    0.24
   4   3   0    3.20    0.28
  -4   3   0    3.49    0.21
   4   3   0    3.61    0.30
   4  -3   0    3.42    0.23
   4   3   1    0.22    0.15
   4  -3  -1    0.22    0.11
   4  -3  -1    0.15    0.14
  -4  -3   1    0.11    0.12
  -4   3  -1    0.23    0.11
   4   3   1    0.15    0.13
   4  -3   1    0.05    0.12
   4   3  -1    0.11    0.13
  -4  -3  -1    0.19    0.11
  -4   3   1    0.17    0.10
   4  -3   1    0.29    0.11
   4  -3   1    0.11    0.10
   4   3  -1    0.23    0.15
   4  -3  -2    1.37    0.16
   4  -3  -2    1.11    0.19
  -4  -3   2    1.04    0.16
  -4   3  -2    1.23    0.13
   4   3   2    1.32    0.19
  -4   3  -2    1.13    0.15
   4   3   2    0.94    0.21
  -4   3   2    1.24    0.13
  -4  -3  -2    1.22    0.14
   4  -3   2    1.08    0.17
   4   3  -2    0.94    0.18
   4   3  -2    0.96    0.18
   4  -3   2    1.13    0.14
   4  -3  -3   -0.11    0.11
   4   3   3   -0.04    0.15
   4  -3  -3   -0.03    0.11
  -4   3  -3    0.14    0.13
  -4  -3   3   -0.04    0.11
  -4  -3  -3    0.04    0.12
   4  -3   3    0.05    0.10
   4   3  -3    0.02    0.13
   4  -3   3    0.07    0.11
  -4  -3  -3    0.08    0.08
  -4   3   3    0.07    0.09
   4   3  -3    0.16    0.13
  -4   3  -4    0.91    0.18
  -4  -3   4    1.11    0.17
   4   3   4    1.15    0.25
   4  -3  -4    1.11    0.17
   4  -3  -4    1.05    0.19
   4   3  -4    1.26    0.20
   4  -3   4    1.34    0.16
  -4  -3  -4    1.19    0.18
  -4   3   4    1.20    0.15
   4  -3  -5    0.83    0.19
  -4  -3   5    0.69    0.17
   4  -3  -5    1.05    0.18
  -4   3  -5    0.55    0.16
   4   3   5    0.67    0.22
   4   3  -5    0.68    0.19
  -4  -3  -5    0.61    0.16
   4  -3   5    0.54    0.14
  -4   3   5    0.62    0.13
   4  -3  -6    0.20    0.16
   4  -3  -6    0.03    0.15
  -4   3  -6    0.03    0.15
   4   3   6    0.21    0.22
  -4  -3   6   -0.01    0.13
   4   3  -6    0.27    0.18
   4  -3   6    0.09    0.12
  -4   3   6    0.10    0.12
  -4  -3  -6    0.06    0.14
  -4   3  -7    0.29    0.20
   4  -3  -7    0.48    0.20
  -4  -3   7    0.15    0.15
   4  -3  -7    0.14    0.17
   4   3   7    0.26    0.21
   4  -3   7    0.32    0.15
  -4   3   7    0.43    0.15
   4   3  -7    0.71    0.21
  -4  -3  -7    0.26    0.16
   4  -3  -8    0.92    0.22
   4   3   8    0.92    0.30
   4  -3  -8    1.53    0.26
  -4   3  -8    0.82    0.23
  -4  -3   8    1.02    0.21
  -4   3   8    1.72    0.21
   4  -3   8    1.38    0.21
   4   3  -8    1.63    0.27
  -4  -3  -8    1.16    0.21
   4   3   9    0.40    0.29
   4  -3  -9    0.48    0.21
   4  -3  -9    0.37    0.24
  -4  -3   9    0.58    0.20
  -4   3  -9    0.50    0.21
   4  -3   9    0.25    0.18
  -4   3   9    0.04    0.17
   4   3  -9    0.24    0.23
  -4  -3  -9    0.33    0.20
   4  -3 -10    0.79    0.25
   4  -3 -10    0.60    0.29
   4   3  10    0.75    0.31
  -4   3 -10    0.93    0.24
  -4  -3  10    0.56    0.21
   4  -3  10    0.94    0.23
   4   3 -10    0.73    0.28
  -4   3  10    0.56    0.23
  -4  -3 -10    0.55    0.23
   4  -3 -11   -0.38    0.28
   4   3  11    0.41    0.31
  -4  -3  11    0.40    0.21
  -4   3  11    0.46    0.23
  -4   3  11    0.35    0.20
  -4   4   0  114.37    3.02
   4   4   0  108.53    3.52
  -4   4   0  111.31    3.08
   4   4   0  110.50    3.23
  -4  -4   0  109.47    3.64
   4  -4   0  113.03    3.70
  -4   4  -1  130.09    3.58
   4   4   1  128.92    4.07
   4  -4  -1  131.27    4.27
   4   4   1  129.56    3.74
  -4  -4   1  131.32    4.22
  -4  -4  -1  125.14    4.19
   4  -4   1  128.12    3.50
  -4   4   1  132.71    3.49
   4  -4   1  129.76    4.26
   4   4  -1  126.20    4.07
   4   4  -1  128.26    3.71
   4  -4  -2  126.53    4.22
  -4   4  -2  126.28    3.55
  -4  -4   2  127.29    4.18
   4  -4  -2  128.81    3.95
   4   4   2  129.05    3.72
   4  -4   2  128.00    4.20
   4   4  -2  129.32    3.66
  -4  -4  -2  128.57    4.13
   4  -4   2  130.62    3.47
  -4   4   2  122.57    3.44
   4   4  -2  126.94    4.02
   4  -4  -3  132.62    4.52
  -4  -4   3  131.88    4.47
   4   4   3  131.29    3.97
   4  -4  -3  133.49    4.23
  -4   4  -3  131.45    3.81
   4   4  -3  138.75    4.30
  -4  -4  -3  145.14    4.41
  -4  -4  -3  136.49    4.26
   4  -4   3  136.50    3.71
   4   4  -3  146.39    3.90
   4  -4   3  142.03    4.49
  -4   4   3  134.79    3.68
   4  -4  -4  156.92    4.75
  -4  -4   4  155.63    5.02
  -4   4  -4  151.61    4.27
   4  -4  -4  152.92    5.05
   4   4   4  158.36    4.47
  -4   4   4  148.49    4.12
   4  -4   4  151.62    4.15
  -4  -4  -4  152.72    4.76
   4   4  -4  153.48    4.81
   4  -4  -5  106.80    3.67
  -4   4  -5  109.70    3.11
  -4  -4   5  112.06    3.64
   4   4   5  114.00    3.31
   4  -4  -5  113.28    3.45
   4  -4   5  109.02    3.02
   4   4  -5  105.95    3.49
  -4  -4  -5  107.48    3.44
  -4   4   5  105.72    2.98
   4  -4  -6   81.38    2.59
   4  -4  -6   77.30    2.75
  -4  -4   6   78.66    2.72
   4   4   6   80.43    2.54
  -4   4  -6   79.44    2.34
   4   4  -6   81.93    2.64
  -4  -4  -6   80.21    2.57
  -4   4   6   80.14    2.24
   4  -4   6   80.42    2.28
  -4  -4   7   53.90    1.95
   4  -4  -7   57.82    1.89
   4   4   7   54.62    1.89
  -4   4  -7   52.76    1.69
   4  -4  -7   53.26    1.98
   4   4  -7   56.53    1.92
   4  -4   7   56.29    1.66
  -4   4   7   56.93    1.62
  -4  -4  -7   55.77    1.84
   4  -4  -8   47.35    1.60
   4   4   8   42.47    1.58
  -4   4  -8   42.12    1.39
  -4  -4   8   43.90    1.59
   4  -4  -8   44.51    1.63
   4  -4   8   42.77    1.37
  -4   4   8   43.24    1.33
  -4  -4  -8   43.35    1.50
   4   4  -8   43.11    1.58
  -4  -4   9   53.14    1.90
  -4   4  -9   51.54    1.66
   4   4   9   51.15    1.88
   4  -4  -9   55.02    1.91
   4  -4  -9   53.96    1.94
  -4   4   9   53.63    1.60
   4   4  -9   51.46    1.89
  -4  -4  -9   52.61    1.81
   4  -4   9   53.95    1.65
  -4   4 -10   45.41    1.47
   4  -4 -10   38.50    1.67
   4   4  10   44.83    1.70
   4  -4 -10   46.73    1.71
  -4  -4  10   45.34    1.66
   4  -4  10   48.01    1.49
   4   4 -10   46.10    1.69
  -4   4  10   45.06    1.43
  -4  -4 -10   46.71    1.60
  -4  -4  11   33.90    1.31
  -4   5   0    1.14    0.13
  -4   5   0    1.20    0.15
   4   5   0    1.09    0.22
   4   5   0    0.99    0.19
  -4  -5   0    1.11    0.16
   4  -5   0    1.05    0.20
  -4   5  -1    0.32    0.12
   4   5   1    0.26    0.16
  -4  -5   1    0.28    0.12
   4   5   1    0.35    0.17
   4  -5  -1    0.29    0.15
   4   5  -1    0.44    0.17
   4   5  -1    0.32    0.18
  -4  -5  -1    0.54    0.13
   4  -5   1    0.50    0.13
   4  -5   1    0.71    0.17
  -4   5   1    0.43    0.13
   4  -5  -2    0.12    0.16
  -4   5  -2    0.03    0.11
  -4  -5   2    0.04    0.11
   4   5   2    0.24    0.17
  -4   5   2    0.21    0.11
  -4  -5  -2    0.22    0.11
   4   5  -2    0.26    0.16
   4  -5   2    0.28    0.12
   4   5  -2    0.12    0.16
  -4  -5  -2    0.19    0.15
   4  -5   2    0.18    0.15
   4  -5  -3    0.29    0.16
  -4   5  -3    0.35    0.13
  -4  -5   3    0.21    0.13
   4   5   3   -0.04    0.16
   4  -5   3    0.12    0.12
  -4  -5  -3    0.18    0.14
  -4  -5  -3    0.19    0.10
  -4   5   3    0.24    0.12
   4  -5   3    0.32    0.15
   4   5  -3    0.18    0.16
   4   5  -3   -0.06    0.16
  -4   5  -4    4.12    0.30
  -4  -5   4    4.23    0.31
   4  -5  -4    4.39    0.36
   4   5   4    4.34    0.39
   4   5  -4    4.37    0.35
  -4  -5  -4    4.34    0.30
   4  -5   4    4.24    0.28
  -4   5   4    4.18    0.25
  -4  -5   5    0.34    0.15
   4  -5  -5    0.38    0.19
  -4   5  -5    0.35    0.18
   4   5   5    0.60    0.24
   4  -5   5    0.37    0.15
   4   5  -5    0.32    0.18
  -4   5   5    0.15    0.12
  -4  -5  -5    0.15    0.15
  -4  -5   6    0.06    0.16
  -4   5  -6   -0.07    0.16
   4  -5  -6    0.02    0.17
   4   5   6    0.39    0.25
  -4  -5  -6    0.15    0.16
   4   5  -6    0.20    0.19
  -4   5   6    0.30    0.14
   4  -5   6    0.13    0.14
  -4  -5   7   -0.04    0.16
  -4   5  -7   -0.09    0.17
   4  -5  -7    0.16    0.18
   4   5   7    0.16    0.25
  -4  -5  -7    0.09    0.17
   4   5  -7    0.04    0.19
  -4   5   7    0.10    0.14
   4  -5   7    0.13    0.15
  -4  -5   8    0.31    0.17
   4   5   8    0.34    0.28
  -4   5  -8    0.17    0.22
  -4   5   8    0.35    0.17
   4  -5   8    0.37    0.18
   4   5  -8    0.45    0.23
  -4  -5  -8    0.31    0.19
  -4  -5   9    0.42    0.20
   4   5   9    0.08    0.28
  -4   5  -9    0.55    0.22
   4  -5  -9    0.57    0.25
   4  -5  -9    0.72    0.27
   4  -5   9    0.32    0.19
   4   5  -9    0.27    0.24
  -4  -5  -9    0.20    0.21
  -4   5   9    0.42    0.19
   4  -5 -10    0.25    0.27
   4  -5 -10    0.37    0.25
  -4  -5  10    0.24    0.20
   4   5  10    0.19    0.27
   4   5 -10    0.43    0.28
  -4   6   0  134.13    3.69
  -4  -6   0  135.75    4.36
   4  -6   0  132.54    4.44
  -4   6   0  134.19    3.63
   4   6   0  131.29    4.23
   4   6   0  134.37    3.89
   4   6   1  111.94    3.61
  -4   6  -1  112.22    3.15
   4   6   1  111.50    3.34
   4  -6  -1  112.21    3.79
  -4  -6   1  111.97    3.71
  -4   6   1  113.69    3.09
   4  -6   1  109.99    3.10
   4   6  -1  113.00    3.32
  -4  -6  -1  118.02    3.69
   4   6  -1  113.17    3.61
   4  -6   1  113.64    3.79
   4   6   2  112.39    3.28
   4  -6  -2  105.54    3.69
  -4  -6   2  109.89    3.62
  -4   6  -2  110.23    3.08
   4   6  -2  108.96    3.52
   4   6  -2  115.02    3.24
  -4  -6  -2  109.16    3.58
   4  -6   2  110.64    3.69
   4  -6   2  108.58    3.03
  -4   6   2  107.16    3.00
  -4  -6  -2  109.97    3.47
  -4   6  -3   96.04    2.77
  -4  -6   3   96.83    3.25
   4  -6  -3   98.96    3.32
   4   6   3   92.52    2.95
   4  -6   3   97.81    3.30
   4   6  -3  101.99    2.91
  -4  -6  -3  101.73    3.19
   4  -6   3   96.62    2.72
  -4   6   3   96.20    2.69
   4   6  -3   98.20    3.16
  -4  -6  -3   96.34    3.10
   4  -6  -4   77.92    2.64
  -4  -6   4   78.97    2.58
   4   6   4   77.51    2.41
  -4   6  -4   76.49    2.20
   4  -6   4   71.87    2.60
   4   6  -4   75.68    2.50
   4   6  -4   77.14    2.31
  -4   6   4   71.98    2.12
   4  -6   4   73.82    2.16
  -4  -6  -4   75.42    2.45
  -4  -6   5   75.06    2.55
  -4   6  -5   76.53    2.19
   4  -6  -5   73.57    2.60
   4   6   5   79.40    2.43
   4   6  -5   74.20    2.49
  -4   6   5   72.91    2.11
  -4  -6  -5   73.75    2.42
   4  -6   5   72.59    2.14
  -4  -6   6   68.90    2.46
   4   6   6   71.60    2.35
   4  -6  -6   69.60    2.52
  -4   6  -6   72.19    2.13
   4   6  -6   73.94    2.42
  -4  -6  -6   73.52    2.35
  -4   6   6   72.89    2.06
   4  -6   6   71.81    2.09
  -4   6  -7   64.96    1.99
   4   6   7   66.32    2.22
  -4  -6   7   65.69    2.30
   4  -6  -7   64.25    2.35
   4  -6   7   66.58    1.97
  -4  -6  -7   66.55    2.19
  -4   6   7   66.77    1.92
   4   6  -7   68.70    2.27
   4   6   8   63.07    2.14
   4  -6  -8   61.84    2.22
  -4   6  -8   61.01    1.88
  -4  -6   8   59.78    2.15
  -4  -6  -8   61.93    2.06
  -4   6   8   58.53    1.80
   4  -6   8   61.62    1.86
   4   6  -8   62.25    2.13
   4   6   9   37.62    1.48
   4  -6  -9   36.73    1.44
  -4   6  -9   36.88    1.23
  -4  -6   9   36.90    1.38
  -4  -6  -9   36.75    1.34
  -4   6   9   35.19    1.18
   4  -6   9   36.07    1.23
   4   6  -9   34.73    1.40
   4  -6 -10   30.36    1.27
   4   7   0    0.74    0.22
   4  -7   0    0.68    0.20
  -4  -7   0    0.58    0.16
   4   7   0    0.55    0.20
  -4   7   0    0.51    0.15
  -4  -7   1    1.36    0.19
   4   7   1    1.52    0.27
  -4   7  -1    1.63    0.17
   4  -7  -1    1.60    0.26
  -4  -7  -1    1.01    0.17
   4   7  -1    1.03    0.22
   4   7  -1    1.17    0.24
  -4   7   1    1.20    0.18
   4  -7   1    1.04    0.23
   4   7   2    0.26    0.19
  -4   7  -2    0.49    0.15
  -4  -7   2    0.39    0.16
   4  -7  -2    0.31    0.18
  -4  -7  -2    0.53    0.14
   4  -7   2    0.41    0.15
   4   7  -2    0.30    0.19
   4   7  -2    0.19    0.19
   4  -7   2    0.70    0.21
  -4  -7  -2    0.45    0.17
  -4   7   2    0.38    0.14
  -4  -7   3    0.38    0.15
   4   7   3    0.23    0.22
   4  -7  -3    0.56    0.21
  -4   7  -3    0.30    0.16
   4  -7   3    0.67    0.20
  -4  -7  -3    0.39    0.17
   4   7  -3    0.69    0.21
  -4   7   3    0.83    0.16
   4  -7   3    0.44    0.15
   4   7  -3    0.48    0.21
   4   7   4    1.20    0.28
   4  -7  -4    0.72    0.21
  -4  -7   4    0.60    0.17
  -4   7  -4    0.44    0.18
  -4  -7  -4    0.95    0.20
  -4   7   4    1.04    0.17
   4   7  -4    1.13    0.23
   4  -7   4    0.94    0.21
   4  -7   4    0.96    0.18
   4   7  -4    1.06    0.23
   4   7   5    0.23    0.22
   4  -7  -5    0.04    0.20
  -4   7  -5    0.11    0.18
  -4  -7   5    0.15    0.15
   4  -7   5    0.12    0.15
   4   7  -5    0.20    0.20
  -4  -7  -5    0.24    0.17
  -4   7   5    0.07    0.14
  -4  -7   6    1.24    0.21
  -4   7  -6    1.10    0.23
   4   7   6    1.15    0.31
   4  -7  -6    0.89    0.24
  -4   7   6    1.16    0.19
   4  -7   6    1.14    0.21
   4   7  -6    1.18    0.26
  -4  -7  -6    0.97    0.22
  -4   7  -7    0.38    0.20
  -4  -7   7    0.56    0.19
   4   7   7    0.65    0.30
   4  -7  -7    0.58    0.23
  -4  -7  -7    0.43    0.21
   4  -7   7    0.46    0.18
  -4   7   7    0.56    0.17
   4   7  -7    0.65    0.25
   4  -7  -8    0.76    0.25
  -4  -7   8    0.75    0.20
  -4   7  -8    0.86    0.25
   4   7   8    0.46    0.29
   4   7  -8    0.72    0.27
  -4  -7  -8    0.75    0.23
   4  -7   8    0.86    0.22
  -4   7   8    0.45    0.18
   4  -7  -9   -0.05    0.24
   4   7  -9   -0.07    0.23
   4   8   0  112.09    3.47
   4  -8   0  117.39    3.96
   4   8   0  115.58    3.74
  -4  -8   0  117.90    3.83
  -4   8   0  118.33    3.22
   4  -8  -1   94.34    3.26
  -4  -8   1   95.52    3.14
   4   8   1   92.75    2.89
  -4   8  -1   92.21    2.64
  -4   8  -1   96.68    2.68
  -4   8   1   95.00    2.64
   4  -8   1   94.57    3.26
   4   8  -1   92.76    3.07
  -4  -8  -1   97.33    3.13
  -4  -8  -1   92.86    3.02
   4   8  -1   91.11    2.87
   4   8   2   74.72    2.44
  -4   8  -2   77.93    2.23
   4  -8  -2   75.43    2.71
  -4  -8   2   75.37    2.61
   4  -8   2   74.73    2.72
  -4   8   2   75.92    2.19
   4   8  -2   77.75    2.41
  -4  -8  -2   78.68    2.51
  -4  -8  -2   81.99    2.59
   4   8  -2   77.87    2.57
   4  -8   2   77.27    2.22
   4  -8  -3   61.37    2.25
  -4  -8   3   65.81    2.17
   4   8   3   62.29    2.08
  -4   8  -3   63.12    1.85
   4  -8   3   60.18    1.84
   4   8  -3   63.22    2.14
   4  -8   3   60.12    2.26
   4   8  -3   65.17    2.03
  -4  -8  -3   62.81    2.08
  -4   8   3   61.67    1.82
   4   8   4   56.53    2.00
  -4   8  -4   60.58    1.79
  -4  -8   4   58.38    2.07
   4  -8  -4   56.74    2.15
  -4   8   4   59.17    1.74
   4   8  -4   64.49    1.95
  -4  -8  -4   59.39    1.99
   4   8  -4   59.42    2.05
   4  -8   4   60.02    1.78
   4   8   5   60.76    2.05
  -4  -8   5   58.17    2.08
   4  -8  -5   58.03    2.16
  -4   8  -5   58.38    1.79
  -4   8   5   58.94    1.75
   4   8  -5   61.42    2.06
  -4  -8  -5   59.94    1.99
   4  -8   5   58.96    1.78
  -4  -8   6   57.45    2.03
  -4   8  -6   59.28    1.77
   4  -8  -6   57.38    2.11
   4   8   6   59.03    2.03
   4  -8   6   57.60    1.75
   4   8  -6   55.92    2.00
  -4  -8  -6   58.57    1.95
  -4   8   6   54.30    1.70
  -4  -8   7   50.73    1.88
   4  -8  -7   52.66    1.97
   4   8   7   53.03    1.91
  -4   8  -7   53.30    1.65
  -4  -8  -7   54.53    1.81
  -4   8   7   51.44    1.59
   4   8  -7   52.22    1.87
   4   8  -8   46.83    1.73
   4   9   0    0.66    0.25
   4  -9   0    0.44    0.24
  -4  -9   0    0.61    0.18
  -4  -9   0    0.26    0.19
  -4   9   0    0.57    0.18
  -4  -9   1    0.67    0.18
  -4   9  -1    0.62    0.18
   4  -9  -1    0.85    0.24
   4   9   1    0.97    0.28
   4   9  -1    0.84    0.26
  -4  -9  -1    0.95    0.19
  -4  -9  -1    1.13    0.22
   4   9  -1    0.95    0.25
  -4   9   1    1.01    0.19
   4  -9   1    0.74    0.24
  -4  -9   2    0.37    0.18
   4   9   2    0.60    0.27
  -4   9  -2    0.46    0.17
   4  -9  -2    0.42    0.24
   4  -9   2    0.15    0.20
  -4   9   2    0.41    0.16
   4   9  -2    0.50    0.23
   4   9  -2    0.87    0.26
  -4  -9  -2    0.43    0.19
  -4  -9  -2    0.42    0.15
   4   9   3    0.12    0.22
  -4   9  -3    0.27    0.18
   4  -9  -3    0.12    0.22
  -4  -9   3    0.25    0.18
  -4   9   3    0.38    0.16
   4  -9   3    0.24    0.17
   4   9  -3    0.37    0.23
   4  -9   3    0.33    0.22
   4   9  -3    0.28    0.22
  -4  -9  -3    0.50    0.20
  -4  -9   4    0.64    0.20
   4  -9  -4    0.28    0.21
  -4   9  -4    0.48    0.20
   4   9   4    0.34    0.27
  -4   9   4    0.22    0.16
   4   9  -4    0.23    0.22
   4   9  -4    0.32    0.23
  -4  -9  -4    0.25    0.19
   4  -9   4    0.22    0.17
   4   9   5    0.37    0.29
  -4   9  -5    0.83    0.23
  -4  -9   5    0.74    0.22
   4  -9  -5    0.62    0.25
   4   9  -5    0.65    0.25
  -4   9   5    0.70    0.19
   4  -9   5    0.83    0.21
  -4  -9  -5    0.87    0.22
  -4   9  -6    0.03    0.22
  -4  -9  -6    0.58    0.23
  -4  10   0   48.70    1.50
   4  10   0   47.75    1.73
  -4 -10   0   51.28    1.75
   4 -10   0   49.08    1.90
  -4 -10   0   48.08    1.70
   4 -10  -1   57.99    2.16
  -4  10  -1   56.91    1.73
  -4 -10   1   57.32    2.02
   4  10   1   51.89    1.94
  -4 -10  -1   59.41    1.96
  -4  10   1   58.68    1.73
  -4 -10  -1   60.17    2.01
   4  10  -1   56.13    1.96
   4 -10   1   59.29    2.18
   4 -10  -2   60.39    2.25
   4  10   2   57.75    2.06
  -4  10  -2   60.59    1.81
  -4  10  -2   61.86    1.83
  -4 -10   2   61.15    2.12
  -4 -10  -2   60.31    2.04
  -4 -10  -2   64.41    2.10
  -4  10   2   59.79    1.80
   4 -10   2   57.18    2.26
   4  10  -2   61.15    2.05
  -4 -10   3   62.44    2.14
  -4  10  -3   64.88    1.86
   4  10   3   59.94    2.09
   4 -10   3   51.88    2.25
   4  10  -3   63.14    2.06
  -4 -10  -3   61.83    2.05
  -4  10   3   59.86    1.80
   4 -10   3   62.21    1.85
  -4  10  -4   65.05    2.03
   4  10  -4   70.76    2.25
  -4 -10  -4   67.38    2.26
  -4 -11  -1    0.78    0.19
  -4 -11  -2    0.57    0.18
   5   0   0    0.21    0.15
  -5   0   0    0.12    0.15
   5   0   0    0.02    0.18
  -5   0  -1    0.44    0.16
   5   0  -1    0.47    0.17
  -5   0   1    0.50    0.18
   5   0   1    0.34    0.16
   5   0   1    0.43    0.21
   5   0   2    0.38    0.12
  -5   0   2    0.15    0.15
   5   0   2    0.13    0.20
  -5   0  -2    0.18    0.14
   5   0   2    0.32    0.16
   5   0  -2    0.44    0.17
   5   0   3    1.12    0.15
   5   0   3    0.83    0.25
  -5   0  -3    0.93    0.18
   5   0  -3    0.87    0.20
  -5   0   3    0.91    0.20
   5   0   4    0.33    0.12
  -5   0  -4    0.27    0.15
   5   0   4    0.28    0.24
  -5   0   4    0.17    0.18
   5   0  -4    0.49    0.18
  -5   0   5    0.02    0.17
   5   0   5    0.01    0.12
   5   0   5    0.05    0.23
  -5   0  -5    0.05    0.14
   5   0  -5   -0.08    0.16
   5   0   6    0.34    0.27
  -5   0   6    0.27    0.19
   5   0   6    0.46    0.15
   5   0  -6    0.53    0.21
  -5   0  -6    0.57    0.17
   5   0   7    0.13    0.26
   5   0   7    0.28    0.16
   5   0  -7    0.44    0.23
  -5   0   7    0.28    0.19
  -5   0  -7    0.25    0.17
  -5   0  -8    1.05    0.21
   5   0   8    0.95    0.20
   5   0  -8    0.82    0.27
  -5   0   8    0.96    0.24
   5   0   8    0.98    0.30
  -5   0   9    0.62    0.22
  -5   0  -9    0.69    0.22
   5   0   9    0.60    0.32
   5   0  -9    0.83    0.29
  -5   0  10   -0.15    0.20
  -5   1   0  134.79    3.46
  -5  -1   0  127.50    4.23
   5   1   0  125.50    4.05
   5  -1   0  126.33    4.25
   5   1   0  126.54    3.73
   5  -1   0  130.40    4.04
   5   1   1  128.60    4.07
  -5  -1   1  128.22    4.26
   5  -1  -1  131.83    4.06
   5  -1  -1  128.52    4.28
   5  -1   1  130.56    3.75
   5  -1   1  129.16    4.05
   5   1  -1  126.02    4.07
  -5  -1  -1  129.19    4.23
  -5   1   1  129.59    3.47
   5  -1   1  128.36    4.26
   5  -1  -2  100.88    3.52
  -5  -1   2  102.36    3.51
   5  -1  -2  104.04    3.33
   5   1   2  100.16    3.13
   5   1   2  100.96    3.34
   5  -1   2  106.59    2.86
  -5   1   2  107.39    2.84
  -5  -1  -2  108.17    3.46
   5  -1   2  110.93    3.49
   5  -1   2  105.54    3.12
   5   1  -2  105.00    3.35
   5  -1  -3   88.98    2.88
  -5   1  -3   89.43    2.82
   5  -1  -3   88.83    3.06
   5   1   3   87.45    2.75
  -5  -1   3   91.79    3.05
   5   1  -3   89.36    2.90
  -5  -1  -3   88.62    2.85
  -5   1   3   91.08    2.45
   5  -1   3   91.20    2.47
   5  -1   3   88.24    2.73
  -5   1  -4   63.78    2.03
   5   1   4   61.66    2.06
   5  -1  -4   62.70    2.09
   5  -1  -4   61.85    2.23
  -5  -1   4   65.32    2.23
   5  -1   4   62.53    2.05
  -5  -1  -4   61.67    2.05
  -5   1   4   62.86    1.77
   5   1  -4   62.84    2.11
   5  -1   4   65.01    1.80
   5  -1  -5   88.39    2.81
   5   1   5   84.46    2.71
  -5   1  -5   87.13    2.73
  -5  -1   5   84.30    2.96
  -5   1   5   89.38    2.38
   5   1  -5   85.14    2.82
   5  -1   5   87.05    2.41
  -5  -1  -5   84.29    2.74
   5  -1   5   85.52    2.70
   5   1   6   72.01    2.39
   5  -1  -6   73.99    2.45
  -5   1  -6   73.10    2.35
  -5  -1   6   71.30    2.57
  -5   1   6   74.77    2.07
  -5  -1  -6   74.74    2.38
   5   1  -6   73.43    2.47
   5  -1   6   75.47    2.40
  -5   1   6   73.70    2.58
   5  -1   6   73.75    2.10
   5   1   7   62.06    2.19
  -5  -1   7   63.52    2.33
   5  -1  -7   65.42    2.24
  -5  -1  -7   66.22    2.15
  -5   1   7   67.81    1.89
   5  -1   7   67.80    1.92
   5  -1   7   67.70    2.21
  -5   1   7   64.85    2.34
   5   1  -7   66.18    2.26
   5  -1  -8   51.73    1.80
   5   1   8   50.65    1.81
  -5  -1   8   48.73    1.83
  -5   1   8   50.19    1.50
   5  -1   8   49.92    1.53
  -5   1   8   48.52    1.84
  -5  -1  -8   49.92    1.69
   5   1  -8   49.39    1.80
  -5  -1   9   42.93    1.64
  -5   1  -9   45.65    1.46
   5  -1  -9   46.53    1.66
   5   1   9   42.01    1.64
  -5  -1  -9   42.14    1.51
  -5   1   9   41.82    1.65
   5  -1   9   43.27    1.39
  -5   1   9   43.36    1.36
   5   1  -9   42.49    1.64
  -5  -1  10   28.66    1.22
   5  -1  10   32.00    1.10
  -5   1  10   29.34    1.24
  -5  -1 -10   30.24    1.13
   5   2   0    2.03    0.25
   5  -2   0    2.33    0.26
  -5   2   0    2.37    0.20
   5   2   0    2.14    0.28
   5  -2   0    2.19    0.26
  -5  -2   0    1.89    0.22
   5  -2  -1    0.40    0.17
   5   2   1    0.37    0.17
   5   2   1    0.62    0.22
  -5   2  -1    0.29    0.15
   5  -2  -1    0.31    0.15
  -5  -2   1    0.37    0.17
   5  -2   1    0.26    0.15
  -5   2   1    0.44    0.12
   5   2  -1    0.32    0.18
  -5  -2  -1    0.49    0.15
   5  -2   1    0.38    0.16
   5   2  -1    0.54    0.19
   5  -2   1    0.40    0.13
   5  -2  -2    0.56    0.17
  -5  -2   2    0.73    0.18
   5   2   2    0.57    0.19
   5   2   2    1.41    0.27
   5  -2  -2    0.62    0.19
   5  -2   2    0.84    0.15
  -5  -2  -2    0.63    0.14
   5   2  -2    0.74    0.20
   5  -2   2    0.80    0.18
  -5   2   2    0.94    0.14
  -5  -2   3    0.30    0.18
   5   2   3    0.20    0.23
   5  -2  -3    0.37    0.18
   5  -2  -3    0.49    0.17
  -5   2   3    0.25    0.12
   5  -2   3    0.32    0.13
  -5  -2  -3    0.29    0.16
   5   2  -3    0.20    0.18
   5  -2  -4    0.19    0.16
   5   2   4    0.27    0.24
   5  -2  -4    0.06    0.17
  -5  -2   4    0.12    0.15
   5  -2   4    0.04    0.12
   5   2  -4    0.08    0.17
  -5   2   4    0.09    0.12
  -5  -2  -4    0.04    0.15
   5  -2  -5    0.36    0.19
   5  -2  -5    0.05    0.18
  -5   2  -5   -0.14    0.19
   5   2   5   -0.04    0.23
  -5  -2   5    0.37    0.18
  -5  -2  -5    0.10    0.15
   5   2  -5   -0.02    0.18
   5  -2   5    0.08    0.13
  -5   2   5    0.11    0.13
   5   2   6    0.42    0.26
  -5  -2   6    0.66    0.22
   5  -2  -6    0.82    0.22
   5  -2  -6    0.53    0.23
  -5   2  -6    0.39    0.23
   5  -2   6    0.83    0.17
  -5   2   6    0.75    0.16
   5   2  -6    0.96    0.24
  -5  -2  -6    0.81    0.19
  -5  -2   7    0.45    0.22
   5  -2  -7    0.88    0.26
   5   2   7    0.57    0.30
  -5   2  -7    0.39    0.24
   5  -2  -7    0.99    0.25
  -5   2   7    0.86    0.18
   5  -2   7    0.79    0.19
   5   2  -7    1.05    0.26
  -5  -2  -7    0.92    0.21
   5  -2  -8    0.34    0.24
   5   2   8    0.26    0.29
  -5  -2   8    0.04    0.20
  -5   2  -8    0.28    0.25
  -5   2   8    0.65    0.19
   5   2  -8    0.48    0.25
   5  -2   8    0.52    0.19
  -5  -2  -8    0.40    0.20
   5   2   9    0.13    0.30
   5  -2  -9    0.76    0.29
  -5  -2   9    0.64    0.24
  -5   2  -9    0.29    0.26
  -5   2   9    0.21    0.22
  -5   2   9    0.09    0.20
   5  -2   9    0.21    0.20
  -5  -2  -9    0.30    0.22
   5   2  -9    0.24    0.26
  -5   2  10    0.46    0.24
   5  -2  10    0.55    0.24
   5   3   0   65.15    2.21
   5  -3   0   66.62    2.32
   5   3   0   62.77    2.07
  -5  -3   0   66.72    2.26
  -5   3   0   69.39    1.87
  -5   3  -1   97.27    2.63
   5   3   1   95.01    3.01
   5  -3  -1   95.57    3.16
  -5  -3   1   98.75    3.11
   5   3   1   92.78    2.81
   5  -3   1   91.37    2.56
   5  -3   1   87.08    3.12
  -5  -3  -1   89.47    3.06
  -5   3   1   92.46    2.55
   5   3  -1   89.48    2.77
   5   3  -1   87.35    3.00
   5  -3  -2  108.19    3.61
  -5   3  -2  106.99    3.02
   5  -3  -2  108.12    3.38
   5   3   2  105.42    3.22
  -5  -3   2  104.78    3.56
   5   3  -2  104.09    3.44
   5  -3   2  105.79    2.94
   5  -3   2  107.91    3.58
  -5   3   2  109.94    2.92
  -5  -3  -2  106.84    3.50
   5   3   3  109.51    3.33
   5  -3  -3  105.40    3.70
   5  -3  -3  110.09    3.47
  -5   3  -3  108.81    3.12
  -5  -3   3  106.01    3.66
  -5  -3  -3  109.06    3.47
   5   3  -3  114.07    3.54
  -5   3   3  112.28    3.00
   5  -3   3  112.63    3.03
   5  -3  -4  100.25    3.20
  -5   3  -4  100.70    2.88
   5  -3  -4   96.45    3.41
   5   3   4  100.54    3.10
  -5  -3   4  100.73    3.38
   5  -3   4  101.79    2.79
   5   3  -4  101.68    3.26
  -5   3   4  101.53    2.76
  -5  -3  -4   99.27    3.19
   5   3   5   74.86    2.38
  -5  -3   5   73.14    2.52
   5  -3  -5   73.45    2.39
   5  -3  -5   70.95    2.55
  -5   3  -5   73.02    2.16
  -5   3   5   73.81    2.05
  -5  -3  -5   70.66    2.36
   5   3  -5   70.57    2.43
   5  -3   5   72.59    2.08
  -5   3  -6   57.96    1.77
   5  -3  -6   58.25    1.95
  -5  -3   6   55.92    2.04
   5   3   6   57.20    1.98
   5  -3  -6   55.76    2.08
  -5   3   6   58.83    1.67
   5   3  -6   56.79    1.99
  -5  -3  -6   57.68    1.91
   5  -3   6   57.31    1.70
   5  -3  -7   47.62    1.81
   5   3   7   46.58    1.75
   5  -3  -7   47.99    1.71
  -5   3  -7   48.37    1.55
  -5  -3   7   48.76    1.78
   5  -3   7   50.10    1.49
   5   3  -7   47.80    1.75
  -5  -3  -7   47.79    1.65
  -5   3   7   50.58    1.46
   5   3   8   38.38    1.50
   5  -3  -8   35.44    1.45
  -5   3  -8   37.62    1.26
   5  -3  -8   41.68    1.44
  -5  -3   8   36.41    1.42
   5  -3   8   36.78    1.22
   5   3  -8   35.75    1.42
  -5  -3  -8   35.48    1.32
  -5   3   8   36.33    1.17
  -5  -3   9   39.76    1.55
   5   3   9   41.07    1.60
   5  -3  -9   39.78    1.59
   5  -3  -9   41.69    1.57
  -5   3  -9   40.45    1.37
  -5  -3  -9   40.06    1.45
  -5   3   9   41.30    1.30
   5  -3   9   42.25    1.35
   5   3  -9   40.70    1.57
  -5   4   0    0.03    0.12
   5   4   0   -0.05    0.19
   5  -4   0    0.06    0.16
   5   4   0   -0.10    0.16
  -5  -4   0    0.01    0.12
   5  -4  -1    0.97    0.23
   5   4   1    0.95    0.21
  -5  -4   1    1.03    0.19
   5   4   1    1.13    0.26
  -5   4   1    1.06    0.16
  -5  -4  -1    0.76    0.15
   5  -4   1    0.68    0.19
   5   4  -1    0.87    0.23
   5   4  -1    0.52    0.20
  -5  -4   2    0.30    0.16
   5   4   2    0.08    0.22
   5  -4  -2    0.17    0.17
  -5   4  -2    0.22    0.15
  -5   4   2    0.31    0.13
   5  -4   2    0.15    0.13
   5  -4   2    0.22    0.15
  -5  -4  -2    0.29    0.13
   5   4  -2    0.00    0.17
  -5   4  -3    0.40    0.16
   5  -4  -3    0.18    0.20
  -5  -4   3    0.23    0.16
   5   4   3    0.15    0.21
  -5   4   3    0.35    0.14
   5  -4   3    0.21    0.14
  -5  -4  -3    0.19    0.17
   5   4  -3    0.44    0.21
   5   4   4    1.45    0.32
   5  -4  -4    0.93    0.23
  -5   4  -4    1.24    0.22
  -5  -4   4    1.14    0.21
   5  -4   4    1.33    0.19
  -5  -4  -4    1.53    0.23
  -5   4   4    1.77    0.19
   5   4  -4    1.57    0.26
  -5   4  -5    1.72    0.24
  -5  -4   5    1.41    0.23
   5   4   5    1.15    0.30
   5  -4  -5    1.45    0.27
   5   4  -5    1.65    0.27
   5  -4   5    1.42    0.20
  -5   4   5    1.42    0.19
  -5  -4  -5    1.36    0.22
   5  -4  -6    0.13    0.20
  -5   4  -6    0.41    0.20
  -5  -4   6    0.31    0.18
   5   4   6    0.24    0.28
  -5  -4  -6    0.12    0.18
  -5   4   6    0.10    0.14
   5  -4   6    0.10    0.15
   5   4  -6    0.15    0.21
   5  -4  -7    0.39    0.21
   5   4   7    0.04    0.27
   5  -4  -7    0.43    0.25
  -5  -4   7    0.06    0.18
  -5   4  -7    0.06    0.22
   5  -4   7    0.09    0.16
   5   4  -7    0.17    0.22
  -5  -4  -7   -0.06    0.18
  -5   4   7   -0.01    0.15
   5   4   8    0.40    0.29
  -5   4  -8    0.03    0.21
   5  -4  -8    0.76    0.25
   5  -4  -8    0.04    0.23
  -5  -4   8    0.17    0.19
  -5   4   8    0.28    0.18
  -5  -4  -8    0.12    0.20
   5   4  -8    0.02    0.24
   5  -4   8    0.18    0.19
   5  -4  -9    0.51    0.28
   5  -4  -9    1.28    0.31
  -5   4   9    0.68    0.23
   5   5   0   91.03    2.81
  -5  -5   0   91.37    3.05
  -5   5   0   93.41    2.56
   5   5   0   89.92    3.00
   5  -5   0   91.70    3.15
  -5  -5   1   82.93    2.76
   5   5   1   78.71    2.71
   5   5   1   82.19    2.57
   5  -5  -1   80.96    2.85
   5  -5   1   82.60    2.84
  -5  -5  -1   82.66    2.74
  -5   5   1   82.24    2.30
   5   5  -1   82.57    2.54
   5   5  -1   81.84    2.72
   5   5   2   77.35    2.48
   5  -5  -2   80.86    2.74
  -5  -5   2   77.71    2.65
  -5   5  -2   78.29    2.24
  -5  -5  -2   76.28    2.54
   5  -5   2   77.76    2.71
  -5   5   2   77.65    2.19
   5   5  -2   78.29    2.61
  -5  -5  -2   78.74    2.59
   5  -5   2   75.20    2.21
  -5   5  -3   76.60    2.23
   5   5   3   75.51    2.45
  -5  -5   3   74.46    2.62
   5  -5  -3   74.19    2.69
   5   5  -3   78.80    2.57
  -5   5   3   78.20    2.17
  -5  -5  -3   76.44    2.50
   5  -5   3   78.02    2.20
  -5   5  -4   87.08    2.42
  -5  -5   4   83.47    2.84
   5  -5  -4   80.22    2.89
   5   5   4   86.75    2.67
  -5   5   4   82.75    2.33
  -5  -5  -4   79.51    2.68
   5   5  -4   81.11    2.76
   5  -5   4   82.14    2.36
   5   5   5   67.39    2.26
  -5   5  -5   70.64    2.01
   5  -5  -5   66.84    2.40
  -5  -5   5   70.26    2.36
  -5  -5  -5   64.20    2.21
   5  -5   5   64.62    1.96
  -5   5   5   67.02    1.93
   5   5  -5   65.22    2.29
   5  -5  -6   51.54    2.01
  -5  -5   6   52.04    1.96
   5   5   6   52.82    1.94
  -5   5  -6   53.44    1.69
   5  -5   6   56.65    1.67
   5   5  -6   58.13    1.96
  -5   5   6   56.81    1.63
  -5  -5  -6   55.20    1.86
   5   5   7   40.85    1.59
  -5   5  -7   41.30    1.34
   5  -5  -7   38.23    1.57
  -5  -5   7   39.61    1.53
   5  -5   7   42.57    1.33
   5   5  -7   41.51    1.54
  -5   5   7   40.67    1.27
  -5  -5  -7   40.31    1.44
   5  -5  -8   35.87    1.44
  -5   5  -8   36.17    1.23
  -5  -5   8   35.54    1.39
   5   5  -8   35.48    1.41
  -5   5   8   34.53    1.15
   5  -5   8   36.59    1.21
   5   6   0    0.03    0.23
   5  -6   0   -0.02    0.20
  -5   6   0    0.10    0.15
  -5  -6   0    0.08    0.15
   5   6   0    0.14    0.20
   5  -6  -1    0.71    0.24
  -5  -6   1    0.93    0.20
   5   6   1    0.61    0.26
  -5   6  -1    0.73    0.18
  -5  -6  -1    0.92    0.18
   5   6  -1    1.10    0.27
  -5   6   1    1.26    0.19
   5   6  -1    0.95    0.24
   5  -6   1    1.01    0.23
   5   6   2    0.38    0.26
  -5  -6   2    0.54    0.19
   5  -6  -2    0.32    0.23
  -5   6  -2    0.61    0.17
   5   6  -2    0.25    0.24
  -5  -6  -2    0.47    0.20
   5   6  -2    0.37    0.22
   5  -6   2    0.45    0.16
  -5   6   2    0.50    0.16
   5  -6   2    0.49    0.19
  -5  -6   3    0.33    0.17
  -5   6  -3    0.24    0.16
   5   6   3    0.20    0.26
   5  -6  -3    0.38    0.23
   5  -6   3    0.00    0.15
  -5  -6  -3    0.07    0.18
   5   6  -3    0.14    0.21
  -5   6   3    0.37    0.15
   5   6   4    0.02    0.26
  -5  -6   4    0.05    0.16
  -5   6  -4    0.07    0.18
   5  -6  -4    0.29    0.21
  -5   6   4    0.24    0.15
   5  -6   4    0.19    0.16
  -5  -6  -4    0.31    0.19
   5   6  -4    0.21    0.22
   5  -6  -5    0.59    0.25
   5   6   5    0.38    0.26
  -5   6  -5    0.47    0.21
  -5  -6   5    0.49    0.19
   5   6  -5    0.42    0.24
  -5   6   5    0.25    0.16
  -5  -6  -5    0.34    0.19
   5  -6   5    0.27    0.17
  -5   6  -6    0.66    0.23
  -5  -6   6    0.66    0.22
   5  -6  -6    0.46    0.24
   5   6   6    0.82    0.30
  -5  -6  -6    0.64    0.22
   5   6  -6    0.66    0.26
  -5   6   6    0.96    0.20
   5  -6   6    0.77    0.21
   5  -6  -7    0.35    0.24
   5   6   7    0.32    0.32
  -5  -6   7    0.48    0.21
  -5   6  -7    0.38    0.23
   5  -6   7    0.41    0.20
  -5  -6  -7    0.39    0.21
   5   6  -7    0.42    0.26
  -5   6   7    0.27    0.18
  -5   7   0  100.58    2.75
   5  -7   0   98.22    3.39
   5   7   0   93.51    3.20
   5   7   0   94.26    3.01
  -5  -7   0   98.77    3.24
   5  -7  -1   69.11    2.55
  -5  -7   1   74.22    2.44
  -5   7  -1   71.44    2.05
   5   7   1   70.28    2.32
   5  -7   1   70.84    2.56
  -5   7   1   72.23    2.06
   5   7  -1   69.96    2.42
   5   7  -1   70.82    2.30
  -5  -7  -1   69.40    2.40
   5   7   2   67.07    2.25
   5  -7  -2   66.38    2.45
  -5  -7   2   68.56    2.34
  -5   7   2   68.70    1.97
  -5  -7  -2   67.51    2.26
   5  -7   2   67.75    1.99
   5   7  -2   69.20    2.33
   5   7  -2   67.63    2.21
   5  -7   2   66.46    2.45
   5  -7  -3   53.01    2.04
   5   7   3   54.66    1.92
  -5   7  -3   56.94    1.67
  -5  -7   3   52.30    1.94
   5  -7   3   54.84    1.67
  -5  -7  -3   55.75    1.88
   5   7  -3   56.90    1.96
  -5   7   3   56.10    1.64
  -5   7  -4   47.40    1.42
  -5  -7   4   44.32    1.65
   5  -7  -4   44.45    1.74
   5   7   4   46.06    1.68
  -5  -7  -4   43.83    1.57
  -5   7   4   44.49    1.38
   5  -7   4   43.89    1.41
   5   7  -4   45.85    1.66
  -5  -7   5   39.78    1.53
   5  -7  -5   40.87    1.62
   5   7   5   42.64    1.61
  -5   7  -5   42.94    1.33
  -5  -7  -5   39.77    1.47
  -5   7   5   41.83    1.30
   5   7  -5   41.82    1.56
   5  -7   5   40.49    1.33
   5   7   6   47.80    1.76
  -5   7  -6   48.15    1.49
  -5   7   6   46.67    1.44
   5  -7   6   45.10    1.47
   5   7  -6   45.08    1.72
   5   8   0    0.16    0.25
  -5  -8   0    0.06    0.17
   5  -8   0    0.14    0.24
  -5   8   0    0.29    0.17
   5   8   1    0.34    0.28
  -5  -8   1    0.54    0.18
  -5   8  -1    0.29    0.18
   5  -8  -1    0.27    0.23
   5   8  -1    0.53    0.28
   5   8  -1    0.59    0.25
  -5  -8  -1    0.50    0.18
  -5   8   1    0.52    0.18
   5  -8   1    0.26    0.23
  -5  -8  -1    0.27    0.22
   5   8   2    0.16    0.27
  -5  -8   2    0.03    0.16
   5  -8  -2    0.26    0.24
   5   8  -2   -0.08    0.22
  -5  -8  -2   -0.09    0.19
   5   8  -2   -0.06    0.23
  -5   8   2    0.16    0.16
   5  -8   2    0.39    0.26
   5  -8  -3    0.21    0.23
  -5  -8   3    0.15    0.20
   5   8   3    0.26    0.28
  -5   8  -3    0.14    0.18
  -5   8   3    0.09    0.16
  -5  -8  -3   -0.14    0.19
   5  -8   3    0.08    0.18
   5   8  -3    0.22    0.24
  -5  -8   4    0.66    0.21
   5   8   4    0.86    0.33
   5  -8  -4    0.77    0.27
  -5   8  -4    1.03    0.23
   5   8  -4    0.89    0.28
  -5   8   4    0.83    0.20
   5  -8   4    0.56    0.21
  -5  -8  -4    0.78    0.24
  -5   8  -5    0.44    0.22
   5   8  -5    0.23    0.25
  -5  -9   0   62.48    2.16
  -5  -9   0   65.66    2.20
   5   9   0   60.59    2.15
   5  -9   0   63.15    2.38
   5   9   1   52.38    1.90
   5  -9  -1   56.04    2.10
  -5  -9   1   52.48    1.90
  -5  -9  -1   54.14    1.88
   5   9  -1   53.75    1.95
   5  -9   1   52.36    2.08
  -5  -9  -1   55.16    1.90
   5   9  -1   54.88    1.92
  -5  -9   2   45.46    1.63
   5  -9   2   42.75    1.78
  -5  -9  -2   46.13    1.60
   5   9  -2   43.45    1.65
   5   9  -2   44.54    1.67
   5   9  -3   41.30    1.57
  -5   9  -4   52.27    1.63
  -6   0   0   75.97    2.60
   6   0   0   73.51    2.48
  -6   0  -1   73.79    2.49
   6   0   1   69.37    2.40
  -6   0   1   72.01    2.52
   6   0  -1   72.66    2.41
  -6   0   2   46.68    1.73
   6   0  -2   46.65    1.65
   6   0   2   45.82    1.62
  -6   0  -3   37.63    1.32
   6   0   3   37.03    1.40
  -6   0   3   36.27    1.45
   6   0  -3   38.76    1.39
   6   0  -4   25.50    1.02
  -6   0  -4   25.48    0.95
   6   0   4   24.09    1.07
  -6   0  -5   52.07    1.72
   6   0   5   50.88    1.81
   6   0  -5   50.91    1.81
  -6   0   5   50.05    1.90
   6   0  -6   43.79    1.62
   6   0   6   44.98    1.67
  -6   0  -6   44.56    1.53
  -6   0   6   44.03    1.70
  -6   0   7   33.94    1.42
   6   0  -7   38.01    1.41
   6   0   7   34.76    1.44
   6  -1   0    1.17    0.23
   6   1   0    1.25    0.25
  -6   1   0    0.98    0.24
  -6  -1   0    0.94    0.22
  -6   1  -1   -0.12    0.17
   6   1   1    0.04    0.18
   6  -1  -1   -0.08    0.18
  -6  -1   1   -0.15    0.17
   6   1  -1    0.06    0.19
  -6   1   1   -0.17    0.18
   6  -1   1   -0.05    0.17
  -6  -1  -1   -0.09    0.16
  -6  -1   2    0.08    0.19
   6   1   2    0.04    0.24
   6  -1  -2    0.17    0.19
   6  -1   2   -0.13    0.21
  -6   1   2   -0.18    0.19
   6   1  -2    0.11    0.19
  -6  -1   3    1.58    0.26
   6   1   3    1.20    0.32
   6  -1  -3    1.58    0.26
   6   1  -3    1.36    0.26
  -6  -1  -3    1.36    0.24
   6  -1   3    0.89    0.29
  -6   1   3    1.12    0.26
  -6  -1   4    0.41    0.21
   6  -1  -4    0.60    0.22
   6   1   4    0.13    0.28
  -6  -1  -4    0.33    0.20
   6   1  -4    0.35    0.22
   6  -1   4    0.38    0.27
  -6   1   4    0.21    0.20
   6   1   5    0.42    0.30
   6  -1  -5    0.07    0.20
  -6  -1   5    0.01    0.22
  -6  -1  -5    0.49    0.20
  -6   1   5    0.29    0.21
   6  -1   5    0.46    0.30
   6   1  -5    0.38    0.23
   6   1   6    1.95    0.37
   6  -1  -6    2.44    0.32
  -6  -1   6    1.62    0.29
  -6   1   6    1.92    0.30
  -6  -1  -6    2.51    0.28
   6   1  -6    1.96    0.32
   6  -1   6    2.27    0.41
   6   1   7    1.93    0.41
  -6  -1   7    1.80    0.32
   6  -1  -7    2.90    0.36
  -6   1   7    2.02    0.31
   6   1  -7    2.01    0.33
  -6  -1  -7    2.20    0.28
  -6  -1  -8    1.29    0.26
   6   2   0   35.89    1.37
  -6  -2   0   38.01    1.38
   6  -2   0   36.07    1.42
   6  -2  -1   55.16    2.00
  -6  -2   1   55.34    1.96
   6   2   1   53.54    1.85
   6   2   1   53.83    1.90
  -6   2  -1   57.54    1.59
  -6  -2  -1   54.38    1.92
   6   2  -1   52.33    1.90
   6  -2   1   53.55    1.97
   6  -2  -2   58.72    2.00
   6  -2  -2   57.13    2.15
  -6  -2   2   59.57    2.12
   6   2  -2   60.42    2.06
  -6  -2   3   55.07    2.03
   6   2   3   55.75    1.95
   6  -2  -3   56.82    1.93
   6  -2  -3   56.53    2.08
  -6   2  -3   55.79    1.73
   6   2  -3   54.77    1.97
   6  -2   3   57.56    1.65
  -6  -2  -3   56.82    1.90
  -6   2  -4   39.52    1.30
   6   2   4   40.44    1.53
   6  -2  -4   39.56    1.44
   6  -2  -4   38.84    1.56
   6  -2   4   39.53    1.23
  -6  -2  -4   40.09    1.40
   6   2  -4   38.94    1.47
  -6   2  -5   39.96    1.31
   6  -2  -5   40.25    1.45
  -6  -2   5   39.79    1.54
   6   2   5   37.78    1.52
   6   2  -5   39.06    1.48
   6  -2   5   38.38    1.22
  -6  -2  -5   39.03    1.39
   6   2   6   33.71    1.40
  -6  -2   6   34.41    1.38
  -6   2  -6   34.28    1.20
   6  -2  -6   33.68    1.30
   6  -2   6   35.25    1.12
  -6  -2  -6   33.15    1.24
   6   2  -6   34.69    1.35
  -6   2  -7   31.94    1.16
   6   2   7   31.33    1.36
   6  -2  -7   33.10    1.29
  -6  -2  -7   32.78    1.20
   6  -3   0    0.49    0.23
   6   3   0    0.44    0.22
  -6  -3   0    0.39    0.19
  -6   3   0    0.43    0.16
  -6  -3   1    0.11    0.19
   6   3   1   -0.01    0.20
   6  -3  -1   -0.05    0.19
  -6   3  -1    0.00    0.14
   6   3   1   -0.24    0.22
   6  -3   1    0.11    0.18
  -6  -3  -1    0.00    0.17
  -6   3   1    0.20    0.14
   6   3  -1    0.05    0.21
  -6  -3   2    0.73    0.21
   6  -3  -2    0.90    0.25
   6   3   2    1.08    0.31
  -6   3   2    0.73    0.17
   6   3  -2    0.94    0.26
  -6   3  -3   -0.03    0.19
   6  -3  -3    0.27    0.24
   6   3   3    0.42    0.28
  -6  -3   3    0.36    0.20
  -6  -3  -3    0.36    0.21
   6  -3   3    0.31    0.16
  -6   3   3    0.62    0.17
   6   3  -3    0.42    0.23
  -6   3  -4    0.61    0.23
   6   3   4    0.25    0.29
   6  -3  -4    0.76    0.27
  -6  -3   4    0.49    0.24
  -6  -3  -4    0.76    0.22
   6  -3   4    0.35    0.17
  -6   3   4    0.51    0.17
   6   3  -4    0.43    0.24
   6  -3  -5    1.10    0.28
  -6  -3   5    0.89    0.24
   6   3   5    0.97    0.35
  -6   3  -5    1.02    0.26
   6  -3   5    0.90    0.20
  -6   3   5    1.00    0.20
  -6  -3  -5    1.09    0.24
   6   3  -5    1.01    0.27
  -6  -3   6    0.72    0.24
   6  -3  -6    0.99    0.30
  -6   3  -6    0.86    0.27
   6   3   6    0.97    0.36
  -6   3   6    0.90    0.20
  -6  -3  -6    0.88    0.24
   6  -3   6    1.11    0.22
   6   3  -6    1.04    0.29
  -6   3   7    1.49    0.23
   6  -3   7    1.88    0.26
   6  -4   0   37.07    1.50
   6   4   0   37.51    1.45
  -6   4   0   40.34    1.20
  -6  -4   0   38.61    1.42
  -6  -4   1   44.72    1.58
  -6   4  -1   44.19    1.32
   6   4   1   42.11    1.58
   6  -4  -1   41.83    1.65
   6   4   1   43.77    1.58
   6  -4   1   43.03    1.65
  -6   4   1   44.00    1.31
  -6  -4  -1   41.59    1.53
   6   4  -1   40.37    1.58
   6   4   2   43.60    1.63
   6  -4  -2   45.33    1.72
  -6  -4   2   44.77    1.64
  -6   4   2   45.44    1.35
  -6  -4  -2   43.54    1.57
   6   4  -2   43.03    1.63
  -6  -4   3   48.47    1.79
   6   4   3   45.73    1.76
   6  -4  -3   45.66    1.85
  -6  -4  -3   49.72    1.71
  -6   4   3   50.95    1.47
   6  -4   3   50.33    1.49
   6   4  -3   50.37    1.79
  -6  -4   4   55.15    2.02
   6  -4  -4   56.89    2.09
   6   4   4   56.13    1.99
  -6   4  -4   57.40    1.72
   6   4  -4   55.17    1.99
  -6   4   4   55.93    1.64
  -6  -4  -4   53.07    1.89
   6  -4   4   53.67    1.66
  -6  -4   5   42.17    1.60
  -6   4  -5   42.45    1.36
   6  -4  -5   41.19    1.65
   6   4   5   43.42    1.64
   6   4  -5   41.28    1.58
   6  -4   5   40.24    1.32
  -6   4   5   40.81    1.29
  -6  -4  -5   41.41    1.48
  -6   4  -6   32.16    1.11
   6   4   6   29.38    1.34
  -6   4   6   32.48    1.04
   6  -4   6   29.96    1.05
  -6   4   7   22.81    0.83
   6  -5   0   -0.07    0.20
  -6  -5   0    0.07    0.18
  -6   5   0   -0.05    0.16
   6   5   0    0.09    0.22
   6   5   1    0.70    0.30
  -6   5  -1    0.09    0.16
   6   5   1   -0.25    0.20
   6  -5  -1    0.21    0.22
  -6  -5   1    0.05    0.17
  -6   5   1   -0.15    0.15
   6   5  -1   -0.13    0.21
   6  -5   1    0.04    0.22
  -6  -5   2    0.07    0.20
   6  -5  -2    0.03    0.23
   6   5   2    0.08    0.27
  -6  -5  -2   -0.06    0.21
   6   5  -2   -0.26    0.21
  -6   5   2    0.18    0.16
   6   5   3    0.02    0.29
   6  -5  -3    0.42    0.24
  -6  -5   3    0.39    0.20
  -6   5   3    0.47    0.18
   6  -5   3    0.45    0.19
   6   5  -3    0.68    0.26
  -6  -5  -3    0.32    0.22
  -6  -5   4    2.34    0.30
   6   5   4    1.88    0.40
   6  -5  -4    2.38    0.36
  -6   5  -4    2.50    0.29
  -6   5   4    3.00    0.28
   6   5  -4    2.75    0.37
   6  -5   4    2.33    0.27
  -6  -5  -4    2.68    0.31
  -6   5  -5    0.81    0.25
   6   5   5    0.99    0.36
  -6   5   5    1.29    0.22
   6  -5   5    1.41    0.24
  -6  -6   0   56.10    1.94
   6   6   0   53.32    1.98
  -6   6   0   56.47    1.66
   6  -6   0   53.70    2.08
   6   6   1   41.88    1.57
   6  -6  -1   38.34    1.61
  -6  -6   1   39.48    1.48
  -6   6  -1   40.81    1.28
   6  -6   1   39.74    1.61
   6   6  -1   40.51    1.54
  -6   6   1   40.95    1.27
  -6  -6   2   38.98    1.46
   6   6   2   38.30    1.52
   6  -6  -2   39.30    1.59
  -6   6  -2   38.86    1.24
   6   6  -2   38.02    1.50
  -6  -6  -2   40.00    1.45
  -6   6   2   39.31    1.24
   6  -6  -3   35.90    1.49
  -6  -6   3   34.10    1.36
   6   6   3   33.69    1.43
   6  -6   3   37.00    1.19
  -6   6   3   36.19    1.15
   6   6  -3   35.96    1.42
   6   6   4   35.38    1.43
  -6   6   4   33.55    1.11
   6  -6   4   32.72    1.13
  -6   6  -5   28.45    1.01
  -6  -7   0    0.16    0.19
   6  -7   0    0.19    0.25
   6   7   0   -0.14    0.28
  -6  -7   1    1.19    0.25
   6  -7  -1    1.05    0.33
   6   7   1    0.87    0.35
   6  -7   1    0.86    0.31
   6   7   2    0.01    0.30
  -7   0   0    0.01    0.23
   7   0   0    0.47    0.24
  -7   0   1   -0.08    0.24
   7   0   1    0.27    0.25
   7   0  -1    0.65    0.26
   7   0  -2    0.30    0.24
  -7   0   2   -0.03    0.26
   7   0  -3    0.05    0.23
  -7   0   3   -0.25    0.25
   7   0  -4   -0.07    0.24
   7   0   4   -0.09    0.31
   7   1   0   90.03    2.98
  -7   1   0   86.78    3.08
   7   1   1   98.01    3.24
  -7  -1   1   98.61    3.35
   7   1  -1   97.86    3.24
  -7   1   1   93.46    3.36
  -7  -1   2   80.81    3.00
   7   1  -2   87.13    2.91
  -7  -1  -2   89.56    2.85
   7  -1  -3   72.14    2.42
  -7   1   3   63.29    2.51
   7   1  -3   72.05    2.45
  -7  -1  -3   72.22    2.36
   7   1   4   52.39    1.95
   7  -1  -4   54.00    1.93
  -7  -1  -4   54.04    1.86
   7   2   0    0.16    0.25
  -7   2   0    0.12    0.24
   7   2   1   -0.20    0.23
  -7  -2   1   -0.22    0.22
   7   2  -1   -0.07    0.24
  -7   2   1   -0.24    0.21
  -7  -2   2   -0.14    0.24
  -7   2   2   -0.22    0.22
   7   2  -2   -0.09    0.24
  -7  -2  -2    0.23    0.25
  -7  -2  -3   -0.13    0.23
   7   2   4    0.02    0.34
   7  -3   0   59.63    2.23
  -7  -3   1   74.64    2.62
   7  -3  -1   73.96    2.70
  -7  -3   2   79.68    2.80
   7  -4   0    0.18    0.24
  -7  -4   1   -0.01    0.23
;
_shelx_hkl_checksum              21416
loop_
_space_group_symop_id
_space_group_symop_operation_xyz
1 +X,+Y,+Z
2 -X,-Y,+Z
3 1/2+X,1/2-Y,-Z
4 1/2-X,1/2+Y,-Z
loop_
_atom_site_label
_atom_site_type_symbol
_atom_site_fract_x
_atom_site_fract_y
_atom_site_fract_z
_atom_site_U_iso_or_equiv
_atom_site_adp_type
_atom_site_occupancy
_atom_site_site_symmetry_order
_atom_site_calc_flag
_atom_site_refinement_flags_posn
_atom_site_refinement_flags_adp
_atom_site_refinement_flags_occupancy
Pt1 Pt 1.0000 1.0000 0.99796(2) 0.01433(6) Uani 1 2 d S T P
Br1 Br 0.55284(9) 1.00392(15) 1.01308(5) 0.01746(17) Uani 0.5 1 d . . P
N1 N 1.0136(7) 1.2227(3) 1.1984(2) 0.0226(6) Uani 1 1 d . . .
N2 N 0.9895(17) 0.8627(2) 0.8513(2) 0.0199(6) Uani 1 1 d D . .
H2A H 1.1348 0.8217 0.8436 0.024 Uiso 1 1 calc DR U .
H2B H 0.8769 0.7986 0.8670 0.024 Uiso 1 1 calc DR U .
C1 C 1.0086(18) 1.1406(3) 1.1284(3) 0.0194(7) Uani 1 1 d . . .
C2 C 0.9289(6) 0.9350(3) 0.7334(3) 0.0202(8) Uani 1 1 d . . .
H2 H 0.7539 0.9578 0.7351 0.024 Uiso 1 1 calc R U .
C3 C 0.9781(9) 0.8516(3) 0.6178(3) 0.0274(8) Uani 1 1 d . . .
H3A H 0.8754 0.7705 0.6184 0.033 Uiso 1 1 calc R U .
H3B H 1.1482 0.8224 0.6173 0.033 Uiso 1 1 calc R U .
C4 C 0.9257(9) 0.9347(4) 0.5014(3) 0.0331(9) Uani 1 1 d . . .
H4A H 0.7524 0.9569 0.4983 0.040 Uiso 1 1 calc R U .
H4B H 0.9654 0.8813 0.4265 0.040 Uiso 1 1 calc R U .
loop_
_atom_site_aniso_label
_atom_site_aniso_U_11
_atom_site_aniso_U_22
_atom_site_aniso_U_33
_atom_site_aniso_U_23
_atom_site_aniso_U_13
_atom_site_aniso_U_12
Pt1 0.00947(9) 0.01031(9) 0.02320(9) 0.000 0.000 0.00017(7)
Br1 0.0119(5) 0.0214(3) 0.0192(2) -0.0022(8) 0.00046(18) 0.0012(7)
N1 0.0186(15) 0.0196(13) 0.0296(13) 0.0048(10) -0.001(2) 0.0015(16)
N2 0.0185(18) 0.0147(12) 0.0266(12) -0.0016(9) 0.002(3) -0.003(3)
C1 0.0089(17) 0.0143(14) 0.0350(15) 0.0091(12) -0.003(3) 0.002(3)
C2 0.0165(19) 0.0195(17) 0.0246(16) -0.0008(13) 0.0001(13) 0.0000(14)
C3 0.028(2) 0.0255(17) 0.0288(15) -0.0052(13) 0.005(3) -0.002(2)
C4 0.036(2) 0.037(2) 0.026(2) -0.0061(14) -0.0014(15) -0.0001(18)
loop_
_atom_type_symbol
_atom_type_description
_atom_type_scat_dispersion_real
_atom_type_scat_dispersion_imag
_atom_type_scat_source
C C 0.0033 0.0016
;
International Tables for Crystallography
(Vol. C, Tables 4.2.6.8 and 6.1.1.4)
;
N N 0.0061 0.0033
;
International Tables for Crystallography
(Vol. C, Tables 4.2.6.8 and 6.1.1.4)
;
Br Br -0.2901 2.4595
;
International Tables for Crystallography
(Vol. C, Tables 4.2.6.8 and 6.1.1.4)
;
Pt Pt -1.7033 8.3905
;
International Tables for Crystallography
(Vol. C, Tables 4.2.6.8 and 6.1.1.4)
;
H H 0.0000 0.0000
;
International Tables for Crystallography
(Vol. C, Table 6.1.1.4)
;
loop_
_geom_angle_atom_site_label_1
_geom_angle_atom_site_label_2
_geom_angle_atom_site_label_3
_geom_angle
_geom_angle_site_symmetry_1
_geom_angle_site_symmetry_3
C1 Pt1 C1 89.92(17) . 2_775
C1 Pt1 N2 175.97(10) . .
C1 Pt1 N2 94.10(12) 2_775 .
C1 Pt1 N2 94.10(12) . 2_775
C1 Pt1 N2 175.97(10) 2_775 2_775
N2 Pt1 N2 81.89(14) . 2_775
C1 Pt1 Br1 88.1(3) . .
C1 Pt1 Br1 86.6(3) 2_775 .
N2 Pt1 Br1 91.8(3) . .
N2 Pt1 Br1 93.8(3) 2_775 .
C1 Pt1 Br1 86.6(3) . 2_775
C1 Pt1 Br1 88.1(3) 2_775 2_775
N2 Pt1 Br1 93.8(3) . 2_775
N2 Pt1 Br1 91.8(3) 2_775 2_775
Br1 Pt1 Br1 172.52(2) . 2_775
Br1 Br1 Pt1 170.8(3) 2_675 .
C2 N2 Pt1 109.4(2) . .
C2 N2 H2A 109.8 . .
Pt1 N2 H2A 109.8 . .
C2 N2 H2B 109.8 . .
Pt1 N2 H2B 109.8 . .
H2A N2 H2B 108.2 . .
N1 C1 Pt1 177.6(3) . .
N2 C2 C2 107.0(3) . 2_775
N2 C2 C3 113.0(3) . .
C2 C2 C3 111.8(2) 2_775 .
N2 C2 H2 108.3 . .
C2 C2 H2 108.3 2_775 .
C3 C2 H2 108.3 . .
C2 C3 C4 109.9(3) . .
C2 C3 H3A 109.7 . .
C4 C3 H3A 109.7 . .
C2 C3 H3B 109.7 . .
C4 C3 H3B 109.7 . .
H3A C3 H3B 108.2 . .
C3 C4 C4 110.7(3) . 2_775
C3 C4 H4A 109.5 . .
C4 C4 H4A 109.5 2_775 .
C3 C4 H4B 109.5 . .
C4 C4 H4B 109.5 2_775 .
H4A C4 H4B 108.1 . .
loop_
_geom_bond_atom_site_label_1
_geom_bond_atom_site_label_2
_geom_bond_distance
_geom_bond_site_symmetry_2
Pt1 C1 1.983(3) .
Pt1 C1 1.983(3) 2_775
Pt1 N2 2.088(2) .
Pt1 N2 2.088(2) 2_775
Pt1 Br1 2.4940(7) .
Pt1 Br1 2.4940(7) 2_775
Br1 Br1 0.5933(10) 2_675
N1 C1 1.112(4) .
N2 C2 1.496(4) .
N2 H2A 0.9100 .
N2 H2B 0.9100 .
C2 C2 1.517(6) 2_775
C2 C3 1.520(4) .
C2 H2 1.0000 .
C3 C4 1.529(5) .
C3 H3A 0.9900 .
C3 H3B 0.9900 .
C4 C4 1.542(9) 2_775
C4 H4A 0.9900 .
C4 H4B 0.9900 .
loop_
_geom_torsion_atom_site_label_1
_geom_torsion_atom_site_label_2
_geom_torsion_atom_site_label_3
_geom_torsion_atom_site_label_4
_geom_torsion
_geom_torsion_site_symmetry_1
_geom_torsion_site_symmetry_4
Pt1 N2 C2 C2 42.0(6) . 2_775
Pt1 N2 C2 C3 165.5(4) . .
N2 C2 C3 C4 -176.8(5) . .
C2 C2 C3 C4 -55.9(5) 2_775 .
C2 C3 C4 C4 56.5(5) . 2_775
