#------------------------------------------------------------------------------
#$Date: 2019-11-23 09:00:51 +0200 (Sat, 23 Nov 2019) $
#$Revision: 232624 $
#$URL: file:///home/coder/svn-repositories/cod/cif/4/34/79/4347993.cif $
#------------------------------------------------------------------------------
#
# This file is available in the Crystallography Open Database (COD),
# http://www.crystallography.net/
#
# All data on this site have been placed in the public domain by the
# contributors.
#
data_4347993
loop_
_publ_author_name
'Dolgopolova, Ekaterina A.'
'Rice, Allison M.'
'Smith, Mark D.'
'Shustova, Natalia B.'
_publ_section_title
;
 Photophysics, Dynamics, and Energy Transfer in Rigid Mimics of GFP-based
 Systems.
;
_journal_issue                   15
_journal_name_full               'Inorganic chemistry'
_journal_page_first              7257
_journal_page_last               7264
_journal_paper_doi               10.1021/acs.inorgchem.6b00835
_journal_volume                  55
_journal_year                    2016
_chemical_formula_moiety         'C12 H11 Cl N2 O2'
_chemical_formula_sum            'C12 H11 Cl N2 O2'
_chemical_formula_weight         250.68
_space_group_crystal_system      triclinic
_space_group_IT_number           2
_space_group_name_Hall           '-P 1'
_space_group_name_H-M_alt        'P -1'
_atom_sites_solution_hydrogens   mixed
_audit_creation_date             2016-02-03
_audit_creation_method
;
Olex2 1.2
(compiled 2015.09.30 svn.r3233 for OlexSys, GUI svn.r5103)
;
_cell_angle_alpha                92.1523(13)
_cell_angle_beta                 96.7115(12)
_cell_angle_gamma                98.5268(12)
_cell_formula_units_Z            2
_cell_length_a                   6.8751(2)
_cell_length_b                   8.0439(2)
_cell_length_c                   10.0589(3)
_cell_measurement_reflns_used    9051
_cell_measurement_temperature    100(2)
_cell_measurement_theta_max      29.93
_cell_measurement_theta_min      2.56
_cell_volume                     545.51(3)
_computing_cell_refinement       'SAINT v8.34A (Bruker, 2013)'
_computing_data_collection       'Bruker APEXII v2014.9-0 (Bruker, 2014)'
_computing_data_reduction        'SAINT v8.34A (Bruker, 2013)'
_computing_molecular_graphics    'Olex2 (Dolomanov et al., 2009)'
_computing_publication_material  'Olex2 (Dolomanov et al., 2009)'
_computing_structure_refinement  'XL (Sheldrick, 2008)'
_computing_structure_solution    'ShelXT (Sheldrick, 2015)'
_diffrn_ambient_temperature      100(2)
_diffrn_detector                 'Bruker PHOTON-100 area detector'
_diffrn_detector_area_resol_mean 10.4
_diffrn_detector_type            'CMOS area detector'
_diffrn_measured_fraction_theta_full 1.000
_diffrn_measured_fraction_theta_max 1.000
_diffrn_measurement_device       'three-circle diffractometer'
_diffrn_measurement_device_type  'Bruker D8 Quest'
_diffrn_measurement_method       '\w and \f scans'
_diffrn_radiation_monochromator  'mirror optics'
_diffrn_radiation_probe          x-ray
_diffrn_radiation_type           MoK\a
_diffrn_radiation_wavelength     0.71073
_diffrn_reflns_av_R_equivalents  0.0500
_diffrn_reflns_av_unetI/netI     0.0268
_diffrn_reflns_Laue_measured_fraction_full 1.000
_diffrn_reflns_Laue_measured_fraction_max 1.000
_diffrn_reflns_limit_h_max       9
_diffrn_reflns_limit_h_min       -9
_diffrn_reflns_limit_k_max       11
_diffrn_reflns_limit_k_min       -11
_diffrn_reflns_limit_l_max       14
_diffrn_reflns_limit_l_min       -14
_diffrn_reflns_number            29542
_diffrn_reflns_point_group_measured_fraction_full 1.000
_diffrn_reflns_point_group_measured_fraction_max 1.000
_diffrn_reflns_theta_full        30.038
_diffrn_reflns_theta_max         30.038
_diffrn_reflns_theta_min         2.564
_diffrn_source                   'microfocus sealed X-ray tube'
_diffrn_source_type              'Incoatec I\ms'
_exptl_absorpt_coefficient_mu    0.340
_exptl_absorpt_correction_T_max  0.2118
_exptl_absorpt_correction_T_min  0.1779
_exptl_absorpt_correction_type   multi-scan
_exptl_absorpt_process_details
;
SADABS-2014/4 (Bruker,2014/4) was used for absorption correction.
wR2(int) was 0.0940 before and 0.0534 after correction.
The Ratio of minimum to maximum transmission is 0.8399.
The \l/2 correction factor is 0.00150.
;
_exptl_crystal_colour            yellow
_exptl_crystal_colour_primary    yellow
_exptl_crystal_density_diffrn    1.526
_exptl_crystal_description       plate
_exptl_crystal_F_000             260
_exptl_crystal_size_max          0.22
_exptl_crystal_size_mid          0.16
_exptl_crystal_size_min          0.08
_refine_diff_density_max         0.478
_refine_diff_density_min         -0.364
_refine_diff_density_rms         0.056
_refine_ls_extinction_coef       0.012(3)
_refine_ls_extinction_expression Fc^*^=kFc[1+0.001xFc^2^\l^3^/sin(2\q)]^-1/4^
_refine_ls_extinction_method     'SHELXL-2014/7 (Sheldrick 2014'
_refine_ls_goodness_of_fit_ref   1.038
_refine_ls_hydrogen_treatment    mixed
_refine_ls_matrix_type           full
_refine_ls_number_parameters     177
_refine_ls_number_reflns         3195
_refine_ls_number_restraints     0
_refine_ls_restrained_S_all      1.038
_refine_ls_R_factor_all          0.0426
_refine_ls_R_factor_gt           0.0316
_refine_ls_shift/su_max          0.000
_refine_ls_shift/su_mean         0.000
_refine_ls_structure_factor_coef Fsqd
_refine_ls_weighting_details
'w=1/[\s^2^(Fo^2^)+(0.0434P)^2^+0.1645P] where P=(Fo^2^+2Fc^2^)/3'
_refine_ls_weighting_scheme      calc
_refine_ls_wR_factor_gt          0.0781
_refine_ls_wR_factor_ref         0.0823
_reflns_Friedel_coverage         0.000
_reflns_number_gt                2684
_reflns_number_total             3195
_reflns_threshold_expression     'I > 2\s(I)'
_cod_data_source_file            ic6b00835_si_005.cif
_cod_data_source_block           ead2ohcl_2m
_cod_database_code               4347993
_shelx_space_group_comment
;
The symmetry employed for this shelxl refinement is uniquely defined
by the following loop, which should always be used as a source of
symmetry information in preference to the above space-group names.
They are only intended as comments.
;
_shelx_estimated_absorpt_t_max   0.973
_shelx_estimated_absorpt_t_min   0.929
_olex2_refinement_description
;
1. Fixed Uiso
 At 1.5 times of:
  All C(H,H,H) groups
2.a Idealised Me refined as rotating group:
 C4(H4A,H4B,H4C), C5(H5A,H5B,H5C)
;
_shelx_res_file
;
    ead2ohcl_2m.res created by SHELXL-2014/7

TITL EAD2OHCl_2m in P-1
CELL 0.71073 6.8751 8.0439 10.0589 92.1523 96.7115 98.5268
ZERR 2 0.0002 0.0002 0.0003 0.0013 0.0012 0.0012
LATT 1
SFAC C H Cl N O
UNIT 24 22 2 4 4

L.S. 7
PLAN  9
SIZE 0.08 0.16 0.22
TEMP -173.15
HTAB O2 N2
BOND $H
LIST 4
MORE -1
CONF
fmap 2
acta 60.08
REM <olex2.extras>
REM <HklSrc "%.\\EAD2OHCl_2m.hkl">
REM </olex2.extras>

WGHT    0.043400    0.164500
EXTI    0.012135
FVAR       0.61719
CL1   3    1.067567   -0.021247    0.793422    11.00000    0.01405    0.01661 =
         0.01443    0.00291   -0.00211    0.00607
O1    5    0.583431    0.261531    0.135283    11.00000    0.01450    0.02097 =
         0.01208    0.00168    0.00282    0.00553
O2    5    0.362344    0.300699    0.654320    11.00000    0.01669    0.02627 =
         0.01270    0.00550    0.00382    0.01205
H2    2    0.331105    0.327221    0.569841    11.00000    0.04160
N1    4    0.298126    0.367392    0.176659    11.00000    0.01215    0.01552 =
         0.01029    0.00224   -0.00078    0.00394
N2    4    0.308361    0.348747    0.398900    11.00000    0.01159    0.01375 =
         0.01209    0.00165    0.00086    0.00320
C1    1    0.469987    0.299323    0.211883    11.00000    0.01170    0.01210 =
         0.01157    0.00247   -0.00057    0.00138
C2    1    0.473558    0.285557    0.358727    11.00000    0.01142    0.01200 =
         0.01055    0.00105    0.00108    0.00150
C3    1    0.210401    0.393938    0.290940    11.00000    0.01157    0.01146 =
         0.01263    0.00109    0.00067    0.00082
C4    1    0.023950    0.466793    0.285155    11.00000    0.01260    0.01582 =
         0.01627    0.00144    0.00018    0.00497
AFIX 137
H4A   2    0.043700    0.577881    0.247669    11.00000   -1.50000
H4B   2   -0.013434    0.478101    0.375759    11.00000   -1.50000
H4C   2   -0.081663    0.392557    0.228213    11.00000   -1.50000
AFIX   0
C5    1    0.222886    0.398337    0.039926    11.00000    0.01998    0.02420 =
         0.01000    0.00278   -0.00224    0.00912
AFIX 137
H5A   2    0.309524    0.360618   -0.021956    11.00000   -1.50000
H5B   2    0.219946    0.519068    0.032332    11.00000   -1.50000
H5C   2    0.088530    0.336158    0.017348    11.00000   -1.50000
AFIX   0
C6    1    0.613581    0.217264    0.433783    11.00000    0.01169    0.01207 =
         0.01116    0.00124    0.00165    0.00207
H6    2    0.713954    0.180018    0.384488    11.00000    0.01568
C7    1    0.643210    0.185834    0.575904    11.00000    0.01172    0.01045 =
         0.01032    0.00213    0.00006    0.00138
C8    1    0.523120    0.223556    0.674995    11.00000    0.01250    0.01260 =
         0.01280    0.00111    0.00114    0.00303
C9    1    0.572680    0.180777    0.807398    11.00000    0.01701    0.01797 =
         0.01098    0.00193    0.00307    0.00447
H9    2    0.488525    0.208040    0.871826    11.00000    0.01574
C10   1    0.737391    0.105267    0.844323    11.00000    0.01613    0.01519 =
         0.01066    0.00243   -0.00029    0.00196
H10   2    0.767609    0.078270    0.935080    11.00000    0.01754
C11   1    0.856814    0.070692    0.747559    11.00000    0.01255    0.01111 =
         0.01387    0.00186   -0.00196    0.00265
C12   1    0.810756    0.109281    0.616437    11.00000    0.01277    0.01156 =
         0.01131    0.00078    0.00114    0.00262
H12   2    0.893700    0.081901    0.550364    11.00000    0.01727
HKLF 4

REM  EAD2OHCl_2m in P-1
REM R1 =  0.0316 for    2684 Fo > 4sig(Fo)  and  0.0426 for all    3195 data
REM    177 parameters refined using      0 restraints

END

WGHT      0.0434      0.1645

REM Highest difference peak  0.478,  deepest hole -0.364,  1-sigma level  0.056
Q1    1   0.4743  0.2815  0.2884  11.00000  0.05    0.48
Q2    1   0.8320  0.1028  0.6858  11.00000  0.05    0.42
Q3    1   0.6254  0.2131  0.5067  11.00000  0.05    0.40
Q4    1   0.5589  0.2046  0.7423  11.00000  0.05    0.39
Q5    1   0.2487  0.3773  0.2352  11.00000  0.05    0.37
Q6    1   0.6579  0.1327  0.8173  11.00000  0.05    0.36
Q7    1   0.8151  0.0964  0.7960  11.00000  0.05    0.35
Q8    1   0.3754  0.3298  0.1909  11.00000  0.05    0.34
Q9    1   0.5304  0.2477  0.3959  11.00000  0.05    0.34
;
_shelx_res_checksum              43174
_shelx_hkl_file
;
  -1   0   0 342.896 9.43399   3
  -1   0   0 347.320 9.41853   2
  -2   0   0 41.2484 1.79156   2
  -2   0   0 43.2586 1.80452   3
  -3   0   0 38.0897 2.05999   3
  -3   0   0 38.2260 2.07232   2
   3   0   0 35.7237 1.88103   4
  -4   0   0 2.60808 1.24317   3
  -4   0   0 2.87553 1.22332   2
   4   0   0 4.19447 0.98732   1
   4   0   0 3.42754 1.09674   4
  -5   0   0 2.41490 1.47130   3
  -5   0   0 3.54132 1.49589   2
   5   0   0 0.56080 1.36355   4
   5   0   0 3.46159 1.24424   1
  -6   0   0 10.3045 1.99954   3
  -6   0   0 14.3322 2.26345   2
   6   0   0 11.1103 1.92039   1
   6   0   0 11.1691 1.85398   1
   6   0   0 13.5502 2.36330   4
  -7   0   0 56.7074 4.15370   3
  -7   0   0 53.2480 4.44610   2
   7   0   0 56.0488 3.94789   1
   7   0   0 55.7514 5.24006   4
   7   0   0 55.1048 4.55657   1
  -8   0   0 22.4334 3.49686   2
  -8   0   0 26.5222 3.26574   3
   8   0   0 27.9471 4.43559   4
   8   0   0 25.9883 3.09345   4
   8   0   0 24.7371 3.52180   1
   8   0   0 22.9081 3.76957   1
  -9   0   0 21.0830 3.51713   3
   9   0   0 15.4883 3.74428   4
   9   0   0 18.4499 4.19821   1
   9   0   0 15.7635 5.52937   1
   9  -1   0 30.6167 4.42348   4
   9  -1   0 26.0734 3.78157   1
   9  -1   0 17.5615 5.73604   1
  -9   1   0 29.9970 4.00789   3
   8  -1   0 91.1164 5.82904   1
   8  -1   0 92.0300 5.46398   1
   8  -1   0 82.0943 7.84051   4
  -8   1   0 87.0253 5.48324   3
   7  -1   0 0.00626 0.77490   5
   7  -1   0 0.39933 1.64195   1
   7  -1   0 3.57790 2.69582   4
   7  -1   0 -0.2499 0.80316   5
  -7   1   0 -1.0111 2.04134   3
  -7   1   0 0.16871 2.05244   2
   6  -1   0 123.500 4.70351   1
   6  -1   0 127.925 5.75781   4
   6  -1   0 122.101 3.79811   5
   6  -1   0 123.056 3.85129   5
   6  -1   0 117.743 4.71331   1
  -6   1   0 125.860 5.16482   2
  -6   1   0 119.705 5.27628   3
   5  -1   0 36.7410 2.31307   1
   5  -1   0 34.2165 2.16672   1
   5  -1   0 33.5826 1.47992   6
   5  -1   0 35.2559 1.48546   6
   5  -1   0 35.0109 1.56777   5
   5  -1   0 36.7134 3.03764   4
   5  -1   0 36.5781 1.57584   5
  -5   1   0 40.2398 2.75718   2
  -5   1   0 38.8420 2.87329   3
   4  -1   0 -0.5991 0.43944   6
   4  -1   0 -0.1529 0.94492   4
   4  -1   0 0.92135 0.66742   1
   4  -1   0 -0.4243 0.43980   5
   4  -1   0 0.19800 0.42425   5
  -4   1   0 0.48040 1.04625   2
  -4   1   0 0.92324 1.22850   3
   3  -1   0 581.700 15.7554   4
   3  -1   0 548.442 15.2406   6
   3  -1   0 548.828 15.2176   5
   3  -1   0 560.318 15.2252   5
   3  -1   0 544.026 15.3536   1
  -3   1   0 586.888 15.8391   3
  -3   1   0 581.197 15.5454   2
  -3   1   0 541.401 15.1172   6
   2  -1   0 113.659 3.35910   6
   2  -1   0 118.873 3.64225   4
   2  -1   0 109.414 3.32077   5
   2  -1   0 102.294 3.50480   5
  -2   1   0 114.430 3.22119   5
  -2   1   0 119.684 3.77224   3
  -2   1   0 114.934 3.62064   4
  -2   1   0 114.677 3.33839   6
  -2   1   0 115.704 3.23058   5
   1  -1   0 198.265 5.84534   4
   1  -1   0 204.557 5.77919   5
   1  -1   0 200.480 5.58699   1
   1  -1   0 204.725 5.77798   5
   1  -1   0 224.816 5.74837   2
   1  -1   0 209.283 5.81147   6
  -1   1   0 225.672 5.96886   3
  -1   1   0 200.335 5.58913   1
  -1   1   0 209.641 5.76871   5
  -1   1   0 204.718 5.86076   4
  -1   1   0 199.588 5.79923   6
   0  -1   0 46.6866 1.54174   5
   0  -1   0 46.4548 1.46107   1
   0  -1   0 53.1579 1.58052   2
   0   1   0 51.4065 1.58878   3
   0   1   0 46.5823 1.56132   6
   0   1   0 47.4811 1.45542   4
   0   1   0 46.1437 1.46164   1
   0   1   0 47.4890 1.54397   5
  -1  -1   0 197.387 5.58752   6
  -1  -1   0 199.917 5.53860   5
  -1  -1   0 201.915 5.56445   4
  -1  -1   0 212.726 5.82392   2
  -1  -1   0 200.879 5.53713   5
  -1  -1   0 204.588 5.58531   6
   1   1   0 197.691 5.57460   5
   1   1   0 201.633 5.58356   5
   1   1   0 200.009 5.71508   1
   1   1   0 198.951 5.60856   6
  -2  -1   0 71.7918 2.07271   6
  -2  -1   0 77.2988 2.80511   2
  -2  -1   0 74.6374 2.08706   6
  -2  -1   0 79.4770 2.65843   3
   2   1   0 71.0228 2.16182   5
   2   1   0 72.4901 2.20799   6
   2   1   0 70.8284 2.15761   5
   2   1   0 74.3857 2.57997   1
   2   1   0 72.5076 2.36593   4
  -3  -1   0 72.4901 2.88581   3
  -3  -1   0 73.6169 3.08072   2
   3   1   0 69.3383 2.06946   5
   3   1   0 71.3539 2.79705   1
   3   1   0 70.6554 2.13589   6
   3   1   0 69.1767 2.07051   5
   3   1   0 68.3553 2.51550   4
  -4  -1   0 291.571 9.13018   2
  -4  -1   0 301.758 9.01300   3
   4   1   0 297.927 8.66605   4
   4   1   0 289.986 8.89991   1
  -5  -1   0 8.11527 1.85631   2
  -5  -1   0 7.05959 1.61216   3
   5   1   0 11.9218 1.74223   4
   5   1   0 10.1361 1.73503   1
   5   1   0 6.49914 1.22682   4
  -6  -1   0 17.3300 2.27462   3
  -6  -1   0 13.9702 2.30229   2
   6   1   0 18.7189 2.40903   1
   6   1   0 13.8619 1.75947   4
   6   1   0 16.7820 2.93983   4
  -7  -1   0 92.1717 5.38612   2
  -7  -1   0 93.6170 5.06993   3
   7   1   0 97.7412 4.61139   4
   7   1   0 98.6910 5.45403   1
   7   1   0 95.8823 5.85879   1
   7   1   0 96.9862 6.15258   4
  -8  -1   0 0.16560 2.39255   3
  -8  -1   0 0.11003 2.68428   2
   8   1   0 -0.8410 2.90445   1
   8   1   0 2.48186 2.52729   4
   8   1   0 1.17945 3.60073   1
   8   1   0 4.15458 4.07799   4
  -9  -1   0 45.6489 4.83310   2
  -9  -1   0 57.7535 5.42287   3
   9   1   0 51.2238 4.58842   4
   9   1   0 51.1725 5.39810   1
   9  -2   0 16.4786 5.90841   1
   9  -2   0 7.64930 1.58154   5
   9  -2   0 6.92321 2.95589   1
  -9   2   0 9.87003 3.23859   3
   8  -2   0 16.6252 2.70954   1
   8  -2   0 15.2216 1.62259   5
   8  -2   0 22.1120 2.67300   1
   8  -2   0 19.9865 4.69105   4
   8  -2   0 17.4431 1.73897   5
  -8   2   0 17.8827 3.08982   3
   7  -2   0 63.4251 2.61603   6
   7  -2   0 64.6313 3.83380   1
   7  -2   0 63.3343 2.56029   6
   7  -2   0 78.0970 6.00193   4
   7  -2   0 65.8981 3.02470   5
   7  -2   0 61.5707 3.62321   1
  -7   2   0 63.0771 4.49280   3
   6  -2   0 44.3751 2.23670   6
   6  -2   0 45.9258 2.20693   6
   6  -2   0 39.2687 2.58831   1
   6  -2   0 45.5009 2.33798   5
   6  -2   0 45.0785 2.25522   5
   6  -2   0 42.8337 2.73453   1
   6  -2   0 46.5465 4.18198   4
  -6   2   0 41.2823 3.61742   3
   5  -2   0 42.8137 2.18084   1
   5  -2   0 39.4161 2.14902   6
   5  -2   0 42.8205 3.32500   4
   5  -2   0 41.9685 2.03854   6
   5  -2   0 38.5917 2.11087   1
   5  -2   0 39.0053 2.03296   5
   5  -2   0 42.1421 2.09837   5
  -5   2   0 40.0514 3.19814   3
   4  -2   0 13.3443 1.15419   1
   4  -2   0 13.0025 1.32798   5
   4  -2   0 13.5670 1.69856   4
   4  -2   0 16.0526 1.29226   5
   4  -2   0 16.8393 1.38721   6
  -4   2   0 12.0455 1.66493   3
  -4   2   0 13.8433 1.16701   6
   3  -2   0 28.0421 1.54520   6
   3  -2   0 30.3545 1.94507   4
   3  -2   0 27.2670 1.48358   5
   3  -2   0 28.4233 1.20490   1
  -3   2   0 27.6300 1.33674   5
  -3   2   0 29.2451 1.47674   6
  -3   2   0 25.2988 1.81596   4
  -3   2   0 29.2690 1.33873   5
  -3   2   0 30.4989 2.18213   3
   2  -2   0 12.2298 1.20937   4
   2  -2   0 11.2564 1.02293   5
   2  -2   0 13.8275 1.24059   2
   2  -2   0 12.9793 0.58571   1
   2  -2   0 15.1829 1.07037   6
   2  -2   0 11.9712 0.99927   5
  -2   2   0 12.4341 0.58195   1
  -2   2   0 12.2017 1.00758   6
  -2   2   0 12.3699 0.94417   5
  -2   2   0 11.9620 1.12188   4
  -2   2   0 12.2574 0.96832   5
  -2   2   0 13.8498 1.44476   3
   1  -2   0 102.551 2.96183   2
   1  -2   0 98.0325 3.10114   5
   1  -2   0 89.3005 3.08714   6
   1  -2   0 92.9718 2.70597   1
   1  -2   0 95.0025 3.07408   5
   1  -2   0 90.6532 3.00086   4
  -1   2   0 97.9284 3.25808   3
  -1   2   0 96.6096 2.70818   1
  -1   2   0 92.9024 3.04101   4
  -1   2   0 90.6971 3.04381   5
  -1   2   0 95.7230 3.06710   5
   0  -2   0 191.529 5.40019   4
   0  -2   0 191.621 5.63819   6
   0  -2   0 190.219 5.43718   1
   0  -2   0 207.864 5.62135   2
   0   2   0 188.480 5.65265   6
   0   2   0 200.821 5.61633   3
   0   2   0 183.418 5.58495   5
   0   2   0 190.309 5.43995   1
   0   2   0 186.093 5.60416   5
   0   2   0 185.537 5.42498   4
  -1  -2   0 8941.51 241.487   4
  -1  -2   0 9999.99 242.333   2
  -1  -2   0 8951.24 241.931   5
  -1  -2   0 9190.40 241.885   5
  -1  -2   0 9060.92 242.079   6
   1   2   0 8877.30 242.176   6
   1   2   0 9075.01 242.043   5
   1   2   0 8384.48 241.403   4
   1   2   0 9433.48 242.049   1
   1   2   0 8723.19 241.983   5
  -2  -2   0 131.552 3.85894   6
  -2  -2   0 134.749 4.45248   2
  -2  -2   0 127.771 3.84647   4
  -2  -2   0 128.624 3.73628   5
  -2  -2   0 129.494 3.73072   5
  -2  -2   0 128.918 3.83984   6
   2   2   0 124.319 3.80424   4
   2   2   0 130.563 4.21437   1
   2   2   0 125.520 3.95045   6
   2   2   0 123.494 3.97380   5
   2   2   0 122.298 3.88550   5
  -3  -2   0 0.50675 0.36247   6
  -3  -2   0 0.91022 1.11765   2
  -3  -2   0 0.13652 0.33900   6
   3   2   0 -0.0177 0.48873   6
   3   2   0 -0.0736 0.92806   1
   3   2   0 0.28963 0.50945   4
   3   2   0 0.06549 0.51688   5
   3   2   0 0.32699 0.50140   5
  -4  -2   0 27.0232 2.38477   3
  -4  -2   0 30.3287 2.66628   2
   4   2   0 26.0251 1.49693   6
   4   2   0 27.3992 1.68893   4
   4   2   0 26.5776 1.44239   5
   4   2   0 28.7758 2.45685   1
   4   2   0 25.4756 1.40281   5
  -5  -2   0 0.54663 1.72047   2
  -5  -2   0 -0.5007 1.34521   3
   5   2   0 0.84413 0.68967   5
   5   2   0 0.78819 0.98000   4
   5   2   0 -0.6550 1.65214   1
   5   2   0 -0.6674 0.62606   5
   5   2   0 1.26186 0.63821   6
  -6  -2   0 18.8219 2.45354   3
  -6  -2   0 22.3518 2.95417   2
   6   2   0 26.5813 2.96157   1
   6   2   0 19.5365 1.92410   4
   6   2   0 21.7217 1.45640   5
   6   2   0 20.6683 1.46868   5
  -7  -2   0 0.23823 2.42282   2
   7   2   0 -0.7928 2.57723   4
   7   2   0 0.54962 2.82790   1
   7   2   0 -0.3776 2.46924   1
   7   2   0 0.33423 1.75132   4
  -8  -2   0 45.3010 4.50010   2
   8   2   0 46.8783 5.39316   1
   8   2   0 46.0375 4.69767   1
   8   2   0 44.4517 4.95824   4
   8   2   0 51.2238 4.64619   4
  -9  -2   0 5.15459 3.95842   2
   9   2   0 2.87642 5.11087   1
   9   2   0 -2.2046 3.59137   4
   9   2   0 0.66705 11.4887   4
   9  -3   0 41.2211 3.66934   5
   9  -3   0 39.5187 3.21832   1
  -9   3   0 37.5536 4.44836   3
   8  -3   0 34.5585 2.91883   6
   8  -3   0 36.5720 2.81317   1
   8  -3   0 38.2288 2.84526   6
   8  -3   0 33.6928 2.63167   5
   8  -3   0 36.1214 3.41174   1
   8  -3   0 31.5229 3.17847   5
   8  -3   0 30.9210 4.97189   4
  -8   3   0 32.9049 3.73979   3
   7  -3   0 86.7470 3.82837   5
   7  -3   0 82.8421 3.82481   6
   7  -3   0 82.2089 3.90450   5
   7  -3   0 90.2889 6.59542   4
   7  -3   0 84.8087 3.67303   6
   7  -3   0 89.3880 3.78756   1
   7  -3   0 84.6191 3.72017   1
  -7   3   0 76.4725 5.12582   3
   6  -3   0 3.36983 1.21951   5
   6  -3   0 2.88033 1.06596   1
   6  -3   0 3.17597 1.28335   5
   6  -3   0 5.12856 2.44885   4
   6  -3   0 2.96819 1.30143   6
   6  -3   0 1.71798 1.03194   1
   6  -3   0 3.39807 1.29256   6
  -6   3   0 2.43823 2.17587   3
  -6   3   0 3.80959 0.88584   6
  -6   3   0 2.43968 0.81980   6
   5  -3   0 114.772 4.22408   6
   5  -3   0 113.656 4.15123   5
   5  -3   0 112.075 3.63523   1
   5  -3   0 119.868 5.19712   4
   5  -3   0 116.088 3.68178   1
   5  -3   0 109.589 4.18157   5
  -5   3   0 107.615 5.04782   3
  -5   3   0 114.693 3.38695   5
  -5   3   0 112.526 3.96206   6
  -5   3   0 116.748 3.39720   5
   4  -3   0 33.0141 2.16469   5
   4  -3   0 35.8682 2.10213   5
   4  -3   0 41.1429 2.45761   2
   4  -3   0 35.2845 2.74288   4
   4  -3   0 36.5997 2.20011   6
   4  -3   0 35.3360 1.50381   1
  -4   3   0 37.3035 2.70468   4
  -4   3   0 37.6641 1.87950   5
  -4   3   0 38.2236 2.88438   3
  -4   3   0 37.5250 1.84535   5
  -4   3   0 33.5413 2.06834   6
   3  -3   0 4.47606 1.09235   2
   3  -3   0 3.91652 0.83985   5
   3  -3   0 3.30831 1.05827   4
   3  -3   0 3.74084 0.40885   1
   3  -3   0 3.75061 0.94304   6
   3  -3   0 3.53980 0.84356   5
  -3   3   0 3.71786 0.84457   5
  -3   3   0 4.08027 1.31564   3
  -3   3   0 3.49086 1.06363   4
  -3   3   0 3.16557 0.88709   6
  -3   3   0 3.84010 0.84191   5
   2  -3   0 302.285 9.22965   6
   2  -3   0 307.402 9.17881   5
   2  -3   0 320.452 9.23337   5
   2  -3   0 311.139 9.19685   4
   2  -3   0 311.793 8.56418   1
   2  -3   0 331.178 8.94928   2
  -2   3   0 316.570 9.16855   5
  -2   3   0 312.932 9.26501   4
  -2   3   0 320.999 9.49176   3
  -2   3   0 311.979 9.26240   6
  -2   3   0 317.104 8.56882   1
   1  -3   0 63.0905 2.08352   1
   1  -3   0 63.4843 2.39936   4
   1  -3   0 66.6772 2.62846   6
   1  -3   0 65.9122 2.59471   5
   1  -3   0 68.5235 2.52878   2
   1  -3   0 60.8622 2.52019   5
  -1   3   0 63.8186 2.07860   1
  -1   3   0 63.1644 2.56070   5
  -1   3   0 62.1799 2.59457   6
  -1   3   0 62.6109 2.56820   5
  -1   3   0 61.8378 2.65119   3
  -1   3   0 64.4879 2.45953   4
   0  -3   0 390.592 11.0854   6
   0  -3   0 403.336 10.9808   2
   0  -3   0 391.055 11.0263   5
   0  -3   0 381.736 10.7608   1
   0  -3   0 379.642 10.7044   4
   0   3   0 354.743 11.1653   6
   0   3   0 404.747 11.0433   3
   0   3   0 390.970 10.7721   1
   0   3   0 386.408 11.0385   5
   0   3   0 380.925 10.7659   4
   0   3   0 381.980 11.0301   5
  -1  -3   0 13.0986 0.88500   4
  -1  -3   0 12.6698 1.21370   5
   1   3   0 8.76682 0.90575   5
   1   3   0 11.4470 0.91528   4
   1   3   0 9.54726 0.97061   1
   1   3   0 12.0529 1.27651   6
   1   3   0 11.0381 1.08102   5
   1   3   0 13.9483 1.41100   3
  -2  -3   0 200.889 6.11581   6
  -2  -3   0 209.635 6.61860   2
  -2  -3   0 211.812 6.04127   5
  -2  -3   0 210.351 5.94257   4
  -2  -3   0 202.307 6.03738   5
   2   3   0 205.859 5.92479   4
   2   3   0 201.517 6.37995   1
   2   3   0 197.308 6.18957   5
   2   3   0 201.240 6.20864   5
   2   3   0 198.761 6.25574   6
  -3  -3   0 24.8953 1.47532   6
  -3  -3   0 24.9154 2.43064   2
  -3  -3   0 24.1466 1.42006   6
  -3  -3   0 25.0010 1.20365   5
  -3  -3   0 25.2977 1.20571   5
   3   3   0 24.6943 1.67157   5
   3   3   0 22.6323 1.66692   5
   3   3   0 25.6614 1.45884   4
   3   3   0 25.4231 1.73668   6
   3   3   0 25.3460 2.23677   1
  -4  -3   0 17.7257 2.27350   2
  -4  -3   0 17.5683 1.03549   6
  -4  -3   0 17.7302 1.08013   6
   4   3   0 16.4627 1.56441   4
   4   3   0 19.5880 1.67205   5
   4   3   0 20.6577 1.79434   6
   4   3   0 16.4125 1.63278   5
  -5  -3   0 122.786 5.59243   2
   5   3   0 125.002 4.23114   5
   5   3   0 122.922 4.36274   4
   5   3   0 126.592 5.47875   1
   5   3   0 123.382 4.22794   5
   5   3   0 119.747 4.23934   6
  -6  -3   0 25.7036 3.20077   2
   6   3   0 31.8381 2.65214   4
   6   3   0 26.3133 2.22666   5
   6   3   0 32.3970 2.46530   5
   6   3   0 33.0536 2.15327   6
   6   3   0 24.4837 3.23215   1
  -7  -3   0 10.3903 2.96610   2
   7   3   0 11.9508 2.17554   4
   7   3   0 9.82212 3.84348   1
   7   3   0 8.17876 3.09233   4
   7   3   0 12.6791 1.42424   5
   7   3   0 11.7541 1.49913   5
  -8  -3   0 48.8243 4.95590   2
   8   3   0 61.2987 5.61708   1
   8   3   0 59.6442 6.15090   4
   8   3   0 51.2901 5.03606   4
   9  -4   0 2.07065 2.56428   5
   9  -4   0 -3.8692 2.57031   5
   9  -4   0 1.38425 2.75261   6
   9  -4   0 -0.7701 3.20870   2
  -9   4   0 1.04095 3.05639   3
   8  -4   0 22.2134 2.57680   5
   8  -4   0 23.6220 1.85489   1
   8  -4   0 27.8176 3.22259   2
   8  -4   0 26.8329 2.78921   5
   8  -4   0 23.6860 2.56009   6
   8  -4   0 25.7845 2.12201   1
  -8   4   0 24.7272 3.68117   3
   7  -4   0 19.1499 1.47355   1
   7  -4   0 14.9657 1.40285   1
   7  -4   0 19.5354 2.77419   2
   7  -4   0 16.8205 2.09639   6
   7  -4   0 19.4222 2.25139   5
   7  -4   0 15.7695 3.73843   4
   7  -4   0 17.9334 2.34087   6
   7  -4   0 15.9204 2.24275   5
  -7   4   0 20.3463 3.17258   3
  -7   4   0 16.5216 1.45282   6
  -7   4   0 17.3419 2.16719   6
   6  -4   0 102.584 3.24109   1
   6  -4   0 97.4804 3.21939   1
   6  -4   0 88.9033 4.23217   5
   6  -4   0 98.6384 5.83505   4
   6  -4   0 98.3774 4.28597   6
   6  -4   0 98.8970 4.39014   6
   6  -4   0 93.0559 4.47210   2
   6  -4   0 99.3468 4.44199   5
  -6   4   0 95.2814 4.61121   6
  -6   4   0 100.085 5.22894   3
   5  -4   0 40.8448 2.87550   6
   5  -4   0 38.7325 3.72495   4
   5  -4   0 36.7639 1.66935   1
   5  -4   0 36.9784 2.74755   2
   5  -4   0 38.8965 2.83637   5
   5  -4   0 32.5924 2.62806   5
   5  -4   0 35.9706 1.47117   1
  -5   4   0 34.5789 2.57276   6
  -5   4   0 38.8834 2.29594   5
  -5   4   0 34.8831 2.27890   5
  -5   4   0 41.5445 3.56078   3
  -5   4   0 37.1820 3.39410   4
   4  -4   0 62.6748 3.13944   5
   4  -4   0 66.9072 3.63541   4
   4  -4   0 67.4507 3.28587   6
   4  -4   0 62.7465 3.19369   5
   4  -4   0 68.3941 2.99907   2
  -4   4   0 69.2732 3.02756   5
  -4   4   0 68.3204 3.87232   3
  -4   4   0 68.6591 3.04386   5
  -4   4   0 64.4930 3.59694   4
  -4   4   0 65.4592 3.23739   6
   3  -4   0 46.5431 2.57335   5
   3  -4   0 47.8571 2.57999   5
   3  -4   0 48.0230 2.74405   4
   3  -4   0 48.5149 2.31598   2
   3  -4   0 47.0423 2.63565   6
   3  -4   0 45.9976 1.48955   1
  -3   4   0 43.4242 2.67788   4
  -3   4   0 45.1688 3.05196   3
  -3   4   0 41.4950 3.32667   5
  -3   4   0 47.3128 1.50847   1
  -3   4   0 42.1117 2.45376   5
  -3   4   0 46.7917 2.66501   6
   2  -4   0 30.3387 2.18930   6
   2  -4   0 35.0303 1.96259   2
   2  -4   0 30.3896 2.10725   4
   2  -4   0 31.7118 2.13203   5
   2  -4   0 32.8456 2.24677   5
   2  -4   0 31.2683 1.32473   1
  -2   4   0 33.8266 2.49074   3
  -2   4   0 30.6954 2.11605   5
  -2   4   0 31.0804 2.13305   4
  -2   4   0 31.4585 1.32591   1
  -2   4   0 35.4963 2.25005   5
   1  -4   0 1.57005 0.79312   5
   1  -4   0 0.99447 0.71865   4
   1  -4   0 1.15841 0.61198   1
   1  -4   0 1.43244 0.97859   2
   1  -4   0 1.07607 0.93471   5
   1  -4   0 3.07895 0.98652   6
  -1   4   0 2.15631 0.93322   5
  -1   4   0 2.06811 0.99273   5
  -1   4   0 -0.1637 0.70127   6
  -1   4   0 2.01165 1.14888   3
  -1   4   0 1.70812 0.81417   4
  -1   4   0 1.70630 0.59532   1
   0  -4   0 34.8691 2.17199   2
   0  -4   0 35.2308 2.13170   5
   0  -4   0 32.8639 2.04202   5
   0  -4   0 34.7451 1.65677   4
   0  -4   0 32.1458 2.15021   6
   0   4   0 31.1328 2.08477   5
   0   4   0 32.5483 2.21596   3
   0   4   0 35.2030 1.81552   1
   0   4   0 30.6079 1.77759   4
   0   4   0 32.2974 2.16890   6
   0   4   0 30.8730 2.05199   5
  -1  -4   0 9.34431 1.14066   5
  -1  -4   0 9.08387 1.04590   6
  -1  -4   0 14.5576 1.75519   2
  -1  -4   0 14.0760 1.38429   5
  -1  -4   0 13.9395 1.16908   4
   1   4   0 12.2483 1.39834   5
   1   4   0 11.2465 1.24763   5
   1   4   0 16.8273 1.64781   1
   1   4   0 12.4735 1.51327   3
   1   4   0 14.7743 1.49983   6
   1   4   0 11.7084 1.01663   4
  -2  -4   0 2277.98 62.0013   6
  -2  -4   0 2269.49 61.8975   5
  -2  -4   0 2288.36 61.6607   4
  -2  -4   0 2285.82 62.0376   6
  -2  -4   0 2267.23 62.4031   2
  -2  -4   0 2345.35 61.9142   5
   2   4   0 2283.09 62.1176   5
   2   4   0 2263.79 61.6793   4
   2   4   0 2393.43 62.2121   1
   2   4   0 2309.53 62.1001   3
   2   4   0 2303.97 62.2048   6
   2   4   0 2329.58 62.1140   5
  -3  -4   0 7.17806 1.85444   2
  -3  -4   0 6.56924 0.95102   5
  -3  -4   0 7.88507 1.00821   5
  -3  -4   0 8.71935 1.07027   4
  -3  -4   0 7.15512 1.09509   6
  -3  -4   0 8.37229 1.08515   6
   3   4   0 8.59948 0.97311   4
   3   4   0 7.48377 1.30513   5
   3   4   0 5.51869 1.56073   1
   3   4   0 6.63210 1.28381   6
   3   4   0 7.69255 1.26062   5
  -4  -4   0 2.41104 0.84896   6
  -4  -4   0 -0.6503 1.81513   2
  -4  -4   0 2.69791 0.83024   6
   4   4   0 3.18297 1.13295   5
   4   4   0 5.19309 1.89667   1
   4   4   0 2.45685 1.14689   5
   4   4   0 3.55190 1.03579   4
   4   4   0 2.57500 1.25000   6
  -5  -4   0 5.33595 2.24129   2
   5   4   0 7.95761 2.49148   1
   5   4   0 6.40005 1.45708   5
   5   4   0 5.35754 1.58542   6
   5   4   0 8.01158 1.35198   4
   5   4   0 6.97421 1.56187   5
  -6  -4   0 -2.1953 2.19417   2
   6   4   0 0.25417 1.53584   5
   6   4   0 0.20940 1.47901   4
   6   4   0 -0.6147 1.46163   5
   6   4   0 2.23095 3.15273   1
   6   4   0 0.64000 1.88910   6
  -7  -4   0 31.3614 3.96003   2
   7   4   0 32.6829 3.17379   5
   7   4   0 35.2587 3.38766   5
   7   4   0 38.5681 4.01318   4
   7   4   0 39.4918 3.92108   4
  -8  -4   0 8.13459 4.38629   2
   8   4   0 3.22448 5.87359   4
   8   4   0 10.9781 5.19649   1
   8   4   0 14.9944 2.12754   5
   8   4   0 13.8859 1.96677   5
   8   4   0 10.3280 3.04559   4
   9  -5   0 12.2760 3.47020   5
  -9   5   0 20.1944 4.65294   3
   8  -5   0 49.9863 4.00960   6
   8  -5   0 56.0911 4.95352   5
   8  -5   0 40.8821 3.58815   5
   8  -5   0 54.2595 4.47865   2
  -8   5   0 55.5184 5.51741   3
   7  -5   0 50.9617 4.36604   5
   7  -5   0 49.7740 4.29952   6
   7  -5   0 49.9968 4.59047   6
   7  -5   0 54.3439 3.88785   2
   7  -5   0 54.1455 4.25093   5
   7  -5   0 60.6702 5.56245   4
  -7   5   0 51.0041 5.05330   3
  -7   5   0 58.1225 3.60710   6
   6  -5   0 42.6545 3.81414   6
   6  -5   0 45.9825 3.91154   5
   6  -5   0 40.2021 4.04925   5
   6  -5   0 45.2109 3.57406   6
   6  -5   0 37.9855 3.82263   4
  -6   5   0 41.2739 4.14454   4
  -6   5   0 46.8976 2.92104   5
  -6   5   0 40.7931 2.83547   5
  -6   5   0 39.8344 3.34156   6
  -6   5   0 37.5576 4.06638   3
   5  -5   0 17.5640 1.98839   2
   5  -5   0 15.7750 2.03697   5
   5  -5   0 21.0204 2.80852   4
   5  -5   0 14.7612 2.24180   5
   5  -5   0 15.0219 2.09079   6
  -5   5   0 17.3152 2.61603   4
  -5   5   0 13.9836 1.94539   6
  -5   5   0 17.6320 1.90819   5
  -5   5   0 19.2114 2.90316   3
  -5   5   0 16.5329 1.89223   5
   4  -5   0 58.4008 2.98870   2
   4  -5   0 55.1544 3.43614   6
   4  -5   0 56.5313 3.33964   5
   4  -5   0 53.5331 3.40322   5
   4  -5   0 62.6530 3.82129   4
  -4   5   0 58.0833 3.18075   5
  -4   5   0 56.1891 3.98187   3
  -4   5   0 53.4763 3.75845   4
  -4   5   0 55.1514 3.33440   5
  -4   5   0 59.6271 3.53881   6
   3  -5   0 1.41532 1.10902   5
   3  -5   0 2.18709 1.21236   2
   3  -5   0 0.50887 1.09237   5
   3  -5   0 0.78516 1.12154   6
   3  -5   0 1.77516 1.33239   4
  -3   5   0 2.66823 1.32916   5
  -3   5   0 1.04603 1.35450   6
  -3   5   0 0.25303 1.61016   3
  -3   5   0 1.21398 0.50121   1
  -3   5   0 -0.2986 1.05715   5
  -3   5   0 3.38287 1.45887   4
   2  -5   0 2.45057 1.31733   2
   2  -5   0 3.88147 1.41139   6
   2  -5   0 2.20026 1.25727   5
   2  -5   0 6.80057 1.30780   4
   2  -5   0 1.02822 1.16556   5
  -2   5   0 2.52257 1.40900   5
  -2   5   0 2.60463 0.64954   1
  -2   5   0 2.46144 1.59073   3
  -2   5   0 3.56304 1.47321   6
  -2   5   0 2.73269 1.33770   5
  -2   5   0 3.75825 1.18870   4
   1  -5   0 29.2855 2.52420   6
   1  -5   0 28.5237 2.55328   5
   1  -5   0 30.3144 2.00566   4
  -1   5   0 30.7155 2.69035   5
  -1   5   0 29.7968 2.18857   4
  -1   5   0 25.3385 2.36753   5
  -1   5   0 31.0046 2.48046   6
  -1   5   0 31.7479 1.80397   1
  -1   5   0 27.2039 2.52400   3
   0  -5   0 23.7895 2.27735   5
   0  -5   0 25.6485 1.74970   4
   0  -5   0 26.9801 2.45303   5
   0  -5   0 23.8215 2.30315   6
   0  -5   0 23.5732 2.32002   2
   0   5   0 25.4874 2.42481   3
   0   5   0 22.2417 1.94432   1
   0   5   0 24.5977 2.12872   5
   0   5   0 23.5662 2.36566   6
   0   5   0 23.6451 1.91004   4
   0   5   0 24.9754 2.31897   5
  -1  -5   0 267.927 8.33907   5
  -1  -5   0 265.990 8.25800   5
  -1  -5   0 262.316 8.35513   6
  -1  -5   0 245.120 8.38127   2
  -1  -5   0 260.136 8.40576   6
  -1  -5   0 266.257 7.75914   4
   1   5   0 259.620 8.16568   1
   1   5   0 271.915 8.46026   5
   1   5   0 262.244 8.40227   5
   1   5   0 266.668 8.43013   3
   1   5   0 270.618 7.88846   4
  -2  -5   0 3.51759 0.87590   4
  -2  -5   0 2.71968 1.21085   5
  -2  -5   0 3.77635 1.15730   5
  -2  -5   0 2.98059 1.14989   6
  -2  -5   0 2.71513 1.61158   2
  -2  -5   0 2.74851 1.12686   6
   2   5   0 2.50993 1.22044   5
   2   5   0 1.78783 1.08221   5
   2   5   0 1.28049 1.11179   6
   2   5   0 2.35949 1.51662   3
   2   5   0 3.46994 1.38907   1
   2   5   0 1.66754 0.83258   4
  -3  -5   0 82.8959 3.61838   6
  -3  -5   0 83.1289 3.51550   5
  -3  -5   0 88.3717 4.62073   2
  -3  -5   0 88.9659 3.46271   5
  -3  -5   0 88.7520 3.42440   4
  -3  -5   0 90.4627 3.79217   6
   3   5   0 76.7107 4.41119   1
   3   5   0 87.1158 4.03306   5
   3   5   0 88.8425 4.08024   3
   3   5   0 85.6537 3.91206   5
   3   5   0 83.7235 4.17489   6
   3   5   0 89.3301 3.37704   4
  -4  -5   0 7.68713 1.24553   6
  -4  -5   0 7.40675 1.07277   5
  -4  -5   0 8.22048 2.27880   2
  -4  -5   0 9.15540 1.11811   5
  -4  -5   0 9.08532 1.38773   6
   4   5   0 8.93207 1.83186   6
   4   5   0 9.20848 1.82626   5
   4   5   0 11.1573 1.80002   5
   4   5   0 9.68903 1.35472   4
   4   5   0 7.99824 2.59185   1
  -5  -5   0 4.64060 2.58108   2
  -5  -5   0 2.79925 1.12406   6
  -5  -5   0 2.28414 1.01160   6
   5   5   0 -2.2998 2.64221   1
   5   5   0 1.98190 1.46237   4
   5   5   0 0.78197 1.78396   5
   5   5   0 1.42661 1.72161   5
   5   5   0 1.01395 1.79774   6
  -6  -5   0 54.2089 5.10400   2
   6   5   0 50.8552 5.18870   1
   6   5   0 53.8817 4.03061   5
   6   5   0 55.6448 4.05015   5
   6   5   0 51.3561 3.68765   4
  -7  -5   0 18.7359 3.93767   2
   7   5   0 30.0431 3.27151   6
   7   5   0 34.2831 3.08451   5
   7   5   0 30.4281 2.97188   5
   7   5   0 31.3029 3.02890   4
   7   5   0 33.3431 4.79095   4
   8  -6   0 2.76505 3.00048   5
   8  -6   0 1.39402 3.40967   5
  -8   6   0 0.78014 3.41988   3
  -8   6   0 -0.2124 2.28827   6
  -8   6   0 -1.0989 2.60019   6
   7  -6   0 42.2326 3.82355   2
   7  -6   0 36.6453 3.70851   5
   7  -6   0 42.1401 3.82360   6
   7  -6   0 42.3449 3.69396   5
  -7   6   0 39.7493 3.19167   5
  -7   6   0 32.7679 3.97395   3
  -7   6   0 43.8795 4.31386   6
  -7   6   0 36.9025 3.36405   5
   6  -6   0 22.4165 2.80950   5
   6  -6   0 24.3408 2.50501   2
   6  -6   0 23.2519 3.00686   6
   6  -6   0 23.2566 4.09991   4
   6  -6   0 23.8911 2.73128   6
   6  -6   0 20.0084 2.83611   5
  -6   6   0 19.6204 2.46499   5
  -6   6   0 23.0170 2.71907   6
  -6   6   0 21.0289 2.33152   5
  -6   6   0 16.2518 3.24869   3
  -6   6   0 15.4883 3.10675   4
   5  -6   0 98.2932 5.08951   5
   5  -6   0 98.5853 4.98365   6
   5  -6   0 112.663 5.97501   4
   5  -6   0 100.076 5.16138   5
   5  -6   0 97.3229 5.34942   6
  -5   6   0 96.1529 5.54937   4
  -5   6   0 95.7835 4.88923   5
  -5   6   0 94.1570 5.08521   6
  -5   6   0 95.4414 5.42714   3
  -5   6   0 96.6971 4.73660   5
   4  -6   0 44.9024 3.65294   5
   4  -6   0 43.8483 3.84538   5
   4  -6   0 45.6793 3.99261   4
   4  -6   0 43.7911 3.94285   6
  -4   6   0 45.9884 3.98348   4
  -4   6   0 49.7988 3.87881   6
  -4   6   0 39.6883 3.88136   3
  -4   6   0 39.2984 3.76867   5
   3  -6   0 70.1402 4.17829   6
   3  -6   0 70.8667 4.18763   5
   3  -6   0 69.4100 3.45585   2
   3  -6   0 73.6751 3.95118   4
   3  -6   0 74.3680 4.07783   5
  -3   6   0 62.2101 4.05300   5
  -3   6   0 62.4910 4.93675   5
  -3   6   0 71.7701 4.06216   4
  -3   6   0 69.6720 4.40883   3
  -3   6   0 69.6793 2.48424   1
  -3   6   0 73.1018 4.25782   6
   2  -6   0 56.0385 3.74194   6
   2  -6   0 55.3852 3.62504   5
   2  -6   0 53.1356 3.13441   2
   2  -6   0 54.8077 3.17616   4
   2  -6   0 55.3667 3.59931   5
  -2   6   0 53.2896 3.66684   5
  -2   6   0 57.3038 3.80063   5
  -2   6   0 53.2479 3.73930   3
  -2   6   0 56.2484 3.75149   6
  -2   6   0 59.8634 3.48693   4
  -2   6   0 53.9711 2.40884   1
   1  -6   0 12.1950 1.47669   4
   1  -6   0 20.3207 2.12546   2
   1  -6   0 13.0267 1.81237   5
   1  -6   0 8.20420 1.79551   6
   1  -6   0 19.9680 2.21033   5
  -1   6   0 13.2885 1.72007   4
  -1   6   0 12.2837 1.76561   5
  -1   6   0 18.4848 2.41104   3
  -1   6   0 15.1688 1.43661   1
  -1   6   0 16.6807 2.17579   5
  -1   6   0 13.5841 1.97856   6
   0  -6   0 5.09477 1.69971   5
   0  -6   0 3.00246 1.08613   4
   0  -6   0 1.97765 1.44072   6
   0  -6   0 3.07004 1.56016   2
   0  -6   0 2.47400 1.54110   5
   0   6   0 4.50011 1.23555   4
   0   6   0 2.68975 1.68643   5
   0   6   0 3.07969 1.29948   1
   0   6   0 3.36020 1.67325   6
   0   6   0 5.31059 1.86657   3
   0   6   0 3.12391 1.47860   5
  -1  -6   0 6.11916 1.94172   2
  -1  -6   0 7.87678 1.67668   6
  -1  -6   0 5.59802 1.17746   4
  -1  -6   0 4.83476 1.36364   6
  -1  -6   0 3.20533 2.54338   5
  -1  -6   0 5.28792 1.40713   5
   1   6   0 3.72821 1.20161   4
   1   6   0 5.07271 1.60576   1
   1   6   0 4.58390 1.51107   5
   1   6   0 4.38832 1.72330   6
   1   6   0 4.57855 1.82970   3
   1   6   0 6.53507 1.76333   5
  -2  -6   0 14.5599 2.46414   2
  -2  -6   0 12.7948 1.96267   5
  -2  -6   0 13.0814 1.41139   4
  -2  -6   0 13.3272 1.83916   6
  -2  -6   0 15.5631 1.78216   5
  -2  -6   0 9.63617 1.64811   6
   2   6   0 10.4355 1.76337   5
   2   6   0 12.1928 2.11799   1
   2   6   0 12.7979 2.10215   3
   2   6   0 10.6559 2.13046   6
   2   6   0 15.8941 2.29580   5
   2   6   0 15.4844 1.57276   4
  -3  -6   0 598.445 19.0794   2
  -3  -6   0 653.398 18.4228   6
  -3  -6   0 622.737 18.2245   6
  -3  -6   0 644.953 17.8247   4
  -3  -6   0 631.999 18.0248   5
   3   6   0 650.441 18.7801   6
   3   6   0 648.913 18.7947   1
   3   6   0 639.727 18.6168   5
   3   6   0 613.136 18.5674   3
   3   6   0 645.700 17.8887   4
   3   6   0 627.479 18.5883   5
  -4  -6   0 -0.3946 1.19310   5
  -4  -6   0 0.26411 1.38187   5
  -4  -6   0 -0.3854 1.32123   6
  -4  -6   0 1.17596 2.17485   2
  -4  -6   0 1.19533 1.54790   6
   4   6   0 -2.2057 1.83113   6
   4   6   0 1.37397 1.88377   5
   4   6   0 3.18897 2.09301   5
   4   6   0 0.84825 1.35588   4
   4   6   0 2.04634 2.80653   1
   4   6   0 -0.4030 1.85282   3
  -5  -6   0 4.12277 2.78018   2
  -5  -6   0 4.85841 1.38813   6
  -5  -6   0 5.66813 1.52662   6
   5   6   0 2.29952 1.70619   4
   5   6   0 3.48743 2.38765   6
   5   6   0 3.88436 2.31171   5
   5   6   0 4.40721 2.37093   5
   5   6   0 4.11406 3.89089   1
   5   6   0 2.71989 2.23373   3
  -6  -6   0 -1.0269 2.86036   2
   6   6   0 1.65191 2.62991   5
   6   6   0 1.11465 2.62978   5
   6   6   0 2.36329 2.48711   3
   6   6   0 -0.0874 2.06959   4
  -7  -6   0 0.51688 3.44805   2
   7   6   0 -2.6061 3.66149   5
   7   6   0 -2.1843 2.79576   3
   7   6   0 -1.7622 3.08990   5
   8  -7   0 10.2017 3.88115   5
  -8   7   0 -0.7383 3.31513   6
   7  -7   0 40.5836 4.65613   5
   7  -7   0 33.6881 3.96536   5
   7  -7   0 32.9636 4.61953   6
  -7   7   0 41.5755 3.31323   5
  -7   7   0 37.8222 4.71769   3
  -7   7   0 34.2720 3.89043   6
   6  -7   0 72.6814 5.65486   5
   6  -7   0 66.5339 5.63396   4
   6  -7   0 71.9707 5.29534   6
   6  -7   0 73.4660 4.30624   2
   6  -7   0 70.4417 6.33915   6
   6  -7   0 69.4591 5.77172   5
  -6   7   0 77.3451 5.15792   5
  -6   7   0 64.9883 5.43454   5
  -6   7   0 70.4256 6.52935   4
  -6   7   0 71.5696 5.55929   6
  -6   7   0 67.7096 5.45925   3
   5  -7   0 8.83226 2.31148   2
   5  -7   0 8.08838 3.00571   5
   5  -7   0 8.71170 3.23650   4
   5  -7   0 7.81910 3.06816   6
   5  -7   0 18.4284 3.40348   6
  -5   7   0 7.22332 2.82017   3
  -5   7   0 12.0650 2.65313   5
  -5   7   0 9.45318 2.72269   5
  -5   7   0 7.31902 2.92101   4
  -5   7   0 6.61111 2.68024   6
   4  -7   0 15.8890 2.80644   4
   4  -7   0 13.9066 2.39490   6
   4  -7   0 23.2055 2.99597   5
   4  -7   0 18.4400 3.10230   6
   4  -7   0 16.8953 3.06462   5
   4  -7   0 17.8813 2.27582   2
  -4   7   0 23.0625 3.11034   5
  -4   7   0 20.6198 2.84345   5
  -4   7   0 19.7480 3.06530   4
  -4   7   0 15.2240 2.97446   3
  -4   7   0 17.3601 2.70730   6
   3  -7   0 18.9575 2.62930   6
   3  -7   0 27.9901 2.54102   2
   3  -7   0 23.9416 2.63004   4
   3  -7   0 25.2730 2.92004   5
   3  -7   0 27.7294 3.22738   5
  -3   7   0 19.8141 1.78662   1
  -3   7   0 17.7240 2.90078   3
  -3   7   0 22.2697 2.94206   5
  -3   7   0 24.5150 3.00308   5
  -3   7   0 23.9137 3.01998   6
  -3   7   0 20.2934 2.75186   4
   2  -7   0 4.43093 2.11292   5
   2  -7   0 7.52856 1.87987   2
   2  -7   0 5.30645 2.32081   6
   2  -7   0 4.53044 2.04727   5
   2  -7   0 5.16058 1.82333   4
  -2   7   0 6.90244 2.30200   5
  -2   7   0 5.94963 2.15870   6
  -2   7   0 5.17829 2.17563   3
  -2   7   0 4.33696 2.03227   5
  -2   7   0 5.36987 1.25655   1
  -2   7   0 2.81086 1.83782   4
   1  -7   0 -0.2593 1.70197   6
   1  -7   0 0.26188 1.53557   6
   1  -7   0 -0.6037 1.75280   5
   1  -7   0 1.16258 1.65468   2
   1  -7   0 1.75731 2.09929   5
   1  -7   0 2.01959 1.51893   4
  -1   7   0 -0.4168 1.92915   6
  -1   7   0 1.02079 2.11113   5
  -1   7   0 -1.3131 1.31901   1
  -1   7   0 -0.4712 2.01840   5
  -1   7   0 0.06273 1.70494   3
  -1   7   0 -0.6975 1.53799   4
   0  -7   0 1.66797 1.97157   5
   0  -7   0 2.20215 1.77367   2
   0  -7   0 2.69813 1.57334   6
   0  -7   0 3.09057 2.20064   5
   0  -7   0 0.49706 1.49615   4
   0  -7   0 0.69411 1.71825   6
   0   7   0 0.32248 2.08472   5
   0   7   0 0.59983 2.01489   6
   0   7   0 0.92393 2.29053   5
   0   7   0 -0.9926 1.55773   1
   0   7   0 -0.1118 1.89214   3
   0   7   0 2.15303 1.39831   4
  -1  -7   0 14.7644 2.19889   6
  -1  -7   0 11.4070 2.04394   6
  -1  -7   0 15.5324 2.37175   2
  -1  -7   0 17.5613 1.70273   4
  -1  -7   0 17.9471 2.29520   5
  -1  -7   0 14.0101 2.57455   5
   1   7   0 18.7784 2.77673   5
   1   7   0 13.6586 2.31437   1
   1   7   0 15.6755 2.63298   3
   1   7   0 13.0939 2.37582   6
   1   7   0 14.9371 1.98029   4
   1   7   0 15.9713 2.61308   5
  -2  -7   0 123.097 5.26380   5
  -2  -7   0 118.797 5.84810   5
  -2  -7   0 121.639 5.59440   6
  -2  -7   0 120.759 5.97936   2
  -2  -7   0 123.375 4.65029   4
   2   7   0 115.259 5.60528   3
   2   7   0 124.445 6.14192   1
   2   7   0 131.986 5.00558   4
   2   7   0 138.779 6.28769   6
   2   7   0 122.092 5.98400   5
   2   7   0 129.895 6.05310   5
  -3  -7   0 -0.4248 2.03612   6
  -3  -7   0 -1.0680 1.61964   5
  -3  -7   0 0.38170 2.26342   2
  -3  -7   0 0.67575 1.89694   5
  -3  -7   0 1.99550 1.90311   6
   3   7   0 0.42351 1.57171   4
   3   7   0 2.87169 2.15213   3
   3   7   0 -0.7146 2.13043   5
   3   7   0 2.12006 2.32039   6
   3   7   0 -0.2584 2.30834   5
   3   7   0 1.37349 2.83704   1
  -4  -7   0 31.3079 3.46583   6
  -4  -7   0 23.6447 3.58333   2
  -4  -7   0 31.6764 2.64084   5
  -4  -7   0 35.2553 3.21723   5
  -4  -7   0 30.2498 2.80410   6
  -4  -7   0 30.7543 2.62815   4
   4   7   0 35.0690 4.61351   1
   4   7   0 32.5386 3.58940   5
   4   7   0 29.4968 3.31752   3
   4   7   0 35.2668 3.58548   6
   4   7   0 35.7788 3.50670   4
  -5  -7   0 5.92050 2.05876   6
  -5  -7   0 2.52785 1.81626   6
  -5  -7   0 4.84258 3.06773   2
   5   7   0 4.85170 2.53917   3
   5   7   0 5.21669 2.25753   4
   5   7   0 3.83573 2.97829   5
   5   7   0 1.26498 3.64394   6
   5   7   0 7.65254 3.00134   5
  -6  -7   0 -3.6793 3.01660   2
   6   7   0 6.63127 3.52567   5
   6   7   0 1.59222 2.75038   3
   6   7   0 1.61279 2.67271   4
   7  -8   0 6.94327 4.06667   5
  -7   8   0 7.44004 3.97417   6
  -7   8   0 2.47095 5.47256   4
  -7   8   0 8.01932 6.38959   3
   6  -8   0 31.2794 4.06400   6
   6  -8   0 33.1383 4.16958   5
   6  -8   0 44.3819 5.47119   5
   6  -8   0 38.1953 3.31505   2
  -6   8   0 35.7106 4.92907   4
  -6   8   0 37.6054 4.11890   5
  -6   8   0 33.5737 4.61322   3
  -6   8   0 37.2234 4.36938   6
   5  -8   0 26.2516 3.59667   2
   5  -8   0 20.9146 3.55820   6
   5  -8   0 24.9093 3.76507   5
   5  -8   0 22.3236 3.46105   5
   5  -8   0 26.6123 4.21711   6
   5  -8   0 20.7060 4.29224   4
  -5   8   0 28.2547 3.69240   5
  -5   8   0 23.8526 4.13712   4
  -5   8   0 20.0752 3.61512   6
  -5   8   0 22.1003 3.91267   3
  -5   8   0 18.8043 3.84592   5
   4  -8   0 70.5863 5.72509   6
   4  -8   0 67.6235 6.02963   6
   4  -8   0 79.3178 6.15643   5
   4  -8   0 67.4770 5.88174   5
   4  -8   0 53.7789 5.46677   4
   4  -8   0 64.4278 4.32355   2
  -4   8   0 71.1020 5.99178   5
  -4   8   0 66.8548 5.77273   4
  -4   8   0 73.8204 7.77807   6
  -4   8   0 59.5116 5.22073   3
  -4   8   0 66.9092 6.52681   5
   3  -8   0 34.2392 3.54787   5
   3  -8   0 35.8735 3.58012   2
   3  -8   0 38.6421 3.81693   5
   3  -8   0 47.1142 3.70370   4
   3  -8   0 28.5647 3.33427   6
   3  -8   0 37.5363 3.94846   6
  -3   8   0 30.1955 3.53396   5
  -3   8   0 29.9745 3.84609   6
  -3   8   0 30.6859 3.70317   5
  -3   8   0 33.8379 4.48756   3
  -3   8   0 37.5633 2.44239   1
   2  -8   0 41.0191 3.69738   5
   2  -8   0 39.6718 3.96927   4
   2  -8   0 36.0472 3.43203   6
   2  -8   0 47.0323 4.96194   6
   2  -8   0 52.7488 4.41829   5
   2  -8   0 41.4461 3.58652   2
  -2   8   0 45.8080 4.16715   5
  -2   8   0 42.9172 3.57147   4
  -2   8   0 43.0791 3.94075   5
  -2   8   0 42.7638 2.97718   1
  -2   8   0 39.3082 4.05410   3
  -2   8   0 49.0826 4.32373   6
   1  -8   0 58.9686 3.86213   4
   1  -8   0 52.3266 4.64828   6
   1  -8   0 52.6983 5.04170   6
   1  -8   0 54.5601 5.04374   5
   1  -8   0 54.5223 5.40561   5
   1  -8   0 52.8088 4.06107   2
  -1   8   0 54.8897 5.56499   5
  -1   8   0 58.2792 5.20750   5
  -1   8   0 55.8820 4.31186   4
  -1   8   0 56.1704 4.56335   3
  -1   8   0 62.3484 5.51169   6
  -1   8   0 58.1719 3.66846   1
   0  -8   0 10.2004 2.88321   5
   0  -8   0 6.14535 2.27852   2
   0  -8   0 4.79437 1.84746   4
   0  -8   0 3.64824 2.11268   6
   0  -8   0 6.36430 2.94471   5
   0  -8   0 10.1222 2.74725   6
   0   8   0 7.82555 2.57443   3
   0   8   0 6.63989 2.46454   5
   0   8   0 1.79816 2.06724   1
   0   8   0 5.56903 3.13342   6
   0   8   0 9.81501 3.02477   5
   0   8   0 6.13264 2.08692   4
  -1  -8   0 10.0327 3.62226   6
  -1  -8   0 6.55082 2.62060   6
  -1  -8   0 5.53431 1.74028   4
  -1  -8   0 9.29085 2.55736   2
  -1  -8   0 7.64882 2.70723   5
   1   8   0 6.56634 2.04960   4
   1   8   0 10.7299 2.75740   1
   1   8   0 13.6186 3.08638   5
   1   8   0 4.80987 2.56171   3
   1   8   0 5.77027 2.85836   6
   1   8   0 8.77890 2.76696   5
  -2  -8   0 0.41418 2.02749   5
  -2  -8   0 6.94949 3.13962   5
  -2  -8   0 0.74350 2.16217   6
  -2  -8   0 -1.8978 2.34516   2
  -2  -8   0 -1.0677 1.57330   4
   2   8   0 -3.9867 2.89918   1
   2   8   0 -0.2760 2.55831   5
   2   8   0 -3.0608 2.23256   3
   2   8   0 -2.3371 2.74274   5
   2   8   0 2.78464 2.82151   6
   2   8   0 0.44428 2.08335   4
  -3  -8   0 27.8944 3.39202   5
  -3  -8   0 27.5835 3.32676   6
  -3  -8   0 29.8317 2.65252   4
  -3  -8   0 33.8550 3.36388   6
  -3  -8   0 30.7727 3.23883   5
  -3  -8   0 29.9448 3.87810   2
   3   8   0 30.9727 4.10439   6
   3   8   0 27.8551 4.55325   1
   3   8   0 25.8057 3.47074   3
   3   8   0 32.2465 2.99723   4
   3   8   0 25.0518 3.44390   5
   3   8   0 34.8682 4.16947   5
  -4  -8   0 173.762 7.07628   4
  -4  -8   0 168.845 6.99614   6
  -4  -8   0 154.093 8.15254   2
  -4  -8   0 177.980 7.48939   6
   4   8   0 159.794 7.51388   3
   4   8   0 182.301 7.06362   4
   4   8   0 169.067 8.94414   5
   4   8   0 181.731 8.64061   5
   4   8   0 159.962 9.30003   6
  -5  -8   0 0.41282 3.32090   2
  -5  -8   0 4.72173 2.42627   6
  -5  -8   0 2.81960 2.55393   6
   5   8   0 2.96436 2.90531   3
   5   8   0 2.74726 2.82062   4
   5   8   0 1.06141 3.88778   5
   6  -9   0 15.4931 5.06217   5
  -6   9   0 32.8147 6.82823   6
  -6   9   0 24.0002 7.32968   3
  -6   9   0 15.8409 5.51613   4
   5  -9   0 81.5558 7.77759   5
   5  -9   0 90.1946 9.44053   5
   5  -9   0 78.6951 4.95043   2
   5  -9   0 62.5010 6.06146   6
   5  -9   0 73.1978 7.11916   6
  -5   9   0 61.7012 5.99911   3
  -5   9   0 79.9812 7.92996   6
  -5   9   0 62.9384 5.77178   4
  -5   9   0 78.7611 8.13582   5
   4  -9   0 5.00901 3.70042   4
   4  -9   0 1.95435 2.54528   2
   4  -9   0 6.84512 4.07524   5
   4  -9   0 -2.0255 3.91842   5
   4  -9   0 -1.0213 2.98402   6
   4  -9   0 0.67651 3.87151   6
  -4   9   0 2.71602 3.68135   4
  -4   9   0 -2.7439 2.93147   3
  -4   9   0 4.22741 3.64552   6
  -4   9   0 -1.6728 3.55093   5
  -4   9   0 1.16582 4.53039   5
   3  -9   0 11.8252 2.77039   2
   3  -9   0 17.9532 4.44601   5
   3  -9   0 14.2362 3.99134   5
   3  -9   0 11.9401 3.74563   6
   3  -9   0 9.99304 3.18410   4
   3  -9   0 18.4286 3.61297   6
  -3   9   0 19.8219 4.22715   5
  -3   9   0 19.4908 4.77258   5
  -3   9   0 13.7831 3.62334   4
  -3   9   0 19.2611 3.77903   3
  -3   9   0 11.5272 4.11565   6
  -3   9   0 12.8548 1.85198   1
   2  -9   0 7.27029 3.52851   5
   2  -9   0 11.6387 3.35964   6
   2  -9   0 12.5702 3.49480   5
   2  -9   0 5.53234 2.86206   6
   2  -9   0 8.90077 2.55777   2
   2  -9   0 11.1881 2.95777   4
  -2   9   0 8.70228 4.03487   6
  -2   9   0 3.14558 2.86087   4
  -2   9   0 6.35368 4.20490   5
  -2   9   0 12.0600 2.11231   1
  -2   9   0 11.7786 3.29212   3
  -2   9   0 0.64858 3.37549   5
   1  -9   0 9.62696 3.09155   6
   1  -9   0 11.4289 2.54447   4
   1  -9   0 12.7225 3.26738   5
   1  -9   0 12.9522 2.81681   2
   1  -9   0 16.9289 4.33918   5
   1  -9   0 15.7162 3.38906   6
  -1   9   0 18.5744 4.49462   6
  -1   9   0 11.0011 4.03809   5
  -1   9   0 12.6362 2.52593   1
  -1   9   0 8.58796 2.75996   3
  -1   9   0 16.1097 4.09401   5
   0  -9   0 5.39427 3.47876   6
   0  -9   0 1.73566 2.20308   4
   0  -9   0 0.95994 2.20296   2
   0  -9   0 -3.7041 3.59892   5
   0  -9   0 2.24945 3.02632   5
   0   9   0 -1.7725 2.89500   5
   0   9   0 -6.8838 2.56818   1
   0   9   0 -3.9429 2.51639   4
   0   9   0 -2.4553 3.56014   6
   0   9   0 -0.4936 2.79322   3
   0   9   0 -3.0595 3.49024   5
  -1  -9   0 9.56859 3.20952   6
  -1  -9   0 4.08965 3.04863   5
  -1  -9   0 2.55773 2.18888   4
  -1  -9   0 5.66983 3.09384   6
  -1  -9   0 2.29409 2.55839   2
  -1  -9   0 9.12598 3.96797   5
   1   9   0 1.17891 3.86537   5
   1   9   0 7.70555 3.92849   6
   1   9   0 8.82148 3.41888   1
   1   9   0 5.78009 2.61598   4
   1   9   0 2.50659 2.85074   3
   1   9   0 3.45398 3.09463   5
  -2  -9   0 11.9981 2.58355   4
  -2  -9   0 14.7888 3.11388   6
  -2  -9   0 20.2358 3.28790   5
  -2  -9   0 11.7270 3.39203   2
  -2  -9   0 10.9376 3.19694   6
   2   9   0 17.6783 3.93366   6
   2   9   0 19.4992 4.01476   5
   2   9   0 13.5910 2.98748   4
   2   9   0 12.7884 4.85729   5
   2   9   0 12.8999 3.23925   3
   2   9   0 9.91533 4.39482   1
  -3  -9   0 57.2717 4.56260   5
  -3  -9   0 52.0478 4.99961   4
  -3  -9   0 57.6332 5.96779   6
  -3  -9   0 57.6444 5.04455   6
  -3  -9   0 50.5723 5.44503   2
   3   9   0 51.8255 5.53964   5
   3   9   0 52.2238 5.44696   3
   3   9   0 58.8573 4.27788   4
   3   9   0 45.6474 5.73094   6
   3   9   0 52.5636 6.64144   5
  -4  -9   0 4.20583 3.37753   2
  -4  -9   0 1.45776 3.13431   6
   4   9   0 -2.0829 3.93920   4
   4   9   0 3.65477 4.64403   5
   4   9   0 0.71160 2.95691   3
   5 -10   0 24.7220 3.61553   2
   5 -10   0 31.1689 6.00627   5
  -5  10   0 25.5388 4.91739   3
  -5  10   0 21.5427 5.88087   6
  -5  10   0 21.7124 5.63115   4
   4 -10   0 13.6459 4.34318   6
   4 -10   0 20.2105 6.71437   5
   4 -10   0 21.1459 3.41185   2
   4 -10   0 20.1386 5.08801   5
   4 -10   0 20.9235 6.03677   6
  -4  10   0 18.8798 5.54817   5
  -4  10   0 18.4965 7.15557   3
  -4  10   0 27.6241 6.21932   6
  -4  10   0 28.6855 5.59810   4
   3 -10   0 28.5888 6.28738   5
   3 -10   0 41.6386 6.18945   6
   3 -10   0 31.5590 4.37748   6
   3 -10   0 37.4582 3.85964   2
   3 -10   0 44.7793 5.39061   5
  -3  10   0 41.5529 5.26437   4
  -3  10   0 34.5012 6.69368   5
  -3  10   0 39.1903 5.04344   3
  -3  10   0 35.3313 5.90799   5
  -3  10   0 34.1856 2.80354   1
  -3  10   0 41.4670 6.20752   6
   2 -10   0 20.2486 5.91446   5
   2 -10   0 18.7440 4.71835   6
   2 -10   0 9.09312 4.44928   6
   2 -10   0 15.5300 3.60561   4
   2 -10   0 16.7309 5.31870   5
   2 -10   0 16.4595 3.20733   2
  -2  10   0 16.6943 6.03411   5
  -2  10   0 20.7454 4.33324   4
  -2  10   0 19.3278 5.67690   6
  -2  10   0 10.4666 4.91376   5
  -2  10   0 17.4536 3.78533   3
  -2  10   0 16.8213 2.91728   1
   1 -10   0 16.9749 3.20369   2
   1 -10   0 23.2977 4.67391   6
   1 -10   0 23.1171 5.66578   5
   1 -10   0 18.4652 3.52101   4
   1 -10   0 23.4887 4.43765   6
   1 -10   0 26.4740 4.93584   5
  -1  10   0 20.9042 6.03807   5
  -1  10   0 22.4929 5.03850   6
  -1  10   0 22.0236 4.89504   5
  -1  10   0 18.9873 3.79700   3
  -1  10   0 28.5739 3.66784   1
  -1  10   0 18.9163 4.04131   4
   0 -10   0 31.0348 4.44689   5
   0 -10   0 19.4159 5.85186   5
   0 -10   0 50.8521 5.69547   6
   0 -10   0 44.6432 5.08056   6
   0 -10   0 44.4094 4.48271   2
   0 -10   0 46.6878 3.98229   4
   0  10   0 36.4100 5.48249   5
   0  10   0 44.2147 4.55414   1
   0  10   0 49.9579 4.75564   4
   0  10   0 40.8916 4.62874   3
   0  10   0 41.2576 6.77731   5
   0  10   0 44.1993 5.47776   6
  -1 -10   0 -1.2273 4.93456   6
  -1 -10   0 -2.3604 2.89668   2
  -1 -10   0 -4.4019 3.80873   6
  -1 -10   0 1.69056 3.94540   5
  -1 -10   0 2.91823 3.16329   4
   1  10   0 0.74157 4.72937   1
   1  10   0 -0.7491 3.23320   3
   1  10   0 -1.0268 4.80097   5
   1  10   0 4.60586 6.27372   5
   1  10   0 4.42951 4.97449   6
   1  10   0 5.27839 3.76685   4
  -2 -10   0 11.9138 4.27960   6
  -2 -10   0 9.74023 3.58956   4
  -2 -10   0 4.60086 3.51291   2
   2  10   0 8.01743 3.75143   4
   2  10   0 6.26404 3.52714   3
   2  10   0 3.34423 5.34344   5
  -3 -10   0 4.82108 4.10612   6
  -3 -10   0 -0.4559 3.27035   2
   3  10   0 -2.9882 3.79331   4
   3  10   0 -2.0419 5.40824   5
   3  10   0 -4.1839 3.44907   3
   3 -11   0 0.27244 3.28790   2
   3 -11   0 -2.3067 5.76047   5
   3 -11   0 0.76612 5.30761   6
  -3  11   0 0.12627 7.01933   6
  -3  11   0 1.42873 3.89807   3
  -3  11   0 5.59553 5.80964   4
   2 -11   0 6.55325 5.74920   5
   2 -11   0 0.52604 5.27750   6
   2 -11   0 5.90315 3.42788   2
  -2  11   0 7.22953 5.61606   4
  -2  11   0 1.86768 6.48153   5
  -2  11   0 6.68376 6.39356   6
  -2  11   0 13.3634 10.2954   5
  -2  11   0 10.2877 4.18945   3
   1 -11   0 1.05617 4.82249   6
   1 -11   0 6.38170 3.45991   2
  -1  11   0 -10.919 14.9979   5
  -1  11   0 0.85873 3.73917   3
  -1  11   0 2.62198 5.07975   4
  -1  11   0 12.3600 6.44789   5
  -1  11   0 11.5115 6.35012   1
  -1  11   0 4.72604 6.52162   6
   0 -11   0 15.7930 5.50593   6
   0 -11   0 17.2264 4.24591   2
   0  11   0 19.3945 6.78835   1
   0  11   0 -1.1854 6.77926   5
   0  11   0 20.6033 5.02324   4
   0  11   0 14.6904 4.29561   3
   0  11  -1 39.8560 7.35215   5
   0  11  -1 31.9027 4.98510   3
   0  11  -1 36.5175 5.63591   4
   0 -11   1 33.6601 4.39256   2
   0 -11   1 21.9501 5.58078   6
  -1  11  -1 11.2463 5.09872   1
  -1  11  -1 20.6281 6.76049   5
  -1  11  -1 -5.3543 11.1136   5
  -1  11  -1 17.0724 11.6093   6
  -1  11  -1 10.6740 4.28677   3
  -1  11  -1 11.0225 5.32255   4
   1 -11   1 10.6738 3.68048   2
   1 -11   1 7.67847 5.36854   6
  -2  11  -1 43.8686 7.08996   5
  -2  11  -1 51.0250 11.6818   5
  -2  11  -1 42.6130 7.60003   6
  -2  11  -1 39.2105 5.93879   4
  -2  11  -1 35.1051 5.24704   3
   2 -11   1 37.3224 11.3542   5
   2 -11   1 50.4127 6.19562   6
   2 -11   1 43.7949 4.59607   2
   2 -11   1 40.7607 6.42407   5
  -3  11  -1 -1.0982 6.93869   6
  -3  11  -1 3.04291 3.95753   3
  -3  11  -1 18.9760 5.91337   4
   3 -11   1 7.19183 5.62930   6
   3 -11   1 3.99365 6.17300   5
   3 -11   1 6.11420 3.57283   2
   3  10  -1 -9.3337 3.99753   4
   3  10  -1 -4.1966 3.52820   3
   3  10  -1 0.25048 5.47147   5
  -3 -10   1 1.20737 3.63833   2
  -3 -10   1 -1.0310 4.17996   6
  -3 -10   1 5.91956 5.34405   4
   2  10  -1 7.16479 5.20209   5
   2  10  -1 2.21181 3.33611   3
   2  10  -1 0.35043 3.84353   4
  -2 -10   1 3.97690 4.13727   6
  -2 -10   1 2.30286 3.51425   2
  -2 -10   1 11.7034 3.67560   4
   1  10  -1 60.6747 5.00199   4
   1  10  -1 71.9996 7.75947   5
   1  10  -1 44.1123 4.94645   3
   1  10  -1 60.3932 5.71639   1
   1  10  -1 44.1697 5.61600   6
   1  10  -1 62.7099 5.91631   5
  -1 -10   1 62.8571 6.03107   6
  -1 -10   1 47.9492 5.26132   2
  -1 -10   1 62.1352 6.11293   4
  -1 -10   1 68.6719 5.73281   6
   0  10  -1 3.83338 3.23239   3
   0  10  -1 3.94106 4.40408   1
   0  10  -1 6.20474 4.80907   5
   0  10  -1 9.07792 6.15030   5
   0  10  -1 -2.5411 3.66847   4
   0  10  -1 0.27274 4.82376   6
   0 -10   1 -3.4987 3.08859   6
   0 -10   1 2.54840 3.10611   4
   0 -10   1 -0.3013 3.80785   5
   0 -10   1 -3.7844 5.27185   5
   0 -10   1 2.88918 3.03718   2
   0 -10   1 -2.5284 3.97634   6
  -1  10  -1 35.3248 4.34736   4
  -1  10  -1 38.5856 6.37546   6
  -1  10  -1 31.9526 6.51320   5
  -1  10  -1 24.1202 4.69649   5
  -1  10  -1 27.1875 4.06191   3
  -1  10  -1 32.6877 4.60253   1
   1 -10   1 31.9066 3.75825   2
   1 -10   1 34.0436 6.18104   5
   1 -10   1 29.8957 4.78976   6
   1 -10   1 31.6680 4.06267   4
   1 -10   1 32.0962 5.05931   6
   1 -10   1 24.9557 4.47657   5
  -2  10  -1 -2.9985 3.95920   4
  -2  10  -1 -5.8941 5.27068   6
  -2  10  -1 2.85029 4.53099   5
  -2  10  -1 0.86445 3.32741   3
  -2  10  -1 -0.9797 2.64296   1
  -2  10  -1 -4.0125 5.86426   5
   2 -10   1 -0.9724 2.82730   2
   2 -10   1 7.20985 5.56379   5
   2 -10   1 0.41576 4.03914   6
   2 -10   1 0.64427 4.41123   5
   2 -10   1 0.08986 4.22196   6
  -3  10  -1 19.4999 4.90062   5
  -3  10  -1 20.1071 5.86376   6
  -3  10  -1 5.72497 3.45138   3
  -3  10  -1 10.4985 4.53213   4
  -3  10  -1 13.7929 6.50703   5
  -3  10  -1 17.5658 2.73748   1
   3 -10   1 15.7653 5.56747   6
   3 -10   1 22.5355 6.18912   5
   3 -10   1 14.1279 4.76513   5
   3 -10   1 11.2249 3.57893   6
   3 -10   1 19.7185 3.45800   2
  -4  10  -1 6.31586 5.50358   6
  -4  10  -1 -6.4289 4.70987   4
  -4  10  -1 -2.6775 5.18156   5
   4 -10   1 0.57793 5.07110   5
   4 -10   1 -2.6771 4.40087   6
   4 -10   1 -3.2936 5.16732   6
   4 -10   1 5.00919 6.50310   5
   4 -10   1 4.06844 3.02700   2
  -5  10  -1 24.9877 4.68294   3
  -5  10  -1 43.2407 6.55869   6
  -5  10  -1 33.4084 6.05136   4
   5 -10   1 33.1759 6.12444   5
   4   9  -1 -1.9676 3.04200   3
   4   9  -1 10.5980 3.40980   4
   4   9  -1 5.70396 4.31797   5
  -4  -9   1 -0.9022 3.05565   6
  -4  -9   1 -0.9592 3.42225   2
  -4  -9   1 4.23675 3.65663   4
   3   9  -1 13.2743 5.17402   5
   3   9  -1 20.4779 3.50875   3
   3   9  -1 18.2851 4.58635   5
   3   9  -1 23.1857 3.76109   4
   3   9  -1 18.1106 4.99052   6
  -3  -9   1 22.3594 4.03620   2
  -3  -9   1 22.3954 3.68787   5
  -3  -9   1 25.6200 3.83319   6
  -3  -9   1 20.0425 3.82627   6
  -3  -9   1 15.3567 3.25838   4
   2   9  -1 2.03671 3.47453   5
   2   9  -1 -0.7894 3.28261   4
   2   9  -1 0.77589 4.01478   5
   2   9  -1 -2.8209 2.59198   3
   2   9  -1 -4.3697 3.49145   6
   2   9  -1 10.3843 4.04757   1
  -2  -9   1 -3.6492 2.94497   6
  -2  -9   1 -0.1328 2.28270   4
  -2  -9   1 -2.1642 2.68194   6
  -2  -9   1 -2.3271 2.65639   5
  -2  -9   1 0.74527 2.60204   2
   1   9  -1 56.6196 5.26477   5
   1   9  -1 51.2830 5.79507   5
   1   9  -1 47.4461 4.40185   1
   1   9  -1 35.3586 4.64342   6
   1   9  -1 45.3224 4.79476   3
  -1  -9   1 52.9457 4.97052   5
  -1  -9   1 47.0869 4.57777   2
  -1  -9   1 51.0388 4.93216   5
  -1  -9   1 47.6170 4.39263   4
  -1  -9   1 49.5854 4.42060   6
  -1  -9   1 41.6451 4.04767   6
   0   9  -1 72.7729 5.72218   5
   0   9  -1 64.1316 5.62490   6
   0   9  -1 65.9008 5.19144   3
   0   9  -1 62.1734 5.33997   1
   0   9  -1 67.7296 6.76039   5
   0   9  -1 63.2270 5.90772   4
   0  -9   1 58.4589 6.03063   6
   0  -9   1 63.8021 4.92075   4
   0  -9   1 64.4876 6.12978   5
   0  -9   1 51.1592 6.35549   6
   0  -9   1 69.1875 7.26492   5
   0  -9   1 59.2096 4.88202   2
  -1   9  -1 40.5114 4.97796   5
  -1   9  -1 39.0943 3.95088   4
  -1   9  -1 40.4515 4.44710   5
  -1   9  -1 45.8351 5.04768   6
  -1   9  -1 42.5427 3.35918   1
  -1   9  -1 43.3193 4.68777   3
   1  -9   1 43.9445 3.54646   4
   1  -9   1 47.7322 4.64777   6
   1  -9   1 41.9339 4.62026   5
   1  -9   1 35.0694 3.52559   2
   1  -9   1 46.8386 4.46163   6
   1  -9   1 42.9611 4.60441   5
  -2   9  -1 23.5746 2.94464   1
  -2   9  -1 22.4547 3.53919   4
  -2   9  -1 22.5693 3.67835   3
  -2   9  -1 31.9562 4.73114   5
  -2   9  -1 20.5581 4.38916   6
  -2   9  -1 37.9490 4.70375   5
   2  -9   1 16.9219 2.96140   4
   2  -9   1 29.5979 4.11181   6
   2  -9   1 19.3971 3.25467   6
   2  -9   1 17.7474 3.72161   5
   2  -9   1 26.2721 4.25739   5
   2  -9   1 22.9192 3.01411   2
  -3   9  -1 69.3479 6.94830   5
  -3   9  -1 73.0442 6.35601   4
  -3   9  -1 58.9877 5.33974   3
  -3   9  -1 71.4531 6.04868   5
  -3   9  -1 54.1040 8.41026   6
  -3   9  -1 63.3182 3.98945   1
   3  -9   1 65.1019 6.05564   4
   3  -9   1 62.0961 4.59293   2
   3  -9   1 66.5995 6.95588   5
   3  -9   1 76.1740 6.09228   5
   3  -9   1 81.7852 6.78022   6
   3  -9   1 63.3587 6.53384   6
  -4   9  -1 19.1517 4.18316   3
  -4   9  -1 14.8094 4.18663   4
  -4   9  -1 17.8651 4.43677   6
  -4   9  -1 13.7781 4.83895   5
  -4   9  -1 12.6538 4.06452   5
  -4   9  -1 17.6021 1.69604   1
   4  -9   1 13.6657 3.24499   6
   4  -9   1 25.0635 4.83272   6
   4  -9   1 16.9108 4.57275   5
   4  -9   1 17.7587 2.89496   2
   4  -9   1 11.1350 3.94580   5
  -5   9  -1 12.8537 4.93971   4
  -5   9  -1 8.84760 3.67197   3
  -5   9  -1 19.8439 4.66408   6
   5  -9   1 12.6496 3.08265   2
   5  -9   1 11.9688 5.17236   5
   5  -9   1 5.69868 4.25440   6
   5  -9   1 10.2181 4.19097   6
   5  -9   1 13.3572 4.34237   5
  -6   9  -1 22.5905 5.92694   4
  -6   9  -1 17.8149 4.70159   6
   6  -9   1 23.2059 4.90563   5
   5   8  -1 18.4652 3.27254   4
   5   8  -1 14.5685 3.59028   3
   5   8  -1 19.4397 4.30914   5
  -5  -8   1 19.7416 2.84698   6
  -5  -8   1 17.1357 3.94010   2
  -5  -8   1 17.4597 2.76659   6
   4   8  -1 0.32493 3.33105   5
   4   8  -1 -1.4430 3.76412   6
   4   8  -1 -3.7073 3.51430   5
   4   8  -1 2.56010 2.50841   3
   4   8  -1 3.76641 2.60580   4
  -4  -8   1 2.26109 2.50843   6
  -4  -8   1 2.64025 2.39679   6
  -4  -8   1 5.48234 2.61278   4
  -4  -8   1 3.86013 3.19625   2
  -4  -8   1 2.92445 2.30469   5
   3   8  -1 28.0269 3.72846   5
   3   8  -1 33.1525 4.12659   6
   3   8  -1 26.8553 4.36237   1
   3   8  -1 31.8659 3.77066   5
   3   8  -1 28.9181 3.48423   3
   3   8  -1 30.5953 3.11253   4
  -3  -8   1 30.2084 3.81274   2
  -3  -8   1 34.1301 2.90364   4
  -3  -8   1 28.7152 3.08714   5
  -3  -8   1 23.7072 3.16671   6
  -3  -8   1 28.9733 3.34368   6
  -3  -8   1 30.2850 3.37837   5
   2   8  -1 1.34800 2.98419   1
   2   8  -1 1.75917 2.11484   4
   2   8  -1 3.66973 2.95214   5
   2   8  -1 3.29667 2.78152   6
   2   8  -1 1.96197 3.47893   5
   2   8  -1 0.19869 2.21483   3
  -2  -8   1 -3.5190 1.98101   5
  -2  -8   1 3.14512 2.61548   2
  -2  -8   1 1.48360 1.81465   4
  -2  -8   1 0.29228 2.03155   6
  -2  -8   1 0.54848 2.17395   6
   1   8  -1 5.16296 2.48957   1
   1   8  -1 5.08781 2.38416   3
   1   8  -1 6.12371 2.48218   5
   1   8  -1 8.05926 2.98659   5
   1   8  -1 3.48192 2.08233   4
   1   8  -1 1.70373 2.64261   6
  -1  -8   1 3.11795 2.20031   6
  -1  -8   1 4.10999 2.80400   5
  -1  -8   1 5.42592 2.88667   5
  -1  -8   1 5.41860 1.94947   4
  -1  -8   1 3.02432 2.30384   6
  -1  -8   1 3.79374 2.38654   2
   0   8  -1 179.767 7.73225   5
   0   8  -1 177.420 6.79964   1
   0   8  -1 176.104 6.88281   4
   0   8  -1 169.684 7.37386   3
   0   8  -1 178.715 8.09867   5
   0   8  -1 170.437 8.02776   6
   0  -8   1 166.500 6.90444   2
   0  -8   1 168.827 7.71298   5
   0  -8   1 174.512 6.43938   4
   0  -8   1 182.538 7.56475   6
   0  -8   1 166.120 7.45446   5
  -1   8  -1 -2.1298 1.86714   4
  -1   8  -1 -1.4968 2.79035   5
  -1   8  -1 -2.9938 2.60287   6
  -1   8  -1 4.19602 2.78473   5
  -1   8  -1 0.92916 2.42070   3
  -1   8  -1 0.08406 2.01183   1
   1  -8   1 1.38872 2.50352   5
   1  -8   1 0.41707 1.87125   2
   1  -8   1 -2.1836 2.00211   6
   1  -8   1 -0.2829 1.73723   4
   1  -8   1 1.70124 2.79166   5
  -2   8  -1 40.9520 3.53220   4
  -2   8  -1 39.6883 4.18610   3
  -2   8  -1 39.4767 3.98697   5
  -2   8  -1 49.1466 4.35431   6
  -2   8  -1 41.1402 3.18846   1
  -2   8  -1 30.0300 3.29838   5
   2  -8   1 46.9267 4.35683   5
   2  -8   1 46.8899 3.51832   2
   2  -8   1 46.4673 4.91894   5
   2  -8   1 43.4029 4.25308   4
   2  -8   1 44.7538 4.84903   6
  -3   8  -1 1.27637 2.93959   6
  -3   8  -1 0.76442 2.63520   3
  -3   8  -1 0.23356 3.03199   5
  -3   8  -1 0.55461 1.42047   1
  -3   8  -1 3.49225 3.00090   5
  -3   8  -1 -5.1223 2.52058   4
   3  -8   1 2.87108 2.14740   2
   3  -8   1 -1.1778 2.45175   4
   3  -8   1 2.56623 2.70242   6
   3  -8   1 -1.0121 2.38796   5
   3  -8   1 2.58544 2.78682   5
  -4   8  -1 5.61591 1.20825   1
  -4   8  -1 4.20694 3.27886   5
  -4   8  -1 4.15282 3.15317   6
  -4   8  -1 2.46820 2.85821   4
  -4   8  -1 6.14949 3.50101   5
  -4   8  -1 5.18654 3.17016   3
   4  -8   1 3.34954 3.14787   5
   4  -8   1 3.87666 2.85982   4
   4  -8   1 7.61445 2.22183   2
   4  -8   1 3.31225 2.78557   6
   4  -8   1 1.14564 2.99265   5
  -5   8  -1 0.10854 3.38516   4
  -5   8  -1 7.08771 2.98681   5
  -5   8  -1 0.83192 2.83299   3
  -5   8  -1 3.96230 3.51066   5
  -5   8  -1 1.14075 3.07359   6
   5  -8   1 1.12652 3.25123   6
   5  -8   1 3.13859 3.37234   5
   5  -8   1 0.96218 3.73311   4
   5  -8   1 2.68031 3.05844   5
  -6   8  -1 73.3894 6.35524   3
  -6   8  -1 80.6170 6.54366   5
  -6   8  -1 81.0308 7.95431   4
  -6   8  -1 67.1083 6.84293   6
   6  -8   1 75.6319 7.28253   6
   6  -8   1 74.9766 6.04342   5
   6  -8   1 69.8633 6.93832   5
  -7   8  -1 63.7406 6.75664   4
  -7   8  -1 58.9815 5.95478   3
  -7   8  -1 61.5248 5.32842   6
   7  -8   1 58.7394 5.60472   5
   6   7  -1 2.09219 3.45160   5
   6   7  -1 -1.6542 2.61733   3
   6   7  -1 1.70802 2.73783   4
  -6  -7   1 -0.2057 1.40651   6
  -6  -7   1 6.97749 3.26479   2
  -6  -7   1 -0.0055 1.32887   6
   5   7  -1 6.38878 3.49450   6
   5   7  -1 4.97404 3.00600   5
   5   7  -1 4.25739 2.71145   3
   5   7  -1 3.79455 2.36439   4
   5   7  -1 3.30978 2.96131   5
  -5  -7   1 6.82081 2.00398   6
  -5  -7   1 6.69504 2.00157   6
  -5  -7   1 6.00386 2.98641   2
   4   7  -1 5.40985 2.55434   5
   4   7  -1 13.7670 3.80525   1
   4   7  -1 8.58788 2.62060   3
   4   7  -1 8.82617 2.84598   6
   4   7  -1 9.93102 2.17608   4
   4   7  -1 10.1384 2.62539   5
  -4  -7   1 10.3301 2.22786   6
  -4  -7   1 9.41345 2.19942   4
  -4  -7   1 11.0449 2.18695   6
  -4  -7   1 13.8615 2.28102   5
  -4  -7   1 4.79191 2.67928   2
  -4  -7   1 9.06627 1.96815   5
   3   7  -1 -1.9374 2.05517   5
   3   7  -1 2.27650 2.08061   6
   3   7  -1 -2.3909 2.01543   3
   3   7  -1 0.82145 2.38736   5
   3   7  -1 -0.1147 2.79434   1
   3   7  -1 0.22129 1.66332   4
  -3  -7   1 -1.1057 1.57400   4
  -3  -7   1 1.29519 1.71481   5
  -3  -7   1 1.09422 1.92214   6
  -3  -7   1 2.45060 1.98219   5
  -3  -7   1 0.03205 1.85111   6
  -3  -7   1 -3.3985 2.05607   2
   2   7  -1 52.5855 3.39775   4
   2   7  -1 44.5979 3.66245   1
   2   7  -1 52.9908 4.31902   5
   2   7  -1 45.7571 3.84289   3
   2   7  -1 47.9682 4.40652   5
  -2  -7   1 44.0391 3.88986   6
  -2  -7   1 49.1755 3.64165   5
  -2  -7   1 42.8661 4.00949   2
  -2  -7   1 43.1913 3.04970   4
   1   7  -1 13.2139 2.70612   6
   1   7  -1 9.71368 2.41803   5
   1   7  -1 10.9212 1.81301   4
   1   7  -1 12.9896 2.16880   1
   1   7  -1 9.22826 2.18193   5
   1   7  -1 15.3593 2.54544   3
  -1  -7   1 13.0475 1.72884   4
  -1  -7   1 14.0914 2.50746   2
  -1  -7   1 12.0077 2.33684   5
  -1  -7   1 10.7073 1.93389   6
   0   7  -1 69.7928 4.80042   5
   0   7  -1 67.9675 4.54809   5
   0   7  -1 68.2880 3.75696   1
   0   7  -1 61.2137 4.58765   6
   0   7  -1 56.9146 4.09937   3
   0   7  -1 59.9062 3.67508   4
   0  -7   1 61.6009 4.61005   5
   0  -7   1 69.3082 4.32079   5
   0  -7   1 71.4543 3.46379   4
   0  -7   1 66.2563 4.22523   6
   0  -7   1 67.8054 3.89574   2
  -1   7  -1 205.202 7.26781   4
  -1   7  -1 206.212 7.92307   5
  -1   7  -1 199.945 6.70616   1
  -1   7  -1 205.282 7.79257   5
  -1   7  -1 198.708 7.92226   6
  -1   7  -1 192.612 7.67707   3
   1  -7   1 205.649 7.77229   5
   1  -7   1 203.459 7.67403   5
   1  -7   1 206.602 6.93218   4
   1  -7   1 204.430 7.06256   2
  -2   7  -1 28.2800 3.14816   3
  -2   7  -1 32.3476 3.22782   6
  -2   7  -1 31.2388 3.27184   5
  -2   7  -1 31.4127 2.45566   1
  -2   7  -1 28.4480 2.94801   5
  -2   7  -1 32.3157 2.96174   4
   2  -7   1 36.6722 3.86252   6
   2  -7   1 32.8507 2.67980   4
   2  -7   1 31.3686 2.38017   1
   2  -7   1 31.7337 2.98247   2
   2  -7   1 30.1615 3.21961   5
   2  -7   1 22.5885 2.51231   5
  -3   7  -1 45.6731 4.65309   5
  -3   7  -1 43.5605 4.35838   5
  -3   7  -1 46.4991 4.34810   6
  -3   7  -1 40.6150 4.08865   3
  -3   7  -1 41.6881 4.06679   4
  -3   7  -1 48.8244 2.49656   1
   3  -7   1 47.1639 4.16951   5
   3  -7   1 43.1896 3.81452   4
   3  -7   1 51.8121 3.37234   2
   3  -7   1 41.6808 2.44230   1
   3  -7   1 47.5200 4.61587   5
  -4   7  -1 82.1452 5.39181   5
  -4   7  -1 80.0055 6.35092   4
  -4   7  -1 88.8015 5.10771   5
  -4   7  -1 83.5629 3.01141   1
  -4   7  -1 81.0082 5.33630   3
  -4   7  -1 73.8774 5.38712   6
   4  -7   1 85.9333 5.30898   6
   4  -7   1 83.0622 5.23301   4
   4  -7   1 84.1229 4.08972   2
   4  -7   1 88.3689 5.53587   5
   4  -7   1 88.1032 5.26851   5
  -5   7  -1 43.7940 4.50730   3
  -5   7  -1 42.2314 3.73807   5
  -5   7  -1 34.4044 3.79566   4
  -5   7  -1 50.1261 5.04647   6
  -5   7  -1 43.6945 3.48181   5
   5  -7   1 49.6728 4.97223   6
   5  -7   1 49.2846 4.04386   5
   5  -7   1 31.8058 3.82613   5
   5  -7   1 45.8723 3.38747   2
   5  -7   1 38.0037 4.12496   4
  -6   7  -1 19.0136 3.51563   3
  -6   7  -1 9.92632 2.88537   5
  -6   7  -1 11.8407 3.92140   4
  -6   7  -1 12.2851 3.02560   6
  -6   7  -1 14.4093 2.93368   5
   6  -7   1 17.6057 3.21258   5
   6  -7   1 14.8605 3.29865   5
   6  -7   1 15.6971 4.32196   4
   6  -7   1 14.7933 3.14202   6
   6  -7   1 8.68253 3.56117   6
  -7   7  -1 27.7053 4.16096   3
  -7   7  -1 25.6042 3.69407   6
  -7   7  -1 29.3425 3.02617   5
  -7   7  -1 35.8489 5.37783   4
   7  -7   1 28.1226 4.38624   5
   7  -7   1 30.7165 4.19619   5
   7  -7   1 28.6066 4.45132   6
  -8   7  -1 -2.2626 3.59609   6
  -8   7  -1 0.04319 3.11815   6
   8  -7   1 0.34237 3.78437   5
   7   6  -1 10.2735 3.07802   4
   7   6  -1 8.29744 3.32679   5
   7   6  -1 15.6934 3.71825   5
  -7  -6   1 3.26139 3.53707   2
   6   6  -1 53.0221 4.89804   5
   6   6  -1 53.7041 4.52589   4
   6   6  -1 51.5572 4.97717   6
   6   6  -1 47.8418 3.92115   5
  -6  -6   1 49.3494 5.32872   2
   5   6  -1 8.97304 2.31026   5
   5   6  -1 3.93938 2.43895   6
   5   6  -1 7.81524 1.96042   4
   5   6  -1 4.34948 2.24336   5
   5   6  -1 6.39669 3.75027   1
  -5  -6   1 7.66817 2.81301   2
  -5  -6   1 6.54525 1.51430   6
  -5  -6   1 5.34285 1.51423   6
   4   6  -1 21.5520 2.76510   3
   4   6  -1 15.0726 2.32799   5
   4   6  -1 17.6372 2.50837   6
   4   6  -1 20.3283 3.49816   1
   4   6  -1 15.9033 2.53227   5
   4   6  -1 14.0301 1.86144   4
  -4  -6   1 17.1451 2.00136   6
  -4  -6   1 16.2017 1.93132   6
  -4  -6   1 17.8665 3.02780   2
  -4  -6   1 18.0690 1.70508   5
  -4  -6   1 19.0946 1.85491   5
  -4  -6   1 16.5499 2.06823   4
   3   6  -1 -1.8706 2.24780   1
   3   6  -1 0.70424 1.79226   5
   3   6  -1 -0.1378 1.73543   6
   3   6  -1 1.96761 1.78886   3
   3   6  -1 2.06274 1.33229   4
   3   6  -1 0.63455 1.75584   5
  -3  -6   1 0.07701 1.50738   6
  -3  -6   1 -0.6893 1.55666   6
  -3  -6   1 0.24973 1.31689   4
  -3  -6   1 -0.2946 1.92117   2
  -3  -6   1 -0.6384 1.35570   5
  -3  -6   1 2.70816 1.53245   5
   2   6  -1 85.8677 4.27930   3
   2   6  -1 87.1204 4.49730   5
   2   6  -1 85.3385 4.46245   1
   2   6  -1 78.9714 4.39162   5
   2   6  -1 87.6941 4.50809   6
   2   6  -1 81.9185 3.63514   4
  -2  -6   1 78.0777 3.47617   4
  -2  -6   1 88.6825 3.99459   5
  -2  -6   1 84.6705 4.22336   5
  -2  -6   1 88.8371 4.59244   2
   1   6  -1 13.8815 2.09858   3
   1   6  -1 10.9695 2.17029   6
   1   6  -1 14.0641 2.13166   5
   1   6  -1 11.6242 1.51996   4
   1   6  -1 13.8768 1.89228   1
   1   6  -1 11.9950 2.06283   5
  -1  -6   1 10.6993 1.33298   4
  -1  -6   1 15.2712 2.00513   5
  -1  -6   1 8.93094 1.91472   2
  -1  -6   1 9.44470 1.54495   6
   0   6  -1 9.07843 1.75732   5
   0   6  -1 7.88037 1.89222   3
   0   6  -1 10.9052 1.53795   1
   0   6  -1 8.44497 1.47243   4
   0   6  -1 7.02756 1.68422   6
   0   6  -1 9.85899 1.91915   5
   0  -6   1 9.65055 1.46052   1
   0  -6   1 11.5598 1.40883   4
   0  -6   1 13.3804 2.07610   5
   0  -6   1 12.2239 1.96421   5
   0  -6   1 12.8475 2.00496   6
   0  -6   1 12.4506 1.87403   2
  -1   6  -1 406.329 12.4933   4
  -1   6  -1 416.479 12.0978   1
  -1   6  -1 404.994 12.9243   3
  -1   6  -1 417.772 13.0765   6
  -1   6  -1 425.495 12.9193   5
  -1   6  -1 423.756 12.9148   5
   1  -6   1 438.427 12.9932   6
   1  -6   1 428.821 12.9261   5
   1  -6   1 417.307 12.1035   1
   1  -6   1 440.016 12.3571   4
   1  -6   1 402.373 12.3763   2
   1  -6   1 414.481 12.8654   5
  -2   6  -1 5.22995 1.75385   5
  -2   6  -1 5.15281 1.59900   4
  -2   6  -1 7.51525 1.89853   6
  -2   6  -1 5.24816 1.66181   5
  -2   6  -1 4.18937 1.03893   1
  -2   6  -1 3.57540 1.79549   3
   2  -6   1 3.15338 1.65460   5
   2  -6   1 3.85671 1.61784   4
   2  -6   1 4.73230 1.03816   1
   2  -6   1 4.30022 1.49957   5
   2  -6   1 2.80918 1.24452   6
  -3   6  -1 38.3178 3.61083   3
  -3   6  -1 27.4750 2.96987   5
  -3   6  -1 38.8452 3.59084   5
  -3   6  -1 40.1054 3.50525   6
  -3   6  -1 37.7738 2.03128   1
  -3   6  -1 35.3779 3.37539   4
   3  -6   1 40.6805 3.56236   5
   3  -6   1 37.7955 2.77661   2
   3  -6   1 38.6990 1.96249   1
   3  -6   1 38.7622 3.27219   4
   3  -6   1 39.3895 3.34653   6
   3  -6   1 37.5606 3.32031   5
  -4   6  -1 0.87465 1.81782   4
  -4   6  -1 0.64541 1.58168   5
  -4   6  -1 0.60853 1.95606   3
  -4   6  -1 1.76577 1.75767   6
  -4   6  -1 0.05671 0.72217   1
  -4   6  -1 2.80186 1.78931   5
   4  -6   1 2.16377 1.83390   5
   4  -6   1 0.93430 0.75700   1
   4  -6   1 2.36530 1.59483   2
   4  -6   1 1.10689 1.82673   5
   4  -6   1 3.46858 1.96180   4
   4  -6   1 0.36368 1.92653   6
  -5   6  -1 1.36356 1.87291   5
  -5   6  -1 3.34396 1.84990   5
  -5   6  -1 1.68970 1.98842   6
  -5   6  -1 3.81019 2.31227   3
  -5   6  -1 0.62426 2.79326   4
   5  -6   1 0.32024 1.98893   5
   5  -6   1 2.04029 2.15493   6
   5  -6   1 -0.0942 1.82286   5
   5  -6   1 1.45961 1.71728   2
   5  -6   1 5.78713 2.71535   4
  -6   6  -1 0.56136 2.88202   4
  -6   6  -1 4.86453 2.13963   6
  -6   6  -1 0.24444 2.70653   3
  -6   6  -1 4.71897 2.14295   5
  -6   6  -1 2.99280 1.92491   5
   6  -6   1 2.18422 1.89208   2
   6  -6   1 5.30668 2.27415   5
   6  -6   1 3.89186 2.57660   6
   6  -6   1 -0.0745 2.18926   5
   6  -6   1 -4.1593 3.61341   4
  -7   6  -1 74.1399 3.98444   5
  -7   6  -1 84.9030 5.00459   6
  -7   6  -1 80.8926 7.33220   4
  -7   6  -1 82.8693 5.86856   3
  -7   6  -1 83.3278 3.82594   5
   7  -6   1 71.4942 5.56355   5
   7  -6   1 79.1455 5.95572   6
   7  -6   1 83.3497 5.69411   5
  -8   6  -1 99.9509 7.04693   3
  -8   6  -1 108.305 5.42786   6
   8  -6   1 109.737 7.75106   5
   8  -6   1 116.088 6.97053   5
   7   5  -1 37.8904 3.48952   6
   7   5  -1 38.7338 3.19580   5
   7   5  -1 29.9580 3.04843   5
   7   5  -1 37.2767 3.37330   4
  -7  -5   1 38.9949 4.69816   2
   6   5  -1 7.59577 2.16750   5
   6   5  -1 9.63687 2.59503   6
   6   5  -1 11.7418 4.11590   1
   6   5  -1 7.95663 2.16790   5
   6   5  -1 8.88623 2.14142   4
  -6  -5   1 10.7105 3.19724   2
   5   5  -1 1.22970 1.69800   5
   5   5  -1 1.96028 1.72915   5
   5   5  -1 2.91392 3.18956   1
   5   5  -1 1.49380 1.87819   6
   5   5  -1 -0.5865 1.41882   4
  -5  -5   1 -1.1830 2.07233   2
  -5  -5   1 1.16913 1.18490   6
  -5  -5   1 0.55830 0.96955   6
   4   5  -1 17.2827 2.12808   6
   4   5  -1 19.0884 2.80534   1
   4   5  -1 18.2787 2.07651   5
   4   5  -1 21.1530 2.18865   5
   4   5  -1 18.3421 1.75724   4
  -4  -5   1 20.1086 1.73692   5
  -4  -5   1 18.6859 1.70651   6
  -4  -5   1 21.9174 1.85069   5
  -4  -5   1 18.9801 1.68214   6
  -4  -5   1 12.8397 2.46625   2
  -4  -5   1 21.3326 1.98563   4
   3   5  -1 6.26299 2.04317   1
   3   5  -1 3.39307 1.42441   5
   3   5  -1 5.99807 1.17301   4
   3   5  -1 4.55960 1.53865   5
   3   5  -1 5.70788 1.56997   6
  -3  -5   1 3.41049 1.18795   5
  -3  -5   1 5.09649 1.88532   2
  -3  -5   1 4.73905 1.24523   4
  -3  -5   1 6.03915 1.21008   5
  -3  -5   1 3.58992 1.26845   6
  -3  -5   1 4.89447 1.21618   6
   2   5  -1 -1.9458 1.06128   5
   2   5  -1 -2.0129 1.31268   1
   2   5  -1 -0.2695 0.87884   4
   2   5  -1 0.16288 1.22061   6
   2   5  -1 0.48313 1.31471   3
   2   5  -1 -1.0029 1.21309   5
  -2  -5   1 -0.0001 0.88064   4
  -2  -5   1 0.34011 1.06266   5
  -2  -5   1 -0.7010 1.41260   2
  -2  -5   1 2.32976 1.15052   6
   1   5  -1 68.6740 3.55626   5
   1   5  -1 73.9614 3.53679   5
   1   5  -1 66.3210 3.66254   6
   1   5  -1 76.5449 3.32377   1
   1   5  -1 76.1949 3.56800   3
   1   5  -1 70.6367 3.01790   4
  -1  -5   1 70.2561 3.59967   2
  -1  -5   1 73.0104 3.34273   5
  -1  -5   1 73.6563 3.33518   1
  -1  -5   1 70.2057 3.38393   5
  -1  -5   1 74.1150 3.41664   6
  -1  -5   1 72.0307 2.93460   4
   0   5  -1 88.2102 3.50725   1
   0   5  -1 93.0010 3.88897   3
   0   5  -1 99.7503 4.15998   6
   0   5  -1 93.9157 4.03269   5
   0   5  -1 94.0947 4.06149   5
   0   5  -1 82.9633 3.52883   4
   0  -5   1 90.6972 3.94934   5
   0  -5   1 88.5181 3.50490   1
   0  -5   1 90.8635 3.76750   2
   0  -5   1 88.4962 3.91019   5
   0  -5   1 86.8327 3.83837   6
   0  -5   1 90.8882 3.38971   4
  -1   5  -1 65.9246 3.09738   4
  -1   5  -1 67.4450 2.74875   1
  -1   5  -1 68.2915 3.39925   3
  -1   5  -1 68.0214 3.52060   6
  -1   5  -1 69.2524 3.51070   5
  -1   5  -1 70.8356 3.47174   5
   1  -5   1 69.8886 2.94661   4
   1  -5   1 65.1847 2.71598   1
   1  -5   1 70.1631 3.43951   6
   1  -5   1 66.2352 3.37746   5
   1  -5   1 71.8228 3.51070   5
   1  -5   1 72.3782 3.13766   2
  -2   5  -1 548.516 15.6758   4
  -2   5  -1 532.521 14.9067   1
  -2   5  -1 514.352 15.6546   5
  -2   5  -1 543.293 16.0317   6
  -2   5  -1 531.592 15.8949   3
  -2   5  -1 547.521 15.7538   5
   2  -5   1 537.746 14.9250   1
   2  -5   1 525.366 15.4138   4
   2  -5   1 562.758 15.1531   2
   2  -5   1 537.017 15.7760   5
   2  -5   1 548.333 15.8322   6
   2  -5   1 540.568 15.7355   5
  -3   5  -1 12.3274 1.63383   6
  -3   5  -1 18.2517 1.98062   5
  -3   5  -1 16.0873 1.93382   4
  -3   5  -1 15.3461 1.83937   5
  -3   5  -1 17.6711 1.35300   1
  -3   5  -1 13.6906 2.23347   3
   3  -5   1 14.3863 1.73378   5
   3  -5   1 16.9064 1.86998   4
   3  -5   1 16.0816 1.95077   5
   3  -5   1 15.9373 1.29700   1
   3  -5   1 19.3362 1.59817   2
   3  -5   1 9.60321 1.42818   6
  -4   5  -1 43.4781 3.20846   6
  -4   5  -1 47.0831 1.93578   1
  -4   5  -1 48.0097 3.52739   4
  -4   5  -1 45.6200 2.96413   5
  -4   5  -1 46.8428 3.68876   3
  -4   5  -1 49.4672 3.09546   5
   4  -5   1 46.5210 3.29878   5
   4  -5   1 46.8258 3.65073   4
   4  -5   1 48.4228 3.21032   5
   4  -5   1 46.4463 1.91851   1
   4  -5   1 50.4014 3.20072   6
   4  -5   1 50.8320 2.53848   2
  -5   5  -1 87.1957 4.92588   3
  -5   5  -1 86.0359 3.90821   5
  -5   5  -1 82.6156 3.90516   5
  -5   5  -1 80.5687 4.91651   4
  -5   5  -1 87.7374 4.33439   6
   5  -5   1 79.1662 4.32103   5
   5  -5   1 84.6680 2.81030   1
   5  -5   1 87.0813 4.30015   6
   5  -5   1 82.1136 4.31000   5
   5  -5   1 84.8456 5.12811   4
   5  -5   1 85.6971 3.49691   2
  -6   5  -1 74.3635 5.04795   3
  -6   5  -1 79.1959 3.47930   5
  -6   5  -1 75.3397 3.57977   5
  -6   5  -1 81.3412 5.42826   4
  -6   5  -1 71.4742 4.07544   6
   6  -5   1 80.2447 3.51950   2
   6  -5   1 76.2113 4.55600   5
   6  -5   1 74.3908 5.78703   4
   6  -5   1 77.5493 2.70007   1
   6  -5   1 72.2439 4.39189   5
   6  -5   1 75.4251 2.73243   1
   6  -5   1 78.5201 4.58948   6
  -7   5  -1 13.6471 3.13528   3
  -7   5  -1 13.5535 2.24013   6
  -7   5  -1 13.8077 2.02239   6
   7  -5   1 11.9334 3.99077   4
   7  -5   1 17.3984 1.71664   1
   7  -5   1 10.9939 2.52326   6
   7  -5   1 17.5084 2.33239   2
   7  -5   1 12.1318 2.63594   6
   7  -5   1 14.9597 2.56035   5
   7  -5   1 14.6406 2.50865   5
   7  -5   1 13.0872 1.26860   1
  -8   5  -1 28.1905 4.01814   3
   8  -5   1 29.7153 2.48599   1
   8  -5   1 25.7848 3.32192   5
   8  -5   1 29.8428 2.15031   1
   8  -5   1 31.5090 3.31831   5
  -9   5  -1 -0.3636 3.51177   3
   9  -5   1 0.34922 5.05297   5
   8   4  -1 124.405 6.77317   4
   8   4  -1 108.484 10.6548   4
   8   4  -1 117.646 4.96353   5
   8   4  -1 129.667 5.04501   5
  -8  -4   1 113.972 10.6645   2
   7   4  -1 5.27407 2.29424   4
   7   4  -1 4.74124 1.85624   5
   7   4  -1 3.90019 1.88820   6
   7   4  -1 2.39867 1.61744   6
   7   4  -1 3.70784 1.91573   5
  -7  -4   1 3.06105 2.93707   2
   6   4  -1 30.3684 2.91445   5
   6   4  -1 28.7523 3.98554   1
   6   4  -1 32.2969 3.09032   4
   6   4  -1 32.0868 2.88218   5
  -6  -4   1 24.7816 3.36069   2
   5   4  -1 105.736 4.36613   6
   5   4  -1 111.701 5.70513   1
   5   4  -1 100.656 4.24082   5
   5   4  -1 107.159 4.21240   4
   5   4  -1 103.404 4.24808   5
   4   4  -1 7.88446 1.39780   5
   4   4  -1 5.85506 1.37680   6
   4   4  -1 6.99157 1.96639   1
   4   4  -1 7.21464 1.34119   5
   4   4  -1 6.86941 1.16239   4
  -4  -4   1 8.18285 1.03369   6
  -4  -4   1 7.14927 1.05442   6
  -4  -4   1 3.56022 1.81521   2
   3   4  -1 5.44254 0.94381   4
   3   4  -1 5.39887 1.13447   5
   3   4  -1 5.64356 1.28105   5
   3   4  -1 7.98588 1.34716   6
   3   4  -1 3.77384 1.47977   1
  -3  -4   1 4.82743 0.96965   6
  -3  -4   1 6.12766 1.82152   2
  -3  -4   1 4.99493 0.97021   5
  -3  -4   1 6.12798 0.98488   5
  -3  -4   1 3.66487 1.01913   4
  -3  -4   1 4.31820 1.01814   6
   2   4  -1 6.32489 1.31337   1
   2   4  -1 5.40434 1.10410   6
   2   4  -1 6.18054 0.93020   4
   2   4  -1 5.13175 1.16771   5
   2   4  -1 4.54982 1.16828   5
  -2  -4   1 6.32000 1.04871   5
  -2  -4   1 3.63573 1.45724   2
  -2  -4   1 5.16093 0.89655   4
  -2  -4   1 4.40460 0.96333   6
   1   4  -1 230.847 7.10295   5
   1   4  -1 228.302 7.06144   3
   1   4  -1 219.932 6.89153   1
   1   4  -1 222.374 7.09956   6
   1   4  -1 222.345 6.67874   4
   1   4  -1 210.940 7.01548   5
  -1  -4   1 226.367 6.99416   6
  -1  -4   1 227.723 6.62148   4
  -1  -4   1 217.865 6.89148   1
  -1  -4   1 223.633 7.15710   2
  -1  -4   1 227.481 6.95380   5
  -1  -4   1 220.938 6.93847   5
   0   4  -1 31.8402 2.12432   5
   0   4  -1 33.3657 2.17457   3
   0   4  -1 32.7674 1.79223   1
   0   4  -1 28.6717 2.09672   6
   0   4  -1 33.3027 1.84637   4
   0   4  -1 31.7479 2.16410   5
   0  -4   1 34.7505 2.14069   5
   0  -4   1 36.9529 2.14679   5
   0  -4   1 32.3238 1.71929   4
   0  -4   1 31.8449 2.05403   2
   0  -4   1 35.0546 1.83509   1
  -1   4  -1 23.8744 1.79385   4
  -1   4  -1 24.7243 1.46371   1
  -1   4  -1 27.0133 2.06217   5
  -1   4  -1 26.1594 2.13085   3
  -1   4  -1 28.2636 2.04415   5
   1  -4   1 29.3425 2.07647   5
   1  -4   1 25.7813 1.80560   2
   1  -4   1 23.3117 1.89341   5
   1  -4   1 28.5320 1.73611   4
   1  -4   1 26.3541 1.96158   6
   1  -4   1 26.1689 1.48920   1
  -2   4  -1 721.107 20.9359   4
  -2   4  -1 768.781 21.2006   3
  -2   4  -1 756.648 20.3429   1
  -2   4  -1 728.894 21.0737   6
  -2   4  -1 755.397 20.9492   5
   2  -4   1 758.644 21.0258   5
   2  -4   1 741.745 20.8415   4
   2  -4   1 729.480 21.0243   6
   2  -4   1 815.022 20.4882   2
   2  -4   1 722.491 20.3276   1
   2  -4   1 738.124 21.0142   5
  -3   4  -1 10.0491 1.29197   5
  -3   4  -1 6.13392 1.14692   6
  -3   4  -1 10.9452 1.87275   3
  -3   4  -1 11.3458 1.07259   1
  -3   4  -1 12.1072 1.40477   5
  -3   4  -1 13.2956 1.66180   4
   3  -4   1 8.95572 1.52994   4
   3  -4   1 6.83379 1.16981   5
   3  -4   1 12.9492 1.22466   2
   3  -4   1 8.98071 1.35129   5
   3  -4   1 11.1491 1.03696   1
   3  -4   1 8.56002 1.28344   6
  -4   4  -1 17.6945 2.01732   4
  -4   4  -1 24.1822 1.42097   1
  -4   4  -1 25.3224 2.49626   5
  -4   4  -1 26.0011 2.08184   5
  -4   4  -1 22.1891 2.38893   3
  -4   4  -1 21.5887 2.22734   6
   4  -4   1 25.4838 1.94350   2
   4  -4   1 23.9914 2.27373   6
   4  -4   1 21.2349 2.24969   5
   4  -4   1 23.8381 2.23279   5
   4  -4   1 28.6816 2.41741   4
   4  -4   1 22.7640 1.39121   1
  -5   4  -1 0.45494 1.64824   4
  -5   4  -1 1.31958 1.02301   5
  -5   4  -1 1.78701 2.04941   3
  -5   4  -1 2.84832 1.12706   5
  -5   4  -1 1.73967 1.23663   6
   5  -4   1 -0.4787 1.31145   5
   5  -4   1 1.68372 1.31675   6
   5  -4   1 4.62824 1.46673   2
   5  -4   1 2.68173 1.96796   4
   5  -4   1 1.67815 0.80463   1
   5  -4   1 2.40274 1.25296   5
  -6   4  -1 12.8264 2.67226   4
  -6   4  -1 9.61965 1.82594   6
  -6   4  -1 10.9561 1.65500   6
  -6   4  -1 9.38340 2.58085   3
   6  -4   1 9.43734 1.77763   5
   6  -4   1 8.05296 1.86508   2
   6  -4   1 4.72742 2.67196   4
   6  -4   1 8.75135 1.28881   1
   6  -4   1 6.37761 1.73872   5
   6  -4   1 11.5509 1.83446   6
  -7   4  -1 12.9834 2.98804   3
  -7   4  -1 9.29467 1.24021   6
  -7   4  -1 10.0642 1.41689   6
   7  -4   1 9.49555 2.85016   2
   7  -4   1 9.65417 1.57849   1
   7  -4   1 9.61475 2.09893   6
   7  -4   1 6.76918 1.98676   5
   7  -4   1 9.58383 1.93973   6
   7  -4   1 10.4185 3.58656   4
   7  -4   1 9.24715 2.09721   5
   7  -4   1 9.56905 1.63537   1
  -8   4  -1 67.1986 5.43037   3
   8  -4   1 61.2995 4.50472   6
   8  -4   1 57.9937 4.25387   1
   8  -4   1 69.3299 4.80993   2
   8  -4   1 63.1443 3.61352   1
   8  -4   1 59.2769 4.46371   5
   8  -4   1 56.1788 4.37207   5
  -9   4  -1 115.470 7.18972   3
   9  -4   1 131.502 6.34925   5
   9  -4   1 119.180 6.24327   6
   9  -4   1 130.312 6.17845   5
   8   3  -1 3.33567 4.93663   4
   8   3  -1 9.54399 2.98533   4
  -8  -3   1 6.07646 3.39967   2
   7   3  -1 71.0128 6.62239   1
   7   3  -1 69.0329 6.22140   4
   7   3  -1 67.2332 4.26372   4
   7   3  -1 66.1181 3.09100   5
   7   3  -1 67.5688 3.34924   5
  -7  -3   1 60.6044 5.23628   2
   6   3  -1 87.7895 3.95077   4
   6   3  -1 89.7466 3.46422   6
   6   3  -1 87.9205 3.52040   5
   6   3  -1 90.1087 3.49737   5
   6   3  -1 84.7303 3.47434   6
   6   3  -1 84.7652 5.57421   1
  -6  -3   1 90.2567 5.36903   2
   5   3  -1 25.8221 2.10918   6
   5   3  -1 24.4906 2.47393   1
   5   3  -1 27.5369 1.99911   5
   5   3  -1 27.6914 2.25935   4
   5   3  -1 28.3553 2.00548   5
  -5  -3   1 26.3448 2.83483   2
   4   3  -1 0.33609 0.87321   5
   4   3  -1 2.31440 1.72642   1
   4   3  -1 -0.5878 0.79729   5
   4   3  -1 -0.7385 0.88283   6
   4   3  -1 -0.4880 0.80277   4
  -4  -3   1 0.58791 0.55230   6
  -4  -3   1 0.45566 0.53644   6
  -4  -3   1 -0.7179 1.50747   2
   3   3  -1 35.9904 1.95789   5
   3   3  -1 35.9651 2.02899   5
   3   3  -1 38.5382 1.89223   4
   3   3  -1 36.9570 2.00930   6
  -3  -3   1 37.1451 1.73882   6
  -3  -3   1 36.1792 1.80284   6
  -3  -3   1 34.1882 2.61580   2
  -3  -3   1 37.4914 1.57698   5
  -3  -3   1 36.7298 1.56512   5
  -3  -3   1 36.1243 2.01505   4
   2   3  -1 5.19191 0.88569   5
   2   3  -1 3.75415 0.79755   5
   2   3  -1 2.91217 0.61275   4
   2   3  -1 5.90890 1.08497   1
   2   3  -1 4.47737 0.85121   6
  -2  -3   1 4.70483 1.01903   1
  -2  -3   1 4.90877 1.30054   2
  -2  -3   1 4.23189 0.74745   5
  -2  -3   1 5.42121 0.72636   4
  -2  -3   1 5.15315 0.75680   5
  -2  -3   1 2.64577 0.71951   6
   1   3  -1 17.6936 1.38701   5
   1   3  -1 19.0203 1.46624   5
   1   3  -1 16.1618 1.37527   6
   1   3  -1 17.9162 1.17974   4
   1   3  -1 18.9467 1.44185   1
  -1  -3   1 18.2795 1.14413   4
  -1  -3   1 18.9143 1.75839   2
  -1  -3   1 18.9286 1.34813   5
  -1  -3   1 19.3409 1.39840   1
   0   3  -1 94.8828 3.12170   1
   0   3  -1 90.2274 3.31059   5
   0   3  -1 92.6758 3.11070   4
   0   3  -1 99.6072 3.41031   3
   0   3  -1 93.2248 3.38434   6
   0  -3   1 97.7182 3.07991   4
   0  -3   1 99.6170 3.28382   2
   0  -3   1 92.0976 3.28981   5
   0  -3   1 90.3734 3.08946   1
   0  -3   1 87.1868 3.35267   5
  -1   3  -1 427.220 11.4419   1
  -1   3  -1 407.685 11.8274   5
  -1   3  -1 421.062 11.8270   5
  -1   3  -1 394.635 11.6907   4
  -1   3  -1 396.736 11.8636   6
   1  -3   1 408.719 11.4356   1
   1  -3   1 433.055 11.8899   6
   1  -3   1 445.661 11.4967   2
   1  -3   1 410.495 11.6427   4
   1  -3   1 405.070 11.8254   5
   1  -3   1 407.834 11.8102   5
  -2   3  -1 102.462 3.60600   5
  -2   3  -1 97.3765 3.67938   4
  -2   3  -1 104.422 3.89327   3
  -2   3  -1 102.303 3.14257   1
  -2   3  -1 99.9019 3.67157   6
   2  -3   1 107.216 3.68882   4
   2  -3   1 94.4058 3.60306   5
   2  -3   1 99.5849 3.13770   1
   2  -3   1 111.575 3.21985   2
   2  -3   1 99.4444 3.64081   5
   2  -3   1 105.823 3.67976   6
  -3   3  -1 824.577 22.1229   5
  -3   3  -1 808.225 22.5012   3
  -3   3  -1 815.593 22.0388   5
  -3   3  -1 782.087 21.6744   1
  -3   3  -1 782.374 22.1837   6
  -3   3  -1 767.180 22.3469   4
   3  -3   1 789.806 22.1696   5
   3  -3   1 813.813 22.3298   4
   3  -3   1 782.788 22.1530   6
   3  -3   1 857.558 21.7022   2
   3  -3   1 799.468 21.6818   1
   3  -3   1 792.411 22.1608   5
  -4   3  -1 9.06045 0.99604   5
  -4   3  -1 7.79998 1.13604   6
  -4   3  -1 10.0624 1.74107   3
  -4   3  -1 9.67795 1.07076   5
  -4   3  -1 7.44553 1.47930   4
   4  -3   1 8.76334 1.54593   4
   4  -3   1 9.92856 0.91212   1
   4  -3   1 8.47592 1.20881   5
   4  -3   1 9.25747 1.16820   6
   4  -3   1 10.4441 1.38099   2
   4  -3   1 9.10835 1.26078   5
  -5   3  -1 28.9597 3.07648   3
  -5   3  -1 30.2569 1.33191   5
  -5   3  -1 28.8181 2.60710   4
  -5   3  -1 29.1064 1.99293   6
  -5   3  -1 29.2701 1.34577   5
   5  -3   1 34.0900 2.27755   5
   5  -3   1 30.5129 2.19162   5
   5  -3   1 27.4299 1.86307   1
   5  -3   1 28.3096 2.21744   6
   5  -3   1 26.6533 2.44761   4
  -6   3  -1 58.7613 2.34666   6
  -6   3  -1 55.9064 4.15700   3
  -6   3  -1 64.6769 2.48841   6
   6  -3   1 61.7492 4.69825   4
   6  -3   1 59.9000 3.14427   5
   6  -3   1 61.0575 2.90544   1
   6  -3   1 57.2127 3.01847   6
   6  -3   1 59.5585 3.09200   5
  -7   3  -1 95.2304 5.19608   3
   7  -3   1 102.018 6.64551   4
   7  -3   1 93.2041 4.09412   5
   7  -3   1 95.9091 4.07967   1
   7  -3   1 91.8519 4.14015   1
   7  -3   1 85.9704 3.94332   6
   7  -3   1 85.9505 3.99931   5
   7  -3   1 83.0595 3.89624   6
  -8   3  -1 11.1162 3.08409   3
   8  -3   1 13.6587 2.60173   1
   8  -3   1 12.8831 1.73314   6
   8  -3   1 15.3636 1.85111   6
   8  -3   1 13.4675 4.68550   4
   8  -3   1 16.7498 2.19472   5
   8  -3   1 11.1178 2.24304   1
  -9   3  -1 11.7713 3.47165   3
   9  -3   1 14.3999 2.44280   5
   9  -3   1 15.0216 2.96767   1
   9  -3   1 11.9535 2.38491   5
   9   2  -1 -3.1975 4.97911   1
   9   2  -1 4.25238 3.69330   4
  -9  -2   1 4.53452 3.80518   2
   8   2  -1 81.4885 6.18470   1
   8   2  -1 101.247 7.02161   1
   8   2  -1 76.3960 5.94599   4
   8   2  -1 98.7397 5.58820   4
  -8  -2   1 87.2723 6.17527   2
   7   2  -1 272.657 10.1494   4
   7   2  -1 288.800 9.08024   4
   7   2  -1 277.498 10.2248   1
  -7  -2   1 267.860 9.74025   3
  -7  -2   1 269.963 10.0491   2
   6   2  -1 1.61627 0.84137   5
   6   2  -1 -1.0236 2.13268   1
   6   2  -1 0.92245 1.35112   4
   6   2  -1 -0.0561 0.76804   5
  -6  -2   1 1.70439 1.84741   3
  -6  -2   1 1.80223 2.13559   2
   5   2  -1 47.0372 1.91701   6
   5   2  -1 49.5110 2.59050   4
   5   2  -1 45.0942 2.01312   6
   5   2  -1 44.8885 1.99789   5
   5   2  -1 50.3676 3.50286   1
   5   2  -1 45.7344 2.00060   5
  -5  -2   1 42.6891 3.42384   2
  -5  -2   1 47.1599 3.25344   3
   4   2  -1 242.896 7.36232   4
   4   2  -1 244.612 7.04890   5
   4   2  -1 246.021 7.06482   5
   4   2  -1 250.390 7.82716   1
   4   2  -1 251.486 7.09338   6
  -4  -2   1 244.282 8.07586   2
  -4  -2   1 240.964 7.88628   3
   3   2  -1 3.37116 0.67755   5
   3   2  -1 3.61803 0.60479   5
   3   2  -1 3.43727 0.71922   4
   3   2  -1 4.01103 1.05344   1
   3   2  -1 3.26141 0.66021   6
  -3  -2   1 3.52605 1.21799   2
  -3  -2   1 3.78578 0.47676   6
  -3  -2   1 4.32514 0.56300   6
   2   2  -1 43.9424 1.80234   6
   2   2  -1 46.1501 2.06687   1
   2   2  -1 41.7479 1.87312   5
   2   2  -1 43.5382 1.74436   4
   2   2  -1 44.7249 1.76437   5
  -2  -2   1 43.5587 2.24912   2
  -2  -2   1 44.6454 1.64399   5
  -2  -2   1 44.5494 1.62465   5
  -2  -2   1 45.3170 1.79324   4
  -2  -2   1 45.0052 1.69362   6
  -2  -2   1 45.0821 2.06064   1
   1   2  -1 0.59282 0.52116   1
   1   2  -1 0.35596 0.37930   4
   1   2  -1 -0.3010 0.41184   5
   1   2  -1 -0.0265 0.36588   5
   1   2  -1 0.04176 0.37838   6
  -1  -2   1 -0.0088 0.47877   1
  -1  -2   1 0.91088 0.36902   4
  -1  -2   1 1.03511 0.77628   2
   0   2  -1 419.138 11.0774   3
   0   2  -1 394.074 11.0827   5
   0   2  -1 386.275 11.0706   5
   0   2  -1 385.417 10.9234   1
   0   2  -1 404.993 11.1370   6
   0   2  -1 377.107 10.9187   4
   0  -2   1 410.032 11.0915   5
   0  -2   1 386.896 10.9042   4
   0  -2   1 394.582 11.0826   5
   0  -2   1 388.602 10.9301   1
   0  -2   1 394.985 11.0887   6
   0  -2   1 422.945 10.9892   2
  -1   2  -1 21.8542 1.17355   4
  -1   2  -1 23.4146 1.23149   5
  -1   2  -1 22.1335 1.25208   6
  -1   2  -1 22.9546 0.98496   1
  -1   2  -1 24.9058 1.45737   3
   1  -2   1 23.8425 1.02685   2
   1  -2   1 21.3779 1.22758   5
   1  -2   1 23.7704 1.23069   6
   1  -2   1 21.6173 1.23312   5
   1  -2   1 21.4327 1.16105   4
   1  -2   1 22.4057 0.98995   1
  -2   2  -1 95.9730 3.40557   3
  -2   2  -1 87.5079 3.07468   6
  -2   2  -1 89.2718 3.00855   5
  -2   2  -1 87.0714 3.17972   4
  -2   2  -1 89.1515 2.99551   5
  -2   2  -1 91.8559 2.81990   1
   2  -2   1 86.3426 3.05143   6
   2  -2   1 92.3442 3.19201   4
   2  -2   1 96.3958 2.83772   1
   2  -2   1 92.8527 3.08188   5
   2  -2   1 99.6093 2.75697   2
   2  -2   1 92.4455 3.08212   5
  -3   2  -1 761.669 21.2968   6
  -3   2  -1 780.894 21.1229   5
  -3   2  -1 773.620 21.6271   4
  -3   2  -1 793.760 21.1611   5
  -3   2  -1 808.482 21.7088   3
  -3   2  -1 779.346 21.1542   1
   3  -2   1 763.261 21.1460   1
   3  -2   1 788.999 21.6120   4
   3  -2   1 784.229 21.3160   6
   3  -2   1 759.966 21.3090   5
  -4   2  -1 6.32483 0.83368   6
  -4   2  -1 5.25281 1.53342   3
  -4   2  -1 4.63972 0.77149   6
  -4   2  -1 3.33202 1.13842   4
   4  -2   1 4.11389 0.79518   1
   4  -2   1 5.25601 0.84307   5
   4  -2   1 5.31275 0.82705   6
   4  -2   1 3.72215 1.26573   4
   4  -2   1 3.83216 0.80092   5
  -5   2  -1 10.6436 1.94928   3
  -5   2  -1 10.1885 1.01955   6
  -5   2  -1 9.88015 0.92882   6
   5  -2   1 8.36112 1.24575   1
   5  -2   1 9.06396 1.18194   6
   5  -2   1 11.2823 1.93919   4
   5  -2   1 9.20062 1.11824   5
   5  -2   1 9.69511 1.13878   5
  -6   2  -1 10.5265 2.26872   3
   6  -2   1 11.7114 2.54720   4
   6  -2   1 7.77806 1.08825   6
   6  -2   1 8.85976 1.25840   5
   6  -2   1 7.14488 1.16393   5
   6  -2   1 6.79122 1.44166   1
  -7   2  -1 7.13823 2.46538   3
   7  -2   1 8.06882 2.07205   1
   7  -2   1 10.7805 1.46831   5
   7  -2   1 9.86161 1.27343   6
   7  -2   1 10.2238 1.11024   6
   7  -2   1 6.25704 1.91968   1
   7  -2   1 4.07728 2.82216   4
  -8   2  -1 21.6015 3.22965   3
   8  -2   1 17.6427 2.98531   1
   8  -2   1 22.3614 1.83084   5
   8  -2   1 14.6133 4.68632   4
   8  -2   1 21.8017 1.85622   5
   8  -2   1 22.9735 2.76451   1
  -9   2  -1 37.0517 4.01835   3
   9  -2   1 39.4298 3.80061   1
   9  -2   1 35.1853 3.13417   5
   9  -2   1 34.6631 5.20129   1
   9  -2   1 33.2118 2.69713   5
   9   1  -1 4.75136 4.28092   1
   9   1  -1 -0.2729 3.51825   4
  -9  -1   1 3.14424 3.52883   2
  -9  -1   1 -4.0441 2.76033   3
   8   1  -1 -1.2805 2.47391   4
   8   1  -1 5.24561 4.24135   4
   8   1  -1 -3.3963 3.79602   1
   8   1  -1 -1.9287 3.03199   1
  -8  -1   1 0.78433 2.84798   2
  -8  -1   1 0.19495 2.39831   3
   7   1  -1 6.63796 2.57804   1
   7   1  -1 3.86373 1.92590   4
   7   1  -1 6.50833 2.90548   4
  -7  -1   1 5.98438 2.33966   3
  -7  -1   1 7.85371 2.58112   2
   6   1  -1 140.275 5.94771   4
   6   1  -1 144.184 5.72608   1
   6   1  -1 141.341 5.30278   4
  -6  -1   1 138.013 6.00388   2
  -6  -1   1 138.952 5.80458   3
   5   1  -1 205.126 5.85632   5
   5   1  -1 212.397 5.87326   5
   5   1  -1 213.596 7.00503   1
   5   1  -1 210.601 6.75723   4
  -5  -1   1 214.123 7.36430   2
  -5  -1   1 205.490 7.15189   3
   4   1  -1 49.2784 2.33708   4
   4   1  -1 48.9940 1.64589   6
   4   1  -1 47.4151 1.62529   5
   4   1  -1 46.8433 1.69153   6
   4   1  -1 48.9844 1.65638   5
   4   1  -1 45.6632 2.52652   1
  -4  -1   1 48.1160 2.74859   3
  -4  -1   1 50.3186 2.93856   2
   3   1  -1 0.55983 0.35856   5
   3   1  -1 1.11529 0.35000   5
   3   1  -1 1.22442 0.36807   6
   3   1  -1 0.87160 0.60863   4
   3   1  -1 0.71528 0.70907   1
  -3  -1   1 0.85309 1.01547   2
  -3  -1   1 -0.3307 0.87189   3
   2   1  -1 19.1823 0.83722   5
   2   1  -1 18.9786 0.85176   6
   2   1  -1 17.8123 1.20908   1
   2   1  -1 18.4508 0.87550   5
   2   1  -1 19.4461 1.05539   4
  -2  -1   1 18.7274 1.19660   1
  -2  -1   1 19.8557 0.65765   5
  -2  -1   1 19.9473 0.76670   6
  -2  -1   1 18.9706 1.44703   3
  -2  -1   1 18.7446 0.65657   5
  -2  -1   1 18.7582 1.49946   2
   1   1  -1 27.4518 1.09384   5
   1   1  -1 28.0981 1.17083   1
   1   1  -1 29.8097 1.07242   6
   1   1  -1 26.1375 1.04002   4
   1   1  -1 27.0566 1.05176   5
  -1  -1   1 28.5675 1.07212   4
  -1  -1   1 27.9480 1.06108   5
  -1  -1   1 26.5977 1.16662   1
  -1  -1   1 26.8622 1.03258   5
  -1  -1   1 29.8200 1.37074   3
  -1  -1   1 29.9599 1.42119   2
  -1  -1   1 28.2923 1.03534   6
   0   1  -1 59.6791 1.89205   1
   0   1  -1 61.5788 1.88407   4
   0  -1   1 61.3319 1.96425   5
   0  -1   1 62.3107 1.87653   4
   0  -1   1 65.3530 1.91652   2
   0  -1   1 59.1143 1.93879   5
   0  -1   1 58.6881 1.92617   6
  -1   1  -1 81.2701 2.55068   6
  -1   1  -1 80.9571 2.47640   1
  -1   1  -1 81.6389 2.51802   5
  -1   1  -1 89.5382 2.65164   3
  -1   1  -1 78.8441 2.57536   4
   1  -1   1 77.6934 2.54127   5
   1  -1   1 85.1225 2.55857   6
   1  -1   1 86.7046 2.58333   4
   1  -1   1 84.8674 2.55637   5
  -2   1  -1 615.457 15.7116   3
  -2   1  -1 562.566 15.3560   5
  -2   1  -1 544.023 15.6517   4
  -2   1  -1 572.967 15.4968   1
  -2   1  -1 560.213 15.3732   5
  -2   1  -1 551.616 15.4452   6
  -2   1  -1 596.184 15.6049   2
   2  -1   1 571.281 15.4626   6
   2  -1   1 574.780 15.6674   4
   2  -1   1 558.623 15.4582   5
   2  -1   1 559.225 15.4913   1
   2  -1   1 559.873 15.4451   5
  -3   1  -1 117.507 4.07157   4
  -3   1  -1 127.056 3.62370   6
  -3   1  -1 124.243 4.21642   3
  -3   1  -1 115.769 3.57107   6
  -3   1  -1 128.649 3.91920   2
   3  -1   1 124.677 3.88343   1
   3  -1   1 121.227 4.12669   4
   3  -1   1 119.792 3.64434   6
   3  -1   1 123.664 3.68266   5
   3  -1   1 119.333 3.65978   5
  -4   1  -1 494.904 13.4781   2
  -4   1  -1 452.504 14.1820   3
   4  -1   1 476.470 13.0067   6
   4  -1   1 460.858 13.0441   5
   4  -1   1 470.991 13.0565   5
   4  -1   1 488.328 13.7430   4
   4  -1   1 487.708 13.4478   1
  -5   1  -1 9.54797 1.76566   3
  -5   1  -1 8.43789 1.85337   2
   5  -1   1 9.78418 0.98218   6
   5  -1   1 8.68662 0.88208   5
   5  -1   1 7.83977 1.70003   4
   5  -1   1 8.80286 0.82757   5
   5  -1   1 10.0172 1.36488   1
  -6   1  -1 24.9450 2.43387   2
  -6   1  -1 20.8547 2.38082   3
   6  -1   1 19.9021 1.56046   5
   6  -1   1 20.4443 1.48275   5
   6  -1   1 20.3286 2.00823   1
   6  -1   1 22.7649 2.64372   4
  -7   1  -1 22.9019 2.92986   3
  -7   1  -1 28.1703 2.93846   2
   7  -1   1 24.4901 1.74720   5
   7  -1   1 23.8927 1.68515   5
   7  -1   1 21.4975 2.50594   1
   7  -1   1 19.6657 2.63161   1
   7  -1   1 26.3350 3.53130   4
  -8   1  -1 70.1369 5.00738   3
   8  -1   1 61.1090 5.36282   4
   8  -1   1 69.7121 5.25192   1
   8  -1   1 67.1548 5.78823   1
  -9   1  -1 14.4957 3.27425   3
   9  -1   1 16.6775 4.09639   4
   9  -1   1 18.4965 3.91129   1
   9  -1   1 5.28610 5.12627   1
   9   0  -1 38.7304 4.28402   4
   9   0  -1 31.0556 5.59151   1
   9   0  -1 32.0232 4.38246   1
  -9   0   1 31.5972 4.01589   3
   8   0  -1 9.72238 2.83573   1
   8   0  -1 4.21155 3.03148   1
   8   0  -1 6.56416 4.11140   4
   8   0  -1 6.20618 2.64600   4
  -8   0   1 10.6180 2.94411   2
  -8   0   1 11.4863 2.85575   3
   7   0  -1 107.096 5.15123   4
   7   0  -1 110.561 5.45076   1
   7   0  -1 115.551 6.45613   4
   7   0  -1 115.261 5.16043   1
  -7   0   1 112.648 5.53179   3
  -7   0   1 117.564 5.67107   2
   6   0  -1 461.845 13.3555   1
   6   0  -1 441.866 13.8309   4
  -6   0   1 444.469 13.8269   3
  -6   0   1 453.320 13.8207   2
   5   0  -1 0.62452 0.45298   5
   5   0  -1 0.26536 0.38248   5
   5   0  -1 0.91134 1.20403   1
   5   0  -1 -2.9972 1.30897   4
  -5   0   1 -0.5132 1.38381   2
  -5   0   1 1.44851 1.57765   3
   4   0  -1 53.2486 1.71329   6
   4   0  -1 55.2704 1.62520   6
   4   0  -1 50.9864 1.65781   5
   4   0  -1 50.2355 2.39139   1
   4   0  -1 50.4293 1.67118   5
  -4   0   1 50.5151 2.84109   3
  -4   0   1 51.9433 2.86199   2
   3   0  -1 677.951 18.1087   6
   3   0  -1 653.440 18.1077   5
   3   0  -1 662.031 18.1684   6
   3   0  -1 669.662 18.5068   1
   3   0  -1 653.790 18.1159   5
  -3   0   1 694.372 18.8577   3
  -3   0   1 722.142 18.8432   2
   2   0  -1 13.3714 0.67388   6
   2   0  -1 11.6521 0.58875   5
   2   0  -1 12.3774 0.57991   5
   2   0  -1 13.0938 0.84138   1
   2   0  -1 12.8434 0.56452   6
  -2   0   1 13.4903 0.85902   1
  -2   0   1 11.1303 1.15883   2
  -2   0   1 14.1257 1.24509   3
  -2   0   1 12.9617 0.55778   6
   1   0  -1 1035.48 28.5850   5
   1   0  -1 1021.66 28.6530   6
   1   0  -1 1039.12 28.6659   6
   1   0  -1 1046.15 28.6839   5
   1   0  -1 1041.49 28.6057   1
  -1   0   1 1067.58 28.6242   5
  -1   0   1 1087.33 28.7590   1
  -1   0   1 1118.85 28.7519   3
  -1   0   1 1079.76 28.7471   6
  -1   0   1 1155.89 28.7439   2
  -1   0   1 1052.45 28.7082   6
  -1   0   1 1070.25 28.6514   5
  -1   0  -1 106.715 2.99668   5
  -1   0  -1 105.651 2.99771   5
  -1   0  -1 113.426 3.03520   3
  -1   0  -1 105.106 3.04303   4
  -1   0  -1 105.729 3.00003   6
  -1   0  -1 107.742 3.06608   6
  -1   0  -1 105.434 3.14131   1
  -1   0  -1 108.938 3.09554   2
   1   0   1 100.250 3.01406   5
   1   0   1 108.494 3.02222   5
   1   0   1 108.331 3.00279   6
   1   0   1 107.331 3.04813   4
   1   0   1 107.702 3.07795   6
   1   0   1 97.2902 3.12466   1
  -2   0  -1 8.63420 0.84162   3
  -2   0  -1 9.87037 0.92601   2
  -2   0  -1 6.68203 0.41301   6
  -2   0  -1 7.09561 0.45955   6
   2   0   1 6.72187 0.46141   5
   2   0   1 6.40444 0.67377   1
   2   0   1 8.42037 0.59596   6
   2   0   1 6.75600 0.48173   5
   2   0   1 7.35073 0.45974   6
   2   0   1 5.40399 0.58737   4
  -3   0  -1 200.912 6.00144   2
  -3   0  -1 206.837 5.98031   3
   3   0   1 194.705 5.89968   4
   3   0   1 190.589 5.37950   5
   3   0   1 193.527 5.36041   6
   3   0   1 192.111 5.44079   6
   3   0   1 189.178 5.90313   1
   3   0   1 191.204 5.37634   5
  -4   0  -1 420.730 11.7896   3
  -4   0  -1 419.507 11.8103   2
   4   0   1 397.472 11.6895   1
   4   0   1 394.112 11.6983   4
   4   0   1 401.689 10.9739   5
   4   0   1 403.011 10.9719   5
   4   0   1 397.423 10.9073   6
  -5   0  -1 0.66248 1.36239   3
  -5   0  -1 3.22485 1.58771   2
   5   0   1 2.01949 0.50555   5
   5   0   1 1.61388 0.46853   5
   5   0   1 -0.9178 1.27743   4
   5   0   1 1.47803 1.15215   1
  -6   0  -1 2.51764 1.79874   3
  -6   0  -1 2.81234 1.82830   2
   6   0   1 1.02334 1.71024   1
   6   0   1 2.90081 1.62346   1
   6   0   1 2.31769 2.19692   4
  -7   0  -1 17.4343 2.77275   2
  -7   0  -1 19.8579 2.65478   3
   7   0   1 17.3047 2.40608   1
   7   0   1 25.3299 2.99820   1
   7   0   1 23.8408 3.27096   4
  -8   0  -1 5.01230 2.54048   3
  -8   0  -1 1.54726 2.85322   2
   8   0   1 5.36194 2.68733   4
   8   0   1 7.29224 3.51029   1
   8   0   1 10.7716 3.10251   1
   8   0   1 15.7866 4.25590   4
  -9   0  -1 26.9918 3.63291   3
  -9   0  -1 28.0628 4.22681   2
   9   0   1 14.4108 6.86313   4
   9   0   1 26.9897 4.52463   1
   9   0   1 18.4937 3.84316   4
   9   0   1 17.8539 5.95585   1
   9  -1  -1 27.1918 4.18478   1
   9  -1  -1 20.4972 4.08277   4
   9  -1  -1 24.8328 4.70499   1
  -9   1   1 27.3221 3.87865   3
   8  -1  -1 10.8849 2.53724   1
   8  -1  -1 9.76451 4.22125   4
   8  -1  -1 7.82548 2.80342   1
  -8   1   1 7.50660 2.59475   3
   7  -1  -1 32.7332 3.17715   1
   7  -1  -1 29.7821 1.88888   5
   7  -1  -1 30.5838 1.70801   5
   7  -1  -1 30.9410 3.57810   4
   7  -1  -1 29.8814 2.58608   1
  -7   1   1 35.6297 3.57042   3
   6  -1  -1 4.05905 0.58911   6
   6  -1  -1 2.44544 1.28707   1
   6  -1  -1 3.43684 0.79219   5
   6  -1  -1 2.51836 0.83812   5
   6  -1  -1 3.04780 2.00046   4
   6  -1  -1 3.66252 0.71645   6
   6  -1  -1 3.10097 1.35970   1
  -6   1   1 1.92425 1.85559   3
   5  -1  -1 231.142 7.84605   4
   5  -1  -1 231.497 6.68748   5
   5  -1  -1 236.719 6.69725   6
   5  -1  -1 237.103 6.58377   6
   5  -1  -1 233.187 6.70911   5
   5  -1  -1 233.280 7.09313   1
  -5   1   1 236.731 7.61475   2
  -5   1   1 230.217 7.83279   3
   4  -1  -1 477.364 13.5622   4
   4  -1  -1 464.076 12.7140   6
   4  -1  -1 461.109 12.8052   6
   4  -1  -1 456.810 12.7576   5
   4  -1  -1 460.221 12.7693   5
   4  -1  -1 464.747 12.9606   1
  -4   1   1 477.065 13.4062   2
  -4   1   1 462.225 13.6270   3
   3  -1  -1 28.9998 1.27331   5
   3  -1  -1 28.2584 1.32959   6
   3  -1  -1 28.7890 1.31176   1
   3  -1  -1 28.6681 1.23178   5
   3  -1  -1 29.9977 1.26060   6
   3  -1  -1 30.0621 1.86157   4
  -3   1   1 28.5503 1.20605   6
  -3   1   1 31.4999 2.07073   3
   2  -1  -1 -0.4463 0.31507   6
   2  -1  -1 0.02970 0.31061   6
   2  -1  -1 -0.2435 0.32639   5
   2  -1  -1 0.32930 0.24797   1
   2  -1  -1 0.45274 0.29753   5
   2  -1  -1 -0.2089 0.46790   4
  -2   1   1 0.42813 0.32366   6
  -2   1   1 0.31882 0.29312   5
  -2   1   1 0.80604 0.75589   3
  -2   1   1 0.12255 0.28196   5
   1  -1  -1 0.89518 0.55053   2
   1  -1  -1 0.42505 0.30503   6
   1  -1  -1 0.78910 0.36013   4
   1  -1  -1 0.20663 0.24418   5
   1  -1  -1 0.76310 0.27916   5
   1  -1  -1 0.09901 0.24358   6
   1  -1  -1 0.54009 0.13795   1
  -1   1   1 0.58271 0.13891   1
  -1   1   1 0.35044 0.58111   3
  -1   1   1 0.84125 0.31426   4
  -1   1   1 0.14840 0.23009   5
  -1   1   1 0.30693 0.30377   6
   0  -1  -1 43.5039 1.49991   6
   0  -1  -1 43.4302 1.53240   5
   0  -1  -1 44.9718 1.57672   6
   0  -1  -1 46.0780 1.34868   4
   0  -1  -1 43.6101 1.50588   5
   0  -1  -1 46.3532 1.64274   2
   0   1   1 43.1023 1.51617   5
   0   1   1 47.0548 1.59974   6
   0   1   1 41.5331 1.46604   1
   0   1   1 45.2620 1.54772   5
   0   1   1 45.3941 1.52737   6
   0   1   1 49.8488 1.54604   3
   0   1   1 44.8276 1.34965   4
  -1  -1  -1 74.9937 2.26390   5
  -1  -1  -1 74.4394 2.23054   5
  -1  -1  -1 76.2633 2.33590   6
  -1  -1  -1 73.4488 2.23390   6
   1   1   1 73.7104 2.29554   5
   1   1   1 72.8287 2.33116   6
   1   1   1 75.4628 2.27375   6
   1   1   1 71.6197 2.06936   4
   1   1   1 72.5824 2.26235   5
  -2  -1  -1 49.6479 1.65259   6
  -2  -1  -1 51.6485 1.93088   3
  -2  -1  -1 48.5377 1.54093   6
  -2  -1  -1 52.5047 2.20177   2
   2   1   1 49.6182 1.64336   6
   2   1   1 48.4734 1.62298   5
   2   1   1 49.1902 1.71728   6
   2   1   1 48.0431 1.65748   5
  -3  -1  -1 210.806 6.56833   2
  -3  -1  -1 217.893 6.35213   3
   3   1   1 204.320 5.81563   5
   3   1   1 208.537 5.89463   6
   3   1   1 202.811 5.84125   5
   3   1   1 210.144 5.84382   6
   3   1   1 207.933 6.18840   4
  -4  -1  -1 102.825 4.21774   2
  -4  -1  -1 103.179 3.97985   3
   4   1   1 110.060 3.19139   6
   4   1   1 107.889 3.89676   4
   4   1   1 104.054 3.15116   5
   4   1   1 103.813 3.11323   5
  -5  -1  -1 161.923 5.99962   2
  -5  -1  -1 164.190 5.73812   3
   5   1   1 159.907 5.89880   1
   5   1   1 158.196 5.35273   4
   5   1   1 164.030 5.72374   4
   5   1   1 162.961 4.62846   5
   5   1   1 162.722 4.63382   5
   5   1   1 163.197 5.87592   1
  -6  -1  -1 6.02702 1.92122   3
  -6  -1  -1 5.16195 2.09480   2
   6   1   1 1.74884 2.02648   4
   6   1   1 5.44622 1.88708   1
   6   1   1 7.66304 1.51407   4
   6   1   1 4.02757 2.07083   1
  -7  -1  -1 15.4241 2.57707   3
  -7  -1  -1 15.0313 2.83856   2
   7   1   1 10.7777 2.61926   1
   7   1   1 15.6972 2.15905   4
   7   1   1 16.7617 3.05843   4
   7   1   1 13.7701 3.10810   1
  -8  -1  -1 1.35377 2.80006   2
  -8  -1  -1 2.82973 2.41390   3
   8   1   1 2.49677 4.35977   1
   8   1   1 -0.2884 3.83677   4
   8   1   1 1.20414 3.24133   1
  -9  -1  -1 36.4294 4.64906   2
   9   1   1 32.2364 4.08312   4
   9   1   1 51.6413 5.57623   1
   9   1   1 26.1686 7.14228   4
   9  -2  -1 5.17016 2.62988   1
   9  -2  -1 7.08318 3.83856   1
   9  -2  -1 4.10874 1.51485   5
  -9   2   1 3.26735 3.01952   3
   8  -2  -1 42.0772 2.63858   5
   8  -2  -1 43.1491 2.93474   5
   8  -2  -1 41.7736 5.11908   4
   8  -2  -1 44.2398 3.85965   1
   8  -2  -1 45.9002 4.11693   1
  -8   2   1 43.8729 4.62104   3
   7  -2  -1 20.8569 2.10364   1
   7  -2  -1 17.3876 1.66044   5
   7  -2  -1 10.2727 3.24894   4
   7  -2  -1 20.6182 2.08857   6
   7  -2  -1 16.3319 1.68752   6
   7  -2  -1 19.2352 2.00209   1
  -7   2   1 15.1079 2.84737   3
   6  -2  -1 84.6778 3.47100   1
   6  -2  -1 82.8484 3.28445   5
   6  -2  -1 87.4903 3.25218   6
   6  -2  -1 82.3971 3.05814   6
   6  -2  -1 84.0904 5.07395   4
   6  -2  -1 85.9349 3.38699   1
   6  -2  -1 78.7725 3.16924   5
  -6   2   1 82.0396 4.62409   3
   5  -2  -1 521.510 14.2332   6
   5  -2  -1 524.686 14.2121   1
   5  -2  -1 493.844 14.4755   6
   5  -2  -1 511.517 14.2071   1
   5  -2  -1 511.182 15.1673   4
   5  -2  -1 518.889 14.3396   5
   5  -2  -1 492.976 14.2615   5
  -5   2   1 515.579 15.3314   3
  -5   2   1 513.313 13.9736   6
   4  -2  -1 3.32264 0.60620   1
   4  -2  -1 2.48439 0.83203   6
   4  -2  -1 3.84909 0.79981   5
   4  -2  -1 2.22320 1.11116   4
   4  -2  -1 3.32807 0.70933   6
   4  -2  -1 2.73963 0.71313   5
   4  -2  -1 3.63862 0.60892   1
  -4   2   1 4.03393 1.49243   3
  -4   2   1 3.90610 0.49450   5
  -4   2   1 2.39971 0.67573   6
  -4   2   1 4.00497 0.56077   5
   3  -2  -1 43.3937 1.39732   1
   3  -2  -1 41.8750 1.88263   6
   3  -2  -1 43.3918 1.93132   5
   3  -2  -1 42.5343 2.28361   4
   3  -2  -1 40.6133 1.91650   6
   3  -2  -1 42.3097 1.39118   1
   3  -2  -1 42.0603 1.83257   5
  -3   2   1 42.5877 1.76341   5
  -3   2   1 42.0713 1.74298   5
  -3   2   1 40.7303 1.87261   6
   2  -2  -1 808.724 22.6527   6
   2  -2  -1 849.150 22.8067   4
   2  -2  -1 822.969 22.7361   6
   2  -2  -1 899.168 22.7415   2
   2  -2  -1 795.455 22.6433   5
   2  -2  -1 842.740 22.6936   5
  -2   2   1 805.565 22.6133   5
  -2   2   1 837.209 22.6401   5
  -2   2   1 791.943 22.7651   4
  -2   2   1 878.962 23.0013   3
  -2   2   1 818.150 22.7197   6
   1  -2  -1 27.2288 1.37638   5
   1  -2  -1 27.0695 1.39418   6
   1  -2  -1 28.7418 1.47956   2
   1  -2  -1 27.0645 1.34649   6
   1  -2  -1 26.6870 1.34535   5
   1  -2  -1 27.8922 1.29943   4
  -1   2   1 26.5175 0.92917   1
  -1   2   1 26.2653 1.41411   6
  -1   2   1 27.8739 1.34600   5
  -1   2   1 30.6086 1.70081   3
  -1   2   1 25.8653 1.28398   4
  -1   2   1 26.2989 1.31604   5
   0  -2  -1 2174.31 62.2839   6
   0  -2  -1 2526.06 62.3776   2
   0  -2  -1 2430.96 62.6270   5
   0  -2  -1 2298.21 62.5641   6
   0  -2  -1 2410.67 62.6673   5
   0  -2  -1 2318.48 62.2261   4
   0   2   1 2310.27 62.3282   4
   0   2   1 2404.49 62.2863   3
   0   2   1 2224.91 62.3221   5
   0   2   1 2356.41 62.6232   5
   0   2   1 2157.68 62.3668   6
  -1  -2  -1 357.490 9.56685   4
  -1  -2  -1 357.471 9.88828   5
  -1  -2  -1 345.517 9.85147   6
  -1  -2  -1 346.167 9.82042   5
  -1  -2  -1 364.029 10.0825   2
  -1  -2  -1 324.719 9.92691   6
   1   2   1 354.757 9.92709   6
   1   2   1 373.822 9.85204   3
   1   2   1 347.467 9.91796   5
   1   2   1 351.177 9.98045   6
   1   2   1 351.294 9.89638   5
  -2  -2  -1 3.74769 0.61799   6
  -2  -2  -1 4.22794 1.08648   2
  -2  -2  -1 3.95963 0.51336   5
  -2  -2  -1 4.95572 0.55807   5
  -2  -2  -1 4.37637 0.54059   6
   2   2   1 3.41975 0.61173   6
   2   2   1 4.11162 0.63633   5
   2   2   1 4.02921 0.44699   4
  -3  -2  -1 4.78127 0.57443   6
  -3  -2  -1 6.44487 1.44103   2
  -3  -2  -1 4.98935 0.50209   6
   3   2   1 3.90226 0.65443   5
   3   2   1 5.01333 0.78375   6
   3   2   1 3.33897 0.57890   4
   3   2   1 3.33245 0.67497   5
  -4  -2  -1 144.118 5.47796   2
   4   2   1 144.405 4.43332   5
   4   2   1 145.816 4.55525   4
   4   2   1 145.211 4.42007   5
   4   2   1 141.855 5.30351   1
   4   2   1 145.337 4.47128   6
  -5  -2  -1 154.208 6.27048   2
   5   2   1 158.277 4.90508   5
   5   2   1 160.118 6.28866   1
   5   2   1 167.402 5.32216   4
   5   2   1 166.970 4.87738   6
   5   2   1 160.010 4.91257   5
   5   2   1 168.186 5.72181   4
  -6  -2  -1 0.50658 1.98486   2
   6   2   1 1.18146 0.89197   5
   6   2   1 4.50750 2.60367   1
   6   2   1 0.67638 1.27089   4
   6   2   1 0.73474 2.02048   1
   6   2   1 -0.1726 0.83568   5
   6   2   1 -0.2036 1.86885   4
  -7  -2  -1 0.37402 2.54249   2
   7   2   1 -5.9466 3.24180   1
   7   2   1 -0.2045 1.72262   4
   7   2   1 0.32279 2.66839   1
   7   2   1 -0.9495 2.64047   4
  -8  -2  -1 18.1879 3.49213   2
   8   2   1 17.3429 4.02801   1
   8   2   1 25.2227 4.62510   4
   8   2   1 21.3064 3.28581   4
   9  -3  -1 13.7539 2.95219   5
   9  -3  -1 14.8915 2.27058   5
   9  -3  -1 9.19030 2.42679   1
  -9   3   1 14.5613 3.77833   3
   8  -3  -1 8.65654 1.50438   6
   8  -3  -1 6.90159 2.02041   5
   8  -3  -1 6.53386 2.99688   1
   8  -3  -1 5.88672 1.70031   1
   8  -3  -1 7.62185 5.00078   4
   8  -3  -1 6.33381 1.83147   6
   8  -3  -1 6.24785 1.80884   5
  -8   3   1 5.23444 2.79243   3
   7  -3  -1 29.0082 2.60568   5
   7  -3  -1 32.4064 2.93870   6
   7  -3  -1 25.8987 2.29978   1
   7  -3  -1 33.9924 4.26622   4
   7  -3  -1 25.7648 2.25856   5
   7  -3  -1 25.6207 2.28970   1
   7  -3  -1 27.5088 2.48531   6
  -7   3   1 25.1814 3.46607   3
   6  -3  -1 132.508 6.24678   4
   6  -3  -1 118.202 4.50854   5
   6  -3  -1 122.726 4.04228   1
   6  -3  -1 127.427 4.09272   1
   6  -3  -1 126.170 4.70586   5
   6  -3  -1 125.654 4.53866   6
   6  -3  -1 127.452 4.71534   6
  -6   3   1 123.097 4.08560   6
  -6   3   1 125.777 5.84485   3
   5  -3  -1 2.14218 1.14845   6
   5  -3  -1 2.74932 1.80821   4
   5  -3  -1 2.23991 0.64838   1
   5  -3  -1 1.54534 0.99338   5
   5  -3  -1 1.86048 1.02295   6
   5  -3  -1 1.43322 0.59435   1
   5  -3  -1 1.59586 1.06365   5
  -5   3   1 3.09325 0.72535   5
  -5   3   1 1.36717 1.62759   3
  -5   3   1 0.80102 0.90905   6
  -5   3   1 3.52787 0.71659   5
   4  -3  -1 261.299 8.05847   6
   4  -3  -1 257.602 7.95176   5
   4  -3  -1 280.512 8.55510   4
   4  -3  -1 252.311 7.90999   6
   4  -3  -1 274.510 8.19862   2
  -4   3   1 268.700 7.71984   5
  -4   3   1 265.298 7.73858   5
  -4   3   1 262.875 7.97600   6
  -4   3   1 256.213 8.36072   4
  -4   3   1 260.028 8.68816   3
   3  -3  -1 775.802 21.4966   5
   3  -3  -1 806.184 21.4535   2
   3  -3  -1 781.283 21.5627   6
   3  -3  -1 743.796 21.4261   5
   3  -3  -1 750.249 21.4337   6
   3  -3  -1 793.063 21.6786   4
  -3   3   1 763.541 21.5107   6
  -3   3   1 751.677 21.6452   4
  -3   3   1 778.647 21.3593   5
  -3   3   1 788.665 21.9221   3
  -3   3   1 791.250 21.3746   5
   2  -3  -1 7.47937 1.03487   4
   2  -3  -1 8.79759 1.04959   5
   2  -3  -1 9.52401 1.16336   6
   2  -3  -1 6.63895 0.96375   5
   2  -3  -1 8.84811 1.17443   2
   2  -3  -1 7.39603 1.02224   6
  -2   3   1 8.64944 1.10876   4
  -2   3   1 9.60633 1.52931   3
  -2   3   1 6.09882 0.93261   6
  -2   3   1 7.32333 1.01561   5
  -2   3   1 7.66006 0.97131   5
   1  -3  -1 8.17230 0.94528   5
   1  -3  -1 7.01683 0.85463   5
   1  -3  -1 7.42393 0.79425   4
   1  -3  -1 11.0366 1.16485   6
   1  -3  -1 11.9517 1.23461   2
   1  -3  -1 10.6604 1.12526   6
  -1   3   1 9.59591 0.73857   1
  -1   3   1 6.72228 0.85103   5
  -1   3   1 6.16386 0.78270   4
  -1   3   1 13.0041 1.43195   3
  -1   3   1 8.06274 1.00884   6
  -1   3   1 10.3180 1.06644   5
   0  -3  -1 13.1408 0.89276   4
   0  -3  -1 13.6079 1.33378   5
   0  -3  -1 12.0075 1.29037   6
   0  -3  -1 7.78930 0.91442   6
   0  -3  -1 11.0707 1.23345   2
   0   3   1 11.2886 1.07426   1
   0   3   1 11.7090 1.22297   6
   0   3   1 14.1907 1.48431   3
   0   3   1 12.8122 0.97364   4
   0   3   1 12.2649 1.32455   5
   0   3   1 12.1818 1.14184   5
  -1  -3  -1 0.02878 0.97185   2
  -1  -3  -1 0.15173 0.57382   5
  -1  -3  -1 -0.5272 0.55449   6
  -1  -3  -1 0.23616 0.33801   4
   1   3   1 0.22091 0.55529   5
   1   3   1 -0.1301 0.60573   5
   1   3   1 -1.0885 0.84548   3
   1   3   1 -0.4932 0.65648   1
   1   3   1 0.75911 0.69212   6
   1   3   1 0.22399 0.40984   4
  -2  -3  -1 48.3401 2.05600   6
  -2  -3  -1 48.5690 1.80082   4
  -2  -3  -1 48.6285 2.73236   2
  -2  -3  -1 49.2835 1.99074   5
  -2  -3  -1 49.3756 2.09158   5
   2   3   1 49.2780 2.22110   5
   2   3   1 48.6712 2.34640   6
   2   3   1 48.5381 1.78400   4
   2   3   1 51.5710 2.52489   1
   2   3   1 49.8206 2.25646   5
  -3  -3  -1 52.8180 2.20194   6
  -3  -3  -1 51.9651 1.86581   5
  -3  -3  -1 48.3390 3.10875   2
  -3  -3  -1 49.4683 2.02499   6
   3   3   1 50.4096 2.96909   1
   3   3   1 49.6432 2.36322   5
   3   3   1 52.0737 2.41290   6
   3   3   1 50.3184 1.95247   4
   3   3   1 52.1299 2.36047   5
  -4  -3  -1 45.4875 1.70405   6
  -4  -3  -1 49.6892 1.85441   6
  -4  -3  -1 46.6860 3.35665   2
   4   3   1 46.1714 2.09714   4
   4   3   1 48.0237 3.42342   1
   4   3   1 46.2447 2.30820   5
   4   3   1 46.3515 2.43552   6
   4   3   1 45.9339 2.38562   5
  -5  -3  -1 69.5837 4.39858   2
   5   3   1 71.1768 3.00158   4
   5   3   1 74.5560 3.09448   6
   5   3   1 71.7834 3.02849   5
   5   3   1 67.0190 4.55343   1
   5   3   1 73.3039 3.08695   5
  -6  -3  -1 46.8238 4.31675   2
   6   3   1 48.4184 2.64468   6
   6   3   1 52.2323 2.72825   5
   6   3   1 50.7802 4.23052   1
   6   3   1 52.3483 2.95267   4
   6   3   1 42.2884 3.74494   1
   6   3   1 41.0407 2.96243   5
   6   3   1 44.8242 4.02207   4
  -7  -3  -1 -2.9799 2.61563   2
   7   3   1 1.60274 1.43118   5
   7   3   1 2.62397 1.83934   4
   7   3   1 -1.7335 3.11909   1
   7   3   1 0.66151 1.22572   5
   7   3   1 -0.2145 2.91272   4
   7   3   1 0.27463 3.77945   1
  -8  -3  -1 8.40148 3.63241   2
   8   3   1 18.8065 4.48024   1
   8   3   1 11.1748 2.73778   4
   8   3   1 16.6106 5.28671   4
   9  -4  -1 48.4797 4.32571   2
   9  -4  -1 40.2826 3.24517   6
   9  -4  -1 42.7955 3.44616   5
   9  -4  -1 46.9476 4.90335   5
  -9   4   1 43.7023 4.86791   3
   8  -4  -1 4.60146 2.05629   6
   8  -4  -1 3.51325 2.09621   5
   8  -4  -1 7.41096 2.38401   5
   8  -4  -1 4.98723 2.95553   2
   8  -4  -1 3.76904 1.12412   1
  -8   4   1 3.04179 3.11490   3
   7  -4  -1 31.7247 3.12521   5
   7  -4  -1 34.3268 3.15819   6
   7  -4  -1 30.9285 4.25048   4
   7  -4  -1 29.8643 3.09178   2
   7  -4  -1 30.6073 2.74725   6
   7  -4  -1 32.5243 3.44587   5
  -7   4   1 28.7865 2.33355   6
  -7   4   1 29.0035 3.55209   3
   6  -4  -1 17.1200 3.12580   4
   6  -4  -1 16.5805 2.05630   5
   6  -4  -1 18.7205 1.95899   6
   6  -4  -1 16.3918 2.40935   2
   6  -4  -1 15.6970 2.07910   6
   6  -4  -1 15.0276 1.84060   5
  -6   4   1 16.2744 1.76843   6
  -6   4   1 17.9165 1.57388   5
  -6   4   1 19.4898 2.86756   3
  -6   4   1 17.7081 1.51579   5
   5  -4  -1 24.8164 2.17532   6
   5  -4  -1 20.8673 2.47526   4
   5  -4  -1 23.0882 2.16871   5
   5  -4  -1 24.8867 2.38700   5
   5  -4  -1 23.0278 2.44762   6
   5  -4  -1 24.6808 2.31241   2
  -5   4   1 19.7123 2.54284   3
  -5   4   1 22.0488 2.04172   5
  -5   4   1 22.7871 2.36911   6
  -5   4   1 22.1307 2.07188   5
   4  -4  -1 336.844 10.1850   5
   4  -4  -1 337.787 10.2398   5
   4  -4  -1 335.507 10.3018   6
   4  -4  -1 343.097 10.5345   4
   4  -4  -1 331.477 10.1303   6
   4  -4  -1 348.270 10.1098   2
  -4   4   1 327.458 10.1984   6
  -4   4   1 332.135 10.4988   4
  -4   4   1 333.903 9.97602   5
  -4   4   1 328.213 10.7205   3
  -4   4   1 344.454 10.0123   5
   3  -4  -1 10.5233 1.20058   6
   3  -4  -1 12.8815 1.52554   4
   3  -4  -1 16.7985 1.61759   5
   3  -4  -1 10.5384 1.19507   5
   3  -4  -1 13.9084 1.47814   6
   3  -4  -1 16.5621 1.69183   2
  -3   4   1 13.1599 1.95875   3
  -3   4   1 10.8514 1.39023   6
  -3   4   1 13.4091 1.66188   4
  -3   4   1 13.8116 1.54290   5
   2  -4  -1 25.2448 1.95337   4
   2  -4  -1 24.8313 2.12152   6
   2  -4  -1 22.3030 1.98794   6
   2  -4  -1 23.4124 1.96614   5
   2  -4  -1 25.5315 1.93499   2
   2  -4  -1 22.1047 2.02408   5
  -2   4   1 24.4925 2.10934   5
  -2   4   1 22.4252 1.91987   4
  -2   4   1 23.7094 1.02982   1
  -2   4   1 29.2624 2.49808   3
  -2   4   1 24.0979 2.15934   6
   1  -4  -1 334.755 9.54486   2
   1  -4  -1 319.002 9.59950   5
   1  -4  -1 316.404 9.72564   6
   1  -4  -1 315.577 9.64212   5
   1  -4  -1 319.836 9.64922   6
   1  -4  -1 322.654 9.27462   4
  -1   4   1 319.027 9.72602   3
  -1   4   1 319.886 9.01864   1
  -1   4   1 317.180 9.76031   6
  -1   4   1 320.555 9.65858   5
  -1   4   1 325.576 9.67017   5
  -1   4   1 315.752 9.38113   4
   0  -4  -1 32.4178 2.12849   6
   0  -4  -1 27.5638 2.07221   5
   0  -4  -1 31.5243 2.01577   5
   0  -4  -1 29.7704 2.02237   6
   0  -4  -1 30.6407 1.54793   4
   0   4   1 28.7737 2.06231   5
   0   4   1 30.0593 2.19683   6
   0   4   1 29.7048 2.13871   5
   0   4   1 29.9427 1.74300   1
   0   4   1 30.8423 1.64950   4
  -1  -4  -1 1434.01 40.5351   6
  -1  -4  -1 1431.65 41.5972   5
  -1  -4  -1 1498.59 40.7561   2
  -1  -4  -1 1507.63 40.5696   5
  -1  -4  -1 1499.90 40.0305   4
  -1  -4  -1 1554.90 40.7376   6
   1   4   1 1504.45 40.6544   5
   1   4   1 1478.81 40.6362   3
   1   4   1 1527.07 40.4928   1
   1   4   1 1508.92 40.7709   6
   1   4   1 1457.14 40.1112   4
   1   4   1 1490.12 40.6709   5
  -2  -4  -1 258.004 7.93752   6
  -2  -4  -1 250.607 8.29279   2
  -2  -4  -1 261.447 7.69700   5
  -2  -4  -1 256.771 7.79682   5
  -2  -4  -1 257.192 7.33825   4
  -2  -4  -1 252.979 7.79437   6
   2   4   1 259.892 7.40170   4
   2   4   1 258.728 7.95838   5
   2   4   1 269.416 7.94511   3
   2   4   1 249.296 7.96667   5
   2   4   1 260.160 8.07712   6
   2   4   1 252.808 8.05495   1
  -3  -4  -1 40.2657 2.15739   5
  -3  -4  -1 37.3129 2.26177   6
  -3  -4  -1 37.5204 2.06552   6
  -3  -4  -1 39.9019 1.96386   5
  -3  -4  -1 39.8584 3.05929   2
   3   4   1 40.6546 2.53836   5
   3   4   1 37.4314 1.86159   4
   3   4   1 36.2536 2.55563   6
   3   4   1 41.6548 2.50264   5
  -4  -4  -1 6.20320 2.03964   2
  -4  -4  -1 7.09945 0.94188   6
  -4  -4  -1 7.02271 1.09377   6
   4   4   1 8.00295 1.58715   6
   4   4   1 6.62948 1.38367   5
   4   4   1 7.51845 1.03204   4
   4   4   1 7.51441 1.44404   5
   4   4   1 6.49229 2.06892   1
  -5  -4  -1 75.7633 4.83324   2
   5   4   1 74.1629 3.60638   5
   5   4   1 75.3186 3.79849   6
   5   4   1 77.0696 3.23986   4
   5   4   1 76.8385 3.68170   5
   5   4   1 80.3991 5.26594   1
  -6  -4  -1 64.5745 5.01827   2
   6   4   1 64.2459 4.33946   4
   6   4   1 61.4906 3.65561   6
   6   4   1 67.4985 3.45739   4
   6   4   1 69.0419 6.61901   1
   6   4   1 68.0759 3.59693   5
   6   4   1 69.2620 3.67980   5
  -7  -4  -1 -0.7039 2.80188   2
   7   4   1 0.42388 1.81292   5
   7   4   1 -0.8182 3.30626   4
   7   4   1 -1.7803 3.96384   1
   7   4   1 0.22712 1.84211   5
   7   4   1 -1.5100 1.72580   6
   7   4   1 -2.3390 2.04412   4
   8   4   1 -2.1519 1.83630   5
   8   4   1 -1.2608 5.23008   1
   8   4   1 0.79772 2.02252   5
   9  -5  -1 8.60787 3.53205   2
   9  -5  -1 -0.2134 3.05830   5
  -9   5   1 -0.7857 6.38485   3
   8  -5  -1 -0.9677 2.72504   2
   8  -5  -1 5.86020 2.61004   5
   8  -5  -1 2.69533 2.75928   5
   8  -5  -1 3.01678 2.73187   6
  -8   5   1 2.13647 1.39934   6
  -8   5   1 -1.2888 3.15136   3
   7  -5  -1 -1.0275 1.82155   5
   7  -5  -1 0.59537 2.14572   5
   7  -5  -1 -1.5464 2.19758   2
   7  -5  -1 3.26500 3.90492   4
   7  -5  -1 0.53241 2.38244   6
   7  -5  -1 1.88179 1.97945   6
  -7   5   1 -0.9643 1.70060   6
  -7   5   1 -0.0525 2.71161   3
   6  -5  -1 35.9645 3.07672   6
   6  -5  -1 34.8715 4.66263   5
   6  -5  -1 35.7714 3.30868   2
   6  -5  -1 36.3144 3.46671   6
   6  -5  -1 43.0528 3.92719   5
   6  -5  -1 36.1999 3.81529   4
  -6   5   1 32.6902 3.25466   6
  -6   5   1 35.9870 2.78976   5
  -6   5   1 36.9957 3.72728   3
  -6   5   1 34.7008 2.80665   5
   5  -5  -1 215.158 7.46040   5
   5  -5  -1 202.690 7.24587   6
   5  -5  -1 215.014 7.11545   2
   5  -5  -1 212.796 7.97646   4
   5  -5  -1 206.206 7.27458   5
   5  -5  -1 215.136 7.52140   6
  -5   5   1 213.732 6.98782   5
  -5   5   1 207.370 8.16496   3
  -5   5   1 209.593 7.37070   6
  -5   5   1 198.840 7.75452   4
  -5   5   1 209.331 7.06064   5
   4  -5  -1 2.23753 1.46282   5
   4  -5  -1 5.52189 1.82339   6
   4  -5  -1 5.82968 1.62591   6
   4  -5  -1 6.25325 1.51410   2
   4  -5  -1 3.97707 1.76058   4
   4  -5  -1 4.69619 1.38898   5
  -4   5   1 5.28645 1.39560   5
  -4   5   1 5.99859 2.15040   3
  -4   5   1 4.22353 1.50532   6
  -4   5   1 4.44623 1.91485   4
  -4   5   1 5.00220 1.53582   5
   3  -5  -1 175.805 6.40055   6
   3  -5  -1 186.661 6.34652   4
   3  -5  -1 176.624 6.44983   5
   3  -5  -1 181.214 6.57320   2
   3  -5  -1 180.570 6.39287   5
   3  -5  -1 191.709 6.67952   6
  -3   5   1 177.667 6.80560   3
  -3   5   1 179.746 6.41740   4
  -3   5   1 183.219 6.42642   5
  -3   5   1 181.087 6.53773   6
  -3   5   1 184.831 6.32312   5
   2  -5  -1 674.240 18.9505   5
   2  -5  -1 680.251 18.6597   4
   2  -5  -1 659.251 18.6350   2
   2  -5  -1 644.395 18.9511   6
   2  -5  -1 676.549 19.0015   5
  -2   5   1 628.721 18.7426   4
  -2   5   1 663.737 17.9523   1
  -2   5   1 675.134 18.9715   5
  -2   5   1 667.083 18.9588   5
  -2   5   1 651.449 19.1797   3
  -2   5   1 646.581 19.1080   6
   1  -5  -1 0.18988 1.33996   5
   1  -5  -1 -0.0056 0.90904   6
   1  -5  -1 -0.5179 1.06920   6
   1  -5  -1 1.26429 1.27840   2
   1  -5  -1 -0.1134 1.01024   5
   1  -5  -1 0.46366 0.84757   4
  -1   5   1 1.38235 1.38144   3
  -1   5   1 1.20531 0.99128   4
  -1   5   1 1.25470 0.74615   1
  -1   5   1 1.41458 1.22290   5
  -1   5   1 -0.3300 1.23310   6
  -1   5   1 0.93690 1.25634   5
   0  -5  -1 8.85040 1.42899   6
   0  -5  -1 8.85460 1.54145   6
   0  -5  -1 8.59204 1.61469   2
   0  -5  -1 7.94449 1.42963   5
   0  -5  -1 8.78374 1.48797   5
   0  -5  -1 7.89788 1.01549   4
   0   5   1 9.26003 1.68953   3
   0   5   1 9.01657 1.62621   6
   0   5   1 8.17683 1.46490   5
   0   5   1 9.20905 1.48668   5
   0   5   1 7.12891 1.08069   4
   0   5   1 10.3589 1.33317   1
  -1  -5  -1 8.80454 1.84662   2
  -1  -5  -1 5.36233 1.38711   6
  -1  -5  -1 6.66152 0.92085   4
  -1  -5  -1 5.42032 1.28084   5
  -1  -5  -1 7.92436 1.37534   5
  -1  -5  -1 4.53154 1.35868   6
   1   5   1 7.83602 1.55191   3
   1   5   1 7.27899 1.46774   1
   1   5   1 6.66964 1.46284   5
   1   5   1 5.93575 1.34530   5
   1   5   1 5.52319 1.02579   4
  -2  -5  -1 5.78859 1.63950   2
  -2  -5  -1 5.08361 1.52235   5
  -2  -5  -1 6.29414 1.29201   6
  -2  -5  -1 3.37262 1.13981   5
  -2  -5  -1 6.75665 1.28032   6
  -2  -5  -1 5.92983 0.90050   4
   2   5   1 8.23948 1.70774   1
   2   5   1 6.38455 1.47941   5
   2   5   1 6.76799 1.01957   4
   2   5   1 5.93091 1.67392   3
   2   5   1 5.78562 1.42775   6
   2   5   1 4.63346 1.25777   5
  -3  -5  -1 9.97809 1.20908   4
  -3  -5  -1 10.7595 1.49548   5
  -3  -5  -1 8.80827 2.11768   2
  -3  -5  -1 7.07151 1.29468   6
  -3  -5  -1 12.1231 1.65406   6
  -3  -5  -1 8.72965 1.30936   5
   3   5   1 9.30856 1.64378   5
   3   5   1 9.46139 1.63721   5
   3   5   1 8.55108 1.15160   4
   3   5   1 9.52988 2.09304   1
   3   5   1 10.6662 1.81745   6
   3   5   1 9.15590 1.82828   3
  -4  -5  -1 51.0306 2.25114   5
  -4  -5  -1 40.7471 3.90983   2
  -4  -5  -1 51.0359 2.93772   6
  -4  -5  -1 48.5094 2.58503   6
  -4  -5  -1 49.7294 2.34954   5
   4   5   1 45.1440 4.47736   1
   4   5   1 46.8846 2.53111   4
   4   5   1 51.0970 3.34371   3
   4   5   1 44.9917 3.36766   5
   4   5   1 44.1492 3.47457   6
   4   5   1 49.5566 3.51277   5
  -5  -5  -1 7.05482 1.04760   6
  -5  -5  -1 12.3890 2.95891   2
  -5  -5  -1 8.71988 1.21537   6
   5   5   1 2.29024 3.26384   1
   5   5   1 10.4940 2.00685   5
   5   5   1 9.58694 1.51459   4
   5   5   1 6.90155 2.03236   6
   5   5   1 6.37275 1.97315   5
  -6  -5  -1 31.1566 4.05210   2
   6   5   1 32.7995 2.94724   5
   6   5   1 35.6621 3.15928   6
   6   5   1 30.9811 2.85284   5
   6   5   1 35.8814 3.22869   4
  -7  -5  -1 10.0795 3.61048   2
   7   5   1 16.5084 3.34505   6
   7   5   1 15.9312 2.76257   5
   7   5   1 21.4659 4.50701   4
   7   5   1 9.00422 4.87939   1
   7   5   1 14.5112 2.73727   5
   7   5   1 17.5247 2.54078   4
   8  -6  -1 40.9686 3.64251   2
   8  -6  -1 35.5529 3.85349   5
   8  -6  -1 38.0073 4.37250   5
  -8   6   1 33.5779 3.10629   6
  -8   6   1 31.1947 4.43697   3
   7  -6  -1 8.21360 2.80011   6
   7  -6  -1 -3.0366 2.64999   5
   7  -6  -1 7.34538 2.47184   2
   7  -6  -1 1.07932 2.42307   5
  -7   6   1 1.77414 1.97275   5
  -7   6   1 3.25923 2.28956   6
  -7   6   1 1.62146 2.71275   3
  -7   6   1 1.79965 1.76002   5
   6  -6  -1 9.80948 2.63368   6
   6  -6  -1 9.56886 2.36009   5
   6  -6  -1 9.83955 2.19678   2
   6  -6  -1 1.98801 3.59730   4
   6  -6  -1 6.81432 2.30185   5
   6  -6  -1 9.76893 2.30925   6
  -6   6   1 9.88009 2.30106   5
  -6   6   1 10.5006 2.08554   5
  -6   6   1 6.10550 3.01619   3
  -6   6   1 4.30869 2.22680   6
   5  -6  -1 6.41835 1.99032   5
   5  -6  -1 8.98107 2.36835   5
   5  -6  -1 10.2042 2.52608   6
   5  -6  -1 7.08582 1.88272   6
   5  -6  -1 13.1162 3.05036   4
   5  -6  -1 7.93341 2.03017   2
  -5   6   1 6.08339 2.53424   4
  -5   6   1 10.7287 2.27353   5
  -5   6   1 9.37814 2.04535   5
  -5   6   1 9.49829 2.27731   6
  -5   6   1 8.39245 2.68631   3
   4  -6  -1 0.61126 1.50876   6
   4  -6  -1 -0.1091 1.81270   5
   4  -6  -1 -0.3415 1.84044   6
   4  -6  -1 0.56692 2.10795   4
   4  -6  -1 -1.2703 1.42564   5
   4  -6  -1 1.44006 1.65733   2
  -4   6   1 -0.8100 1.73957   6
  -4   6   1 -0.7223 1.77836   4
  -4   6   1 0.32738 1.91586   5
  -4   6   1 -1.8471 2.02587   3
   3  -6  -1 130.719 5.72851   5
   3  -6  -1 128.527 5.47233   5
   3  -6  -1 124.516 4.94621   2
   3  -6  -1 133.005 5.32661   4
   3  -6  -1 137.047 5.82778   6
   3  -6  -1 124.330 5.39910   6
  -3   6   1 132.754 5.70846   6
  -3   6   1 128.725 5.55197   5
  -3   6   1 128.899 7.05716   5
  -3   6   1 131.010 3.77757   1
  -3   6   1 129.733 5.97397   3
  -3   6   1 127.846 5.43027   4
   2  -6  -1 19.7332 2.18095   5
   2  -6  -1 19.8621 2.13424   5
   2  -6  -1 25.3041 2.32647   2
   2  -6  -1 26.4117 2.18126   4
   2  -6  -1 18.7693 2.02534   6
   2  -6  -1 24.7429 2.65342   6
  -2   6   1 22.1459 1.63380   1
  -2   6   1 19.9518 2.32155   6
  -2   6   1 23.0269 2.42105   5
  -2   6   1 19.9162 2.56338   3
  -2   6   1 17.7951 2.14117   5
  -2   6   1 18.8896 2.06363   4
   1  -6  -1 28.9361 3.17576   6
   1  -6  -1 23.9584 2.38372   5
   1  -6  -1 29.6022 2.28421   4
   1  -6  -1 16.2812 1.79581   6
   1  -6  -1 28.2522 2.69967   2
   1  -6  -1 26.7533 2.44188   5
  -1   6   1 20.7793 2.17647   5
  -1   6   1 23.5766 2.07366   1
  -1   6   1 23.3648 2.36974   5
  -1   6   1 23.6840 2.06394   4
  -1   6   1 29.7950 2.96501   3
  -1   6   1 23.4820 2.55473   6
   0  -6  -1 64.8160 2.88441   4
   0  -6  -1 68.7310 3.98384   6
   0  -6  -1 59.2230 3.65599   6
   0  -6  -1 69.4702 4.01663   5
   0  -6  -1 63.6752 3.68724   5
   0  -6  -1 63.4817 3.61336   2
   0   6   1 68.0361 3.27606   1
   0   6   1 63.9886 3.98090   5
   0   6   1 66.1290 3.18121   4
   0   6   1 69.5074 4.09332   6
   0   6   1 66.2890 3.95490   5
   0   6   1 64.2491 3.80882   3
  -1  -6  -1 27.8191 2.58825   5
  -1  -6  -1 24.8557 2.54977   6
  -1  -6  -1 23.4912 2.19173   5
  -1  -6  -1 17.4925 2.28066   2
  -1  -6  -1 25.6267 1.95505   4
  -1  -6  -1 19.5335 2.07430   6
   1   6   1 22.1769 2.61741   6
   1   6   1 16.5681 2.05883   5
   1   6   1 19.2129 2.18931   4
   1   6   1 19.7921 2.14463   1
   1   6   1 21.4534 2.32471   5
   1   6   1 23.1918 2.52348   3
  -2  -6  -1 855.450 23.9376   6
  -2  -6  -1 857.460 23.7839   5
  -2  -6  -1 814.356 23.1318   4
  -2  -6  -1 771.369 24.2967   2
  -2  -6  -1 843.065 23.8998   5
  -2  -6  -1 867.052 24.1431   6
   2   6   1 866.613 24.3762   6
   2   6   1 845.699 24.1859   5
   2   6   1 866.351 24.0846   1
   2   6   1 856.614 24.2005   5
   2   6   1 856.609 24.1151   3
   2   6   1 840.923 23.3405   4
  -3  -6  -1 95.9228 4.68692   6
  -3  -6  -1 98.2348 3.69799   4
  -3  -6  -1 90.2258 4.09474   5
  -3  -6  -1 88.5010 4.20352   6
  -3  -6  -1 90.5826 5.19246   2
  -3  -6  -1 101.958 4.53764   5
   3   6   1 104.916 5.08708   6
   3   6   1 96.9613 4.90275   5
   3   6   1 95.9495 4.92752   5
   3   6   1 95.6879 4.70703   3
   3   6   1 97.5021 3.82896   4
   3   6   1 104.212 5.43009   1
  -4  -6  -1 30.8558 3.50690   2
  -4  -6  -1 34.1482 2.76985   6
  -4  -6  -1 35.5075 2.55171   5
  -4  -6  -1 36.7107 2.79515   5
  -4  -6  -1 37.3000 3.34632   6
   4   6   1 35.5138 3.09307   5
   4   6   1 36.5460 3.97466   1
   4   6   1 39.1725 4.04904   6
   4   6   1 39.2124 3.28318   5
   4   6   1 35.1753 3.54255   3
   4   6   1 38.4425 2.75989   4
  -5  -6  -1 8.70982 1.45852   6
  -5  -6  -1 5.74091 2.93695   2
  -5  -6  -1 9.86356 1.72601   6
   5   6   1 8.93984 2.50407   5
   5   6   1 10.3214 2.75470   6
   5   6   1 9.26654 1.84773   4
   5   6   1 7.55949 2.46730   3
   5   6   1 5.59243 4.05820   1
   5   6   1 8.46937 2.57495   5
  -6  -6  -1 28.8460 4.39863   2
   6   6   1 30.3583 3.47697   5
   6   6   1 31.9085 2.61614   4
   6   6   1 36.0519 4.42623   6
   6   6   1 35.3182 3.57130   3
   6   6   1 30.5392 3.43014   5
  -7  -6  -1 20.1036 4.27910   2
   7   6   1 19.5819 6.10741   1
   7   6   1 19.3990 3.48549   3
   7   6   1 26.4955 3.76342   5
   8  -7  -1 1.79740 3.85909   5
  -8   7   1 -0.1256 3.95365   3
  -8   7   1 -0.8353 3.22671   6
   7  -7  -1 2.33345 3.02618   5
   7  -7  -1 1.70282 3.40655   6
   7  -7  -1 1.77015 2.69967   2
   7  -7  -1 3.89787 3.77564   5
  -7   7   1 1.04773 4.24378   5
  -7   7   1 -1.2170 2.91017   6
  -7   7   1 -5.9854 2.84621   3
   6  -7  -1 10.2574 4.23227   4
   6  -7  -1 9.49825 2.48754   6
   6  -7  -1 6.80173 2.85633   5
   6  -7  -1 6.14627 3.59833   6
   6  -7  -1 7.83516 2.47857   2
   6  -7  -1 7.27330 2.88058   5
  -6   7   1 7.57253 2.86153   6
  -6   7   1 9.49284 2.56067   5
  -6   7   1 6.71846 2.75087   5
  -6   7   1 6.02420 3.29844   3
  -6   7   1 7.59332 3.79074   4
   5  -7  -1 20.8197 3.12556   6
   5  -7  -1 25.0107 4.38678   6
   5  -7  -1 27.1354 2.80613   2
   5  -7  -1 25.0000 3.78236   4
   5  -7  -1 25.1918 3.31268   5
  -5   7   1 26.7009 2.96525   5
  -5   7   1 25.9558 3.37268   5
  -5   7   1 29.1627 3.69773   4
  -5   7   1 28.7585 3.38516   6
  -5   7   1 24.4928 3.60410   3
   4  -7  -1 193.811 7.73973   4
   4  -7  -1 194.371 7.90563   6
   4  -7  -1 192.071 7.85204   5
   4  -7  -1 182.004 6.80814   2
   4  -7  -1 196.205 7.66521   5
   4  -7  -1 201.181 7.65128   6
  -4   7   1 186.334 7.79187   4
  -4   7   1 183.273 7.75583   5
  -4   7   1 165.779 7.76384   3
  -4   7   1 188.132 7.49040   5
  -4   7   1 191.021 7.79812   6
   3  -7  -1 8.78848 2.01281   2
   3  -7  -1 8.79811 2.60400   5
   3  -7  -1 8.83831 2.17169   4
   3  -7  -1 10.6320 3.16524   6
   3  -7  -1 9.13249 2.36830   6
   3  -7  -1 8.93305 2.19298   5
  -3   7   1 7.96995 1.04259   1
  -3   7   1 7.96472 2.19225   6
  -3   7   1 8.54332 0.97597   1
  -3   7   1 6.84939 2.31013   4
  -3   7   1 12.6892 2.83845   3
  -3   7   1 8.03720 2.48144   5
  -3   7   1 9.31194 2.49675   5
   2  -7  -1 102.197 5.53460   5
   2  -7  -1 103.849 5.15587   6
   2  -7  -1 103.564 5.63954   6
   2  -7  -1 98.6429 5.19279   5
   2  -7  -1 105.962 4.73410   2
   2  -7  -1 96.3936 4.53267   4
  -2   7   1 95.1049 3.68740   1
  -2   7   1 95.9068 5.48685   6
  -2   7   1 96.8645 5.23577   3
  -2   7   1 99.2056 5.45378   5
  -2   7   1 103.492 4.86421   4
  -2   7   1 95.8612 5.51301   5
   1  -7  -1 383.766 12.0552   5
   1  -7  -1 385.865 12.3698   6
   1  -7  -1 371.880 12.1615   5
   1  -7  -1 344.944 12.1822   4
   1  -7  -1 359.293 11.6187   2
   1  -7  -1 382.803 12.0788   6
  -1   7   1 357.757 12.0819   3
  -1   7   1 380.789 12.3149   5
  -1   7   1 371.060 11.0416   1
  -1   7   1 379.770 12.3961   6
  -1   7   1 389.634 12.2638   5
  -1   7   1 375.156 11.5428   4
   0  -7  -1 2.50726 2.34331   5
   0  -7  -1 0.13199 1.75537   5
   0  -7  -1 0.48674 1.65178   6
   0  -7  -1 -1.4854 1.19830   4
   0  -7  -1 1.11677 1.87747   2
   0  -7  -1 1.11446 1.98306   6
   0   7   1 -1.1616 1.42062   4
   0   7   1 -0.5935 1.57261   1
   0   7   1 -1.3134 1.88819   3
   0   7   1 -0.6141 1.86778   5
   0   7   1 -0.5842 2.17229   6
   0   7   1 -3.9477 2.23473   5
  -1  -7  -1 0.37381 2.03966   2
  -1  -7  -1 1.44822 2.19576   5
  -1  -7  -1 -0.3363 1.09687   4
  -1  -7  -1 -1.3371 1.47108   6
  -1  -7  -1 0.63085 1.86641   6
  -1  -7  -1 -0.9242 1.73348   5
   1   7   1 1.60763 2.08185   5
   1   7   1 0.96019 1.80741   1
   1   7   1 -0.6160 1.96874   6
   1   7   1 2.01175 1.38686   4
   1   7   1 3.32449 2.12440   5
   1   7   1 1.65257 1.92612   3
  -2  -7  -1 2.14368 1.80145   6
  -2  -7  -1 -1.7676 1.90715   5
  -2  -7  -1 -1.0499 1.85037   2
  -2  -7  -1 2.03588 1.17850   4
  -2  -7  -1 0.82362 1.61520   5
   2   7   1 0.93061 2.31595   6
   2   7   1 -3.3386 2.23967   5
   2   7   1 2.27316 2.41714   1
   2   7   1 0.08110 1.44634   4
   2   7   1 -0.1479 1.94717   5
   2   7   1 1.74178 2.14493   3
  -3  -7  -1 14.9900 1.69859   4
  -3  -7  -1 18.8162 2.74338   5
  -3  -7  -1 14.8236 2.19075   5
  -3  -7  -1 15.4654 2.28528   6
  -3  -7  -1 14.0977 3.02438   2
  -3  -7  -1 10.5316 2.43945   6
   3   7   1 10.6309 2.51473   5
   3   7   1 15.6786 2.54667   5
   3   7   1 13.0531 2.66241   3
   3   7   1 11.0913 3.11927   1
   3   7   1 11.8257 2.49298   6
   3   7   1 11.8939 1.85050   4
  -4  -7  -1 1.83376 1.69723   5
  -4  -7  -1 1.70178 1.86538   6
  -4  -7  -1 -0.6069 1.99094   5
  -4  -7  -1 0.97996 2.56866   2
  -4  -7  -1 -1.0530 2.13246   6
   4   7   1 2.34013 3.67704   1
   4   7   1 3.74960 2.36244   3
   4   7   1 -2.2903 2.56532   5
   4   7   1 1.39899 2.87678   6
   4   7   1 0.91734 1.86005   4
  -5  -7  -1 22.4440 3.98173   2
  -5  -7  -1 35.6899 2.94045   6
  -5  -7  -1 30.3873 3.28123   6
   5   7   1 36.3289 3.75345   3
   5   7   1 34.3205 3.85014   5
   5   7   1 32.8010 3.81226   5
   5   7   1 33.4198 4.57609   6
   5   7   1 32.4767 2.66606   4
  -6  -7  -1 -0.1805 3.31045   2
   6   7   1 3.22227 3.57440   5
   6   7   1 2.06283 3.09888   3
   6   7   1 -4.1687 2.63392   4
   6   7   1 -2.3951 5.44199   1
   7  -8  -1 20.9360 3.48728   2
   7  -8  -1 23.7150 4.57229   5
  -7   8   1 18.6002 4.28790   6
   6  -8  -1 4.39043 3.29878   5
   6  -8  -1 6.99094 4.42657   5
   6  -8  -1 4.73434 3.59960   6
   6  -8  -1 3.47181 2.72075   2
  -6   8   1 8.81136 3.51229   5
  -6   8   1 3.75108 3.54877   3
  -6   8   1 1.30222 3.34320   6
  -6   8   1 9.68665 4.48987   4
   5  -8  -1 3.83170 2.90100   5
   5  -8  -1 0.02403 3.76312   4
   5  -8  -1 -4.0005 3.67398   6
   5  -8  -1 -0.5993 2.31925   2
   5  -8  -1 1.06761 2.94631   6
   5  -8  -1 -0.5195 3.53729   5
  -5   8   1 1.79125 3.10345   6
  -5   8   1 -1.8954 3.57844   5
  -5   8   1 -1.5184 2.72507   3
  -5   8   1 -3.9723 3.23333   4
  -5   8   1 -0.8804 3.17521   5
   4  -8  -1 4.33707 3.36634   6
   4  -8  -1 3.51690 2.71985   5
   4  -8  -1 4.99642 3.22152   4
   4  -8  -1 5.68359 2.71449   6
   4  -8  -1 3.63036 2.18573   2
   4  -8  -1 4.26291 2.95702   5
  -4   8   1 5.41094 2.84048   3
  -4   8   1 3.14441 3.14399   5
  -4   8   1 1.32799 3.04483   4
  -4   8   1 0.61145 3.19097   5
   3  -8  -1 19.2212 2.94020   5
   3  -8  -1 17.6544 3.31270   6
   3  -8  -1 16.4042 2.74080   4
   3  -8  -1 19.8569 3.57079   5
   3  -8  -1 19.6952 3.20080   6
   3  -8  -1 18.4953 2.65665   2
  -3   8   1 20.2423 3.59413   5
  -3   8   1 19.0910 3.26592   6
  -3   8   1 17.3855 1.44722   1
  -3   8   1 17.2730 3.50069   3
  -3   8   1 16.7656 2.91363   4
  -3   8   1 16.1768 3.07487   5
  -3   8   1 18.1397 1.57717   1
   2  -8  -1 37.8462 3.68287   6
   2  -8  -1 37.0289 3.64602   2
   2  -8  -1 28.8185 3.53460   5
   2  -8  -1 33.3608 2.93536   4
   2  -8  -1 34.2933 3.54959   5
   2  -8  -1 32.0273 3.39638   6
  -2   8   1 35.9759 4.17940   5
  -2   8   1 30.4799 3.69055   3
  -2   8   1 36.0875 2.81542   1
  -2   8   1 38.7968 3.36603   4
  -2   8   1 34.7358 3.55507   5
  -2   8   1 29.4974 3.53428   6
   1  -8  -1 13.1706 2.61302   6
   1  -8  -1 16.7363 2.89265   5
   1  -8  -1 16.3505 2.49541   2
   1  -8  -1 16.0300 3.28924   5
   1  -8  -1 15.0487 2.70336   6
   1  -8  -1 17.6187 2.24192   4
  -1   8   1 16.6325 3.34207   6
  -1   8   1 20.6272 2.14141   1
  -1   8   1 15.5082 2.97184   3
  -1   8   1 11.7984 2.70878   5
  -1   8   1 15.4071 2.43805   4
  -1   8   1 11.7525 3.32097   5
   0  -8  -1 24.3564 2.93435   6
   0  -8  -1 25.9375 3.34740   6
   0  -8  -1 18.0182 2.78438   5
   0  -8  -1 19.1269 2.95722   5
   0  -8  -1 24.4065 3.00802   2
   0  -8  -1 30.6370 2.92424   4
   0   8   1 26.5404 2.68412   4
   0   8   1 31.0535 2.82921   1
   0   8   1 26.9447 3.68116   6
   0   8   1 20.4652 2.98840   5
   0   8   1 26.6430 3.63977   5
   0   8   1 18.9954 2.96679   3
  -1  -8  -1 9.83295 2.71302   6
  -1  -8  -1 7.23907 2.56021   2
  -1  -8  -1 6.25132 2.52940   6
  -1  -8  -1 9.79371 2.25007   5
  -1  -8  -1 9.98914 1.79262   4
  -1  -8  -1 6.53902 3.20703   5
   1   8   1 11.3711 2.20449   4
   1   8   1 7.23542 2.67091   1
   1   8   1 7.50721 2.64279   5
   1   8   1 12.4098 3.17403   5
   1   8   1 8.89214 2.85251   3
   1   8   1 8.78401 2.76532   6
  -2  -8  -1 4.58778 2.64065   2
  -2  -8  -1 5.92722 1.70793   4
  -2  -8  -1 5.84416 2.43898   5
  -2  -8  -1 5.50901 2.49001   6
  -2  -8  -1 2.29950 2.67391   5
   2   8   1 4.31315 2.87781   5
   2   8   1 3.27798 3.04300   6
   2   8   1 7.99994 3.41845   1
   2   8   1 3.09496 2.95779   5
   2   8   1 2.82142 2.02886   4
   2   8   1 7.76819 2.81867   3
  -3  -8  -1 443.525 13.5894   5
  -3  -8  -1 424.190 12.8465   4
  -3  -8  -1 432.594 13.6846   6
  -3  -8  -1 392.947 14.5358   2
  -3  -8  -1 455.415 14.2015   6
   3   8   1 411.913 13.9722   3
   3   8   1 432.383 14.8127   6
   3   8   1 447.758 14.8297   5
   3   8   1 443.415 13.1724   4
   3   8   1 433.646 14.9893   1
   3   8   1 434.714 14.5453   5
  -4  -8  -1 26.5441 3.98974   2
  -4  -8  -1 38.6966 3.72288   6
  -4  -8  -1 33.8549 3.23231   6
  -4  -8  -1 40.5521 3.32963   5
   4   8   1 29.1321 3.64767   3
   4   8   1 40.5296 5.11432   6
   4   8   1 30.5677 4.69131   5
   4   8   1 36.3732 2.99770   4
   4   8   1 29.5114 4.13401   5
  -5  -8  -1 17.4973 3.02008   6
  -5  -8  -1 15.8645 3.83476   2
  -5  -8  -1 14.4182 2.58898   6
   5   8   1 13.7962 3.09738   4
   5   8   1 19.0859 3.53404   3
   5   8   1 18.1817 4.36362   5
   6  -9  -1 -5.1966 2.87596   2
   6  -9  -1 -6.1555 4.42166   5
  -6   9   1 -3.5391 5.14605   4
  -6   9   1 -2.5614 4.38513   6
  -6   9   1 -5.6879 3.87048   3
   5  -9  -1 11.9061 3.02723   2
   5  -9  -1 11.9862 3.77183   6
   5  -9  -1 3.49039 4.73691   6
   5  -9  -1 6.11522 5.34321   5
   5  -9  -1 9.81341 4.18769   5
  -5   9   1 11.7257 3.68831   3
  -5   9   1 13.7308 4.34204   5
  -5   9   1 7.95101 4.52176   6
  -5   9   1 7.91874 4.23050   4
   4  -9  -1 4.96342 3.27760   6
   4  -9  -1 9.27433 3.73471   4
   4  -9  -1 3.87261 4.38733   6
   4  -9  -1 2.86977 2.60350   2
   4  -9  -1 5.46924 4.50054   5
   4  -9  -1 1.26746 5.34009   5
  -4   9   1 4.80464 3.97548   6
  -4   9   1 7.44563 4.11415   5
  -4   9   1 5.13808 4.62238   5
  -4   9   1 2.94572 3.34307   3
  -4   9   1 -1.5254 3.53767   4
   3  -9  -1 121.152 7.74937   5
   3  -9  -1 115.629 8.25735   5
   3  -9  -1 131.749 8.34123   6
   3  -9  -1 117.130 7.58925   6
   3  -9  -1 116.212 5.94398   2
   3  -9  -1 131.375 6.82826   4
  -3   9   1 114.735 8.91607   5
  -3   9   1 115.050 7.17982   4
  -3   9   1 122.857 4.54773   1
  -3   9   1 127.205 8.03273   5
  -3   9   1 128.337 4.60358   1
  -3   9   1 121.398 8.26334   6
  -3   9   1 110.482 6.79833   3
   2  -9  -1 8.21191 2.60563   2
   2  -9  -1 4.11935 3.27419   6
   2  -9  -1 5.49420 3.54346   6
   2  -9  -1 15.4447 4.28363   5
   2  -9  -1 11.5856 3.31938   5
   2  -9  -1 9.34479 2.76877   4
  -2   9   1 7.55861 4.41687   5
  -2   9   1 6.87744 2.05950   1
  -2   9   1 15.5536 4.13163   6
  -2   9   1 9.57603 3.20947   3
  -2   9   1 4.27819 3.17013   4
  -2   9   1 3.60312 3.82368   5
   1  -9  -1 46.0840 4.25475   5
   1  -9  -1 51.4747 4.22978   4
   1  -9  -1 64.8063 6.57271   6
   1  -9  -1 50.8059 4.59617   2
   1  -9  -1 64.0193 5.83889   6
   1  -9  -1 43.5392 4.52321   5
  -1   9   1 57.3232 4.44846   1
  -1   9   1 62.6026 5.26434   5
  -1   9   1 51.4747 4.12698   4
  -1   9   1 49.5319 4.85897   5
  -1   9   1 55.5634 5.09467   6
  -1   9   1 44.2945 4.82431   3
   0  -9  -1 182.865 8.82114   6
   0  -9  -1 157.672 8.34190   6
   0  -9  -1 185.587 6.80225   4
   0  -9  -1 168.709 7.39015   2
   0  -9  -1 177.839 9.44092   5
   0  -9  -1 175.160 8.23547   5
   0   9   1 197.986 9.52406   5
   0   9   1 172.251 7.53817   4
   0   9   1 181.978 9.19276   5
   0   9   1 169.238 7.45117   1
   0   9   1 174.845 9.10935   6
   0   9   1 157.877 7.64062   3
  -1  -9  -1 0.54912 2.85852   6
  -1  -9  -1 -0.6996 2.55463   2
  -1  -9  -1 1.09307 3.28889   6
  -1  -9  -1 2.29086 1.98443   4
  -1  -9  -1 -3.6524 3.83138   5
   1   9   1 8.11417 4.49871   5
   1   9   1 -1.4967 3.59580   5
   1   9   1 -4.1983 2.61557   3
   1   9   1 -0.8311 3.61409   6
   1   9   1 -4.6675 3.25022   1
   1   9   1 -2.4966 2.56332   4
  -2  -9  -1 -0.3588 2.95213   5
  -2  -9  -1 1.85754 2.13184   4
  -2  -9  -1 -3.9053 2.96342   6
  -2  -9  -1 2.64006 3.16319   2
   2   9   1 -2.0349 4.70250   5
   2   9   1 1.99637 2.78005   3
   2   9   1 -3.4764 3.42683   6
   2   9   1 3.27893 3.97302   5
   2   9   1 -1.4131 4.01659   1
   2   9   1 1.33445 2.63852   4
  -3  -9  -1 -1.5908 3.67809   5
  -3  -9  -1 -0.1813 2.44823   4
  -3  -9  -1 1.01478 3.02398   2
  -3  -9  -1 0.67294 3.75662   6
  -3  -9  -1 1.47239 3.01351   6
   3   9   1 3.74374 4.10887   5
   3   9   1 -0.0697 3.14784   4
   3   9   1 -3.7650 7.10370   6
   3   9   1 1.11994 2.92376   3
  -4  -9  -1 14.3109 3.33615   6
  -4  -9  -1 13.9395 3.90635   2
   4   9   1 10.7850 3.62196   3
   4   9   1 12.7357 4.82347   5
   4   9   1 15.8580 3.47706   4
   5 -10  -1 12.7489 5.60460   5
   5 -10  -1 7.93505 3.26303   2
  -5  10   1 3.90255 4.08781   3
  -5  10   1 7.51960 5.65779   6
  -5  10   1 1.23284 5.40732   4
   4 -10  -1 -2.5811 6.82775   5
   4 -10  -1 8.76046 5.28359   5
   4 -10  -1 6.77525 4.31790   6
   4 -10  -1 8.86302 4.85501   6
   4 -10  -1 5.00702 2.97171   2
  -4  10   1 8.12629 4.64658   4
  -4  10   1 2.65072 5.39090   6
  -4  10   1 8.00852 5.58834   5
   3 -10  -1 -0.9446 4.10038   6
   3 -10  -1 -0.8497 6.20811   5
   3 -10  -1 6.94598 4.84955   6
   3 -10  -1 3.51485 2.92320   2
   3 -10  -1 6.14713 4.58761   5
  -3  10   1 3.26426 2.02524   1
  -3  10   1 -2.1297 5.84815   5
  -3  10   1 3.36143 5.00546   5
  -3  10   1 0.70229 3.89803   3
  -3  10   1 0.33318 2.08664   1
  -3  10   1 9.93447 4.19703   4
  -3  10   1 2.16102 5.06650   6
   2 -10  -1 26.2861 5.31909   5
   2 -10  -1 23.7023 4.84959   5
   2 -10  -1 22.5578 3.73830   4
   2 -10  -1 24.7446 3.50127   2
   2 -10  -1 18.9490 4.47314   6
   2 -10  -1 14.2396 4.22027   6
  -2  10   1 28.3041 6.29306   5
  -2  10   1 28.1475 3.06089   1
  -2  10   1 28.5625 3.08585   1
  -2  10   1 26.0469 5.12392   5
  -2  10   1 16.3871 4.10882   3
  -2  10   1 22.0033 4.44615   4
  -2  10   1 32.1131 5.80652   6
   1 -10  -1 5.99030 4.09748   6
   1 -10  -1 11.6699 5.88488   5
   1 -10  -1 3.41610 2.79359   2
   1 -10  -1 8.68185 3.10627   4
   1 -10  -1 5.71946 4.18045   6
   1 -10  -1 4.13506 4.23218   5
  -1  10   1 5.80864 3.27408   1
  -1  10   1 3.31464 5.06236   6
  -1  10   1 6.03807 5.17457   5
  -1  10   1 2.83932 5.72436   5
  -1  10   1 6.32900 3.68619   4
  -1  10   1 6.82871 3.33784   3
   0 -10  -1 4.45952 2.79113   2
   0 -10  -1 7.98393 3.85892   6
   0 -10  -1 4.55752 3.91477   5
   0 -10  -1 11.3042 3.15419   4
   0 -10  -1 12.3494 4.17424   6
   0  10   1 -1.9221 3.77088   1
   0  10   1 0.42016 3.10182   3
   0  10   1 -2.2914 5.92153   5
   0  10   1 7.18035 5.14545   6
   0  10   1 8.48093 3.67302   4
   0  10   1 9.14706 5.35075   5
  -1 -10  -1 18.2067 4.15348   6
  -1 -10  -1 18.3914 3.17747   4
  -1 -10  -1 17.9667 3.76593   2
   1  10   1 13.5424 5.35577   6
   1  10   1 8.74648 3.27352   3
   1  10   1 13.7238 7.29131   5
   1  10   1 18.4938 3.96333   4
   1  10   1 14.3176 4.98952   1
   1  10   1 10.2514 5.13831   5
  -2 -10  -1 3.64084 5.75427   2
  -2 -10  -1 4.40937 3.35763   4
  -2 -10  -1 0.34802 3.81684   6
   2  10   1 1.77188 3.36270   3
   2  10   1 -5.2140 5.61922   5
   3 -11  -1 3.22787 3.43544   2
   3 -11  -1 -1.7624 6.09452   5
   3 -11  -1 -4.2132 5.61077   6
  -3  11   1 -4.9424 6.69104   6
  -3  11   1 -1.7109 5.70036   4
  -3  11   1 -0.4498 4.06675   3
   2 -11  -1 73.9126 7.06621   6
   2 -11  -1 58.2862 5.91139   2
   2 -11  -1 68.9273 7.41766   5
  -2  11   1 45.4080 5.70907   3
  -2  11   1 59.9570 7.80359   6
  -2  11   1 60.6075 4.81701   1
  -2  11   1 30.5272 10.2633   5
  -2  11   1 66.7969 8.12981   5
  -2  11   1 46.3445 6.16236   4
   1 -11  -1 5.68374 3.40302   2
   1 -11  -1 4.00393 5.00792   6
  -1  11   1 3.55563 3.99711   3
  -1  11   1 12.8019 4.27468   1
  -1  11   1 1.58415 6.48000   5
  -1  11   1 -2.8468 4.90211   4
   0 -11  -1 21.5951 5.63988   6
   0 -11  -1 27.7168 4.61510   4
   0  11   1 20.8283 4.56760   3
   0  11   1 27.8817 5.09867   4
   0  11   1 19.6851 5.96070   1
   0  11   1 29.3479 7.40280   5
   0  11  -2 1.42034 5.25430   4
   0  11  -2 0.78424 3.70882   3
   0  11  -2 1.89482 6.59632   5
   0 -11   2 1.24035 3.53239   2
   0 -11   2 -7.3374 5.29042   6
  -1  11  -2 -1.1245 7.60821   6
  -1  11  -2 -1.7773 5.18215   4
  -1  11  -2 -1.5394 4.87144   1
  -1  11  -2 4.78941 5.56197   5
  -1  11  -2 -8.7642 12.8175   5
  -1  11  -2 2.55811 3.90378   3
   1 -11   2 -0.5266 4.35127   6
   1 -11   2 0.21792 3.49580   2
  -2  11  -2 1.76202 5.46452   4
  -2  11  -2 -6.7330 6.71909   5
  -2  11  -2 4.28978 4.09306   3
  -2  11  -2 10.1559 7.18081   6
   2 -11   2 -1.0869 5.80363   5
   2 -11   2 -2.0792 3.52854   2
   2 -11   2 2.13289 4.83991   6
  -3  11  -2 19.5641 7.61191   6
  -3  11  -2 12.5013 5.78391   4
  -3  11  -2 18.3159 4.81134   3
   3 -11   2 11.6892 5.67555   6
   3 -11   2 15.9945 3.93274   2
   3 -11   2 16.9412 6.83617   5
   3  10  -2 9.72999 3.98242   3
   3  10  -2 10.2153 5.32953   5
   3  10  -2 11.9728 4.64677   4
  -3 -10   2 13.8158 4.56547   6
  -3 -10   2 11.8861 3.76885   2
   2  10  -2 -0.4266 5.55975   5
   2  10  -2 2.37627 4.10977   4
  -2 -10   2 5.69957 4.37779   6
  -2 -10   2 1.47836 6.08173   4
  -2 -10   2 3.79880 3.29419   2
   1  10  -2 9.40138 3.68845   3
   1  10  -2 12.3734 4.99069   6
   1  10  -2 4.26731 4.37626   5
   1  10  -2 6.03083 6.17567   1
   1  10  -2 5.27510 3.97003   4
   1  10  -2 9.90754 7.05921   5
  -1 -10   2 10.8060 3.63346   6
  -1 -10   2 13.7560 6.36690   6
  -1 -10   2 -3.4031 3.97430   5
  -1 -10   2 9.37315 3.41992   2
  -1 -10   2 13.3853 3.72450   4
   0  10  -2 1.39329 3.79668   4
   0  10  -2 3.52877 4.79703   6
   0  10  -2 20.1404 6.73963   5
   0  10  -2 -1.5453 4.14840   5
   0  10  -2 -1.7563 3.08194   3
   0  10  -2 5.07553 3.99984   1
   0 -10   2 -2.7095 4.18120   5
   0 -10   2 -5.7244 4.03164   6
   0 -10   2 -0.1812 2.74938   2
   0 -10   2 4.26272 3.32837   4
   0 -10   2 3.11307 3.79217   6
  -1  10  -2 17.8016 5.26286   6
  -1  10  -2 10.4581 6.00981   5
  -1  10  -2 8.83419 3.40984   3
  -1  10  -2 10.7573 4.01986   4
  -1  10  -2 10.1328 4.98856   5
  -1  10  -2 15.2745 3.58294   1
   1 -10   2 15.9405 5.55737   5
   1 -10   2 13.9867 3.26569   2
   1 -10   2 22.0879 4.73322   5
  -2  10  -2 87.8361 6.65665   3
  -2  10  -2 106.439 6.86913   1
  -2  10  -2 102.969 9.12110   5
  -2  10  -2 106.997 8.13646   5
  -2  10  -2 85.2442 7.97507   4
   2 -10   2 99.0940 9.12744   6
   2 -10   2 87.8124 5.99690   2
   2 -10   2 99.8254 10.1637   5
   2 -10   2 107.500 8.81185   5
  -3  10  -2 2.27071 2.80382   1
  -3  10  -2 -3.9676 4.36626   4
  -3  10  -2 -3.4892 5.38056   6
  -3  10  -2 -6.8578 6.26161   5
  -3  10  -2 1.81570 3.51175   3
  -3  10  -2 -2.9307 4.37524   5
   3 -10   2 2.77408 5.18679   5
   3 -10   2 1.50893 3.04514   2
   3 -10   2 -1.3020 5.74184   5
   3 -10   2 -4.9081 4.39700   6
  -4  10  -2 50.1205 6.90660   6
  -4  10  -2 39.7508 5.75844   4
   4 -10   2 52.9787 4.95432   2
   4 -10   2 64.0415 6.60851   5
   4 -10   2 56.2075 9.41257   5
   4 -10   2 42.6148 6.61581   6
  -5  10  -2 25.0508 4.91317   3
  -5  10  -2 19.9234 6.25292   6
  -5  10  -2 31.3265 6.49277   4
   5 -10   2 24.1663 6.28454   5
   4   9  -2 17.2960 5.13675   5
   4   9  -2 17.6390 3.96662   4
  -4  -9   2 18.5592 4.34767   4
  -4  -9   2 18.8234 3.79684   6
   3   9  -2 35.4767 4.09943   3
   3   9  -2 37.6338 4.90748   5
   3   9  -2 39.1206 4.08906   4
   3   9  -2 38.0378 5.77777   5
   3   9  -2 46.7947 6.14713   6
  -3  -9   2 42.1641 4.20900   6
  -3  -9   2 44.7146 4.34068   5
  -3  -9   2 36.4920 4.20005   6
  -3  -9   2 46.9576 4.11053   4
  -3  -9   2 33.5754 4.27095   2
   2   9  -2 1.25418 3.02637   4
   2   9  -2 4.82979 4.78921   5
   2   9  -2 0.25961 3.62640   6
   2   9  -2 7.09619 2.90964   3
   2   9  -2 5.11330 3.53211   5
   2   9  -2 2.89205 4.31114   1
  -2  -9   2 4.83177 2.96799   2
  -2  -9   2 7.01121 2.98334   6
  -2  -9   2 5.99144 2.96168   5
  -2  -9   2 6.18394 2.64695   4
  -2  -9   2 7.12741 2.90785   6
   1   9  -2 7.08727 3.66299   6
   1   9  -2 4.61043 3.35846   1
   1   9  -2 7.19493 4.76924   5
   1   9  -2 -3.0757 4.01537   5
   1   9  -2 4.38322 3.00459   4
   1   9  -2 5.70436 3.09213   3
  -1  -9   2 7.48059 2.57214   4
  -1  -9   2 5.31974 3.49666   5
  -1  -9   2 6.13273 2.91886   6
  -1  -9   2 6.31477 2.78460   2
  -1  -9   2 6.11558 3.10536   6
   0   9  -2 6.87294 3.78129   6
   0   9  -2 9.80121 3.61389   5
   0   9  -2 8.58880 3.04333   1
   0   9  -2 8.73497 2.80969   3
   0   9  -2 8.35952 3.07950   4
   0   9  -2 8.37278 4.10840   5
   0  -9   2 11.4240 2.79960   4
   0  -9   2 7.19598 3.53094   6
   0  -9   2 11.9699 3.68636   5
   0  -9   2 8.87937 2.70788   2
   0  -9   2 11.9344 4.39815   5
  -1   9  -2 1.78082 2.77737   3
  -1   9  -2 -1.7618 3.63641   5
  -1   9  -2 2.02683 3.60691   6
  -1   9  -2 -1.0691 4.13677   5
  -1   9  -2 5.40925 2.96078   4
  -1   9  -2 1.96222 2.36316   1
   1  -9   2 2.04556 2.61506   4
   1  -9   2 -1.7910 2.57282   6
   1  -9   2 1.01681 3.37134   5
   1  -9   2 0.38885 3.55944   5
   1  -9   2 3.31742 2.52033   2
  -2   9  -2 13.8182 4.17224   5
  -2   9  -2 20.6699 2.63522   1
  -2   9  -2 21.1035 4.63115   5
  -2   9  -2 20.0398 3.63950   3
  -2   9  -2 21.7961 4.34485   6
  -2   9  -2 22.5459 3.42113   4
   2  -9   2 16.9136 3.84987   5
   2  -9   2 16.8554 2.98645   2
   2  -9   2 15.3313 3.08664   4
   2  -9   2 22.4175 3.92118   5
   2  -9   2 18.6301 3.73739   6
  -3   9  -2 2.53429 2.73555   3
  -3   9  -2 6.30921 4.51463   5
  -3   9  -2 3.12011 3.71490   5
  -3   9  -2 3.93566 3.51026   4
  -3   9  -2 3.03697 2.13561   1
  -3   9  -2 6.47896 4.61096   6
   3  -9   2 2.95840 3.62568   6
   3  -9   2 4.36241 3.69087   4
   3  -9   2 0.18752 3.37614   5
   3  -9   2 3.85754 2.56161   2
   3  -9   2 4.13240 4.03734   5
  -4   9  -2 18.0903 4.53229   6
  -4   9  -2 21.0050 5.01102   5
  -4   9  -2 22.8757 2.28119   1
  -4   9  -2 16.4671 4.16444   5
  -4   9  -2 21.9229 4.54584   4
  -4   9  -2 14.9514 3.77654   3
   4  -9   2 8.87654 3.53680   6
   4  -9   2 22.7420 3.07389   2
   4  -9   2 11.7047 4.37912   5
   4  -9   2 13.2590 4.43423   5
  -5   9  -2 18.5931 4.96938   6
  -5   9  -2 15.4556 3.99314   3
  -5   9  -2 2.48247 4.48770   4
   5  -9   2 8.53789 4.19735   5
   5  -9   2 6.64598 5.65709   5
  -6   9  -2 -3.3663 5.52197   4
  -6   9  -2 9.43585 4.87663   6
   6  -9   2 0.27772 4.74611   5
   5   8  -2 7.84229 3.34344   3
   5   8  -2 10.9846 3.44836   4
   5   8  -2 9.62672 3.97582   5
  -5  -8   2 9.36750 2.73549   6
  -5  -8   2 7.71195 3.50578   2
  -5  -8   2 7.89291 2.77110   6
  -5  -8   2 12.0686 2.26070   5
   4   8  -2 17.5099 3.31186   3
   4   8  -2 15.7343 3.08095   4
   4   8  -2 21.8614 4.08644   5
   4   8  -2 27.0622 4.39639   5
   4   8  -2 21.2952 4.53372   6
  -4  -8   2 30.1574 3.23055   6
  -4  -8   2 21.8690 3.19650   6
  -4  -8   2 26.3061 2.98511   5
  -4  -8   2 21.2039 3.26622   4
  -4  -8   2 17.7856 3.70746   2
   3   8  -2 23.5623 3.61855   5
   3   8  -2 26.5443 3.89635   6
   3   8  -2 32.4948 3.82627   5
   3   8  -2 24.3099 3.29436   3
   3   8  -2 37.5094 3.56453   4
   3   8  -2 24.6711 4.34666   1
  -3  -8   2 27.0436 3.29038   6
  -3  -8   2 26.9015 3.26281   6
  -3  -8   2 29.0270 3.70557   5
  -3  -8   2 28.8668 2.94862   4
  -3  -8   2 32.6088 3.30673   5
  -3  -8   2 21.6403 3.43969   2
   2   8  -2 9.08415 2.43200   4
   2   8  -2 4.29163 2.33226   3
   2   8  -2 13.1280 3.20894   5
   2   8  -2 5.73627 2.96115   1
   2   8  -2 7.50363 3.35629   6
   2   8  -2 7.89118 3.59086   5
  -2  -8   2 7.42561 2.62414   2
  -2  -8   2 3.98444 2.32265   5
  -2  -8   2 6.85950 2.37435   6
  -2  -8   2 4.87784 2.23804   6
  -2  -8   2 5.29644 2.11313   4
  -2  -8   2 8.37411 2.85799   5
   1   8  -2 9.30177 2.49971   4
   1   8  -2 9.74645 2.74372   1
   1   8  -2 9.11459 3.08217   6
   1   8  -2 7.31856 2.75991   5
   1   8  -2 9.49708 3.15503   5
   1   8  -2 6.49184 2.54038   3
  -1  -8   2 5.20554 2.28952   6
  -1  -8   2 7.28088 2.30859   2
  -1  -8   2 9.32494 3.55957   5
  -1  -8   2 10.3258 2.20021   4
   0   8  -2 12.9718 2.82261   5
   0   8  -2 21.4130 3.57717   5
   0   8  -2 17.0696 3.10937   6
   0   8  -2 24.4163 2.89691   4
   0   8  -2 17.5910 3.05828   3
   0   8  -2 20.1352 2.69013   1
   0  -8   2 18.5415 2.41794   4
   0  -8   2 18.5846 3.19936   5
   0  -8   2 14.7453 2.85566   6
   0  -8   2 16.3889 2.66510   2
   0  -8   2 22.8594 3.31356   5
  -1   8  -2 11.8936 2.93976   6
  -1   8  -2 13.1947 2.56516   4
  -1   8  -2 9.37217 2.64337   3
  -1   8  -2 8.95050 2.01675   1
  -1   8  -2 6.05498 3.42785   5
  -1   8  -2 8.93974 2.65076   5
   1  -8   2 7.26826 2.73095   6
   1  -8   2 10.6571 2.27384   4
   1  -8   2 16.4327 3.14536   5
   1  -8   2 12.7499 2.47824   2
   1  -8   2 11.7423 2.06586   1
   1  -8   2 12.7917 3.25772   5
  -2   8  -2 15.0024 2.77149   3
  -2   8  -2 17.0358 3.26544   6
  -2   8  -2 19.1554 3.23637   5
  -2   8  -2 23.6521 3.73928   5
  -2   8  -2 19.3014 2.16186   1
   2  -8   2 8.47745 2.59575   5
   2  -8   2 14.6385 2.09776   1
   2  -8   2 17.4074 3.17913   5
   2  -8   2 15.5583 2.69405   6
   2  -8   2 15.3469 2.47115   4
   2  -8   2 19.8432 2.58649   2
  -3   8  -2 211.920 9.27735   6
  -3   8  -2 223.819 9.24049   5
  -3   8  -2 203.597 8.65580   4
  -3   8  -2 211.520 7.05803   1
  -3   8  -2 220.424 9.11716   5
  -3   8  -2 205.653 8.78445   3
   3  -8   2 217.794 8.35367   4
   3  -8   2 215.811 7.05166   1
   3  -8   2 212.575 9.12946   5
   3  -8   2 228.584 9.01400   6
   3  -8   2 213.943 7.51261   2
   3  -8   2 216.029 9.10361   5
  -4   8  -2 1.71265 2.59557   3
  -4   8  -2 3.08879 3.12306   4
  -4   8  -2 3.50679 3.52712   5
  -4   8  -2 0.80301 1.43878   1
  -4   8  -2 2.15693 3.11135   6
   4  -8   2 -1.2205 2.13472   2
   4  -8   2 0.69809 3.22693   4
   4  -8   2 0.11550 3.23680   6
   4  -8   2 0.43151 1.39920   1
   4  -8   2 2.43579 3.27873   5
   4  -8   2 -1.1158 2.87124   5
  -5   8  -2 57.9583 5.87129   5
  -5   8  -2 58.8648 4.92874   6
  -5   8  -2 59.3495 5.32456   4
  -5   8  -2 48.1805 4.76084   5
  -5   8  -2 60.5017 2.69555   1
  -5   8  -2 52.9301 5.33545   3
   5  -8   2 59.3468 6.51854   6
   5  -8   2 68.5614 6.84824   5
   5  -8   2 47.6470 4.40624   5
  -6   8  -2 44.8003 5.44814   4
  -6   8  -2 39.0841 4.75267   6
  -6   8  -2 40.2946 4.41328   5
  -6   8  -2 29.6998 4.48554   3
   6  -8   2 28.6693 5.09918   5
   6  -8   2 41.3987 4.80590   5
  -7   8  -2 -4.1337 5.43978   4
  -7   8  -2 5.02596 4.14686   6
  -7   8  -2 12.3372 4.34092   3
   7  -8   2 11.8747 4.74245   5
   6   7  -2 8.60042 3.53464   5
   6   7  -2 2.28311 3.02805   4
   6   7  -2 1.32695 2.88900   3
  -6  -7   2 1.98973 1.57757   6
  -6  -7   2 -0.1288 1.61045   6
  -6  -7   2 3.55975 3.19881   2
   5   7  -2 49.5328 4.69413   4
   5   7  -2 45.4617 4.41548   3
   5   7  -2 49.4071 4.78628   6
   5   7  -2 42.5329 4.16927   5
   5   7  -2 54.3564 5.49483   5
  -5  -7   2 50.7481 2.62442   5
  -5  -7   2 46.6497 2.74622   5
  -5  -7   2 52.7491 3.85723   6
  -5  -7   2 47.9549 5.17999   2
  -5  -7   2 48.3770 3.92177   6
   4   7  -2 4.21782 3.70584   1
   4   7  -2 3.07806 2.02262   4
   4   7  -2 2.67018 2.49440   6
   4   7  -2 2.05302 2.76947   5
   4   7  -2 3.40426 2.60393   5
   4   7  -2 2.15370 2.23521   3
  -4  -7   2 5.61264 2.02236   6
  -4  -7   2 6.07274 2.05046   5
  -4  -7   2 4.20744 1.83119   5
  -4  -7   2 3.67805 2.66370   2
  -4  -7   2 5.84555 2.34722   4
  -4  -7   2 5.60945 2.15631   6
   3   7  -2 26.6233 3.10395   3
   3   7  -2 33.0805 2.73814   4
   3   7  -2 32.0430 3.14076   5
   3   7  -2 31.1711 3.43922   5
   3   7  -2 32.5674 3.66531   1
   3   7  -2 34.8496 3.57962   6
  -3  -7   2 31.2473 2.82049   5
  -3  -7   2 31.3044 3.50153   2
  -3  -7   2 32.5435 2.64961   4
  -3  -7   2 31.3578 2.78629   5
  -3  -7   2 36.0701 3.82927   6
  -3  -7   2 39.1280 3.62784   6
   2   7  -2 93.5225 5.63128   6
   2   7  -2 89.5019 5.46759   5
   2   7  -2 89.8785 4.92966   3
   2   7  -2 98.6745 4.61951   4
   2   7  -2 95.4776 5.50708   1
   2   7  -2 102.458 5.51735   5
  -2  -7   2 97.3446 5.21699   5
  -2  -7   2 94.1759 4.38812   4
  -2  -7   2 104.108 4.93154   5
  -2  -7   2 100.018 5.04302   6
  -2  -7   2 91.0401 5.11850   2
   1   7  -2 -1.7083 1.93076   5
   1   7  -2 -1.0196 2.07113   6
   1   7  -2 -0.6199 2.12708   5
   1   7  -2 -2.7971 1.45047   4
   1   7  -2 0.17220 1.93034   1
   1   7  -2 -0.3142 1.72578   3
  -1  -7   2 0.20133 1.80879   2
  -1  -7   2 -0.2173 1.94668   5
  -1  -7   2 1.16321 1.58614   6
  -1  -7   2 1.18136 2.13062   5
  -1  -7   2 -2.0514 1.40184   4
   0   7  -2 17.5299 2.77768   5
   0   7  -2 18.7216 2.27581   4
   0   7  -2 17.3726 2.69120   3
   0   7  -2 18.2603 2.73744   6
   0   7  -2 17.7281 2.16633   1
   0   7  -2 18.0540 2.71833   5
   0  -7   2 12.6465 1.94450   1
   0  -7   2 15.1924 2.29734   5
   0  -7   2 18.5054 1.98662   4
   0  -7   2 18.3704 2.42884   2
   0  -7   2 20.7750 2.70666   5
   0  -7   2 16.8216 2.28649   6
  -1   7  -2 27.3239 2.60810   4
  -1   7  -2 28.6468 2.74201   1
  -1   7  -2 22.8781 2.84861   3
  -1   7  -2 23.0982 2.66200   5
  -1   7  -2 22.8658 3.04190   5
  -1   7  -2 24.2847 2.77088   6
   1  -7   2 18.0416 2.32990   6
   1  -7   2 25.0411 2.68287   4
   1  -7   2 19.6925 2.38931   5
   1  -7   2 25.1558 2.16422   1
   1  -7   2 28.7679 2.94342   2
   1  -7   2 21.7796 2.50720   5
  -2   7  -2 3.02087 3.70044   5
  -2   7  -2 4.00596 1.39487   1
  -2   7  -2 3.58198 1.95507   5
  -2   7  -2 7.80447 2.42861   6
  -2   7  -2 0.06987 2.08280   3
  -2   7  -2 7.82512 2.11548   4
   2  -7   2 6.91273 2.53799   5
   2  -7   2 8.50191 2.22976   5
   2  -7   2 6.10383 2.22590   6
   2  -7   2 3.02423 1.35715   1
   2  -7   2 7.11933 1.87364   2
   2  -7   2 4.34059 1.95776   4
  -3   7  -2 55.7166 4.59797   6
  -3   7  -2 60.8357 4.87961   5
  -3   7  -2 52.6449 4.45040   4
  -3   7  -2 58.7776 3.00634   1
  -3   7  -2 48.6579 4.20028   3
  -3   7  -2 60.2475 4.70775   5
   3  -7   2 53.9757 4.51008   6
   3  -7   2 56.1546 4.57387   5
   3  -7   2 57.7556 3.40189   2
   3  -7   2 52.4543 2.90399   1
   3  -7   2 59.2745 4.83095   5
   3  -7   2 56.1747 4.18350   4
  -4   7  -2 7.43921 2.25744   5
  -4   7  -2 9.98530 2.66692   6
  -4   7  -2 5.96542 2.41922   4
  -4   7  -2 6.66670 2.58967   5
  -4   7  -2 9.43456 1.38408   1
  -4   7  -2 9.18239 2.85343   3
   4  -7   2 8.78946 1.36342   1
   4  -7   2 5.41798 2.45326   5
   4  -7   2 11.7570 1.92058   2
   4  -7   2 6.61413 2.79185   5
   4  -7   2 6.18996 2.54534   4
   4  -7   2 7.44627 2.18897   6
  -5   7  -2 21.3797 3.18373   5
  -5   7  -2 17.4607 3.29502   4
  -5   7  -2 21.5236 2.99712   5
  -5   7  -2 21.4035 3.22699   6
  -5   7  -2 18.2184 1.49853   1
  -5   7  -2 18.9249 3.44766   3
   5  -7   2 18.3186 1.44357   1
   5  -7   2 16.3771 3.20377   5
   5  -7   2 15.1161 3.53114   4
   5  -7   2 19.1622 3.35968   5
   5  -7   2 18.1903 3.22686   6
  -6   7  -2 14.7110 3.36215   3
  -6   7  -2 12.2151 3.17680   6
  -6   7  -2 14.4577 3.84414   4
  -6   7  -2 10.9822 2.94697   5
   6  -7   2 15.9437 7.53754   4
   6  -7   2 13.9120 3.13026   5
   6  -7   2 14.3148 3.37795   5
   6  -7   2 5.27610 3.58036   6
  -7   7  -2 1.65861 3.03128   6
  -7   7  -2 1.11724 4.27514   4
  -7   7  -2 0.92906 2.70011   5
  -7   7  -2 6.27787 3.59284   3
   7  -7   2 -3.5623 3.78379   5
   7  -7   2 -0.7354 3.41449   5
  -8   7  -2 58.5570 4.90466   6
  -8   7  -2 38.2886 4.09874   6
  -8   7  -2 37.9288 5.52170   3
   8  -7   2 36.5597 5.28419   5
   7   6  -2 -4.0398 3.28606   5
   7   6  -2 0.60948 3.77558   5
   7   6  -2 2.81012 3.26671   4
  -7  -6   2 -0.2405 3.48730   2
   6   6  -2 5.68493 3.28001   6
   6   6  -2 8.39672 2.75108   5
   6   6  -2 5.23533 2.57244   4
   6   6  -2 9.07889 2.84296   5
  -6  -6   2 2.57717 2.98974   2
   5   6  -2 108.835 5.70399   5
   5   6  -2 112.627 5.73714   5
   5   6  -2 110.123 5.84991   6
   5   6  -2 115.172 5.16205   4
   5   6  -2 101.277 7.60176   1
  -5  -6   2 109.829 4.51241   6
  -5  -6   2 113.379 6.27674   2
  -5  -6   2 113.789 4.49843   6
   4   6  -2 31.0844 3.66712   1
   4   6  -2 24.9523 2.67015   6
   4   6  -2 30.2211 2.96078   5
   4   6  -2 26.9271 2.32775   4
   4   6  -2 27.8765 2.86497   5
  -4  -6   2 25.9414 2.79441   5
  -4  -6   2 27.0648 2.95797   6
  -4  -6   2 28.6020 2.52880   4
  -4  -6   2 28.0909 3.05802   6
  -4  -6   2 23.2851 3.17402   2
  -4  -6   2 29.4886 2.66637   5
   3   6  -2 61.5257 4.42457   1
   3   6  -2 47.3423 3.22691   4
   3   6  -2 55.1231 3.76814   3
   3   6  -2 47.0603 3.89174   5
   3   6  -2 61.1616 4.03145   5
   3   6  -2 58.8544 3.96081   6
  -3  -6   2 54.2247 4.18679   2
  -3  -6   2 55.3259 3.62863   6
  -3  -6   2 60.0322 3.30777   4
  -3  -6   2 55.5614 3.48209   5
  -3  -6   2 51.7375 3.31811   5
   2   6  -2 70.9826 4.13472   3
   2   6  -2 87.0861 4.53085   6
   2   6  -2 83.4124 3.66468   4
   2   6  -2 77.3483 4.34515   5
   2   6  -2 83.1953 4.43166   1
   2   6  -2 75.8953 4.34478   5
  -2  -6   2 81.6910 3.97680   5
  -2  -6   2 81.0565 4.12364   5
  -2  -6   2 84.9526 4.43067   2
   1   6  -2 1.88036 1.55456   6
   1   6  -2 3.06050 1.55348   5
   1   6  -2 2.29046 1.35292   4
   1   6  -2 5.30594 1.79388   3
   1   6  -2 3.07532 1.85265   5
  -1  -6   2 1.85313 1.22082   6
  -1  -6   2 2.79011 1.48535   1
  -1  -6   2 1.40175 1.62145   2
  -1  -6   2 2.61144 1.89383   5
  -1  -6   2 2.63366 1.18436   4
   0   6  -2 2.74210 1.37928   4
   0   6  -2 3.34340 1.45557   1
   0   6  -2 1.37718 1.51465   5
   0   6  -2 1.77425 1.63030   3
   0   6  -2 2.72923 1.66634   5
   0   6  -2 1.62292 1.48274   6
   0  -6   2 1.77877 1.73937   5
   0  -6   2 4.15267 1.61261   5
   0  -6   2 3.60932 1.62794   6
   0  -6   2 2.41103 1.57386   2
   0  -6   2 3.55868 1.33763   1
   0  -6   2 2.65981 1.23060   4
  -1   6  -2 16.5876 1.57596   1
  -1   6  -2 21.2721 2.47724   3
  -1   6  -2 17.6265 2.21462   5
  -1   6  -2 14.1692 2.02704   6
  -1   6  -2 13.3370 1.80908   4
  -1   6  -2 15.5467 2.24732   5
   1  -6   2 16.3847 2.19874   5
   1  -6   2 16.6147 1.61176   1
   1  -6   2 20.3288 2.08506   2
   1  -6   2 22.3052 2.43807   6
   1  -6   2 12.5307 1.76996   5
  -2   6  -2 55.8422 2.76303   1
  -2   6  -2 57.9796 3.75045   5
  -2   6  -2 52.6885 3.50019   4
  -2   6  -2 52.3849 3.57639   3
  -2   6  -2 57.0947 3.90823   5
  -2   6  -2 48.2737 3.73953   6
   2  -6   2 52.9874 3.65035   6
   2  -6   2 50.3767 2.92756   2
   2  -6   2 48.7815 2.63904   1
   2  -6   2 52.9652 3.27364   4
   2  -6   2 50.2390 3.62685   5
   2  -6   2 55.8271 3.76337   5
  -3   6  -2 14.4825 1.39342   1
  -3   6  -2 11.5197 2.21294   3
  -3   6  -2 12.1174 2.14104   4
  -3   6  -2 10.5278 2.05544   6
  -3   6  -2 17.9824 2.39072   5
   3  -6   2 14.0167 2.31538   5
   3  -6   2 11.0345 1.90296   4
   3  -6   2 12.1823 1.28687   1
   3  -6   2 15.0461 2.18153   6
   3  -6   2 9.17437 1.84461   5
   3  -6   2 14.3107 1.72333   2
  -4   6  -2 315.428 9.15374   1
  -4   6  -2 314.451 10.5436   6
  -4   6  -2 315.276 10.2497   5
  -4   6  -2 311.689 10.5685   4
  -4   6  -2 299.472 10.8067   3
  -4   6  -2 324.620 10.2879   5
   4  -6   2 302.736 10.3381   4
   4  -6   2 329.339 10.5015   5
   4  -6   2 317.999 9.01881   2
   4  -6   2 311.706 10.4573   6
   4  -6   2 319.760 10.5277   5
   4  -6   2 323.758 9.14542   1
  -5   6  -2 2.03250 1.95715   5
  -5   6  -2 1.80613 1.10064   1
  -5   6  -2 -0.9002 3.88509   4
  -5   6  -2 1.72782 2.46305   3
  -5   6  -2 -1.6492 1.75054   5
   5  -6   2 3.18879 2.62918   4
   5  -6   2 1.81751 2.09385   5
   5  -6   2 0.25296 0.98712   1
   5  -6   2 -1.3891 1.71365   5
   5  -6   2 -1.3378 2.04239   6
  -6   6  -2 42.4719 4.36673   3
  -6   6  -2 32.2634 3.82986   4
  -6   6  -2 38.8889 4.28557   6
  -6   6  -2 37.9238 3.85791   5
  -6   6  -2 36.2914 3.79490   5
   6  -6   2 42.1558 4.52060   4
   6  -6   2 43.9777 3.78276   6
   6  -6   2 35.8783 2.18865   1
   6  -6   2 32.3326 3.33560   5
   6  -6   2 43.2302 4.25756   5
  -7   6  -2 39.4361 3.40220   6
  -7   6  -2 36.2100 4.98906   4
  -7   6  -2 39.6627 3.41812   5
  -7   6  -2 39.0575 3.30296   5
  -7   6  -2 46.9871 3.75341   6
  -7   6  -2 37.2516 4.28752   3
   7  -6   2 39.0711 3.87237   5
   7  -6   2 43.6488 4.05126   5
   7  -6   2 41.8688 2.19532   1
   7  -6   2 40.8035 2.43583   1
  -8   6  -2 3.75765 3.42875   3
  -8   6  -2 2.68585 2.37427   6
  -8   6  -2 4.00312 2.76435   6
   8  -6   2 0.45294 3.40277   5
   7   5  -2 14.1318 3.07380   4
   7   5  -2 14.5074 3.15579   6
   7   5  -2 7.55034 2.69787   5
   7   5  -2 11.2525 2.65712   5
  -7  -5   2 8.38720 3.37435   2
   6   5  -2 -6.4962 3.61599   1
   6   5  -2 -0.0333 2.18777   6
   6   5  -2 0.54190 2.07431   5
   6   5  -2 -0.8079 2.01397   5
   6   5  -2 -0.7611 2.02732   4
  -6  -5   2 1.21767 2.75172   2
   5   5  -2 0.66039 1.55184   4
   5   5  -2 -7.0601 3.07442   1
   5   5  -2 -0.9194 1.65421   5
   5   5  -2 1.80368 1.81413   6
   5   5  -2 0.86755 1.71463   5
  -5  -5   2 0.31645 1.11578   6
  -5  -5   2 -1.1373 2.08302   2
  -5  -5   2 0.20408 1.08448   6
   4   5  -2 115.297 4.96264   5
   4   5  -2 118.895 5.03899   6
   4   5  -2 113.034 4.57529   4
   4   5  -2 128.476 5.11343   5
   4   5  -2 119.332 5.72906   1
  -4  -5   2 115.745 4.10169   5
  -4  -5   2 119.506 4.37470   6
  -4  -5   2 103.236 5.52587   2
  -4  -5   2 119.703 4.11882   5
  -4  -5   2 119.182 4.51499   6
  -4  -5   2 122.562 4.89916   4
   3   5  -2 16.1363 1.81327   5
   3   5  -2 19.6513 1.72306   4
   3   5  -2 24.6279 2.59285   1
   3   5  -2 20.3305 2.03152   5
   3   5  -2 22.2168 2.26509   6
  -3  -5   2 17.8159 1.71442   4
  -3  -5   2 18.9800 2.43887   2
  -3  -5   2 20.1222 2.15639   5
  -3  -5   2 18.7381 1.75801   6
  -3  -5   2 18.9849 1.74159   5
   2   5  -2 24.4749 2.57832   6
   2   5  -2 28.8818 2.63961   5
   2   5  -2 30.4716 2.87431   1
   2   5  -2 24.8412 2.44418   5
   2   5  -2 25.1750 2.08977   4
   2   5  -2 25.0543 2.47582   3
  -2  -5   2 30.2294 2.37418   6
  -2  -5   2 29.6366 2.32425   5
  -2  -5   2 28.2693 2.11544   4
  -2  -5   2 25.7506 2.28622   1
  -2  -5   2 26.6433 2.88774   2
  -2  -5   2 26.4256 2.40629   5
   1   5  -2 231.721 7.62096   5
   1   5  -2 229.819 7.76292   6
   1   5  -2 235.997 7.42533   1
   1   5  -2 231.785 7.59038   3
   1   5  -2 232.787 7.66248   5
   1   5  -2 226.424 7.20623   4
  -1  -5   2 236.125 7.56707   6
  -1  -5   2 231.778 7.55322   5
  -1  -5   2 218.916 7.36601   1
  -1  -5   2 237.443 7.12516   4
  -1  -5   2 235.516 7.54420   5
  -1  -5   2 229.852 7.62284   2
   0   5  -2 24.3680 2.50551   5
   0   5  -2 13.6512 1.59484   5
   0   5  -2 19.9168 1.96760   4
   0   5  -2 21.8766 2.05646   1
   0   5  -2 15.3689 1.70624   6
   0   5  -2 21.1723 2.23178   3
   0  -5   2 20.1663 1.85535   4
   0  -5   2 17.0645 1.81335   5
   0  -5   2 23.5090 1.94606   1
   0  -5   2 22.0567 2.26466   2
   0  -5   2 22.9034 2.24171   6
   0  -5   2 21.5619 2.04736   5
  -1   5  -2 19.5131 1.99303   5
  -1   5  -2 18.9888 1.78622   1
  -1   5  -2 14.1277 1.58041   4
  -1   5  -2 15.1297 1.76041   6
  -1   5  -2 18.6922 2.04454   5
  -1   5  -2 19.9588 2.15899   3
   1  -5   2 22.0138 1.82996   2
   1  -5   2 16.9078 1.70376   1
   1  -5   2 16.1780 1.59652   4
   1  -5   2 20.8342 2.24984   6
   1  -5   2 16.7404 1.84706   5
   1  -5   2 12.0370 1.47861   5
  -2   5  -2 29.4929 2.72787   5
  -2   5  -2 29.6687 2.66174   6
  -2   5  -2 27.7897 2.67160   3
  -2   5  -2 32.4222 1.93130   1
  -2   5  -2 31.9965 2.71754   5
  -2   5  -2 30.0573 2.45728   4
   2  -5   2 31.9953 2.71505   5
   2  -5   2 32.2390 1.90698   1
   2  -5   2 31.8488 2.76610   6
   2  -5   2 30.7371 2.56063   5
   2  -5   2 33.5618 2.17509   2
   2  -5   2 37.2802 2.50036   4
  -3   5  -2 36.2239 3.15196   3
  -3   5  -2 35.3667 2.02569   1
  -3   5  -2 35.6108 2.94734   5
  -3   5  -2 28.2930 2.85703   6
  -3   5  -2 31.8788 2.94654   4
  -3   5  -2 31.9414 2.62013   5
   3  -5   2 34.2531 2.84708   5
   3  -5   2 34.0405 1.89014   1
   3  -5   2 32.3653 2.80997   6
   3  -5   2 34.0370 2.03787   2
   3  -5   2 21.8662 3.18366   4
   3  -5   2 32.7395 2.85874   5
  -4   5  -2 98.6780 4.77841   4
  -4   5  -2 100.248 4.86091   3
  -4   5  -2 90.3058 4.36157   6
  -4   5  -2 90.5172 3.41064   1
  -4   5  -2 96.7351 4.23103   5
  -4   5  -2 91.2812 4.20818   5
   4  -5   2 90.1513 4.40830   5
   4  -5   2 95.4298 4.39082   6
   4  -5   2 93.2152 4.33863   5
   4  -5   2 92.7443 3.34148   1
   4  -5   2 96.1990 3.08854   2
   4  -5   2 92.1031 4.62946   4
  -5   5  -2 17.4999 1.93817   5
  -5   5  -2 13.8047 2.78201   3
  -5   5  -2 17.2288 2.76231   4
  -5   5  -2 13.8085 2.04204   6
  -5   5  -2 14.9497 1.90766   5
   5  -5   2 13.1245 2.55984   4
   5  -5   2 16.3637 2.17433   6
   5  -5   2 15.9367 1.37843   1
   5  -5   2 9.72144 1.90496   5
   5  -5   2 17.0107 2.22231   5
  -6   5  -2 17.9234 3.02823   3
  -6   5  -2 20.1717 1.83535   5
  -6   5  -2 17.2301 2.24129   6
  -6   5  -2 18.4456 3.26864   4
  -6   5  -2 21.3118 1.96481   5
  -6   5  -2 17.1421 2.43708   6
   6  -5   2 16.7404 1.60931   1
   6  -5   2 15.5596 2.32898   6
   6  -5   2 13.7319 3.43162   4
   6  -5   2 15.1443 2.30513   5
   6  -5   2 12.4345 2.22712   5
  -7   5  -2 7.18654 2.24078   6
  -7   5  -2 7.92349 3.03904   3
  -7   5  -2 6.89582 1.99171   6
  -7   5  -2 6.76684 3.60783   4
   7  -5   2 7.98839 1.63298   1
   7  -5   2 8.11742 2.63583   6
   7  -5   2 8.05684 2.44194   5
   7  -5   2 10.0312 4.35329   4
   7  -5   2 6.69943 2.39918   5
  -8   5  -2 1.27319 2.93010   3
   8  -5   2 3.12110 3.02491   1
   8  -5   2 2.75039 2.93101   5
   8  -5   2 3.06970 1.79580   1
   8   4  -2 -3.8162 5.85226   4
   8   4  -2 5.98622 2.13343   5
   8   4  -2 6.77114 3.41455   4
   8   4  -2 5.67444 2.26435   5
   7   4  -2 29.0235 5.56847   1
   7   4  -2 32.5484 3.57744   6
   7   4  -2 32.0376 3.02150   4
   7   4  -2 27.6402 2.52635   5
   7   4  -2 33.2365 2.55144   5
   7   4  -2 29.5891 2.37276   6
  -7  -4   2 22.8023 3.67250   2
   6   4  -2 5.07019 1.79102   4
   6   4  -2 7.36162 1.99675   6
   6   4  -2 6.49850 3.37383   1
   6   4  -2 4.17006 1.68154   5
   6   4  -2 6.67103 1.77329   5
   6   4  -2 7.30458 1.85282   6
  -6  -4   2 7.33907 2.78816   2
   5   4  -2 0.02754 1.31669   4
   5   4  -2 0.45976 1.30811   5
   5   4  -2 0.22211 2.20671   1
   5   4  -2 1.21888 1.34514   5
   5   4  -2 1.26314 1.43042   6
  -5  -4   2 0.97388 0.75132   6
  -5  -4   2 1.59872 0.73139   6
  -5  -4   2 -0.0454 1.98922   2
   4   4  -2 224.421 7.06091   4
   4   4  -2 227.584 7.30650   6
   4   4  -2 214.805 7.15892   5
   4   4  -2 222.998 7.22361   5
   4   4  -2 231.672 7.90148   1
  -4  -4   2 217.834 6.85767   6
  -4  -4   2 235.167 7.32205   4
  -4  -4   2 219.322 8.06750   2
  -4  -4   2 221.807 6.42466   5
  -4  -4   2 223.522 6.74340   6
  -4  -4   2 221.833 6.43262   5
   3   4  -2 57.7582 2.92482   6
   3   4  -2 59.7757 2.93880   5
   3   4  -2 56.6542 2.93991   5
   3   4  -2 57.5270 2.66648   4
   3   4  -2 57.6347 3.46758   1
  -3  -4   2 56.5329 2.64458   6
  -3  -4   2 54.5492 3.25646   1
  -3  -4   2 54.2566 2.81613   4
  -3  -4   2 59.5063 2.57308   5
  -3  -4   2 55.9584 2.54786   5
   2   4  -2 162.100 5.60873   1
   2   4  -2 160.182 5.48819   6
   2   4  -2 160.426 5.44132   5
   2   4  -2 159.442 5.50483   5
   2   4  -2 160.233 5.16541   4
  -2  -4   2 163.043 5.34290   5
  -2  -4   2 159.305 5.81179   2
  -2  -4   2 167.684 5.20438   4
  -2  -4   2 155.600 5.51853   1
  -2  -4   2 163.098 5.31350   6
  -2  -4   2 159.508 5.27499   5
   1   4  -2 146.902 5.08180   3
   1   4  -2 147.797 4.78050   4
   1   4  -2 144.436 4.98183   1
   1   4  -2 150.455 5.16803   5
   1   4  -2 146.922 5.10589   5
   1   4  -2 141.949 5.13189   6
  -1  -4   2 149.113 4.97859   1
  -1  -4   2 149.750 5.04331   6
  -1  -4   2 142.871 5.19786   2
  -1  -4   2 149.791 5.03900   5
  -1  -4   2 146.150 4.70251   4
   0   4  -2 2.21132 1.13398   3
   0   4  -2 2.38090 0.89665   1
   0   4  -2 3.13594 1.07974   5
   0   4  -2 2.29787 0.86902   5
   0   4  -2 2.35070 0.86947   4
   0   4  -2 3.25258 1.15780   6
   0  -4   2 2.24557 0.78295   6
   0  -4   2 2.13878 1.02478   5
   0  -4   2 1.55441 0.77758   5
   0  -4   2 2.05452 0.83530   1
   0  -4   2 2.54386 1.14587   2
   0  -4   2 2.54839 0.79813   4
  -1   4  -2 8.33691 1.12275   4
  -1   4  -2 8.60392 1.32753   5
  -1   4  -2 9.06721 1.40600   5
  -1   4  -2 7.69900 0.93098   1
  -1   4  -2 9.31859 1.52841   3
  -1   4  -2 9.45122 1.34327   6
   1  -4   2 7.66107 0.95444   1
   1  -4   2 9.15919 1.16591   4
   1  -4   2 8.85584 1.30712   5
   1  -4   2 9.31593 1.33916   5
   1  -4   2 11.1014 1.25300   2
   1  -4   2 6.30750 1.13107   6
  -2   4  -2 -0.0574 0.70557   1
  -2   4  -2 -1.2407 1.24074   3
  -2   4  -2 0.16774 1.06727   5
  -2   4  -2 -0.0990 0.96340   5
  -2   4  -2 -0.5146 0.86427   4
  -2   4  -2 0.48351 1.00688   6
   2  -4   2 0.39021 0.87938   4
   2  -4   2 0.28351 0.92910   6
   2  -4   2 -0.1479 0.85522   2
   2  -4   2 0.02679 0.61388   1
   2  -4   2 -0.2459 0.95201   5
   2  -4   2 -0.6109 0.94977   5
  -3   4  -2 129.756 4.75968   5
  -3   4  -2 135.195 4.77081   5
  -3   4  -2 136.780 5.24299   3
  -3   4  -2 131.635 4.22944   1
  -3   4  -2 133.224 5.03168   4
  -3   4  -2 127.840 4.89220   6
   3  -4   2 132.664 4.85558   6
   3  -4   2 137.416 3.91396   2
   3  -4   2 132.524 4.81559   5
   3  -4   2 134.153 4.22340   1
   3  -4   2 133.467 4.94901   5
   3  -4   2 134.771 4.89113   4
  -4   4  -2 8.23568 1.74171   4
  -4   4  -2 10.3781 2.13196   3
  -4   4  -2 8.70302 1.12586   1
  -4   4  -2 10.0450 1.53352   6
  -4   4  -2 8.88905 1.38262   5
  -4   4  -2 7.33475 1.33372   5
   4  -4   2 8.46459 1.07035   1
   4  -4   2 5.32567 1.22464   5
   4  -4   2 8.95154 1.56458   5
  -5   4  -2 288.637 9.20134   6
  -5   4  -2 290.998 9.91498   3
  -5   4  -2 297.166 9.88094   4
  -5   4  -2 289.849 8.81315   5
  -5   4  -2 294.152 8.82594   5
   5  -4   2 297.711 8.29198   2
   5  -4   2 299.831 9.28303   6
   5  -4   2 302.869 8.72859   1
   5  -4   2 296.198 9.37289   5
   5  -4   2 299.176 9.38462   5
   5  -4   2 312.115 9.94720   4
  -6   4  -2 2.43322 1.49576   6
  -6   4  -2 4.12096 2.24800   3
  -6   4  -2 10.1004 2.47058   4
  -6   4  -2 3.89523 1.45374   6
   6  -4   2 1.65856 1.47710   2
   6  -4   2 1.10400 1.54446   5
   6  -4   2 3.19676 1.60547   6
   6  -4   2 1.35575 2.71763   4
   6  -4   2 2.79667 1.33961   1
  -7   4  -2 13.4158 1.45604   6
  -7   4  -2 12.1394 3.03185   3
  -7   4  -2 10.1324 1.33317   6
   7  -4   2 8.75491 2.10748   5
   7  -4   2 12.8553 3.67510   4
   7  -4   2 11.7402 1.85373   1
   7  -4   2 10.4518 2.17065   5
   7  -4   2 10.4019 2.11071   6
  -8   4  -2 29.5879 3.94297   3
   8  -4   2 27.8445 3.10212   5
   8  -4   2 33.2449 3.21215   1
   8  -4   2 27.9522 2.68957   1
   8  -4   2 29.6267 3.01417   5
   8  -4   2 27.5109 3.20643   6
  -9   4  -2 0.11540 3.33103   3
   9  -4   2 -1.8757 2.95556   5
   9  -4   2 -0.0556 2.96658   5
   8   3  -2 -6.5515 4.91736   4
   8   3  -2 1.70719 1.55878   5
   8   3  -2 2.61786 1.61561   5
   8   3  -2 -1.7420 2.93939   4
  -8  -3   2 0.54035 3.07187   2
   7   3  -2 64.3518 3.23259   5
   7   3  -2 67.2819 6.64032   1
   7   3  -2 45.6891 4.98462   4
   7   3  -2 58.6239 3.14838   5
  -7  -3   2 55.1780 5.05622   2
   6   3  -2 18.0371 3.04328   1
   6   3  -2 18.4102 1.79180   6
   6   3  -2 18.3711 1.73330   6
   6   3  -2 19.6741 1.74697   5
   6   3  -2 21.1327 2.22433   4
  -6  -3   2 18.1074 2.93794   2
   5   3  -2 7.87656 2.19049   1
   5   3  -2 10.4155 1.36765   5
   5   3  -2 9.62238 1.32097   5
   5   3  -2 14.5756 1.95616   4
   5   3  -2 10.0619 1.40052   6
  -5  -3   2 9.34040 2.28871   2
   4   3  -2 1.38777 0.94980   5
   4   3  -2 0.78431 0.83803   5
   4   3  -2 0.25414 0.96411   6
   4   3  -2 1.62879 1.77681   1
   4   3  -2 0.82463 0.90318   4
  -4  -3   2 0.93617 0.60008   6
  -4  -3   2 0.25739 1.51213   2
   3   3  -2 215.196 6.56176   6
   3   3  -2 205.032 6.43157   4
   3   3  -2 210.289 6.55337   5
   3   3  -2 206.430 6.48863   5
   3   3  -2 210.298 6.88553   1
  -3  -3   2 214.023 6.17555   5
  -3  -3   2 214.343 6.57527   4
  -3  -3   2 206.476 7.16642   2
  -3  -3   2 216.992 6.29576   6
  -3  -3   2 206.575 6.82413   1
  -3  -3   2 216.884 6.23191   5
   2   3  -2 97.0240 3.53187   5
   2   3  -2 95.2769 3.50941   6
   2   3  -2 104.294 3.73569   1
   2   3  -2 95.6826 3.48567   5
   2   3  -2 96.0056 3.34307   4
  -2  -3   2 90.8137 3.58096   1
  -2  -3   2 98.3349 3.36956   6
  -2  -3   2 97.3803 3.97045   2
  -2  -3   2 96.1066 3.38214   5
  -2  -3   2 95.9349 3.32866   5
  -2  -3   2 98.9433 3.34031   4
   1   3  -2 6.19065 0.92166   1
   1   3  -2 6.36329 0.97136   5
   1   3  -2 7.13707 0.88059   4
   1   3  -2 6.07268 0.94429   6
   1   3  -2 5.70711 0.94414   5
  -1  -3   2 5.28240 0.88432   1
  -1  -3   2 4.52970 0.69866   4
  -1  -3   2 5.62157 0.82913   6
  -1  -3   2 5.99185 1.14913   2
  -1  -3   2 4.81459 0.84401   5
  -1  -3   2 6.07616 0.97453   5
   0   3  -2 391.137 11.4457   5
   0   3  -2 398.328 11.2270   1
   0   3  -2 397.173 11.4689   5
   0   3  -2 391.861 11.2268   4
   0   3  -2 410.132 11.4093   3
   0  -3   2 391.409 11.4502   5
   0  -3   2 397.988 11.1759   4
   0  -3   2 418.455 11.2825   2
   0  -3   2 389.630 11.3957   5
   0  -3   2 416.144 11.4751   6
   0  -3   2 380.187 11.2160   1
  -1   3  -2 159.103 5.07664   4
  -1   3  -2 159.113 5.19447   5
  -1   3  -2 161.763 5.21523   3
  -1   3  -2 157.171 5.16126   5
  -1   3  -2 161.985 4.88292   1
   1  -3   2 165.223 5.00843   4
   1  -3   2 159.065 4.86759   1
   1  -3   2 157.398 5.16890   5
   1  -3   2 158.675 5.16518   6
   1  -3   2 169.755 4.77747   2
   1  -3   2 158.218 5.21590   5
  -2   3  -2 14.0568 1.18876   1
  -2   3  -2 8.63839 1.41897   5
  -2   3  -2 16.1920 1.61069   3
  -2   3  -2 13.7641 1.52691   6
  -2   3  -2 13.3368 1.34182   4
  -2   3  -2 18.2503 1.56427   5
   2  -3   2 14.9434 0.91765   2
   2  -3   2 15.7931 1.48374   6
   2  -3   2 16.9091 1.57839   4
   2  -3   2 16.0434 1.56260   5
   2  -3   2 15.7579 1.18355   1
  -3   3  -2 16.5472 1.57850   5
  -3   3  -2 20.3242 2.15780   3
  -3   3  -2 16.0675 1.66289   6
  -3   3  -2 16.2470 1.54171   5
  -3   3  -2 13.9149 1.30971   1
  -3   3  -2 15.9922 1.63389   4
   3  -3   2 15.0891 1.57336   6
   3  -3   2 16.4519 1.69822   5
   3  -3   2 13.1765 1.31379   5
   3  -3   2 14.8746 1.59897   4
   3  -3   2 14.4384 1.26324   1
  -4   3  -2 114.841 4.65039   3
  -4   3  -2 114.465 4.57970   4
  -4   3  -2 108.926 4.08858   6
  -4   3  -2 115.681 3.82532   5
  -4   3  -2 117.336 3.90987   5
  -4   3  -2 113.329 3.90180   1
   4  -3   2 118.894 4.61759   4
   4  -3   2 109.229 4.17298   5
   4  -3   2 116.210 3.52935   2
   4  -3   2 117.568 4.11540   6
   4  -3   2 111.952 3.84735   1
   4  -3   2 94.0580 4.43315   5
  -5   3  -2 110.168 3.40388   5
  -5   3  -2 103.689 4.87970   3
  -5   3  -2 107.016 3.39460   5
  -5   3  -2 106.329 3.94306   6
  -5   3  -2 109.776 4.87695   4
  -5   3  -2 117.362 4.06188   6
   5  -3   2 110.962 4.00227   1
   5  -3   2 100.096 4.17167   5
   5  -3   2 109.931 4.08691   6
   5  -3   2 108.374 4.14473   5
   5  -3   2 108.056 4.97260   4
  -6   3  -2 14.0928 1.33784   6
  -6   3  -2 14.5786 2.49145   3
  -6   3  -2 12.1964 1.20817   6
   6  -3   2 11.6175 1.63565   1
   6  -3   2 11.5228 1.63417   5
   6  -3   2 13.3228 1.72028   5
   6  -3   2 14.1747 2.75552   4
   6  -3   2 14.3283 1.59343   6
  -7   3  -2 8.76688 2.71965   3
   7  -3   2 13.0678 2.07461   1
   7  -3   2 11.3976 1.88178   5
   7  -3   2 11.3670 1.88495   5
   7  -3   2 11.5240 3.35738   4
   7  -3   2 13.7958 1.81793   6
  -8   3  -2 1.12252 2.71681   3
   8  -3   2 2.15443 2.74538   1
   8  -3   2 1.94347 2.27024   1
   8  -3   2 1.74473 4.67835   4
   8  -3   2 0.45561 1.99500   5
   8  -3   2 -3.5145 1.83591   6
   8  -3   2 1.18840 1.80398   5
  -9   3  -2 -5.0414 2.86366   3
   9  -3   2 -1.3918 2.46053   5
   9  -3   2 -6.1626 2.97767   1
   9  -3   2 -0.3563 2.27967   5
   9   2  -2 23.9063 4.63426   4
   9   2  -2 34.5873 7.99468   1
  -9  -2   2 24.6281 7.06938   2
   8   2  -2 2.98062 4.75741   4
   8   2  -2 5.80683 2.86676   4
   8   2  -2 6.10560 4.23027   1
  -8  -2   2 6.69367 3.28623   2
   7   2  -2 1.72929 2.89627   1
   7   2  -2 2.85151 1.11499   5
   7   2  -2 -1.2087 1.83881   4
   7   2  -2 2.04499 3.22636   4
   7   2  -2 2.52836 1.10881   5
  -7  -2   2 0.50974 2.33461   2
  -7  -2   2 0.69939 2.32624   3
   6   2  -2 19.7251 1.93553   4
   6   2  -2 18.9267 1.74551   6
   6   2  -2 19.2142 1.74146   5
   6   2  -2 18.4886 2.83495   1
   6   2  -2 22.3597 1.80936   5
  -6  -2   2 24.3021 2.83986   3
  -6  -2   2 22.6507 2.98824   2
   5   2  -2 3.73112 1.22563   4
   5   2  -2 6.17709 1.01577   5
   5   2  -2 3.30028 2.17897   1
   5   2  -2 5.66539 0.92468   5
   5   2  -2 6.34391 1.06624   6
   5   2  -2 5.77266 0.99547   6
  -5  -2   2 8.26929 1.90062   3
  -5  -2   2 5.89421 1.87859   2
   4   2  -2 5.33540 0.86650   5
   4   2  -2 5.88864 0.95274   6
   4   2  -2 6.72732 1.08798   4
   4   2  -2 5.20487 1.34997   1
   4   2  -2 6.24227 0.87885   6
  -4  -2   2 5.41402 1.53614   3
  -4  -2   2 5.60348 1.62146   2
  -4  -2   2 5.81589 0.53554   6
   3   2  -2 458.161 12.8158   5
   3   2  -2 475.617 12.8333   6
   3   2  -2 450.240 13.1554   1
   3   2  -2 444.260 12.7845   5
   3   2  -2 450.007 12.9195   4
  -3  -2   2 448.331 13.4485   2
  -3  -2   2 459.121 12.6116   6
  -3  -2   2 464.494 12.4957   5
  -3  -2   2 464.932 13.0215   4
  -3  -2   2 460.117 13.1693   1
  -3  -2   2 475.271 13.4098   3
  -3  -2   2 460.071 12.5196   5
   2   2  -2 108.267 3.56030   5
   2   2  -2 110.348 3.76660   1
   2   2  -2 107.333 3.50896   4
   2   2  -2 105.838 3.51952   5
   2   2  -2 110.215 3.55260   6
  -2  -2   2 108.902 3.55792   4
  -2  -2   2 107.844 3.71662   1
  -2  -2   2 109.681 3.41774   5
  -2  -2   2 106.821 3.42035   6
  -2  -2   2 107.923 3.46700   5
  -2  -2   2 112.315 4.01646   2
   1   2  -2 600.039 16.6317   5
   1   2  -2 591.214 16.6217   6
   1   2  -2 591.522 16.4882   4
  -1  -2   2 601.519 16.4966   4
  -1  -2   2 597.266 16.5689   5
  -1  -2   2 606.657 16.6297   1
  -1  -2   2 632.568 16.7400   2
   0   2  -2 209.933 6.19108   5
   0   2  -2 198.750 6.17291   6
   0   2  -2 205.940 6.00168   4
   0   2  -2 207.474 6.02948   1
   0   2  -2 217.234 6.10735   3
   0   2  -2 207.504 6.16253   5
   0  -2   2 200.985 6.02714   1
   0  -2   2 219.688 6.02040   2
   0  -2   2 213.335 5.98816   4
   0  -2   2 209.415 6.13016   6
   0  -2   2 191.555 6.22712   5
  -1   2  -2 65.9304 2.45386   4
  -1   2  -2 69.9132 2.54026   5
  -1   2  -2 69.5581 2.38569   1
  -1   2  -2 76.1658 2.60976   3
  -1   2  -2 63.1936 2.50850   6
  -1   2  -2 68.9329 2.54444   5
   1  -2   2 76.3041 2.13582   2
   1  -2   2 71.8651 2.53486   6
   1  -2   2 70.9547 2.39556   1
   1  -2   2 68.7174 2.54013   5
   1  -2   2 72.4633 2.44946   4
   1  -2   2 68.0848 2.56729   5
  -2   2  -2 83.8294 3.07239   6
  -2   2  -2 90.8706 2.94238   1
  -2   2  -2 94.6542 3.31149   3
  -2   2  -2 88.5329 3.04706   5
  -2   2  -2 86.9417 3.01977   5
  -2   2  -2 89.5991 3.18823   4
   2  -2   2 87.0508 2.94734   1
   2  -2   2 86.8627 3.10286   5
   2  -2   2 93.8722 3.15885   4
   2  -2   2 90.3970 3.07229   6
   2  -2   2 87.2505 3.07557   5
  -3   2  -2 31.0162 1.66819   6
  -3   2  -2 30.1778 1.77341   6
  -3   2  -2 30.8190 1.51331   5
  -3   2  -2 33.0792 1.62953   5
  -3   2  -2 31.2731 2.01179   4
  -3   2  -2 30.6056 2.20597   3
  -3   2  -2 29.6912 1.67614   1
   3  -2   2 31.6407 1.66834   1
   3  -2   2 31.9849 1.95351   4
   3  -2   2 30.2057 1.69434   5
   3  -2   2 30.2183 1.63909   6
   3  -2   2 29.6043 1.65672   5
  -4   2  -2 172.839 4.94613   5
  -4   2  -2 174.249 5.91160   4
  -4   2  -2 175.821 5.35650   6
  -4   2  -2 171.275 5.29465   6
  -4   2  -2 175.305 5.96091   3
  -4   2  -2 175.319 4.96935   5
   4  -2   2 167.201 5.41921   5
   4  -2   2 175.300 5.46548   1
   4  -2   2 178.987 5.90417   4
   4  -2   2 166.569 5.30391   6
   4  -2   2 162.809 5.38232   5
  -5   2  -2 14.6805 1.28048   6
  -5   2  -2 14.1918 2.00571   3
  -5   2  -2 15.3509 1.34902   6
  -5   2  -2 14.0384 1.86740   4
   5  -2   2 12.3615 1.91398   4
   5  -2   2 12.8493 1.19810   6
   5  -2   2 12.7410 1.47150   1
   5  -2   2 11.9924 1.33911   5
  -6   2  -2 167.966 6.60506   3
   6  -2   2 174.785 6.86841   4
   6  -2   2 175.367 5.41674   6
   6  -2   2 165.057 5.63712   5
   6  -2   2 182.734 6.05756   1
   6  -2   2 174.155 5.61975   5
  -7   2  -2 3.72281 2.35496   3
   7  -2   2 6.53593 1.46363   5
   7  -2   2 10.7240 1.55027   5
   7  -2   2 8.57457 3.04094   4
   7  -2   2 8.28960 2.05194   1
   7  -2   2 7.78213 1.33428   6
  -8   2  -2 1.18925 2.55781   3
   8  -2   2 1.15370 2.48049   1
   8  -2   2 1.64230 1.64656   5
   8  -2   2 4.21626 2.89488   1
   8  -2   2 2.01355 4.12378   4
   8  -2   2 0.14338 1.55545   5
  -9   2  -2 14.2191 3.29677   3
   9  -2   2 12.2779 1.89958   5
   9  -2   2 7.06607 3.69298   1
   9  -2   2 8.90012 1.92062   5
   9  -2   2 10.6861 5.74264   1
   9   1  -2 39.2729 5.09456   1
   9   1  -2 42.0189 4.57006   4
   9   1  -2 39.0126 6.39130   1
  -9  -1   2 39.0906 4.72958   2
  -9  -1   2 42.3462 4.36482   3
   8   1  -2 5.77175 4.34208   4
   8   1  -2 18.4888 3.14201   4
   8   1  -2 18.6869 3.74257   1
  -8  -1   2 13.0053 2.99733   3
  -8  -1   2 13.6569 3.42253   2
   7   1  -2 -0.1400 2.43584   1
   7   1  -2 -0.3732 0.77973   5
   7   1  -2 -0.2005 2.76385   4
   7   1  -2 -1.8327 1.84856   4
   7   1  -2 0.51974 0.81843   5
  -7  -1   2 -1.9320 2.23965   2
  -7  -1   2 2.11386 2.42445   3
   6   1  -2 46.3604 2.00669   5
   6   1  -2 50.2423 3.18995   4
   6   1  -2 45.4279 1.97748   5
   6   1  -2 50.4998 3.72310   1
  -6  -1   2 43.9516 3.60611   3
  -6  -1   2 46.2932 3.77175   2
   5   1  -2 32.4061 1.66120   6
   5   1  -2 33.4625 2.85891   1
   5   1  -2 31.0444 1.58120   5
   5   1  -2 35.6899 1.52171   6
   5   1  -2 32.2515 2.40109   4
   5   1  -2 32.9103 1.62945   5
  -5  -1   2 31.7355 3.01251   2
  -5  -1   2 31.0677 2.86695   3
   4   1  -2 36.9006 1.53453   6
   4   1  -2 35.0402 1.56108   5
   4   1  -2 35.2875 2.30396   1
   4   1  -2 38.0807 2.14877   4
   4   1  -2 36.1061 1.71015   6
   4   1  -2 35.8155 1.53335   5
  -4  -1   2 36.3849 2.56811   3
  -4  -1   2 38.4191 2.73039   2
   3   1  -2 3.22110 0.52388   5
   3   1  -2 3.80614 0.64253   6
   3   1  -2 4.10939 0.86403   1
   3   1  -2 2.90512 0.49178   6
   3   1  -2 1.50441 0.68610   4
   3   1  -2 3.47284 0.59866   5
  -3  -1   2 3.48974 0.80677   1
  -3  -1   2 2.84377 1.15355   3
  -3  -1   2 3.54832 0.44776   6
   2   1  -2 254.185 7.08737   6
   2   1  -2 246.537 7.22120   6
   2   1  -2 250.182 7.13336   5
   2   1  -2 239.775 7.08329   5
   2   1  -2 245.275 7.19958   4
   2   1  -2 254.840 7.29820   1
  -2  -1   2 262.385 7.57540   2
  -2  -1   2 253.289 7.05250   5
  -2  -1   2 254.736 7.27053   4
  -2  -1   2 251.530 7.02046   5
  -2  -1   2 245.541 7.28071   1
  -2  -1   2 261.110 7.50815   3
   1   1  -2 359.308 10.3976   5
   1   1  -2 376.913 10.3644   4
   1   1  -2 376.900 10.4395   1
   1   1  -2 376.757 10.4297   5
   1   1  -2 361.863 10.3688   6
   1   1  -2 376.912 10.5125   6
  -1  -1   2 393.537 10.5704   2
  -1  -1   2 398.298 10.5590   3
  -1  -1   2 365.022 10.3633   5
  -1  -1   2 372.897 10.4671   1
  -1  -1   2 371.339 10.3558   4
   0   1  -2 -0.7904 0.40701   6
   0   1  -2 -0.7660 0.33321   1
   0   1  -2 -0.8794 0.30180   4
   0   1  -2 -1.4343 0.35758   5
   0   1  -2 -0.8767 0.43861   6
   0  -1   2 -0.5766 0.37195   5
   0  -1   2 -1.0301 0.27670   4
   0  -1   2 -0.3179 0.49791   2
   0  -1   2 -1.0713 0.32951   6
   0  -1   2 -0.6884 0.39599   5
   0  -1   2 -1.1969 0.34189   1
  -1   1  -2 202.764 5.94201   6
  -1   1  -2 211.931 5.93495   1
  -1   1  -2 213.960 5.85749   3
  -1   1  -2 204.935 5.89155   4
  -1   1  -2 202.299 5.93950   5
  -1   1  -2 214.927 5.65385   2
   1  -1   2 202.619 5.92993   1
   1  -1   2 199.484 5.84496   4
   1  -1   2 204.291 5.95839   5
   1  -1   2 207.936 5.98483   5
   1  -1   2 205.445 5.92225   6
  -2   1  -2 233.203 6.81877   6
  -2   1  -2 239.782 6.78474   5
  -2   1  -2 242.000 6.91268   6
  -2   1  -2 253.424 6.63106   2
  -2   1  -2 247.525 6.90992   3
  -2   1  -2 237.422 6.75934   5
  -2   1  -2 239.364 6.94320   4
  -2   1  -2 237.627 6.89566   1
   2  -1   2 226.713 6.87733   1
   2  -1   2 233.402 6.78104   6
   2  -1   2 235.513 6.88867   4
   2  -1   2 231.523 6.82163   5
   2  -1   2 241.191 6.85160   5
  -3   1  -2 161.621 4.91255   6
  -3   1  -2 167.339 4.98866   6
  -3   1  -2 177.755 5.31272   3
  -3   1  -2 170.475 5.21351   1
  -3   1  -2 168.020 5.01184   2
  -3   1  -2 167.779 4.72253   5
  -3   1  -2 168.517 4.74178   5
  -3   1  -2 162.928 5.28073   4
   3  -1   2 161.885 4.91053   6
   3  -1   2 168.043 4.98941   5
   3  -1   2 162.454 4.97263   5
   3  -1   2 166.951 5.20402   1
   3  -1   2 164.551 5.26024   4
  -4   1  -2 0.14756 0.47314   6
  -4   1  -2 0.55591 0.95226   4
  -4   1  -2 -0.2045 1.07675   2
  -4   1  -2 0.73093 0.49793   6
  -4   1  -2 0.00934 1.13762   3
   4  -1   2 1.01334 1.05354   4
   4  -1   2 0.53440 0.84469   1
   4  -1   2 0.72680 0.55774   6
   4  -1   2 0.27982 0.57181   5
   4  -1   2 -0.0775 0.65356   5
  -5   1  -2 149.653 5.29764   2
  -5   1  -2 160.931 5.53470   3
   5  -1   2 149.768 4.74123   5
   5  -1   2 153.309 5.36383   1
   5  -1   2 158.587 5.70902   4
   5  -1   2 152.951 4.80103   5
   5  -1   2 152.669 4.63763   6
  -6   1  -2 101.257 4.44890   2
  -6   1  -2 91.1986 4.52770   3
   6  -1   2 91.7812 3.34342   5
   6  -1   2 94.8004 3.44272   5
   6  -1   2 96.5372 3.08524   6
   6  -1   2 98.2175 4.90352   4
   6  -1   2 94.7813 4.43011   1
  -7   1  -2 6.57444 2.38001   2
  -7   1  -2 3.63130 2.18392   3
   7  -1   2 -0.4155 2.86457   4
   7  -1   2 2.30393 1.16873   5
   7  -1   2 1.98802 2.35386   1
   7  -1   2 2.25179 1.05161   5
  -8   1  -2 8.24698 2.68467   3
  -8   1  -2 12.4563 3.13476   2
   8  -1   2 11.8405 3.54855   1
   8  -1   2 11.3411 1.47360   5
   8  -1   2 10.6358 4.24296   4
   8  -1   2 8.25668 4.62817   1
   8  -1   2 10.9419 1.39943   5
  -9   1  -2 1.25441 2.75052   3
   9  -1   2 3.26965 5.47527   1
   9  -1   2 -2.6480 3.84209   1
   9   0  -2 32.9783 4.08630   1
   9   0  -2 29.0380 5.50654   1
   9   0  -2 32.0871 4.36978   4
  -9   0   2 33.0885 4.07365   3
   8   0  -2 56.2790 4.09824   1
   8   0  -2 63.5766 5.07087   1
   8   0  -2 55.9225 5.37543   4
   8   0  -2 64.6102 5.16869   4
  -8   0   2 53.7845 4.72535   3
   7   0  -2 27.1278 2.83465   1
   7   0  -2 31.8151 3.85686   4
   7   0  -2 29.7681 1.72627   5
   7   0  -2 27.1722 1.62428   5
   7   0  -2 31.7912 2.81730   4
  -7   0   2 26.4010 3.10110   3
  -7   0   2 32.0409 3.38829   2
   6   0  -2 2.50989 0.71357   5
   6   0  -2 3.89544 0.84415   5
   6   0  -2 6.47910 2.21258   4
   6   0  -2 1.63256 1.43077   4
   6   0  -2 2.87330 1.54860   1
  -6   0   2 4.01882 2.02617   2
  -6   0   2 3.78708 1.90115   3
   5   0  -2 0.25513 0.55889   5
   5   0  -2 0.60344 0.61729   5
   5   0  -2 -2.7240 1.10260   1
   5   0  -2 0.75830 0.68738   6
   5   0  -2 0.24222 0.50058   6
  -5   0   2 -0.7837 1.44305   3
  -5   0   2 0.33942 1.46213   2
   4   0  -2 9.59393 0.87767   6
   4   0  -2 9.86550 0.99522   5
   4   0  -2 10.0329 0.86390   6
   4   0  -2 9.31217 0.90019   5
   4   0  -2 8.51016 1.08203   1
  -4   0   2 8.62726 1.48262   2
  -4   0   2 8.50788 1.58887   3
   3   0  -2 77.8352 2.50574   5
   3   0  -2 77.5392 2.45513   6
   3   0  -2 79.6964 2.77834   1
   3   0  -2 76.0404 2.60122   6
   3   0  -2 76.5773 2.54063   5
  -3   0   2 78.7215 2.75598   1
  -3   0   2 80.6515 2.44025   6
  -3   0   2 78.9843 3.20792   2
   2   0  -2 943.634 26.9809   4
   2   0  -2 976.015 26.8058   6
   2   0  -2 983.188 26.8687   5
   2   0  -2 953.773 26.8318   5
   2   0  -2 995.816 26.9541   6
   2   0  -2 998.926 26.9042   1
  -2   0   2 1055.95 27.2331   3
  -2   0   2 997.056 26.8023   5
  -2   0   2 978.466 26.9135   6
  -2   0   2 1009.81 26.7925   5
  -2   0   2 1092.36 27.2389   2
  -2   0   2 993.129 26.9078   1
  -2   0   2 995.756 26.8048   6
   1   0  -2 178.787 5.18095   4
   1   0  -2 183.224 5.18421   6
   1   0  -2 176.854 5.18009   1
   1   0  -2 184.126 5.34085   6
   1   0  -2 179.144 5.22186   5
   1   0  -2 182.774 5.24500   5
  -1   0   2 177.616 5.20767   5
  -1   0   2 179.080 5.20032   4
  -1   0   2 177.060 5.31343   6
  -1   0   2 181.031 5.18566   1
  -1   0   2 194.960 5.37290   3
   0   0  -2 1583.25 37.7517   2
   0   0  -2 1388.50 37.6811   1
   0   0  -2 1265.11 37.8215   4
   0   0  -2 1394.80 37.7109   5
   0   0  -2 1359.88 37.8019   6
   0   0  -2 1368.20 37.7259   5
   0   0   2 1376.00 37.6990   5
   0   0   2 1449.34 37.9446   6
   0   0   2 1368.90 37.8027   6
   0   0   2 1499.77 37.5466   3
   0   0   2 1375.42 37.6763   1
   0   0   2 1456.41 37.7327   4
  -1   0  -2 78.6911 2.53330   5
  -1   0  -2 90.0667 2.56863   2
  -1   0  -2 78.2377 2.37430   4
  -1   0  -2 66.0674 2.61616   6
  -1   0  -2 81.7512 2.52901   5
  -1   0  -2 77.6759 2.46664   6
  -1   0  -2 83.3782 2.24333   3
  -1   0  -2 79.7881 2.60979   1
   1   0   2 80.1184 2.52123   5
   1   0   2 79.5291 2.62313   6
   1   0   2 80.8743 2.47379   6
   1   0   2 76.8661 2.59622   1
   1   0   2 80.2138 2.34267   4
   1   0   2 80.9066 2.54972   5
  -2   0  -2 93.2140 2.75840   5
  -2   0  -2 91.1035 2.90029   4
  -2   0  -2 91.2882 3.10447   1
  -2   0  -2 88.7545 2.76325   6
  -2   0  -2 95.2291 3.04875   2
  -2   0  -2 93.3495 2.84153   3
  -2   0  -2 90.9912 2.89271   6
   2   0   2 88.9415 3.10228   1
   2   0   2 90.8289 2.95509   6
   2   0   2 87.0058 2.77031   6
   2   0   2 92.0969 2.87341   4
   2   0   2 90.3253 2.85583   5
  -3   0  -2 226.307 6.35940   6
  -3   0  -2 235.974 6.66573   3
  -3   0  -2 224.570 6.30992   6
  -3   0  -2 232.135 6.83509   2
   3   0   2 218.225 6.41305   5
   3   0   2 228.235 6.52129   6
   3   0   2 216.602 6.84291   1
   3   0   2 225.047 6.44023   5
   3   0   2 223.661 6.36314   6
   3   0   2 228.805 6.69202   4
  -4   0  -2 24.3627 2.21549   2
  -4   0  -2 28.8890 2.10252   3
   4   0   2 27.0472 1.24452   6
   4   0   2 27.5737 1.34291   5
   4   0   2 27.8859 2.10172   1
   4   0   2 28.7127 2.11346   4
   4   0   2 26.3083 1.37416   5
  -5   0  -2 117.621 4.69471   2
  -5   0  -2 115.946 4.46240   3
   5   0   2 115.527 3.63629   5
   5   0   2 119.889 4.66704   1
   5   0   2 115.188 3.68010   5
   5   0   2 116.871 4.59019   4
  -6   0  -2 20.8771 2.33931   3
  -6   0  -2 21.8599 2.49149   2
   6   0   2 19.6240 1.41721   5
   6   0   2 19.8107 2.29267   1
   6   0   2 22.6202 1.62074   5
   6   0   2 20.9311 2.51624   4
  -7   0  -2 80.0309 4.28963   3
  -7   0  -2 76.1123 4.77772   2
   7   0   2 75.3048 5.03552   1
   7   0   2 80.8115 5.58906   1
   7   0   2 72.1480 2.83380   5
   7   0   2 74.5746 5.59139   4
   7   0   2 77.0585 2.74103   5
  -8   0  -2 5.92607 2.59393   3
  -8   0  -2 3.70546 3.07649   2
   8   0   2 4.91886 3.87344   4
   8   0   2 0.33111 5.00689   4
   8   0   2 3.59876 3.18215   1
   8   0   2 9.67511 4.06990   1
  -9   0  -2 -2.0980 2.77418   3
  -9   0  -2 -2.9364 3.66929   2
   9   0   2 0.04307 3.35364   4
   9   0   2 2.68471 4.53337   1
   9   0   2 4.15881 6.33209   4
   9  -1  -2 8.09401 3.82939   4
   9  -1  -2 12.1158 3.20363   1
   9  -1  -2 18.5656 4.50578   1
  -9   1   2 10.2769 3.36500   3
   8  -1  -2 73.0587 3.19995   5
   8  -1  -2 72.6529 2.98229   5
   8  -1  -2 77.9350 5.48425   4
   8  -1  -2 66.1852 5.64409   4
   8  -1  -2 86.7911 4.76781   1
   8  -1  -2 77.3354 5.11845   1
  -8   1   2 77.3670 5.36182   3
   7  -1  -2 19.8663 1.83121   5
   7  -1  -2 24.0983 2.00465   5
   7  -1  -2 22.9471 3.61671   4
   7  -1  -2 20.5496 2.15797   1
   7  -1  -2 20.2960 2.20254   1
  -7   1   2 18.6760 2.74150   3
   6  -1  -2 1.38324 1.11026   6
   6  -1  -2 0.74664 0.77887   5
   6  -1  -2 1.34126 2.09650   4
   6  -1  -2 2.41792 1.35668   1
   6  -1  -2 0.43159 0.80035   5
   6  -1  -2 0.56200 0.65532   6
  -6   1   2 2.16685 1.69478   3
   5  -1  -2 33.8563 2.05908   1
   5  -1  -2 32.4508 1.85486   6
   5  -1  -2 31.5721 1.51035   6
   5  -1  -2 31.4919 2.63532   4
   5  -1  -2 32.2695 1.67978   5
   5  -1  -2 31.4330 1.73489   5
  -5   1   2 30.7413 2.78125   3
   4  -1  -2 45.7068 1.84065   5
   4  -1  -2 46.6878 2.74781   4
   4  -1  -2 41.4451 1.88723   5
   4  -1  -2 45.4250 2.00798   1
   4  -1  -2 43.6555 1.97653   6
   4  -1  -2 46.1467 1.76262   6
  -4   1   2 43.4950 2.87305   3
  -4   1   2 44.1793 1.78653   6
   3  -1  -2 22.8683 1.35357   5
   3  -1  -2 25.2687 1.21859   1
   3  -1  -2 24.7950 1.23710   6
   3  -1  -2 26.2321 1.46855   6
   3  -1  -2 24.7398 1.26183   5
  -3   1   2 24.5095 1.13447   5
  -3   1   2 26.1812 1.27728   1
  -3   1   2 26.1552 1.36409   6
  -3   1   2 22.7890 2.42121   3
  -3   1   2 25.0144 1.16473   5
  -3   1   2 25.9334 1.32483   6
   2  -1  -2 11.1569 0.89244   5
   2  -1  -2 12.5328 0.98100   5
   2  -1  -2 10.3508 0.99909   6
   2  -1  -2 11.3882 0.86260   6
   2  -1  -2 11.1287 0.70978   1
  -2   1   2 10.4921 0.82366   5
  -2   1   2 11.2501 0.94405   6
  -2   1   2 13.4909 1.34409   3
  -2   1   2 11.2157 0.83649   5
  -2   1   2 11.6312 0.72919   1
  -2   1   2 10.8150 0.87691   6
   1  -1  -2 153.076 4.61044   2
   1  -1  -2 147.744 4.19629   1
   1  -1  -2 146.404 4.35361   6
   1  -1  -2 150.089 4.49486   6
   1  -1  -2 149.156 4.42645   5
  -1   1   2 159.972 4.56841   3
  -1   1   2 152.065 4.38744   6
  -1   1   2 150.719 4.40818   5
  -1   1   2 144.288 4.37983   5
  -1   1   2 123.244 4.41194   1
  -1   1   2 146.063 4.49566   6
   0  -1  -2 578.257 15.2912   2
   0  -1  -2 552.410 15.2285   5
   0  -1  -2 556.162 15.1961   5
   0  -1  -2 546.931 15.3026   6
   0  -1  -2 538.189 15.1516   6
   0  -1  -2 547.318 15.1221   1
   0   1   2 561.290 15.2133   5
   0   1   2 545.791 15.2267   5
   0   1   2 557.029 15.1394   1
   0   1   2 600.173 15.0818   3
   0   1   2 537.193 15.2908   6
   0   1   2 545.828 15.1765   6
  -1  -1  -2 1.35670 0.38887   5
  -1  -1  -2 1.31896 0.48350   1
  -1  -1  -2 1.03939 0.43278   6
  -1  -1  -2 1.47266 0.38236   6
  -1  -1  -2 2.06565 0.46480   5
  -1  -1  -2 2.57178 0.80213   2
   1   1   2 2.09031 0.44837   3
   1   1   2 1.59325 0.43263   6
   1   1   2 2.04627 0.43346   6
   1   1   2 0.93508 0.46178   1
   1   1   2 1.25120 0.45602   5
   1   1   2 1.12830 0.37949   5
  -2  -1  -2 30.3855 1.23600   5
  -2  -1  -2 28.1453 1.36105   6
  -2  -1  -2 26.7509 1.14888   6
  -2  -1  -2 30.2721 1.80440   2
  -2  -1  -2 27.7469 1.15969   5
   2   1   2 27.0735 1.31254   5
   2   1   2 26.8171 1.60332   1
   2   1   2 27.9115 1.25966   6
   2   1   2 28.5350 1.40426   6
   2   1   2 29.3320 1.16599   4
  -3  -1  -2 54.4355 2.67663   2
  -3  -1  -2 50.7458 1.73853   6
  -3  -1  -2 51.2774 1.84454   6
  -3  -1  -2 55.9789 2.22319   3
   3   1   2 51.8126 2.06165   6
   3   1   2 50.7727 2.48736   1
   3   1   2 51.9757 1.92990   5
   3   1   2 51.9827 1.90768   6
   3   1   2 53.9185 2.09789   4
   3   1   2 51.7178 1.98017   5
  -4  -1  -2 174.782 6.05568   2
  -4  -1  -2 176.531 5.64970   3
   4   1   2 179.620 5.19585   5
   4   1   2 174.896 5.13488   6
   4   1   2 172.713 5.21386   5
   4   1   2 177.864 5.29918   6
   4   1   2 174.649 5.99235   1
   4   1   2 181.567 5.61484   4
  -5  -1  -2 1.34977 1.70515   2
  -5  -1  -2 -0.6842 1.37067   3
   5   1   2 -0.4266 0.69699   6
   5   1   2 -0.6676 1.21121   4
   5   1   2 0.13526 0.64637   5
   5   1   2 -0.1567 0.66226   6
   5   1   2 -1.2870 1.39045   1
   5   1   2 -0.2521 0.67737   5
  -6  -1  -2 126.043 5.11946   3
  -6  -1  -2 126.975 5.55679   2
   6   1   2 125.456 5.40625   4
   6   1   2 121.874 3.98295   5
   6   1   2 128.311 3.95299   5
   6   1   2 122.656 5.59154   1
   6   1   2 129.066 4.77542   4
  -7  -1  -2 75.8053 5.06140   2
  -7  -1  -2 71.0285 4.30065   3
   7   1   2 68.8753 4.07112   4
   7   1   2 70.9839 5.51686   4
   7   1   2 70.1359 2.64662   5
   7   1   2 71.3165 6.07411   1
   7   1   2 79.2704 5.54677   1
  -8  -1  -2 4.37026 3.08740   2
   8   1   2 -3.7204 3.41790   1
   8   1   2 1.05939 4.44838   1
   8   1   2 0.89959 2.48636   4
   8   1   2 -4.5906 3.88907   4
  -9  -1  -2 9.70352 4.08086   2
   9   1   2 3.57950 4.97229   1
   9   1   2 5.99763 3.41347   4
   9  -2  -2 21.1131 4.14357   1
   9  -2  -2 25.8182 2.93416   1
   9  -2  -2 28.4543 2.36130   5
   9  -2  -2 28.4165 2.20848   5
  -9   2   2 24.8406 4.08751   3
   8  -2  -2 57.0732 3.81031   1
   8  -2  -2 47.2199 2.95826   5
   8  -2  -2 50.4431 5.32379   4
   8  -2  -2 48.9295 3.18936   5
   8  -2  -2 46.3520 3.99841   1
  -8   2   2 50.5936 4.82151   3
   7  -2  -2 116.717 4.49586   1
   7  -2  -2 115.378 3.84974   6
   7  -2  -2 108.843 4.23635   5
   7  -2  -2 123.169 4.58752   1
   7  -2  -2 122.518 6.75154   4
   7  -2  -2 113.483 4.28088   6
   7  -2  -2 118.634 4.41171   5
  -7   2   2 100.507 5.66602   3
   6  -2  -2 102.855 6.17164   4
   6  -2  -2 101.533 4.75278   6
   6  -2  -2 110.762 3.92840   1
   6  -2  -2 104.047 3.82095   5
   6  -2  -2 105.024 3.85130   1
   6  -2  -2 106.015 3.69918   6
   6  -2  -2 108.513 3.99364   5
  -6   2   2 108.487 5.22651   3
   5  -2  -2 40.0092 2.00838   6
   5  -2  -2 41.0595 1.93284   1
   5  -2  -2 37.4420 2.17919   5
   5  -2  -2 36.9603 2.07126   5
  -5   2   2 39.9755 1.94659   6
  -5   2   2 38.4107 3.17978   3
   4  -2  -2 32.4969 1.41615   1
   4  -2  -2 30.4941 1.85137   5
   4  -2  -2 30.6561 1.70971   6
   4  -2  -2 37.9100 2.78754   4
   4  -2  -2 30.6390 1.78958   5
   4  -2  -2 32.3238 1.98197   6
  -4   2   2 31.6659 1.50895   5
  -4   2   2 30.7035 1.76300   6
  -4   2   2 38.4771 2.73062   3
  -4   2   2 33.0350 1.56742   5
   3  -2  -2 39.5519 1.82661   6
   3  -2  -2 39.3701 1.89838   5
   3  -2  -2 39.0945 1.31724   1
   3  -2  -2 41.0505 2.32718   4
   3  -2  -2 36.0415 1.82771   5
   3  -2  -2 40.0989 2.00952   6
  -3   2   2 41.4409 2.60843   3
  -3   2   2 37.8775 1.77910   5
  -3   2   2 39.3609 1.78334   5
  -3   2   2 39.4685 1.93636   6
   2  -2  -2 147.709 4.77639   2
   2  -2  -2 143.833 4.01027   1
   2  -2  -2 145.472 4.54589   5
   2  -2  -2 140.434 4.62794   4
   2  -2  -2 138.836 4.55310   5
   2  -2  -2 142.172 4.49159   6
   2  -2  -2 148.335 4.68116   6
  -2   2   2 156.057 4.97613   3
  -2   2   2 138.696 4.62838   6
  -2   2   2 145.157 4.00606   1
  -2   2   2 146.919 4.54380   5
   1  -2  -2 969.160 24.1402   2
   1  -2  -2 874.036 23.8571   4
   1  -2  -2 859.248 23.6377   1
   1  -2  -2 873.192 23.9978   5
   1  -2  -2 857.907 24.0135   5
   1  -2  -2 880.301 24.1248   6
  -1   2   2 825.301 24.0672   5
  -1   2   2 859.264 23.8437   4
  -1   2   2 935.399 24.1126   3
  -1   2   2 841.242 23.6311   1
  -1   2   2 879.630 24.1346   6
  -1   2   2 910.238 24.0463   6
   0  -2  -2 136.715 4.38262   5
   0  -2  -2 134.617 4.35516   6
   0  -2  -2 139.598 4.04034   4
   0  -2  -2 153.636 4.59075   2
   0  -2  -2 142.108 4.46502   5
   0  -2  -2 143.998 4.54366   6
   0   2   2 131.143 4.56537   6
   0   2   2 142.898 4.44586   5
   0   2   2 139.466 4.42742   6
   0   2   2 152.308 4.41413   3
   0   2   2 141.932 4.26634   1
   0   2   2 141.203 4.46730   5
  -1  -2  -2 1059.18 29.2274   4
  -1  -2  -2 1088.48 29.7680   5
  -1  -2  -2 1054.31 29.6744   6
  -1  -2  -2 1182.19 29.9936   2
   1   2   2 1154.56 29.5916   3
   1   2   2 1058.30 29.2506   4
   1   2   2 1084.08 29.8219   1
   1   2   2 1081.52 29.8804   6
   1   2   2 1121.11 29.7896   5
   1   2   2 1116.85 29.7873   6
   1   2   2 1085.04 29.7963   5
  -2  -2  -2 1.92189 0.55674   5
  -2  -2  -2 2.01213 1.07223   2
  -2  -2  -2 2.07243 0.48585   6
  -2  -2  -2 2.10485 0.64833   6
  -2  -2  -2 2.04381 0.59832   5
   2   2   2 1.84674 0.61351   5
   2   2   2 1.95104 0.62230   5
   2   2   2 2.16024 0.80613   1
   2   2   2 1.75532 0.68071   6
   2   2   2 2.14497 0.50952   4
   2   2   2 1.95700 0.63641   6
  -3  -2  -2 14.0079 0.94999   6
  -3  -2  -2 12.3368 1.56910   2
  -3  -2  -2 13.5237 1.18566   6
  -3  -2  -2 14.9685 0.84256   5
  -3  -2  -2 15.7281 0.85682   5
   3   2   2 12.9617 1.42534   6
   3   2   2 10.6931 1.35672   1
   3   2   2 16.1400 1.26169   5
   3   2   2 15.8426 1.29411   6
   3   2   2 14.8297 0.94412   4
   3   2   2 12.6906 1.19340   4
   3   2   2 13.6683 1.27682   5
  -4  -2  -2 172.710 6.12401   2
   4   2   2 161.202 5.36492   4
   4   2   2 169.810 5.14699   6
   4   2   2 165.980 5.92758   1
   4   2   2 166.660 5.03236   4
   4   2   2 164.737 5.10798   5
   4   2   2 159.811 5.13886   5
   4   2   2 170.368 5.23964   6
  -5  -2  -2 8.00270 2.02202   2
   5   2   2 10.2153 1.12318   5
   5   2   2 8.75733 1.12290   5
   5   2   2 9.44196 1.20896   6
   5   2   2 6.05899 1.47392   4
   5   2   2 9.25062 2.06062   1
   5   2   2 7.31483 1.12507   4
  -6  -2  -2 56.6035 4.32570   2
   6   2   2 60.4972 5.20869   1
   6   2   2 57.2427 2.57290   5
   6   2   2 61.1365 4.49762   1
   6   2   2 53.2684 3.01288   4
   6   2   2 57.7099 3.88908   4
   6   2   2 55.2560 2.56521   5
  -7  -2  -2 17.7418 3.20178   2
   7   2   2 19.9999 1.51843   5
   7   2   2 20.2679 1.62752   5
   7   2   2 20.2139 3.53731   1
   7   2   2 19.0060 3.06401   4
   7   2   2 19.4361 2.09829   4
   7   2   2 14.1914 3.81258   1
  -8  -2  -2 26.3189 4.04879   2
   8   2   2 30.3029 4.76854   1
   8   2   2 30.1236 4.93227   4
   8   2   2 30.5178 2.88978   4
   9  -3  -2 155.314 6.20877   5
   9  -3  -2 144.848 7.14638   5
   9  -3  -2 138.615 5.07377   6
   9  -3  -2 154.598 5.98686   1
  -9   3   2 145.188 7.77048   3
   8  -3  -2 12.5739 1.69524   1
   8  -3  -2 18.4152 5.13515   4
   8  -3  -2 12.8026 2.16308   5
   8  -3  -2 13.0524 1.97799   5
   8  -3  -2 14.4166 1.73743   6
   8  -3  -2 12.0120 1.91932   1
   8  -3  -2 9.31246 2.24501   6
  -8   3   2 11.5669 2.92351   3
   7  -3  -2 69.8941 6.40925   4
   7  -3  -2 84.2760 3.84615   5
   7  -3  -2 83.4815 3.27595   1
   7  -3  -2 85.3508 4.06766   5
   7  -3  -2 87.8608 3.69026   6
   7  -3  -2 83.6759 3.26361   1
   7  -3  -2 84.0372 4.13324   6
  -7   3   2 82.5958 5.20891   3
   6  -3  -2 31.2690 1.70687   1
   6  -3  -2 23.4381 2.06895   5
   6  -3  -2 31.6221 2.34117   6
   6  -3  -2 25.4293 3.05209   4
   6  -3  -2 27.6150 1.67274   1
   6  -3  -2 28.6490 2.36418   5
   6  -3  -2 28.1012 2.70197   6
  -6   3   2 26.4366 3.13541   3
  -6   3   2 26.5946 2.08663   6
   5  -3  -2 5.31779 1.25965   5
   5  -3  -2 3.66837 1.36017   6
   5  -3  -2 1.53994 0.99844   6
   5  -3  -2 3.39448 0.54851   1
   5  -3  -2 2.97788 1.82386   4
   5  -3  -2 2.75231 1.01137   5
  -5   3   2 3.88778 1.99891   3
  -5   3   2 2.54695 0.88947   5
  -5   3   2 4.04086 0.91990   5
  -5   3   2 3.71837 1.04314   6
   4  -3  -2 19.2631 2.00069   4
   4  -3  -2 17.4342 1.68852   6
   4  -3  -2 17.9740 1.83535   5
   4  -3  -2 17.0658 1.72768   5
   4  -3  -2 14.9163 1.86693   2
   4  -3  -2 16.0994 1.66108   6
  -4   3   2 18.5393 2.13033   3
  -4   3   2 18.7515 1.64308   5
  -4   3   2 18.0023 1.77065   6
  -4   3   2 19.0039 1.71631   5
   3  -3  -2 13.2426 1.44957   4
   3  -3  -2 18.6230 1.60079   6
   3  -3  -2 15.3424 1.75823   2
   3  -3  -2 17.4421 1.72715   5
   3  -3  -2 17.7994 1.80360   6
   3  -3  -2 17.7901 1.57706   5
  -3   3   2 17.4436 1.62888   5
  -3   3   2 18.4771 1.79357   6
  -3   3   2 17.5729 1.97046   3
  -3   3   2 17.6696 1.55729   5
   2  -3  -2 17.3200 1.77309   2
   2  -3  -2 16.5921 1.53176   6
   2  -3  -2 16.7721 1.67547   5
   2  -3  -2 14.1710 1.31480   4
   2  -3  -2 18.9497 1.52196   5
  -2   3   2 16.8935 0.73096   1
  -2   3   2 16.2579 1.54722   4
  -2   3   2 15.8351 1.64091   6
  -2   3   2 14.6416 1.51763   5
  -2   3   2 18.5735 1.61086   5
   1  -3  -2 52.4469 2.44552   5
   1  -3  -2 51.4130 2.49650   6
   1  -3  -2 52.5579 2.38088   5
   1  -3  -2 53.1467 2.36827   6
   1  -3  -2 54.0604 2.15010   4
   1  -3  -2 55.8875 2.51244   2
  -1   3   2 54.2433 1.91878   1
  -1   3   2 52.6098 2.49451   6
  -1   3   2 49.6590 2.18050   4
  -1   3   2 52.5595 2.39745   5
  -1   3   2 54.9282 2.45729   5
  -1   3   2 58.4314 2.69903   3
   0  -3  -2 82.6122 3.16991   2
   0  -3  -2 84.3978 2.60175   4
   0  -3  -2 82.3086 3.13722   5
   0  -3  -2 77.4232 3.16434   6
   0  -3  -2 81.9353 3.03824   6
   0   3   2 77.7469 3.08583   5
   0   3   2 80.1656 2.67109   4
   0   3   2 81.3650 3.28975   6
   0   3   2 81.7146 3.16158   6
   0   3   2 79.7802 2.82928   1
   0   3   2 79.9428 3.11515   5
   0   3   2 84.7084 3.17299   3
  -1  -3  -2 263.885 8.02937   6
  -1  -3  -2 275.070 7.51804   4
  -1  -3  -2 276.925 8.16325   5
   1   3   2 271.979 7.59005   4
   1   3   2 268.034 8.27261   6
   1   3   2 283.220 8.24848   6
   1   3   2 289.541 8.05398   3
   1   3   2 264.210 8.14582   5
   1   3   2 276.863 8.20994   5
  -2  -3  -2 0.90589 0.63520   6
  -2  -3  -2 1.19192 1.22566   6
  -2  -3  -2 -0.1797 0.55723   5
  -2  -3  -2 0.49430 0.73576   5
  -2  -3  -2 -1.7092 1.09662   2
   2   3   2 0.57488 0.38405   4
   2   3   2 0.76776 0.78046   6
   2   3   2 0.71283 0.73851   5
   2   3   2 0.56322 0.76386   5
   2   3   2 -0.0346 0.95896   3
   2   3   2 -0.0519 0.79475   6
  -3  -3  -2 0.94335 0.83327   6
  -3  -3  -2 0.72114 0.68235   5
  -3  -3  -2 0.04629 1.39705   2
  -3  -3  -2 0.61650 0.66195   5
  -3  -3  -2 0.41931 0.58199   6
   3   3   2 0.59641 0.50451   4
   3   3   2 -0.7845 0.80686   5
   3   3   2 0.84944 0.86348   5
   3   3   2 0.88107 0.93200   6
  -4  -3  -2 13.5880 2.20502   2
  -4  -3  -2 14.5286 1.14212   6
  -4  -3  -2 15.7300 1.42978   6
   4   3   2 14.9665 1.45261   5
   4   3   2 14.6598 1.27760   4
   4   3   2 17.5619 2.16417   1
   4   3   2 17.2696 1.73877   5
   4   3   2 14.1807 1.49525   6
   4   3   2 14.2148 1.36941   4
  -5  -3  -2 134.703 5.92376   2
   5   3   2 134.197 4.69553   5
   5   3   2 133.247 4.91120   4
   5   3   2 135.419 4.43096   4
   5   3   2 131.097 4.82908   6
   5   3   2 131.036 4.68580   5
   5   3   2 137.616 5.96096   1
   5   3   2 137.263 6.13362   1
  -6  -3  -2 1.93186 2.43432   2
   6   3   2 -2.7504 1.82013   4
   6   3   2 1.83790 1.29084   4
   6   3   2 2.13489 3.16342   1
   6   3   2 0.14296 1.25383   5
   6   3   2 0.24754 1.33849   5
   6   3   2 2.16466 2.65837   1
   6   3   2 0.10258 1.42189   6
  -7  -3  -2 74.7466 5.59120   2
   7   3   2 95.2881 6.65220   1
   7   3   2 72.0606 6.06640   1
   7   3   2 76.6408 3.73447   5
   7   3   2 78.0670 4.01965   4
   7   3   2 92.7799 6.37728   4
   7   3   2 74.0033 3.53775   5
  -8  -3  -2 33.4540 4.46626   2
   8   3   2 34.1461 5.31554   1
   8   3   2 33.2291 3.04249   4
   8   3   2 36.3866 3.01305   5
   9  -4  -2 5.88144 3.61775   2
   9  -4  -2 5.31194 2.76636   6
   9  -4  -2 7.38294 2.70209   5
   9  -4  -2 2.51728 2.88811   5
  -9   4   2 5.34635 3.51644   3
   8  -4  -2 52.2596 4.47737   5
   8  -4  -2 44.9534 4.21876   6
   8  -4  -2 48.2124 4.83920   2
   8  -4  -2 57.7506 4.13281   5
  -8   4   2 45.6173 4.62757   3
   7  -4  -2 45.2393 3.86904   5
   7  -4  -2 41.3671 3.35545   6
   7  -4  -2 47.7310 3.45890   5
   7  -4  -2 41.8739 4.15487   2
   7  -4  -2 47.5816 5.04216   4
   7  -4  -2 49.9761 4.19204   6
  -7   4   2 38.5355 4.05808   3
  -7   4   2 42.0604 2.86726   6
   6  -4  -2 175.248 7.66544   4
   6  -4  -2 161.130 6.15378   5
   6  -4  -2 175.739 6.11514   6
   6  -4  -2 176.284 6.41645   5
   6  -4  -2 165.318 6.50766   2
   6  -4  -2 170.127 6.44947   6
  -6   4   2 176.350 5.35743   5
  -6   4   2 174.876 5.32606   5
  -6   4   2 174.704 5.97932   6
  -6   4   2 162.102 7.04814   3
   5  -4  -2 211.650 7.18252   5
   5  -4  -2 210.301 7.01989   5
   5  -4  -2 214.602 7.31689   2
   5  -4  -2 210.931 7.21196   6
   5  -4  -2 212.963 6.96117   6
   5  -4  -2 219.024 7.85820   4
  -5   4   2 210.227 7.00183   6
  -5   4   2 207.874 6.65230   5
  -5   4   2 197.222 7.82333   3
  -5   4   2 208.348 6.67321   5
   4  -4  -2 81.8673 3.87880   6
   4  -4  -2 81.2112 3.76921   2
   4  -4  -2 78.5767 3.50023   6
   4  -4  -2 84.6874 3.61962   5
   4  -4  -2 83.0525 4.09195   4
   4  -4  -2 83.1443 3.69173   5
  -4   4   2 80.2588 3.45635   5
  -4   4   2 75.5568 3.68427   6
  -4   4   2 80.4399 3.72010   5
  -4   4   2 81.3185 4.31098   3
   3  -4  -2 63.9555 3.24309   4
   3  -4  -2 63.3603 3.05362   5
   3  -4  -2 64.3467 3.19577   2
   3  -4  -2 65.3989 3.27862   6
   3  -4  -2 62.7407 3.08747   5
   3  -4  -2 60.6175 2.94698   6
  -3   4   2 68.4520 3.25925   4
  -3   4   2 68.8979 3.19890   5
  -3   4   2 65.2711 3.69350   3
  -3   4   2 61.4740 3.22059   6
  -3   4   2 53.1771 4.01143   5
   2  -4  -2 49.7956 2.80178   5
   2  -4  -2 52.4631 2.60810   4
   2  -4  -2 52.8388 2.91045   6
   2  -4  -2 50.7804 2.66681   6
   2  -4  -2 54.3298 2.69809   5
  -2   4   2 51.1032 1.78594   1
  -2   4   2 51.2240 1.75867   1
  -2   4   2 50.5078 3.07168   3
  -2   4   2 53.4635 2.87066   6
  -2   4   2 53.6304 2.71196   4
  -2   4   2 54.8635 2.83166   5
  -2   4   2 54.7371 2.82474   5
   1  -4  -2 44.5613 3.01056   2
   1  -4  -2 48.6848 2.58155   5
   1  -4  -2 48.3643 2.63782   5
   1  -4  -2 47.6469 2.73107   6
   1  -4  -2 51.2115 2.23593   4
   1  -4  -2 46.2355 2.51068   6
  -1   4   2 49.0846 2.63369   5
  -1   4   2 45.8637 1.96152   1
  -1   4   2 49.7676 2.73732   6
  -1   4   2 46.1457 2.78921   3
  -1   4   2 47.0303 2.26815   4
  -1   4   2 47.9730 2.63147   5
  -1   4   2 48.3754 2.01281   1
   0  -4  -2 253.877 7.30864   4
   0  -4  -2 257.062 8.05577   2
   0  -4  -2 253.483 8.07533   6
   0  -4  -2 254.028 7.97323   5
   0  -4  -2 249.733 7.87431   6
   0  -4  -2 259.232 7.88958   5
   0   4   2 249.166 7.44081   4
   0   4   2 260.833 8.12997   6
   0   4   2 258.976 7.99937   5
   0   4   2 260.198 8.02274   5
  -1  -4  -2 110.356 4.17621   5
  -1  -4  -2 106.212 4.10719   5
  -1  -4  -2 115.208 4.26388   6
  -1  -4  -2 106.178 4.37136   2
  -1  -4  -2 104.687 3.96172   6
  -1  -4  -2 113.322 3.34523   4
   1   4   2 108.007 4.14291   5
   1   4   2 111.106 4.19999   5
   1   4   2 107.549 4.26164   6
   1   4   2 106.287 3.44955   4
   1   4   2 112.200 4.19037   3
  -2  -4  -2 407.480 12.1921   6
  -2  -4  -2 436.111 12.1924   5
  -2  -4  -2 399.365 12.7030   2
  -2  -4  -2 436.829 11.6722   4
  -2  -4  -2 434.613 12.4815   6
  -2  -4  -2 434.327 12.2997   5
   2   4   2 429.601 12.5974   6
   2   4   2 418.378 11.7062   4
   2   4   2 424.081 12.3202   3
   2   4   2 427.125 12.4580   5
   2   4   2 425.752 12.4865   5
  -3  -4  -2 1.22714 0.90707   5
  -3  -4  -2 0.90076 1.07611   6
  -3  -4  -2 0.75836 0.86716   5
  -3  -4  -2 -0.3520 0.84328   6
  -3  -4  -2 -0.5350 1.52578   2
   3   4   2 -0.7649 1.28620   3
   3   4   2 -0.1298 0.61222   4
   3   4   2 1.36842 1.10499   5
   3   4   2 2.09698 1.27514   6
   3   4   2 0.34473 1.07457   5
   3   4   2 1.40161 1.65891   1
  -4  -4  -2 1.88561 0.82328   6
  -4  -4  -2 -0.2142 1.01766   6
  -4  -4  -2 0.09548 1.79622   2
   4   4   2 -0.2965 1.34193   6
   4   4   2 -0.2464 1.16358   5
   4   4   2 3.41843 2.27841   1
   4   4   2 -0.7166 1.24229   5
   4   4   2 -0.2216 0.76467   4
  -5  -4  -2 71.9412 4.81819   2
  -5  -4  -2 78.7490 2.52418   6
   5   4   2 75.8181 3.79009   5
   5   4   2 71.7797 3.93585   6
   5   4   2 76.9161 3.05301   4
   5   4   2 65.0248 4.64047   5
   5   4   2 64.5637 5.71782   1
   5   4   2 66.0249 5.48818   1
   5   4   2 72.5104 3.58953   4
  -6  -4  -2 2.53973 2.57511   2
   6   4   2 5.81665 3.90288   1
   6   4   2 3.19299 1.87750   6
   6   4   2 1.03860 3.15587   1
   6   4   2 3.21637 2.05408   4
   6   4   2 2.23949 1.77162   5
   6   4   2 4.92510 1.81476   5
   6   4   2 4.44760 1.51631   4
  -7  -4  -2 20.3922 3.71511   2
   7   4   2 26.7714 2.45943   6
   7   4   2 28.0315 2.36230   4
   7   4   2 28.3648 4.52363   1
   7   4   2 24.9715 2.62940   5
   7   4   2 23.4593 2.45409   5
   8   4   2 5.38984 2.46001   5
   8   4   2 2.66249 5.93752   1
   8   4   2 9.27599 2.30397   5
   9  -5  -2 11.7822 3.59657   2
   9  -5  -2 5.01647 3.21830   5
  -9   5   2 7.66123 3.84678   3
   8  -5  -2 192.939 7.89182   6
   8  -5  -2 191.215 7.75924   5
   8  -5  -2 197.375 7.98846   5
   8  -5  -2 193.752 7.91525   2
  -8   5   2 189.312 8.96767   3
  -8   5   2 195.223 6.50117   6
   7  -5  -2 15.6475 2.45362   5
   7  -5  -2 13.5747 2.76765   2
   7  -5  -2 13.4040 4.40224   4
   7  -5  -2 13.1631 2.80084   6
   7  -5  -2 16.6807 2.36876   6
   7  -5  -2 20.2981 2.79313   5
  -7   5   2 15.9333 3.15427   3
  -7   5   2 15.7940 2.27224   6
   6  -5  -2 46.5849 4.35413   6
   6  -5  -2 46.8358 4.14284   4
   6  -5  -2 52.7906 3.80772   2
   6  -5  -2 38.0292 4.79712   5
   6  -5  -2 41.1612 4.08734   5
   6  -5  -2 45.3231 3.54902   6
  -6   5   2 54.6338 3.21230   5
  -6   5   2 51.0611 4.50853   3
  -6   5   2 45.8518 3.19668   5
  -6   5   2 47.2369 3.65911   6
   5  -5  -2 37.0263 3.50805   6
   5  -5  -2 35.6511 3.37047   5
   5  -5  -2 40.3473 3.02829   6
   5  -5  -2 34.3946 3.17667   5
   5  -5  -2 35.9977 3.03997   2
   5  -5  -2 38.7043 3.41323   4
  -5   5   2 36.6107 2.90891   5
  -5   5   2 38.2829 3.30269   6
  -5   5   2 38.8487 3.14655   5
  -5   5   2 28.9797 3.28636   3
   4  -5  -2 20.6779 2.42097   6
   4  -5  -2 23.9609 2.51403   4
   4  -5  -2 18.1446 2.05997   6
   4  -5  -2 12.2607 1.80632   5
   4  -5  -2 18.6632 2.12350   5
   4  -5  -2 16.7276 2.06343   2
  -4   5   2 21.9971 2.39186   6
  -4   5   2 21.1524 2.41902   4
  -4   5   2 15.9168 1.91624   5
  -4   5   2 19.3659 2.05870   5
  -4   5   2 19.3696 2.80394   3
   3  -5  -2 1.32436 1.47386   4
   3  -5  -2 2.32843 1.54168   6
   3  -5  -2 3.09117 1.30798   6
   3  -5  -2 2.16048 1.40740   2
   3  -5  -2 1.34793 1.41484   5
   3  -5  -2 0.74512 1.11022   5
  -3   5   2 0.36844 1.40662   5
  -3   5   2 1.39490 1.35307   6
  -3   5   2 1.68281 1.57295   5
  -3   5   2 2.31086 1.45969   4
  -3   5   2 1.18233 1.63793   3
   2  -5  -2 0.26691 1.16089   5
   2  -5  -2 1.08136 1.02272   6
   2  -5  -2 0.48405 1.08630   4
   2  -5  -2 1.81452 1.58830   6
   2  -5  -2 1.95131 1.27886   5
   2  -5  -2 1.25305 1.34524   2
  -2   5   2 1.31536 1.29443   5
  -2   5   2 1.46820 1.62551   3
  -2   5   2 0.97929 0.64411   1
  -2   5   2 0.17673 1.37657   5
  -2   5   2 1.60997 0.63672   1
  -2   5   2 1.52935 1.15282   4
  -2   5   2 2.20155 1.43710   6
   1  -5  -2 27.6504 2.72487   6
   1  -5  -2 25.0420 2.34225   6
   1  -5  -2 22.5031 1.92478   4
   1  -5  -2 20.5766 2.01039   5
   1  -5  -2 17.8348 1.87001   5
   1  -5  -2 26.1409 2.47926   2
  -1   5   2 25.7128 2.56126   3
  -1   5   2 22.9982 2.56148   6
  -1   5   2 26.4704 2.30847   5
  -1   5   2 24.1168 1.71915   1
  -1   5   2 26.7512 2.54885   5
  -1   5   2 23.8865 2.03481   4
   0  -5  -2 40.6093 1.98049   4
   0  -5  -2 38.9392 2.97055   5
   0  -5  -2 39.0697 2.86314   6
   0  -5  -2 47.0322 2.81171   6
   0  -5  -2 40.5206 2.78344   5
   0  -5  -2 38.8977 2.71831   2
   0   5   2 44.2272 3.07589   6
   0   5   2 41.4752 2.91304   3
   0   5   2 43.7320 2.26658   4
   0   5   2 39.6057 2.87177   5
   0   5   2 40.4912 2.43866   1
   0   5   2 41.2430 2.80508   5
  -1  -5  -2 54.0374 3.29813   2
  -1  -5  -2 48.4947 3.13304   5
  -1  -5  -2 55.8634 2.88256   5
  -1  -5  -2 52.2225 2.11447   4
  -1  -5  -2 50.2640 2.92599   6
  -1  -5  -2 55.2797 3.16400   6
   1   5   2 52.3236 3.22342   3
   1   5   2 51.7952 3.12794   5
   1   5   2 55.7345 3.02496   1
   1   5   2 53.8681 3.25542   5
   1   5   2 50.8603 2.32058   4
  -2  -5  -2 87.6815 3.70143   6
  -2  -5  -2 88.1641 3.65602   5
  -2  -5  -2 87.6819 2.94533   4
  -2  -5  -2 92.4112 3.99403   5
  -2  -5  -2 87.5625 4.08836   6
  -2  -5  -2 89.4359 4.40375   2
   2   5   2 78.4951 4.77831   1
   2   5   2 85.8065 4.11779   5
   2   5   2 92.7852 4.07238   3
   2   5   2 86.5912 4.26317   6
   2   5   2 89.5506 3.15190   4
   2   5   2 86.6009 4.04348   5
  -3  -5  -2 2.38016 1.11540   6
  -3  -5  -2 1.46925 1.06262   5
  -3  -5  -2 2.18139 1.76166   2
  -3  -5  -2 1.46837 1.35629   6
  -3  -5  -2 1.35984 1.22232   5
   3   5   2 2.20795 1.74983   3
   3   5   2 -0.2721 1.49958   6
   3   5   2 2.40652 0.89637   4
   3   5   2 1.30368 1.45097   5
   3   5   2 0.44538 1.41047   5
   3   5   2 1.74264 1.96446   1
  -4  -5  -2 9.93425 1.33011   6
  -4  -5  -2 10.3243 1.33780   5
  -4  -5  -2 9.78333 1.68774   6
  -4  -5  -2 9.55159 2.44655   2
  -4  -5  -2 11.0642 1.18598   5
   4   5   2 10.6689 1.25623   4
   4   5   2 9.11455 2.06593   6
   4   5   2 13.2425 2.24318   3
   4   5   2 11.9030 2.06813   5
   4   5   2 8.00877 1.79922   5
   4   5   2 12.0058 2.86312   1
  -5  -5  -2 13.3990 3.08497   2
  -5  -5  -2 14.2291 1.49859   6
  -5  -5  -2 14.1545 1.27910   6
   5   5   2 12.1956 2.40029   5
   5   5   2 14.4918 2.37037   6
   5   5   2 16.7522 2.55256   3
   5   5   2 15.2801 3.78271   1
   5   5   2 14.4370 1.52028   4
   5   5   2 12.9018 2.19147   5
   5   5   2 16.3389 3.34176   1
  -6  -5  -2 74.1218 5.82356   2
   6   5   2 72.3356 5.73161   1
   6   5   2 79.7315 4.72135   3
   6   5   2 79.5228 4.87903   5
   6   5   2 75.7589 3.62328   4
   6   5   2 76.6153 4.98414   4
   6   5   2 81.0145 5.23965   6
   6   5   2 83.2367 4.86088   5
  -7  -5  -2 2.00139 3.53938   2
   7   5   2 -1.7629 4.56977   1
   7   5   2 -0.2155 2.48860   3
   7   5   2 -3.6169 2.60641   5
   7   5   2 1.30042 2.05508   4
   7   5   2 2.34124 2.58074   5
   7   5   2 -0.5354 3.46563   6
   8  -6  -2 5.19485 3.81788   5
   8  -6  -2 9.78914 3.14797   2
   8  -6  -2 7.44607 3.00460   5
  -8   6   2 3.44917 2.60170   6
  -8   6   2 6.82495 3.70930   3
   7  -6  -2 79.1511 4.95050   2
   7  -6  -2 75.4580 5.48793   5
   7  -6  -2 92.4877 6.23015   5
   7  -6  -2 87.1830 5.77726   6
  -7   6   2 85.1644 5.21916   6
  -7   6   2 80.0659 5.93742   3
  -7   6   2 87.5785 4.32608   5
  -7   6   2 77.5121 4.67516   5
   6  -6  -2 36.8471 3.74842   6
   6  -6  -2 32.1012 3.21268   5
   6  -6  -2 29.1726 4.32555   4
   6  -6  -2 33.3199 3.03397   2
   6  -6  -2 32.2786 3.29715   5
   6  -6  -2 30.0279 3.36817   6
  -6   6   2 31.2114 2.93811   5
  -6   6   2 31.4205 3.15038   6
  -6   6   2 32.6046 2.81686   5
  -6   6   2 21.6664 3.36921   3
   5  -6  -2 192.198 7.86282   4
   5  -6  -2 195.948 7.15902   6
   5  -6  -2 183.907 7.23727   5
   5  -6  -2 193.351 7.77977   6
   5  -6  -2 172.297 6.67052   2
   5  -6  -2 190.783 7.49883   5
  -5   6   2 184.231 7.15532   5
  -5   6   2 189.388 7.40594   6
  -5   6   2 192.289 6.94037   5
  -5   6   2 179.934 7.65615   4
  -5   6   2 174.540 7.73359   3
   4  -6  -2 201.481 7.69829   5
   4  -6  -2 199.462 7.57169   6
   4  -6  -2 206.928 7.63552   4
   4  -6  -2 209.366 7.81335   6
   4  -6  -2 191.431 7.01558   2
   4  -6  -2 206.994 7.49954   5
  -4   6   2 205.250 7.63244   5
  -4   6   2 189.916 7.96124   3
  -4   6   2 203.071 7.61074   4
  -4   6   2 199.175 7.66596   6
  -4   6   2 212.887 7.68534   5
   3  -6  -2 61.6635 3.75697   6
   3  -6  -2 64.1095 3.60419   2
   3  -6  -2 64.1332 4.28017   5
   3  -6  -2 62.3207 3.87792   4
   3  -6  -2 60.7056 3.90485   5
   3  -6  -2 64.0500 4.13496   6
  -3   6   2 56.7458 4.21501   5
  -3   6   2 60.3002 4.08208   6
  -3   6   2 56.8192 3.86252   4
  -3   6   2 61.6127 4.06415   3
  -3   6   2 62.4232 4.12911   5
   2  -6  -2 43.6649 3.74239   5
   2  -6  -2 46.2860 3.55088   6
   2  -6  -2 41.7698 3.10726   2
   2  -6  -2 44.5051 3.26583   6
   2  -6  -2 46.5318 3.34148   5
   2  -6  -2 47.4385 3.03580   4
  -2   6   2 37.3992 3.61342   3
  -2   6   2 44.2205 2.12772   1
  -2   6   2 48.3451 3.61949   6
  -2   6   2 45.3880 3.85281   5
  -2   6   2 41.7570 3.51000   5
  -2   6   2 43.6779 2.16377   1
  -2   6   2 40.6014 3.07930   4
   1  -6  -2 55.6754 2.83637   4
   1  -6  -2 52.9636 3.37605   2
   1  -6  -2 48.2484 3.37622   6
   1  -6  -2 48.7997 3.55527   5
   1  -6  -2 49.4969 3.71892   6
   1  -6  -2 60.5034 3.87845   5
  -1   6   2 50.8778 2.96954   4
  -1   6   2 56.9839 3.83988   5
  -1   6   2 54.1066 2.72953   1
  -1   6   2 48.8871 3.81228   6
  -1   6   2 47.1098 3.59934   5
  -1   6   2 48.7502 3.58954   3
   0  -6  -2 23.2727 2.36603   5
   0  -6  -2 24.5228 2.72054   6
   0  -6  -2 24.8031 2.66927   2
   0  -6  -2 29.8786 2.75924   6
   0  -6  -2 25.7923 2.59414   5
   0  -6  -2 24.3398 1.93491   4
   0   6   2 20.4346 2.42580   6
   0   6   2 17.2042 2.12584   5
   0   6   2 16.9365 2.12249   5
   0   6   2 24.5163 2.12270   4
   0   6   2 23.6768 1.96042   1
   0   6   2 27.3753 2.70119   3
  -1  -6  -2 44.0335 3.18811   6
  -1  -6  -2 44.8356 3.63458   5
  -1  -6  -2 46.5699 3.63787   6
  -1  -6  -2 41.0676 3.43356   2
  -1  -6  -2 43.4385 2.25451   4
  -1  -6  -2 49.3417 3.33825   5
   1   6   2 43.2816 3.79577   6
   1   6   2 47.1313 2.62986   4
   1   6   2 49.7371 3.77477   5
   1   6   2 49.4244 3.51975   3
   1   6   2 53.5383 3.75390   5
   1   6   2 43.6460 3.91174   1
  -2  -6  -2 123.377 4.74641   5
  -2  -6  -2 113.947 3.83280   4
  -2  -6  -2 98.7177 5.23046   2
  -2  -6  -2 111.896 5.03176   5
  -2  -6  -2 105.264 4.72857   6
  -2  -6  -2 119.614 5.19709   6
   2   6   2 127.522 5.33120   1
   2   6   2 114.554 5.45628   6
   2   6   2 115.794 5.34621   5
   2   6   2 113.913 4.09392   4
   2   6   2 112.580 5.27192   5
   2   6   2 104.617 5.00927   3
  -3  -6  -2 124.505 5.59633   6
  -3  -6  -2 124.604 4.25274   4
  -3  -6  -2 122.071 4.97757   6
  -3  -6  -2 118.508 5.87181   2
  -3  -6  -2 132.810 4.87990   5
  -3  -6  -2 131.436 5.24960   5
   3   6   2 127.904 5.89642   6
   3   6   2 129.824 6.19842   1
   3   6   2 122.791 5.71035   5
   3   6   2 118.991 5.66177   5
   3   6   2 122.947 5.38368   3
   3   6   2 129.402 4.42412   4
  -4  -6  -2 1.29265 1.79143   6
  -4  -6  -2 -1.4314 1.28457   6
  -4  -6  -2 1.06435 1.30176   5
  -4  -6  -2 0.92724 2.47162   2
   4   6   2 1.64747 1.22594   4
   4   6   2 0.53450 2.33029   6
   4   6   2 5.91825 3.24908   1
   4   6   2 0.01953 2.13401   3
   4   6   2 -1.4653 1.98239   5
   4   6   2 0.98164 2.25397   5
  -5  -6  -2 0.22273 2.56675   2
  -5  -6  -2 0.66797 1.67230   6
  -5  -6  -2 2.79482 1.44455   6
   5   6   2 1.58124 3.43405   1
   5   6   2 3.07312 2.47024   5
   5   6   2 1.24324 2.46653   3
   5   6   2 0.52181 2.35195   5
   5   6   2 0.15658 2.81511   6
   5   6   2 0.38836 1.48648   4
  -6  -6  -2 31.4304 4.44283   2
   6   6   2 27.4715 5.37918   1
   6   6   2 38.1166 4.54007   6
   6   6   2 35.9635 3.95916   4
   6   6   2 39.7466 3.76657   3
   6   6   2 34.6537 3.28717   4
   6   6   2 32.8920 3.62248   5
   6   6   2 36.8635 3.69872   5
   8  -7  -2 9.35579 3.32082   2
   8  -7  -2 10.0479 3.89236   5
  -8   7   2 8.24402 3.54661   6
  -8   7   2 7.55847 4.04681   3
   7  -7  -2 170.647 7.14722   2
   7  -7  -2 163.379 9.00558   5
   7  -7  -2 168.040 8.18697   5
   7  -7  -2 167.136 8.42486   6
  -7   7   2 171.221 7.96794   6
   6  -7  -2 23.9648 3.71858   5
   6  -7  -2 26.9316 3.48989   5
   6  -7  -2 24.0762 3.99071   6
   6  -7  -2 23.9740 4.55552   4
   6  -7  -2 19.0717 2.87082   6
   6  -7  -2 26.8929 2.98883   2
  -6   7   2 22.0618 3.44383   6
  -6   7   2 28.2977 3.21810   5
  -6   7   2 20.8160 3.62460   3
  -6   7   2 22.7414 3.44581   5
   5  -7  -2 10.9837 3.26654   4
   5  -7  -2 7.89859 3.07812   6
   5  -7  -2 7.80633 2.35596   2
   5  -7  -2 8.34221 3.82323   6
   5  -7  -2 13.8902 2.88910   5
  -5   7   2 7.95358 2.38755   5
  -5   7   2 10.5992 3.24045   3
  -5   7   2 10.5742 2.97725   5
  -5   7   2 11.5304 3.08026   4
  -5   7   2 8.62245 2.64764   6
   4  -7  -2 43.0490 3.74267   4
   4  -7  -2 48.3066 4.20216   6
   4  -7  -2 34.2869 3.37245   2
   4  -7  -2 36.6171 3.52070   5
   4  -7  -2 42.4890 4.15187   6
   4  -7  -2 46.4010 4.36138   5
  -4   7   2 34.0418 3.40721   4
  -4   7   2 34.9486 3.84108   3
  -4   7   2 30.8895 3.20913   5
  -4   7   2 44.9588 4.55712   6
  -4   7   2 47.5737 5.00964   5
   3  -7  -2 30.0488 3.31501   2
   3  -7  -2 38.9189 3.03554   4
   3  -7  -2 37.0395 3.33682   5
   3  -7  -2 34.4706 3.27614   6
   3  -7  -2 27.7913 3.20818   6
   3  -7  -2 30.0447 3.36161   5
  -3   7   2 39.3133 3.66844   5
  -3   7   2 33.0203 1.63112   1
  -3   7   2 34.0480 3.77300   3
  -3   7   2 34.8655 1.79852   1
  -3   7   2 32.9969 3.09774   4
  -3   7   2 38.2300 3.71538   6
  -3   7   2 28.1655 3.05983   5
   2  -7  -2 2.99047 1.77263   6
   2  -7  -2 0.92553 2.03916   5
   2  -7  -2 0.86399 2.49430   5
   2  -7  -2 0.74885 2.40104   6
   2  -7  -2 1.03194 1.71028   2
   2  -7  -2 2.92085 1.52171   4
  -2   7   2 1.58150 2.22726   5
  -2   7   2 3.02419 2.26067   5
  -2   7   2 2.36261 1.15815   1
  -2   7   2 1.04693 1.95121   6
  -2   7   2 1.38176 2.14919   3
  -2   7   2 3.25390 1.22186   1
  -2   7   2 1.78424 1.75663   4
   1  -7  -2 4.95489 2.22332   6
   1  -7  -2 5.33161 1.86365   5
   1  -7  -2 3.02860 2.12736   5
   1  -7  -2 6.35719 2.10369   6
   1  -7  -2 4.82895 1.43865   4
   1  -7  -2 5.00669 2.07840   2
  -1   7   2 0.49546 2.18022   5
  -1   7   2 6.51263 2.44854   3
  -1   7   2 5.10889 2.29248   5
  -1   7   2 6.19916 1.54193   1
  -1   7   2 4.67915 1.66102   4
  -1   7   2 5.37365 2.43272   6
   0  -7  -2 19.4570 2.64193   5
   0  -7  -2 14.9333 2.20520   6
   0  -7  -2 16.6698 2.50017   6
   0  -7  -2 22.6906 1.79003   4
   0  -7  -2 16.9811 2.52534   2
   0  -7  -2 17.5482 2.21725   5
   0   7   2 23.2759 2.06836   4
   0   7   2 22.8209 3.11133   5
   0   7   2 20.0060 2.86725   5
   0   7   2 11.3032 2.35412   6
   0   7   2 16.9365 2.72992   3
   0   7   2 18.6907 2.11141   1
  -1  -7  -2 16.7373 2.46646   5
  -1  -7  -2 12.8300 2.57228   2
  -1  -7  -2 12.4276 2.36496   6
  -1  -7  -2 15.0873 2.19538   6
  -1  -7  -2 11.8723 1.37132   4
  -1  -7  -2 13.1129 2.45033   5
   1   7   2 11.8316 2.38886   1
   1   7   2 9.72895 1.68304   4
   1   7   2 15.6157 2.77608   6
   1   7   2 10.7765 2.59330   3
   1   7   2 10.8253 2.40693   5
   1   7   2 18.3534 2.93753   5
  -2  -7  -2 29.2012 3.19066   2
  -2  -7  -2 36.2617 3.32949   5
  -2  -7  -2 32.8540 3.57254   6
  -2  -7  -2 34.2026 3.46239   5
  -2  -7  -2 39.5203 2.38628   4
  -2  -7  -2 23.4989 3.62508   6
   2   7   2 29.6474 3.26364   6
   2   7   2 38.8891 3.39120   1
   2   7   2 31.5456 3.12959   5
   2   7   2 30.4888 3.18438   3
   2   7   2 36.8962 3.53531   5
   2   7   2 44.3639 2.92680   4
  -3  -7  -2 33.5677 3.45811   5
  -3  -7  -2 33.3088 3.20357   6
  -3  -7  -2 22.9449 3.17120   2
  -3  -7  -2 32.3269 3.06020   5
  -3  -7  -2 32.2437 2.54725   4
  -3  -7  -2 31.1698 2.76504   6
   3   7   2 33.8421 3.57072   5
   3   7   2 37.2061 3.54134   3
   3   7   2 33.3796 4.00770   1
   3   7   2 33.4812 3.43535   6
   3   7   2 29.8236 3.14438   5
   3   7   2 34.6756 2.92709   4
  -4  -7  -2 2.23734 2.32230   6
  -4  -7  -2 -2.5112 2.08291   5
  -4  -7  -2 -1.6685 1.76309   6
  -4  -7  -2 1.35748 2.09958   5
  -4  -7  -2 0.83942 2.81529   2
   4   7   2 3.69789 4.23504   1
   4   7   2 3.38002 3.11678   6
   4   7   2 -0.4837 2.44644   3
   4   7   2 0.29975 2.68102   5
   4   7   2 2.35100 1.68149   4
   4   7   2 0.93662 3.34033   1
  -5  -7  -2 9.11139 1.96588   6
  -5  -7  -2 3.50208 2.90578   2
  -5  -7  -2 9.21057 2.38243   6
   5   7   2 3.91533 3.28125   5
   5   7   2 13.9954 3.40793   5
   5   7   2 12.8638 4.51439   6
   5   7   2 10.0854 3.36241   3
   5   7   2 9.43054 2.04451   4
   5   7   2 5.61082 4.15760   1
  -6  -7  -2 4.43969 3.54612   2
   6   7   2 2.41573 5.75444   1
   6   7   2 8.93473 4.04293   5
   6   7   2 13.0546 3.53040   3
   7  -8  -2 8.47357 4.30969   5
   7  -8  -2 8.49348 3.02235   2
  -7   8   2 7.62578 3.92623   6
  -7   8   2 6.30819 3.58039   3
   6  -8  -2 92.1790 8.36345   5
   6  -8  -2 90.1270 7.49065   6
   6  -8  -2 100.428 7.53154   5
   6  -8  -2 99.6230 5.63637   2
  -6   8   2 95.8297 6.93517   3
  -6   8   2 111.264 6.91219   5
  -6   8   2 103.843 7.52830   6
   5  -8  -2 22.3974 3.55314   6
   5  -8  -2 14.0456 3.68540   5
   5  -8  -2 21.5416 4.15733   5
   5  -8  -2 12.4851 3.82375   6
   5  -8  -2 14.9791 2.89813   2
   5  -8  -2 13.6921 3.97520   4
  -5   8   2 13.1187 3.45722   3
  -5   8   2 15.8168 3.62794   6
  -5   8   2 13.5635 3.91810   5
  -5   8   2 24.2739 4.15223   4
   4  -8  -2 124.365 6.87797   6
   4  -8  -2 127.506 7.60070   5
   4  -8  -2 129.901 7.04468   5
   4  -8  -2 123.822 6.86876   4
   4  -8  -2 138.575 7.91506   6
   4  -8  -2 130.474 5.93319   2
  -4   8   2 128.536 7.56455   5
  -4   8   2 122.659 6.90577   4
  -4   8   2 126.452 7.42157   5
  -4   8   2 113.012 7.85034   6
  -4   8   2 115.167 6.65927   3
   3  -8  -2 124.724 6.64134   5
   3  -8  -2 127.287 6.54356   6
   3  -8  -2 105.592 6.92797   6
   3  -8  -2 108.919 7.18668   5
   3  -8  -2 122.665 5.95275   4
   3  -8  -2 115.960 5.53393   2
  -3   8   2 123.824 4.01408   1
  -3   8   2 113.036 6.41710   3
  -3   8   2 116.851 6.35682   4
  -3   8   2 123.394 4.08721   1
  -3   8   2 124.355 6.94005   6
  -3   8   2 117.526 7.34661   5
  -3   8   2 124.677 7.07147   5
   2  -8  -2 22.6910 3.43261   6
   2  -8  -2 17.3392 4.05480   5
   2  -8  -2 17.4345 2.37066   4
   2  -8  -2 18.4697 3.12662   6
   2  -8  -2 16.3864 2.94369   5
   2  -8  -2 21.9802 2.89938   2
  -2   8   2 19.9845 3.21812   3
  -2   8   2 16.2079 2.69591   4
  -2   8   2 18.7866 3.61635   5
  -2   8   2 19.3774 1.89809   1
  -2   8   2 19.8650 3.51769   5
  -2   8   2 19.2314 1.99947   1
  -2   8   2 19.6910 3.59110   6
   1  -8  -2 29.9139 3.63103   6
   1  -8  -2 33.4006 3.95127   5
   1  -8  -2 20.5424 2.84703   6
   1  -8  -2 23.3838 2.89128   2
   1  -8  -2 21.2323 3.05543   5
   1  -8  -2 23.8477 2.30656   4
  -1   8   2 26.2747 3.39055   5
  -1   8   2 31.1085 2.57442   1
  -1   8   2 29.8011 2.83391   4
  -1   8   2 25.3453 3.44879   3
  -1   8   2 32.6289 3.99026   6
  -1   8   2 24.1217 2.38412   1
  -1   8   2 24.7975 3.62897   5
   0  -8  -2 43.6657 3.79953   6
   0  -8  -2 48.4130 4.22138   6
   0  -8  -2 36.3553 3.56003   4
   0  -8  -2 34.3915 3.76292   5
   0  -8  -2 42.1941 3.78252   5
   0  -8  -2 38.0621 3.71056   2
   0   8   2 40.2260 4.30023   6
   0   8   2 39.5253 4.27811   5
   0   8   2 38.7152 3.76404   4
   0   8   2 35.0096 3.66049   3
   0   8   2 30.2755 3.45623   5
   0   8   2 41.2762 4.05320   1
  -1  -8  -2 24.3064 3.44106   6
  -1  -8  -2 22.2849 1.97370   4
  -1  -8  -2 27.0918 3.83896   5
  -1  -8  -2 18.5896 2.99531   5
  -1  -8  -2 20.0114 3.11707   2
  -1  -8  -2 19.6900 3.71858   6
   1   8   2 18.0483 3.02696   1
   1   8   2 21.0363 2.46524   4
   1   8   2 19.6895 3.73324   6
   1   8   2 19.5735 3.34035   5
   1   8   2 20.8540 4.10542   5
   1   8   2 20.5066 3.17302   3
  -2  -8  -2 -0.9718 2.12197   2
  -2  -8  -2 -0.6678 2.31951   6
  -2  -8  -2 0.28081 2.78316   5
  -2  -8  -2 2.29857 1.55868   4
  -2  -8  -2 -1.0978 2.23646   5
   2   8   2 -0.4427 2.34585   3
   2   8   2 3.75336 3.13936   5
   2   8   2 0.23655 3.15099   6
   2   8   2 0.43387 3.08110   1
   2   8   2 -2.9084 1.77966   4
   2   8   2 1.50540 3.12377   5
  -3  -8  -2 87.9096 5.52056   6
  -3  -8  -2 91.6744 5.51685   5
  -3  -8  -2 95.6166 6.49427   6
  -3  -8  -2 95.7910 4.33295   4
  -3  -8  -2 89.0359 6.13861   2
   3   8   2 99.7122 7.51939   6
   3   8   2 98.4941 5.75361   3
   3   8   2 99.9425 4.75726   4
   3   8   2 93.0032 6.80006   5
   3   8   2 86.3237 7.82497   1
   3   8   2 100.139 7.33809   5
  -4  -8  -2 28.9575 3.04302   5
  -4  -8  -2 22.1402 3.94048   2
  -4  -8  -2 26.0377 3.64928   6
  -4  -8  -2 27.4808 3.10297   6
   4   8   2 23.1665 4.16415   5
   4   8   2 31.1153 2.67656   4
   4   8   2 26.1322 5.12749   5
   4   8   2 39.0697 6.51107   6
   4   8   2 30.3920 3.93627   3
   4   8   2 24.6117 5.02041   1
  -5  -8  -2 -1.6280 2.81664   6
  -5  -8  -2 -0.2252 3.31484   2
  -5  -8  -2 0.04316 2.51400   6
   5   8   2 0.55283 3.21074   3
   5   8   2 0.18400 4.21310   5
   5   8   2 2.63277 5.57904   1
   6  -9  -2 102.282 8.90985   5
   6  -9  -2 92.5721 6.06353   2
  -6   9   2 95.0331 7.40097   3
  -6   9   2 94.6630 8.95637   6
   5  -9  -2 26.2408 4.72188   5
   5  -9  -2 36.2255 5.94833   6
   5  -9  -2 34.4237 3.71752   2
   5  -9  -2 29.5765 6.11899   5
   5  -9  -2 27.4956 4.21586   6
  -5   9   2 29.9499 4.44132   3
  -5   9   2 25.2768 4.74156   4
  -5   9   2 21.8884 4.70093   6
  -5   9   2 33.2485 4.54807   5
   4  -9  -2 -2.5334 4.65526   5
   4  -9  -2 -8.1777 4.28818   6
   4  -9  -2 2.56883 3.07183   6
   4  -9  -2 2.30665 2.63889   2
   4  -9  -2 0.02361 4.74158   5
   4  -9  -2 -4.0145 3.44505   4
  -4   9   2 -4.7655 3.87524   5
  -4   9   2 0.84332 4.91157   5
  -4   9   2 1.14975 3.05967   3
  -4   9   2 2.63337 3.63972   4
  -4   9   2 7.17635 4.10784   6
   3  -9  -2 22.8556 4.24846   6
   3  -9  -2 38.2414 3.63422   2
   3  -9  -2 27.7924 4.05933   6
   3  -9  -2 30.8165 4.54721   5
   3  -9  -2 34.8794 3.61181   4
   3  -9  -2 23.7993 3.99800   5
  -3   9   2 30.2625 2.67904   1
  -3   9   2 35.9596 4.59493   5
  -3   9   2 26.0867 3.90157   4
  -3   9   2 24.6094 3.90075   3
  -3   9   2 35.5519 5.34073   5
  -3   9   2 30.7460 2.68529   1
  -3   9   2 27.7822 5.36405   6
   2  -9  -2 32.0346 3.77749   6
   2  -9  -2 29.5886 3.89121   5
   2  -9  -2 34.8459 3.21393   4
   2  -9  -2 33.0308 4.75829   5
   2  -9  -2 35.2224 4.51782   2
   2  -9  -2 31.9237 4.47900   6
  -2   9   2 26.4350 4.44369   6
  -2   9   2 37.6002 5.12477   5
  -2   9   2 32.9232 2.64625   1
  -2   9   2 35.8237 4.84246   5
  -2   9   2 39.8394 3.68471   1
  -2   9   2 32.5893 4.16631   3
   1  -9  -2 12.6296 3.55406   6
   1  -9  -2 12.3924 4.08327   5
   1  -9  -2 7.24599 3.08255   5
   1  -9  -2 8.10716 3.42569   6
   1  -9  -2 7.75541 2.75760   2
   1  -9  -2 7.19744 2.27335   4
  -1   9   2 11.7519 4.08601   6
  -1   9   2 7.61783 2.97426   4
  -1   9   2 9.14310 3.18296   3
  -1   9   2 12.3361 2.71362   1
  -1   9   2 10.5553 4.39929   5
  -1   9   2 7.41696 2.46100   1
  -1   9   2 13.5693 4.27703   5
   0  -9  -2 1.38119 3.01753   5
   0  -9  -2 5.08847 3.95758   5
   0  -9  -2 3.14313 2.92010   6
   0  -9  -2 1.14587 2.55375   2
   0  -9  -2 5.67936 2.13679   4
   0  -9  -2 2.85563 3.29874   6
   0   9   2 -1.8167 4.21288   5
   0   9   2 -0.9363 2.65962   3
   0   9   2 0.64581 3.74684   5
   0   9   2 3.50292 2.93827   1
   0   9   2 5.66519 2.83869   1
   0   9   2 4.34128 3.89992   6
   0   9   2 7.57329 2.59115   4
  -1  -9  -2 19.4353 4.53852   5
  -1  -9  -2 16.4847 3.44560   6
  -1  -9  -2 14.2070 3.90838   6
  -1  -9  -2 20.4363 3.95004   5
  -1  -9  -2 15.9902 2.27954   4
  -1  -9  -2 14.3779 3.05909   2
   1   9   2 14.3615 3.27685   3
   1   9   2 11.3894 5.43174   5
   1   9   2 17.5604 4.46264   6
   1   9   2 16.8238 3.86726   1
   1   9   2 15.3798 2.96105   4
   1   9   2 18.3614 4.18773   5
  -2  -9  -2 1.36990 2.98347   5
  -2  -9  -2 0.45229 2.03621   4
  -2  -9  -2 1.16753 2.95420   6
  -2  -9  -2 0.60914 2.90515   2
   2   9   2 5.48871 2.61996   4
   2   9   2 1.10064 4.21923   6
   2   9   2 9.20915 4.66827   1
   2   9   2 -0.6824 2.57321   3
   2   9   2 5.39339 4.03447   5
   2   9   2 2.58346 4.04491   1
   2   9   2 0.74591 5.02355   5
  -3  -9  -2 16.6724 3.65094   6
   3   9   2 20.3480 2.97758   4
   3   9   2 14.2554 4.89114   5
   3   9   2 15.9965 3.78325   3
   3   9   2 21.6088 5.19645   1
  -4  -9  -2 10.4452 3.66558   2
  -4  -9  -2 11.0220 4.27336   6
   4   9   2 15.2284 4.02316   3
   4   9   2 12.3803 5.73090   1
   4   9   2 15.0811 5.39312   5
   5 -10  -2 71.4721 7.02176   5
   5 -10  -2 67.0217 6.04081   2
  -5  10   2 66.2081 6.97198   3
  -5  10   2 85.5264 7.73968   6
  -5  10   2 89.1546 7.22589   4
   4 -10  -2 19.9996 5.03695   5
   4 -10  -2 14.3433 4.67589   6
   4 -10  -2 18.8320 7.57889   5
   4 -10  -2 8.42314 6.95267   6
   4 -10  -2 9.03623 3.18326   2
  -4  10   2 11.2655 6.52020   5
  -4  10   2 7.32901 5.54482   6
  -4  10   2 4.94758 5.01829   4
  -4  10   2 2.46720 6.02496   3
   3 -10  -2 59.6187 6.23626   5
   3 -10  -2 44.2134 4.93741   6
   3 -10  -2 48.2203 5.06139   2
   3 -10  -2 56.7197 7.75597   5
   3 -10  -2 69.3858 7.37080   6
   3 -10  -2 50.2121 5.18875   4
  -3  10   2 63.8273 6.51429   5
  -3  10   2 39.2896 4.91276   3
  -3  10   2 55.3237 3.66215   1
  -3  10   2 56.8723 7.24314   5
  -3  10   2 55.3270 6.45865   6
  -3  10   2 61.2423 5.73937   4
  -3  10   2 52.4953 3.97471   1
   2 -10  -2 46.8397 6.41442   5
   2 -10  -2 44.3222 5.76541   6
   2 -10  -2 36.6650 4.08075   2
   2 -10  -2 42.7489 5.07971   5
   2 -10  -2 49.0655 4.25383   4
  -2  10   2 43.0177 5.94288   6
  -2  10   2 46.1331 4.00024   1
  -2  10   2 46.5400 3.55818   1
  -2  10   2 40.9309 5.00219   3
  -2  10   2 54.1068 7.25116   5
  -2  10   2 52.8617 4.93140   4
  -2  10   2 48.2131 6.01638   5
   1 -10  -2 -5.8329 5.51020   5
   1 -10  -2 -2.4788 2.87950   4
   1 -10  -2 -2.3034 3.88304   5
   1 -10  -2 0.66203 4.05369   6
   1 -10  -2 -2.0906 4.50455   6
   1 -10  -2 4.05426 2.94218   2
  -1  10   2 -1.9716 6.48719   5
  -1  10   2 6.42754 4.49965   6
  -1  10   2 -0.4611 3.59700   4
  -1  10   2 9.70031 4.94612   5
  -1  10   2 6.00382 3.39160   1
  -1  10   2 5.16216 3.31217   1
  -1  10   2 1.30515 3.24168   3
   0 -10  -2 13.6778 4.96860   6
   0 -10  -2 11.8174 3.34772   2
   0 -10  -2 30.9857 4.81673   5
   0 -10  -2 18.8442 4.26432   6
   0 -10  -2 19.4492 3.20961   4
   0  10   2 17.6549 4.16472   1
   0  10   2 27.4468 5.58735   6
   0  10   2 7.06325 6.95801   4
   0  10   2 25.7037 4.48912   1
   0  10   2 18.4464 5.50750   5
   0  10   2 11.9185 7.16794   5
   0  10   2 13.9443 3.89089   3
  -1 -10  -2 13.9977 4.14462   6
  -1 -10  -2 22.9011 3.28305   4
  -1 -10  -2 14.6763 4.22283   2
   1  10   2 15.5002 5.66421   5
   1  10   2 19.9706 5.48450   1
   1  10   2 19.7178 6.13571   6
   1  10   2 20.1769 4.73731   1
   1  10   2 17.8177 3.96082   3
   1  10   2 19.8245 3.61221   4
  -2 -10  -2 12.9051 3.89933   2
  -2 -10  -2 17.2769 4.57098   6
   2  10   2 21.2631 6.32119   5
   2  10   2 13.0712 3.68557   3
   2  10   2 9.92333 5.44800   1
   2  10   2 11.8974 3.71137   4
   3 -11  -2 11.7236 5.70790   6
   3 -11  -2 1.99195 3.59715   2
   3 -11  -2 12.2176 6.24804   5
  -3  11   2 4.71425 4.24253   3
  -3  11   2 7.47269 5.73655   4
  -3  11   2 6.65758 6.82930   6
   2 -11  -2 11.2944 3.73088   2
   2 -11  -2 18.6034 5.92873   6
  -2  11   2 11.8819 4.48676   3
  -2  11   2 16.6887 7.02143   5
  -2  11   2 0.43097 6.31477   6
  -2  11   2 25.5437 5.53511   4
   1 -11  -2 21.3235 4.26546   2
   1 -11  -2 26.7455 4.81087   4
   1 -11  -2 14.9903 5.48427   6
  -1  11   2 32.6946 4.74497   1
  -1  11   2 22.2672 4.64357   3
  -1  11   2 33.0403 5.12616   4
  -1  11   2 10.6616 6.82673   5
   0  11  -3 135.693 10.7057   4
   0  11  -3 95.4840 8.44937   5
   0  11  -3 116.764 7.67204   3
   0 -11   3 115.052 7.55093   2
   0 -11   3 110.225 10.7473   6
  -1  11  -3 -0.7597 3.55378   3
  -1  11  -3 6.57133 7.05326   5
  -1  11  -3 0.78241 5.56291   4
  -1  11  -3 -2.8277 5.29496   1
  -1  11  -3 12.0736 7.28773   6
   1 -11   3 2.14728 3.54893   2
  -2  11  -3 15.6042 4.69470   3
  -2  11  -3 30.9731 7.86270   6
  -2  11  -3 17.2749 6.20525   4
   2 -11   3 14.9374 7.06052   5
   2 -11   3 18.6846 3.99312   2
   3  10  -3 5.69940 5.50991   5
   3  10  -3 4.09649 3.53794   3
   3  10  -3 -3.1393 4.83995   4
  -3 -10   3 5.64347 4.85178   6
  -3 -10   3 2.90895 3.60359   2
   2  10  -3 18.2688 4.64756   4
   2  10  -3 11.4792 3.86411   3
   2  10  -3 15.2972 5.27065   5
  -2 -10   3 16.4805 3.90176   2
  -2 -10   3 9.76279 4.38184   6
   1  10  -3 27.4004 8.17791   5
   1  10  -3 21.1118 4.60186   3
   1  10  -3 25.6220 5.63319   6
   1  10  -3 17.9812 4.43145   4
   1  10  -3 32.4116 6.45951   5
  -1 -10   3 23.3597 3.92742   2
  -1 -10   3 2.81498 5.21029   5
   0  10  -3 3.80264 4.17266   1
   0  10  -3 3.46898 3.92353   4
   0  10  -3 6.07489 5.09942   6
   0  10  -3 5.53470 6.67656   5
   0  10  -3 3.24921 4.55885   5
   0  10  -3 3.65874 3.22749   3
   0 -10   3 5.48788 4.06290   6
   0 -10   3 -2.8013 4.18221   5
   0 -10   3 0.36731 2.95987   2
  -1  10  -3 24.1390 5.12357   5
  -1  10  -3 20.5483 6.70665   5
  -1  10  -3 20.5312 3.95501   1
  -1  10  -3 29.8373 5.82092   6
  -1  10  -3 21.0453 4.66809   4
  -1  10  -3 21.5338 4.04984   3
   1 -10   3 23.3206 4.82384   6
   1 -10   3 14.0782 4.56606   5
   1 -10   3 17.2144 3.51430   2
  -2  10  -3 8.03783 3.56651   3
  -2  10  -3 4.31721 5.00758   5
  -2  10  -3 8.11890 3.49483   1
  -2  10  -3 7.72461 6.41531   5
  -2  10  -3 9.34803 5.67049   6
  -2  10  -3 16.1179 4.49289   4
   2 -10   3 9.45578 4.87626   5
   2 -10   3 10.7658 3.17220   2
   2 -10   3 7.13919 5.17725   5
   2 -10   3 10.3873 5.15013   6
  -3  10  -3 -1.5865 5.71095   6
  -3  10  -3 5.36217 3.17963   1
  -3  10  -3 2.35456 4.63150   4
  -3  10  -3 2.10272 5.33995   5
  -3  10  -3 0.86889 3.40599   3
   3 -10   3 -3.4010 5.35933   6
   3 -10   3 4.24752 3.10564   2
   3 -10   3 3.90509 6.79500   5
   3 -10   3 -2.8516 5.88750   5
  -4  10  -3 43.0974 5.92248   4
  -4  10  -3 59.3100 7.17726   6
  -4  10  -3 40.5987 6.63090   3
   4 -10   3 45.3876 6.92132   6
   4 -10   3 46.0254 6.41009   5
  -5  10  -3 28.7785 4.79483   3
  -5  10  -3 25.1886 6.88053   6
  -5  10  -3 19.5542 8.28566   4
   5 -10   3 14.5336 5.98572   5
   4   9  -3 8.44891 3.53784   3
   4   9  -3 10.8959 5.19141   5
   4   9  -3 15.6463 4.31511   4
  -4  -9   3 7.08058 3.74031   6
  -4  -9   3 10.5650 3.89544   2
   3   9  -3 25.4728 5.13155   5
   3   9  -3 23.7965 4.12458   4
   3   9  -3 22.3540 6.60880   6
   3   9  -3 10.6844 3.12621   3
  -3  -9   3 17.5940 3.78280   2
  -3  -9   3 22.6184 3.99216   4
  -3  -9   3 21.9286 4.06716   6
  -3  -9   3 22.8703 4.25302   5
   2   9  -3 4.72400 4.78844   1
   2   9  -3 5.47224 4.80883   5
   2   9  -3 3.38293 2.67656   3
   2   9  -3 2.93971 3.16008   4
   2   9  -3 10.0385 4.29131   5
   2   9  -3 -6.8751 3.62016   6
  -2  -9   3 5.78145 2.97441   4
  -2  -9   3 2.22435 3.43537   5
  -2  -9   3 2.87936 2.95161   6
  -2  -9   3 2.89819 2.92589   2
   1   9  -3 27.6497 4.96209   5
   1   9  -3 24.4957 3.70917   3
   1   9  -3 28.1496 4.72680   5
   1   9  -3 32.9014 3.86760   4
   1   9  -3 32.0477 4.86677   6
   1   9  -3 27.7089 4.10795   1
  -1  -9   3 16.9455 3.36020   6
  -1  -9   3 24.9140 4.05779   5
  -1  -9   3 26.4994 3.35018   4
  -1  -9   3 32.5109 4.36647   5
  -1  -9   3 19.8474 3.30044   2
   0   9  -3 19.1083 3.28737   1
   0   9  -3 17.3494 3.42572   4
   0   9  -3 14.1508 4.17492   5
   0   9  -3 15.5066 3.23289   3
   0   9  -3 21.2687 4.31916   6
   0  -9   3 13.3433 3.34555   6
   0  -9   3 18.9480 4.04396   5
   0  -9   3 10.7429 2.81251   2
   0  -9   3 7.21931 4.18265   5
   0  -9   3 15.0906 3.05633   4
  -1   9  -3 179.183 8.36639   3
  -1   9  -3 205.833 8.65195   4
  -1   9  -3 206.408 8.02376   1
  -1   9  -3 193.680 9.91601   5
  -1   9  -3 207.155 9.81745   5
  -1   9  -3 200.159 9.93365   6
   1  -9   3 199.051 7.87010   1
   1  -9   3 224.796 9.42035   6
   1  -9   3 191.484 8.26849   4
   1  -9   3 193.540 9.90851   5
   1  -9   3 201.869 9.41201   5
   1  -9   3 197.625 7.78572   2
  -2   9  -3 0.83803 4.05622   6
  -2   9  -3 1.48598 3.36530   5
  -2   9  -3 -0.3582 2.52745   3
  -2   9  -3 -2.6265 2.38512   1
  -2   9  -3 -5.5061 3.11864   4
  -2   9  -3 0.40243 4.54301   5
   2  -9   3 4.07325 3.26941   6
   2  -9   3 0.22372 2.28302   2
   2  -9   3 3.08046 2.38212   1
   2  -9   3 0.82346 3.27051   5
   2  -9   3 0.89593 3.05323   4
   2  -9   3 0.43022 3.75236   5
  -3   9  -3 25.6671 5.31219   5
  -3   9  -3 24.7992 2.88997   1
  -3   9  -3 17.4358 4.06205   5
  -3   9  -3 24.7163 4.12648   3
  -3   9  -3 31.0392 4.93721   6
  -3   9  -3 22.7298 4.22338   4
   3  -9   3 22.1014 4.25623   5
   3  -9   3 25.7451 4.35239   5
   3  -9   3 30.3834 3.46674   2
   3  -9   3 29.0576 2.71922   1
   3  -9   3 20.9721 4.11527   6
  -4   9  -3 1.57794 4.26237   6
  -4   9  -3 3.54470 4.03445   4
  -4   9  -3 7.35983 3.22664   3
  -4   9  -3 3.16761 3.91276   5
  -4   9  -3 4.17391 2.34610   1
   4  -9   3 4.51830 2.02568   1
   4  -9   3 2.60874 4.41285   6
   4  -9   3 3.58251 4.00934   5
   4  -9   3 2.21228 5.06024   5
  -5   9  -3 18.9016 3.83545   3
  -5   9  -3 26.2508 5.20252   4
  -5   9  -3 15.1236 4.98251   6
   5  -9   3 11.3976 5.12762   5
   5  -9   3 11.3299 7.98990   5
  -6   9  -3 43.5482 7.17878   3
  -6   9  -3 67.5666 6.46667   6
  -6   9  -3 70.7308 7.00873   4
   6  -9   3 73.7806 6.68544   5
   5   8  -3 12.1603 3.83070   3
   5   8  -3 9.80620 3.76474   4
   5   8  -3 10.7702 4.40274   5
  -5  -8   3 8.58977 3.40718   2
  -5  -8   3 14.1660 3.06543   6
  -5  -8   3 9.54443 2.87717   6
  -5  -8   3 10.9765 2.59851   5
   4   8  -3 14.1283 3.97039   5
   4   8  -3 22.1244 4.36974   5
   4   8  -3 19.4312 3.31205   4
   4   8  -3 20.8105 4.53937   6
   4   8  -3 20.3792 3.41957   3
  -4  -8   3 21.0246 3.03124   6
  -4  -8   3 19.6750 3.28317   6
  -4  -8   3 13.1841 3.31388   4
  -4  -8   3 18.2527 3.04623   5
  -4  -8   3 14.1876 3.52875   2
   3   8  -3 65.2086 6.47813   5
   3   8  -3 65.6865 6.45503   5
   3   8  -3 56.0744 4.72302   3
   3   8  -3 72.2373 5.25282   4
   3   8  -3 57.7813 5.33949   1
   3   8  -3 73.2353 6.68296   6
  -3  -8   3 71.0592 5.50873   5
  -3  -8   3 64.2147 5.05398   4
  -3  -8   3 67.4676 6.30701   5
  -3  -8   3 63.3383 5.16974   2
   2   8  -3 2.94732 3.13042   5
   2   8  -3 3.92590 2.44670   4
   2   8  -3 2.49543 2.98327   5
   2   8  -3 1.28063 3.12606   6
   2   8  -3 2.14028 2.46516   3
   2   8  -3 -3.9204 3.14367   1
  -2  -8   3 -1.3853 2.17888   4
  -2  -8   3 -1.6656 2.05162   6
  -2  -8   3 2.81673 2.96327   5
  -2  -8   3 1.22440 2.37932   2
   1   8  -3 24.0479 3.50295   5
   1   8  -3 20.0991 3.37806   4
   1   8  -3 18.4282 3.10490   3
   1   8  -3 16.6300 3.43648   6
   1   8  -3 28.9288 3.36203   1
   1   8  -3 17.8696 3.24944   5
  -1  -8   3 21.4091 3.04428   1
  -1  -8   3 18.9648 2.91667   6
  -1  -8   3 19.3767 3.07606   5
  -1  -8   3 17.8973 3.11719   5
  -1  -8   3 16.0647 2.39253   4
  -1  -8   3 21.5733 2.99418   2
   0   8  -3 81.1484 6.25238   5
   0   8  -3 66.8911 5.98476   6
   0   8  -3 67.4432 4.86073   3
   0   8  -3 73.6691 4.81349   1
   0   8  -3 72.7865 5.57413   4
   0   8  -3 81.5904 6.04326   5
   0  -8   3 69.8254 4.62350   4
   0  -8   3 68.4454 4.48939   2
   0  -8   3 70.2279 5.62548   5
   0  -8   3 71.6404 4.74773   1
   0  -8   3 67.1942 5.27209   6
  -1   8  -3 -1.6697 2.71409   6
  -1   8  -3 -5.6218 2.74722   5
  -1   8  -3 3.75686 3.44827   5
  -1   8  -3 0.85241 2.23913   3
  -1   8  -3 3.55065 2.02929   1
   1  -8   3 -0.2000 2.37683   5
   1  -8   3 -1.7499 2.16583   4
   1  -8   3 -2.2653 2.27343   6
   1  -8   3 2.64971 2.79713   5
   1  -8   3 -2.5150 1.79872   1
   1  -8   3 1.00853 2.10609   2
  -2   8  -3 15.8914 3.13002   4
  -2   8  -3 13.0610 2.54975   1
  -2   8  -3 15.4097 3.79051   5
  -2   8  -3 10.4697 2.66399   3
  -2   8  -3 17.2837 3.48086   6
  -2   8  -3 9.13713 3.29138   5
   2  -8   3 11.8473 2.65961   4
   2  -8   3 12.6546 2.98460   5
   2  -8   3 14.5592 3.62651   5
   2  -8   3 13.7870 2.47590   2
   2  -8   3 15.9268 2.19453   1
   2  -8   3 15.9868 3.36942   6
  -3   8  -3 22.9094 2.28247   1
  -3   8  -3 20.1820 3.47759   3
  -3   8  -3 23.7424 3.86611   6
  -3   8  -3 21.1002 3.90618   5
  -3   8  -3 13.9592 3.08078   4
  -3   8  -3 18.0833 3.66216   5
   3  -8   3 24.9862 3.87626   5
   3  -8   3 23.5553 2.33699   1
   3  -8   3 26.4853 3.85536   5
   3  -8   3 23.6589 2.66534   2
   3  -8   3 15.9893 3.18643   4
   3  -8   3 17.0423 3.13731   6
  -4   8  -3 22.3461 4.08299   6
  -4   8  -3 23.4976 2.25926   1
  -4   8  -3 18.1241 3.46140   3
  -4   8  -3 19.9432 3.68904   4
  -4   8  -3 19.1200 3.92158   5
   4  -8   3 21.1454 3.58301   5
   4  -8   3 19.5309 3.67918   4
   4  -8   3 23.9446 2.28723   1
   4  -8   3 23.9456 3.87639   6
  -5   8  -3 77.0576 6.41239   5
  -5   8  -3 76.2721 7.10964   6
  -5   8  -3 81.5890 3.98274   1
  -5   8  -3 73.2387 6.03146   3
  -5   8  -3 66.5269 5.77529   4
   5  -8   3 76.6240 7.60958   5
   5  -8   3 89.7737 7.27462   6
   5  -8   3 78.1955 3.67230   1
   5  -8   3 80.2949 7.02513   5
  -6   8  -3 56.8941 5.08677   5
  -6   8  -3 46.4741 5.70301   4
  -6   8  -3 55.8687 5.39013   6
  -6   8  -3 58.2164 6.00658   3
   6  -8   3 47.7222 9.54951   5
   6  -8   3 60.3614 5.69662   5
   6  -8   3 60.3845 2.90294   1
  -7   8  -3 18.7134 4.57164   3
  -7   8  -3 23.6573 4.69057   6
  -7   8  -3 19.9745 6.32252   4
   7  -8   3 17.7686 5.12096   5
   6   7  -3 9.44633 3.82049   5
   6   7  -3 9.18589 3.35207   3
   6   7  -3 12.7410 3.61957   4
  -6  -7   3 11.0595 2.05809   6
  -6  -7   3 9.27630 4.02184   2
  -6  -7   3 9.94807 1.97208   6
   5   7  -3 6.19118 2.69865   4
   5   7  -3 6.47662 3.91819   6
   5   7  -3 7.47321 3.38168   5
   5   7  -3 9.28831 2.73872   3
   5   7  -3 7.54426 3.23787   5
  -5  -7   3 2.29547 3.08380   2
  -5  -7   3 8.73655 2.34696   6
  -5  -7   3 6.30672 2.05707   5
  -5  -7   3 12.3567 2.31448   6
   4   7  -3 12.9233 3.10476   6
   4   7  -3 12.6088 4.01285   1
   4   7  -3 17.3195 3.12964   5
   4   7  -3 14.0015 2.91437   4
   4   7  -3 14.1091 2.72385   3
   4   7  -3 14.5581 2.99997   5
  -4  -7   3 14.5884 2.48027   5
  -4  -7   3 15.7131 2.71963   4
  -4  -7   3 19.5697 2.48903   5
  -4  -7   3 16.3120 2.41332   6
  -4  -7   3 14.1531 2.60421   6
  -4  -7   3 14.4317 2.98984   2
   3   7  -3 19.2858 2.86835   5
   3   7  -3 18.0289 2.39755   4
   3   7  -3 20.4523 2.83511   6
   3   7  -3 23.1317 3.18314   5
   3   7  -3 17.4504 2.92642   3
   3   7  -3 17.9699 3.23380   1
  -3  -7   3 22.2459 3.92417   6
  -3  -7   3 21.6781 2.61757   5
  -3  -7   3 22.2229 2.56462   4
  -3  -7   3 22.1019 2.76056   5
  -3  -7   3 24.1055 3.32670   2
   2   7  -3 69.1318 4.91010   1
   2   7  -3 65.0203 5.10586   6
   2   7  -3 68.1135 4.03965   4
   2   7  -3 67.0437 5.01431   5
   2   7  -3 64.2606 4.35974   3
   2   7  -3 70.6662 5.08457   5
  -2  -7   3 68.7020 4.70923   5
  -2  -7   3 67.0919 4.67268   1
  -2  -7   3 65.0242 4.18500   6
  -2  -7   3 62.3972 3.86316   4
  -2  -7   3 63.8095 4.53329   2
   1   7  -3 13.0584 2.31639   6
   1   7  -3 16.2854 2.81798   5
   1   7  -3 22.1722 2.42908   4
   1   7  -3 19.1242 2.54454   1
   1   7  -3 20.7048 2.95634   5
   1   7  -3 19.4141 2.77339   3
  -1  -7   3 18.8526 2.53378   5
  -1  -7   3 17.1592 2.11388   4
  -1  -7   3 15.2672 2.41088   2
  -1  -7   3 19.7365 2.47292   6
  -1  -7   3 14.6107 2.38001   5
  -1  -7   3 18.5428 2.50465   1
   0   7  -3 53.0338 4.30981   6
   0   7  -3 46.4906 4.39561   5
   0   7  -3 52.6986 3.62520   1
   0   7  -3 47.8965 3.60879   3
   0   7  -3 46.9317 3.71059   4
   0   7  -3 51.9257 4.76533   5
   0  -7   3 48.7226 3.53449   4
   0  -7   3 43.4388 3.54852   2
   0  -7   3 49.5718 4.18106   5
   0  -7   3 48.9341 3.48992   1
   0  -7   3 46.3195 4.01706   6
  -1   7  -3 35.7324 3.48565   3
  -1   7  -3 39.1081 3.57456   5
  -1   7  -3 33.4647 2.89300   4
  -1   7  -3 34.5907 3.09082   1
  -1   7  -3 39.2222 3.42364   5
  -1   7  -3 42.6257 4.09851   6
   1  -7   3 37.6271 3.06491   1
   1  -7   3 35.5453 3.17941   5
   1  -7   3 41.3071 3.37473   4
   1  -7   3 25.1711 2.76138   5
   1  -7   3 34.6718 3.13839   2
   1  -7   3 36.8465 3.89842   6
  -2   7  -3 241.656 8.97243   6
  -2   7  -3 228.999 8.42813   4
  -2   7  -3 230.533 7.61118   1
  -2   7  -3 229.919 8.82364   5
  -2   7  -3 236.421 8.86383   5
  -2   7  -3 222.567 8.56529   3
   2  -7   3 230.484 8.07336   4
   2  -7   3 237.842 8.83176   5
   2  -7   3 240.625 8.67216   6
   2  -7   3 230.276 8.83358   5
   2  -7   3 230.539 7.53344   1
  -3   7  -3 -0.7337 2.09346   3
  -3   7  -3 2.66961 2.54351   5
  -3   7  -3 1.91928 2.38014   5
  -3   7  -3 -1.6760 2.18351   6
  -3   7  -3 4.46765 2.44994   4
  -3   7  -3 0.21807 1.43686   1
   3  -7   3 -0.3567 1.68238   2
   3  -7   3 0.41670 1.84032   5
   3  -7   3 1.26849 2.32892   4
   3  -7   3 2.73814 2.42239   6
   3  -7   3 1.03504 1.40745   1
   3  -7   3 4.51054 2.47286   5
  -4   7  -3 34.1307 3.63224   4
  -4   7  -3 36.8361 2.90317   1
  -4   7  -3 41.9745 3.84868   6
  -4   7  -3 38.4046 3.67887   5
  -4   7  -3 28.9249 3.62042   3
  -4   7  -3 43.7039 3.65506   5
   4  -7   3 43.8362 4.68881   5
   4  -7   3 37.1570 2.83711   1
   4  -7   3 24.1227 3.15023   6
   4  -7   3 45.4353 3.81643   5
   4  -7   3 36.5842 3.37259   4
  -5   7  -3 9.22769 3.34765   4
  -5   7  -3 0.37990 2.80177   5
  -5   7  -3 6.71865 2.84660   6
  -5   7  -3 1.72902 2.79200   3
  -5   7  -3 6.22468 2.79804   5
  -5   7  -3 5.63176 1.68134   1
   5  -7   3 1.00253 2.70642   5
   5  -7   3 5.03941 3.13642   4
   5  -7   3 6.64994 2.83273   5
   5  -7   3 4.98797 1.58607   1
   5  -7   3 6.54784 2.69776   6
  -6   7  -3 33.0577 4.84275   4
  -6   7  -3 19.6706 3.67239   6
  -6   7  -3 21.1426 3.87058   3
  -6   7  -3 25.8322 3.30923   5
   6  -7   3 23.9885 1.95512   1
   6  -7   3 20.4203 3.76534   5
   6  -7   3 26.8811 3.79808   5
  -7   7  -3 122.045 7.47929   6
  -7   7  -3 115.522 7.28819   3
  -7   7  -3 115.104 6.38964   5
  -7   7  -3 131.815 9.53777   4
  -7   7  -3 138.433 8.05578   6
   7  -7   3 134.964 8.19727   5
   7   6  -3 49.8652 4.50662   5
   7   6  -3 60.0670 4.70965   4
  -7  -6   3 54.4709 5.72915   2
   6   6  -3 -4.0689 2.72808   5
   6   6  -3 -0.9320 2.78030   5
   6   6  -3 -1.1594 2.68347   4
   6   6  -3 -2.3883 3.30218   6
  -6  -6   3 0.25722 1.29187   6
  -6  -6   3 -0.4932 2.97196   2
   5   6  -3 -2.2081 3.80171   1
   5   6  -3 1.03935 2.54743   6
   5   6  -3 2.80933 2.43405   5
   5   6  -3 3.19208 2.38010   5
  -5  -6   3 2.75039 1.63241   6
  -5  -6   3 1.82545 1.14846   5
  -5  -6   3 3.12707 1.76809   6
  -5  -6   3 -3.6828 2.44462   2
   4   6  -3 12.5255 2.51434   5
   4   6  -3 11.2537 2.25322   6
   4   6  -3 10.7825 1.96422   4
   4   6  -3 13.3520 2.35946   5
   4   6  -3 12.3309 3.25643   1
  -4  -6   3 11.5941 2.74422   2
  -4  -6   3 10.7218 1.96807   5
  -4  -6   3 9.80959 1.76262   5
  -4  -6   3 9.98176 1.83214   6
  -4  -6   3 11.6236 2.21344   4
   3   6  -3 24.9614 2.76400   6
   3   6  -3 18.6071 2.53681   5
   3   6  -3 19.6978 2.00155   4
   3   6  -3 19.0110 2.82295   1
   3   6  -3 20.6434 2.77437   3
   3   6  -3 20.8794 2.50737   5
  -3  -6   3 23.5922 2.22127   5
  -3  -6   3 19.5279 2.29361   6
  -3  -6   3 22.4903 2.81543   1
  -3  -6   3 21.3320 2.14415   4
  -3  -6   3 15.7844 2.75061   2
  -3  -6   3 20.0043 2.15730   5
   2   6  -3 136.488 5.70912   5
   2   6  -3 122.913 5.47392   3
   2   6  -3 119.831 6.31156   6
   2   6  -3 127.972 5.59483   1
   2   6  -3 133.423 5.76233   5
   2   6  -3 132.653 5.14120   4
  -2  -6   3 135.732 5.60179   6
  -2  -6   3 136.256 5.60356   1
  -2  -6   3 133.632 5.54278   5
  -2  -6   3 137.346 5.04289   4
  -2  -6   3 128.211 5.40396   5
  -2  -6   3 129.231 5.73635   2
   1   6  -3 -0.5633 1.47474   1
   1   6  -3 1.05059 1.66455   3
   1   6  -3 2.55886 1.85654   5
   1   6  -3 1.18201 1.27867   4
   1   6  -3 1.51218 1.63049   5
   1   6  -3 0.52545 1.76706   6
  -1  -6   3 -0.3556 1.33351   4
  -1  -6   3 0.32387 1.43472   1
  -1  -6   3 -0.3408 1.54332   5
  -1  -6   3 1.27918 1.43908   6
  -1  -6   3 1.15113 1.56531   2
  -1  -6   3 0.00016 1.43423   5
   0   6  -3 10.9258 2.08530   5
   0   6  -3 10.1328 2.01956   3
   0   6  -3 8.75557 1.58681   4
   0   6  -3 10.4127 1.68356   1
   0   6  -3 8.71257 1.75607   6
   0   6  -3 11.0891 2.19313   5
   0  -6   3 12.2288 2.00092   2
   0  -6   3 9.36449 1.63989   4
   0  -6   3 12.7151 2.14050   5
   0  -6   3 8.98673 1.80358   6
   0  -6   3 8.98481 1.56852   1
  -1   6  -3 176.346 6.69378   5
  -1   6  -3 169.874 6.61717   5
  -1   6  -3 178.136 7.31226   6
  -1   6  -3 167.490 5.88551   1
  -1   6  -3 167.888 6.55470   3
  -1   6  -3 172.677 6.29767   4
   1  -6   3 170.261 6.59997   5
   1  -6   3 171.430 5.98411   4
   1  -6   3 171.375 6.57013   6
   1  -6   3 169.903 6.59273   5
   1  -6   3 167.771 5.85775   1
  -2   6  -3 7.39851 1.92112   3
  -2   6  -3 2.00149 1.54807   4
  -2   6  -3 2.60308 1.89237   6
  -2   6  -3 5.13333 1.82629   5
  -2   6  -3 6.63356 1.39739   1
  -2   6  -3 6.40064 2.01761   5
   2  -6   3 5.58275 1.88568   6
   2  -6   3 3.32516 1.24634   1
   2  -6   3 4.91930 1.67251   4
   2  -6   3 2.55977 1.53204   2
   2  -6   3 2.66062 1.69546   5
   2  -6   3 3.01904 1.89156   5
  -3   6  -3 1.39836 1.29506   1
  -3   6  -3 1.01653 1.96438   5
  -3   6  -3 2.74204 1.68731   4
  -3   6  -3 1.15150 2.00431   3
  -3   6  -3 -0.0776 1.52172   6
   3  -6   3 1.64415 1.83257   6
   3  -6   3 1.44988 1.14201   1
   3  -6   3 0.35695 1.69188   4
   3  -6   3 0.31117 1.83442   5
   3  -6   3 2.29577 1.63968   5
   3  -6   3 0.30902 1.33895   2
  -4   6  -3 37.7516 3.34142   4
  -4   6  -3 38.3358 4.15328   3
  -4   6  -3 39.4946 3.42606   6
  -4   6  -3 33.7843 3.13100   5
  -4   6  -3 34.6432 3.60225   5
  -4   6  -3 38.5989 2.71301   1
   4  -6   3 35.7485 3.87210   6
   4  -6   3 37.8730 3.88065   5
   4  -6   3 41.3344 3.94136   4
   4  -6   3 36.0212 3.32870   5
   4  -6   3 35.4590 2.50151   1
  -5   6  -3 73.7647 5.39952   4
  -5   6  -3 69.2706 4.90331   6
  -5   6  -3 74.2047 3.55776   1
  -5   6  -3 74.9942 4.49735   5
  -5   6  -3 68.9243 5.04552   3
  -5   6  -3 72.5653 4.71328   5
   5  -6   3 72.7496 4.78035   5
   5  -6   3 76.9625 4.98481   6
   5  -6   3 74.0594 3.42983   1
   5  -6   3 81.7173 5.61107   4
  -6   6  -3 92.0275 5.82383   6
  -6   6  -3 86.4669 5.69536   3
  -6   6  -3 83.2720 5.36076   6
  -6   6  -3 94.9234 4.86192   5
  -6   6  -3 89.8546 6.68558   4
  -6   6  -3 87.6271 4.93121   5
   6  -6   3 77.2152 6.97946   4
   6  -6   3 86.5423 5.43540   5
   6  -6   3 89.3636 5.60056   5
   6  -6   3 92.0584 3.90126   1
   6  -6   3 87.3480 5.77446   6
  -7   6  -3 86.0426 6.01726   6
  -7   6  -3 87.3768 6.01200   3
  -7   6  -3 82.0901 7.61558   4
  -7   6  -3 72.2849 5.52543   5
  -7   6  -3 81.8320 5.47711   6
   7  -6   3 78.7716 6.27205   5
   7  -6   3 81.1068 3.95208   1
  -8   6  -3 25.9768 3.05284   6
  -8   6  -3 28.9031 3.41815   6
  -8   6  -3 30.0696 4.40675   3
   8  -6   3 27.4447 4.38045   5
   7   5  -3 11.5108 2.72394   5
   7   5  -3 11.6586 3.32465   4
   7   5  -3 12.2315 2.91739   5
   7   5  -3 18.2368 3.48491   6
  -7  -5   3 7.15883 3.33689   2
   6   5  -3 -0.9963 2.18820   5
   6   5  -3 3.92231 4.24914   1
   6   5  -3 0.50544 2.19205   5
   6   5  -3 -1.6123 2.18321   4
   6   5  -3 -3.0658 2.15554   6
   6   5  -3 4.61856 2.82542   6
  -6  -5   3 0.69574 2.75069   2
   5   5  -3 9.37959 2.01871   6
   5   5  -3 9.94255 2.15315   5
   5   5  -3 8.95562 2.07329   5
   5   5  -3 4.59773 2.94290   1
   5   5  -3 4.11163 1.96140   4
  -5  -5   3 6.02925 2.62260   2
  -5  -5   3 8.01409 1.38987   6
  -5  -5   3 9.97629 1.58318   6
   4   5  -3 21.2253 2.02474   4
   4   5  -3 28.8747 3.24108   1
   4   5  -3 21.2684 2.31112   6
   4   5  -3 25.6864 2.44423   5
   4   5  -3 24.8706 2.47547   5
  -4  -5   3 23.5342 2.23383   5
  -4  -5   3 25.5407 2.29487   4
  -4  -5   3 23.0004 2.23943   5
  -4  -5   3 25.3424 2.40510   6
  -4  -5   3 19.4535 2.85108   2
   3   5  -3 77.0395 3.54586   4
   3   5  -3 79.0186 4.05709   5
   3   5  -3 78.2731 4.49616   1
   3   5  -3 75.2448 4.10401   6
   3   5  -3 78.0872 3.93396   5
  -3  -5   3 80.7617 3.59553   5
  -3  -5   3 69.8046 4.28243   2
  -3  -5   3 77.6192 3.61378   6
  -3  -5   3 79.4364 3.71740   4
  -3  -5   3 76.5312 4.28503   1
  -3  -5   3 73.7982 3.55182   5
   2   5  -3 36.5710 2.97204   5
   2   5  -3 31.4723 2.97061   5
   2   5  -3 31.6336 2.93991   6
   2   5  -3 33.7715 2.46439   4
   2   5  -3 37.5517 2.95092   1
  -2  -5   3 32.9850 2.94707   2
  -2  -5   3 37.7700 2.69536   5
  -2  -5   3 40.1454 2.44919   4
  -2  -5   3 34.7395 3.11443   5
  -2  -5   3 39.7920 2.95433   1
   1   5  -3 136.466 4.77809   4
   1   5  -3 132.884 4.97623   1
   1   5  -3 128.605 5.08651   3
   1   5  -3 129.709 5.25553   6
   1   5  -3 128.994 5.14332   5
   1   5  -3 134.695 5.22145   5
  -1  -5   3 125.470 5.05871   2
  -1  -5   3 138.245 4.68114   4
  -1  -5   3 125.057 5.60365   5
  -1  -5   3 131.921 4.96376   6
  -1  -5   3 135.994 5.07066   5
  -1  -5   3 127.697 4.92653   1
   0   5  -3 79.8492 3.46425   1
   0   5  -3 78.8901 3.86568   6
   0   5  -3 76.9934 3.64446   3
   0   5  -3 72.7533 3.37573   4
   0   5  -3 71.4948 3.77327   5
   0   5  -3 74.4833 3.77134   5
   0  -5   3 78.3108 3.62755   6
   0  -5   3 78.7537 3.77930   5
   0  -5   3 69.3099 3.87909   2
   0  -5   3 79.6958 3.43781   1
   0  -5   3 78.9291 3.29863   4
  -1   5  -3 47.8807 3.12290   3
  -1   5  -3 51.7885 3.20217   5
  -1   5  -3 47.2738 2.89389   4
  -1   5  -3 52.5364 3.34242   5
  -1   5  -3 48.2791 2.66534   1
  -1   5  -3 45.6305 3.13261   6
   1  -5   3 52.3737 2.72629   4
   1  -5   3 48.9787 3.06118   6
   1  -5   3 50.9561 3.18953   5
   1  -5   3 49.2703 3.17058   5
   1  -5   3 55.6772 2.69575   2
   1  -5   3 50.6212 2.61960   1
  -2   5  -3 98.4733 3.78754   1
  -2   5  -3 100.949 4.25874   4
  -2   5  -3 99.6959 4.48356   3
  -2   5  -3 93.9476 4.43147   5
  -2   5  -3 96.7380 4.45640   6
  -2   5  -3 105.907 4.51467   5
   2  -5   3 105.031 3.57514   2
   2  -5   3 94.8571 4.36743   5
   2  -5   3 99.2952 4.51261   5
   2  -5   3 97.4582 3.69591   1
   2  -5   3 96.6574 4.36551   6
   2  -5   3 99.0885 4.08774   4
  -3   5  -3 207.712 7.04146   5
  -3   5  -3 192.127 7.02309   4
  -3   5  -3 188.060 7.16066   3
  -3   5  -3 206.998 6.36479   1
  -3   5  -3 197.920 7.15225   6
   3  -5   3 201.469 7.06692   6
   3  -5   3 207.421 6.93918   4
   3  -5   3 201.792 6.31154   1
   3  -5   3 204.156 7.08960   5
   3  -5   3 196.560 7.11541   5
  -4   5  -3 0.50821 2.00881   3
  -4   5  -3 3.30888 1.59044   5
  -4   5  -3 1.86225 1.47804   6
  -4   5  -3 1.70388 1.40932   5
  -4   5  -3 2.28661 1.81168   4
  -4   5  -3 1.94704 1.21501   1
   4  -5   3 1.69413 1.88991   4
   4  -5   3 2.51632 1.62910   6
   4  -5   3 2.78321 1.41269   5
   4  -5   3 1.84709 1.05402   1
   4  -5   3 1.47683 1.70482   5
  -5   5  -3 40.0259 3.57677   6
  -5   5  -3 47.4998 3.37973   5
  -5   5  -3 52.8166 2.93389   1
  -5   5  -3 53.3854 4.37205   4
  -5   5  -3 43.6679 4.13010   3
  -5   5  -3 46.2054 3.42016   5
   5  -5   3 49.5357 3.72357   6
   5  -5   3 46.6444 3.75851   5
   5  -5   3 50.9804 2.86403   1
   5  -5   3 48.8265 3.89627   5
   5  -5   3 49.9880 4.62101   4
  -6   5  -3 7.33776 2.27113   6
  -6   5  -3 9.39818 2.74828   3
  -6   5  -3 8.52899 1.82274   5
  -6   5  -3 7.19592 3.03876   4
  -6   5  -3 10.6479 1.76172   5
  -6   5  -3 6.23296 2.01501   6
   6  -5   3 10.1444 1.74409   1
   6  -5   3 11.2083 2.40123   6
   6  -5   3 10.9011 3.15429   4
   6  -5   3 8.68044 2.29388   5
  -7   5  -3 21.4895 3.47690   3
  -7   5  -3 19.8337 2.41586   6
  -7   5  -3 15.6818 3.74701   4
  -7   5  -3 24.7063 2.79971   6
   7  -5   3 20.2417 2.30599   1
   7  -5   3 18.2094 4.31946   4
   7  -5   3 21.6413 2.92736   5
   7  -5   3 24.4370 3.08060   5
  -8   5  -3 149.264 7.81621   3
   8  -5   3 139.168 7.60396   5
   8  -5   3 167.586 7.62175   5
   8  -5   3 156.108 6.30280   1
   8   4  -3 34.1989 2.96462   5
   8   4  -3 31.0106 2.97233   5
   8   4  -3 32.2889 4.09559   4
  -8  -4   3 18.4985 3.79415   2
   7   4  -3 50.4645 4.15377   5
   7   4  -3 62.4860 4.82703   4
   7   4  -3 51.4588 4.04929   6
   7   4  -3 58.8838 4.04791   5
  -7  -4   3 49.5093 5.38575   2
   6   4  -3 112.034 4.72110   6
   6   4  -3 119.357 5.10814   4
   6   4  -3 106.979 4.77116   5
   6   4  -3 108.654 6.84711   1
   6   4  -3 103.397 4.72248   5
   6   4  -3 103.360 5.00140   6
  -6  -4   3 98.9252 5.81469   2
   5   4  -3 7.19023 2.70470   1
   5   4  -3 6.44438 1.72845   5
   5   4  -3 6.39358 1.69158   4
   5   4  -3 9.89614 1.94556   6
   5   4  -3 5.66106 1.64757   5
   5   4  -3 6.67262 1.69604   6
  -5  -4   3 5.27893 2.27318   2
  -5  -4   3 5.71487 1.12035   6
  -5  -4   3 7.80577 1.06464   6
   4   4  -3 10.1060 2.13279   1
   4   4  -3 6.40595 1.52853   5
   4   4  -3 6.48050 1.41183   4
   4   4  -3 5.53141 1.54264   6
   4   4  -3 5.82838 1.42003   5
  -4  -4   3 5.82439 1.81516   1
  -4  -4   3 8.22317 1.19589   6
  -4  -4   3 6.98203 1.07479   5
  -4  -4   3 8.33600 2.16885   2
  -4  -4   3 7.65103 1.04353   5
  -4  -4   3 8.03865 1.82198   4
   3   4  -3 4.28557 1.68484   1
   3   4  -3 6.56200 1.38036   5
   3   4  -3 3.08607 1.11283   5
   3   4  -3 4.80381 1.19443   4
   3   4  -3 5.79337 1.31277   6
  -3  -4   3 6.73443 1.56999   1
  -3  -4   3 5.47577 1.37203   5
  -3  -4   3 4.06309 1.07897   6
  -3  -4   3 6.93532 1.21503   5
  -3  -4   3 4.81333 1.68442   2
  -3  -4   3 5.76369 1.29482   4
   2   4  -3 9.89747 1.34109   6
   2   4  -3 6.71022 1.15856   5
   2   4  -3 10.5181 1.22812   4
   2   4  -3 8.13418 1.30854   5
   2   4  -3 11.0446 1.56269   1
  -2  -4   3 6.87072 1.71936   2
  -2  -4   3 11.2724 1.60052   1
  -2  -4   3 7.44247 1.17507   5
  -2  -4   3 8.05950 1.23531   5
  -2  -4   3 13.0451 1.65734   6
  -2  -4   3 12.1956 1.33174   4
   1   4  -3 181.719 6.00486   5
   1   4  -3 172.802 6.00143   6
   1   4  -3 172.080 5.64365   4
   1   4  -3 169.880 5.81977   1
   1   4  -3 176.286 5.98143   5
   1   4  -3 179.523 5.94689   3
  -1  -4   3 180.866 5.98492   2
  -1  -4   3 177.598 5.92896   5
  -1  -4   3 180.915 5.84854   6
  -1  -4   3 180.515 5.62019   4
  -1  -4   3 172.773 5.83671   1
  -1  -4   3 172.376 5.85414   5
   0   4  -3 38.1988 2.15692   1
   0   4  -3 34.2984 2.39041   6
   0   4  -3 38.7163 2.49048   5
   0   4  -3 37.7692 2.38888   3
   0   4  -3 36.9753 2.13504   4
   0   4  -3 38.0273 2.52849   5
   0  -4   3 35.5026 2.05437   4
   0  -4   3 35.9567 2.18060   1
   0  -4   3 37.7321 2.39818   5
   0  -4   3 39.4757 2.27441   2
   0  -4   3 35.0378 2.43083   5
   0  -4   3 38.1333 2.29086   6
  -1   4  -3 -0.0375 1.08605   5
  -1   4  -3 -1.1874 1.04447   5
  -1   4  -3 -0.7370 0.78777   1
  -1   4  -3 0.54120 0.97365   6
  -1   4  -3 0.08931 0.92340   4
  -1   4  -3 0.85085 1.20606   3
   1  -4   3 1.30306 1.01620   5
   1  -4   3 -1.2962 0.98563   2
   1  -4   3 0.33356 0.77920   1
   1  -4   3 -1.0911 0.99957   6
   1  -4   3 0.72013 0.81493   4
  -2   4  -3 269.154 8.92169   5
  -2   4  -3 284.628 8.87937   5
  -2   4  -3 294.232 9.05191   6
  -2   4  -3 269.079 8.80577   4
  -2   4  -3 286.602 8.97570   3
  -2   4  -3 298.482 8.53493   1
   2  -4   3 285.369 8.48157   1
   2  -4   3 298.704 8.95455   6
   2  -4   3 282.912 8.93158   5
   2  -4   3 287.414 9.01203   5
   2  -4   3 306.740 8.00870   2
   2  -4   3 287.978 8.72425   4
  -3   4  -3 27.0829 2.36822   5
  -3   4  -3 20.6202 2.27850   6
  -3   4  -3 22.5313 1.82947   1
  -3   4  -3 20.9475 2.22580   5
  -3   4  -3 16.9611 1.85511   4
  -3   4  -3 21.5921 2.25432   3
   3  -4   3 25.2977 2.34063   4
   3  -4   3 22.3839 2.16765   5
   3  -4   3 22.6165 1.81475   1
   3  -4   3 19.7867 2.13757   6
   3  -4   3 23.0713 2.06151   5
  -4   4  -3 15.4450 1.77749   6
  -4   4  -3 13.7070 1.61271   5
  -4   4  -3 13.4158 1.63669   5
  -4   4  -3 14.8783 2.27390   3
  -4   4  -3 13.5665 1.43495   1
  -4   4  -3 12.5464 1.91361   4
   4  -4   3 14.1054 1.79417   6
   4  -4   3 13.7508 1.39009   1
   4  -4   3 16.9982 1.86050   5
   4  -4   3 10.9400 1.87726   4
   4  -4   3 13.0907 1.70297   5
  -5   4  -3 54.9126 3.55415   6
  -5   4  -3 53.9313 4.10168   4
  -5   4  -3 62.1634 3.01331   5
  -5   4  -3 53.9484 3.31628   6
  -5   4  -3 55.7587 3.02220   5
  -5   4  -3 56.6979 3.08991   1
  -5   4  -3 56.1588 3.91929   3
   5  -4   3 50.2920 4.16239   4
   5  -4   3 60.3680 2.98206   1
   5  -4   3 53.0038 3.45372   5
   5  -4   3 57.7542 3.46984   6
   5  -4   3 56.8614 3.57887   5
  -6   4  -3 133.402 6.17397   3
  -6   4  -3 135.629 4.15505   5
  -6   4  -3 138.817 4.19573   5
  -6   4  -3 146.850 5.48325   6
  -6   4  -3 125.511 5.11447   6
  -6   4  -3 139.117 6.52579   4
   6  -4   3 134.611 5.65192   5
   6  -4   3 128.409 5.43752   6
   6  -4   3 134.606 5.52778   5
   6  -4   3 138.435 5.19914   1
   6  -4   3 136.355 6.83322   4
  -7   4  -3 97.8147 5.73252   3
  -7   4  -3 88.3847 3.75687   6
  -7   4  -3 97.9962 3.90997   6
   7  -4   3 91.0979 5.03477   5
   7  -4   3 96.1008 4.68224   1
   7  -4   3 100.112 7.41642   4
   7  -4   3 95.8790 4.99728   5
   7  -4   3 88.1190 4.93451   6
  -8   4  -3 76.6285 5.72006   3
   8  -4   3 71.4519 4.93981   1
   8  -4   3 77.8341 5.38869   5
   8  -4   3 68.7864 5.02004   5
   8   3  -3 119.647 6.76874   4
   8   3  -3 96.4510 5.28333   5
   8   3  -3 110.930 4.65897   5
  -8  -3   3 99.1309 7.02648   2
   7   3  -3 18.5210 1.88396   6
   7   3  -3 18.8845 2.08444   5
   7   3  -3 14.4169 3.85867   1
   7   3  -3 17.5600 1.94453   6
   7   3  -3 25.7304 2.90369   4
   7   3  -3 19.2007 2.03683   5
  -7  -3   3 11.4679 2.99463   2
   6   3  -3 27.3032 2.98624   6
   6   3  -3 29.1328 2.69440   5
   6   3  -3 29.2609 3.49076   1
   6   3  -3 31.4238 2.66852   6
   6   3  -3 27.0600 2.55824   5
   6   3  -3 33.2801 3.17549   4
  -6  -3   3 26.2004 3.24690   2
   5   3  -3 3.01299 1.25700   5
   5   3  -3 2.79605 1.17307   5
   5   3  -3 2.92045 1.37277   4
   5   3  -3 2.46964 2.10821   1
   5   3  -3 4.59413 1.35924   6
   5   3  -3 3.07853 1.40925   6
  -5  -3   3 4.47536 2.09665   2
  -5  -3   3 3.53660 0.81154   6
  -5  -3   3 3.55815 0.70112   6
   4   3  -3 -0.8356 0.94844   4
   4   3  -3 0.97631 0.95332   5
   4   3  -3 -2.2499 1.61381   1
   4   3  -3 0.55544 0.97554   6
   4   3  -3 -1.0007 0.93539   5
   4   3  -3 0.04732 1.09934   6
  -4  -3   3 1.34320 1.65441   2
  -4  -3   3 0.34862 0.70044   6
  -4  -3   3 -0.3884 0.60968   5
  -4  -3   3 -0.5722 1.40544   1
  -4  -3   3 0.25804 0.62006   5
   3   3  -3 86.5912 3.44735   6
   3   3  -3 87.2910 3.46437   5
   3   3  -3 87.3018 3.74542   1
   3   3  -3 88.5728 3.49157   5
   3   3  -3 92.1237 3.45197   4
  -3  -3   3 86.3500 4.12489   2
  -3  -3   3 91.1719 3.26675   6
  -3  -3   3 91.3205 3.52330   4
  -3  -3   3 93.5052 3.27877   5
  -3  -3   3 97.1007 3.22627   5
  -3  -3   3 85.7575 3.72562   1
   2   3  -3 298.062 8.98125   6
   2   3  -3 299.486 9.02298   5
   2   3  -3 302.141 8.99632   5
   2   3  -3 302.049 9.07596   1
   2   3  -3 301.890 8.83114   4
  -2  -3   3 296.160 9.27612   2
  -2  -3   3 305.139 9.09709   1
  -2  -3   3 305.273 8.84345   4
  -2  -3   3 305.938 8.84508   6
  -2  -3   3 304.434 8.86002   5
  -2  -3   3 298.025 8.90602   5
   1   3  -3 113.360 4.04366   6
   1   3  -3 116.142 4.04926   5
   1   3  -3 113.877 4.09715   5
   1   3  -3 114.175 3.99579   1
   1   3  -3 118.840 3.84347   4
  -1  -3   3 117.006 4.14287   2
  -1  -3   3 109.731 4.00737   5
  -1  -3   3 113.207 3.93508   6
  -1  -3   3 110.756 3.97454   1
  -1  -3   3 113.936 3.78280   4
  -1  -3   3 108.120 3.94213   5
   0   3  -3 184.332 5.91768   5
   0   3  -3 178.989 5.65847   4
   0   3  -3 173.381 5.87138   6
   0   3  -3 182.489 5.90101   5
   0   3  -3 186.480 5.73552   1
   0   3  -3 187.002 5.81812   3
   0  -3   3 184.240 5.83361   6
   0  -3   3 181.912 5.87110   5
   0  -3   3 200.208 5.72351   2
   0  -3   3 184.040 5.71860   1
   0  -3   3 182.394 5.91980   5
   0  -3   3 189.142 5.63488   4
  -1   3  -3 259.307 7.96586   5
  -1   3  -3 263.721 7.86880   3
  -1   3  -3 261.759 7.96335   5
  -1   3  -3 263.838 7.82823   4
  -1   3  -3 262.310 7.71759   1
  -1   3  -3 248.995 7.95179   6
   1  -3   3 266.628 7.99028   5
   1  -3   3 261.077 7.71676   4
   1  -3   3 274.973 7.42937   2
   1  -3   3 262.165 8.04092   5
   1  -3   3 264.892 7.93013   6
   1  -3   3 256.413 7.70582   1
  -2   3  -3 21.4588 1.80557   5
  -2   3  -3 25.5483 1.68838   1
  -2   3  -3 22.3705 1.76683   4
  -2   3  -3 24.4433 2.01434   3
  -2   3  -3 24.5447 1.86908   5
  -2   3  -3 21.6676 1.78617   6
   2  -3   3 24.9928 1.78850   4
   2  -3   3 20.0750 1.55768   1
   2  -3   3 25.0143 1.75986   6
   2  -3   3 20.6286 1.87926   5
  -3   3  -3 186.149 6.22070   4
  -3   3  -3 187.042 5.90412   5
  -3   3  -3 192.898 5.97961   5
  -3   3  -3 181.773 6.11090   6
  -3   3  -3 184.728 6.06182   6
  -3   3  -3 188.776 5.82576   1
   3  -3   3 184.971 6.06607   4
   3  -3   3 182.834 6.10596   5
   3  -3   3 183.566 5.77606   1
   3  -3   3 181.331 5.99017   6
  -4   3  -3 109.159 4.03686   1
  -4   3  -3 111.756 3.94040   5
  -4   3  -3 104.854 4.08819   6
  -4   3  -3 110.580 4.26702   6
  -4   3  -3 109.332 4.56490   3
  -4   3  -3 99.0218 4.50218   4
   4  -3   3 113.902 4.00535   1
   4  -3   3 112.754 4.53344   4
   4  -3   3 107.011 4.25341   5
  -5   3  -3 3.31200 0.94595   5
  -5   3  -3 2.24561 1.17189   6
  -5   3  -3 2.27586 1.27566   6
  -5   3  -3 0.78123 1.79131   3
  -5   3  -3 2.02352 1.71903   4
  -5   3  -3 1.73076 0.90863   5
   5  -3   3 2.44412 1.20278   6
   5  -3   3 -0.1549 1.16906   5
   5  -3   3 0.45186 1.18006   1
   5  -3   3 1.74488 1.23715   5
   5  -3   3 -0.4451 1.86463   4
  -6   3  -3 46.3006 4.19944   4
  -6   3  -3 41.4489 2.43500   6
  -6   3  -3 40.0125 3.83322   3
  -6   3  -3 41.4425 2.51024   6
   6  -3   3 40.5628 3.03185   5
   6  -3   3 35.7366 3.29631   4
   6  -3   3 35.4463 3.57904   5
   6  -3   3 37.3845 2.87118   6
   6  -3   3 41.4026 3.13502   1
  -7   3  -3 18.6787 3.00479   3
   7  -3   3 14.7685 2.15323   5
   7  -3   3 13.6198 2.12924   5
   7  -3   3 14.7031 2.34333   1
   7  -3   3 12.3907 3.70725   4
   7  -3   3 13.0243 1.92757   6
  -8   3  -3 10.4777 3.15382   3
   8  -3   3 10.7473 2.80599   1
   8  -3   3 14.8207 5.08406   4
   8  -3   3 12.2831 2.29462   5
   8  -3   3 11.3428 2.49126   5
  -9   3  -3 132.898 7.24871   3
   9  -3   3 141.094 7.68785   1
   9  -3   3 126.840 6.06598   5
   9  -3   3 126.962 6.40566   5
   9   2  -3 2.21570 3.98826   4
  -9  -2   3 1.98099 3.60260   2
   8   2  -3 -8.2531 4.71072   4
   8   2  -3 -2.4732 2.82956   4
   8   2  -3 -0.0261 4.42987   1
   8   2  -3 -0.7217 1.48948   5
  -8  -2   3 -0.8812 2.65787   3
  -8  -2   3 1.30434 2.97914   2
   7   2  -3 103.022 3.91492   5
   7   2  -3 90.2030 6.35160   1
   7   2  -3 103.157 3.90933   5
   7   2  -3 101.014 5.19307   4
  -7  -2   3 100.352 5.51590   3
  -7  -2   3 101.236 5.89798   2
   6   2  -3 56.3484 3.47090   4
   6   2  -3 58.7549 2.82747   5
   6   2  -3 57.5706 2.98994   6
   6   2  -3 57.4401 2.83859   6
   6   2  -3 61.3287 4.46347   1
  -6  -2   3 58.3684 4.02917   3
  -6  -2   3 56.6558 4.33667   2
   5   2  -3 212.972 6.61064   6
   5   2  -3 206.099 6.46185   5
   5   2  -3 214.182 6.47099   6
   5   2  -3 223.582 7.37162   1
   5   2  -3 212.247 6.50055   5
   5   2  -3 208.995 6.90419   4
  -5  -2   3 207.408 7.50891   3
  -5  -2   3 203.661 7.66099   2
   4   2  -3 55.0532 2.75672   4
   4   2  -3 57.9743 2.51490   5
   4   2  -3 58.2841 3.19582   1
   4   2  -3 56.6695 2.59480   6
   4   2  -3 55.3656 2.43338   6
   4   2  -3 55.3050 2.43373   5
  -4  -2   3 54.2258 3.38314   2
  -4  -2   3 56.2797 2.08726   6
  -4  -2   3 55.0234 3.24322   3
  -4  -2   3 55.3867 3.10346   1
   3   2  -3 14.9767 1.55365   1
   3   2  -3 13.7607 1.31966   6
   3   2  -3 14.0515 1.32280   6
   3   2  -3 12.6354 1.36031   5
   3   2  -3 13.8973 1.22437   4
   3   2  -3 13.0816 1.41205   5
  -3  -2   3 15.6360 1.51351   1
  -3  -2   3 12.9360 1.14200   5
  -3  -2   3 12.8014 1.74256   2
  -3  -2   3 12.0632 1.16424   6
  -3  -2   3 14.9765 1.22700   5
  -3  -2   3 13.5080 1.41064   4
  -3  -2   3 11.4836 1.57027   3
   2   2  -3 4.85255 0.85313   6
   2   2  -3 6.71938 0.84085   6
   2   2  -3 7.07914 0.89521   4
   2   2  -3 5.26084 0.79427   5
   2   2  -3 5.35935 0.91388   1
   2   2  -3 5.92374 0.84946   5
  -2  -2   3 7.64219 0.82574   6
  -2  -2   3 7.19291 0.88892   4
  -2  -2   3 7.28698 1.37169   2
  -2  -2   3 5.16287 0.79464   5
  -2  -2   3 7.44231 0.87008   5
  -2  -2   3 4.97083 0.88958   1
   1   2  -3 0.53177 0.63966   5
   1   2  -3 0.75154 0.53138   4
   1   2  -3 0.35543 0.66032   1
   1   2  -3 0.55989 0.56222   5
   1   2  -3 0.35977 0.48538   6
  -1  -2   3 0.64329 0.48950   4
  -1  -2   3 2.41902 0.97320   2
  -1  -2   3 1.05670 0.46675   6
  -1  -2   3 -0.2788 0.47800   5
  -1  -2   3 0.07189 0.53296   5
  -1  -2   3 0.59814 0.59951   1
   0   2  -3 129.197 4.32270   6
   0   2  -3 136.793 4.27763   1
   0   2  -3 129.884 4.35371   5
   0   2  -3 138.775 4.17690   4
   0   2  -3 134.677 4.37119   5
   0  -2   3 134.921 4.39734   5
   0  -2   3 128.913 4.32166   5
   0  -2   3 135.738 4.29102   6
   0  -2   3 139.629 4.20712   2
   0  -2   3 133.625 4.12970   4
   0  -2   3 134.013 4.26062   1
  -1   2  -3 212.298 6.73508   6
  -1   2  -3 228.543 6.65015   1
  -1   2  -3 226.212 6.89119   6
  -1   2  -3 223.460 6.74600   5
  -1   2  -3 226.883 6.62518   4
  -1   2  -3 226.207 6.76183   5
  -1   2  -3 233.573 6.62065   3
   1  -2   3 221.032 6.75781   5
   1  -2   3 217.698 6.61411   1
   1  -2   3 230.159 6.71780   6
   1  -2   3 222.005 6.54591   4
   1  -2   3 216.255 6.76836   5
  -2   2  -3 -0.4362 0.67327   5
  -2   2  -3 -0.8319 0.92044   3
  -2   2  -3 0.06234 0.54480   6
  -2   2  -3 -0.0572 0.66520   4
  -2   2  -3 0.66121 0.65479   5
  -2   2  -3 0.75754 0.63783   1
   2  -2   3 -0.2399 0.68484   1
   2  -2   3 0.10640 0.62940   6
   2  -2   3 0.17591 0.60246   5
   2  -2   3 -0.0164 0.60104   5
   2  -2   3 -0.1434 0.64505   4
  -3   2  -3 256.677 7.54321   1
  -3   2  -3 253.727 7.38981   5
  -3   2  -3 259.383 7.66660   3
  -3   2  -3 251.716 7.41959   5
  -3   2  -3 244.536 7.64477   6
  -3   2  -3 241.173 7.49929   6
  -3   2  -3 252.712 7.72308   4
   3  -2   3 251.319 7.46894   6
   3  -2   3 258.302 7.55336   1
   3  -2   3 243.035 7.53212   5
   3  -2   3 250.155 7.62525   4
   3  -2   3 254.014 7.59360   5
  -4   2  -3 18.9099 1.64406   6
  -4   2  -3 20.1250 1.91037   4
  -4   2  -3 20.9721 1.77514   2
  -4   2  -3 22.0962 1.86122   6
  -4   2  -3 22.3572 2.34790   3
  -4   2  -3 20.7761 1.44003   5
  -4   2  -3 22.5839 2.09184   1
  -4   2  -3 20.0526 1.44355   5
   4  -2   3 20.6749 1.71914   6
   4  -2   3 20.5105 1.89167   1
   4  -2   3 19.4766 1.80629   5
   4  -2   3 18.6562 1.79075   5
   4  -2   3 18.0158 1.70523   4
  -5   2  -3 60.8423 3.63446   4
  -5   2  -3 66.9178 2.71235   6
  -5   2  -3 64.5135 3.58600   3
  -5   2  -3 61.9757 2.61952   6
  -5   2  -3 64.3885 3.02551   2
   5  -2   3 58.0671 2.70937   6
   5  -2   3 62.1540 2.87942   5
   5  -2   3 60.1898 2.94284   5
   5  -2   3 63.4351 3.78358   4
   5  -2   3 63.4247 3.30273   1
  -6   2  -3 51.3488 3.72607   3
   6  -2   3 57.4955 3.14219   5
   6  -2   3 55.8450 2.96508   5
   6  -2   3 62.5562 4.35227   4
   6  -2   3 54.8497 3.63597   1
   6  -2   3 56.2750 2.75854   6
  -7   2  -3 143.179 6.14181   3
   7  -2   3 141.093 6.27508   1
   7  -2   3 150.308 5.43964   5
   7  -2   3 146.200 5.28145   5
   7  -2   3 151.349 7.26764   4
   7  -2   3 141.382 4.90764   6
  -8   2  -3 83.2653 5.29756   3
   8  -2   3 80.8697 6.00027   1
   8  -2   3 80.9006 3.69284   6
   8  -2   3 76.7634 3.92399   5
   8  -2   3 86.3963 4.27513   5
   8  -2   3 86.3964 7.93773   4
  -9   2  -3 50.8833 5.44200   3
   9  -2   3 46.9171 3.67681   5
   9  -2   3 51.4298 4.21364   5
   9  -2   3 44.5765 4.76507   1
   9   1  -3 1.23052 4.09189   1
   9   1  -3 -4.1279 5.73840   1
   9   1  -3 1.24969 3.64977   4
  -9  -1   3 -0.0629 3.03642   3
   8   1  -3 8.81648 3.57078   1
   8   1  -3 -3.2285 4.33271   4
   8   1  -3 1.83322 2.74282   4
   8   1  -3 -0.5924 1.25153   5
   8   1  -3 1.87615 1.27110   5
  -8  -1   3 -1.1221 2.69842   3
  -8  -1   3 1.67401 2.87248   2
   7   1  -3 276.930 9.56636   4
   7   1  -3 280.832 8.22477   5
   7   1  -3 284.940 8.21117   5
   7   1  -3 280.181 10.5022   4
   7   1  -3 290.966 9.82455   1
  -7  -1   3 274.579 9.99102   3
  -7  -1   3 267.289 10.1126   2
   6   1  -3 22.8240 2.27452   4
   6   1  -3 26.6991 2.06798   6
   6   1  -3 25.5732 1.94230   5
   6   1  -3 27.4434 1.88557   5
   6   1  -3 34.1692 2.77122   1
   6   1  -3 28.8527 1.90963   6
  -6  -1   3 30.8703 3.09337   3
  -6  -1   3 26.6956 3.09616   2
   5   1  -3 34.7782 2.58841   4
   5   1  -3 33.3577 2.84089   1
   5   1  -3 33.8127 1.96442   5
   5   1  -3 31.8447 2.08902   6
   5   1  -3 36.4637 1.86657   5
   5   1  -3 38.3541 1.83447   6
  -5  -1   3 31.4221 3.23568   2
  -5  -1   3 36.2221 3.09530   3
   4   1  -3 28.1490 1.56287   6
   4   1  -3 31.7983 1.86433   6
   4   1  -3 26.4365 1.61179   5
   4   1  -3 27.0496 2.01913   4
   4   1  -3 30.0330 2.27159   1
   4   1  -3 29.2835 1.67480   5
  -4  -1   3 29.2067 2.15119   1
  -4  -1   3 28.6464 2.55335   3
  -4  -1   3 31.3788 2.60687   2
  -4  -1   3 31.0475 1.39180   6
   3   1  -3 38.1722 1.83208   5
   3   1  -3 41.0756 2.00455   4
   3   1  -3 38.1881 1.79098   5
   3   1  -3 40.2115 1.73117   6
   3   1  -3 40.4541 2.10704   1
   3   1  -3 41.9429 2.02739   6
  -3  -1   3 37.3161 2.26076   1
  -3  -1   3 40.9898 1.66533   5
  -3  -1   3 41.2621 1.60271   5
  -3  -1   3 39.3666 2.51185   2
  -3  -1   3 39.2861 1.65569   6
  -3  -1   3 37.7987 2.33652   3
   2   1  -3 207.038 6.32451   5
   2   1  -3 221.770 6.38910   5
   2   1  -3 215.800 6.42405   1
   2   1  -3 213.069 6.29491   6
   2   1  -3 207.665 6.48962   6
   2   1  -3 217.882 6.35532   4
  -2  -1   3 213.895 6.26289   5
  -2  -1   3 212.056 6.21815   6
  -2  -1   3 206.652 6.40961   1
  -2  -1   3 218.411 6.68934   2
  -2  -1   3 220.547 6.67818   3
  -2  -1   3 218.215 6.32641   5
  -2  -1   3 226.599 6.43814   4
   1   1  -3 799.916 22.2492   5
   1   1  -3 785.950 22.1830   6
   1   1  -3 824.107 22.2396   1
   1   1  -3 809.453 22.3919   6
   1   1  -3 797.322 22.2572   5
   1   1  -3 788.455 22.1080   4
  -1  -1   3 792.569 22.1571   6
  -1  -1   3 828.217 22.2663   5
  -1  -1   3 817.937 22.2234   5
  -1  -1   3 811.471 22.1193   4
  -1  -1   3 861.351 22.3112   3
  -1  -1   3 809.992 22.2301   1
  -1  -1   3 875.056 22.3527   2
   0   1  -3 391.054 11.2038   5
   0   1  -3 406.242 11.1554   1
   0   1  -3 410.087 11.2321   5
   0   1  -3 399.239 10.9848   4
   0   1  -3 400.479 11.3421   6
   0   1  -3 382.175 11.1365   6
   0  -1   3 387.133 11.1723   5
   0  -1   3 406.527 11.2371   5
   0  -1   3 398.641 11.1241   6
   0  -1   3 392.104 11.3283   6
   0  -1   3 409.922 10.9833   4
   0  -1   3 395.663 11.1408   1
  -1   1  -3 87.7471 2.93823   5
  -1   1  -3 89.1611 2.71481   3
  -1   1  -3 83.9275 3.07328   6
  -1   1  -3 86.1293 2.94309   1
  -1   1  -3 92.0779 2.73720   2
  -1   1  -3 84.9609 2.93080   5
  -1   1  -3 88.6511 2.77676   4
  -1   1  -3 82.8839 2.88125   6
   1  -1   3 85.6624 3.07561   6
   1  -1   3 80.8095 2.93267   5
   1  -1   3 85.6909 2.86518   6
   1  -1   3 83.5570 2.93105   5
   1  -1   3 81.0560 2.90600   1
   1  -1   3 81.4654 2.70152   4
  -2   1  -3 456.300 11.9761   2
  -2   1  -3 443.810 12.2613   5
  -2   1  -3 420.669 12.2470   6
  -2   1  -3 436.030 12.2467   5
  -2   1  -3 429.832 12.3525   1
  -2   1  -3 457.219 12.2483   3
  -2   1  -3 433.065 12.2613   4
  -2   1  -3 444.731 12.4277   6
   2  -1   3 441.791 12.2333   6
   2  -1   3 425.612 12.3156   5
   2  -1   3 432.899 12.3655   1
   2  -1   3 445.403 12.1901   4
   2  -1   3 434.338 12.3054   5
  -3   1  -3 10.5699 1.27809   3
  -3   1  -3 9.22188 1.08874   2
  -3   1  -3 8.48603 0.85127   5
  -3   1  -3 6.46034 0.96686   4
  -3   1  -3 6.68682 0.80998   6
  -3   1  -3 7.29872 0.81582   5
  -3   1  -3 7.82432 1.10996   1
  -3   1  -3 8.28378 1.02329   6
   3  -1   3 8.19532 1.09278   1
   3  -1   3 6.49028 0.85121   5
   3  -1   3 8.48463 0.86237   6
   3  -1   3 7.03972 0.99029   4
   3  -1   3 6.79684 0.87333   5
  -4   1  -3 165.158 5.28690   2
  -4   1  -3 169.006 5.41786   3
  -4   1  -3 158.976 5.46928   4
  -4   1  -3 163.957 5.03279   6
  -4   1  -3 156.521 4.95281   6
   4  -1   3 166.696 5.18359   5
   4  -1   3 165.936 5.45880   4
   4  -1   3 163.837 5.02717   6
   4  -1   3 158.058 5.11265   5
   4  -1   3 168.446 5.55349   1
  -5   1  -3 30.7378 2.62627   2
  -5   1  -3 34.5704 2.68001   3
   5  -1   3 30.9230 1.94546   5
   5  -1   3 28.0847 2.66020   1
   5  -1   3 30.3305 2.78327   4
   5  -1   3 29.3262 2.06894   5
   5  -1   3 32.7050 1.81645   6
  -6   1  -3 5.00033 1.94952   2
  -6   1  -3 3.69441 1.76640   3
   6  -1   3 3.37794 1.07050   6
   6  -1   3 1.81795 2.65490   4
   6  -1   3 2.06861 1.71161   1
   6  -1   3 3.13177 1.18977   5
   6  -1   3 2.57075 1.12022   5
  -7   1  -3 22.2348 2.70476   3
  -7   1  -3 22.2242 2.98571   2
   7  -1   3 20.4719 2.94696   1
   7  -1   3 18.5643 1.83982   6
   7  -1   3 25.1271 3.13012   4
   7  -1   3 18.7020 1.71383   5
   7  -1   3 21.4884 1.91414   5
  -8   1  -3 15.4873 2.87018   3
  -8   1  -3 15.8860 3.38394   2
   8  -1   3 18.4563 1.88686   5
   8  -1   3 18.6906 1.97232   5
   8  -1   3 21.9439 4.27562   1
   8  -1   3 19.7723 3.51273   1
   8  -1   3 13.5454 4.07076   4
  -9   1  -3 4.61230 3.20422   3
   9  -1   3 8.27809 4.29965   1
   9  -1   3 14.1460 6.92217   4
   9   0  -3 6.86469 3.80765   4
   9   0  -3 -3.5447 4.78911   1
   9   0  -3 -3.1525 3.59379   1
  -9   0   3 0.73248 3.02236   3
   8   0  -3 3.38945 1.33868   5
   8   0  -3 -0.1814 4.30295   4
   8   0  -3 4.22153 2.63352   4
   8   0  -3 0.82489 3.05023   1
   8   0  -3 2.10709 1.28337   5
  -8   0   3 1.54299 2.55692   3
   7   0  -3 3.91969 2.30196   1
   7   0  -3 3.41051 1.25903   5
   7   0  -3 1.84287 3.06393   4
   7   0  -3 2.98797 2.57803   4
   7   0  -3 4.99933 1.23475   5
  -7   0   3 5.99977 2.53582   3
   6   0  -3 236.791 7.20108   6
   6   0  -3 238.123 7.20782   5
   6   0  -3 243.243 7.18458   5
   6   0  -3 241.645 8.82771   4
   6   0  -3 247.639 7.03344   6
   6   0  -3 254.573 7.96597   1
   6   0  -3 235.318 8.08658   4
  -6   0   3 247.393 8.64621   3
  -6   0   3 242.638 8.61551   2
   5   0  -3 54.6523 3.04267   6
   5   0  -3 61.8132 3.03724   1
   5   0  -3 62.8917 2.32606   6
   5   0  -3 59.7552 2.41368   5
   5   0  -3 58.7293 3.16125   4
   5   0  -3 61.7627 2.48174   5
  -5   0   3 58.2012 3.60602   2
  -5   0   3 61.1622 3.71421   3
   4   0  -3 314.267 9.13020   5
   4   0  -3 315.543 9.22614   6
   4   0  -3 323.963 9.02438   6
   4   0  -3 320.579 9.32732   1
   4   0  -3 317.629 9.08494   5
   4   0  -3 311.877 9.50460   4
  -4   0   3 315.341 9.85913   2
  -4   0   3 323.079 8.93636   6
  -4   0   3 321.441 9.94693   3
  -4   0   3 323.198 9.32130   1
   3   0  -3 183.193 5.52106   5
   3   0  -3 163.091 5.78518   5
   3   0  -3 188.386 5.45322   6
   3   0  -3 180.577 5.72114   4
   3   0  -3 189.076 5.62672   1
   3   0  -3 185.873 5.69422   6
  -3   0   3 185.044 5.37686   5
  -3   0   3 190.427 5.41021   5
  -3   0   3 184.106 5.59678   6
  -3   0   3 188.735 5.44830   6
  -3   0   3 194.130 6.17377   3
  -3   0   3 184.282 5.60437   1
   2   0  -3 8.91188 0.86498   4
   2   0  -3 7.94668 0.79387   1
   2   0  -3 9.54210 0.96186   5
   2   0  -3 7.91823 0.82632   5
   2   0  -3 8.20838 0.80530   6
   2   0  -3 6.29500 0.79832   6
  -2   0   3 8.78753 0.92686   5
  -2   0   3 8.03443 0.89868   6
  -2   0   3 10.8371 0.96232   1
  -2   0   3 9.35559 0.89865   5
  -2   0   3 8.34133 0.83818   6
  -2   0   3 7.22635 1.09031   3
   1   0  -3 8.76491 0.94118   6
   1   0  -3 8.92117 0.79463   6
   1   0  -3 8.64084 0.87203   1
   1   0  -3 9.12417 0.91971   5
   1   0  -3 9.14463 0.73821   4
   1   0  -3 10.0503 0.99578   5
  -1   0   3 10.1484 0.88834   5
  -1   0   3 9.94215 0.93025   5
  -1   0   3 9.30802 1.05945   6
  -1   0   3 8.48239 0.79015   6
  -1   0   3 8.64831 0.81118   4
  -1   0   3 9.20691 0.96925   3
  -1   0   3 8.51642 0.77133   1
   0   0  -3 24.2655 1.23375   1
   0   0  -3 24.3016 1.42654   6
   0   0  -3 29.1015 1.55704   2
   0   0  -3 25.8208 1.23340   6
   0   0  -3 24.1516 1.30889   5
   0   0  -3 24.6503 1.00179   4
   0   0   3 23.2472 1.24016   1
   0   0   3 25.9188 1.31138   5
   0   0   3 24.1374 1.32564   5
   0   0   3 25.9830 1.01823   4
   0   0   3 26.5326 1.22349   6
   0   0   3 25.4934 1.19984   3
  -1   0  -3 52.1864 2.07341   5
  -1   0  -3 52.2586 2.12177   1
  -1   0  -3 53.7437 2.01072   6
  -1   0  -3 56.4538 1.81369   4
  -1   0  -3 58.4492 2.14042   2
   1   0   3 55.0341 2.16518   1
   1   0   3 57.3172 2.01600   6
   1   0   3 54.8220 2.22348   6
   1   0   3 55.0564 2.11828   5
   1   0   3 53.9718 1.75016   4
   1   0   3 52.8320 2.08407   5
  -2   0  -3 250.196 7.19359   6
  -2   0  -3 233.763 6.98189   6
  -2   0  -3 257.785 7.12725   2
  -2   0  -3 236.437 7.25885   1
  -2   0  -3 246.924 6.95059   4
  -2   0  -3 239.187 7.01125   5
  -2   0  -3 252.064 6.71448   3
  -2   0  -3 247.417 7.01844   5
   2   0   3 239.930 6.99569   6
   2   0   3 234.985 7.26846   1
   2   0   3 245.848 7.24928   6
   2   0   3 241.926 7.07591   5
   2   0   3 243.381 6.87797   4
   2   0   3 236.909 7.09625   5
  -3   0  -3 6.29043 0.72160   6
  -3   0  -3 8.88886 0.89862   6
  -3   0  -3 7.68350 0.70534   5
  -3   0  -3 9.38813 1.04049   3
  -3   0  -3 6.01781 1.19152   2
  -3   0  -3 7.39081 0.89754   4
  -3   0  -3 7.36160 0.70171   5
   3   0   3 6.80932 0.82805   5
   3   0   3 6.14234 0.73512   6
   3   0   3 7.78676 1.13012   1
   3   0   3 8.02555 0.96932   6
   3   0   3 8.80041 0.92206   4
   3   0   3 6.86623 0.85096   5
  -4   0  -3 78.5664 3.42606   2
  -4   0  -3 76.4482 2.57554   6
  -4   0  -3 81.3472 2.66905   6
  -4   0  -3 80.1069 3.07336   3
   4   0   3 77.9321 2.89619   5
   4   0   3 82.1270 3.53653   1
   4   0   3 75.7103 2.83563   5
   4   0   3 76.4600 3.00382   6
   4   0   3 77.9919 3.18754   4
   4   0   3 80.4091 2.74278   6
  -5   0  -3 7.16481 2.51496   3
  -5   0  -3 7.88488 1.81371   2
   5   0   3 7.04542 0.94920   6
   5   0   3 9.60837 1.58978   4
   5   0   3 7.86029 1.07321   5
   5   0   3 8.55367 1.06972   5
   5   0   3 8.05174 1.62903   1
  -6   0  -3 85.4046 4.36752   2
  -6   0  -3 80.0220 3.84360   3
   6   0   3 90.9187 4.47737   4
   6   0   3 77.6107 2.94004   6
   6   0   3 79.6825 3.23180   5
   6   0   3 86.2511 4.56516   1
   6   0   3 78.7150 3.11748   5
  -7   0  -3 32.7768 3.45717   3
  -7   0  -3 31.7907 3.30903   2
   7   0   3 35.1418 3.45240   4
   7   0   3 35.5075 2.37011   5
   7   0   3 30.5179 5.02119   1
   7   0   3 37.2537 2.52026   5
  -8   0  -3 103.132 5.54987   3
  -8   0  -3 108.463 6.37494   2
   8   0   3 100.163 7.62765   4
   8   0   3 115.023 7.35398   1
   8   0   3 101.192 4.00313   5
   8   0   3 106.481 3.84888   5
   8   0   3 104.949 5.94830   4
   8   0   3 103.093 8.63619   1
  -9   0  -3 62.7824 6.75859   2
   9   0   3 65.8381 6.16271   1
   9   0   3 65.1854 6.42143   4
   9  -1  -3 4.75126 4.29424   1
   9  -1  -3 -2.2056 1.54629   5
   9  -1  -3 0.37253 3.63298   5
   9  -1  -3 -3.9669 3.87390   4
   9  -1  -3 -2.2559 2.85877   1
  -9   1   3 0.88768 3.04274   3
   8  -1  -3 0.64757 4.48260   4
   8  -1  -3 -1.1571 1.44209   5
   8  -1  -3 2.03478 2.10247   1
   8  -1  -3 -1.8187 1.26959   5
   8  -1  -3 -0.2065 2.76486   4
   8  -1  -3 0.80443 2.46889   1
  -8   1   3 0.04674 2.57568   3
   7  -1  -3 1.32813 1.15311   5
   7  -1  -3 -0.8075 3.03593   4
   7  -1  -3 0.97388 1.33049   6
   7  -1  -3 1.08334 1.20486   5
   7  -1  -3 0.59841 1.77874   1
   7  -1  -3 0.64820 2.15392   4
   7  -1  -3 1.48103 1.22215   6
  -7   1   3 -2.2427 2.21922   3
   6  -1  -3 498.325 15.5217   4
   6  -1  -3 491.169 14.0548   6
   6  -1  -3 512.220 14.0875   5
   6  -1  -3 499.965 14.2743   1
   6  -1  -3 502.224 14.0041   5
   6  -1  -3 496.596 13.8156   6
  -6   1   3 481.711 15.3144   3
   5  -1  -3 43.4903 2.63925   6
   5  -1  -3 47.3905 2.18658   5
   5  -1  -3 48.6319 2.06626   6
   5  -1  -3 48.2916 2.44243   1
   5  -1  -3 48.6355 3.51746   4
   5  -1  -3 50.2126 2.33170   5
  -5   1   3 46.9566 1.99676   6
  -5   1   3 43.0895 3.38708   3
   4  -1  -3 19.3846 1.54934   5
   4  -1  -3 17.3450 1.47050   1
   4  -1  -3 18.7737 1.69367   6
   4  -1  -3 18.7555 1.29566   6
   4  -1  -3 17.5497 1.37290   5
  -4   1   3 19.0462 1.15361   5
  -4   1   3 17.9565 2.04507   3
  -4   1   3 18.2440 1.51263   6
  -4   1   3 16.8660 1.39598   6
  -4   1   3 19.8858 1.14722   5
  -4   1   3 16.5774 1.46919   1
   3  -1  -3 131.406 4.38703   6
   3  -1  -3 131.546 4.28477   5
   3  -1  -3 133.728 4.23875   5
   3  -1  -3 132.987 4.07059   1
   3  -1  -3 131.500 4.16579   6
  -3   1   3 136.942 4.17333   5
  -3   1   3 131.585 4.97354   6
  -3   1   3 133.971 4.15121   5
  -3   1   3 135.702 4.81292   3
  -3   1   3 134.744 4.08691   1
  -3   1   3 133.652 4.37871   6
   2  -1  -3 145.112 4.64781   6
   2  -1  -3 143.640 4.47846   5
   2  -1  -3 140.744 4.41870   6
   2  -1  -3 144.461 4.52951   5
   2  -1  -3 142.659 4.26457   1
  -2   1   3 143.051 4.64694   6
  -2   1   3 144.594 4.47738   5
  -2   1   3 144.939 4.27599   1
  -2   1   3 147.904 4.85938   3
   1  -1  -3 202.405 6.07265   2
   1  -1  -3 192.871 5.63714   1
   1  -1  -3 195.578 5.88007   5
   1  -1  -3 182.971 5.78932   6
   1  -1  -3 198.751 5.98205   6
   1  -1  -3 198.564 5.84111   5
  -1   1   3 198.659 5.64961   1
  -1   1   3 194.023 5.98417   6
  -1   1   3 198.372 5.79948   6
  -1   1   3 198.884 5.87304   3
  -1   1   3 187.543 5.80656   5
  -1   1   3 196.727 5.85823   5
   0  -1  -3 693.142 18.9117   1
   0  -1  -3 701.013 19.0861   2
   0  -1  -3 625.389 19.1986   5
   0  -1  -3 687.810 19.1324   6
   0  -1  -3 715.453 19.0426   5
   0  -1  -3 681.355 18.9217   6
   0   1   3 726.029 18.7474   3
   0   1   3 710.110 18.9350   1
   0   1   3 675.889 18.9871   5
   0   1   3 693.710 19.0424   5
   0   1   3 706.452 18.9661   6
  -1  -1  -3 457.428 12.8156   6
  -1  -1  -3 519.471 13.0459   2
  -1  -1  -3 467.722 12.9724   1
  -1  -1  -3 454.981 12.8999   5
  -1  -1  -3 467.815 12.3794   4
   1   1   3 442.110 12.3461   4
   1   1   3 444.090 13.0243   6
   1   1   3 470.945 12.4053   3
   1   1   3 462.343 12.9361   5
   1   1   3 458.956 12.8422   6
   1   1   3 444.231 12.8822   5
   1   1   3 459.245 12.9825   1
  -2  -1  -3 9.55546 1.25190   2
  -2  -1  -3 12.4342 0.96007   6
  -2  -1  -3 12.7406 1.13797   5
  -2  -1  -3 12.4594 1.01448   5
   2   1   3 11.8042 0.67978   4
   2   1   3 12.4707 1.07312   6
   2   1   3 11.1612 1.04448   5
   2   1   3 10.0561 1.14150   1
   2   1   3 8.82185 0.97888   6
   2   1   3 11.7929 1.16386   5
  -3  -1  -3 364.875 10.6846   2
  -3  -1  -3 364.311 10.0059   5
  -3  -1  -3 359.400 10.2688   6
  -3  -1  -3 370.557 9.99284   5
  -3  -1  -3 358.850 10.0999   6
   3   1   3 351.762 10.2502   5
   3   1   3 369.912 10.1036   4
   3   1   3 363.512 10.4492   6
   3   1   3 366.867 10.7670   1
   3   1   3 354.404 10.3020   5
   3   1   3 361.859 10.2231   6
  -4  -1  -3 14.6107 1.92078   2
  -4  -1  -3 12.2295 1.13340   6
  -4  -1  -3 11.0291 0.94158   6
   4   1   3 10.2840 1.21727   6
   4   1   3 12.2444 1.35145   6
   4   1   3 10.4070 1.46880   4
   4   1   3 10.6306 1.10003   5
   4   1   3 9.61835 1.03387   5
   4   1   3 8.01442 1.53554   1
  -5  -1  -3 74.8470 3.92082   2
  -5  -1  -3 57.2301 4.54027   3
   5   1   3 74.2220 3.43562   4
   5   1   3 70.1283 2.77043   5
   5   1   3 71.4623 3.99366   1
   5   1   3 70.1015 2.84668   5
   5   1   3 73.6693 2.98424   6
   5   1   3 70.3436 2.72630   6
  -6  -1  -3 6.08964 2.29248   2
   6   1   3 7.78180 1.18480   5
   6   1   3 7.19404 1.24503   5
   6   1   3 9.05631 2.25864   1
   6   1   3 8.80728 1.19213   6
   6   1   3 6.43983 1.50717   4
   6   1   3 8.07447 1.92095   4
  -7  -1  -3 6.37897 2.73233   2
   7   1   3 4.69383 1.87587   4
   7   1   3 5.72873 1.32569   5
   7   1   3 3.34656 2.94220   1
   7   1   3 6.04972 2.11332   5
   7   1   3 3.87453 2.67181   4
  -8  -1  -3 11.3507 3.45151   2
   8   1   3 10.0363 3.93255   1
   8   1   3 9.60474 4.27848   4
   8   1   3 10.7427 2.51658   4
   9  -2  -3 5.93091 2.58423   1
   9  -2  -3 6.76988 1.93840   5
   9  -2  -3 4.48236 3.94931   4
  -9   2   3 -0.5883 3.09678   3
   8  -2  -3 0.14562 1.76356   1
   8  -2  -3 3.67114 1.79261   6
   8  -2  -3 -1.6216 4.51128   4
   8  -2  -3 1.01701 2.05267   1
   8  -2  -3 2.34723 1.86007   5
   8  -2  -3 1.73436 1.40389   6
   8  -2  -3 2.59608 1.64891   5
  -8   2   3 3.99329 2.53086   3
   7  -2  -3 4.22786 1.20550   6
   7  -2  -3 4.39072 1.47075   1
   7  -2  -3 4.21375 1.63202   1
   7  -2  -3 4.96296 1.73322   6
   7  -2  -3 3.78278 1.55804   5
   7  -2  -3 4.12689 1.36267   5
   7  -2  -3 1.07810 3.06906   4
  -7   2   3 4.11519 2.37723   3
   6  -2  -3 6.36385 1.35455   5
   6  -2  -3 5.97854 1.22973   5
   6  -2  -3 6.18937 2.56164   4
   6  -2  -3 7.76071 1.50176   6
   6  -2  -3 7.13072 1.26528   1
   6  -2  -3 6.52559 1.19115   6
  -6   2   3 6.93892 0.96258   6
  -6   2   3 5.80990 2.12839   3
   5  -2  -3 389.962 11.0313   6
   5  -2  -3 378.734 11.1531   5
   5  -2  -3 380.432 12.0252   4
   5  -2  -3 383.524 11.2389   5
   5  -2  -3 392.428 10.8433   1
   5  -2  -3 386.148 11.3283   6
  -5   2   3 402.299 10.6028   5
  -5   2   3 382.408 10.5957   5
  -5   2   3 375.854 11.0661   6
  -5   2   3 380.444 12.1704   3
   4  -2  -3 71.8358 3.51577   4
   4  -2  -3 69.2897 2.33622   1
   4  -2  -3 59.1003 3.24866   5
   4  -2  -3 66.5508 2.79566   5
   4  -2  -3 64.2692 2.96031   6
   4  -2  -3 69.3515 2.69238   6
  -4   2   3 69.5899 2.59612   5
  -4   2   3 69.2889 2.64299   5
  -4   2   3 67.6868 2.86836   6
  -4   2   3 64.6612 3.60614   3
   3  -2  -3 237.818 7.18398   6
   3  -2  -3 232.811 7.38927   6
   3  -2  -3 237.170 7.30777   5
   3  -2  -3 240.282 7.26786   5
   3  -2  -3 240.717 7.52714   4
   3  -2  -3 242.642 6.75908   1
  -3   2   3 243.642 7.18365   5
  -3   2   3 245.493 7.81427   3
  -3   2   3 240.633 7.19143   5
  -3   2   3 246.889 6.76161   1
  -3   2   3 249.191 7.29312   6
  -3   2   3 238.039 7.37884   6
   2  -2  -3 244.066 7.27902   5
   2  -2  -3 236.907 7.36712   6
   2  -2  -3 245.802 7.23208   5
   2  -2  -3 250.303 7.24672   4
   2  -2  -3 241.304 7.15329   6
   2  -2  -3 236.703 6.73501   1
   2  -2  -3 243.887 7.49107   2
  -2   2   3 245.574 7.22048   5
  -2   2   3 241.378 6.74726   1
  -2   2   3 242.288 7.49187   3
  -2   2   3 228.831 7.31755   6
  -2   2   3 237.825 7.21658   6
  -2   2   3 231.335 7.19728   5
   1  -2  -3 1.00883 0.60098   5
   1  -2  -3 0.48362 0.58555   5
   1  -2  -3 1.04670 0.75290   6
   1  -2  -3 0.54685 0.44043   1
   1  -2  -3 0.03219 0.47027   4
   1  -2  -3 1.75172 0.58909   6
   1  -2  -3 0.11727 0.90052   2
  -1   2   3 0.68550 0.61801   5
  -1   2   3 1.30416 0.95859   3
  -1   2   3 0.48639 0.59145   6
  -1   2   3 0.20120 0.61073   6
  -1   2   3 1.22092 0.48014   1
  -1   2   3 -0.2605 0.65952   5
   0  -2  -3 2.85622 0.65602   6
   0  -2  -3 2.06731 0.73196   6
   0  -2  -3 2.73243 0.62877   1
   0  -2  -3 3.26807 0.43800   4
   0  -2  -3 3.70901 1.02911   2
   0  -2  -3 3.13627 0.77272   5
   0   2   3 2.30758 0.84108   6
   0   2   3 3.68526 0.67621   1
   0   2   3 2.95141 0.65804   5
   0   2   3 3.82753 0.90912   3
   0   2   3 3.58026 0.73714   6
   0   2   3 3.02740 0.83336   5
  -1  -2  -3 66.1599 2.63951   5
  -1  -2  -3 68.0997 2.95027   2
  -1  -2  -3 63.8053 2.44940   6
   1   2   3 66.6859 2.67933   1
   1   2   3 67.2800 2.61668   5
   1   2   3 66.0680 2.66915   5
   1   2   3 66.3723 2.75534   6
   1   2   3 66.8117 2.57700   6
   1   2   3 69.3375 2.42536   3
  -2  -2  -3 24.6221 1.62227   5
  -2  -2  -3 24.9077 1.93235   6
  -2  -2  -3 28.0422 1.52198   5
  -2  -2  -3 25.5048 1.43930   6
   2   2   3 24.5012 1.69070   5
   2   2   3 27.4704 1.65579   6
   2   2   3 24.3895 1.59226   5
   2   2   3 27.9504 1.56358   3
   2   2   3 25.4608 1.76393   6
   2   2   3 26.4618 1.95916   1
  -3  -2  -3 67.1618 2.29782   5
  -3  -2  -3 61.8427 2.32819   6
  -3  -2  -3 63.9456 2.65501   6
  -3  -2  -3 62.5761 2.36870   5
   3   2   3 63.5589 2.71447   5
   3   2   3 63.2238 3.14948   1
   3   2   3 62.2056 2.61895   5
   3   2   3 64.2584 2.14707   4
   3   2   3 62.3616 2.61466   6
   3   2   3 60.0092 2.74289   6
   3   2   3 64.7497 2.02117   4
  -4  -2  -3 31.9817 1.71755   6
  -4  -2  -3 32.3166 1.50381   6
  -4  -2  -3 29.1588 2.85111   2
   4   2   3 28.9479 1.99809   5
   4   2   3 30.7078 2.02140   6
   4   2   3 33.6872 1.90711   4
   4   2   3 29.1386 2.84026   1
   4   2   3 29.2842 1.95188   5
   4   2   3 30.4725 1.52908   4
   4   2   3 27.8638 2.19812   6
  -5  -2  -3 10.5520 2.22238   2
   5   2   3 9.96490 1.30356   5
   5   2   3 10.3114 1.32487   5
   5   2   3 9.62799 1.29407   6
   5   2   3 8.01594 1.12175   4
   5   2   3 8.16250 1.44699   6
   5   2   3 8.09703 2.17978   1
   5   2   3 10.0765 1.56163   4
  -6  -2  -3 3.39784 2.46465   2
   6   2   3 6.50446 1.52295   6
   6   2   3 3.93390 1.32509   5
   6   2   3 2.29440 1.85372   4
   6   2   3 4.06650 1.26687   5
   6   2   3 9.14185 3.16222   1
   6   2   3 5.23144 1.34045   4
  -7  -2  -3 60.0450 5.18421   2
   7   2   3 62.5406 3.20436   5
   7   2   3 62.1442 4.82244   4
   7   2   3 58.2716 5.40812   1
   7   2   3 60.3338 3.47946   4
   7   2   3 58.1559 3.17159   5
   7   2   3 60.3119 5.89951   1
  -8  -2  -3 11.7857 3.61862   2
   8   2   3 5.35902 4.58963   1
   8   2   3 16.6451 1.89756   5
   8   2   3 13.3543 2.12184   5
   8   2   3 12.4441 4.87643   4
   8   2   3 9.51434 2.48679   4
   9  -3  -3 1.54908 2.36399   5
   9  -3  -3 0.93003 2.29633   6
   9  -3  -3 0.74552 2.48228   5
  -9   3   3 2.40494 3.10404   3
   8  -3  -3 2.56740 1.85088   5
   8  -3  -3 1.08680 2.08192   5
   8  -3  -3 1.75591 1.36451   1
   8  -3  -3 2.39683 1.55638   6
   8  -3  -3 2.66833 1.63672   1
   8  -3  -3 2.37751 3.12994   6
  -8   3   3 2.67149 2.57076   3
   7  -3  -3 1.65258 2.01405   6
   7  -3  -3 6.26235 3.54838   4
   7  -3  -3 1.80351 1.06863   1
   7  -3  -3 2.29499 1.33902   6
   7  -3  -3 2.68839 1.14853   1
   7  -3  -3 0.39875 1.49477   5
   7  -3  -3 3.09572 1.81557   5
  -7   3   3 1.46767 1.54246   6
  -7   3   3 1.85030 3.18314   3
   6  -3  -3 0.07699 0.72265   1
   6  -3  -3 -5.0160 2.30744   4
   6  -3  -3 0.84095 0.75451   1
   6  -3  -3 1.25874 1.24505   6
   6  -3  -3 -0.3134 1.53401   6
   6  -3  -3 -2.0745 1.38611   5
   6  -3  -3 1.22593 1.24499   5
  -6   3   3 1.13148 2.10702   3
  -6   3   3 1.93116 1.16743   6
   5  -3  -3 595.141 15.9950   1
   5  -3  -3 587.328 16.8859   5
   5  -3  -3 597.852 17.0133   5
   5  -3  -3 589.271 16.7630   6
   5  -3  -3 598.129 17.0975   6
   5  -3  -3 611.734 17.6543   4
  -5   3   3 612.802 16.5296   5
  -5   3   3 566.960 17.7489   3
  -5   3   3 576.049 16.8618   6
  -5   3   3 602.673 16.5484   5
   4  -3  -3 93.7177 3.58339   6
   4  -3  -3 92.2747 3.80953   5
   4  -3  -3 98.1807 4.30483   4
   4  -3  -3 92.3391 4.24746   2
   4  -3  -3 93.0572 3.94984   6
   4  -3  -3 91.8870 3.71525   5
  -4   3   3 95.8668 3.63016   5
  -4   3   3 88.7440 4.38139   3
  -4   3   3 94.8751 3.81783   6
  -4   3   3 95.6952 3.58587   5
   3  -3  -3 2.64631 0.34907   1
   3  -3  -3 2.36705 0.94667   6
   3  -3  -3 1.11050 0.95779   5
   3  -3  -3 2.08987 1.11406   4
   3  -3  -3 2.04103 0.83127   5
   3  -3  -3 1.79345 1.40483   2
   3  -3  -3 2.55273 0.87972   6
  -3   3   3 2.16977 0.96667   5
  -3   3   3 2.95352 1.44493   3
  -3   3   3 2.16380 0.32931   1
  -3   3   3 1.51241 0.98663   6
  -3   3   3 2.33792 1.15715   5
   2  -3  -3 161.626 5.31723   6
   2  -3  -3 168.205 5.60968   6
   2  -3  -3 165.381 5.38347   5
   2  -3  -3 163.253 5.47311   5
   2  -3  -3 166.081 5.33278   4
  -2   3   3 167.182 5.47773   6
  -2   3   3 159.167 5.54518   6
  -2   3   3 162.177 5.69606   3
  -2   3   3 165.011 4.71233   1
  -2   3   3 157.680 5.38534   5
  -2   3   3 165.226 5.43864   5
   1  -3  -3 121.213 4.14924   5
   1  -3  -3 114.086 4.19159   5
   1  -3  -3 119.770 3.80737   4
   1  -3  -3 112.293 4.04416   6
   1  -3  -3 114.881 4.31744   2
  -1   3   3 118.391 4.19008   5
  -1   3   3 115.782 4.32296   6
  -1   3   3 117.229 3.67935   1
  -1   3   3 115.630 4.21027   6
  -1   3   3 114.974 4.25160   3
  -1   3   3 114.047 4.15659   5
   0  -3  -3 25.0317 1.96279   6
   0  -3  -3 23.0798 1.89174   5
   0  -3  -3 22.0928 1.66644   6
   0  -3  -3 25.1621 1.75360   5
   0  -3  -3 22.0901 1.15301   4
   0   3   3 23.4249 1.80011   6
   0   3   3 23.2175 1.20470   4
   0   3   3 25.2265 1.88393   5
   0   3   3 24.2487 1.96030   6
   0   3   3 21.8361 1.52001   1
   0   3   3 25.5423 1.93044   3
   0   3   3 24.7533 1.81557   5
  -1  -3  -3 196.529 5.26542   4
  -1  -3  -3 189.755 6.17565   5
  -1  -3  -3 187.322 5.99745   6
  -1  -3  -3 194.040 6.30904   6
  -1  -3  -3 203.193 6.44760   2
   1   3   3 195.000 6.19507   5
   1   3   3 189.926 6.16351   6
   1   3   3 191.532 6.11442   1
   1   3   3 206.800 6.01380   3
   1   3   3 195.418 6.34433   6
   1   3   3 186.065 6.18282   5
   1   3   3 189.331 5.31282   4
  -2  -3  -3 268.965 8.21687   6
  -2  -3  -3 260.370 7.89329   6
  -2  -3  -3 260.886 8.43887   2
  -2  -3  -3 271.396 7.91760   5
  -2  -3  -3 277.248 8.08363   5
   2   3   3 262.712 8.26172   6
   2   3   3 261.684 8.16290   5
   2   3   3 267.572 8.14017   5
   2   3   3 269.811 8.16489   6
   2   3   3 268.452 8.33804   1
   2   3   3 278.141 7.90196   3
  -3  -3  -3 3.07622 0.78451   6
  -3  -3  -3 2.87231 0.93498   5
  -3  -3  -3 3.94996 0.86724   5
  -3  -3  -3 3.38223 1.55183   2
  -3  -3  -3 2.82256 1.07462   6
   3   3   3 1.91113 1.31997   1
   3   3   3 4.04972 1.25816   3
   3   3   3 2.75471 1.09908   5
   3   3   3 2.31135 1.06393   5
   3   3   3 3.82431 1.14227   6
   3   3   3 2.39537 0.55996   4
   3   3   3 3.27313 1.11332   6
  -4  -3  -3 142.420 4.53259   6
  -4  -3  -3 147.275 4.82285   6
  -4  -3  -3 139.082 5.84393   2
   4   3   3 142.174 5.11054   5
   4   3   3 154.084 5.89563   1
   4   3   3 144.867 5.13575   6
   4   3   3 148.524 5.10455   5
   4   3   3 150.241 4.57719   4
   4   3   3 142.625 4.30846   4
   4   3   3 151.412 5.31655   6
  -5  -3  -3 13.6385 2.62523   2
   5   3   3 9.04302 1.74867   6
   5   3   3 7.43844 2.31173   1
   5   3   3 14.0888 1.70041   5
   5   3   3 13.5827 1.65240   5
   5   3   3 12.1940 1.14444   4
   5   3   3 14.7817 1.60519   4
  -6  -3  -3 9.31750 2.79067   2
   6   3   3 14.8368 1.51579   4
   6   3   3 17.3087 2.30818   4
   6   3   3 14.1510 2.05485   6
   6   3   3 14.1349 1.79138   5
   6   3   3 11.3750 3.81692   1
   6   3   3 9.33425 3.11597   1
   6   3   3 16.9758 1.99234   5
  -7  -3  -3 1.34862 2.90763   2
   7   3   3 0.39082 1.59858   4
   7   3   3 1.36957 1.77094   5
   7   3   3 1.22469 3.63527   1
   7   3   3 0.52382 1.77770   5
   7   3   3 1.41771 2.80819   4
  -8  -3  -3 3.07980 3.80948   2
   8   3   3 1.50942 2.01744   5
   8   3   3 3.50078 5.01095   1
   8   3   3 8.69581 2.16129   5
   9  -4  -3 1.47917 2.67948   5
   9  -4  -3 7.04478 3.23508   5
   9  -4  -3 2.91788 3.30109   2
  -9   4   3 0.56877 3.98745   3
   8  -4  -3 2.41781 2.39083   5
   8  -4  -3 0.54698 2.15572   5
   8  -4  -3 -1.4662 2.78823   2
   8  -4  -3 1.81603 2.16314   6
  -8   4   3 -1.3184 2.84348   3
   7  -4  -3 1.03761 2.33595   6
   7  -4  -3 -2.9203 3.44735   4
   7  -4  -3 7.13528 1.79075   6
   7  -4  -3 3.85414 2.14906   5
   7  -4  -3 2.62367 1.75861   5
   7  -4  -3 0.52691 2.35878   2
  -7   4   3 0.32261 2.52309   3
  -7   4   3 5.53122 1.65153   6
   6  -4  -3 3.76775 1.82660   5
   6  -4  -3 3.05654 1.92205   6
   6  -4  -3 1.99925 2.03337   2
   6  -4  -3 3.15586 1.56788   6
   6  -4  -3 3.66138 1.59729   5
   6  -4  -3 0.82207 2.96928   4
  -6   4   3 4.19780 1.35091   5
  -6   4   3 2.82350 1.19524   5
  -6   4   3 2.97019 1.48237   6
  -6   4   3 5.10879 2.51051   3
   5  -4  -3 3.01572 1.33604   6
   5  -4  -3 2.30076 1.53434   5
   5  -4  -3 1.98014 1.33270   5
   5  -4  -3 0.30256 2.08300   4
   5  -4  -3 2.71241 1.68663   6
  -5   4   3 1.78407 1.26563   5
  -5   4   3 2.41088 1.84516   3
  -5   4   3 1.79137 1.34045   5
  -5   4   3 3.22205 1.41809   6
   4  -4  -3 313.515 10.3103   6
   4  -4  -3 340.179 10.2299   5
   4  -4  -3 299.962 12.3665   4
   4  -4  -3 328.426 9.96968   6
   4  -4  -3 341.554 10.3136   2
   4  -4  -3 328.683 10.0818   5
  -4   4   3 335.522 10.8014   3
  -4   4   3 327.177 10.1954   6
  -4   4   3 321.505 10.0552   5
  -4   4   3 326.857 9.92850   5
   3  -4  -3 74.3829 3.42515   5
   3  -4  -3 80.4401 4.11878   6
   3  -4  -3 69.0749 3.52622   4
   3  -4  -3 73.2162 3.55923   5
   3  -4  -3 70.5587 3.55086   2
  -3   4   3 74.4911 3.50719   5
  -3   4   3 69.6630 3.36098   5
  -3   4   3 78.2195 4.01179   3
  -3   4   3 70.4234 3.63761   6
   2  -4  -3 80.8313 3.58553   5
   2  -4  -3 84.9257 3.75399   2
   2  -4  -3 83.3804 3.50368   6
   2  -4  -3 82.2678 3.39639   4
   2  -4  -3 83.4200 3.79127   5
  -2   4   3 83.5792 2.74900   1
  -2   4   3 81.7758 3.89602   3
  -2   4   3 85.5337 3.42642   4
  -2   4   3 84.7271 3.68027   5
  -2   4   3 85.9635 3.76493   5
  -2   4   3 84.5503 3.87167   6
   1  -4  -3 109.279 3.75442   4
   1  -4  -3 108.999 4.17727   5
   1  -4  -3 112.592 4.41160   5
   1  -4  -3 109.508 4.45855   6
   1  -4  -3 107.424 4.29959   2
   1  -4  -3 102.382 4.09001   6
  -1   4   3 105.317 4.38469   6
  -1   4   3 111.494 4.34107   5
  -1   4   3 106.650 3.80085   4
  -1   4   3 110.202 4.33247   5
  -1   4   3 107.747 3.63257   1
  -1   4   3 115.178 4.46364   3
   0  -4  -3 11.2557 1.53677   6
   0  -4  -3 12.0263 1.05351   4
   0  -4  -3 8.42521 1.48912   2
   0  -4  -3 7.85493 1.25051   5
   0  -4  -3 10.1235 1.36343   5
   0  -4  -3 6.80059 1.08170   6
   0   4   3 10.8735 1.21714   1
   0   4   3 7.20375 1.18769   5
   0   4   3 8.39793 1.35666   5
   0   4   3 9.37473 0.95557   4
   0   4   3 10.7582 1.59306   6
   0   4   3 8.34122 1.32939   6
   0   4   3 7.34165 1.65299   3
  -1  -4  -3 40.1998 2.56241   6
  -1  -4  -3 39.5183 2.28211   5
  -1  -4  -3 36.0233 2.73541   2
  -1  -4  -3 39.7474 2.60741   5
  -1  -4  -3 38.6685 1.42155   4
  -1  -4  -3 34.3364 2.26756   6
   1   4   3 35.3461 2.54446   6
   1   4   3 40.6658 2.63253   3
   1   4   3 39.1435 2.65220   6
   1   4   3 41.5311 2.51630   5
   1   4   3 39.5383 2.46784   1
   1   4   3 37.9534 2.58524   5
   1   4   3 37.4954 1.62276   4
  -2  -4  -3 25.7229 2.05943   6
  -2  -4  -3 29.9505 2.71644   2
  -2  -4  -3 31.2924 2.10531   5
  -2  -4  -3 30.1501 2.39019   5
  -2  -4  -3 32.9138 2.54668   6
   2   4   3 25.6994 2.51910   6
   2   4   3 30.3955 2.61714   1
   2   4   3 28.1221 2.34347   5
   2   4   3 32.5915 2.41990   3
   2   4   3 27.0555 2.37598   5
   2   4   3 33.7673 2.57404   6
  -3  -4  -3 28.7458 2.48806   6
  -3  -4  -3 34.9472 2.35462   5
  -3  -4  -3 30.2422 2.06571   5
  -3  -4  -3 30.5714 2.02986   6
  -3  -4  -3 31.5963 3.13941   2
   3   4   3 35.2914 2.87260   6
   3   4   3 23.4559 2.32897   1
   3   4   3 31.2481 1.36501   4
   3   4   3 28.9860 2.59658   3
   3   4   3 30.8016 3.04711   5
   3   4   3 32.6975 2.58383   5
  -4  -4  -3 12.2439 1.16024   5
  -4  -4  -3 11.1570 1.19223   6
  -4  -4  -3 14.2141 1.62805   6
  -4  -4  -3 12.9638 1.08715   5
  -4  -4  -3 9.47153 2.22687   2
   4   4   3 12.0195 0.94268   4
   4   4   3 11.2004 1.76004   5
   4   4   3 12.3941 1.92718   6
   4   4   3 14.1060 1.91578   3
   4   4   3 13.4154 1.86651   5
   4   4   3 10.4739 1.09844   4
   4   4   3 9.42123 2.35244   1
  -5  -4  -3 47.9701 4.39943   2
  -5  -4  -3 52.9603 2.39087   6
  -5  -4  -3 45.3178 2.33774   6
   5   4   3 53.1818 2.68362   4
   5   4   3 50.8070 3.56229   3
   5   4   3 54.3694 4.53351   1
   5   4   3 41.9296 3.76800   1
   5   4   3 50.9222 2.25405   4
   5   4   3 49.1629 3.54389   5
   5   4   3 45.3627 3.83482   6
   5   4   3 49.0857 3.58966   5
  -6  -4  -3 -1.7309 2.44810   2
   6   4   3 2.25418 2.10620   3
   6   4   3 -1.1503 2.16360   6
   6   4   3 -2.6101 3.10105   1
   6   4   3 2.11135 1.90554   5
   6   4   3 1.38747 1.24334   4
   6   4   3 -0.6542 1.83363   5
   6   4   3 0.44431 4.08282   1
   6   4   3 1.73481 1.85009   4
  -7  -4  -3 4.21146 3.36267   2
   7   4   3 7.50333 2.67603   3
   7   4   3 0.48982 4.58679   1
   7   4   3 3.31191 2.25772   5
   7   4   3 -1.0468 4.35942   4
   7   4   3 2.90464 1.68612   4
   7   4   3 4.15492 4.06533   5
   7   4   3 2.89443 2.89647   6
   9  -5  -3 9.85988 3.81734   2
   9  -5  -3 6.59055 3.54184   5
  -9   5   3 5.78449 3.76588   3
   8  -5  -3 2.33753 2.86511   6
   8  -5  -3 1.60331 2.85995   5
   8  -5  -3 -2.3538 2.74717   2
   8  -5  -3 0.16976 2.60604   5
  -8   5   3 -0.2031 2.80492   3
  -8   5   3 2.17707 2.01360   6
   7  -5  -3 7.02693 2.63752   5
   7  -5  -3 3.11751 2.57134   2
   7  -5  -3 6.73305 4.27845   4
   7  -5  -3 3.13504 2.79032   6
   7  -5  -3 7.89266 2.25191   5
   7  -5  -3 9.99160 2.33604   6
  -7   5   3 6.17159 2.90114   3
  -7   5   3 6.38322 1.53970   5
  -7   5   3 9.15876 2.17802   6
  -7   5   3 7.58072 1.45886   5
   6  -5  -3 7.59004 2.07855   5
   6  -5  -3 2.69632 2.30056   6
   6  -5  -3 3.31661 1.65322   6
   6  -5  -3 6.26930 1.98446   5
   6  -5  -3 5.14066 2.19146   2
   6  -5  -3 1.76108 3.07121   4
  -6   5   3 1.11723 1.75006   5
  -6   5   3 0.74915 2.41321   3
  -6   5   3 1.84013 1.64037   5
  -6   5   3 6.96025 1.98693   6
   5  -5  -3 3.23132 1.88652   5
   5  -5  -3 6.43308 1.67515   6
   5  -5  -3 3.45507 2.06995   6
   5  -5  -3 3.30372 1.86783   2
   5  -5  -3 5.86236 1.79671   5
   5  -5  -3 2.51546 2.39565   4
  -5   5   3 4.76861 1.73843   6
  -5   5   3 3.25724 1.78903   5
  -5   5   3 4.31520 1.64643   5
  -5   5   3 4.52577 2.33608   3
   4  -5  -3 495.224 14.8196   5
   4  -5  -3 495.462 15.1122   6
   4  -5  -3 510.756 14.9698   4
   4  -5  -3 500.854 14.8183   2
   4  -5  -3 506.939 14.9966   5
   4  -5  -3 500.626 14.7332   6
  -4   5   3 494.378 14.7389   5
  -4   5   3 505.957 15.0523   5
  -4   5   3 493.473 15.0220   6
  -4   5   3 456.734 15.2392   3
   3  -5  -3 101.448 4.42966   2
   3  -5  -3 102.408 4.51910   4
   3  -5  -3 103.724 4.72839   5
   3  -5  -3 107.682 4.57283   5
   3  -5  -3 99.4131 4.40806   6
   3  -5  -3 111.276 4.98566   6
  -3   5   3 100.579 4.92072   3
  -3   5   3 104.341 4.71124   5
  -3   5   3 103.062 4.84420   6
  -3   5   3 100.354 4.47081   4
   2  -5  -3 -0.8275 1.32572   2
   2  -5  -3 -1.9494 1.08507   5
   2  -5  -3 0.55720 1.30632   5
   2  -5  -3 -1.4347 1.10992   6
   2  -5  -3 1.13352 1.18787   4
   2  -5  -3 -0.1526 1.08155   6
  -2   5   3 -0.2617 1.41357   6
  -2   5   3 -0.7768 1.09834   4
  -2   5   3 3.99997 1.66297   5
  -2   5   3 0.60400 0.67962   1
  -2   5   3 -0.4318 0.66461   1
  -2   5   3 0.01715 1.63061   3
  -2   5   3 -0.4175 1.31719   5
   1  -5  -3 63.5232 2.78488   4
   1  -5  -3 55.4073 3.26056   2
   1  -5  -3 58.3442 3.21888   6
   1  -5  -3 66.1027 3.40826   5
   1  -5  -3 61.7824 3.57615   5
  -1   5   3 62.4965 3.52941   5
  -1   5   3 60.1769 2.90775   4
  -1   5   3 63.6151 2.69403   1
  -1   5   3 61.6891 3.63847   6
  -1   5   3 61.4766 3.65631   3
  -1   5   3 57.3176 3.53644   5
  -1   5   3 63.9370 2.70972   1
   0  -5  -3 42.9976 3.14909   5
   0  -5  -3 38.4499 2.78133   5
   0  -5  -3 38.4397 1.89980   4
   0  -5  -3 39.9038 2.76197   6
   0  -5  -3 41.8788 3.10527   6
   0  -5  -3 34.3447 2.91582   2
   0   5   3 38.0916 3.17776   6
   0   5   3 38.7806 3.02134   3
   0   5   3 39.9187 2.14912   4
   0   5   3 38.3652 2.95241   5
   0   5   3 38.1299 3.03309   5
   0   5   3 44.4272 2.52369   1
  -1  -5  -3 5.85003 1.68746   5
  -1  -5  -3 4.02762 1.70732   2
  -1  -5  -3 7.14344 1.71601   6
  -1  -5  -3 3.97919 1.25038   6
  -1  -5  -3 2.89895 1.11198   5
  -1  -5  -3 5.38646 0.71592   4
   1   5   3 3.76791 1.36759   1
   1   5   3 4.99662 1.57169   5
   1   5   3 3.43340 1.63854   6
   1   5   3 2.28122 1.57981   5
   1   5   3 3.14048 0.87917   4
   1   5   3 4.49401 1.61106   3
  -2  -5  -3 50.2254 3.27561   5
  -2  -5  -3 46.7876 3.51539   2
  -2  -5  -3 53.0220 3.35322   6
  -2  -5  -3 52.1612 2.86651   5
  -2  -5  -3 48.5541 1.83995   4
  -2  -5  -3 49.1008 2.90912   6
   2   5   3 48.9155 3.28488   3
   2   5   3 48.0139 3.29775   5
   2   5   3 49.1376 2.08249   4
   2   5   3 51.2893 3.53839   6
   2   5   3 51.9560 3.37753   5
   2   5   3 51.5946 3.43175   1
  -3  -5  -3 115.902 5.03160   6
  -3  -5  -3 122.988 4.39630   5
  -3  -5  -3 112.388 5.37465   2
  -3  -5  -3 112.918 4.62440   5
  -3  -5  -3 106.648 4.35553   6
   3   5   3 111.748 5.37094   1
   3   5   3 117.381 5.07428   5
   3   5   3 111.764 4.98116   5
   3   5   3 120.000 5.28940   6
   3   5   3 120.034 3.64833   4
   3   5   3 122.824 5.56020   1
   3   5   3 113.683 4.86636   3
  -4  -5  -3 1.75829 1.62031   6
  -4  -5  -3 1.07471 1.31869   5
  -4  -5  -3 3.42156 1.16143   5
  -4  -5  -3 1.37420 1.18144   6
  -4  -5  -3 -0.0664 2.06550   2
   4   5   3 1.01838 1.01257   4
   4   5   3 -0.3314 1.79559   5
   4   5   3 0.50844 2.94672   1
   4   5   3 -0.7241 1.81419   5
   4   5   3 -0.0913 1.83243   6
   4   5   3 1.59846 1.95451   3
   4   5   3 1.50772 0.87625   4
   4   5   3 -3.9218 2.34738   1
  -5  -5  -3 38.0170 2.85256   6
  -5  -5  -3 27.8676 3.58054   2
  -5  -5  -3 38.4613 2.31296   6
   5   5   3 36.4496 4.65328   1
   5   5   3 38.9037 3.22584   6
   5   5   3 43.4006 4.02652   5
   5   5   3 35.1867 2.09774   4
   5   5   3 35.1809 2.47553   4
   5   5   3 42.8169 4.07472   5
   5   5   3 44.3323 3.78609   3
   5   5   3 37.5578 4.23715   1
  -6  -5  -3 8.07727 3.32807   2
   6   5   3 8.81743 1.44013   4
   6   5   3 7.01127 2.50573   5
   6   5   3 3.24533 4.13888   1
   6   5   3 10.8259 2.63094   3
   6   5   3 6.02831 2.14579   4
   6   5   3 12.9137 2.93129   5
   6   5   3 5.74186 3.25456   6
  -7  -5  -3 4.54889 6.24150   2
   7   5   3 -4.6064 5.27322   6
   7   5   3 1.30221 3.12348   3
   7   5   3 9.07952 5.29697   1
   7   5   3 -0.0289 2.81248   5
   7   5   3 4.27145 3.15173   5
   8  -6  -3 -3.1547 2.78260   2
   8  -6  -3 3.19760 3.10049   5
  -8   6   3 3.72278 4.09622   3
  -8   6   3 0.10970 2.75673   6
   7  -6  -3 1.91514 2.62008   2
   7  -6  -3 3.05788 2.76934   6
   7  -6  -3 -2.2563 2.48882   5
  -7   6   3 1.79651 2.28478   5
  -7   6   3 1.05439 3.01833   3
  -7   6   3 -2.3077 2.39867   6
   6  -6  -3 7.52053 3.05747   6
   6  -6  -3 9.21121 2.14478   6
   6  -6  -3 7.42118 2.34699   2
   6  -6  -3 7.10870 2.47262   5
   6  -6  -3 9.55505 3.67271   4
   6  -6  -3 9.59555 2.49772   5
  -6   6   3 6.02881 2.62081   6
  -6   6   3 8.16459 2.22110   5
  -6   6   3 6.00240 2.39729   5
  -6   6   3 7.18705 3.14108   3
   5  -6  -3 -0.6008 1.79526   5
   5  -6  -3 -0.8027 1.72375   6
   5  -6  -3 0.44334 1.89842   2
   5  -6  -3 0.02014 2.77630   4
   5  -6  -3 0.45613 2.10498   5
   5  -6  -3 -1.8517 2.28210   6
  -5   6   3 0.95666 2.21726   5
  -5   6   3 0.01550 2.42856   3
  -5   6   3 -1.5662 1.81116   5
  -5   6   3 -1.7215 2.04699   6
   4  -6  -3 0.17834 1.76255   6
   4  -6  -3 3.00779 1.93095   5
   4  -6  -3 2.00353 2.18272   4
   4  -6  -3 5.69769 1.91285   2
   4  -6  -3 1.72209 2.44984   6
   4  -6  -3 2.99672 2.15186   5
  -4   6   3 5.47534 2.21032   4
  -4   6   3 0.01113 2.35082   3
  -4   6   3 4.81286 1.88341   5
  -4   6   3 0.28294 2.20824   5
  -4   6   3 2.83247 2.14289   6
   3  -6  -3 158.604 6.73800   5
   3  -6  -3 156.247 6.12175   2
   3  -6  -3 165.996 6.32623   6
   3  -6  -3 166.597 6.18181   4
   3  -6  -3 163.264 6.43881   5
   3  -6  -3 165.947 6.79997   6
  -3   6   3 159.390 6.16027   4
  -3   6   3 159.811 4.54353   1
  -3   6   3 162.708 6.84454   3
  -3   6   3 154.357 6.67335   5
  -3   6   3 159.000 6.54782   5
  -3   6   3 162.321 6.91506   6
   2  -6  -3 64.2044 3.82985   6
   2  -6  -3 58.7255 3.36101   4
   2  -6  -3 60.7977 3.88386   5
   2  -6  -3 64.4499 4.30083   5
   2  -6  -3 58.6005 3.61683   2
   2  -6  -3 59.9006 4.38376   6
  -2   6   3 67.7984 3.53740   4
  -2   6   3 65.3528 4.26927   5
  -2   6   3 59.3971 2.66747   1
  -2   6   3 62.0863 4.10459   5
  -2   6   3 64.0203 4.32391   3
  -2   6   3 58.7902 4.20702   6
  -2   6   3 63.0769 2.64131   1
   1  -6  -3 22.6243 2.22837   4
   1  -6  -3 17.4994 2.38535   5
   1  -6  -3 21.7515 2.58175   6
   1  -6  -3 15.4201 1.97268   6
   1  -6  -3 16.4850 2.27033   2
   1  -6  -3 17.4376 2.11985   5
  -1   6   3 22.7385 2.48344   5
  -1   6   3 19.8629 2.53259   6
  -1   6   3 19.2383 2.28244   5
  -1   6   3 21.0145 1.92033   4
  -1   6   3 19.0998 1.66940   1
  -1   6   3 21.5661 1.78232   1
  -1   6   3 17.4601 2.38037   3
   0  -6  -3 47.7838 3.49912   2
   0  -6  -3 53.2400 4.07330   5
   0  -6  -3 51.9698 3.41389   6
   0  -6  -3 51.7617 3.58087   5
   0  -6  -3 57.7390 2.54568   4
   0  -6  -3 50.1466 3.87361   6
   0   6   3 54.8946 3.67441   3
   0   6   3 51.1445 3.88679   5
   0   6   3 58.2095 3.25033   1
   0   6   3 51.7334 3.93903   5
   0   6   3 55.9856 3.26833   1
   0   6   3 53.5371 3.98260   6
   0   6   3 54.6988 2.88287   4
  -1  -6  -3 13.5117 2.21427   5
  -1  -6  -3 15.4319 1.50503   4
  -1  -6  -3 15.4007 1.95162   6
  -1  -6  -3 17.7353 2.07913   5
  -1  -6  -3 12.4911 2.24580   2
  -1  -6  -3 16.3478 2.05364   6
   1   6   3 18.8374 2.23662   1
   1   6   3 18.2311 2.46759   5
   1   6   3 20.5430 2.22702   1
   1   6   3 15.1555 2.23131   5
   1   6   3 21.7772 2.62597   3
   1   6   3 17.9119 1.51303   4
   1   6   3 16.0676 2.33861   6
  -2  -6  -3 62.1860 4.17602   5
  -2  -6  -3 63.0380 3.61596   5
  -2  -6  -3 58.5026 4.22577   2
  -2  -6  -3 60.1670 2.38207   4
  -2  -6  -3 61.7527 3.64935   6
  -2  -6  -3 66.2680 4.18799   6
   2   6   3 66.7256 4.06785   3
   2   6   3 61.5902 4.24124   1
   2   6   3 63.4021 4.34893   5
   2   6   3 61.7873 2.73420   4
   2   6   3 65.9574 4.48119   6
   2   6   3 61.2357 4.49748   1
   2   6   3 62.8754 4.26145   5
  -3  -6  -3 7.99329 2.48801   2
  -3  -6  -3 6.37564 1.77017   6
  -3  -6  -3 8.67237 2.04716   5
  -3  -6  -3 6.87185 1.74316   5
  -3  -6  -3 6.46972 2.19820   6
   3   6   3 5.90465 3.12905   1
   3   6   3 6.05163 2.02918   5
   3   6   3 8.87703 2.38651   3
   3   6   3 4.40398 2.77015   1
   3   6   3 11.7174 2.45922   6
   3   6   3 8.55706 1.21954   4
   3   6   3 8.78019 3.03624   5
  -4  -6  -3 34.5703 2.60405   5
  -4  -6  -3 28.4279 2.89927   6
  -4  -6  -3 39.6672 3.82909   6
  -4  -6  -3 26.3971 3.44749   2
  -4  -6  -3 30.7448 2.77774   5
   4   6   3 26.6161 3.52270   1
   4   6   3 35.9336 3.45211   6
   4   6   3 31.6830 4.13793   1
   4   6   3 26.8165 2.99274   5
   4   6   3 30.0313 3.31378   5
   4   6   3 32.8314 3.16613   3
   4   6   3 29.2396 2.04358   4
  -5  -6  -3 3.59354 1.92264   6
  -5  -6  -3 -1.2457 1.44923   6
  -5  -6  -3 -0.1526 2.61785   2
   5   6   3 -1.9121 3.36760   1
   5   6   3 1.26955 1.52381   4
   5   6   3 4.69511 3.34753   6
   5   6   3 1.67953 2.71708   5
   5   6   3 0.15904 1.14512   4
   5   6   3 2.69481 2.76620   5
   5   6   3 3.88706 2.70056   3
  -6  -6  -3 37.9411 5.02157   2
   6   6   3 34.4297 5.30063   1
   6   6   3 52.6057 4.51202   5
   6   6   3 42.9836 4.14034   5
   6   6   3 45.5327 4.81133   3
   8  -7  -3 26.2920 4.31446   5
   8  -7  -3 20.3902 3.60942   2
  -8   7   3 21.4360 4.69050   3
  -8   7   3 25.4867 3.12954   5
  -8   7   3 12.8069 3.85645   6
   7  -7  -3 -3.1901 2.63615   2
   7  -7  -3 1.83281 3.53618   6
   7  -7  -3 -1.8532 3.06892   5
   7  -7  -3 3.85626 4.21970   5
  -7   7   3 -0.4280 3.33477   3
  -7   7   3 -0.7972 2.76467   5
  -7   7   3 1.81529 3.30358   6
   6  -7  -3 15.2310 3.12718   6
   6  -7  -3 13.0905 4.44342   4
   6  -7  -3 16.4492 4.13490   6
   6  -7  -3 14.7423 3.07909   2
   6  -7  -3 18.7012 3.24316   5
   6  -7  -3 20.6062 4.00540   5
  -6   7   3 20.4567 3.44093   6
  -6   7   3 19.0299 3.16773   5
  -6   7   3 14.3830 3.41802   3
   5  -7  -3 4.13285 2.17784   2
   5  -7  -3 -0.1815 3.44395   4
   5  -7  -3 5.21687 2.62052   6
   5  -7  -3 2.79756 3.08227   5
   5  -7  -3 2.81776 3.51829   6
   5  -7  -3 4.63618 3.08932   5
  -5   7   3 0.21108 2.27862   5
  -5   7   3 6.17451 2.88299   3
  -5   7   3 5.13098 3.04704   5
  -5   7   3 3.00355 2.87165   6
   4  -7  -3 11.8894 2.92298   5
   4  -7  -3 10.6995 2.29431   6
   4  -7  -3 16.2413 2.80606   4
   4  -7  -3 11.4678 2.42361   2
   4  -7  -3 16.3382 2.86728   5
   4  -7  -3 12.7033 2.59227   6
  -4   7   3 12.6344 2.60891   4
  -4   7   3 11.1556 3.11823   5
  -4   7   3 14.9424 2.75897   6
  -4   7   3 11.5102 3.12248   3
  -4   7   3 12.6310 3.38880   5
   3  -7  -3 322.066 11.2543   6
   3  -7  -3 321.607 10.9027   5
   3  -7  -3 314.987 11.2165   5
   3  -7  -3 320.854 10.7970   6
   3  -7  -3 336.882 10.4283   4
   3  -7  -3 316.417 10.4624   2
  -3   7   3 324.439 11.2084   5
  -3   7   3 304.744 10.5116   4
  -3   7   3 313.362 8.86901   1
  -3   7   3 315.101 8.91256   1
  -3   7   3 305.592 11.1207   3
  -3   7   3 337.164 11.1120   5
  -3   7   3 314.870 11.2356   6
   2  -7  -3 68.8537 4.26643   2
   2  -7  -3 63.6000 3.86637   4
   2  -7  -3 67.5523 4.49251   6
   2  -7  -3 62.4392 4.95385   6
   2  -7  -3 64.0029 4.58247   5
   2  -7  -3 72.5855 5.51995   5
  -2   7   3 68.3733 3.17761   1
  -2   7   3 71.4779 4.16474   4
  -2   7   3 67.6620 3.08237   1
  -2   7   3 65.6133 5.02473   6
  -2   7   3 73.7714 5.04196   5
  -2   7   3 67.4564 4.84011   3
   1  -7  -3 1.41518 1.98112   6
   1  -7  -3 -0.3063 1.71512   6
   1  -7  -3 1.22546 1.86102   2
   1  -7  -3 -0.4200 2.00078   5
   1  -7  -3 3.23890 4.06279   5
   1  -7  -3 0.41852 1.28623   4
  -1   7   3 -0.6645 2.08035   3
  -1   7   3 1.75004 1.44163   1
  -1   7   3 0.53790 2.24001   5
  -1   7   3 1.09689 1.47765   1
  -1   7   3 -0.9044 2.29830   6
  -1   7   3 2.57436 1.58777   4
  -1   7   3 0.24769 2.34439   5
   0  -7  -3 17.0713 2.73706   2
   0  -7  -3 15.5913 2.37321   6
   0  -7  -3 20.5806 2.62554   5
   0  -7  -3 19.2025 1.56513   4
   0  -7  -3 19.3369 3.00846   6
   0  -7  -3 16.3898 2.86413   5
   0   7   3 13.3746 2.58851   5
   0   7   3 20.4519 2.31537   1
   0   7   3 14.3577 2.88702   1
   0   7   3 17.8996 3.08858   6
   0   7   3 14.5011 2.64490   5
   0   7   3 16.5360 1.97236   4
   0   7   3 13.0610 2.53510   3
  -1  -7  -3 14.6627 2.93924   5
  -1  -7  -3 15.0005 2.71709   6
  -1  -7  -3 10.6356 2.01921   6
  -1  -7  -3 10.3851 1.30286   4
  -1  -7  -3 8.08733 2.45458   2
  -1  -7  -3 15.4427 2.36417   5
   1   7   3 12.6974 2.63663   5
   1   7   3 9.55432 2.25605   1
   1   7   3 9.92521 1.61713   4
   1   7   3 10.1191 2.45756   5
   1   7   3 10.8850 2.43650   1
   1   7   3 12.5233 2.58269   3
   1   7   3 15.5152 3.06095   6
  -2  -7  -3 18.6251 2.46152   5
  -2  -7  -3 18.5735 2.97005   5
  -2  -7  -3 16.1403 2.82538   2
  -2  -7  -3 19.0240 4.05860   6
  -2  -7  -3 13.7703 2.37580   6
  -2  -7  -3 18.6112 1.83510   4
   2   7   3 18.9176 1.81076   4
   2   7   3 24.3515 3.14246   1
   2   7   3 23.9123 3.03418   3
   2   7   3 19.6595 3.04430   5
   2   7   3 18.4626 3.51145   6
   2   7   3 21.7016 3.11155   1
   2   7   3 13.8548 2.75060   5
  -3  -7  -3 12.5937 2.34681   6
  -3  -7  -3 20.4097 3.27765   2
  -3  -7  -3 16.4883 2.78959   5
  -3  -7  -3 22.8059 2.49775   5
  -3  -7  -3 15.0199 2.91126   6
   3   7   3 17.4060 3.03755   6
   3   7   3 14.6552 3.21718   1
   3   7   3 15.3748 3.13297   5
   3   7   3 15.9566 3.66672   1
   3   7   3 15.9501 1.63681   4
   3   7   3 13.6558 3.11496   5
   3   7   3 20.1582 3.04490   3
  -4  -7  -3 34.8136 3.41897   6
  -4  -7  -3 41.6543 4.40105   5
  -4  -7  -3 29.9384 4.02626   2
  -4  -7  -3 38.6640 3.70047   6
   4   7   3 34.8632 2.52259   4
   4   7   3 37.2093 3.99743   5
   4   7   3 37.9728 3.82690   3
   4   7   3 49.1535 4.80787   6
   4   7   3 35.5283 4.42587   1
   4   7   3 33.7283 4.33317   5
  -5  -7  -3 0.43118 2.96102   2
  -5  -7  -3 -0.2864 1.88144   6
  -5  -7  -3 1.90925 2.43625   6
   5   7   3 2.60625 3.06669   3
   5   7   3 3.70837 4.49892   1
   5   7   3 4.17077 4.33715   5
   5   7   3 -1.3276 3.42801   5
   7  -8  -3 -1.2836 3.29550   2
   7  -8  -3 -1.0308 4.20687   5
  -7   8   3 2.08628 4.24523   6
  -7   8   3 0.18679 3.36941   3
   6  -8  -3 -2.0065 3.49145   6
   6  -8  -3 -4.1988 3.52398   5
   6  -8  -3 -0.1646 2.68458   2
   6  -8  -3 4.49013 5.16328   5
  -6   8   3 -0.4393 3.54032   6
  -6   8   3 -1.6237 3.38674   5
  -6   8   3 -2.6422 3.45663   3
   5  -8  -3 17.0032 3.42961   6
   5  -8  -3 14.8875 2.85559   2
   5  -8  -3 15.5558 4.50904   5
   5  -8  -3 12.8308 4.20489   4
   5  -8  -3 29.7198 4.98050   6
   5  -8  -3 16.4971 3.52227   5
  -5   8   3 20.8229 4.03728   3
  -5   8   3 23.4160 4.08338   6
  -5   8   3 12.8286 4.10925   5
   4  -8  -3 2.26880 3.15099   5
   4  -8  -3 6.81536 2.51790   2
   4  -8  -3 3.32757 2.66562   6
   4  -8  -3 5.70763 3.19749   4
   4  -8  -3 4.37177 3.86172   6
   4  -8  -3 -1.6261 3.40410   5
  -4   8   3 4.23631 3.07865   3
  -4   8   3 0.13335 3.20855   5
  -4   8   3 1.76672 3.05688   6
  -4   8   3 2.18107 2.91465   4
  -4   8   3 4.98973 3.81314   5
   3  -8  -3 22.8781 4.17122   5
   3  -8  -3 21.3382 3.21689   6
   3  -8  -3 18.1443 3.75103   6
   3  -8  -3 20.8056 3.00042   2
   3  -8  -3 16.6348 3.06411   5
   3  -8  -3 20.6006 2.90795   4
  -3   8   3 16.7358 3.35699   3
  -3   8   3 15.4086 2.96783   4
  -3   8   3 17.8834 3.96848   5
  -3   8   3 22.3382 3.78348   5
  -3   8   3 20.4627 3.89302   6
  -3   8   3 19.1464 1.90613   1
  -3   8   3 20.7294 2.00840   1
   2  -8  -3 62.8488 6.03585   6
   2  -8  -3 59.4495 5.34640   5
   2  -8  -3 55.4351 5.11059   6
   2  -8  -3 53.5368 4.61653   5
   2  -8  -3 61.3328 4.22533   2
   2  -8  -3 59.9945 4.13607   4
  -2   8   3 57.2679 5.83544   6
  -2   8   3 57.5301 3.35334   1
  -2   8   3 62.7998 6.66674   5
  -2   8   3 58.4264 5.93338   5
  -2   8   3 55.4881 4.56248   4
  -2   8   3 58.0510 3.48778   1
  -2   8   3 57.5429 5.11165   3
   1  -8  -3 40.8976 4.36417   6
   1  -8  -3 24.9879 3.19034   6
   1  -8  -3 30.9406 2.43510   4
   1  -8  -3 43.3226 4.49402   5
   1  -8  -3 29.4088 3.35314   2
   1  -8  -3 32.5179 3.73801   5
  -1   8   3 39.5955 3.83876   4
  -1   8   3 30.6830 4.16607   5
  -1   8   3 30.8822 3.55381   3
  -1   8   3 32.6738 4.01919   6
  -1   8   3 36.3813 3.58437   1
  -1   8   3 30.8906 2.62159   1
  -1   8   3 35.3399 3.94048   5
   0  -8  -3 4.72904 2.95113   5
   0  -8  -3 4.27430 3.15545   6
   0  -8  -3 6.06040 1.59813   4
   0  -8  -3 3.36914 2.35845   2
   0  -8  -3 2.21521 2.33982   6
   0  -8  -3 2.90578 2.32876   5
   0   8   3 2.49175 3.22768   6
   0   8   3 2.53184 2.22919   1
   0   8   3 3.03445 2.79432   5
   0   8   3 3.44222 2.02250   4
   0   8   3 1.87762 2.65464   3
   0   8   3 0.89637 2.21217   1
   0   8   3 3.24620 2.95917   5
  -1  -8  -3 34.3935 2.65669   4
  -1  -8  -3 40.0138 4.68145   5
  -1  -8  -3 36.2578 4.06615   6
  -1  -8  -3 32.0644 3.31295   5
  -1  -8  -3 34.5258 3.87203   2
  -1  -8  -3 34.5485 3.41769   6
   1   8   3 43.3886 4.59638   6
   1   8   3 30.2714 2.64562   4
   1   8   3 29.0628 3.34087   3
   1   8   3 39.6218 4.25222   5
   1   8   3 33.1568 3.48416   1
   1   8   3 32.2864 3.60424   1
   1   8   3 35.8026 4.41498   5
  -2  -8  -3 25.1433 3.14851   6
  -2  -8  -3 23.0211 1.83564   4
  -2  -8  -3 17.3465 3.77547   5
  -2  -8  -3 18.1245 3.06736   5
  -2  -8  -3 17.0110 3.25975   2
   2   8   3 19.9657 3.67038   1
   2   8   3 20.2345 3.70914   5
   2   8   3 23.7682 2.27422   4
   2   8   3 18.3078 3.58265   5
   2   8   3 19.0477 3.79275   1
   2   8   3 18.4498 4.06230   6
   2   8   3 18.9138 3.21231   3
  -3  -8  -3 60.5544 5.16760   6
  -3  -8  -3 62.0880 5.10305   5
  -3  -8  -3 63.4000 6.16310   6
  -3  -8  -3 45.8024 4.95663   2
   3   8   3 44.3438 4.76591   1
   3   8   3 59.7436 5.33797   6
   3   8   3 50.7621 4.89137   5
   3   8   3 56.3372 5.12926   3
   3   8   3 48.4090 3.47973   4
   3   8   3 67.0291 5.68545   5
  -4  -8  -3 4.15767 2.61925   6
  -4  -8  -3 -2.1798 3.27148   6
  -4  -8  -3 -0.7360 2.78328   5
   4   8   3 -0.5503 3.87377   5
   4   8   3 0.49329 2.99643   3
   4   8   3 -2.0502 4.59684   1
  -5  -8  -3 17.6901 4.13552   2
   5   8   3 23.1792 3.76018   3
   5   8   3 33.1516 9.40747   1
   6  -9  -3 5.74497 3.25901   2
   6  -9  -3 -3.8383 4.94747   5
  -6   9   3 -1.3104 4.08741   3
  -6   9   3 -2.9802 4.63408   6
   5  -9  -3 17.2508 3.42185   2
   5  -9  -3 17.6645 3.77801   6
   5  -9  -3 11.5319 5.85146   5
   5  -9  -3 9.03266 6.10235   6
   5  -9  -3 17.4519 4.85939   5
  -5   9   3 24.5361 5.02969   6
  -5   9   3 5.59640 3.96077   5
  -5   9   3 15.9046 3.96030   3
   4  -9  -3 2.70460 2.72835   2
   4  -9  -3 -1.7547 6.06854   5
   4  -9  -3 2.15028 3.68042   4
   4  -9  -3 6.90613 4.21249   5
   4  -9  -3 10.8403 4.81689   6
   4  -9  -3 6.62822 3.51658   6
  -4   9   3 12.4674 3.82564   4
  -4   9   3 5.59765 5.41025   5
  -4   9   3 3.76050 4.05392   6
  -4   9   3 -1.8584 4.06029   5
  -4   9   3 2.64485 3.25607   3
   3  -9  -3 9.80737 4.45444   5
   3  -9  -3 12.2394 2.93771   2
   3  -9  -3 13.4422 3.23559   4
   3  -9  -3 12.8339 3.40420   6
   3  -9  -3 19.6566 4.96120   6
   3  -9  -3 10.2844 3.58355   5
  -3   9   3 13.2492 4.91310   5
  -3   9   3 11.0200 3.45626   3
  -3   9   3 12.6038 3.58014   4
  -3   9   3 12.7642 1.59877   1
  -3   9   3 12.7700 1.61176   1
  -3   9   3 18.8144 4.52017   5
   2  -9  -3 180.015 9.75803   5
   2  -9  -3 177.205 8.45466   6
   2  -9  -3 165.992 7.56633   2
   2  -9  -3 180.662 7.28928   4
   2  -9  -3 179.561 8.84161   5
   2  -9  -3 178.760 9.84675   6
  -2   9   3 168.973 8.34157   3
  -2   9   3 170.502 9.53921   6
  -2   9   3 185.844 8.03876   4
  -2   9   3 173.013 6.51293   1
  -2   9   3 188.990 9.50433   5
  -2   9   3 172.930 10.0971   5
  -2   9   3 180.272 6.59675   1
   1  -9  -3 41.5483 4.34535   6
   1  -9  -3 37.0106 4.86932   6
   1  -9  -3 28.5987 4.73076   5
   1  -9  -3 33.5737 2.83485   4
   1  -9  -3 31.6233 4.16933   5
   1  -9  -3 27.1106 3.49514   2
  -1   9   3 31.0689 3.94035   3
  -1   9   3 29.8380 3.45127   4
  -1   9   3 28.9455 4.56042   5
  -1   9   3 34.8421 3.14754   1
  -1   9   3 37.7736 4.81466   5
  -1   9   3 31.1388 3.20419   1
  -1   9   3 22.1100 4.38642   6
   0  -9  -3 2.40110 2.64398   2
   0  -9  -3 5.70508 4.39373   5
   0  -9  -3 -1.8142 3.35847   5
   0  -9  -3 2.27785 1.98788   4
   0  -9  -3 -3.4542 2.83344   6
   0  -9  -3 5.55492 4.05408   6
   0   9   3 -2.9901 3.89007   5
   0   9   3 -2.2147 3.92266   5
   0   9   3 2.40289 2.92773   3
   0   9   3 -2.5861 2.99021   1
   0   9   3 -0.3606 2.99795   1
   0   9   3 3.48424 2.60870   4
   0   9   3 -1.8520 4.13895   6
  -1  -9  -3 0.11073 2.90064   2
  -1  -9  -3 3.01395 3.32977   6
  -1  -9  -3 3.74109 3.85952   6
  -1  -9  -3 4.97732 3.23502   5
   1   9   3 3.15925 4.75545   5
   1   9   3 -1.5116 4.13575   6
   1   9   3 0.30427 2.78356   3
   1   9   3 5.58302 3.75435   1
   1   9   3 5.17546 4.14082   5
   1   9   3 5.85300 2.52487   4
   1   9   3 3.25714 3.63238   1
  -2  -9  -3 0.47623 2.95781   2
  -2  -9  -3 3.28567 3.66014   5
  -2  -9  -3 2.22743 3.34148   6
  -2  -9  -3 2.02215 1.92216   4
   2   9   3 4.41313 4.09238   1
   2   9   3 6.98696 2.95720   3
   2   9   3 5.91431 4.60542   6
   2   9   3 5.47580 4.60919   5
   2   9   3 1.14095 4.70380   5
   2   9   3 1.72668 2.37003   4
  -3  -9  -3 12.2095 3.49764   2
  -3  -9  -3 15.6539 3.63792   6
   3   9   3 12.0226 3.55669   3
   3   9   3 15.4578 5.18736   1
   3   9   3 12.0191 4.87159   5
   5 -10  -3 -8.2768 5.15972   5
   5 -10  -3 2.37542 3.28595   2
  -5  10   3 -3.8529 3.84738   3
  -5  10   3 5.81471 6.40305   6
   4 -10  -3 23.0415 12.0355   5
   4 -10  -3 26.6972 3.99357   2
   4 -10  -3 31.9208 5.37664   5
   4 -10  -3 28.4272 6.63570   6
   4 -10  -3 29.1272 4.97708   6
  -4  10   3 36.4568 5.61953   4
  -4  10   3 22.0645 6.25002   6
  -4  10   3 31.2527 5.19510   3
   3 -10  -3 3.54306 4.11588   4
   3 -10  -3 7.48426 6.45972   5
   3 -10  -3 12.4775 5.20693   5
   3 -10  -3 8.57643 5.66155   6
   3 -10  -3 7.68889 3.09161   2
   3 -10  -3 5.67781 4.02018   6
  -3  10   3 1.98846 4.37825   4
  -3  10   3 10.2133 6.67485   5
  -3  10   3 10.0203 5.61444   6
  -3  10   3 22.5028 5.53168   5
  -3  10   3 12.7491 4.06723   3
  -3  10   3 10.0260 2.04269   1
   2 -10  -3 20.3282 5.81272   5
   2 -10  -3 24.6466 6.27516   6
   2 -10  -3 23.8269 3.98395   4
   2 -10  -3 21.4982 3.54102   2
   2 -10  -3 13.0453 4.02304   6
   2 -10  -3 27.4120 4.50480   5
  -2  10   3 20.9518 10.1720   5
  -2  10   3 26.3304 4.58329   3
  -2  10   3 21.6744 5.47703   5
  -2  10   3 31.3472 4.37840   4
  -2  10   3 26.8357 3.12618   1
  -2  10   3 23.4627 3.46614   1
   1 -10  -3 19.7349 5.87594   6
   1 -10  -3 11.6872 3.42362   2
   1 -10  -3 11.7314 6.35408   5
   1 -10  -3 10.8679 4.45613   6
   1 -10  -3 12.9139 4.17329   5
   1 -10  -3 13.2502 3.19044   4
  -1  10   3 20.9800 5.95973   5
  -1  10   3 23.1249 3.73620   1
  -1  10   3 8.12026 3.91334   4
  -1  10   3 17.9465 7.57306   5
  -1  10   3 11.8115 7.19576   6
  -1  10   3 16.1772 3.77632   1
  -1  10   3 12.7955 3.72021   3
   0 -10  -3 8.30003 3.36396   2
   0 -10  -3 9.21859 4.34565   5
   0 -10  -3 14.3642 2.90978   4
   0 -10  -3 17.9535 4.28582   6
   0  10   3 8.83343 7.67914   5
   0  10   3 9.44815 5.61227   6
   0  10   3 11.9732 3.84118   3
   0  10   3 13.3039 3.48881   4
   0  10   3 13.7383 5.51784   5
   0  10   3 14.2062 4.14978   1
   0  10   3 12.8156 4.64813   1
  -1 -10  -3 -4.9737 4.15386   6
  -1 -10  -3 -0.9498 4.88730   2
   1  10   3 10.4225 4.82194   1
   1  10   3 -3.7080 3.13716   3
   1  10   3 -8.2244 5.44273   5
   1  10   3 0.58024 3.03157   4
  -2 -10  -3 14.0639 4.43314   6
  -2 -10  -3 8.76079 3.38375   2
   2  10   3 12.9148 3.95464   3
   2  10   3 10.1656 6.27081   5
   2  10   3 10.3789 5.79904   1
   2  10  -4 13.6327 6.08588   5
   2  10  -4 4.61807 3.59962   3
   2  10  -4 13.3905 5.15775   4
  -2 -10   4 9.70444 3.72134   2
   1  10  -4 3.15271 4.34736   4
   1  10  -4 -0.1166 3.84865   3
   1  10  -4 1.33641 5.30923   5
   1  10  -4 1.46615 5.48039   6
  -1 -10   4 4.97036 3.13048   2
   0  10  -4 49.7374 5.31108   4
   0  10  -4 71.6381 7.07207   6
   0  10  -4 59.5524 6.06727   3
   0  10  -4 79.5615 7.33701   5
   0  10  -4 49.3405 5.67814   1
   0  10  -4 62.5790 8.10672   5
   0 -10   4 53.8366 5.99900   6
   0 -10   4 61.4531 5.46155   2
   0 -10   4 80.7434 8.59187   5
  -1  10  -4 5.54061 4.39602   1
  -1  10  -4 13.1212 5.66716   5
  -1  10  -4 7.20640 3.60270   3
  -1  10  -4 6.17473 4.25441   4
  -1  10  -4 15.4581 5.49911   6
  -1  10  -4 7.99806 7.27441   5
   1 -10   4 5.97131 3.09953   2
   1 -10   4 5.96051 4.39225   6
   1 -10   4 7.43509 4.55664   5
   1 -10   4 13.4864 3.76569   1
   1 -10   4 15.5337 6.43430   5
  -2  10  -4 62.4539 7.50097   5
  -2  10  -4 75.6609 7.30183   1
  -2  10  -4 74.9407 6.33327   3
  -2  10  -4 69.8592 7.38497   6
  -2  10  -4 52.1524 5.79670   4
  -2  10  -4 64.4537 6.40753   5
   2 -10   4 66.5629 6.28785   1
   2 -10   4 76.6017 8.37832   5
   2 -10   4 79.9949 8.79009   6
   2 -10   4 67.1990 5.35011   2
   2 -10   4 84.9471 7.26769   5
  -3  10  -4 4.60354 6.08486   6
  -3  10  -4 4.41807 3.96076   1
  -3  10  -4 -0.2552 4.66926   4
  -3  10  -4 3.75941 5.94448   5
  -3  10  -4 4.52656 4.80218   3
   3 -10   4 0.41905 4.30533   1
   3 -10   4 -4.9026 7.49588   5
   3 -10   4 -1.7057 4.96947   6
   3 -10   4 1.71906 5.15913   5
  -4  10  -4 1.15533 5.16150   4
  -4  10  -4 10.1509 6.64021   6
  -4  10  -4 3.48744 4.38762   3
   4 -10   4 11.2211 3.54993   1
   4 -10   4 9.01770 6.21600   5
   4   9  -4 14.1930 3.77018   3
   4   9  -4 17.1879 4.75915   4
   4   9  -4 27.9229 5.63530   5
  -4  -9   4 16.7437 3.92415   2
  -4  -9   4 19.1489 4.25143   6
   3   9  -4 28.3224 4.30474   4
   3   9  -4 17.6491 3.52719   3
   3   9  -4 13.2322 4.87973   5
  -3  -9   4 21.2918 3.70062   2
   2   9  -4 8.13889 3.11921   3
   2   9  -4 17.9982 4.74489   5
   2   9  -4 10.6751 3.51148   4
   2   9  -4 13.8609 4.46723   6
   2   9  -4 13.0635 5.48508   5
  -2  -9   4 12.7280 3.56770   4
  -2  -9   4 17.7924 3.73176   6
  -2  -9   4 13.5253 3.23201   2
   1   9  -4 7.38293 3.88290   1
   1   9  -4 2.85247 4.62825   5
   1   9  -4 4.78399 3.20740   4
   1   9  -4 4.01767 3.80678   6
   1   9  -4 6.72236 4.52417   5
   1   9  -4 6.39180 3.10780   3
  -1  -9   4 5.78909 4.26689   5
  -1  -9   4 5.29388 3.54605   5
  -1  -9   4 4.97931 2.94300   2
  -1  -9   4 5.13792 3.04726   4
  -1  -9   4 4.56126 3.38783   1
  -1  -9   4 9.63474 3.46682   6
   0   9  -4 80.7335 5.67954   3
   0   9  -4 90.6450 8.20463   5
   0   9  -4 92.2277 6.48010   4
   0   9  -4 85.6806 7.81209   6
   0   9  -4 74.1425 8.02002   5
   0   9  -4 100.364 6.61255   1
   0  -9   4 95.9249 6.25218   1
   0  -9   4 81.9610 6.19781   4
   0  -9   4 80.1779 6.66773   6
   0  -9   4 89.0343 7.14404   5
   0  -9   4 77.9283 7.96855   5
   0  -9   4 85.9288 5.36875   2
  -1   9  -4 26.4300 3.44446   1
  -1   9  -4 18.6047 4.41062   5
  -1   9  -4 24.7697 4.78653   6
  -1   9  -4 29.8961 5.19267   5
  -1   9  -4 20.7430 3.55350   3
  -1   9  -4 19.0464 3.56470   4
   1  -9   4 21.9669 3.78502   1
   1  -9   4 34.5240 4.85217   5
   1  -9   4 22.2180 4.02140   5
   1  -9   4 25.5843 3.21597   2
   1  -9   4 19.5032 3.53196   4
   1  -9   4 18.8892 3.76593   6
  -2   9  -4 50.5276 5.64355   6
  -2   9  -4 31.1255 3.92647   3
  -2   9  -4 41.6036 3.69703   1
  -2   9  -4 38.0047 4.76337   5
  -2   9  -4 40.1845 5.41402   5
  -2   9  -4 42.4955 4.58384   4
   2  -9   4 42.5122 3.57438   1
   2  -9   4 52.3072 5.28074   5
   2  -9   4 41.6932 4.43393   6
   2  -9   4 47.2892 5.92218   4
   2  -9   4 41.8272 4.13378   2
   2  -9   4 32.3883 4.75307   5
  -3   9  -4 24.2752 5.35713   5
  -3   9  -4 30.5433 5.07643   6
  -3   9  -4 28.4361 3.31671   1
  -3   9  -4 20.0302 4.72693   5
  -3   9  -4 25.9477 3.96710   3
  -3   9  -4 32.2481 4.53818   4
   3  -9   4 21.8872 4.37586   5
   3  -9   4 30.7238 4.57044   6
   3  -9   4 29.4887 3.11825   1
  -4   9  -4 49.9285 5.85707   6
  -4   9  -4 51.1509 5.87798   5
  -4   9  -4 35.8559 4.48350   3
  -4   9  -4 49.5116 3.77941   1
  -4   9  -4 33.4703 4.91000   4
   4  -9   4 34.3541 4.98779   6
   4  -9   4 37.2071 5.19415   5
   4  -9   4 47.0999 4.28701   1
  -5   9  -4 -1.6019 3.39652   3
  -5   9  -4 -6.1017 4.76128   4
  -5   9  -4 -1.3390 5.00292   6
   5  -9   4 2.01730 2.33766   1
   5  -9   4 0.78633 4.59469   5
  -6   9  -4 6.13750 4.30388   3
  -6   9  -4 -3.6644 5.25417   6
   6  -9   4 7.37908 5.95571   5
   5   8  -4 23.2336 3.93037   3
   5   8  -4 25.9551 4.39396   4
   5   8  -4 24.1663 4.79395   5
  -5  -8   4 26.2711 4.41189   2
  -5  -8   4 25.4885 3.64170   6
  -5  -8   4 33.5894 3.66338   6
  -5  -8   4 25.6468 3.32545   5
   4   8  -4 -1.5228 2.72190   3
   4   8  -4 5.93104 4.52154   6
   4   8  -4 4.51694 4.03938   5
   4   8  -4 2.64052 3.23763   4
   4   8  -4 2.36793 4.40763   5
  -4  -8   4 -1.3290 3.09349   2
  -4  -8   4 -4.5515 2.64944   6
  -4  -8   4 -0.0472 3.01175   6
  -4  -8   4 3.88650 3.50487   4
  -4  -8   4 1.28402 2.86019   5
   3   8  -4 65.9871 5.45774   5
   3   8  -4 71.5414 5.44055   4
   3   8  -4 56.0801 4.85610   3
   3   8  -4 67.0844 6.78225   1
   3   8  -4 72.2730 6.70375   5
   3   8  -4 50.5957 5.51636   6
  -3  -8   4 66.7551 5.19430   6
  -3  -8   4 51.5881 4.14181   4
  -3  -8   4 59.8405 5.30709   2
  -3  -8   4 68.3017 5.59385   5
   2   8  -4 3.63996 3.27911   5
   2   8  -4 2.37808 2.85304   6
   2   8  -4 8.37860 3.70441   1
   2   8  -4 4.06608 2.53109   3
   2   8  -4 3.12773 3.44335   5
   2   8  -4 2.26559 2.62017   4
  -2  -8   4 7.18762 3.03050   5
  -2  -8   4 4.03473 2.55396   2
  -2  -8   4 4.28323 2.42800   6
  -2  -8   4 5.13237 2.47147   4
  -2  -8   4 -2.5572 2.66793   1
   1   8  -4 11.5487 2.75707   3
   1   8  -4 14.6091 3.17807   6
   1   8  -4 14.2324 3.40794   1
   1   8  -4 15.4875 2.95758   4
   1   8  -4 17.3142 3.69481   5
   1   8  -4 10.0144 3.20331   5
  -1  -8   4 16.8586 2.98935   2
  -1  -8   4 21.2533 3.56351   5
  -1  -8   4 12.7079 3.30626   5
  -1  -8   4 16.2188 2.93277   1
  -1  -8   4 18.1207 3.18705   6
  -1  -8   4 15.7633 2.64918   4
   0   8  -4 15.9135 3.70923   5
   0   8  -4 12.0341 3.46559   5
   0   8  -4 11.0560 2.82331   3
   0   8  -4 12.3322 2.81488   1
   0   8  -4 5.63720 2.50214   4
   0   8  -4 15.8935 3.48075   6
   0  -8   4 9.49417 2.48686   6
   0  -8   4 14.6269 2.81429   4
   0  -8   4 8.53970 2.79316   5
   0  -8   4 9.97740 2.48563   1
   0  -8   4 10.7581 3.31535   5
   0  -8   4 12.0050 2.53430   2
  -1   8  -4 104.807 6.92553   6
  -1   8  -4 102.689 5.85952   3
  -1   8  -4 106.949 6.99521   5
  -1   8  -4 108.315 7.18770   5
  -1   8  -4 106.136 6.05573   4
  -1   8  -4 100.437 5.39078   1
   1  -8   4 103.998 6.80780   5
   1  -8   4 103.082 5.52121   4
   1  -8   4 111.268 6.73472   5
   1  -8   4 110.800 6.14659   6
   1  -8   4 99.4816 5.18061   1
   1  -8   4 94.2641 5.03277   2
  -2   8  -4 37.1085 3.76933   4
  -2   8  -4 35.6218 4.01858   5
  -2   8  -4 29.0044 3.57548   3
  -2   8  -4 46.8020 4.56298   6
  -2   8  -4 42.4079 4.04882   1
  -2   8  -4 40.5850 4.38126   5
   2  -8   4 41.7175 3.52254   2
   2  -8   4 28.7645 3.59381   5
   2  -8   4 43.3585 4.01873   6
   2  -8   4 37.4641 3.08058   1
   2  -8   4 39.2442 3.54132   4
  -3   8  -4 98.6608 7.03245   5
  -3   8  -4 107.379 6.64100   4
  -3   8  -4 100.989 7.17555   6
  -3   8  -4 111.701 7.41017   5
  -3   8  -4 97.5375 6.19490   3
  -3   8  -4 106.003 5.26675   1
   3  -8   4 113.357 6.59684   6
   3  -8   4 102.742 4.47005   2
   3  -8   4 113.912 5.11696   1
   3  -8   4 107.259 6.35952   4
   3  -8   4 101.299 6.98081   5
  -4   8  -4 2.17177 3.31227   4
  -4   8  -4 -6.2153 4.28611   5
  -4   8  -4 3.58865 2.17816   1
  -4   8  -4 2.09726 3.09264   3
  -4   8  -4 -2.9741 3.35463   5
  -4   8  -4 2.89621 3.51126   6
   4  -8   4 3.67158 3.00353   6
   4  -8   4 -5.1531 3.24031   4
   4  -8   4 -0.4312 3.14380   5
   4  -8   4 5.51545 2.13988   1
  -5   8  -4 13.3390 3.55142   3
  -5   8  -4 16.6656 3.77179   5
  -5   8  -4 11.4104 3.94560   6
  -5   8  -4 8.71531 2.44781   1
  -5   8  -4 7.01973 4.06803   4
   5  -8   4 10.8088 4.15731   5
   5  -8   4 12.2023 4.02932   6
   5  -8   4 9.37947 2.15195   1
  -6   8  -4 13.5787 4.00205   3
  -6   8  -4 9.75494 5.30442   4
  -6   8  -4 15.8018 4.47395   6
   6  -8   4 18.5193 2.46709   1
   6  -8   4 15.4184 4.83368   5
   6   7  -4 13.0536 3.86021   4
   6   7  -4 13.2418 4.07121   5
  -6  -7   4 10.9012 2.42672   6
  -6  -7   4 14.8466 2.49374   6
  -6  -7   4 7.68886 3.74709   2
   5   7  -4 8.98872 2.79449   3
   5   7  -4 8.93649 3.47456   5
   5   7  -4 13.1946 4.21272   6
   5   7  -4 12.9645 3.06878   4
   5   7  -4 9.29702 3.48917   5
  -5  -7   4 15.7601 3.69658   2
  -5  -7   4 11.8301 2.44729   6
  -5  -7   4 12.3352 2.18065   5
  -5  -7   4 5.53275 3.70483   4
  -5  -7   4 13.2998 2.64105   6
   4   7  -4 14.4030 2.84303   4
   4   7  -4 12.9822 3.26373   5
   4   7  -4 20.1881 3.47632   6
   4   7  -4 18.5430 3.00051   3
   4   7  -4 19.8423 3.46160   5
   4   7  -4 11.8174 3.94931   1
  -4  -7   4 13.0810 3.12357   2
  -4  -7   4 18.8913 2.58861   6
  -4  -7   4 15.7828 2.62670   5
  -4  -7   4 16.7789 3.03999   4
  -4  -7   4 17.1260 2.68143   5
   3   7  -4 18.0005 3.48753   1
   3   7  -4 26.1424 3.18626   6
   3   7  -4 24.6706 3.25386   5
   3   7  -4 22.4282 3.07057   3
   3   7  -4 27.0411 3.39520   5
   3   7  -4 23.4606 3.08528   4
  -3  -7   4 25.2384 2.95442   5
  -3  -7   4 22.9189 2.59439   6
  -3  -7   4 21.1341 3.21001   2
  -3  -7   4 25.4522 3.04927   5
  -3  -7   4 26.2480 2.89022   4
  -3  -7   4 24.0897 3.20784   1
   2   7  -4 36.1440 3.63130   5
   2   7  -4 38.4568 3.80892   6
   2   7  -4 33.4102 3.59818   3
   2   7  -4 34.9484 3.53248   5
   2   7  -4 38.7194 3.53699   1
   2   7  -4 40.4271 3.74812   4
  -2  -7   4 29.0740 2.74976   6
  -2  -7   4 31.5815 2.69575   4
  -2  -7   4 37.4931 3.76332   2
  -2  -7   4 31.5066 3.00343   5
   1   7  -4 22.0951 3.25605   5
   1   7  -4 22.6922 3.04652   5
   1   7  -4 16.6021 2.81728   1
   1   7  -4 17.2858 2.59703   3
   1   7  -4 22.6109 2.68280   4
   1   7  -4 20.7470 3.08432   6
  -1  -7   4 19.3377 2.32851   4
  -1  -7   4 25.0908 3.16463   5
  -1  -7   4 16.9616 2.68725   5
  -1  -7   4 18.0602 2.64544   2
  -1  -7   4 20.2584 2.64995   1
  -1  -7   4 18.8929 2.48367   6
   0   7  -4 23.8477 2.88975   3
   0   7  -4 22.9017 3.16139   5
   0   7  -4 20.9233 3.30041   5
   0   7  -4 21.2093 2.74795   6
   0   7  -4 18.8886 2.44760   4
   0   7  -4 20.3693 2.50004   1
   0  -7   4 22.3395 2.74075   6
   0  -7   4 19.2348 2.36206   4
   0  -7   4 21.6656 2.54565   1
   0  -7   4 17.4657 2.86954   5
   0  -7   4 20.0764 2.71584   5
   0  -7   4 24.3215 2.55259   2
  -1   7  -4 205.392 8.07541   3
  -1   7  -4 225.644 8.75329   5
  -1   7  -4 215.545 7.51726   1
  -1   7  -4 213.239 7.99237   4
  -1   7  -4 221.676 8.58130   5
  -1   7  -4 218.692 8.58403   6
   1  -7   4 217.758 7.37663   2
   1  -7   4 215.891 7.66749   4
   1  -7   4 222.214 8.53968   5
   1  -7   4 215.889 8.42787   5
   1  -7   4 213.810 7.48244   1
   1  -7   4 219.556 8.13214   6
  -2   7  -4 7.94378 2.36417   3
  -2   7  -4 7.18502 3.28997   1
  -2   7  -4 9.64978 2.34333   4
  -2   7  -4 9.34954 2.60275   5
  -2   7  -4 8.06531 2.62036   5
  -2   7  -4 15.2240 2.97052   6
   2  -7   4 8.52843 2.11662   4
   2  -7   4 14.0101 2.95050   5
   2  -7   4 11.3632 2.05547   2
   2  -7   4 7.93723 2.35069   6
   2  -7   4 12.9860 1.96053   1
  -3   7  -4 19.9772 3.36011   5
  -3   7  -4 21.3719 3.25290   4
  -3   7  -4 18.1127 2.91667   3
  -3   7  -4 20.5913 2.16449   1
  -3   7  -4 23.6355 3.41460   6
  -3   7  -4 26.1224 3.56501   5
   3  -7   4 21.7272 2.22506   2
   3  -7   4 21.1146 3.22902   5
   3  -7   4 21.0129 2.96723   6
   3  -7   4 22.9722 3.13117   4
   3  -7   4 21.1378 2.16040   1
  -4   7  -4 21.8730 3.36406   5
  -4   7  -4 27.2487 3.56151   6
  -4   7  -4 25.2818 3.68773   3
  -4   7  -4 19.3667 2.83879   5
  -4   7  -4 23.2295 2.25619   1
  -4   7  -4 23.1065 3.55099   4
   4  -7   4 21.3430 3.31141   5
   4  -7   4 24.3725 2.34518   1
   4  -7   4 23.8717 3.41634   4
   4  -7   4 23.9839 3.13031   6
  -5   7  -4 47.3526 4.10416   5
  -5   7  -4 46.2888 4.47370   3
  -5   7  -4 36.6782 3.95912   5
  -5   7  -4 44.8714 4.22941   6
  -5   7  -4 39.2344 4.29658   4
  -5   7  -4 43.7280 3.77266   1
   5  -7   4 46.0702 4.45026   6
   5  -7   4 40.8419 3.65905   1
   5  -7   4 40.3555 4.24511   4
   5  -7   4 36.5874 3.76882   5
  -6   7  -4 1.75475 3.09118   5
  -6   7  -4 -2.5030 3.38396   6
  -6   7  -4 -6.4116 3.98803   4
  -6   7  -4 -0.7143 2.90756   3
  -6   7  -4 3.21820 2.27840   1
  -6   7  -4 0.48897 3.22107   6
   6  -7   4 4.99142 2.01727   1
   6  -7   4 5.76524 3.28192   5
   6  -7   4 -0.8362 3.60981   5
  -7   7  -4 22.0084 3.98641   6
  -7   7  -4 26.2453 3.78938   5
  -7   7  -4 33.9636 4.99300   6
  -7   7  -4 23.4950 4.33323   3
  -7   7  -4 20.6483 5.54017   4
   7  -7   4 21.7368 4.66698   5
   7   6  -4 7.39311 3.76541   5
   7   6  -4 -1.6980 5.65820   4
  -7  -6   4 4.33671 3.72745   2
   6   6  -4 5.10460 3.13615   5
   6   6  -4 -3.9970 2.85704   4
   6   6  -4 3.28011 3.08267   5
   6   6  -4 -1.5205 3.71751   6
  -6  -6   4 3.43112 3.09145   2
  -6  -6   4 3.87985 1.60387   6
  -6  -6   4 1.84300 1.72253   6
   5   6  -4 103.613 5.88434   5
   5   6  -4 100.092 5.90648   5
   5   6  -4 118.751 5.59818   4
   5   6  -4 95.2162 7.95606   1
   5   6  -4 99.7527 5.95912   6
  -5  -6   4 98.6523 6.30157   2
  -5  -6   4 105.570 4.10170   5
  -5  -6   4 109.156 4.70768   6
  -5  -6   4 100.503 4.11865   5
   4   6  -4 58.4206 5.64756   1
   4   6  -4 61.0525 4.61140   5
   4   6  -4 46.9839 4.52494   5
   4   6  -4 61.5289 4.59124   6
   4   6  -4 55.3627 3.90867   4
  -4  -6   4 58.9101 3.72220   5
  -4  -6   4 55.9795 3.76910   5
  -4  -6   4 56.7641 4.39142   4
  -4  -6   4 63.1422 3.81729   6
  -4  -6   4 53.7324 4.65685   2
   3   6  -4 3.83149 2.11513   5
   3   6  -4 2.41511 1.63336   4
   3   6  -4 3.12547 2.06696   5
   3   6  -4 1.06635 2.52643   1
   3   6  -4 1.85531 1.81082   6
  -3  -6   4 -0.9044 2.17183   1
  -3  -6   4 0.39609 1.71993   4
  -3  -6   4 2.52290 2.13102   2
  -3  -6   4 0.40024 1.48044   6
  -3  -6   4 0.81539 1.78234   5
  -3  -6   4 1.76548 1.73086   5
   2   6  -4 170.924 7.12626   6
   2   6  -4 184.213 7.08998   5
   2   6  -4 177.803 6.44091   4
   2   6  -4 166.284 6.65981   3
   2   6  -4 176.213 6.99934   5
   2   6  -4 185.782 6.96240   1
  -2  -6   4 182.886 6.30497   4
  -2  -6   4 175.283 6.81213   1
  -2  -6   4 169.927 6.82557   2
  -2  -6   4 178.255 6.71994   5
  -2  -6   4 182.483 6.58367   6
   1   6  -4 42.4419 4.00974   5
   1   6  -4 42.9208 3.84166   6
   1   6  -4 38.1495 3.56049   1
   1   6  -4 37.1092 3.74313   5
   1   6  -4 49.9272 3.19639   4
   1   6  -4 40.9317 3.31925   3
  -1  -6   4 37.8054 3.31468   1
  -1  -6   4 41.3187 3.22404   2
  -1  -6   4 36.6254 3.62593   5
  -1  -6   4 45.5419 3.35774   6
  -1  -6   4 37.2143 3.00940   4
  -1  -6   4 42.2107 3.71585   5
   0   6  -4 28.4342 2.47878   1
   0   6  -4 19.2812 2.42680   6
   0   6  -4 20.2976 2.63489   5
   0   6  -4 23.0007 2.45969   5
   0   6  -4 26.2731 2.43655   4
   0   6  -4 26.1495 2.76942   3
   0  -6   4 22.0540 2.20056   1
   0  -6   4 30.2345 2.40586   4
   0  -6   4 26.7709 2.68653   5
   0  -6   4 25.0048 2.34090   2
   0  -6   4 27.1546 2.83820   5
   0  -6   4 27.2977 2.59370   6
  -1   6  -4 33.8814 3.64541   5
  -1   6  -4 32.7100 3.14324   4
  -1   6  -4 35.7517 2.91101   1
  -1   6  -4 30.9402 2.95351   6
  -1   6  -4 29.5639 3.19858   3
   1  -6   4 29.2750 3.25682   6
   1  -6   4 39.4410 3.52926   5
   1  -6   4 30.3626 2.85902   5
   1  -6   4 32.8917 2.79479   1
   1  -6   4 33.2761 2.65376   2
   1  -6   4 36.7567 3.00694   4
  -2   6  -4 136.957 6.16183   5
  -2   6  -4 141.042 6.17559   6
  -2   6  -4 140.169 5.86201   4
  -2   6  -4 145.089 5.38296   1
  -2   6  -4 145.490 6.06419   3
   2  -6   4 149.306 5.63537   4
   2  -6   4 150.187 4.92628   2
   2  -6   4 152.215 6.30390   5
   2  -6   4 140.243 6.22953   5
   2  -6   4 140.331 5.28768   1
   2  -6   4 142.099 6.00840   6
  -3   6  -4 89.7834 4.14942   1
  -3   6  -4 89.4675 5.05950   6
  -3   6  -4 79.5432 6.60341   5
  -3   6  -4 95.7360 5.03317   5
  -3   6  -4 88.1327 4.97986   3
  -3   6  -4 91.3413 4.89290   4
   3  -6   4 92.1341 4.81861   4
   3  -6   4 92.4295 3.95209   1
   3  -6   4 89.4207 5.07326   5
   3  -6   4 93.5820 4.81324   6
  -4   6  -4 115.093 5.96127   6
  -4   6  -4 123.491 6.06477   4
  -4   6  -4 109.865 5.90157   3
  -4   6  -4 123.052 5.74902   5
  -4   6  -4 120.804 5.89686   5
  -4   6  -4 122.155 4.83976   1
   4  -6   4 124.864 5.80775   6
   4  -6   4 122.996 4.76986   1
   4  -6   4 122.145 5.89383   4
   4  -6   4 119.985 6.01322   5
  -5   6  -4 0.13809 1.71691   1
  -5   6  -4 -0.4274 2.25847   6
  -5   6  -4 -1.4037 2.13042   5
  -5   6  -4 -0.4156 2.44620   3
  -5   6  -4 -3.8659 2.64979   6
  -5   6  -4 2.53019 2.41605   5
  -5   6  -4 0.35157 2.78371   4
   5  -6   4 -0.0192 2.18218   5
   5  -6   4 5.25736 3.01694   4
   5  -6   4 0.76668 2.59338   6
   5  -6   4 1.11391 1.62112   1
   5  -6   4 1.28410 2.36599   5
  -6   6  -4 6.98182 2.94279   3
  -6   6  -4 9.35924 2.75157   6
  -6   6  -4 3.01217 2.80942   6
  -6   6  -4 8.72972 2.73239   5
  -6   6  -4 10.1178 3.54826   4
  -6   6  -4 11.8330 2.62879   5
   6  -6   4 9.02539 3.07540   5
   6  -6   4 7.51569 2.10333   1
   6  -6   4 8.02666 2.92950   5
   6  -6   4 6.21868 3.70382   4
   6  -6   4 2.78731 2.99020   6
  -7   6  -4 7.81910 2.87650   6
  -7   6  -4 2.90490 3.33962   6
  -7   6  -4 6.52323 2.24065   5
  -7   6  -4 12.4212 4.58640   4
  -7   6  -4 3.07766 3.07599   3
   7  -6   4 5.46084 2.26360   1
   7  -6   4 13.0810 3.57875   5
   7  -6   4 2.82681 3.32469   5
  -8   6  -4 22.8867 4.20001   3
  -8   6  -4 23.3932 3.19706   6
  -8   6  -4 22.3363 3.40359   6
   8  -6   4 20.3413 6.38963   5
   7   5  -4 -1.3994 4.17203   6
   7   5  -4 4.13221 3.43068   4
   7   5  -4 0.67580 2.75737   5
   7   5  -4 0.10394 2.88304   5
  -7  -5   4 4.46068 3.67549   2
   6   5  -4 30.1340 4.83960   1
   6   5  -4 36.6916 3.33772   6
   6   5  -4 36.2502 3.34098   4
   6   5  -4 37.8551 3.23942   5
   6   5  -4 34.7182 3.24362   5
  -6  -5   4 34.4002 2.27639   6
  -6  -5   4 27.3197 3.66563   2
  -6  -5   4 32.0577 2.37212   6
   5   5  -4 27.7505 2.85281   5
   5   5  -4 27.5581 3.60677   4
   5   5  -4 26.1639 3.10600   6
   5   5  -4 23.1337 2.67909   5
   5   5  -4 21.5355 3.74742   1
   5   5  -4 27.0521 2.81449   6
  -5  -5   4 21.1920 3.21045   2
  -5  -5   4 27.6273 2.61318   6
  -5  -5   4 27.3307 1.89610   5
  -5  -5   4 23.8116 1.92809   5
   4   5  -4 21.8762 2.45598   5
   4   5  -4 26.4680 2.58482   5
   4   5  -4 27.4773 2.43083   4
   4   5  -4 27.3117 3.20190   1
   4   5  -4 23.4830 2.49478   6
  -4  -5   4 25.2537 2.08096   5
  -4  -5   4 28.7799 2.65253   5
  -4  -5   4 25.1174 3.27441   2
  -4  -5   4 28.2235 3.02688   1
  -4  -5   4 24.6372 2.61145   6
  -4  -5   4 22.1999 2.40396   4
   3   5  -4 27.1724 2.65927   4
   3   5  -4 35.3219 3.21621   6
   3   5  -4 32.5071 3.16790   5
   3   5  -4 31.5704 2.84552   1
   3   5  -4 26.1202 2.42590   5
  -3  -5   4 36.5412 2.81414   5
  -3  -5   4 31.6798 2.90612   4
  -3  -5   4 34.1661 3.32965   1
  -3  -5   4 26.8991 2.95560   2
  -3  -5   4 27.4969 2.71626   5
   2   5  -4 24.8533 2.41020   4
   2   5  -4 17.9681 1.98241   5
   2   5  -4 18.9710 2.04959   6
   2   5  -4 30.1329 2.61145   1
   2   5  -4 24.5809 2.30164   5
  -2  -5   4 22.6738 2.37673   6
  -2  -5   4 27.6308 2.79197   5
  -2  -5   4 25.8637 2.58468   2
  -2  -5   4 25.3137 2.39329   1
  -2  -5   4 22.6654 1.96928   4
   1   5  -4 64.6668 3.25218   4
   1   5  -4 62.1010 3.47468   3
   1   5  -4 68.9055 3.56524   1
   1   5  -4 63.1894 3.80708   5
   1   5  -4 58.2541 3.74093   5
   1   5  -4 65.8181 3.76565   6
  -1  -5   4 59.9824 3.37728   2
  -1  -5   4 66.6411 3.72717   5
  -1  -5   4 62.6937 3.54371   5
  -1  -5   4 61.5221 3.39495   1
  -1  -5   4 68.8782 3.46605   6
   0   5  -4 17.2734 1.85392   1
   0   5  -4 15.8420 1.92050   5
   0   5  -4 12.1623 1.78001   3
   0   5  -4 9.37226 1.63611   6
   0   5  -4 15.0000 1.66557   4
   0   5  -4 14.6605 1.88041   5
   0  -5   4 19.7831 2.14975   5
   0  -5   4 15.5603 1.68020   4
   0  -5   4 16.2745 1.93620   6
   0  -5   4 15.8061 1.75449   1
   0  -5   4 16.7760 1.88847   2
   0  -5   4 21.1355 2.26198   5
  -1   5  -4 44.9670 3.24211   5
  -1   5  -4 45.0465 3.36096   5
  -1   5  -4 45.6488 2.95590   4
  -1   5  -4 41.8178 2.83221   1
  -1   5  -4 42.2050 3.19729   6
  -1   5  -4 44.4092 3.05110   3
   1  -5   4 48.1927 3.35024   5
   1  -5   4 44.1155 3.02957   6
   1  -5   4 44.5662 3.14792   4
   1  -5   4 41.6542 2.73509   1
   1  -5   4 46.2823 2.62844   2
   1  -5   4 47.5695 3.17204   5
  -2   5  -4 486.890 13.9672   1
  -2   5  -4 491.082 14.4047   4
  -2   5  -4 483.897 14.4543   5
  -2   5  -4 477.369 14.4958   5
  -2   5  -4 480.797 14.6168   6
  -2   5  -4 472.529 14.4434   3
   2  -5   4 498.319 14.1450   4
   2  -5   4 464.390 13.7652   2
   2  -5   4 487.033 14.4293   6
   2  -5   4 491.896 14.5363   5
   2  -5   4 478.247 13.9430   1
   2  -5   4 489.485 14.6225   5
  -3   5  -4 2.07897 1.55735   5
  -3   5  -4 1.34623 1.51747   5
  -3   5  -4 -1.3630 1.17602   1
  -3   5  -4 2.44126 1.79742   3
  -3   5  -4 1.44871 1.55730   4
  -3   5  -4 -0.8861 1.37987   6
   3  -5   4 0.62307 1.59434   5
   3  -5   4 0.07694 1.17206   1
   3  -5   4 1.03737 1.55574   5
   3  -5   4 3.24594 1.69788   4
  -4   5  -4 2.49451 2.16806   3
  -4   5  -4 1.84436 1.42833   1
  -4   5  -4 2.86618 1.70981   5
  -4   5  -4 0.05681 1.79168   6
  -4   5  -4 3.16080 1.75324   5
  -4   5  -4 0.92171 1.78689   4
   4  -5   4 0.68900 1.81470   4
   4  -5   4 1.09114 1.26159   1
   4  -5   4 2.35992 1.84520   5
   4  -5   4 0.33492 1.78970   5
   4  -5   4 2.58986 1.76948   6
  -5   5  -4 23.2918 3.09226   4
  -5   5  -4 18.4221 2.28019   5
  -5   5  -4 20.3167 2.37326   5
  -5   5  -4 20.6895 2.16562   1
  -5   5  -4 14.3402 3.11460   6
  -5   5  -4 23.6913 2.88498   6
  -5   5  -4 24.3270 3.19422   3
   5  -5   4 22.0718 2.65033   5
   5  -5   4 15.9334 2.69112   4
   5  -5   4 25.0306 2.72047   6
   5  -5   4 23.1640 2.76637   5
   5  -5   4 21.9589 2.13524   1
  -6   5  -4 20.3769 3.42504   4
  -6   5  -4 30.8595 3.25453   6
  -6   5  -4 26.2082 3.47838   3
  -6   5  -4 30.0262 2.57597   5
  -6   5  -4 25.9165 2.76523   6
  -6   5  -4 33.4350 3.26303   5
   6  -5   4 28.5802 3.00729   6
   6  -5   4 27.6374 2.59999   1
   6  -5   4 26.1074 3.81396   5
   6  -5   4 24.4773 3.08011   5
   6  -5   4 38.0364 4.04718   4
  -7   5  -4 -0.1735 3.69086   4
  -7   5  -4 3.53090 2.87910   3
  -7   5  -4 1.13685 2.58998   6
  -7   5  -4 3.02468 2.25330   6
   7  -5   4 1.47276 2.32658   1
   7  -5   4 3.11341 2.72020   5
   7  -5   4 4.42812 2.51354   5
   7  -5   4 1.57725 4.27521   4
  -8   5  -4 24.2708 4.12075   3
   8  -5   4 25.4246 3.91105   5
   8  -5   4 32.2409 3.46698   1
   8   4  -4 9.75028 2.96360   6
   8   4  -4 -3.3104 2.92243   5
   8   4  -4 -5.9295 3.76837   4
   8   4  -4 1.18295 2.75754   5
  -8  -4   4 -1.9573 3.33215   2
   7   4  -4 29.9909 3.38434   4
   7   4  -4 29.6140 3.00350   6
   7   4  -4 26.4415 2.77685   5
   7   4  -4 25.7832 2.92637   5
  -7  -4   4 18.8421 3.61202   2
   6   4  -4 0.74006 1.91192   5
   6   4  -4 -0.4402 3.25468   1
   6   4  -4 1.96634 1.99521   6
   6   4  -4 1.07217 2.12272   4
   6   4  -4 0.78262 2.29979   6
   6   4  -4 3.51117 2.04259   5
  -6  -4   4 2.49410 2.53804   2
   5   4  -4 -1.5118 2.64251   1
   5   4  -4 0.66781 1.89040   6
   5   4  -4 0.95661 1.64471   4
   5   4  -4 0.83235 1.59882   5
   5   4  -4 0.66677 1.68142   6
  -5  -4   4 0.60798 2.00449   2
  -5  -4   4 0.88982 1.04463   6
   4   4  -4 248.476 8.26162   5
   4   4  -4 247.884 8.37914   6
   4   4  -4 260.558 8.81295   1
   4   4  -4 245.611 8.15843   5
   4   4  -4 246.723 8.21401   6
   4   4  -4 255.182 8.10497   4
  -4  -4   4 252.969 8.59058   1
  -4  -4   4 261.978 8.38762   4
  -4  -4   4 253.240 7.66310   5
  -4  -4   4 252.212 7.59181   5
  -4  -4   4 242.900 8.92012   2
  -4  -4   4 257.115 7.74662   6
   3   4  -4 117.070 4.93192   1
   3   4  -4 115.608 4.62870   6
   3   4  -4 109.499 4.55763   5
   3   4  -4 118.572 4.66303   5
   3   4  -4 116.783 4.40525   4
  -3  -4   4 120.483 4.68838   6
  -3  -4   4 116.920 4.83289   1
  -3  -4   4 111.261 5.05968   2
  -3  -4   4 115.618 4.27591   5
  -3  -4   4 113.798 4.36899   5
  -3  -4   4 108.519 4.58074   4
   2   4  -4 32.4420 2.51669   5
   2   4  -4 37.2674 2.36446   4
   2   4  -4 38.1717 2.76251   1
   2   4  -4 31.3944 2.48192   6
   2   4  -4 35.2937 2.60601   5
  -2  -4   4 36.6376 2.36054   4
  -2  -4   4 36.6967 2.50355   5
  -2  -4   4 31.9958 2.76051   2
  -2  -4   4 37.6360 2.71483   1
   1   4  -4 487.097 14.2448   5
   1   4  -4 490.445 13.9117   4
   1   4  -4 496.478 14.2229   5
   1   4  -4 493.609 14.0766   1
   1   4  -4 494.448 14.2879   6
  -1  -4   4 483.325 13.8344   4
  -1  -4   4 498.897 14.0773   6
  -1  -4   4 475.077 14.1083   2
  -1  -4   4 494.996 14.0968   1
  -1  -4   4 487.459 14.1274   5
  -1  -4   4 422.780 15.4891   5
   0   4  -4 170.649 6.02391   5
   0   4  -4 167.727 5.85892   3
   0   4  -4 171.630 6.73095   6
   0   4  -4 176.229 5.79160   1
   0   4  -4 176.519 6.09477   5
   0   4  -4 174.771 5.74953   4
   0  -4   4 187.251 6.02320   6
   0  -4   4 175.884 5.70186   2
   0  -4   4 172.869 5.63626   4
   0  -4   4 174.527 6.02902   5
   0  -4   4 166.147 5.75820   1
   0  -4   4 174.673 6.08229   5
  -1   4  -4 60.4483 3.00959   4
  -1   4  -4 64.8108 3.33730   5
  -1   4  -4 64.0029 3.31241   5
  -1   4  -4 61.1542 2.94840   1
  -1   4  -4 65.1214 3.16054   3
  -1   4  -4 64.3383 3.30605   6
   1  -4   4 64.7018 2.93907   1
   1  -4   4 59.4660 2.86532   4
   1  -4   4 65.9305 3.22781   6
   1  -4   4 63.2985 3.30971   5
   1  -4   4 68.5386 2.65768   2
   1  -4   4 64.1844 3.31653   5
  -2   4  -4 23.8622 2.32012   4
  -2   4  -4 22.9937 2.49605   5
  -2   4  -4 24.8052 2.16926   1
  -2   4  -4 29.2394 2.61035   3
  -2   4  -4 28.4482 2.48736   6
   2  -4   4 27.2572 2.20206   4
   2  -4   4 22.5291 2.45036   6
   2  -4   4 23.2441 2.48742   5
   2  -4   4 27.9770 2.45790   5
   2  -4   4 27.8383 2.07043   1
  -3   4  -4 169.283 6.14934   6
  -3   4  -4 173.063 6.23800   3
  -3   4  -4 180.049 5.77306   1
  -3   4  -4 181.078 6.25734   4
  -3   4  -4 152.262 6.39549   5
   3  -4   4 166.333 6.08841   5
   3  -4   4 174.982 6.07861   6
   3  -4   4 173.971 5.98190   4
   3  -4   4 173.348 6.27429   5
   3  -4   4 177.875 5.75655   1
  -4   4  -4 124.339 4.72795   1
  -4   4  -4 125.486 4.86513   5
  -4   4  -4 119.000 4.98614   6
  -4   4  -4 115.746 5.19919   4
  -4   4  -4 121.657 5.24043   3
  -4   4  -4 128.894 4.79529   5
   4  -4   4 126.419 5.15921   5
   4  -4   4 121.515 5.04332   5
   4  -4   4 125.908 4.94136   6
   4  -4   4 121.483 4.61219   1
   4  -4   4 120.588 5.10573   4
  -5   4  -4 80.1878 4.86219   4
  -5   4  -4 88.1792 4.60477   6
  -5   4  -4 93.0228 4.24594   1
  -5   4  -4 91.4876 4.00510   5
  -5   4  -4 84.1972 4.66633   3
  -5   4  -4 89.4312 4.26243   6
  -5   4  -4 89.4233 3.94294   5
   5  -4   4 90.8112 4.35382   6
   5  -4   4 91.4473 4.95859   4
   5  -4   4 86.9581 5.03379   5
   5  -4   4 88.5806 3.99528   1
   5  -4   4 84.2328 4.52149   5
  -6   4  -4 2.50142 1.76928   5
  -6   4  -4 1.46254 2.56900   4
  -6   4  -4 2.33057 1.95590   6
  -6   4  -4 3.12284 2.30439   3
  -6   4  -4 0.59879 1.18111   5
  -6   4  -4 2.14681 1.66689   6
   6  -4   4 3.48379 1.97940   5
   6  -4   4 2.08969 1.84848   1
   6  -4   4 1.04693 1.90356   5
   6  -4   4 -0.5087 1.84977   6
   6  -4   4 -0.8837 2.66295   4
  -7   4  -4 1.37062 1.74661   6
  -7   4  -4 1.73651 3.39523   4
  -7   4  -4 1.40343 1.61398   6
  -7   4  -4 0.40347 2.55873   3
   7  -4   4 5.32803 3.81186   4
   7  -4   4 1.65761 2.39261   5
   7  -4   4 0.59114 2.30173   1
   7  -4   4 4.48919 2.25675   5
  -8   4  -4 2.41238 2.93325   3
   8  -4   4 0.45002 2.80467   5
   8  -4   4 5.41904 2.91803   5
   8  -4   4 4.58297 3.13606   1
   8   3  -4 7.58832 3.68450   4
   8   3  -4 11.3500 2.44310   5
   8   3  -4 11.1574 2.24445   5
  -8  -3   4 8.48927 3.69702   2
   7   3  -4 54.4926 4.98357   1
   7   3  -4 54.6770 4.86641   4
   7   3  -4 54.1693 3.68660   5
   7   3  -4 53.7682 3.77809   6
   7   3  -4 48.7094 4.14846   6
   7   3  -4 52.8052 3.84031   5
  -7  -3   4 43.9061 4.40028   2
   6   3  -4 0.15546 1.82773   6
   6   3  -4 1.06049 1.56663   5
   6   3  -4 -1.7531 1.90342   4
   6   3  -4 -0.4715 1.66893   6
   6   3  -4 2.37433 2.86371   1
   6   3  -4 1.18655 1.53207   5
  -6  -3   4 -1.5540 2.09817   2
   5   3  -4 100.507 4.47012   4
   5   3  -4 100.744 5.19306   1
   5   3  -4 103.894 4.52818   6
   5   3  -4 107.173 4.29032   5
   5   3  -4 100.564 4.20214   5
   5   3  -4 101.919 4.24350   6
  -5  -3   4 99.0452 5.19785   2
  -5  -3   4 99.5406 4.89155   1
  -5  -3   4 102.643 3.51426   6
   4   3  -4 45.4344 2.81602   4
   4   3  -4 47.4480 2.78242   6
   4   3  -4 54.0919 3.56489   1
   4   3  -4 45.9133 2.98012   6
   4   3  -4 47.4253 2.84285   5
  -4  -3   4 42.6943 3.15515   1
  -4  -3   4 45.5351 2.27249   6
  -4  -3   4 41.6499 3.44246   2
  -4  -3   4 44.5503 2.14513   5
  -4  -3   4 48.0953 2.29910   5
   3   3  -4 37.4993 2.40841   5
   3   3  -4 40.8512 2.69754   6
   3   3  -4 36.7583 2.32627   6
   3   3  -4 38.8876 2.84322   1
   3   3  -4 35.2337 2.26378   4
   3   3  -4 35.1121 2.36035   5
  -3  -3   4 36.3598 2.42301   4
  -3  -3   4 36.6467 2.09840   6
  -3  -3   4 35.4790 2.70729   1
  -3  -3   4 38.2245 2.24429   5
  -3  -3   4 34.8936 2.92472   2
  -3  -3   4 37.3551 2.18092   5
   2   3  -4 63.4114 2.93355   5
   2   3  -4 60.6999 2.71385   4
   2   3  -4 62.3435 2.88945   6
   2   3  -4 63.7661 2.95212   5
   2   3  -4 63.0254 3.15996   6
   2   3  -4 65.0849 3.09050   1
  -2  -3   4 63.2151 3.25736   2
  -2  -3   4 60.3896 2.70460   4
  -2  -3   4 61.7397 2.97296   1
  -2  -3   4 62.1475 2.81666   5
  -2  -3   4 62.0383 2.96382   5
   1   3  -4 3.83444 1.02183   5
   1   3  -4 3.96011 1.09433   1
   1   3  -4 3.09320 0.85623   6
   1   3  -4 3.39266 0.92696   4
  -1  -3   4 5.00507 1.11489   5
  -1  -3   4 2.95512 0.82581   6
  -1  -3   4 2.04750 0.80410   4
  -1  -3   4 2.93746 1.04055   1
  -1  -3   4 3.63994 1.11225   5
  -1  -3   4 3.55938 1.21119   2
   0   3  -4 121.628 4.44386   5
   0   3  -4 122.347 4.46987   5
   0   3  -4 128.873 4.20578   4
   0   3  -4 119.140 4.42425   6
   0   3  -4 126.169 4.32351   1
   0  -3   4 118.482 4.39791   5
   0  -3   4 122.453 4.32912   6
   0  -3   4 122.273 4.48843   5
   0  -3   4 123.095 4.11322   4
   0  -3   4 124.504 4.17609   2
  -1   3  -4 5.55370 1.19070   5
  -1   3  -4 3.45698 0.93415   5
  -1   3  -4 5.09778 1.26187   6
  -1   3  -4 4.77216 0.96218   1
  -1   3  -4 2.70164 0.83337   6
  -1   3  -4 5.67928 1.19971   3
  -1   3  -4 4.79530 0.98942   4
   1  -3   4 6.19301 1.01186   4
   1  -3   4 3.98787 1.15036   5
   1  -3   4 4.73869 0.95107   1
   1  -3   4 5.82069 1.03696   6
   1  -3   4 4.58895 1.06199   5
  -2   3  -4 88.8444 3.58462   3
  -2   3  -4 86.9498 3.61428   5
  -2   3  -4 86.8382 3.79834   6
  -2   3  -4 88.4814 3.56843   4
  -2   3  -4 88.8357 3.62953   6
  -2   3  -4 89.5359 3.60172   5
  -2   3  -4 90.9365 3.47649   1
   2  -3   4 93.4770 3.46032   4
   2  -3   4 85.5563 3.57365   5
   2  -3   4 87.2510 3.51376   6
   2  -3   4 83.7458 3.39862   1
   2  -3   4 89.7504 3.70893   5
  -3   3  -4 744.865 20.9942   5
  -3   3  -4 726.664 21.0958   6
  -3   3  -4 773.215 20.9939   5
  -3   3  -4 762.908 21.2761   6
  -3   3  -4 764.881 20.9658   1
  -3   3  -4 725.886 21.1339   4
   3  -3   4 740.895 21.1607   5
   3  -3   4 752.213 21.0080   6
   3  -3   4 746.118 20.9126   1
   3  -3   4 782.399 21.0022   4
   3  -3   4 736.429 21.0934   5
  -4   3  -4 0.89677 1.13840   5
  -4   3  -4 0.51974 1.35256   6
  -4   3  -4 0.30547 1.35803   4
  -4   3  -4 -0.6956 1.04215   6
  -4   3  -4 -2.0219 1.53845   3
  -4   3  -4 -0.0999 1.21493   1
  -4   3  -4 0.15117 1.06783   5
   4  -3   4 -0.0810 1.08891   1
   4  -3   4 -1.2624 1.12378   5
   4  -3   4 -1.5403 1.31392   4
   4  -3   4 0.20068 1.08237   6
   4  -3   4 1.14102 1.20505   5
  -5   3  -4 -0.5772 1.45984   6
  -5   3  -4 -0.0520 1.16419   6
  -5   3  -4 -0.4781 1.10711   5
  -5   3  -4 -0.1129 1.43712   1
  -5   3  -4 0.73438 1.08928   5
  -5   3  -4 0.90702 1.83060   3
  -5   3  -4 -0.1586 1.69796   4
   5  -3   4 -1.4020 1.24580   6
   5  -3   4 1.49013 1.79068   4
   5  -3   4 -1.1872 1.36390   1
   5  -3   4 0.81044 1.34368   5
   5  -3   4 0.17058 1.33475   5
  -6   3  -4 18.9881 1.81196   6
  -6   3  -4 18.7087 1.86477   6
  -6   3  -4 16.6400 2.69654   4
  -6   3  -4 21.1559 2.81383   3
   6  -3   4 17.7103 1.98092   6
   6  -3   4 16.9565 2.24525   1
   6  -3   4 12.5681 2.11764   5
   6  -3   4 14.5426 2.75272   4
   6  -3   4 18.7515 2.08983   5
  -7   3  -4 9.99781 2.71444   3
   7  -3   4 9.09867 2.30491   5
   7  -3   4 10.2463 2.18165   5
   7  -3   4 12.5111 2.62236   1
   7  -3   4 10.0114 3.66835   4
   7  -3   4 3.89369 2.04748   6
  -8   3  -4 8.46559 2.99011   3
   8  -3   4 6.14805 5.11833   4
   8  -3   4 6.60065 2.41774   5
   8  -3   4 7.60743 2.73699   5
   9   2  -4 5.47805 4.49173   4
   9   2  -4 4.59389 1.93922   5
   9   2  -4 4.11366 2.06830   5
   8   2  -4 13.1554 2.08889   5
   8   2  -4 7.42622 4.74071   1
   8   2  -4 14.8616 3.40441   4
   8   2  -4 11.7258 1.94948   5
  -8  -2   4 7.38399 3.01508   3
  -8  -2   4 7.90710 3.49582   2
   7   2  -4 17.4583 1.94310   6
   7   2  -4 14.7507 3.41961   1
   7   2  -4 18.8349 1.96446   5
   7   2  -4 17.8225 2.80106   4
   7   2  -4 19.4622 2.19680   6
  -7  -2   4 19.4189 3.29110   2
  -7  -2   4 17.1395 2.83524   3
   6   2  -4 44.4528 2.77684   6
   6   2  -4 45.7871 4.28253   1
   6   2  -4 40.2188 3.46766   4
   6   2  -4 38.5592 3.14435   6
   6   2  -4 38.5963 2.83890   5
   6   2  -4 39.2157 3.78297   5
  -6  -2   4 37.2281 4.08968   2
  -6  -2   4 38.3804 3.78085   3
   5   2  -4 5.07716 1.45780   6
   5   2  -4 6.59633 1.33543   5
   5   2  -4 5.76572 1.18653   6
   5   2  -4 5.50212 1.45758   4
   5   2  -4 3.90301 1.87304   1
   5   2  -4 5.07860 1.20049   5
  -5  -2   4 5.92085 2.13377   3
  -5  -2   4 5.49613 0.87352   6
  -5  -2   4 4.72997 2.07587   2
  -5  -2   4 6.72712 1.68645   1
   4   2  -4 0.86780 1.41634   1
   4   2  -4 0.02543 0.85587   6
   4   2  -4 0.83975 0.97853   5
   4   2  -4 -0.0177 1.01227   4
   4   2  -4 0.54299 0.92664   5
  -4  -2   4 0.04561 0.65176   5
  -4  -2   4 -0.7645 1.52666   2
  -4  -2   4 1.33845 1.50770   3
  -4  -2   4 0.42748 0.67981   6
  -4  -2   4 0.45490 1.24775   1
  -4  -2   4 -0.6996 0.72199   5
   3   2  -4 512.310 14.4917   1
   3   2  -4 516.108 14.3533   5
   3   2  -4 503.926 14.2944   4
   3   2  -4 486.592 14.2778   5
   3   2  -4 486.058 14.2526   6
   3   2  -4 492.139 14.4647   6
  -3  -2   4 508.352 14.4087   4
  -3  -2   4 502.511 14.7717   3
  -3  -2   4 508.808 14.0908   6
  -3  -2   4 506.073 14.0845   5
  -3  -2   4 517.977 14.1746   5
  -3  -2   4 500.491 14.8303   2
  -3  -2   4 499.803 14.4667   1
   2   2  -4 283.277 8.78948   6
   2   2  -4 295.864 8.68234   1
   2   2  -4 287.810 8.56006   6
   2   2  -4 291.158 8.65749   5
   2   2  -4 282.946 8.60467   5
   2   2  -4 285.095 8.46097   4
  -2  -2   4 280.266 8.60427   5
  -2  -2   4 290.950 8.52325   4
  -2  -2   4 296.338 8.53576   5
  -2  -2   4 286.534 8.66748   1
  -2  -2   4 294.999 8.91193   2
   1   2  -4 115.209 4.51129   6
   1   2  -4 120.767 4.19188   5
   1   2  -4 127.315 4.21697   5
   1   2  -4 118.438 4.36054   6
   1   2  -4 117.822 3.91217   4
   1   2  -4 117.581 4.12835   1
  -1  -2   4 119.118 3.90518   4
  -1  -2   4 124.008 4.15697   1
  -1  -2   4 120.075 4.11046   5
  -1  -2   4 113.960 3.99619   6
  -1  -2   4 123.096 4.20583   5
  -1  -2   4 122.140 4.22805   2
   0   2  -4 1002.82 27.8368   6
   0   2  -4 1005.07 27.6544   5
   0   2  -4 980.830 27.5903   6
   0   2  -4 1018.64 27.5372   1
   0   2  -4 988.642 27.3732   4
   0   2  -4 1018.14 27.6617   5
   0  -2   4 1012.56 27.6309   5
   0  -2   4 1005.80 27.5259   1
   0  -2   4 1030.92 27.6866   5
   0  -2   4 1029.12 27.5588   6
   0  -2   4 982.662 27.3242   4
  -1   2  -4 302.881 9.09940   5
  -1   2  -4 304.119 9.08575   6
  -1   2  -4 306.990 8.83426   3
  -1   2  -4 308.759 9.00180   1
  -1   2  -4 308.332 8.88784   4
  -1   2  -4 306.226 9.28593   6
   1  -2   4 313.046 9.12399   5
   1  -2   4 298.979 8.77944   4
   1  -2   4 303.001 9.13647   5
   1  -2   4 309.841 9.01748   1
   1  -2   4 313.491 9.03915   6
  -2   2  -4 163.976 4.40597   2
  -2   2  -4 154.678 5.04048   1
  -2   2  -4 159.875 4.94368   3
  -2   2  -4 152.305 5.05467   5
  -2   2  -4 145.727 4.95913   4
  -2   2  -4 146.668 5.06176   6
   2  -2   4 150.074 5.03514   1
   2  -2   4 152.045 5.15398   5
   2  -2   4 152.562 5.09943   5
   2  -2   4 151.683 5.00679   6
   2  -2   4 156.823 4.88907   4
  -3   2  -4 4.17083 1.23736   6
  -3   2  -4 4.17593 0.99438   5
  -3   2  -4 3.17058 1.26803   3
  -3   2  -4 3.50650 0.91741   6
  -3   2  -4 0.93696 0.97875   4
  -3   2  -4 2.62225 1.06072   1
  -3   2  -4 2.34005 0.92585   5
   3  -2   4 0.47099 0.82589   5
   3  -2   4 2.01716 1.00073   5
   3  -2   4 3.78302 0.93950   6
   3  -2   4 2.46893 0.94583   4
   3  -2   4 1.99720 1.03019   1
  -4   2  -4 177.418 5.13165   2
  -4   2  -4 160.316 5.79464   5
  -4   2  -4 178.202 5.88143   6
  -4   2  -4 171.326 5.66358   6
  -4   2  -4 173.906 6.04450   4
  -4   2  -4 177.106 5.49927   5
  -4   2  -4 174.481 5.84573   3
  -4   2  -4 178.427 5.98360   1
   4  -2   4 178.567 5.88996   4
   4  -2   4 171.413 5.60882   6
   4  -2   4 169.652 5.76983   5
   4  -2   4 176.984 5.97234   1
   4  -2   4 170.525 5.80026   5
  -5   2  -4 131.938 4.74940   6
  -5   2  -4 149.945 5.38985   3
  -5   2  -4 144.434 4.93029   6
  -5   2  -4 143.874 4.75438   2
  -5   2  -4 140.359 5.60210   4
   5  -2   4 140.171 4.87888   6
   5  -2   4 140.454 5.05048   5
   5  -2   4 135.304 5.45904   4
   5  -2   4 137.669 5.15245   5
   5  -2   4 145.565 5.40159   1
  -6   2  -4 37.9703 3.34089   3
  -6   2  -4 44.9462 3.11418   2
  -6   2  -4 39.4122 2.02273   6
  -6   2  -4 41.5321 2.07314   6
   6  -2   4 42.5100 3.63969   1
   6  -2   4 40.7728 3.01210   5
   6  -2   4 40.0512 3.29189   4
   6  -2   4 41.8346 2.86473   6
   6  -2   4 42.6218 3.08980   5
  -7   2  -4 3.93303 2.39505   3
   7  -2   4 1.79347 1.81568   5
   7  -2   4 3.31817 1.62170   6
   7  -2   4 4.95035 1.90589   5
   7  -2   4 5.67808 2.57682   1
   7  -2   4 5.56646 3.22318   4
  -8   2  -4 -1.2288 2.72006   3
   8  -2   4 2.11748 1.93895   5
   8  -2   4 -2.8504 4.58747   4
   8  -2   4 -3.5098 3.14026   1
   8  -2   4 0.72113 2.30438   5
   9   1  -4 7.37127 3.87729   4
   9   1  -4 -1.6828 1.75160   5
   9   1  -4 4.62282 5.83094   1
   9   1  -4 -1.6166 1.83644   5
  -9  -1   4 2.96921 3.74344   3
   8   1  -4 9.59501 1.86915   5
   8   1  -4 12.7076 1.85802   5
   8   1  -4 3.82677 7.64876   4
   8   1  -4 10.2679 3.14316   4
   8   1  -4 16.5705 3.94364   1
  -8  -1   4 10.5947 3.08887   3
   7   1  -4 14.0124 1.67701   5
   7   1  -4 9.55683 2.86443   1
   7   1  -4 13.4785 1.67487   5
   7   1  -4 11.6673 1.59649   6
   7   1  -4 11.3249 2.49520   4
   7   1  -4 9.15319 1.74466   6
  -7  -1   4 11.9134 3.05345   2
  -7  -1   4 11.8566 2.83911   3
   6   1  -4 43.6322 3.49503   4
   6   1  -4 43.2249 2.56175   5
   6   1  -4 44.5283 2.49406   6
   6   1  -4 48.1154 3.81837   1
   6   1  -4 42.4989 2.69086   5
   6   1  -4 45.7499 2.93459   6
  -6  -1   4 42.9732 3.97600   2
  -6  -1   4 41.7662 3.64369   3
   5   1  -4 7.65986 1.22207   5
   5   1  -4 10.0888 1.39293   6
   5   1  -4 9.01411 1.75208   1
   5   1  -4 11.2234 1.74461   4
   5   1  -4 9.18084 1.21091   5
   5   1  -4 9.71711 1.18573   6
  -5  -1   4 8.69041 1.65269   1
  -5  -1   4 8.53536 0.90679   6
  -5  -1   4 8.26034 2.08241   3
  -5  -1   4 5.91216 2.05185   2
   4   1  -4 229.646 7.09310   5
   4   1  -4 234.274 7.01051   6
   4   1  -4 237.529 7.18497   5
   4   1  -4 233.984 7.33067   6
   4   1  -4 233.998 7.35052   4
   4   1  -4 242.502 7.44203   1
  -4  -1   4 231.840 7.86148   3
  -4  -1   4 238.146 6.86764   6
  -4  -1   4 228.854 7.92968   2
  -4  -1   4 229.470 6.70411   5
  -4  -1   4 230.240 7.35920   1
  -4  -1   4 237.708 6.77094   5
   3   1  -4 82.9757 3.19705   4
   3   1  -4 87.1016 3.38058   1
   3   1  -4 82.1119 3.21876   5
   3   1  -4 85.2521 3.17399   5
   3   1  -4 88.7864 3.11611   6
   3   1  -4 83.6382 3.39349   6
  -3  -1   4 87.6873 3.80812   2
  -3  -1   4 86.1860 3.00672   5
  -3  -1   4 91.1108 3.73363   3
  -3  -1   4 85.4450 3.07246   5
  -3  -1   4 79.1809 3.29815   1
  -3  -1   4 85.7200 3.02632   6
   2   1  -4 7.55915 1.13588   6
   2   1  -4 7.04988 0.97698   1
   2   1  -4 4.86257 0.83042   5
   2   1  -4 7.77320 0.87430   6
   2   1  -4 7.66931 0.86527   4
   2   1  -4 7.53343 0.91330   5
  -2  -1   4 9.45016 1.06794   1
  -2  -1   4 6.83386 0.94506   4
  -2  -1   4 7.11239 0.94714   5
   1   1  -4 73.4611 2.88543   5
   1   1  -4 75.4076 2.87473   1
   1   1  -4 72.5112 2.61778   4
   1   1  -4 73.2208 2.85993   5
   1   1  -4 77.0891 3.13166   6
  -1  -1   4 76.5039 2.75892   6
  -1  -1   4 76.1612 2.67116   4
  -1  -1   4 80.0878 2.89431   5
  -1  -1   4 80.3817 2.96610   3
  -1  -1   4 77.1150 2.86397   1
  -1  -1   4 72.4439 3.01803   6
  -1  -1   4 76.7835 2.91161   5
   0   1  -4 47.0686 1.82335   4
   0   1  -4 45.0594 2.33327   6
   0   1  -4 42.8993 1.99913   6
   0   1  -4 47.0649 2.12175   5
   0   1  -4 43.1209 2.12095   5
   0   1  -4 45.4594 2.05464   1
   0  -1   4 47.5305 1.81088   4
   0  -1   4 43.8421 2.11918   5
   0  -1   4 47.1627 2.01777   6
   0  -1   4 46.2007 2.07591   1
   0  -1   4 46.2425 2.28552   6
   0  -1   4 48.3711 2.12205   5
  -1   1  -4 131.370 4.07790   4
  -1   1  -4 134.295 4.55395   6
  -1   1  -4 131.546 4.38054   3
  -1   1  -4 131.761 4.34641   1
  -1   1  -4 137.634 4.39831   5
  -1   1  -4 129.142 4.27591   6
  -1   1  -4 132.688 4.37179   5
  -1   1  -4 137.921 4.17058   2
   1  -1   4 131.192 4.36273   1
   1  -1   4 124.378 3.99771   4
   1  -1   4 133.425 4.25359   6
   1  -1   4 130.668 4.34433   5
   1  -1   4 128.801 4.54489   6
   1  -1   4 130.980 4.39848   5
  -2   1  -4 1.93827 0.87609   2
  -2   1  -4 0.94164 0.78765   5
  -2   1  -4 0.09202 0.58176   6
  -2   1  -4 0.30121 0.86584   1
  -2   1  -4 -0.5928 0.82306   3
  -2   1  -4 0.51096 0.64916   4
  -2   1  -4 0.95743 0.83232   6
  -2   1  -4 -0.4067 0.66103   5
   2  -1   4 0.19240 0.85368   6
   2  -1   4 0.87223 0.72336   5
   2  -1   4 -0.0431 0.82367   1
   2  -1   4 0.41754 0.60758   4
   2  -1   4 0.16451 0.62001   6
   2  -1   4 0.39991 0.60066   5
  -3   1  -4 134.043 4.26423   3
  -3   1  -4 134.209 4.32697   5
  -3   1  -4 136.412 4.47216   4
  -3   1  -4 137.634 4.26385   2
  -3   1  -4 129.705 4.68019   1
  -3   1  -4 128.444 4.88715   6
  -3   1  -4 128.763 4.34782   6
  -3   1  -4 130.093 4.30183   5
   3  -1   4 128.448 4.29357   4
   3  -1   4 134.970 4.52946   5
   3  -1   4 129.569 4.31708   6
   3  -1   4 126.963 4.64973   1
   3  -1   4 130.912 4.41334   5
  -4   1  -4 576.079 16.3759   6
  -4   1  -4 611.535 16.3995   2
  -4   1  -4 602.152 16.1199   5
  -4   1  -4 591.074 16.0959   5
  -4   1  -4 616.763 16.4193   3
  -4   1  -4 593.900 16.4908   6
  -4   1  -4 596.518 16.8874   1
  -4   1  -4 588.697 16.6720   4
   4  -1   4 588.388 16.5315   5
   4  -1   4 571.244 16.5494   5
   4  -1   4 587.013 16.5281   4
   4  -1   4 538.294 16.6401   6
   4  -1   4 578.681 16.8431   1
  -5   1  -4 -0.1514 0.85894   6
  -5   1  -4 -0.2813 1.57821   2
  -5   1  -4 -0.1849 0.80637   6
  -5   1  -4 1.76542 1.36172   3
   5  -1   4 2.10743 1.03593   5
   5  -1   4 -0.0764 1.03705   5
   5  -1   4 -0.0314 0.93603   6
   5  -1   4 -0.8470 1.48947   4
   5  -1   4 -1.6327 1.28308   1
  -6   1  -4 -0.3251 1.78137   3
  -6   1  -4 -2.1470 1.93502   2
   6  -1   4 1.16697 1.28359   5
   6  -1   4 -0.5925 1.77554   5
   6  -1   4 0.73933 1.88326   1
   6  -1   4 0.65068 1.18292   6
  -7   1  -4 12.3990 2.35067   3
  -7   1  -4 10.8678 2.75864   2
   7  -1   4 10.2263 1.73314   5
   7  -1   4 11.7171 1.92430   5
   7  -1   4 12.6030 1.67026   6
   7  -1   4 6.71928 3.00279   4
  -8   1  -4 2.32438 3.19797   2
  -8   1  -4 1.67689 2.62448   3
   8  -1   4 3.07826 1.92469   5
   8  -1   4 -4.7651 4.35925   4
   8  -1   4 2.82912 2.04209   5
   8  -1   4 3.41428 3.67145   1
   9   0  -4 0.77606 1.89720   5
   9   0  -4 0.19999 4.17723   4
   9   0  -4 0.91247 1.88707   5
   9   0  -4 -8.7904 5.01105   1
  -9   0   4 -0.7872 5.11300   3
   8   0  -4 9.93356 1.73518   5
   8   0  -4 4.21578 3.04334   4
   8   0  -4 6.89473 3.10724   1
   8   0  -4 9.15307 4.97038   4
   8   0  -4 6.57887 1.83006   5
  -8   0   4 4.03892 2.72649   3
   7   0  -4 8.16369 1.61684   6
   7   0  -4 9.54493 3.55406   4
   7   0  -4 5.69691 1.66573   6
   7   0  -4 7.43405 2.22836   4
   7   0  -4 4.75380 2.39224   1
   7   0  -4 6.93390 1.51609   5
   7   0  -4 6.02974 1.40536   5
  -7   0   4 5.43193 3.52790   3
   6   0  -4 34.3175 3.32849   4
   6   0  -4 41.3411 2.52348   5
   6   0  -4 39.0598 2.30469   6
   6   0  -4 44.4133 2.53904   5
   6   0  -4 44.9986 3.34256   1
   6   0  -4 43.3859 2.82990   6
  -6   0   4 37.7608 3.60081   3
   5   0  -4 94.0809 3.34265   6
   5   0  -4 88.8693 3.45276   5
   5   0  -4 93.6810 3.68839   6
   5   0  -4 89.9666 3.80240   1
   5   0  -4 87.9936 3.42073   5
   5   0  -4 87.5644 4.02259   4
  -5   0   4 92.2129 3.15542   6
  -5   0   4 89.9920 3.79181   1
  -5   0   4 90.7844 4.45927   3
   4   0  -4 1.55200 0.88312   5
   4   0  -4 0.08191 0.75478   5
   4   0  -4 0.08508 0.98447   4
   4   0  -4 -0.2974 0.86837   6
   4   0  -4 1.69075 0.98283   1
   4   0  -4 1.76718 0.67916   6
  -4   0   4 1.01973 0.71031   6
  -4   0   4 -0.0686 0.76134   6
  -4   0   4 0.43028 0.62148   5
  -4   0   4 0.23914 0.64920   5
  -4   0   4 1.11863 1.53751   3
  -4   0   4 -0.2647 0.88330   1
   3   0  -4 22.8396 1.72113   5
   3   0  -4 20.8073 1.56360   5
   3   0  -4 21.9263 1.56328   1
   3   0  -4 18.7868 1.61790   4
   3   0  -4 20.8978 1.39004   6
   3   0  -4 19.9807 1.79864   6
  -3   0   4 20.4531 1.49641   5
  -3   0   4 19.0011 1.66663   6
  -3   0   4 21.0984 2.17449   3
  -3   0   4 19.2785 1.61409   1
  -3   0   4 23.0122 1.46210   5
  -3   0   4 20.7413 1.66447   6
   2   0  -4 785.398 21.4272   6
   2   0  -4 777.798 21.1196   6
   2   0  -4 760.905 21.0947   1
   2   0  -4 769.953 21.1918   5
   2   0  -4 767.017 21.2470   5
   2   0  -4 761.599 21.0816   4
  -2   0   4 773.525 21.3658   3
  -2   0   4 761.863 21.3724   6
  -2   0   4 769.950 21.1382   5
  -2   0   4 765.199 21.1003   1
   1   0  -4 575.519 16.0296   6
   1   0  -4 559.256 15.5379   4
   1   0  -4 547.158 15.7288   6
   1   0  -4 570.005 15.8751   5
   1   0  -4 566.114 15.7164   1
   1   0  -4 575.788 15.8373   5
  -1   0   4 558.423 15.6941   1
  -1   0   4 577.362 15.7318   6
  -1   0   4 554.613 16.0069   6
  -1   0   4 575.488 15.7990   5
  -1   0   4 558.819 15.5849   4
  -1   0   4 585.049 15.7464   3
   0   0  -4 98.3749 3.07626   4
   0   0  -4 98.5015 3.65476   6
   0   0  -4 100.177 3.38905   6
   0   0  -4 101.979 3.42898   1
   0   0  -4 105.398 3.50069   5
   0   0  -4 112.014 3.65581   2
   0   0  -4 99.7323 3.52018   5
   0   0   4 94.9575 3.47551   5
   0   0   4 93.9467 3.63037   6
   0   0   4 103.815 3.20864   3
   0   0   4 96.5132 3.46704   5
   0   0   4 102.303 3.38554   6
   0   0   4 99.2091 3.07330   4
  -1   0  -4 757.626 19.9158   3
  -1   0  -4 741.974 20.5337   5
  -1   0  -4 732.557 20.1510   4
  -1   0  -4 738.712 20.5659   5
  -1   0  -4 731.514 20.4751   6
  -1   0  -4 774.065 20.4794   2
  -1   0  -4 750.679 20.7512   6
  -1   0  -4 744.130 20.5992   1
   1   0   4 747.402 20.7810   6
   1   0   4 754.299 20.6342   5
   1   0   4 738.571 20.5485   5
   1   0   4 754.890 20.6281   1
   1   0   4 724.600 20.1040   4
   1   0   4 750.497 20.4845   6
  -2   0  -4 181.028 5.62196   6
  -2   0  -4 188.667 5.69022   5
  -2   0  -4 183.155 5.41607   4
  -2   0  -4 180.264 5.88923   1
  -2   0  -4 202.166 5.75623   2
  -2   0  -4 184.886 5.85013   6
  -2   0  -4 186.270 5.65811   5
   2   0   4 179.583 5.60589   6
   2   0   4 188.113 5.95536   6
   2   0   4 175.883 5.86456   1
   2   0   4 178.889 5.76819   5
   2   0   4 181.896 5.30213   4
   2   0   4 185.422 5.73501   5
  -3   0  -4 212.372 6.66192   1
  -3   0  -4 206.472 6.34241   2
  -3   0  -4 205.034 6.09075   4
  -3   0  -4 205.113 6.06233   5
  -3   0  -4 205.941 5.72717   3
  -3   0  -4 195.665 6.08267   6
  -3   0  -4 205.694 6.33029   6
   3   0   4 205.224 6.43774   6
   3   0   4 200.856 5.96038   4
   3   0   4 181.793 6.51043   5
   3   0   4 196.778 6.25717   5
   3   0   4 207.720 6.63069   1
   3   0   4 202.495 6.12055   6
  -4   0  -4 0.14657 0.53492   5
  -4   0  -4 0.16640 0.83556   6
  -4   0  -4 0.40920 1.44979   2
  -4   0  -4 -1.2214 0.97998   3
  -4   0  -4 -0.4632 0.52661   5
  -4   0  -4 0.42627 0.68253   6
   4   0   4 -0.4386 0.76867   6
   4   0   4 1.04927 1.00405   6
   4   0   4 0.33630 0.86208   5
   4   0   4 0.27978 0.84710   5
   4   0   4 0.06651 0.88853   4
   4   0   4 0.12932 1.33214   1
  -5   0  -4 116.098 3.70644   6
  -5   0  -4 120.082 4.24988   3
  -5   0  -4 119.912 3.67414   6
  -5   0  -4 121.277 4.91964   2
   5   0   4 120.323 4.15794   6
   5   0   4 122.328 4.61457   4
   5   0   4 121.467 5.16719   1
   5   0   4 118.690 4.35027   5
   5   0   4 119.061 4.24500   5
  -6   0  -4 142.369 5.17420   3
  -6   0  -4 146.768 5.84757   2
   6   0   4 134.131 4.75189   6
   6   0   4 146.179 6.23234   1
   6   0   4 133.249 5.02425   5
   6   0   4 138.854 4.91086   5
   6   0   4 142.230 5.62156   4
  -7   0  -4 7.57058 2.19175   3
  -7   0  -4 7.92912 2.76526   2
   7   0   4 6.27455 2.71354   4
   7   0   4 4.41220 1.70249   5
   7   0   4 4.22083 2.92453   1
   7   0   4 4.74390 1.44871   6
   7   0   4 7.54453 1.60535   5
  -8   0  -4 6.10082 3.29118   2
   8   0   4 -0.8303 2.53360   4
   8   0   4 6.30881 4.47614   4
   8   0   4 3.09318 2.01416   5
   8   0   4 3.96397 3.99567   1
   9  -1  -4 107.062 6.53482   1
   9  -1  -4 114.831 5.09228   5
   9  -1  -4 123.666 7.98075   4
   9  -1  -4 113.353 4.88976   5
   9  -1  -4 107.174 7.48180   1
  -9   1   4 103.299 7.09733   3
   8  -1  -4 1.74354 2.93491   4
   8  -1  -4 2.66699 1.84229   5
   8  -1  -4 -4.0175 5.34217   4
   8  -1  -4 0.01691 2.42360   1
   8  -1  -4 2.64858 1.67872   5
   8  -1  -4 1.59591 1.89093   6
   8  -1  -4 2.74307 1.50720   6
  -8   1   4 0.13948 2.54148   3
   7  -1  -4 -1.5196 1.38522   5
   7  -1  -4 -0.4436 1.62723   6
   7  -1  -4 -0.6944 3.23918   4
   7  -1  -4 0.28042 1.22211   6
   7  -1  -4 0.99115 1.30281   5
   7  -1  -4 -2.0637 2.10543   4
   7  -1  -4 2.19708 1.93894   1
  -7   1   4 2.71906 2.41271   3
   6  -1  -4 3.47335 1.18847   5
   6  -1  -4 3.91941 2.37795   4
   6  -1  -4 1.92318 1.49650   1
   6  -1  -4 4.05443 1.29214   5
   6  -1  -4 3.01456 1.06573   6
   6  -1  -4 1.97539 1.79839   4
   6  -1  -4 1.99600 1.40113   6
  -6   1   4 4.54463 2.07808   3
   5  -1  -4 23.8466 2.06012   1
   5  -1  -4 16.9343 1.73870   6
   5  -1  -4 18.3258 1.67760   6
   5  -1  -4 14.8911 1.79098   4
   5  -1  -4 18.9883 1.97865   5
   5  -1  -4 18.6952 1.83057   5
  -5   1   4 19.4983 1.26044   5
  -5   1   4 18.9254 1.22239   5
  -5   1   4 16.8673 2.35363   3
  -5   1   4 18.9044 1.70993   6
  -5   1   4 18.7724 1.81120   6
  -5   1   4 18.0183 1.55944   1
   4  -1  -4 24.9229 1.74420   1
   4  -1  -4 23.7068 1.56915   6
   4  -1  -4 22.6952 1.99652   6
   4  -1  -4 21.1959 1.89683   5
   4  -1  -4 24.0987 1.76911   5
  -4   1   4 24.3224 1.60361   5
  -4   1   4 23.6241 1.96741   6
  -4   1   4 23.4055 2.53047   3
  -4   1   4 25.2909 1.78761   6
  -4   1   4 25.0022 1.61842   5
  -4   1   4 21.3368 1.67927   1
   3  -1  -4 309.137 8.98697   5
   3  -1  -4 299.291 8.73350   1
   3  -1  -4 306.139 8.85780   6
   3  -1  -4 298.226 9.01951   5
   3  -1  -4 303.986 9.15326   6
  -3   1   4 299.008 8.83965   1
  -3   1   4 306.755 8.90397   5
  -3   1   4 298.170 9.11373   6
  -3   1   4 309.685 9.43253   3
  -3   1   4 309.802 8.98533   5
  -3   1   4 315.671 8.92067   6
   2  -1  -4 191.542 5.57408   1
   2  -1  -4 186.990 5.78747   5
   2  -1  -4 186.405 5.86748   5
   2  -1  -4 180.576 5.63896   4
   2  -1  -4 177.661 5.65328   6
   2  -1  -4 184.815 5.97287   6
  -2   1   4 184.911 5.76358   5
  -2   1   4 181.165 5.52750   1
  -2   1   4 186.055 5.74171   6
  -2   1   4 186.856 5.80446   5
  -2   1   4 187.084 6.01088   6
  -2   1   4 196.701 6.07527   3
   1  -1  -4 18.8822 1.28259   1
   1  -1  -4 19.3623 1.11805   4
   1  -1  -4 17.3046 1.68339   2
   1  -1  -4 19.7494 1.68411   5
   1  -1  -4 17.5409 1.28004   6
   1  -1  -4 18.0301 1.42211   5
  -1   1   4 18.1122 1.64288   6
  -1   1   4 17.7539 1.27697   1
  -1   1   4 16.7438 1.47252   5
  -1   1   4 18.0185 1.34301   6
  -1   1   4 18.6930 1.42472   5
  -1   1   4 18.4835 1.59724   3
   0  -1  -4 104.974 3.11346   4
   0  -1  -4 112.226 3.86631   6
   0  -1  -4 103.124 3.57555   1
   0  -1  -4 110.318 3.76002   5
   0  -1  -4 95.4217 3.48030   6
   0  -1  -4 104.156 3.64233   5
   0  -1  -4 104.070 3.79311   2
   0   1   4 108.455 3.91639   6
   0   1   4 103.787 3.56974   1
   0   1   4 105.925 3.59130   6
   0   1   4 110.882 3.37869   3
   0   1   4 106.872 3.79814   5
   0   1   4 99.2997 3.67453   5
  -1  -1  -4 85.8931 3.23541   5
  -1  -1  -4 85.2448 3.06027   6
  -1  -1  -4 85.2631 3.34706   6
  -1  -1  -4 92.3566 3.34946   2
  -1  -1  -4 88.0558 3.29042   1
  -1  -1  -4 88.7587 2.55939   4
   1   1   4 86.0675 3.11814   6
   1   1   4 86.4689 3.42510   6
   1   1   4 87.6090 3.25472   5
   1   1   4 89.8040 3.21557   5
   1   1   4 89.3324 2.53131   4
   1   1   4 84.3438 3.22500   1
  -2  -1  -4 44.9147 1.98436   6
  -2  -1  -4 50.5091 2.52384   1
  -2  -1  -4 47.3638 2.41879   2
  -2  -1  -4 44.0783 1.53348   4
  -2  -1  -4 46.5270 2.18612   5
  -2  -1  -4 43.2154 2.22701   6
  -2  -1  -4 46.3589 2.19287   5
   2   1   4 43.8879 2.42546   1
   2   1   4 43.7100 2.36896   6
   2   1   4 44.9691 1.48252   4
   2   1   4 43.6549 2.11654   5
   2   1   4 43.4951 2.19399   5
   2   1   4 45.4132 2.08429   6
  -3  -1  -4 6.31547 0.90135   5
  -3  -1  -4 8.08570 0.90998   5
  -3  -1  -4 7.16805 1.88602   2
  -3  -1  -4 6.46023 1.11326   6
  -3  -1  -4 6.87507 0.85606   6
   3   1   4 5.38302 1.00047   5
   3   1   4 5.34011 0.99002   5
   3   1   4 5.58507 1.10487   6
   3   1   4 5.41463 0.89394   6
   3   1   4 6.66449 1.44821   1
   3   1   4 6.23246 0.65322   4
  -4  -1  -4 134.881 4.38490   6
  -4  -1  -4 142.561 5.29177   2
  -4  -1  -4 138.945 4.60707   6
   4   1   4 136.610 5.38825   1
   4   1   4 141.935 4.72400   5
   4   1   4 141.153 4.47257   4
   4   1   4 142.626 4.65244   6
   4   1   4 141.014 5.00950   6
   4   1   4 141.222 4.80501   5
  -5  -1  -4 290.772 9.56307   2
   5   1   4 304.079 9.79183   1
   5   1   4 296.944 8.83091   5
   5   1   4 297.758 8.81454   4
   5   1   4 285.342 8.84633   5
   5   1   4 294.335 8.71247   6
   5   1   4 297.278 8.99999   6
  -6  -1  -4 0.59645 2.28926   2
   6   1   4 1.48982 1.37876   4
   6   1   4 3.09228 1.77224   4
   6   1   4 2.03811 1.36230   5
   6   1   4 1.76162 1.35494   6
   6   1   4 2.71006 1.28954   5
  -7  -1  -4 3.01409 2.79155   2
   7   1   4 3.11005 1.71359   5
   7   1   4 4.48524 3.24710   1
   7   1   4 2.45367 1.71169   4
   7   1   4 -1.0370 1.45398   5
   7   1   4 -0.1404 2.42949   4
  -8  -1  -4 3.37323 3.46100   2
   8   1   4 4.28114 4.34746   1
   8   1   4 3.18550 2.35933   4
   8   1   4 4.34890 4.82941   4
   8   1   4 4.62356 2.02130   5
   8   1   4 5.45153 1.95821   5
   9  -2  -4 16.9926 4.28476   4
   9  -2  -4 12.8787 3.81570   5
   9  -2  -4 14.7121 2.79059   1
   9  -2  -4 15.1641 2.41177   5
   9  -2  -4 12.9717 2.20155   6
  -9   2   4 18.7317 5.95060   3
   8  -2  -4 7.26370 2.21012   1
   8  -2  -4 3.46732 2.10412   5
   8  -2  -4 1.90781 3.30954   4
   8  -2  -4 4.47066 2.67309   6
   8  -2  -4 1.52781 1.95271   1
   8  -2  -4 9.10191 1.76579   6
   8  -2  -4 7.93477 1.95880   5
  -8   2   4 6.32255 2.75670   3
   7  -2  -4 12.7959 1.59348   6
   7  -2  -4 12.3312 1.64137   1
   7  -2  -4 13.2090 1.97347   5
   7  -2  -4 10.4980 1.76405   5
   7  -2  -4 12.3534 2.10938   6
   7  -2  -4 7.07265 3.58800   4
  -7   2   4 9.26643 2.68978   3
   6  -2  -4 -1.0066 1.03322   6
   6  -2  -4 -0.1755 1.12880   5
   6  -2  -4 0.57669 1.17058   1
   6  -2  -4 -0.6473 1.25348   5
   6  -2  -4 -5.9949 2.39502   4
   6  -2  -4 -0.2437 1.48403   6
  -6   2   4 -0.3815 1.10129   6
  -6   2   4 0.51545 1.98563   3
   5  -2  -4 51.3633 2.74175   5
   5  -2  -4 57.4948 4.02106   4
   5  -2  -4 58.3660 2.46300   1
   5  -2  -4 57.8237 2.70005   6
   5  -2  -4 55.5593 3.13740   6
   5  -2  -4 50.8856 2.97685   5
  -5   2   4 58.8143 2.47360   5
  -5   2   4 55.2263 3.90204   3
  -5   2   4 49.9733 2.87040   6
  -5   2   4 58.5404 2.46804   5
   4  -2  -4 206.407 6.59836   5
   4  -2  -4 198.608 6.29995   6
   4  -2  -4 201.592 5.98346   1
   4  -2  -4 204.515 6.74370   6
   4  -2  -4 205.999 6.99471   4
   4  -2  -4 200.566 6.45863   5
  -4   2   4 208.142 6.51727   6
  -4   2   4 198.941 6.61782   6
  -4   2   4 202.378 6.32394   5
  -4   2   4 209.008 6.34443   5
  -4   2   4 205.370 7.24211   3
  -4   2   4 203.002 5.98674   1
   3  -2  -4 4.45731 0.68237   1
   3  -2  -4 5.66947 1.27365   4
   3  -2  -4 3.94919 0.85043   6
   3  -2  -4 5.58508 1.04457   5
   3  -2  -4 4.49111 0.97517   5
   3  -2  -4 4.29825 1.12273   6
  -3   2   4 3.54042 1.00381   6
  -3   2   4 5.85075 1.04575   5
  -3   2   4 3.97349 0.67496   1
  -3   2   4 4.91893 1.16659   6
  -3   2   4 4.43683 0.90748   5
  -3   2   4 3.40419 1.46489   3
   2  -2  -4 105.289 4.22231   2
   2  -2  -4 106.662 4.09158   6
   2  -2  -4 103.337 3.40226   1
   2  -2  -4 108.225 3.83440   5
   2  -2  -4 104.153 3.94939   5
   2  -2  -4 111.590 3.84641   4
  -2   2   4 102.726 4.01639   6
  -2   2   4 107.223 3.42727   1
  -2   2   4 112.720 3.88600   6
  -2   2   4 97.6217 4.44111   3
  -2   2   4 108.015 3.86002   5
  -2   2   4 106.552 3.90079   5
   1  -2  -4 589.214 16.6347   6
   1  -2  -4 591.921 16.4029   5
   1  -2  -4 589.178 16.0904   4
   1  -2  -4 567.466 16.6153   2
   1  -2  -4 574.598 16.0894   1
   1  -2  -4 561.911 16.2811   6
   1  -2  -4 592.139 16.4949   5
  -1   2   4 574.231 16.4448   5
  -1   2   4 606.790 16.3761   3
  -1   2   4 571.416 16.0834   1
  -1   2   4 594.701 16.4041   6
  -1   2   4 585.748 16.4325   5
  -1   2   4 577.624 16.6288   6
   0  -2  -4 300.591 8.81030   1
   0  -2  -4 297.016 9.02410   5
   0  -2  -4 300.342 8.85739   6
   0  -2  -4 305.253 8.38926   4
   0  -2  -4 295.603 8.28287   4
   0  -2  -4 304.232 8.94656   5
   0  -2  -4 313.907 9.13203   2
   0  -2  -4 305.053 9.18997   6
   0   2   4 298.095 8.98333   5
   0   2   4 305.596 9.04512   5
   0   2   4 319.346 8.72075   3
   0   2   4 302.613 8.93692   6
   0   2   4 286.556 9.14974   6
   0   2   4 295.646 8.79122   1
  -1  -2  -4 29.5376 1.96642   5
  -1  -2  -4 26.3737 1.67103   6
  -1  -2  -4 30.9950 2.01634   6
  -1  -2  -4 26.1271 1.93306   1
   1   2   4 29.9497 1.66465   3
   1   2   4 29.3506 1.86192   5
   1   2   4 30.1208 1.86365   6
   1   2   4 30.1112 2.09288   6
   1   2   4 30.1983 1.97759   1
   1   2   4 29.6575 1.92782   5
  -2  -2  -4 144.010 4.91963   6
  -2  -2  -4 142.781 5.05606   2
  -2  -2  -4 140.737 4.75229   5
  -2  -2  -4 139.176 4.57599   6
  -2  -2  -4 143.462 4.67546   5
   2   2   4 144.788 4.78269   5
   2   2   4 140.211 4.83717   5
   2   2   4 146.032 5.09299   1
   2   2   4 142.403 4.77132   6
   2   2   4 142.230 4.26697   3
   2   2   4 142.076 4.98629   6
  -3  -2  -4 49.5932 2.24392   6
  -3  -2  -4 52.2603 2.26038   5
  -3  -2  -4 51.5586 3.12681   2
  -3  -2  -4 46.5317 2.60850   6
  -3  -2  -4 53.1209 2.40016   5
   3   2   4 54.1511 2.84495   6
   3   2   4 51.0354 2.55476   5
   3   2   4 50.2872 2.63348   5
   3   2   4 52.1331 2.53841   6
   3   2   4 56.3939 2.27090   3
   3   2   4 54.0755 3.12480   1
  -4  -2  -4 154.807 4.85715   6
  -4  -2  -4 157.513 5.12225   6
  -4  -2  -4 148.218 5.89374   2
   4   2   4 156.017 4.49732   4
   4   2   4 159.715 5.27354   5
   4   2   4 159.343 5.56928   6
   4   2   4 151.982 5.29783   5
   4   2   4 155.190 5.22390   6
   4   2   4 152.672 6.00260   1
   4   2   4 155.917 4.63751   4
  -5  -2  -4 0.09395 2.00222   2
  -5  -2  -4 0.21389 0.70893   6
   5   2   4 -0.2818 1.27860   6
   5   2   4 2.82684 1.13192   4
   5   2   4 1.65400 1.24445   5
   5   2   4 1.56483 1.24398   5
   5   2   4 -0.0602 1.49278   6
   5   2   4 2.26790 2.10370   1
   5   2   4 0.78378 0.82556   4
  -6  -2  -4 46.5857 4.49930   2
   6   2   4 47.3503 3.26107   6
   6   2   4 47.4688 5.21977   6
   6   2   4 42.1347 3.14248   4
   6   2   4 47.5750 2.54407   4
   6   2   4 49.2128 3.14329   5
   6   2   4 42.1581 3.94451   1
   6   2   4 42.7110 3.08305   5
  -7  -2  -4 113.907 6.42891   2
   7   2   4 103.002 4.69608   5
   7   2   4 102.178 5.53636   4
   7   2   4 109.585 4.76969   5
   7   2   4 96.0334 7.11073   1
   7   2   4 110.252 4.34011   4
  -8  -2  -4 1.16641 3.66012   2
   8   2   4 2.79022 3.59693   4
   8   2   4 -0.3903 2.14437   5
   8   2   4 -2.0016 2.05941   5
   8   2   4 7.85447 4.93639   1
   9  -3  -4 18.8922 2.96983   5
   9  -3  -4 22.0996 3.27513   5
   9  -3  -4 24.2203 3.15743   6
   9  -3  -4 32.4116 5.20448   4
  -9   3   4 15.7933 4.41971   3
   8  -3  -4 140.712 5.71403   6
   8  -3  -4 147.119 5.92473   5
   8  -3  -4 141.562 4.83471   1
   8  -3  -4 140.296 6.29719   5
   8  -3  -4 148.967 5.05996   1
  -8   3   4 133.749 7.16195   3
   7  -3  -4 10.1084 2.20652   5
   7  -3  -4 9.41834 1.68779   6
   7  -3  -4 8.07028 3.72022   4
   7  -3  -4 10.8282 1.82501   5
   7  -3  -4 10.2337 2.46741   6
   7  -3  -4 10.3253 1.22595   1
   7  -3  -4 12.0214 1.31201   1
  -7   3   4 8.33619 1.53780   6
  -7   3   4 8.20944 2.55786   3
   6  -3  -4 24.7423 2.35712   5
   6  -3  -4 24.6707 2.47111   6
   6  -3  -4 28.6148 1.69139   1
   6  -3  -4 27.1744 2.45817   6
   6  -3  -4 25.9554 2.63873   5
   6  -3  -4 28.7978 3.42226   4
  -6   3   4 24.3262 2.17557   6
  -6   3   4 21.0837 2.93825   3
  -6   3   4 24.5748 2.02205   5
  -6   3   4 30.6142 1.96539   5
   5  -3  -4 0.93540 1.43911   5
   5  -3  -4 0.30329 1.45495   6
   5  -3  -4 0.28226 0.62234   1
   5  -3  -4 2.75016 2.06662   4
   5  -3  -4 1.50472 1.13382   6
   5  -3  -4 -0.5332 1.08838   5
  -5   3   4 1.21307 1.18397   5
  -5   3   4 -0.9001 1.08695   5
  -5   3   4 0.62558 1.19801   6
  -5   3   4 0.45141 1.84445   3
   4  -3  -4 2.62521 1.06153   6
   4  -3  -4 3.19035 1.20899   6
   4  -3  -4 2.73529 0.57394   1
   4  -3  -4 1.76583 1.06931   5
   4  -3  -4 2.14663 1.15704   5
   4  -3  -4 0.60277 1.53962   2
   4  -3  -4 0.87752 1.58100   4
  -4   3   4 2.60919 1.70098   3
  -4   3   4 2.36133 1.05652   5
  -4   3   4 2.37597 0.58667   1
  -4   3   4 2.19315 1.20880   6
   3  -3  -4 10.7945 1.82449   2
   3  -3  -4 9.93370 1.35084   5
   3  -3  -4 9.50092 0.77908   1
   3  -3  -4 8.60020 1.12592   6
   3  -3  -4 9.45519 1.46147   5
   3  -3  -4 9.86446 1.52166   4
   3  -3  -4 10.0706 1.52142   6
  -3   3   4 10.3356 1.02624   1
  -3   3   4 6.86932 1.25633   6
  -3   3   4 11.4774 1.49584   6
  -3   3   4 7.83217 1.68738   3
  -3   3   4 11.0985 1.52171   5
   2  -3  -4 204.997 6.79997   2
   2  -3  -4 200.395 6.62697   5
   2  -3  -4 202.360 6.34715   4
   2  -3  -4 202.399 6.43373   6
   2  -3  -4 198.469 6.48953   5
   2  -3  -4 195.059 5.86353   1
   2  -3  -4 210.960 6.80985   6
  -2   3   4 202.903 6.57149   5
  -2   3   4 207.735 6.81310   3
  -2   3   4 204.655 6.57549   6
  -2   3   4 192.750 6.52423   5
  -2   3   4 194.648 6.69773   6
  -2   3   4 193.046 5.86273   1
   1  -3  -4 296.964 9.11291   6
   1  -3  -4 293.703 8.41508   4
   1  -3  -4 284.728 8.39966   1
   1  -3  -4 278.585 8.88929   5
   1  -3  -4 285.889 8.73260   6
   1  -3  -4 298.412 9.04246   2
   1  -3  -4 288.248 8.80478   5
  -1   3   4 284.553 8.89621   5
  -1   3   4 297.383 8.85327   3
  -1   3   4 295.141 8.42043   1
  -1   3   4 296.425 8.91927   6
  -1   3   4 286.191 8.90020   5
  -1   3   4 284.418 9.05935   6
   0  -3  -4 43.2147 2.65448   2
   0  -3  -4 46.4099 2.61424   5
   0  -3  -4 42.0615 2.29747   6
   0  -3  -4 46.6133 2.66414   6
   0  -3  -4 42.1883 2.33630   5
   0  -3  -4 43.1617 1.66816   4
   0   3   4 45.1708 2.49982   3
   0   3   4 44.3551 2.60608   5
   0   3   4 39.7569 2.65199   6
   0   3   4 40.1828 2.23610   1
   0   3   4 45.0850 2.57944   5
   0   3   4 45.9506 2.53469   6
  -1  -3  -4 88.5209 3.88116   2
  -1  -3  -4 85.5229 3.37465   6
  -1  -3  -4 89.0520 3.70448   5
  -1  -3  -4 88.8310 3.45421   5
  -1  -3  -4 85.2919 3.71108   6
   1   3   4 90.7803 3.72127   5
   1   3   4 86.4537 3.62763   6
   1   3   4 96.5386 3.42099   3
   1   3   4 93.0118 3.85683   6
   1   3   4 89.0062 3.65670   5
   1   3   4 89.6566 3.62588   1
  -2  -3  -4 42.0066 2.27868   5
  -2  -3  -4 44.9965 2.56135   5
  -2  -3  -4 42.3293 2.23610   6
  -2  -3  -4 36.3316 2.84440   2
  -2  -3  -4 36.9165 2.56731   6
   2   3   4 43.0205 2.61048   5
   2   3   4 39.5889 2.43379   5
   2   3   4 42.4321 2.41771   3
   2   3   4 42.7099 2.71094   1
   2   3   4 44.7775 2.71989   6
   2   3   4 38.1952 2.52610   6
  -3  -3  -4 1.65756 1.07403   5
  -3  -3  -4 1.00004 0.89450   5
  -3  -3  -4 0.86186 1.53368   2
  -3  -3  -4 0.01718 1.11772   6
  -3  -3  -4 0.30011 0.81292   6
   3   3   4 2.27694 1.31348   3
   3   3   4 0.55281 1.41233   1
   3   3   4 0.78582 1.26171   6
   3   3   4 -0.1848 1.11082   5
   3   3   4 -0.3445 1.15416   6
  -4  -3  -4 8.82107 1.13188   6
  -4  -3  -4 10.9088 1.04073   5
  -4  -3  -4 9.99859 2.20688   2
  -4  -3  -4 9.06788 1.47615   6
  -4  -3  -4 10.7629 0.99779   5
   4   3   4 10.8296 1.69523   5
   4   3   4 8.75569 1.60352   6
   4   3   4 9.77569 2.15914   1
   4   3   4 8.25901 1.53726   5
   4   3   4 8.32336 1.73475   6
   4   3   4 11.8526 1.69455   3
  -5  -3  -4 129.485 4.19337   6
  -5  -3  -4 127.022 6.03021   2
  -5  -3  -4 127.897 4.00255   6
   5   3   4 132.178 6.35351   1
   5   3   4 126.339 5.02555   5
   5   3   4 128.632 4.01547   4
   5   3   4 127.984 5.31165   6
   5   3   4 128.607 3.84556   4
   5   3   4 116.989 6.07942   3
   5   3   4 122.993 4.94484   5
   5   3   4 123.521 5.13457   6
  -6  -3  -4 124.177 6.51907   2
   6   3   4 132.203 4.17222   4
   6   3   4 120.211 7.07538   1
   6   3   4 126.763 5.38466   5
   6   3   4 126.677 4.87260   4
   6   3   4 127.683 5.22478   5
  -7  -3  -4 1.80452 3.20540   2
   7   3   4 2.18776 1.46711   4
   7   3   4 6.23590 2.71593   6
   7   3   4 5.13605 4.46605   1
   7   3   4 3.54101 2.17185   5
   7   3   4 3.83364 2.54741   4
   7   3   4 1.57560 2.07227   5
   8   3   4 -6.2739 5.37349   1
   8   3   4 -0.8294 2.61636   5
   8   3   4 2.52040 2.66418   5
   9  -4  -4 33.3956 3.63485   5
   9  -4  -4 30.3203 4.30482   2
  -9   4   4 29.4494 4.48502   3
   8  -4  -4 11.0377 2.48179   5
   8  -4  -4 10.6579 2.56459   6
   8  -4  -4 9.27162 3.16182   2
   8  -4  -4 12.6185 2.90894   5
  -8   4   4 8.46191 1.60448   6
  -8   4   4 7.27186 3.32705   3
   7  -4  -4 11.4515 2.57597   5
   7  -4  -4 12.1881 2.78219   6
   7  -4  -4 7.28170 2.03443   5
   7  -4  -4 9.86256 2.85992   2
   7  -4  -4 15.8779 4.36462   4
   7  -4  -4 12.1495 2.00631   6
  -7   4   4 12.2090 2.10738   6
  -7   4   4 10.7146 3.04713   3
   6  -4  -4 12.3728 2.29722   5
   6  -4  -4 17.6858 3.51575   4
   6  -4  -4 11.3817 1.85785   6
   6  -4  -4 11.4743 2.52391   2
   6  -4  -4 11.0565 2.39435   6
  -6   4   4 13.3375 1.69662   5
  -6   4   4 14.3817 2.46633   6
  -6   4   4 16.6672 3.09318   3
  -6   4   4 13.7433 1.76984   5
   5  -4  -4 30.0817 3.00873   2
   5  -4  -4 26.4687 2.72853   6
   5  -4  -4 20.7257 2.71267   4
   5  -4  -4 24.1215 2.33836   5
   5  -4  -4 27.4506 2.60930   6
   5  -4  -4 30.3383 2.67275   5
  -5   4   4 30.2972 2.84431   5
  -5   4   4 27.0476 2.56681   5
  -5   4   4 25.9877 3.13280   3
  -5   4   4 28.4593 2.97505   6
   4  -4  -4 33.7173 3.10869   2
   4  -4  -4 30.4632 2.68478   5
   4  -4  -4 31.6030 3.01351   5
   4  -4  -4 37.7635 3.67031   6
   4  -4  -4 32.0527 3.17612   4
   4  -4  -4 38.0477 2.64668   6
  -4   4   4 34.1251 2.99087   6
  -4   4   4 34.1740 2.71817   5
  -4   4   4 33.0124 2.94235   5
  -4   4   4 32.6751 3.38885   3
   3  -4  -4 258.153 8.39184   2
   3  -4  -4 248.940 8.26855   5
   3  -4  -4 260.028 8.16018   4
   3  -4  -4 248.084 8.12364   5
   3  -4  -4 258.651 8.50403   6
   3  -4  -4 247.423 8.01277   6
  -3   4   4 242.955 7.00624   1
  -3   4   4 244.367 8.37999   6
  -3   4   4 262.463 8.21138   5
  -3   4   4 244.459 8.59392   3
  -3   4   4 251.488 8.13573   5
   2  -4  -4 10.9287 1.39924   4
   2  -4  -4 10.5367 1.71196   2
   2  -4  -4 12.4887 1.52725   6
   2  -4  -4 11.6981 1.64239   5
   2  -4  -4 13.3874 1.88741   5
   2  -4  -4 9.12117 1.58119   6
  -2   4   4 8.86041 1.51782   5
  -2   4   4 10.1024 0.98421   1
  -2   4   4 14.2859 2.00412   3
  -2   4   4 14.0710 1.85341   6
  -2   4   4 12.0124 1.74839   5
  -2   4   4 8.65505 1.45411   6
   1  -4  -4 123.500 4.22163   4
   1  -4  -4 126.220 4.68783   6
   1  -4  -4 127.231 5.03179   5
   1  -4  -4 124.915 4.75927   5
   1  -4  -4 120.324 4.89346   2
   1  -4  -4 127.391 5.15543   6
  -1   4   4 127.620 4.97183   6
  -1   4   4 132.916 4.93313   3
  -1   4   4 127.714 4.94487   5
  -1   4   4 127.381 4.27166   1
  -1   4   4 128.736 5.07975   6
  -1   4   4 124.230 4.94528   5
   0  -4  -4 235.713 8.13604   2
   0  -4  -4 262.572 8.27053   5
   0  -4  -4 247.558 8.29897   6
   0  -4  -4 254.906 8.02126   5
   0  -4  -4 251.167 8.00829   6
   0  -4  -4 256.233 7.18147   4
   0   4   4 239.967 8.47453   3
   0   4   4 256.283 8.20468   5
   0   4   4 258.966 8.23976   5
   0   4   4 256.727 7.79883   1
   0   4   4 252.032 8.37512   6
   0   4   4 259.595 8.25803   6
  -1  -4  -4 71.5850 2.03134   4
  -1  -4  -4 73.8630 3.71305   2
  -1  -4  -4 67.5322 3.19969   6
  -1  -4  -4 68.2009 3.57206   6
  -1  -4  -4 68.8477 3.18610   5
  -1  -4  -4 69.4385 3.52157   5
   1   4   4 71.6016 3.30640   3
   1   4   4 67.7198 3.32425   1
   1   4   4 72.4681 3.60105   5
   1   4   4 64.9137 3.40280   5
   1   4   4 74.1148 3.62917   6
  -2  -4  -4 0.55124 0.95419   6
  -2  -4  -4 0.08451 0.99713   5
  -2  -4  -4 0.43540 1.32395   5
  -2  -4  -4 1.26024 1.55482   2
  -2  -4  -4 -1.1894 1.17611   6
   2   4   4 -1.3006 1.24261   6
   2   4   4 -0.5187 1.50471   3
   2   4   4 0.53560 1.26627   5
   2   4   4 1.74257 1.31050   5
   2   4   4 -0.3518 1.41030   1
  -3  -4  -4 10.6659 1.58843   5
  -3  -4  -4 10.2868 1.37374   5
  -3  -4  -4 12.1910 2.20557   2
  -3  -4  -4 9.33103 1.31954   6
  -3  -4  -4 8.62174 1.70439   6
   3   4   4 7.35447 1.65172   5
   3   4   4 10.6353 1.90228   6
   3   4   4 10.9586 1.87915   3
   3   4   4 7.23923 1.89383   1
   3   4   4 9.82672 1.86189   6
   3   4   4 9.69063 1.82997   5
  -4  -4  -4 19.2454 2.05525   6
  -4  -4  -4 18.6779 1.95469   6
  -4  -4  -4 19.4601 1.88176   5
  -4  -4  -4 23.5457 2.17105   5
  -4  -4  -4 19.2750 2.66882   2
   4   4   4 16.0115 2.58515   1
   4   4   4 19.3021 2.19865   5
   4   4   4 20.6521 2.46471   6
   4   4   4 19.6990 2.30242   5
   4   4   4 21.7032 2.26971   3
  -5  -4  -4 87.5566 3.31101   6
  -5  -4  -4 90.7442 3.70433   6
  -5  -4  -4 89.0833 5.42475   2
   5   4   4 84.7052 4.89284   6
   5   4   4 89.0513 4.55465   5
   5   4   4 89.3641 5.93430   1
   5   4   4 88.5948 4.41596   3
   5   4   4 83.7467 4.63752   5
  -6  -4  -4 1.65785 2.87526   2
   6   4   4 0.72379 3.53208   1
   6   4   4 -0.3993 2.22103   5
   6   4   4 -2.1700 2.82823   6
   6   4   4 -0.8964 2.02969   5
   6   4   4 3.21487 2.59009   3
  -7  -4  -4 8.19984 3.63766   2
   7   4   4 11.0707 2.84722   5
   7   4   4 10.7127 4.85800   1
   7   4   4 6.53682 3.54898   6
   7   4   4 18.1138 3.55451   3
   7   4   4 13.4996 2.86731   5
   9  -5  -4 17.9862 3.92497   2
  -9   5   4 17.3377 4.23254   3
   8  -5  -4 31.8182 3.90957   2
   8  -5  -4 27.6405 3.32077   5
   8  -5  -4 33.9802 3.89778   5
   8  -5  -4 32.1636 3.66280   6
  -8   5   4 26.6076 4.25938   3
  -8   5   4 26.9469 2.91109   6
   7  -5  -4 128.291 5.75872   6
   7  -5  -4 113.635 6.10861   2
   7  -5  -4 124.120 6.50559   5
   7  -5  -4 112.494 6.89857   6
   7  -5  -4 114.217 8.49282   4
   7  -5  -4 120.910 5.85447   5
  -7   5   4 114.331 4.87909   5
  -7   5   4 108.614 6.50289   3
  -7   5   4 121.991 4.70598   5
  -7   5   4 123.664 5.80115   6
   6  -5  -4 21.7427 2.54697   6
   6  -5  -4 20.2243 2.68241   5
   6  -5  -4 16.8462 2.86650   2
   6  -5  -4 17.1027 2.53990   5
   6  -5  -4 21.9570 3.01532   6
   6  -5  -4 25.8181 3.95933   4
  -6   5   4 26.7577 2.78066   6
  -6   5   4 26.4564 2.40987   5
  -6   5   4 23.6228 2.55720   5
  -6   5   4 14.7557 2.94261   3
   5  -5  -4 110.598 5.09435   5
   5  -5  -4 108.883 6.05847   4
   5  -5  -4 110.210 5.44531   5
   5  -5  -4 107.813 4.85274   6
   5  -5  -4 102.533 5.12957   2
   5  -5  -4 117.328 5.73517   6
  -5   5   4 105.698 5.13720   5
  -5   5   4 104.667 5.70554   3
  -5   5   4 106.926 5.28568   6
  -5   5   4 110.509 4.90342   5
   4  -5  -4 3.46851 1.70472   5
   4  -5  -4 2.66240 2.10871   4
   4  -5  -4 1.70716 1.65352   6
   4  -5  -4 -0.3821 1.67805   6
   4  -5  -4 -1.7155 1.77188   5
   4  -5  -4 2.16621 1.74136   2
  -4   5   4 -0.1410 1.94286   3
  -4   5   4 1.19077 1.71260   5
  -4   5   4 -1.4767 1.55956   6
   3  -5  -4 1.33165 1.47501   4
   3  -5  -4 -0.1377 1.45639   6
   3  -5  -4 -1.2754 1.71436   5
   3  -5  -4 -0.0125 1.41547   6
   3  -5  -4 0.66392 1.52402   5
   3  -5  -4 -0.8766 1.54855   2
  -3   5   4 -0.7569 0.59272   1
  -3   5   4 0.32352 1.35212   6
  -3   5   4 0.60766 1.62228   5
  -3   5   4 -0.1001 0.58772   1
  -3   5   4 2.26670 2.00750   3
  -3   5   4 0.11163 1.71421   5
   2  -5  -4 0.14855 1.24914   4
   2  -5  -4 1.95262 1.60808   2
   2  -5  -4 2.71047 1.81045   5
   2  -5  -4 2.63469 1.48149   5
   2  -5  -4 0.08176 1.22663   6
   2  -5  -4 2.47890 1.64900   6
  -2   5   4 2.26054 1.89653   3
  -2   5   4 1.85595 0.89237   1
  -2   5   4 -0.1457 1.47107   5
  -2   5   4 1.05976 1.54282   6
  -2   5   4 1.83219 1.52476   5
   1  -5  -4 74.5319 4.13174   6
   1  -5  -4 70.6745 4.12618   5
   1  -5  -4 68.6327 3.54087   6
   1  -5  -4 67.6748 3.73850   2
   1  -5  -4 73.7709 3.72074   5
   1  -5  -4 68.8185 3.00507   4
  -1   5   4 72.3364 4.01481   5
  -1   5   4 73.6397 3.11887   4
  -1   5   4 65.9739 4.04991   6
  -1   5   4 67.0983 3.92882   3
  -1   5   4 72.6547 3.07994   1
  -1   5   4 68.7239 4.00238   5
   0  -5  -4 239.951 8.00770   5
   0  -5  -4 225.523 7.66237   5
   0  -5  -4 227.837 7.90364   2
   0  -5  -4 227.184 7.58896   6
   0  -5  -4 221.018 6.64409   4
   0  -5  -4 234.005 8.07058   6
   0   5   4 228.465 6.81166   4
   0   5   4 231.203 7.34180   1
   0   5   4 231.751 7.73780   3
   0   5   4 227.338 7.91124   5
   0   5   4 219.621 8.05430   6
   0   5   4 234.077 7.96142   5
  -1  -5  -4 32.8036 2.75489   6
  -1  -5  -4 33.7334 1.40052   4
  -1  -5  -4 33.7192 3.13609   2
  -1  -5  -4 32.2047 2.71069   5
  -1  -5  -4 32.1323 3.09169   6
  -1  -5  -4 37.6000 2.78254   5
   1   5   4 35.2795 2.89830   1
   1   5   4 35.1638 2.94065   3
   1   5   4 34.1021 3.47110   6
   1   5   4 31.6595 3.16208   5
   1   5   4 34.5897 3.30610   5
  -2  -5  -4 21.8483 2.30617   6
  -2  -5  -4 23.3566 2.40608   5
  -2  -5  -4 17.8191 2.42474   2
  -2  -5  -4 23.8822 2.48097   5
  -2  -5  -4 23.1074 2.06965   6
   2   5   4 19.8968 2.39819   5
   2   5   4 29.3464 2.56775   3
   2   5   4 25.9907 2.58874   1
   2   5   4 20.0090 2.37150   5
   2   5   4 24.8130 2.69491   6
  -3  -5  -4 15.4558 1.79407   6
  -3  -5  -4 18.7070 2.15171   5
  -3  -5  -4 19.1712 1.86517   5
  -3  -5  -4 15.4006 2.32140   6
  -3  -5  -4 18.1708 2.72401   2
   3   5   4 16.0251 2.32112   5
   3   5   4 22.2778 2.62814   5
   3   5   4 15.8695 2.26375   6
   3   5   4 23.0438 2.45721   3
   3   5   4 15.3516 3.26646   1
  -4  -5  -4 5.67181 1.42989   5
  -4  -5  -4 6.51653 2.51116   2
  -4  -5  -4 5.89106 1.36423   6
  -4  -5  -4 6.18216 1.99736   6
  -4  -5  -4 7.90787 1.61791   5
   4   5   4 7.02130 2.81486   1
   4   5   4 4.38238 2.14491   3
   4   5   4 4.72597 2.21491   5
   4   5   4 7.73153 2.26860   6
   4   5   4 4.75428 2.44963   5
  -5  -5  -4 5.84235 1.44167   6
  -5  -5  -4 7.02820 3.07882   2
  -5  -5  -4 6.91324 1.85441   6
   5   5   4 7.65603 2.55584   3
   5   5   4 4.51737 3.45072   1
   5   5   4 9.65063 2.56479   5
   5   5   4 7.89374 2.75147   6
   5   5   4 5.58189 2.42530   5
   5   5   4 8.33236 4.50289   1
  -6  -5  -4 80.1935 6.11247   2
   6   5   4 88.0460 5.42499   3
   6   5   4 87.5175 7.31023   6
   6   5   4 72.4121 5.55051   5
   6   5   4 90.8904 8.01967   1
   6   5   4 81.0730 5.70659   5
  -7  -5  -4 46.0491 5.14103   2
   7   5   4 62.1942 5.13640   3
   7   5   4 30.5660 8.92559   1
   8  -6  -4 48.1950 4.57415   5
   8  -6  -4 51.6182 5.37306   2
  -8   6   4 56.3142 5.70521   6
  -8   6   4 39.5528 5.31870   3
   7  -6  -4 5.69207 3.47325   5
   7  -6  -4 2.48902 2.79013   5
   7  -6  -4 7.74020 2.78566   2
   7  -6  -4 4.19615 3.00692   6
  -7   6   4 6.98655 2.88717   6
  -7   6   4 6.07895 3.45477   3
   6  -6  -4 13.0690 2.65838   2
   6  -6  -4 23.2408 4.40342   4
   6  -6  -4 16.7336 3.18025   5
   6  -6  -4 14.7595 2.47252   6
   6  -6  -4 14.8580 2.73628   5
   6  -6  -4 13.2280 3.49704   6
  -6   6   4 16.9356 2.74730   5
  -6   6   4 14.0410 2.92214   6
  -6   6   4 13.5321 2.79270   5
  -6   6   4 14.2791 3.18919   3
   5  -6  -4 19.8563 2.65825   2
   5  -6  -4 16.6151 2.92808   6
   5  -6  -4 20.5315 3.44795   4
   5  -6  -4 17.8211 2.66344   5
   5  -6  -4 25.8792 3.29707   5
   5  -6  -4 8.91259 3.05405   6
  -5   6   4 16.7901 3.48790   6
  -5   6   4 17.7377 2.99911   5
  -5   6   4 19.6692 3.44643   3
  -5   6   4 24.7429 2.75384   5
   4  -6  -4 68.1121 4.34969   6
   4  -6  -4 67.4490 4.41575   5
   4  -6  -4 68.8641 4.73119   4
   4  -6  -4 69.4487 5.14680   6
   4  -6  -4 62.6695 5.05591   5
   4  -6  -4 63.9440 4.05357   2
  -4   6   4 73.2275 5.03858   5
  -4   6   4 64.9588 4.49911   5
  -4   6   4 70.5048 4.74964   6
  -4   6   4 66.9128 4.85502   3
   3  -6  -4 10.9814 2.02322   6
   3  -6  -4 13.5649 2.34564   2
   3  -6  -4 10.4080 2.13204   5
   3  -6  -4 8.58764 1.96820   4
   3  -6  -4 7.16462 2.24645   5
   3  -6  -4 8.64548 2.13230   6
  -3   6   4 11.3336 2.27787   5
  -3   6   4 14.7273 2.79496   5
  -3   6   4 10.9384 0.98522   1
  -3   6   4 9.99765 2.26608   6
  -3   6   4 13.2507 1.24442   1
  -3   6   4 13.1099 2.72435   3
   2  -6  -4 202.454 6.80354   4
   2  -6  -4 197.773 7.34138   2
   2  -6  -4 201.606 7.78215   6
   2  -6  -4 203.371 7.21088   6
   2  -6  -4 194.856 7.71240   5
   2  -6  -4 197.971 7.37211   5
  -2   6   4 193.285 6.19773   1
  -2   6   4 200.049 6.86812   4
  -2   6   4 204.569 7.64067   5
  -2   6   4 199.457 7.84414   6
  -2   6   4 200.848 6.20512   1
  -2   6   4 187.722 7.52253   3
  -2   6   4 205.550 7.71422   5
   1  -6  -4 7.08015 2.31005   5
   1  -6  -4 7.21794 2.02983   2
   1  -6  -4 7.57382 2.34228   6
   1  -6  -4 5.86029 1.38439   4
   1  -6  -4 7.83642 1.85790   6
   1  -6  -4 4.05066 1.70365   5
  -1   6   4 6.62224 2.26315   5
  -1   6   4 7.02093 1.45168   1
  -1   6   4 6.77158 2.05431   5
  -1   6   4 7.10241 2.33648   3
  -1   6   4 5.90854 1.42623   1
  -1   6   4 5.26307 1.42657   4
  -1   6   4 4.18192 2.22115   6
   0  -6  -4 81.4474 4.26453   6
   0  -6  -4 86.3237 4.47221   5
   0  -6  -4 80.3827 3.07508   4
   0  -6  -4 87.7295 4.93766   6
   0  -6  -4 83.5603 4.95446   5
   0  -6  -4 74.7510 4.45447   2
   0   6   4 80.4539 3.38410   4
   0   6   4 84.7699 4.52463   3
   0   6   4 82.4136 3.98219   1
   0   6   4 75.2117 4.78481   5
   0   6   4 84.1990 5.03321   6
   0   6   4 80.9214 4.97859   5
  -1  -6  -4 123.230 5.70562   6
  -1  -6  -4 125.447 5.84551   5
  -1  -6  -4 106.801 5.46596   2
  -1  -6  -4 114.986 5.09663   5
  -1  -6  -4 113.210 5.06818   6
  -1  -6  -4 120.473 3.66136   4
   1   6   4 114.172 5.73109   5
   1   6   4 112.200 5.16788   3
   1   6   4 120.956 6.04289   6
   1   6   4 118.493 5.21090   1
   1   6   4 118.642 3.98999   4
   1   6   4 122.244 5.83864   5
  -2  -6  -4 14.5781 1.94307   5
  -2  -6  -4 17.6567 2.14634   6
  -2  -6  -4 18.6843 2.53250   6
  -2  -6  -4 20.5010 2.68042   5
  -2  -6  -4 15.8222 2.61248   2
   2   6   4 20.6046 2.64728   1
   2   6   4 20.1759 2.63962   3
   2   6   4 14.6764 2.42979   5
   2   6   4 15.6963 2.64881   6
   2   6   4 20.2720 2.83625   1
   2   6   4 18.4143 2.59385   5
  -3  -6  -4 8.12872 2.51218   6
  -3  -6  -4 5.93504 1.78753   5
  -3  -6  -4 4.83540 2.46389   2
  -3  -6  -4 5.90291 2.30688   5
  -3  -6  -4 3.38763 1.65689   6
   3   6   4 7.42473 2.28331   6
   3   6   4 1.92333 2.20636   5
   3   6   4 3.49402 3.12594   1
   3   6   4 6.43427 2.39413   5
   3   6   4 3.33564 2.65981   1
   3   6   4 5.97936 2.49350   3
  -4  -6  -4 0.56985 2.48256   2
  -4  -6  -4 1.89282 2.00900   5
  -4  -6  -4 2.39215 2.21668   6
  -4  -6  -4 0.86573 1.71409   5
  -4  -6  -4 -0.5510 1.56851   6
   4   6   4 1.33022 2.53175   5
   4   6   4 1.87476 2.59741   5
   4   6   4 3.55612 3.75609   1
   4   6   4 0.47057 3.06457   1
   4   6   4 1.62868 2.52841   3
   4   6   4 4.84752 2.68912   6
  -5  -6  -4 11.4480 3.45407   2
  -5  -6  -4 15.3879 1.97271   6
  -5  -6  -4 17.9326 2.49554   6
   5   6   4 21.3085 3.23129   3
   5   6   4 20.3356 4.17693   6
   5   6   4 16.2745 3.30842   5
   5   6   4 17.3511 3.34394   5
   5   6   4 17.4932 4.53297   1
  -6  -6  -4 22.9934 4.85021   2
   6   6   4 38.2091 4.24405   3
   6   6   4 28.8457 4.07073   5
   6   6   4 39.2686 6.03757   1
   8  -7  -4 16.0839 3.68272   2
   8  -7  -4 14.3535 4.26725   5
  -8   7   4 16.4695 6.48701   6
  -8   7   4 11.7599 4.40415   3
   7  -7  -4 31.6491 3.81600   2
   7  -7  -4 35.8934 4.26938   5
  -7   7   4 32.3774 4.82043   3
  -7   7   4 36.0013 4.05906   5
  -7   7   4 42.1409 4.55523   6
   6  -7  -4 79.8368 6.09217   5
   6  -7  -4 97.9129 6.13997   6
   6  -7  -4 71.3927 4.98902   2
   6  -7  -4 71.5817 7.46567   6
   6  -7  -4 73.3300 6.21025   4
   6  -7  -4 78.5782 7.31841   5
  -6   7   4 91.5782 6.53927   6
  -6   7   4 73.9143 5.89976   5
  -6   7   4 68.8440 5.79229   3
   5  -7  -4 22.0979 3.06811   6
   5  -7  -4 18.6559 3.54573   6
   5  -7  -4 29.1807 4.17884   4
   5  -7  -4 19.0993 2.98552   5
   5  -7  -4 17.1141 3.61548   5
   5  -7  -4 22.8843 3.13487   2
  -5   7   4 18.5756 3.64558   5
  -5   7   4 28.0607 3.73746   6
  -5   7   4 20.7002 3.04085   5
  -5   7   4 18.1726 3.50655   3
   4  -7  -4 168.219 8.19997   6
   4  -7  -4 171.051 7.42100   5
   4  -7  -4 160.374 6.87205   2
   4  -7  -4 174.298 7.43058   4
   4  -7  -4 171.309 7.18456   6
   4  -7  -4 170.973 7.80466   5
  -4   7   4 176.532 8.12533   5
  -4   7   4 156.170 7.49731   3
  -4   7   4 166.973 8.32219   5
  -4   7   4 170.891 7.91881   6
   3  -7  -4 1.35743 1.86928   2
   3  -7  -4 -2.3077 2.67569   5
   3  -7  -4 2.77292 2.10594   6
   3  -7  -4 2.39519 2.10013   4
   3  -7  -4 -0.3960 2.76554   6
   3  -7  -4 0.32842 2.17154   5
  -3   7   4 0.43853 0.88138   1
  -3   7   4 -0.4804 2.60628   5
  -3   7   4 -1.7358 2.12735   6
  -3   7   4 0.72875 0.95311   1
  -3   7   4 -2.8618 2.17326   3
  -3   7   4 3.34471 2.83146   5
   2  -7  -4 2.94431 2.07236   2
   2  -7  -4 -0.4692 2.09270   6
   2  -7  -4 -3.1102 2.77306   5
   2  -7  -4 2.04620 1.84086   6
   2  -7  -4 2.93279 2.28695   5
   2  -7  -4 -0.4030 1.99438   4
  -2   7   4 2.76512 2.46656   3
  -2   7   4 -0.3539 1.67497   4
  -2   7   4 1.45470 2.85751   5
  -2   7   4 -0.3633 2.40113   5
  -2   7   4 -0.5100 1.34007   1
  -2   7   4 -0.9594 1.30709   1
  -2   7   4 3.35279 2.34163   6
   1  -7  -4 10.9037 2.42587   5
   1  -7  -4 14.2531 2.86777   5
   1  -7  -4 14.2398 1.71880   4
   1  -7  -4 19.3222 3.15035   6
   1  -7  -4 10.1252 2.26911   6
   1  -7  -4 13.7169 2.67849   2
  -1   7   4 14.9828 1.96066   1
  -1   7   4 18.7496 3.11215   5
  -1   7   4 13.9377 1.98339   4
  -1   7   4 16.4596 3.42901   5
  -1   7   4 14.8942 3.04241   6
  -1   7   4 17.6791 1.99174   1
  -1   7   4 13.8897 2.74424   3
   0  -7  -4 21.5567 3.08158   5
   0  -7  -4 20.2542 1.60541   4
   0  -7  -4 18.0527 2.54818   6
   0  -7  -4 20.6820 3.14696   6
   0  -7  -4 20.8931 2.93778   2
   0  -7  -4 14.0188 2.38064   5
   0   7   4 18.8290 2.41199   1
   0   7   4 17.1062 3.02512   5
   0   7   4 23.7992 3.54255   6
   0   7   4 23.4377 3.40404   5
   0   7   4 22.3928 2.46081   1
   0   7   4 19.3517 2.89292   3
   0   7   4 22.6742 2.55301   4
  -1  -7  -4 111.129 5.51567   5
  -1  -7  -4 112.123 6.02142   6
  -1  -7  -4 105.960 5.65478   2
  -1  -7  -4 97.9411 6.38367   5
  -1  -7  -4 107.389 5.40794   6
  -1  -7  -4 110.903 3.70866   4
   1   7   4 114.386 5.84584   1
   1   7   4 109.595 6.31124   5
   1   7   4 111.690 6.56447   6
   1   7   4 114.221 5.48033   1
   1   7   4 115.346 6.37047   5
   1   7   4 115.540 4.19842   4
   1   7   4 104.523 5.43139   3
  -2  -7  -4 14.2427 3.04289   5
  -2  -7  -4 17.8034 2.45716   5
  -2  -7  -4 11.7117 2.80784   2
  -2  -7  -4 16.3095 1.58597   4
  -2  -7  -4 15.7433 2.48575   6
   2   7   4 14.5497 3.18127   5
   2   7   4 12.9868 3.48569   6
   2   7   4 14.7643 2.81794   5
   2   7   4 20.7910 3.53456   1
   2   7   4 15.4829 3.04210   1
   2   7   4 16.3963 1.37311   4
   2   7   4 16.9028 2.82223   3
  -3  -7  -4 2.64080 2.05911   6
  -3  -7  -4 0.63404 2.80808   5
  -3  -7  -4 -0.1253 2.37106   2
  -3  -7  -4 1.75525 2.07490   5
  -3  -7  -4 2.06087 2.84481   6
   3   7   4 -0.2637 2.95288   5
   3   7   4 2.35963 2.55254   3
   3   7   4 1.47949 3.15028   1
   3   7   4 7.82306 3.92443   1
   3   7   4 5.11108 3.08174   6
   3   7   4 7.97451 3.18423   5
  -4  -7  -4 6.78343 2.90854   6
  -4  -7  -4 7.86978 2.19236   6
  -4  -7  -4 5.67086 3.13733   2
  -4  -7  -4 5.19377 2.26578   5
   4   7   4 9.31979 3.78995   5
   4   7   4 -0.6364 4.04663   1
   4   7   4 4.99733 3.50537   5
   4   7   4 6.70505 3.03125   3
   4   7   4 4.86574 4.24528   6
  -5  -7  -4 8.25746 3.58258   2
  -5  -7  -4 12.6398 2.99851   6
  -5  -7  -4 10.4868 2.29237   6
   5   7   4 10.9500 3.43454   3
   5   7   4 13.5299 5.48952   1
   5   7   4 -0.6482 3.90872   5
   7  -8  -4 65.8480 5.70962   2
   7  -8  -4 61.0304 5.71139   5
  -7   8   4 64.9193 5.88938   6
  -7   8   4 44.7090 5.53281   3
   6  -8  -4 7.29096 3.10117   2
   6  -8  -4 5.05484 3.95587   5
   6  -8  -4 -3.6730 3.60174   6
   6  -8  -4 5.59861 6.19151   5
  -6   8   4 0.88036 3.38651   3
  -6   8   4 10.3845 4.29979   5
  -6   8   4 8.72438 4.40940   6
   5  -8  -4 11.7013 3.50862   6
   5  -8  -4 9.84190 3.71073   6
   5  -8  -4 10.9161 4.70111   5
   5  -8  -4 10.6404 4.28755   4
   5  -8  -4 12.1255 2.98752   2
   5  -8  -4 19.5858 3.92959   5
  -5   8   4 11.6079 3.61274   5
  -5   8   4 11.7686 3.84773   3
  -5   8   4 14.2592 4.14755   6
   4  -8  -4 15.4197 3.37273   5
   4  -8  -4 11.8175 4.13939   5
   4  -8  -4 15.0560 3.00405   6
   4  -8  -4 22.4741 3.57624   4
   4  -8  -4 14.3796 2.89033   2
   4  -8  -4 17.1451 4.29587   6
  -4   8   4 14.5507 4.36035   5
  -4   8   4 22.1632 4.37937   6
  -4   8   4 15.4159 3.73336   5
  -4   8   4 12.2546 3.44917   3
   3  -8  -4 84.4609 5.73835   6
   3  -8  -4 82.2340 6.56096   6
   3  -8  -4 80.6577 5.19694   2
   3  -8  -4 82.6803 6.19110   5
   3  -8  -4 84.2548 5.43870   4
  -3   8   4 86.0083 3.28743   1
  -3   8   4 84.1542 6.67881   5
  -3   8   4 74.3139 5.58577   3
  -3   8   4 86.6335 5.67664   4
  -3   8   4 84.5942 3.36258   1
  -3   8   4 82.0540 7.92466   5
  -3   8   4 85.8685 6.90356   6
   2  -8  -4 3.75144 3.47314   5
   2  -8  -4 6.05100 2.17220   4
   2  -8  -4 7.19783 2.60646   6
   2  -8  -4 4.98399 3.09531   6
   2  -8  -4 6.75680 2.80773   5
   2  -8  -4 4.22111 2.46503   2
  -2   8   4 2.94559 1.83158   1
  -2   8   4 3.07714 1.76164   1
  -2   8   4 4.70000 3.35173   5
  -2   8   4 3.62301 3.64070   5
  -2   8   4 10.3111 2.49855   4
  -2   8   4 10.1336 3.49519   6
  -2   8   4 5.45447 2.74558   3
   1  -8  -4 114.490 6.02086   2
   1  -8  -4 118.339 6.38175   6
   1  -8  -4 124.934 8.07467   5
   1  -8  -4 130.205 7.39669   6
   1  -8  -4 105.918 5.55295   4
   1  -8  -4 121.127 6.84284   5
  -1   8   4 127.272 7.45887   5
  -1   8   4 122.984 5.53048   1
  -1   8   4 99.2496 10.5017   5
  -1   8   4 125.171 7.53997   6
  -1   8   4 127.264 5.62994   4
  -1   8   4 117.793 6.47265   3
  -1   8   4 120.793 5.50359   1
   0  -8  -4 -1.9497 2.53325   5
   0  -8  -4 3.35752 1.46414   4
   0  -8  -4 2.98551 3.22988   6
   0  -8  -4 1.59167 3.40600   5
   0  -8  -4 1.34999 2.44818   2
   0  -8  -4 0.61008 2.55158   6
   0   8   4 0.67613 1.89558   4
   0   8   4 2.45228 3.31438   5
   0   8   4 3.48096 2.45555   1
   0   8   4 6.70094 3.41992   6
   0   8   4 2.11037 3.60723   5
   0   8   4 -0.9066 2.36842   3
   0   8   4 4.20747 2.60814   1
  -1  -8  -4 37.0922 4.22842   6
  -1  -8  -4 33.3350 3.73511   5
  -1  -8  -4 37.8473 3.62311   6
  -1  -8  -4 32.4268 2.51048   4
  -1  -8  -4 30.2183 3.52208   2
  -1  -8  -4 31.3518 4.16229   5
   1   8   4 33.9746 3.88424   3
   1   8   4 33.8117 3.81771   1
   1   8   4 47.4708 4.99607   6
   1   8   4 37.7256 5.53309   5
   1   8   4 38.2874 3.20285   4
   1   8   4 36.3723 4.40864   5
  -2  -8  -4 50.5573 4.91384   5
  -2  -8  -4 47.2877 2.49305   4
  -2  -8  -4 47.4931 5.20761   6
  -2  -8  -4 48.2741 5.00596   2
   2   8   4 47.3738 4.95094   6
   2   8   4 47.3444 5.21547   5
   2   8   4 50.0751 2.91993   4
   2   8   4 45.2254 4.21086   3
   2   8   4 50.8209 4.88211   5
   2   8   4 48.8696 4.85216   1
   2   8   4 49.1697 4.49654   1
  -3  -8  -4 5.25038 2.86939   2
  -3  -8  -4 3.27422 3.06767   5
  -3  -8  -4 6.18836 2.82791   6
  -3  -8  -4 8.97683 3.60698   6
   3   8   4 8.68883 3.07780   3
   3   8   4 8.43300 4.38940   6
   3   8   4 4.68726 4.63663   5
   3   8   4 2.87365 3.99610   5
   3   8   4 12.0738 4.15329   1
  -4  -8  -4 8.99611 3.60601   2
  -4  -8  -4 3.31458 2.75212   6
   4   8   4 0.05643 4.85267   1
   4   8   4 1.21410 2.98520   3
   4   8   4 0.38551 4.57308   5
   6  -9  -4 35.0967 6.05650   5
   6  -9  -4 31.6781 4.04955   2
  -6   9   4 36.9439 6.09816   6
  -6   9   4 21.3454 4.82184   3
   5  -9  -4 40.0161 4.30971   2
   5  -9  -4 38.2231 4.74928   6
   5  -9  -4 40.6394 5.20708   5
  -5   9   4 27.0007 4.67920   3
  -5   9   4 44.7374 5.73195   6
   4  -9  -4 12.7485 5.93163   5
   4  -9  -4 10.3304 4.02097   4
   4  -9  -4 13.0074 3.76082   6
   4  -9  -4 11.7187 8.06974   6
   4  -9  -4 11.3405 4.07258   5
   4  -9  -4 10.2080 3.03996   2
  -4   9   4 4.15747 4.40668   6
  -4   9   4 12.5226 3.90299   3
  -4   9   4 7.11764 4.14094   5
  -4   9   4 15.7334 8.18781   5
   3  -9  -4 141.409 8.74539   5
   3  -9  -4 167.184 10.4680   6
   3  -9  -4 145.073 7.10895   2
   3  -9  -4 149.434 7.55050   4
   3  -9  -4 158.555 8.16761   6
   3  -9  -4 153.694 10.6612   5
  -3   9   4 154.166 8.10665   4
  -3   9   4 158.948 9.32059   5
  -3   9   4 159.750 5.22642   1
  -3   9   4 152.301 5.16710   1
  -3   9   4 161.060 9.85673   6
  -3   9   4 137.008 10.6035   5
  -3   9   4 138.503 7.82936   3
   2  -9  -4 -3.0364 3.27968   6
   2  -9  -4 0.95182 2.58999   4
   2  -9  -4 1.91169 4.50190   6
   2  -9  -4 -0.0054 2.41926   2
   2  -9  -4 5.21429 5.04708   5
   2  -9  -4 3.96203 3.39766   5
  -2   9   4 7.17184 5.23718   5
  -2   9   4 -1.7832 2.12394   1
  -2   9   4 -1.0349 3.89627   6
  -2   9   4 -1.9633 2.15047   1
  -2   9   4 -1.3203 2.85367   3
  -2   9   4 1.77655 3.07441   4
  -2   9   4 -0.9547 3.96050   5
   1  -9  -4 3.88719 2.77292   2
   1  -9  -4 7.17053 4.55138   6
   1  -9  -4 1.83836 3.49356   6
   1  -9  -4 2.77267 2.13696   4
   1  -9  -4 -10.513 4.51143   5
   1  -9  -4 -2.2617 3.39690   5
  -1   9   4 1.29184 2.92653   3
  -1   9   4 -4.2659 2.58500   1
  -1   9   4 0.48310 2.65275   1
  -1   9   4 -2.1838 3.72673   6
  -1   9   4 -1.9100 4.18027   5
  -1   9   4 0.29208 4.62149   5
  -1   9   4 -2.8359 2.72437   4
   0  -9  -4 26.7420 5.55141   5
   0  -9  -4 20.0313 3.81467   5
   0  -9  -4 19.4255 3.63026   6
   0  -9  -4 19.9121 2.74270   4
   0  -9  -4 12.6313 4.55346   6
   0  -9  -4 12.2324 3.20522   2
   0   9   4 16.6628 4.70123   6
   0   9   4 16.9703 5.51484   5
   0   9   4 18.7167 3.64874   1
   0   9   4 24.4394 5.57472   1
   0   9   4 17.2016 3.41246   3
   0   9   4 19.4526 2.99968   4
  -1  -9  -4 3.97705 3.46573   6
  -1  -9  -4 3.21258 3.11373   2
  -1  -9  -4 -4.1352 3.44261   5
  -1  -9  -4 2.69174 4.21205   6
  -1  -9  -4 8.37849 1.83665   4
   1   9   4 3.15758 4.69986   5
   1   9   4 13.8694 5.92305   5
   1   9   4 14.8161 4.31096   1
   1   9   4 3.99881 2.31058   4
   1   9   4 8.84020 3.42698   3
   1   9   4 3.98294 4.40454   6
   1   9   4 4.28348 3.95208   1
  -2  -9  -4 45.8088 4.61786   6
  -2  -9  -4 33.4399 6.34273   2
   2   9   4 39.6554 4.37213   3
   2   9   4 40.4823 3.82677   4
   2   9   4 42.9937 5.72251   5
   2   9   4 30.6336 5.22354   1
  -3  -9  -4 3.82531 3.50036   6
  -3  -9  -4 4.67131 3.25356   2
   3   9   4 -2.8486 5.52319   1
   3   9   4 13.8928 5.72221   5
   3   9   4 4.38117 3.59102   3
   4 -10  -4 7.43126 5.03546   6
   4 -10  -4 5.38589 5.21953   5
   4 -10  -4 4.36627 3.27852   2
   4 -10  -4 12.6159 7.47439   6
  -4  10   4 3.74718 3.87062   3
  -4  10   4 12.4449 6.45118   6
   3 -10  -4 7.25851 3.40209   2
   3 -10  -4 2.86872 4.96245   6
   3 -10  -4 2.97239 7.56885   5
   3 -10  -4 6.40068 4.30220   4
   3 -10  -4 7.92787 6.77277   6
   3 -10  -4 3.27150 5.18820   5
  -3  10   4 7.38467 4.82703   4
  -3  10   4 10.1048 5.33666   5
  -3  10   4 9.74007 5.60275   6
  -3  10   4 6.26561 4.29062   3
   2 -10  -4 64.0469 5.95070   6
   2 -10  -4 78.6641 6.74917   4
   2 -10  -4 62.4202 5.62625   2
   2 -10  -4 51.5317 5.80205   5
   2 -10  -4 50.8228 7.64725   5
   2 -10  -4 93.2726 8.50001   6
  -2  10   4 64.4733 7.12341   6
  -2  10   4 64.6320 9.56021   5
  -2  10   4 60.9512 7.25117   5
  -2  10   4 61.9540 6.40742   3
  -2  10   4 67.2488 5.36632   4
  -2  10   4 69.2844 5.40358   1
   1 -10  -4 3.90074 4.63768   5
   1 -10  -4 3.91594 3.09306   4
   1 -10  -4 -0.2936 4.37439   6
   1 -10  -4 -0.2273 2.88156   2
  -1  10   4 6.35212 5.93300   5
  -1  10   4 4.48840 3.74465   3
  -1  10   4 11.0368 3.65718   4
  -1  10   4 5.55936 5.48430   6
  -1  10   4 -1.4461 3.58816   1
  -1  10   4 7.85975 3.96234   1
  -1  10   4 9.96304 8.34620   5
   0 -10  -4 49.7749 5.62804   6
   0  10   4 49.3757 6.85837   5
   0  10   4 69.5175 6.01921   4
   0  10   4 41.7601 4.89336   3
   0  10   4 69.8445 5.89417   1
   0  10   4 60.6729 5.25307   1
   0  10   4 53.6009 7.14913   6
  -1 -10  -4 1.79673 4.33578   6
  -1 -10  -4 7.60235 3.36908   2
   1  10   4 -1.2309 3.30426   3
   1  10   4 1.97848 6.46055   5
   1  10   4 9.82206 5.18296   1
   2  10  -5 31.2722 6.98912   5
   2  10  -5 37.3186 5.62606   4
   2  10  -5 32.9179 4.72217   3
  -2 -10   5 46.6189 5.16348   2
   1  10  -5 2.26890 3.63430   3
   1  10  -5 -14.070 6.99323   6
   1  10  -5 -6.8096 5.70030   5
   1  10  -5 2.82727 4.73751   4
  -1 -10   5 7.38585 4.86823   1
  -1 -10   5 -0.5753 3.46809   2
   0  10  -5 112.948 8.81071   4
   0  10  -5 100.136 10.4308   6
   0  10  -5 84.6655 7.45952   5
   0  10  -5 69.8834 7.05351   3
   0  10  -5 87.0517 8.98094   5
   0 -10   5 99.4936 8.28751   1
   0 -10   5 85.3027 6.60235   2
   0 -10   5 105.821 9.89888   5
  -1  10  -5 20.9857 4.95674   4
  -1  10  -5 9.52983 7.71944   5
  -1  10  -5 14.5237 5.68675   5
  -1  10  -5 24.9636 5.22127   1
   1 -10   5 25.5806 7.00564   5
   1 -10   5 20.4717 4.24153   1
   1 -10   5 20.4194 5.14106   5
   1 -10   5 18.0714 5.79838   6
   1 -10   5 26.7568 3.86079   2
  -2  10  -5 4.80649 6.62573   5
  -2  10  -5 3.24546 5.09131   4
  -2  10  -5 -5.0219 4.27198   1
  -2  10  -5 0.69644 5.40195   5
  -2  10  -5 -0.4685 5.68584   6
   2 -10   5 0.80669 6.91168   5
   2 -10   5 1.99408 6.25776   6
   2 -10   5 2.02971 5.42340   5
   2 -10   5 -3.0554 3.23853   2
   2 -10   5 5.57817 3.80229   1
  -3  10  -5 19.4726 4.84003   3
  -3  10  -5 22.1790 6.54164   6
  -3  10  -5 17.7445 5.92147   4
  -3  10  -5 24.9582 5.09880   1
   3 -10   5 14.6999 5.64660   5
   3 -10   5 31.8831 7.33070   6
   3 -10   5 19.3822 3.85679   1
  -4  10  -5 53.4591 5.80140   3
  -4  10  -5 74.5511 8.43074   6
   4 -10   5 52.7803 6.98288   5
   4 -10   5 78.5228 6.98693   1
   4   9  -5 10.6681 5.70459   5
   4   9  -5 12.7346 4.96713   4
   4   9  -5 4.49765 3.46976   3
  -4  -9   5 0.37701 3.54960   2
   3   9  -5 13.3379 4.52458   4
   3   9  -5 18.5181 5.04431   5
   3   9  -5 11.5124 3.53638   3
  -3  -9   5 11.7536 3.71795   2
   2   9  -5 26.2025 4.29306   4
   2   9  -5 30.3271 5.41827   5
   2   9  -5 30.8974 6.23289   5
   2   9  -5 34.9529 5.25248   6
   2   9  -5 30.5323 3.96360   3
  -2  -9   5 23.0648 5.06800   5
  -2  -9   5 30.0782 4.47231   1
  -2  -9   5 29.4762 4.43825   6
  -2  -9   5 28.9903 4.15941   2
   1   9  -5 10.0428 5.14289   5
   1   9  -5 3.62608 4.33694   1
   1   9  -5 -0.1927 4.22468   5
   1   9  -5 -2.8202 4.33529   6
   1   9  -5 -2.9190 2.51450   3
   1   9  -5 2.25214 3.53218   4
  -1  -9   5 5.85866 3.53499   6
  -1  -9   5 -2.3211 3.38800   1
  -1  -9   5 4.36927 5.15401   5
  -1  -9   5 -0.0798 2.78522   2
  -1  -9   5 -3.7607 3.86249   5
   0   9  -5 1.09401 3.89255   6
   0   9  -5 1.95754 3.01108   3
   0   9  -5 4.14062 3.53736   1
   0   9  -5 3.16048 3.66253   4
   0   9  -5 4.19864 4.31258   5
   0   9  -5 1.74551 4.55215   5
   0  -9   5 3.73284 4.74105   5
   0  -9   5 3.63921 4.06421   5
   0  -9   5 4.52800 3.26172   1
   0  -9   5 2.22183 3.53205   6
   0  -9   5 4.73617 2.87485   2
  -1   9  -5 201.196 8.86970   1
  -1   9  -5 216.900 10.6882   5
  -1   9  -5 206.382 10.9480   5
  -1   9  -5 216.430 9.67827   4
  -1   9  -5 207.204 10.6477   6
  -1   9  -5 202.991 8.85057   3
   1  -9   5 209.987 9.72975   6
   1  -9   5 210.162 8.66873   1
   1  -9   5 191.678 8.04760   2
   1  -9   5 193.970 10.6264   5
   1  -9   5 200.087 10.1893   5
  -2   9  -5 65.6362 6.16771   5
  -2   9  -5 75.6482 8.02073   5
  -2   9  -5 58.8554 5.53374   3
  -2   9  -5 58.2607 5.17268   4
  -2   9  -5 72.4223 6.01710   1
   2  -9   5 82.6855 8.80943   5
   2  -9   5 64.4164 6.32965   5
   2  -9   5 73.1238 7.46358   6
   2  -9   5 65.1380 4.77054   2
  -3   9  -5 30.9485 5.62681   5
  -3   9  -5 40.4216 5.61619   6
  -3   9  -5 37.2961 3.97301   1
  -3   9  -5 36.8770 4.67612   3
  -3   9  -5 33.2318 4.88093   4
  -3   9  -5 33.8788 5.44748   5
   3  -9   5 36.9713 3.69040   1
   3  -9   5 16.4687 8.46849   5
   3  -9   5 39.3703 5.72381   6
   3  -9   5 38.3810 6.04531   5
  -4   9  -5 55.9487 6.10624   4
  -4   9  -5 68.1131 6.54643   6
  -4   9  -5 62.9405 4.48169   1
  -4   9  -5 56.3581 5.82470   3
   4  -9   5 54.9842 5.19164   1
   4  -9   5 65.6423 7.06580   6
   4  -9   5 54.5006 5.89407   5
  -5   9  -5 28.5189 5.82432   4
  -5   9  -5 65.7397 6.84202   6
  -5   9  -5 35.9747 5.02700   3
   5  -9   5 40.0778 6.20544   5
   5  -9   5 44.6611 3.86542   1
   5   8  -5 0.42251 4.61091   5
   5   8  -5 1.64286 4.30830   4
   5   8  -5 1.14886 3.24831   3
  -5  -8   5 0.32968 3.53666   6
  -5  -8   5 4.41902 3.38615   2
   4   8  -5 4.47131 3.04810   3
   4   8  -5 7.80949 4.52045   5
   4   8  -5 2.48620 3.58948   4
  -4  -8   5 5.69506 3.52807   5
  -4  -8   5 4.54820 3.39098   2
  -4  -8   5 3.91089 3.03799   6
   3   8  -5 24.3216 4.54144   5
   3   8  -5 21.0002 3.44785   4
   3   8  -5 27.1429 4.66577   5
   3   8  -5 20.5045 3.44476   3
   3   8  -5 18.7872 3.71107   6
  -3  -8   5 27.4364 3.42250   6
  -3  -8   5 21.3724 3.51022   2
  -3  -8   5 18.0551 3.66907   5
  -3  -8   5 31.0067 4.34292   1
  -3  -8   5 25.2368 3.90928   4
   2   8  -5 1.14140 3.76595   1
   2   8  -5 1.87761 2.37469   3
   2   8  -5 3.58076 3.61693   5
   2   8  -5 8.23910 3.61940   6
   2   8  -5 -3.9397 2.73649   4
   2   8  -5 0.64620 3.75137   5
  -2  -8   5 0.77056 2.54854   6
  -2  -8   5 0.28089 2.80511   5
  -2  -8   5 4.09280 3.34396   1
  -2  -8   5 1.44725 2.76059   2
  -2  -8   5 5.39925 2.91818   4
  -2  -8   5 -0.5253 3.26736   5
   1   8  -5 80.3952 5.75891   4
   1   8  -5 84.9129 7.03038   5
   1   8  -5 86.1088 6.97654   5
   1   8  -5 94.5391 6.95953   6
   1   8  -5 92.4597 6.36577   1
   1   8  -5 79.2038 5.07807   3
  -1  -8   5 84.5145 6.77047   5
  -1  -8   5 94.5727 5.80646   1
  -1  -8   5 72.3544 5.18788   2
  -1  -8   5 85.7775 5.51053   4
  -1  -8   5 90.9869 5.92033   6
  -1  -8   5 87.3578 6.48296   5
   0   8  -5 -0.0381 2.62503   1
   0   8  -5 0.04813 3.36739   5
   0   8  -5 0.08411 2.67865   4
   0   8  -5 3.95103 3.42082   6
   0   8  -5 3.05945 3.47795   5
   0   8  -5 1.50404 2.63781   3
   0  -8   5 3.05279 2.57769   6
   0  -8   5 2.09223 2.34574   2
   0  -8   5 3.37505 3.39157   5
   0  -8   5 1.94015 2.66471   4
   0  -8   5 4.03109 2.76419   5
   0  -8   5 5.10807 3.13010   1
  -1   8  -5 115.707 6.68753   4
  -1   8  -5 115.409 6.24019   3
  -1   8  -5 136.402 7.93033   6
  -1   8  -5 126.178 7.82875   5
  -1   8  -5 128.926 7.76001   5
  -1   8  -5 131.646 6.44639   1
   1  -8   5 133.978 6.95166   6
   1  -8   5 122.719 7.34494   5
   1  -8   5 118.299 7.46556   5
   1  -8   5 134.008 6.59624   4
   1  -8   5 124.341 6.04069   1
   1  -8   5 126.091 5.62256   2
  -2   8  -5 56.3985 5.46820   4
  -2   8  -5 49.8502 4.74160   3
  -2   8  -5 47.1255 4.59048   6
  -2   8  -5 49.8131 4.77559   5
  -2   8  -5 58.1453 5.22656   5
  -2   8  -5 51.3847 4.77909   1
   2  -8   5 50.7439 4.50727   1
   2  -8   5 42.6314 4.52004   5
   2  -8   5 48.0799 4.06671   2
   2  -8   5 51.1421 5.65331   6
   2  -8   5 52.9545 4.17283   4
   2  -8   5 61.1616 5.18366   5
  -3   8  -5 2.37154 2.47776   1
  -3   8  -5 -5.2336 3.42275   6
  -3   8  -5 -0.7005 3.60772   5
  -3   8  -5 -0.6058 2.72308   3
  -3   8  -5 -4.0794 3.33022   5
  -3   8  -5 -0.2384 3.30622   4
   3  -8   5 -0.3578 2.32247   1
   3  -8   5 -0.8291 3.14882   5
   3  -8   5 -3.9981 3.18552   6
   3  -8   5 6.61881 3.88068   5
   3  -8   5 -4.8739 2.86993   4
  -4   8  -5 36.1272 3.25952   1
  -4   8  -5 32.8416 4.91299   6
  -4   8  -5 20.6669 4.12118   4
  -4   8  -5 32.2557 5.19389   5
  -4   8  -5 26.8248 4.62417   5
  -4   8  -5 30.0359 4.03320   3
   4  -8   5 34.5450 4.78477   5
   4  -8   5 31.5341 4.42376   6
   4  -8   5 41.8412 5.41849   5
   4  -8   5 29.0038 3.09401   1
  -5   8  -5 115.459 8.48604   6
  -5   8  -5 96.4805 6.48878   3
  -5   8  -5 107.314 6.10540   1
  -5   8  -5 97.2458 8.31835   4
  -5   8  -5 97.4173 8.80806   6
  -5   8  -5 87.8596 8.19831   5
   5  -8   5 87.0891 5.40601   1
   5  -8   5 108.694 9.92613   5
   5  -8   5 81.1350 8.04456   5
  -6   8  -5 -0.9198 4.47686   6
  -6   8  -5 -1.6290 3.40178   3
  -6   8  -5 4.34696 5.39890   4
   6  -8   5 3.32640 2.92321   1
   6  -8   5 0.81083 4.53549   5
   6   7  -5 2.07775 4.27462   5
   6   7  -5 -2.1666 3.85762   4
  -6  -7   5 2.54151 3.42664   2
  -6  -7   5 1.48651 2.69050   6
   5   7  -5 7.93926 6.73307   5
   5   7  -5 2.40553 3.49047   5
   5   7  -5 1.39874 3.27344   4
   5   7  -5 -0.9833 4.57155   6
  -5  -7   5 2.16956 2.40596   5
  -5  -7   5 0.75307 2.36424   6
  -5  -7   5 2.31564 3.17158   2
   4   7  -5 30.6489 3.30986   4
   4   7  -5 24.2750 3.80782   5
   4   7  -5 34.4021 4.06321   5
   4   7  -5 21.9745 3.73586   6
   4   7  -5 24.1477 3.38359   3
  -4  -7   5 38.5931 3.44118   5
  -4  -7   5 26.0408 3.68344   4
  -4  -7   5 40.7663 4.28090   1
  -4  -7   5 41.5654 4.27648   6
  -4  -7   5 26.0129 3.72164   2
   3   7  -5 33.2297 3.46181   6
   3   7  -5 35.0557 3.69321   5
   3   7  -5 36.3676 3.67335   3
   3   7  -5 29.6698 3.58256   5
   3   7  -5 39.9410 3.38847   4
   3   7  -5 35.5721 4.05223   1
  -3  -7   5 35.0336 3.41953   4
  -3  -7   5 42.0116 4.01627   1
  -3  -7   5 40.2308 3.63380   5
  -3  -7   5 35.5734 3.93170   2
  -3  -7   5 32.9283 3.31278   5
  -3  -7   5 31.7756 2.95496   6
   2   7  -5 35.6513 3.79552   1
   2   7  -5 37.3903 3.80278   6
   2   7  -5 29.6248 3.41347   5
   2   7  -5 45.0490 3.90703   5
   2   7  -5 30.7957 3.26696   3
   2   7  -5 38.2678 3.32485   4
  -2  -7   5 38.9278 3.59740   5
  -2  -7   5 41.8102 4.02584   6
  -2  -7   5 41.0632 3.39845   4
  -2  -7   5 42.4394 4.41233   5
  -2  -7   5 39.4600 4.01998   2
  -2  -7   5 29.2369 3.26472   1
   1   7  -5 34.3044 3.35551   1
   1   7  -5 44.4358 3.99079   6
   1   7  -5 41.9176 4.00469   5
   1   7  -5 46.3006 4.93889   5
   1   7  -5 34.6868 3.60464   3
  -1  -7   5 41.0116 3.82542   5
  -1  -7   5 40.9139 4.09500   6
  -1  -7   5 41.3079 3.13911   4
  -1  -7   5 39.2046 3.97883   2
  -1  -7   5 38.3970 3.33954   1
  -1  -7   5 40.5151 3.68251   5
   0   7  -5 6.14110 2.99394   5
   0   7  -5 2.50864 2.19095   1
   0   7  -5 4.02160 2.58636   6
   0   7  -5 2.94388 2.08465   3
   0   7  -5 0.61407 2.21589   4
   0   7  -5 2.21305 2.75730   5
   0  -7   5 1.41805 2.34607   5
   0  -7   5 6.17551 2.18782   1
   0  -7   5 4.24150 2.45081   6
   0  -7   5 4.28176 2.63613   5
   0  -7   5 2.93047 2.10761   4
   0  -7   5 3.84103 2.00238   2
  -1   7  -5 0.01662 2.82490   5
  -1   7  -5 1.31430 2.22879   3
  -1   7  -5 0.33348 3.33923   4
  -1   7  -5 0.20315 2.56534   6
  -1   7  -5 -1.5750 1.98356   1
  -1   7  -5 -0.2879 2.66210   5
   1  -7   5 0.06664 1.88882   1
   1  -7   5 -0.8937 1.87625   2
   1  -7   5 -0.0438 2.04010   4
   1  -7   5 0.35220 2.36811   5
   1  -7   5 0.63293 2.03597   6
  -2   7  -5 379.948 13.1092   6
  -2   7  -5 392.647 13.0891   5
  -2   7  -5 374.976 12.6101   4
  -2   7  -5 386.968 12.0334   1
  -2   7  -5 374.001 12.8901   5
  -2   7  -5 374.774 12.6911   3
   2  -7   5 398.670 13.0778   5
   2  -7   5 380.801 12.2612   4
   2  -7   5 390.686 11.9888   1
   2  -7   5 391.972 11.2843   2
   2  -7   5 391.386 12.7556   6
   2  -7   5 398.025 13.0715   5
  -3   7  -5 136.367 7.03021   5
  -3   7  -5 128.615 6.50527   3
  -3   7  -5 136.586 5.87696   1
  -3   7  -5 129.663 7.59002   6
  -3   7  -5 139.217 7.33589   5
  -3   7  -5 135.531 6.80015   4
   3  -7   5 149.689 6.99077   6
   3  -7   5 137.648 7.11617   5
   3  -7   5 138.801 7.00377   5
   3  -7   5 139.497 6.61371   4
   3  -7   5 126.173 5.63726   1
  -4   7  -5 58.9971 4.98376   3
  -4   7  -5 64.5367 4.38203   1
  -4   7  -5 54.2000 5.81517   6
  -4   7  -5 66.0943 5.58805   5
  -4   7  -5 59.6910 5.77342   4
  -4   7  -5 58.9704 4.74803   5
   4  -7   5 73.0070 5.98813   5
   4  -7   5 63.6489 4.28897   1
   4  -7   5 60.9288 5.82540   6
   4  -7   5 51.8035 5.79895   5
   4  -7   5 66.2742 5.95830   4
  -5   7  -5 64.7620 6.58773   6
  -5   7  -5 58.3835 6.51150   6
  -5   7  -5 67.3072 5.48425   3
  -5   7  -5 62.4965 5.26382   4
  -5   7  -5 70.4087 5.91400   5
  -5   7  -5 67.4503 4.99101   1
   5  -7   5 62.5644 4.51530   1
   5  -7   5 70.1901 7.41395   4
   5  -7   5 65.2763 5.32206   5
   5  -7   5 45.2632 4.43848   5
   5  -7   5 61.6415 6.67288   6
  -6   7  -5 53.2269 5.56866   4
  -6   7  -5 43.7043 4.56142   3
  -6   7  -5 48.8334 4.81531   6
  -6   7  -5 52.8938 3.86296   1
  -6   7  -5 52.8447 4.67615   5
  -6   7  -5 49.1888 5.08954   6
   6  -7   5 48.7620 3.54791   1
   6  -7   5 45.4115 4.89974   5
   6  -7   5 42.6503 5.60524   5
  -7   7  -5 4.26387 5.67839   4
  -7   7  -5 3.05617 3.59166   3
  -7   7  -5 4.90774 4.00284   6
   7  -7   5 2.39184 4.38831   5
   7   6  -5 13.4019 4.62328   4
  -7  -6   5 20.6299 3.91544   2
   6   6  -5 3.72526 3.29857   5
   6   6  -5 -1.0420 3.12191   5
   6   6  -5 -2.6774 3.25113   4
   6   6  -5 3.41677 4.26917   6
  -6  -6   5 4.31419 3.35740   2
  -6  -6   5 3.53517 2.12185   6
  -6  -6   5 3.46169 1.89757   6
   5   6  -5 4.72195 2.77641   5
   5   6  -5 -3.5289 2.65265   5
   5   6  -5 0.69420 2.54095   4
   5   6  -5 2.85267 3.07790   6
  -5  -6   5 6.46066 3.56137   4
  -5  -6   5 1.26060 1.95721   5
  -5  -6   5 -0.6186 1.84245   6
  -5  -6   5 -1.1755 2.47611   2
  -5  -6   5 2.09693 1.77427   5
   4   6  -5 1.78628 2.42551   5
   4   6  -5 1.05347 2.00183   4
   4   6  -5 7.93979 3.62167   1
   4   6  -5 6.87734 2.67351   5
   4   6  -5 5.77595 2.60578   6
  -4  -6   5 3.16028 2.08139   5
  -4  -6   5 5.21123 2.06672   5
  -4  -6   5 7.48667 1.94141   6
  -4  -6   5 4.17346 2.59081   2
  -4  -6   5 3.87374 2.53492   4
  -4  -6   5 1.46788 2.71644   1
   3   6  -5 15.6802 2.66100   6
   3   6  -5 13.9538 2.20920   4
   3   6  -5 17.3620 2.62851   5
   3   6  -5 14.0616 3.18484   1
   3   6  -5 17.3558 2.90886   5
  -3  -6   5 19.1767 2.32206   6
  -3  -6   5 16.0088 2.77396   1
  -3  -6   5 20.1306 2.46324   5
  -3  -6   5 13.8018 2.38667   4
  -3  -6   5 14.1434 2.78159   2
  -3  -6   5 16.6680 2.53304   5
   2   6  -5 46.5602 3.61424   4
   2   6  -5 47.6210 3.66524   3
   2   6  -5 55.6587 4.58286   6
   2   6  -5 46.7850 4.37546   5
   2   6  -5 50.7811 3.81429   1
   2   6  -5 47.3139 4.33903   5
  -2  -6   5 50.0404 3.60553   4
  -2  -6   5 49.4032 3.86783   2
  -2  -6   5 47.5772 4.13597   5
  -2  -6   5 56.0136 3.88064   5
  -2  -6   5 53.8218 3.57490   6
  -2  -6   5 44.9731 3.99355   1
   1   6  -5 5.67342 2.11798   1
   1   6  -5 12.3166 2.57561   6
   1   6  -5 6.27640 2.23772   5
   1   6  -5 5.90560 2.00199   3
   1   6  -5 6.57956 2.89784   5
   1   6  -5 6.93658 1.79684   4
  -1  -6   5 4.37247 1.99152   5
  -1  -6   5 9.17843 1.98247   6
  -1  -6   5 6.18520 1.68052   4
  -1  -6   5 8.00381 2.17901   5
  -1  -6   5 5.42564 2.06277   1
  -1  -6   5 5.95396 1.94602   2
   0   6  -5 116.295 5.35619   3
   0   6  -5 133.486 6.11190   5
   0   6  -5 129.253 6.02215   6
   0   6  -5 130.418 5.41027   4
   0   6  -5 131.779 5.47003   1
   0   6  -5 125.198 5.93435   5
   0  -6   5 122.480 5.30016   1
   0  -6   5 134.243 5.93632   5
   0  -6   5 128.846 5.58128   6
   0  -6   5 125.811 5.19365   4
   0  -6   5 131.738 5.14567   2
   0  -6   5 125.266 5.85704   5
  -1   6  -5 1.85107 1.95783   3
  -1   6  -5 0.63646 1.73464   1
  -1   6  -5 0.81882 1.83361   5
  -1   6  -5 -0.0713 1.96288   5
  -1   6  -5 0.74598 1.71458   4
  -1   6  -5 1.13570 2.07238   6
   1  -6   5 -1.8352 1.56496   4
   1  -6   5 0.34237 1.54242   1
   1  -6   5 0.46241 1.86700   6
   1  -6   5 1.55384 1.65507   2
   1  -6   5 2.32416 1.94274   5
   1  -6   5 0.77943 1.96736   5
  -2   6  -5 97.3160 5.18353   3
  -2   6  -5 102.898 5.48847   1
  -2   6  -5 107.095 5.51282   5
  -2   6  -5 105.207 5.43988   5
  -2   6  -5 105.626 5.23207   4
  -2   6  -5 101.229 5.54758   6
   2  -6   5 104.377 3.90662   2
   2  -6   5 102.502 5.54930   5
   2  -6   5 108.202 5.60630   5
   2  -6   5 108.586 5.29410   6
   2  -6   5 110.957 4.72561   1
   2  -6   5 109.928 4.91183   4
  -3   6  -5 88.7465 5.38146   5
  -3   6  -5 82.3336 5.43294   5
  -3   6  -5 86.6081 5.08110   4
  -3   6  -5 81.5355 4.79087   3
  -3   6  -5 86.7636 5.18832   6
   3  -6   5 86.8214 5.39714   5
   3  -6   5 82.4478 4.15216   1
   3  -6   5 84.3724 5.10792   6
   3  -6   5 84.9054 4.83533   4
   3  -6   5 90.6213 5.29907   5
  -4   6  -5 3.51351 2.34323   1
  -4   6  -5 1.74230 2.45928   5
  -4   6  -5 4.20016 2.60010   6
  -4   6  -5 6.97282 2.82280   4
  -4   6  -5 3.99636 2.36527   5
  -4   6  -5 2.45651 2.54091   3
   4  -6   5 7.76417 2.76165   4
   4  -6   5 2.88296 2.53547   5
   4  -6   5 7.43319 2.48407   6
   4  -6   5 3.50559 1.77592   1
   4  -6   5 1.27951 2.34194   5
  -5   6  -5 36.9110 3.89043   3
  -5   6  -5 51.8810 4.11384   1
  -5   6  -5 41.7773 3.61301   5
  -5   6  -5 45.6870 4.38196   6
  -5   6  -5 48.1567 5.03168   6
  -5   6  -5 34.0691 4.01521   4
  -5   6  -5 42.0700 3.54836   5
   5  -6   5 36.5486 3.61761   5
   5  -6   5 48.0581 5.21501   6
   5  -6   5 40.6850 3.91549   1
   5  -6   5 39.4379 3.65237   5
   5  -6   5 50.6260 4.29081   4
  -6   6  -5 115.385 7.35624   6
  -6   6  -5 126.127 6.67390   3
  -6   6  -5 118.496 6.16746   5
  -6   6  -5 113.759 6.64830   6
  -6   6  -5 127.786 7.88992   4
  -6   6  -5 125.764 6.14913   1
   6  -6   5 116.629 7.11740   5
   6  -6   5 120.882 5.64920   1
   6  -6   5 103.799 7.67692   4
   6  -6   5 113.054 7.04075   5
  -7   6  -5 16.7706 3.87111   6
  -7   6  -5 16.3063 3.41350   6
  -7   6  -5 19.3359 3.71896   3
  -7   6  -5 15.4204 2.67226   5
  -7   6  -5 19.3805 5.23203   4
   7  -6   5 16.4568 3.02386   1
   7  -6   5 15.6468 4.03504   5
   7   5  -5 -0.1088 3.11894   5
   7   5  -5 -3.8756 3.16342   5
   7   5  -5 -1.7921 3.45870   4
  -7  -5   5 2.58281 3.81435   2
   6   5  -5 12.3547 3.27936   6
   6   5  -5 11.0497 2.76529   5
   6   5  -5 8.72036 2.83668   5
   6   5  -5 16.0784 3.10157   4
  -6  -5   5 10.1301 1.73180   6
  -6  -5   5 9.96947 3.26625   2
  -6  -5   5 7.16573 1.85033   6
   5   5  -5 2.39012 2.20352   6
   5   5  -5 4.38650 2.29527   5
   5   5  -5 1.15343 2.50157   6
   5   5  -5 -0.7270 3.34792   1
   5   5  -5 1.18911 2.18624   5
   5   5  -5 2.14440 2.15998   4
  -5  -5   5 2.44625 1.56547   6
  -5  -5   5 0.83498 1.55021   5
  -5  -5   5 2.74267 1.50323   5
  -5  -5   5 1.57966 2.61869   2
  -5  -5   5 3.37206 2.83471   1
   4   5  -5 13.1131 2.21243   5
   4   5  -5 15.0394 2.71554   5
   4   5  -5 14.5471 2.18190   4
   4   5  -5 21.5094 3.41258   1
   4   5  -5 17.4585 2.71722   6
   4   5  -5 18.4538 2.48031   6
  -4  -5   5 18.1021 2.11479   5
  -4  -5   5 15.1914 2.52946   4
  -4  -5   5 14.5952 3.29402   1
  -4  -5   5 19.9611 2.03886   5
  -4  -5   5 18.3358 2.09325   6
  -4  -5   5 13.6021 2.69101   2
   3   5  -5 47.8122 3.78310   5
   3   5  -5 53.3713 4.33165   1
   3   5  -5 52.7822 3.76823   6
   3   5  -5 49.4807 3.35896   4
   3   5  -5 47.6128 3.72188   5
  -3  -5   5 49.0469 3.41623   5
  -3  -5   5 50.3438 3.16020   6
  -3  -5   5 47.9009 3.43858   5
  -3  -5   5 50.7293 3.49876   4
  -3  -5   5 44.0085 3.88780   1
  -3  -5   5 44.4354 3.76780   2
   2   5  -5 116.896 5.26731   5
   2   5  -5 114.131 5.22323   1
   2   5  -5 110.909 4.58978   4
   2   5  -5 108.094 5.14186   6
   2   5  -5 109.070 5.09822   5
  -2  -5   5 110.961 4.63529   6
  -2  -5   5 117.458 5.09952   1
  -2  -5   5 115.553 4.68430   4
  -2  -5   5 108.553 4.85021   5
  -2  -5   5 114.586 4.96967   5
  -2  -5   5 109.667 5.07974   2
   1   5  -5 99.3985 4.18944   4
   1   5  -5 91.6358 4.40888   1
   1   5  -5 94.6603 4.78259   5
   1   5  -5 93.4308 4.34074   3
   1   5  -5 94.1815 4.67138   5
   1   5  -5 97.2187 4.65287   6
  -1  -5   5 95.0758 4.29185   2
  -1  -5   5 95.6284 4.65695   5
  -1  -5   5 91.4951 4.26895   1
  -1  -5   5 103.014 4.34611   6
  -1  -5   5 88.1965 3.97453   4
  -1  -5   5 102.783 4.59960   5
   0   5  -5 34.3757 3.31198   5
   0   5  -5 25.6819 2.70412   3
   0   5  -5 21.0630 2.21077   5
   0   5  -5 30.7161 2.63242   4
   0   5  -5 29.2111 3.07599   6
   0   5  -5 32.1160 3.50265   1
   0  -5   5 31.0706 2.78405   5
   0  -5   5 33.2540 2.77295   1
   0  -5   5 33.4570 2.70749   4
   0  -5   5 28.9765 2.61808   2
   0  -5   5 30.1689 2.91242   6
   0  -5   5 32.9471 3.21048   5
  -1   5  -5 10.3815 1.73697   4
  -1   5  -5 11.1273 2.03327   5
  -1   5  -5 8.21423 1.66666   1
  -1   5  -5 11.2203 1.92411   3
  -1   5  -5 8.41877 1.72542   6
  -1   5  -5 7.83397 1.87681   5
   1  -5   5 10.6859 2.06909   5
   1  -5   5 10.9548 1.70996   2
   1  -5   5 10.9949 2.02986   5
   1  -5   5 7.57993 1.60602   1
   1  -5   5 9.80377 1.63944   4
   1  -5   5 9.43710 1.84892   6
  -2   5  -5 4.05952 1.65032   5
  -2   5  -5 5.34380 1.76647   6
  -2   5  -5 4.52271 1.97401   5
  -2   5  -5 5.29895 1.62415   1
  -2   5  -5 5.46455 1.75267   4
  -2   5  -5 4.27467 1.80661   3
   2  -5   5 5.44809 1.71756   5
   2  -5   5 4.95996 1.45487   1
   2  -5   5 6.20688 1.59545   4
   2  -5   5 6.71300 1.98651   5
   2  -5   5 6.84482 1.77444   6
  -3   5  -5 467.614 14.4574   6
  -3   5  -5 474.981 14.4809   5
  -3   5  -5 482.390 13.8961   1
  -3   5  -5 455.211 14.2809   3
  -3   5  -5 455.208 14.2924   4
  -3   5  -5 477.332 14.2616   5
  -3   5  -5 464.206 14.5581   6
   3  -5   5 465.584 14.0275   4
   3  -5   5 482.417 14.2890   6
   3  -5   5 465.173 14.3894   5
   3  -5   5 475.667 14.5303   5
   3  -5   5 468.614 13.8236   1
  -4   5  -5 168.230 6.96088   3
  -4   5  -5 165.784 6.94712   4
  -4   5  -5 171.010 6.29062   1
  -4   5  -5 169.365 6.87208   6
  -4   5  -5 165.554 6.94923   6
  -4   5  -5 169.125 6.62595   5
  -4   5  -5 172.165 6.58741   5
   4  -5   5 177.598 6.80712   6
   4  -5   5 168.855 6.13634   1
   4  -5   5 169.531 6.98317   5
   4  -5   5 164.851 6.75712   4
   4  -5   5 178.565 6.87986   5
  -5   5  -5 107.760 5.99613   6
  -5   5  -5 96.4911 5.29341   6
  -5   5  -5 106.246 5.23633   5
  -5   5  -5 99.1218 4.99876   5
  -5   5  -5 94.8397 4.86171   1
  -5   5  -5 89.7331 5.27240   3
   5  -5   5 100.078 5.26616   5
   5  -5   5 104.672 5.64124   5
   5  -5   5 93.1730 4.74741   1
   5  -5   5 97.6993 5.82134   4
   5  -5   5 96.2996 5.40019   6
  -6   5  -5 51.5409 4.66411   6
  -6   5  -5 51.9332 4.48622   1
  -6   5  -5 58.8067 4.88667   4
  -6   5  -5 47.8399 4.88068   3
  -6   5  -5 43.7934 4.28781   5
  -6   5  -5 56.0152 5.24559   6
  -6   5  -5 55.6224 4.03898   5
   6  -5   5 49.8604 5.17054   5
   6  -5   5 44.0078 4.16553   4
   6  -5   5 57.3412 4.44613   1
   6  -5   5 52.4899 4.90055   6
  -7   5  -5 45.7189 3.80343   6
  -7   5  -5 46.7391 5.29491   4
  -7   5  -5 51.5254 4.59358   3
  -7   5  -5 51.8837 4.71633   6
   7  -5   5 49.7712 3.86076   1
   7  -5   5 46.7242 4.34332   5
   7  -5   5 48.5231 4.19212   5
  -8   5  -5 8.36625 3.61786   3
   8  -5   5 5.97823 4.63179   5
   8   4  -5 -1.4953 3.79289   4
   8   4  -5 4.83082 3.37279   5
   8   4  -5 -0.0666 3.12485   5
  -8  -4   5 5.65877 3.56000   2
   7   4  -5 131.697 6.78913   6
   7   4  -5 119.076 6.31569   5
   7   4  -5 124.219 6.74201   4
   7   4  -5 133.608 6.21036   5
  -7  -4   5 116.823 7.22403   2
   6   4  -5 16.8601 3.03376   6
   6   4  -5 25.3594 4.30674   1
   6   4  -5 23.1235 2.91120   4
   6   4  -5 23.3734 2.85997   6
   6   4  -5 17.8250 2.56324   5
   6   4  -5 19.4859 2.71571   5
  -6  -4   5 22.3195 3.57448   2
  -6  -4   5 22.3647 2.18523   6
   5   4  -5 0.03608 1.64069   5
   5   4  -5 0.41466 2.80282   1
   5   4  -5 1.19241 2.16802   6
   5   4  -5 0.24272 1.84545   5
   5   4  -5 -0.9278 1.73154   6
   5   4  -5 -0.6371 2.00014   4
  -5  -4   5 -3.5900 2.69203   1
  -5  -4   5 0.82567 2.12747   2
  -5  -4   5 -0.6647 1.05116   5
  -5  -4   5 1.14842 1.85157   5
  -5  -4   5 2.81950 1.32266   6
   4   4  -5 0.86774 1.80868   6
   4   4  -5 -0.0012 1.49707   5
   4   4  -5 -3.4995 2.02361   1
   4   4  -5 1.00580 1.54007   4
   4   4  -5 0.85962 1.43432   6
   4   4  -5 -0.2914 1.52608   5
  -4  -4   5 4.05807 1.98365   1
  -4  -4   5 -0.9393 1.18634   5
  -4  -4   5 -0.1821 1.19131   5
  -4  -4   5 0.99685 1.16885   6
  -4  -4   5 0.71508 1.91933   2
  -4  -4   5 0.37867 1.76543   4
   3   4  -5 5.48999 1.55846   5
   3   4  -5 10.3867 2.16477   6
   3   4  -5 11.8232 1.87707   5
   3   4  -5 11.7817 2.09185   1
   3   4  -5 11.2433 1.71501   4
   3   4  -5 10.4264 1.78749   6
  -3  -4   5 10.9164 1.63223   5
  -3  -4   5 10.5973 1.53804   5
  -3  -4   5 10.0996 1.48779   6
  -3  -4   5 7.82863 1.75903   4
  -3  -4   5 7.27030 1.73530   1
  -3  -4   5 8.66017 2.02390   2
   2   4  -5 63.0672 3.85583   6
   2   4  -5 61.8756 3.48509   5
   2   4  -5 62.8723 3.08675   4
   2   4  -5 60.6430 3.50538   1
   2   4  -5 64.2636 3.52469   5
  -2  -4   5 68.3865 3.93178   5
  -2  -4   5 61.6775 3.56647   2
  -2  -4   5 59.1497 3.05015   6
  -2  -4   5 58.7381 3.45905   1
  -2  -4   5 61.7111 3.39871   5
  -2  -4   5 62.6296 3.19988   4
   1   4  -5 58.2172 3.34607   5
   1   4  -5 53.1781 3.26875   6
   1   4  -5 57.6046 3.32491   5
   1   4  -5 52.7698 2.86777   4
   1   4  -5 58.8597 3.11865   1
  -1  -4   5 59.3585 3.30243   5
  -1  -4   5 61.0589 2.94377   4
  -1  -4   5 56.8461 3.21613   1
  -1  -4   5 56.4095 3.08440   2
  -1  -4   5 61.3439 3.10295   6
  -1  -4   5 60.6250 3.40592   5
   0   4  -5 15.6152 1.70660   1
   0   4  -5 15.4265 1.89129   3
   0   4  -5 12.6143 1.53579   4
   0   4  -5 15.2121 1.90179   5
   0   4  -5 10.9522 1.94804   6
   0   4  -5 15.0867 1.92498   6
   0   4  -5 10.1971 1.75580   5
   0  -4   5 14.9582 1.78180   2
   0  -4   5 13.0142 1.85526   5
   0  -4   5 11.4626 1.50447   6
   0  -4   5 10.4655 1.37055   4
   0  -4   5 13.7423 1.87404   5
   0  -4   5 12.9656 1.63051   1
  -1   4  -5 104.098 4.28924   3
  -1   4  -5 112.620 4.88506   6
  -1   4  -5 105.040 4.56535   5
  -1   4  -5 103.659 4.49673   6
  -1   4  -5 106.653 4.28902   1
  -1   4  -5 105.894 4.20244   4
  -1   4  -5 109.262 4.60844   5
   1  -4   5 114.332 4.46425   6
   1  -4   5 108.537 4.22630   1
   1  -4   5 100.710 4.45346   5
   1  -4   5 102.344 4.08456   4
   1  -4   5 108.121 4.65762   5
  -2   4  -5 0.29725 1.39059   5
  -2   4  -5 1.86584 1.50181   3
  -2   4  -5 0.63947 1.47103   5
  -2   4  -5 -0.5859 1.19798   4
  -2   4  -5 -1.2964 1.23551   1
  -2   4  -5 -0.4319 1.46219   6
  -2   4  -5 -0.2421 0.96960   2
  -2   4  -5 -0.5097 1.08969   6
   2  -4   5 1.04103 1.22621   4
   2  -4   5 -1.3819 1.29117   5
   2  -4   5 0.09921 1.08932   1
   2  -4   5 -0.6549 1.34294   6
   2  -4   5 0.25992 1.30499   5
  -3   4  -5 41.5624 3.22721   4
  -3   4  -5 46.2950 3.21797   6
  -3   4  -5 43.3957 2.98595   1
  -3   4  -5 46.4799 3.34518   3
  -3   4  -5 47.3882 3.29378   5
  -3   4  -5 42.6768 3.39079   6
   3  -4   5 47.9868 2.93722   1
   3  -4   5 45.1415 4.09624   6
   3  -4   5 38.6578 3.33750   5
   3  -4   5 47.3111 3.30201   5
   3  -4   5 45.0241 3.13274   4
  -4   4  -5 102.492 4.40315   1
  -4   4  -5 91.6503 4.55400   6
  -4   4  -5 93.2651 4.78580   4
  -4   4  -5 101.218 4.48333   5
  -4   4  -5 95.2112 5.00065   6
  -4   4  -5 102.627 4.52018   5
  -4   4  -5 96.1537 4.67341   3
   4  -4   5 94.7157 4.56637   5
   4  -4   5 102.807 4.38484   1
   4  -4   5 92.7565 4.80288   5
   4  -4   5 93.7410 4.59468   4
   4  -4   5 97.9366 4.50171   6
  -5   4  -5 7.42300 2.45035   6
  -5   4  -5 10.4909 2.10024   1
  -5   4  -5 10.2571 2.31197   3
  -5   4  -5 9.64720 1.93279   5
  -5   4  -5 7.83207 2.21445   6
  -5   4  -5 8.06940 1.90098   5
  -5   4  -5 11.5223 2.57506   4
   5  -4   5 9.43695 1.95603   5
   5  -4   5 12.3054 2.04847   1
   5  -4   5 10.2233 2.03777   6
   5  -4   5 8.44883 3.63069   5
   5  -4   5 10.1356 2.22886   4
  -6   4  -5 52.9849 3.20098   5
  -6   4  -5 60.3717 4.49839   3
  -6   4  -5 62.0387 4.53938   6
  -6   4  -5 53.4046 3.05701   5
  -6   4  -5 52.2949 3.94749   6
   6  -4   5 56.0959 4.34312   1
   6  -4   5 49.5274 4.31676   5
   6  -4   5 48.6426 4.08247   6
   6  -4   5 39.5860 3.73781   4
   6  -4   5 59.2658 4.63228   5
  -7   4  -5 97.3562 4.72636   6
  -7   4  -5 102.474 5.04912   6
  -7   4  -5 93.6340 5.88986   3
  -7   4  -5 96.9460 7.29414   4
   7  -4   5 101.788 6.08868   5
   7  -4   5 101.751 7.85063   4
   7  -4   5 109.968 5.81449   5
   7  -4   5 105.382 6.27300   1
  -8   4  -5 36.9794 4.01731   3
   8  -4   5 27.9903 3.97148   5
   8  -4   5 33.4685 4.19046   1
   8   3  -5 71.7619 5.49715   6
   8   3  -5 60.7718 4.97487   4
   8   3  -5 63.9073 5.19288   5
   8   3  -5 68.8582 4.92827   5
   7   3  -5 4.37780 4.37612   1
   7   3  -5 9.06011 2.45794   6
   7   3  -5 8.46853 2.34234   5
   7   3  -5 6.24472 2.81445   4
   7   3  -5 8.05421 2.25772   5
  -7  -3   5 4.75929 2.94005   2
   6   3  -5 3.41581 2.15218   4
   6   3  -5 0.31860 2.18056   6
   6   3  -5 4.28463 1.81872   6
   6   3  -5 0.59747 3.04995   1
   6   3  -5 -0.5023 1.78057   5
  -6  -3   5 1.46527 2.45325   2
  -6  -3   5 3.41444 1.00862   6
   5   3  -5 6.16799 1.73565   5
   5   3  -5 4.83866 1.66561   6
   5   3  -5 6.88387 1.58620   5
   5   3  -5 6.94938 2.01758   6
   5   3  -5 5.74204 1.74615   4
   5   3  -5 5.46126 2.43867   1
  -5  -3   5 6.15999 2.49474   2
  -5  -3   5 7.86999 1.27791   6
  -5  -3   5 7.04864 0.97506   5
  -5  -3   5 5.69714 2.16317   1
  -5  -3   5 6.24213 0.98091   5
   4   3  -5 3.98954 1.43466   5
   4   3  -5 4.06597 1.47715   4
   4   3  -5 5.33912 2.00930   1
   4   3  -5 4.90335 1.73624   6
   4   3  -5 4.80187 1.43463   6
  -4  -3   5 5.13055 1.16077   5
  -4  -3   5 4.06513 1.15031   6
  -4  -3   5 3.92516 1.63415   1
  -4  -3   5 5.44797 1.22813   5
  -4  -3   5 3.64013 2.07741   2
  -4  -3   5 3.33473 1.75584   4
   3   3  -5 49.7515 2.73568   4
   3   3  -5 53.9669 3.01916   5
   3   3  -5 47.3520 2.78522   6
   3   3  -5 43.9146 3.10649   6
   3   3  -5 46.8672 2.89952   5
  -3  -3   5 45.1926 3.00378   1
  -3  -3   5 52.4329 2.58556   6
  -3  -3   5 39.1165 3.24937   4
  -3  -3   5 52.4368 2.80069   5
  -3  -3   5 44.8527 3.24461   2
  -3  -3   5 51.1797 2.75665   5
   2   3  -5 84.9979 3.44182   4
   2   3  -5 86.4403 3.73663   1
   2   3  -5 79.8175 3.66040   5
   2   3  -5 80.4293 3.53865   6
   2   3  -5 83.1510 3.99672   6
   2   3  -5 86.6552 3.75118   5
  -2  -3   5 72.7733 4.30563   5
  -2  -3   5 84.3542 3.52918   5
  -2  -3   5 86.0653 3.43595   6
  -2  -3   5 80.7615 3.89709   2
  -2  -3   5 91.9495 3.51113   4
  -2  -3   5 86.4766 3.77964   1
   1   3  -5 227.388 7.08578   4
   1   3  -5 229.057 7.72718   6
   1   3  -5 220.044 7.40264   5
   1   3  -5 234.378 7.32951   1
   1   3  -5 228.444 7.47815   5
   1   3  -5 227.196 7.37062   6
  -1  -3   5 234.043 7.07563   4
  -1  -3   5 241.547 7.90271   5
  -1  -3   5 222.395 7.27204   2
  -1  -3   5 228.879 7.35132   5
  -1  -3   5 228.983 7.22483   6
   0   3  -5 232.236 7.79768   6
   0   3  -5 215.840 7.37896   6
   0   3  -5 226.653 7.13741   4
   0   3  -5 238.091 7.34157   1
   0   3  -5 232.081 7.51802   5
   0   3  -5 241.341 7.23254   3
   0  -3   5 222.949 7.28504   1
   0  -3   5 234.045 7.53728   5
   0  -3   5 239.340 7.38470   6
   0  -3   5 233.251 7.08543   4
   0  -3   5 236.916 7.50160   5
  -1   3  -5 19.3475 1.74236   1
  -1   3  -5 15.3694 1.59131   5
  -1   3  -5 19.7653 2.03551   6
  -1   3  -5 24.3506 2.24145   6
  -1   3  -5 19.2337 1.87027   5
  -1   3  -5 21.6372 1.90617   4
   1  -3   5 15.9522 1.55169   1
   1  -3   5 14.9975 1.57637   5
   1  -3   5 15.3737 1.49195   6
   1  -3   5 22.3206 1.79154   4
   1  -3   5 19.0926 1.80870   5
  -2   3  -5 5.48415 1.24310   4
  -2   3  -5 4.74201 1.25155   6
  -2   3  -5 7.42516 1.45563   5
  -2   3  -5 3.20885 1.10597   5
  -2   3  -5 5.00784 1.37140   1
  -2   3  -5 6.98327 0.93170   2
  -2   3  -5 6.63567 1.42534   3
  -2   3  -5 6.60376 1.50073   6
   2  -3   5 4.78606 1.43814   5
   2  -3   5 5.32375 1.23932   5
   2  -3   5 4.34739 1.23343   1
   2  -3   5 4.23285 1.12181   4
   2  -3   5 5.16788 1.18655   6
  -3   3  -5 4.78199 1.48287   6
  -3   3  -5 4.67598 1.36209   6
  -3   3  -5 5.04131 1.66904   5
  -3   3  -5 2.98079 1.45079   1
  -3   3  -5 3.14264 1.29958   5
  -3   3  -5 2.73978 1.39215   4
   3  -3   5 4.48368 1.34439   4
   3  -3   5 5.10412 1.28892   1
   3  -3   5 4.75879 1.33124   6
   3  -3   5 3.33638 1.43385   5
   3  -3   5 4.26775 1.37128   5
  -4   3  -5 331.069 10.5030   4
  -4   3  -5 308.478 10.2450   6
  -4   3  -5 335.582 10.2443   3
  -4   3  -5 335.418 10.3280   1
  -4   3  -5 344.670 10.1365   5
  -4   3  -5 342.069 10.5940   6
  -4   3  -5 337.425 10.1166   5
   4  -3   5 340.697 10.4159   5
   4  -3   5 330.467 10.4745   5
   4  -3   5 344.189 10.3229   1
   4  -3   5 320.250 10.2606   4
   4  -3   5 336.366 10.1954   6
  -5   3  -5 142.482 5.92205   4
  -5   3  -5 141.376 4.98220   5
  -5   3  -5 139.933 5.79544   1
  -5   3  -5 141.818 4.92659   5
  -5   3  -5 141.904 5.55531   3
  -5   3  -5 142.542 5.62604   6
  -5   3  -5 138.269 5.36328   6
   5  -3   5 138.064 5.31332   6
   5  -3   5 136.227 5.64535   4
   5  -3   5 130.128 5.54939   5
   5  -3   5 143.662 5.64864   1
   5  -3   5 138.288 5.63482   5
  -6   3  -5 115.797 6.00152   4
  -6   3  -5 111.076 5.29514   3
  -6   3  -5 115.337 4.82169   6
  -6   3  -5 107.943 4.60930   6
   6  -3   5 101.427 4.99790   6
   6  -3   5 103.921 5.17393   5
   6  -3   5 109.194 5.31629   5
   6  -3   5 110.421 5.47116   1
   6  -3   5 117.635 5.91841   4
  -7   3  -5 33.3222 3.28588   3
   7  -3   5 36.1683 3.27536   5
   7  -3   5 34.8628 3.57200   1
   7  -3   5 31.6608 3.00524   5
   7  -3   5 44.0162 4.37753   4
  -8   3  -5 34.6533 3.98166   3
   8  -3   5 30.4189 4.27714   1
   8  -3   5 27.4957 3.63151   5
   8  -3   5 22.3533 5.35810   4
   8  -3   5 30.5204 3.22521   5
   8   2  -5 33.4495 2.94355   6
   8   2  -5 33.0528 3.97166   4
   8   2  -5 33.8720 3.00825   5
   8   2  -5 34.4900 2.80813   5
   8   2  -5 34.1993 5.19914   1
  -8  -2   5 25.2072 3.78514   3
   7   2  -5 0.57702 1.75990   5
   7   2  -5 3.44058 2.56364   4
   7   2  -5 3.16166 1.93040   5
   7   2  -5 0.23796 2.29200   6
   7   2  -5 1.11611 3.33718   1
   7   2  -5 4.99654 1.92602   6
  -7  -2   5 2.24012 2.87104   2
  -7  -2   5 2.84559 2.62432   3
   6   2  -5 190.880 6.49294   5
   6   2  -5 176.741 6.36964   5
   6   2  -5 196.385 6.39391   6
   6   2  -5 187.524 6.79010   6
   6   2  -5 160.792 7.69180   4
   6   2  -5 182.701 7.37331   1
  -6  -2   5 175.294 7.65071   2
  -6  -2   5 186.044 5.41553   6
  -6  -2   5 177.540 7.32819   3
   5   2  -5 26.3240 2.47509   6
   5   2  -5 21.1467 2.09719   4
   5   2  -5 25.2055 2.34349   6
   5   2  -5 26.2740 2.50381   5
   5   2  -5 24.8066 2.60731   1
   5   2  -5 29.8051 2.75332   5
  -5  -2   5 27.1574 1.52592   5
  -5  -2   5 26.8859 2.93942   3
  -5  -2   5 27.6348 2.00016   6
  -5  -2   5 24.7437 2.97271   2
  -5  -2   5 28.8014 2.60391   1
  -5  -2   5 26.1670 1.49477   5
   4   2  -5 13.5958 2.14602   1
   4   2  -5 18.4238 2.01569   6
   4   2  -5 12.7542 1.90096   5
   4   2  -5 18.9515 1.71206   6
   4   2  -5 15.6939 1.64291   5
   4   2  -5 16.3264 1.71312   4
  -4  -2   5 17.9797 2.08582   1
  -4  -2   5 19.5124 1.87063   5
  -4  -2   5 18.8907 1.70274   5
  -4  -2   5 16.5035 2.20581   3
  -4  -2   5 16.3829 2.40387   2
  -4  -2   5 18.1665 1.77977   6
   3   2  -5 0.23097 0.84471   6
   3   2  -5 0.96120 0.92041   5
   3   2  -5 0.57488 0.86759   4
   3   2  -5 0.43111 1.10815   1
   3   2  -5 -1.9715 1.09139   6
   3   2  -5 0.01154 1.00419   5
  -3  -2   5 0.31024 1.45971   2
  -3  -2   5 0.75618 1.38306   3
  -3  -2   5 -0.5848 1.15593   1
  -3  -2   5 0.85897 0.81944   6
  -3  -2   5 0.11098 0.94505   5
  -3  -2   5 0.78370 1.11337   4
  -3  -2   5 1.02166 0.93756   5
   2   2  -5 21.8772 2.35518   6
   2   2  -5 21.4964 1.76976   4
   2   2  -5 24.1007 1.85474   6
   2   2  -5 23.5346 2.06652   5
   2   2  -5 25.3363 2.12589   1
   2   2  -5 25.1260 2.04393   5
  -2  -2   5 24.6365 1.74505   6
  -2  -2   5 22.5755 2.20357   5
  -2  -2   5 26.7287 2.00038   5
  -2  -2   5 23.4535 2.33868   2
  -2  -2   5 25.8014 1.91090   4
  -2  -2   5 25.7545 2.11596   1
   1   2  -5 265.185 8.15904   1
   1   2  -5 273.015 8.55277   6
   1   2  -5 261.005 8.23248   5
   1   2  -5 255.994 7.89540   4
   1   2  -5 263.773 8.16461   6
   1   2  -5 267.778 8.30176   5
  -1  -2   5 271.539 7.95394   4
  -1  -2   5 269.718 8.17827   1
  -1  -2   5 266.659 8.25341   5
  -1  -2   5 275.310 8.09434   6
  -1  -2   5 271.555 8.20262   5
   0   2  -5 12.5893 1.60142   6
   0   2  -5 7.76972 1.01367   6
   0   2  -5 10.4955 1.32885   1
   0   2  -5 14.6700 1.45799   5
   0   2  -5 14.5609 1.40227   4
   0   2  -5 12.2096 1.34285   5
   0  -2   5 13.5237 1.31645   4
   0  -2   5 11.9360 1.25501   6
   0  -2   5 16.3013 1.55715   5
   0  -2   5 9.49785 1.21473   1
   0  -2   5 13.3380 1.46934   5
  -1   2  -5 8.67680 1.37802   5
  -1   2  -5 7.83068 1.39794   6
  -1   2  -5 8.62710 1.13217   3
  -1   2  -5 9.55843 1.31944   1
  -1   2  -5 7.31131 1.03548   4
  -1   2  -5 8.59261 1.20409   2
  -1   2  -5 9.25741 1.27277   6
  -1   2  -5 5.43381 1.12344   5
   1  -2   5 6.45679 1.14887   5
   1  -2   5 6.14474 1.02999   5
   1  -2   5 6.81557 0.96206   4
   1  -2   5 8.84725 1.19740   6
   1  -2   5 5.70912 1.09474   1
  -2   2  -5 44.4775 2.01702   2
  -2   2  -5 43.0576 2.61619   5
  -2   2  -5 43.5158 2.29742   3
  -2   2  -5 40.3758 2.46025   1
  -2   2  -5 45.1656 2.35191   4
  -2   2  -5 38.4205 2.38213   6
  -2   2  -5 42.8065 2.73365   6
  -2   2  -5 44.4110 2.81155   5
   2  -2   5 42.2236 2.34341   6
   2  -2   5 44.9897 2.59041   1
   2  -2   5 42.9610 2.57007   5
   2  -2   5 45.5685 2.21744   4
   2  -2   5 43.1711 2.48686   5
  -3   2  -5 2.23043 0.97843   6
  -3   2  -5 2.52499 1.15283   4
  -3   2  -5 2.49344 1.15374   5
  -3   2  -5 1.96845 1.32824   6
  -3   2  -5 2.79709 1.03576   2
  -3   2  -5 2.15379 1.35425   1
  -3   2  -5 2.88895 1.11536   5
  -3   2  -5 3.81125 1.35197   3
   3  -2   5 3.14505 1.32089   1
   3  -2   5 3.37978 1.15087   5
   3  -2   5 1.16355 1.02497   4
   3  -2   5 2.73959 1.08485   5
   3  -2   5 2.27075 1.01891   6
  -4   2  -5 4.47696 1.23643   5
  -4   2  -5 1.11671 1.12521   2
  -4   2  -5 4.45578 1.47737   4
  -4   2  -5 3.62864 1.43798   3
  -4   2  -5 3.81721 1.24346   5
  -4   2  -5 2.19943 1.40586   6
  -4   2  -5 3.28118 1.19220   6
  -4   2  -5 5.05256 1.59889   1
   4  -2   5 4.37920 1.22143   6
   4  -2   5 3.37504 1.37045   5
   4  -2   5 2.28162 1.34825   1
   4  -2   5 4.69116 1.28506   4
   4  -2   5 3.11639 1.34514   5
  -5   2  -5 96.8970 3.50210   5
  -5   2  -5 95.0432 3.42858   5
  -5   2  -5 98.4560 3.62173   2
  -5   2  -5 100.179 4.85597   1
  -5   2  -5 97.8463 4.24652   6
  -5   2  -5 97.6539 3.96372   6
  -5   2  -5 90.8733 4.62078   4
   5  -2   5 95.3496 4.43159   4
   5  -2   5 91.5424 4.33704   5
   5  -2   5 99.3679 4.31607   5
   5  -2   5 93.5656 4.64881   1
   5  -2   5 99.6013 4.12192   6
  -6   2  -5 11.8490 2.22178   3
  -6   2  -5 13.4524 1.55137   6
  -6   2  -5 10.3410 2.06414   2
  -6   2  -5 13.1342 1.61474   6
   6  -2   5 12.7351 2.63480   1
   6  -2   5 12.5888 1.96654   5
   6  -2   5 10.1991 2.46428   4
   6  -2   5 10.8810 2.04276   5
   6  -2   5 11.9978 1.84293   6
  -7   2  -5 65.1985 4.48559   3
   7  -2   5 56.5466 4.41157   1
   7  -2   5 57.1021 4.53806   5
   7  -2   5 63.7956 4.17518   5
   7  -2   5 57.6608 5.66387   4
  -8   2  -5 68.3948 5.22526   3
   8  -2   5 61.7154 5.30624   5
   8  -2   5 58.5089 5.92236   4
   8  -2   5 60.8810 4.62197   5
   8  -2   5 67.0217 5.35634   1
   9   1  -5 -5.3578 9.90132   1
   9   1  -5 10.6811 2.47289   5
   9   1  -5 5.71918 4.55739   4
  -9  -1   5 11.8325 3.86403   3
   8   1  -5 -2.1446 1.88488   5
   8   1  -5 -0.5675 1.99574   5
   8   1  -5 -0.2939 1.99291   6
   8   1  -5 3.67061 2.94751   4
   8   1  -5 -0.8067 3.84147   1
  -8  -1   5 -1.8476 2.69634   3
   7   1  -5 171.845 6.57029   6
   7   1  -5 180.413 6.38870   5
   7   1  -5 190.568 7.31610   4
   7   1  -5 189.127 6.41481   5
   7   1  -5 184.349 7.82681   1
  -7  -1   5 174.439 7.74908   3
   6   1  -5 9.48590 2.32936   1
   6   1  -5 7.99756 1.94436   4
   6   1  -5 9.37103 1.69400   5
   6   1  -5 10.9887 2.02891   6
   6   1  -5 7.43756 1.44448   6
   6   1  -5 6.78029 1.74093   5
  -6  -1   5 6.22942 2.11065   3
  -6  -1   5 7.32014 1.01858   6
   5   1  -5 3.57707 1.26181   5
   5   1  -5 0.94080 1.05682   6
   5   1  -5 3.68493 1.66907   1
   5   1  -5 2.12828 1.35943   4
   5   1  -5 1.77338 1.10672   5
   5   1  -5 1.69406 1.34483   6
  -5  -1   5 2.81309 0.99349   6
  -5  -1   5 2.08703 1.88218   3
  -5  -1   5 2.59494 0.79599   5
  -5  -1   5 2.54402 1.45355   1
  -5  -1   5 2.67958 0.73093   5
   4   1  -5 1.09162 1.13444   4
   4   1  -5 4.37708 1.06454   6
   4   1  -5 2.34619 1.02757   5
   4   1  -5 3.86363 1.42105   1
  -4  -1   5 1.78739 0.93067   5
  -4  -1   5 3.97923 1.73884   3
  -4  -1   5 2.69193 0.93879   6
  -4  -1   5 2.09872 1.21945   1
   3   1  -5 21.1134 1.71408   6
   3   1  -5 19.2784 1.79524   4
   3   1  -5 19.5058 1.90199   5
   3   1  -5 20.0867 2.20396   6
   3   1  -5 22.0273 2.06606   1
   3   1  -5 22.5849 1.92272   5
  -3  -1   5 19.2295 1.69984   5
  -3  -1   5 19.0134 1.70878   1
  -3  -1   5 18.7118 1.64113   6
  -3  -1   5 19.7606 2.05858   3
  -3  -1   5 23.6703 1.79225   5
   2   1  -5 83.7466 3.63297   6
   2   1  -5 81.1820 3.09291   4
   2   1  -5 86.2618 3.36074   1
   2   1  -5 81.2959 3.32389   5
   2   1  -5 83.3997 3.23605   6
   2   1  -5 88.4278 3.64001   5
  -2  -1   5 84.6484 3.32009   5
  -2  -1   5 85.4547 3.54521   3
  -2  -1   5 87.1469 3.30081   4
  -2  -1   5 85.1075 3.16147   6
  -2  -1   5 86.0349 3.35578   1
  -2  -1   5 74.4067 3.44935   6
  -2  -1   5 83.4666 3.28731   5
   1   1  -5 113.534 4.17900   5
   1   1  -5 117.125 4.04955   6
   1   1  -5 115.933 4.07479   1
   1   1  -5 109.430 4.36808   6
   1   1  -5 114.032 3.77451   4
   1   1  -5 107.039 4.08594   5
  -1  -1   5 109.691 4.28545   6
  -1  -1   5 123.858 4.00670   6
  -1  -1   5 116.202 3.82259   4
  -1  -1   5 115.801 4.08892   3
  -1  -1   5 114.379 4.04355   1
  -1  -1   5 118.539 4.16993   5
  -1  -1   5 116.601 4.10150   5
   0   1  -5 326.811 9.71560   6
   0   1  -5 323.595 9.80955   5
   0   1  -5 332.907 9.40032   4
   0   1  -5 335.127 9.73538   1
   0   1  -5 322.889 9.79502   5
   0   1  -5 333.364 10.0658   6
   0  -1   5 328.625 9.79357   5
   0  -1   5 336.056 9.68419   6
   0  -1   5 329.276 9.85007   5
   0  -1   5 330.438 10.0698   6
   0  -1   5 335.636 9.74398   1
   0  -1   5 328.472 9.37693   4
  -1   1  -5 337.423 9.30668   3
  -1   1  -5 327.876 9.79061   6
  -1   1  -5 336.582 10.1179   6
  -1   1  -5 343.052 9.62161   2
  -1   1  -5 341.621 9.49283   4
  -1   1  -5 335.512 9.92269   5
  -1   1  -5 332.163 9.89614   5
  -1   1  -5 324.868 9.84487   1
   1  -1   5 332.354 9.87214   5
   1  -1   5 332.245 9.86261   1
   1  -1   5 317.969 10.1026   6
   1  -1   5 329.604 9.93451   5
   1  -1   5 334.424 9.76785   6
   1  -1   5 332.288 9.40673   4
  -2   1  -5 11.3851 1.13508   3
  -2   1  -5 13.0482 1.24620   2
  -2   1  -5 8.57891 1.08745   6
  -2   1  -5 8.40388 1.31527   1
  -2   1  -5 8.70351 1.04254   4
  -2   1  -5 8.52158 1.22789   5
  -2   1  -5 7.86789 1.31730   5
   2  -1   5 7.26723 1.21869   1
   2  -1   5 7.83225 1.28827   5
   2  -1   5 10.6558 0.95942   4
   2  -1   5 9.05272 1.08541   6
   2  -1   5 9.66924 1.41601   6
   2  -1   5 9.23985 1.14867   5
  -3   1  -5 0.15806 0.84487   6
  -3   1  -5 1.97038 1.00208   3
  -3   1  -5 2.63042 1.00945   5
  -3   1  -5 1.81690 1.22793   6
  -3   1  -5 0.40723 1.21189   1
  -3   1  -5 2.26386 1.22853   2
  -3   1  -5 1.66525 0.96633   4
  -3   1  -5 2.10574 1.03375   5
   3  -1   5 0.91286 0.94591   5
   3  -1   5 -0.5443 0.85537   6
   3  -1   5 0.37663 1.00726   5
   3  -1   5 1.59845 0.84767   4
   3  -1   5 0.06322 1.08887   1
   3  -1   5 0.74361 1.02072   6
  -4   1  -5 0.31249 1.22907   4
  -4   1  -5 2.40301 1.19155   3
  -4   1  -5 1.35915 0.95430   6
  -4   1  -5 0.56847 0.96755   5
  -4   1  -5 0.02335 1.88146   1
  -4   1  -5 1.90011 1.21972   6
  -4   1  -5 3.18836 1.57722   2
  -4   1  -5 2.03585 1.01980   5
   4  -1   5 0.65153 1.09678   5
   4  -1   5 1.18270 1.00636   6
   4  -1   5 2.45630 1.12114   5
   4  -1   5 1.79493 1.08807   4
   4  -1   5 0.89746 1.42414   1
  -5   1  -5 157.581 5.82404   4
  -5   1  -5 158.109 5.69888   2
  -5   1  -5 164.919 5.48074   6
  -5   1  -5 157.079 5.27797   6
  -5   1  -5 161.635 5.37051   3
   5  -1   5 160.480 5.71491   4
   5  -1   5 159.761 5.45359   6
   5  -1   5 156.145 5.73648   5
   5  -1   5 166.571 6.31326   1
   5  -1   5 157.324 5.61362   5
  -6   1  -5 83.8116 4.39842   2
   6  -1   5 81.8237 3.83479   6
   6  -1   5 70.3984 6.78628   1
   6  -1   5 79.8871 3.96242   5
   6  -1   5 75.8209 4.12186   5
  -7   1  -5 85.7131 4.42340   3
  -7   1  -5 81.9803 5.09985   2
   7  -1   5 84.4852 4.81435   5
   7  -1   5 83.5293 5.39825   4
   7  -1   5 74.7165 6.34802   1
   7  -1   5 88.9116 4.93147   6
   7  -1   5 81.9619 4.76742   5
  -8   1  -5 20.2807 3.26964   3
  -8   1  -5 23.3267 3.95574   2
   8  -1   5 17.8366 2.97215   5
   8  -1   5 6.55579 4.65207   4
   8  -1   5 24.8930 4.56447   1
   8  -1   5 20.0139 2.61230   5
   9   0  -5 0.86159 6.79971   1
   9   0  -5 4.00088 2.35784   5
   9   0  -5 4.19662 4.19863   4
   9   0  -5 2.88297 2.36671   5
  -9   0   5 4.31684 3.54695   3
   8   0  -5 68.8712 4.15575   5
   8   0  -5 70.5726 6.38590   1
   8   0  -5 76.2253 4.26193   5
   8   0  -5 71.6076 3.96282   6
   8   0  -5 72.1403 6.08509   4
  -8   0   5 71.8647 5.43947   3
   7   0  -5 40.3229 4.88477   4
   7   0  -5 35.2536 3.20461   1
   7   0  -5 34.1812 3.32027   4
   7   0  -5 31.7795 2.70971   6
   7   0  -5 39.1559 3.20236   5
   7   0  -5 36.2615 2.91593   5
   7   0  -5 35.0555 2.80469   6
  -7   0   5 35.1879 3.82530   3
   6   0  -5 2.35308 1.34121   5
   6   0  -5 0.69750 1.10228   6
   6   0  -5 -1.2105 1.28011   5
   6   0  -5 -0.0001 1.53106   6
   6   0  -5 -2.1866 1.80691   4
   6   0  -5 1.01506 1.88278   1
  -6   0   5 -0.0634 2.14008   3
   5   0  -5 206.803 7.01659   6
   5   0  -5 211.425 7.11565   4
   5   0  -5 214.013 6.62088   6
   5   0  -5 209.091 6.92747   1
   5   0  -5 208.987 6.81266   5
   5   0  -5 208.952 6.80242   5
  -5   0   5 211.150 7.69558   3
  -5   0   5 212.579 6.51969   6
  -5   0   5 204.100 6.16184   5
  -5   0   5 208.688 6.86621   1
  -5   0   5 217.048 6.21605   5
   4   0  -5 41.1450 2.50383   5
   4   0  -5 45.6472 2.69984   1
   4   0  -5 49.2496 2.71154   4
   4   0  -5 46.9239 2.34439   6
   4   0  -5 47.7362 2.57511   5
   4   0  -5 45.4778 2.79468   6
  -4   0   5 45.2946 2.58782   6
  -4   0   5 44.7182 2.32206   5
  -4   0   5 47.9906 2.61698   1
  -4   0   5 46.2935 2.32280   5
  -4   0   5 44.9112 3.00408   3
  -4   0   5 47.9755 2.39603   6
   3   0  -5 138.605 4.86984   5
   3   0  -5 141.475 4.82317   1
   3   0  -5 143.954 4.73227   6
   3   0  -5 145.970 4.95858   5
   3   0  -5 146.341 4.85132   4
   3   0  -5 138.607 5.14900   6
  -3   0   5 145.569 4.73553   6
  -3   0   5 143.850 4.79645   5
  -3   0   5 140.863 5.05382   6
  -3   0   5 145.063 4.82814   5
  -3   0   5 150.440 5.33855   3
  -3   0   5 144.814 4.83555   1
   2   0  -5 3.55310 0.86950   6
   2   0  -5 1.21136 0.86319   1
   2   0  -5 1.23646 0.80063   5
   2   0  -5 2.92536 0.92352   6
   2   0  -5 3.29845 1.03931   5
   2   0  -5 1.81649 0.68315   4
  -2   0   5 1.23634 0.83841   1
  -2   0   5 3.20274 1.27396   3
  -2   0   5 2.03732 0.81117   5
  -2   0   5 2.77247 1.10737   6
  -2   0   5 2.87504 0.77452   5
  -2   0   5 3.49264 0.86028   6
   1   0  -5 32.2914 2.00900   5
   1   0  -5 32.0019 1.86590   6
   1   0  -5 34.5886 1.99568   1
   1   0  -5 35.2126 2.29695   6
   1   0  -5 34.1233 2.10619   5
   1   0  -5 34.6822 1.61267   4
  -1   0   5 33.0832 1.91173   1
  -1   0   5 33.7738 1.73793   4
  -1   0   5 33.7142 2.27439   6
  -1   0   5 36.6041 2.02140   5
  -1   0   5 31.5745 1.87953   6
  -1   0   5 32.8449 2.09763   3
  -1   0   5 35.4077 2.09775   5
   0   0  -5 694.687 19.2818   1
   0   0  -5 658.377 18.8208   4
   0   0  -5 705.528 19.3636   2
   0   0  -5 682.581 19.2235   6
   0   0  -5 713.471 19.6164   6
   0   0  -5 680.110 19.3709   5
   0   0  -5 677.801 19.3005   5
   0   0   5 685.625 19.3835   5
   0   0   5 701.389 19.2323   6
   0   0   5 674.645 19.5864   6
   0   0   5 691.619 19.2559   1
   0   0   5 721.478 18.8839   3
   0   0   5 707.142 19.3472   5
   0   0   5 693.209 18.8483   4
  -1   0  -5 5.65412 0.94398   6
  -1   0  -5 8.38970 0.76309   4
  -1   0  -5 8.16990 0.81797   3
  -1   0  -5 9.21045 1.15770   5
  -1   0  -5 7.46166 1.23125   2
  -1   0  -5 5.97563 1.15221   1
  -1   0  -5 6.13541 1.21030   6
  -1   0  -5 9.01299 1.20287   5
   1   0   5 8.18580 1.21769   1
   1   0   5 6.90493 0.66469   4
   1   0   5 6.45644 1.08708   5
   1   0   5 7.71692 1.09163   5
   1   0   5 9.35387 1.12971   6
  -2   0  -5 2.04734 1.06573   1
  -2   0  -5 2.23858 0.66945   4
  -2   0  -5 1.58309 0.88488   6
  -2   0  -5 1.88550 0.91805   5
  -2   0  -5 0.94375 0.80165   6
  -2   0  -5 3.09334 1.17845   2
  -2   0  -5 1.39396 0.77614   5
   2   0   5 3.21639 0.92017   5
   2   0   5 2.96963 1.05071   1
   2   0   5 2.83356 0.57050   4
   2   0   5 2.64909 0.99486   6
   2   0   5 1.36225 0.84727   5
   2   0   5 1.19736 0.85054   6
  -3   0  -5 6.96389 1.12396   5
  -3   0  -5 8.78664 1.59718   1
  -3   0  -5 8.22423 1.17332   5
  -3   0  -5 7.22832 1.07589   6
  -3   0  -5 7.56451 1.37976   6
  -3   0  -5 8.74196 1.03556   4
  -3   0  -5 7.16572 1.40874   2
   3   0   5 9.92250 1.20691   6
   3   0   5 7.66070 1.19696   5
   3   0   5 7.52743 0.85807   4
   3   0   5 6.96139 1.46268   1
   3   0   5 7.05161 1.32505   6
   3   0   5 9.68506 1.25133   5
  -4   0  -5 1.97729 0.92527   5
  -4   0  -5 -0.9673 0.82522   5
  -4   0  -5 0.47688 1.89084   2
  -4   0  -5 0.70715 1.01616   4
  -4   0  -5 -1.0184 1.05844   6
  -4   0  -5 -0.5801 0.81607   6
   4   0   5 1.09746 0.92527   4
   4   0   5 2.01236 1.11255   5
   4   0   5 2.72652 1.62010   1
   4   0   5 1.06017 1.11861   5
   4   0   5 1.06951 1.04856   6
   4   0   5 0.53593 1.31048   6
  -5   0  -5 5.89394 1.21749   6
  -5   0  -5 5.32860 2.04952   2
  -5   0  -5 4.91588 1.08577   6
   5   0   5 5.70257 1.42844   4
   5   0   5 6.34807 1.39295   6
   5   0   5 4.43925 1.35595   5
   5   0   5 4.52329 1.98639   1
   5   0   5 4.92632 1.46665   5
  -6   0  -5 73.5191 4.69748   2
   6   0   5 75.9073 3.95013   5
   6   0   5 78.2764 3.88708   6
   6   0   5 85.7728 3.94461   5
   6   0   5 83.4249 7.13989   1
   6   0   5 78.5635 4.03286   4
  -7   0  -5 11.2750 3.01551   2
   7   0   5 10.8616 2.05881   5
   7   0   5 11.5249 2.69191   4
   7   0   5 6.92791 2.07815   5
   7   0   5 7.93318 3.39062   1
  -8   0  -5 54.3514 5.90185   2
   8   0   5 67.1723 5.89029   1
   8   0   5 48.1468 5.14348   5
   8   0   5 51.4227 4.63147   5
   8   0   5 51.1612 3.84830   4
   9  -1  -5 1.94702 2.35915   5
   9  -1  -5 -1.0582 2.57508   5
   9  -1  -5 -3.2609 4.36186   4
   9  -1  -5 -1.8806 2.37862   6
  -9   1   5 -1.6248 3.28258   3
   8  -1  -5 39.0461 3.38439   6
   8  -1  -5 41.5941 3.82516   5
   8  -1  -5 45.4233 4.29767   4
   8  -1  -5 34.1157 3.39977   1
   8  -1  -5 38.5359 3.73170   5
  -8   1   5 46.5639 4.86652   3
   7  -1  -5 3.70375 1.61411   5
   7  -1  -5 0.88318 2.36990   4
   7  -1  -5 -0.0403 3.77119   4
   7  -1  -5 3.50783 1.48278   6
   7  -1  -5 0.09922 2.03077   6
   7  -1  -5 1.71841 1.94169   1
   7  -1  -5 4.76802 1.84018   5
  -7   1   5 3.68187 2.30853   3
   6  -1  -5 359.945 11.3836   4
   6  -1  -5 357.960 10.7990   5
   6  -1  -5 356.971 11.0716   6
   6  -1  -5 367.361 12.1362   4
   6  -1  -5 369.604 10.6447   6
   6  -1  -5 363.289 10.8150   1
   6  -1  -5 358.246 10.9267   5
  -6   1   5 348.663 11.8992   3
   5  -1  -5 7.04964 1.58371   4
   5  -1  -5 9.48305 1.42324   1
   5  -1  -5 7.68745 1.33967   5
   5  -1  -5 7.95834 1.23637   6
   5  -1  -5 8.41063 1.54024   5
   5  -1  -5 7.91768 1.66841   6
  -5   1   5 6.41888 2.00287   3
  -5   1   5 8.51001 1.28443   6
  -5   1   5 5.62827 1.26250   1
  -5   1   5 9.95315 1.43204   6
  -5   1   5 7.45122 1.09451   5
  -5   1   5 8.36223 1.12373   5
   4  -1  -5 0.96050 1.16053   4
   4  -1  -5 -1.3884 0.88196   1
   4  -1  -5 0.76548 1.00684   5
   4  -1  -5 1.68246 0.81350   6
   4  -1  -5 -0.4656 0.93680   5
   4  -1  -5 1.68042 1.23789   6
  -4   1   5 -0.5113 1.04432   6
  -4   1   5 0.97328 0.90629   5
  -4   1   5 -0.0466 1.51552   3
  -4   1   5 0.28387 0.96545   6
  -4   1   5 0.45406 0.92052   1
  -4   1   5 0.33095 0.96491   5
   3  -1  -5 1.88187 0.89512   6
   3  -1  -5 1.16790 0.92326   4
   3  -1  -5 0.81491 0.82199   5
   3  -1  -5 1.31078 0.87567   1
   3  -1  -5 0.19491 0.91648   5
   3  -1  -5 1.96611 0.78564   6
  -3   1   5 1.43591 0.84978   5
  -3   1   5 0.79745 1.07380   6
  -3   1   5 2.96351 1.01558   5
  -3   1   5 4.45751 1.59246   3
  -3   1   5 0.98189 1.02957   6
  -3   1   5 3.04299 0.86181   1
   2  -1  -5 55.0766 2.38042   1
   2  -1  -5 57.8976 2.68757   5
   2  -1  -5 44.0391 2.67810   6
   2  -1  -5 58.7707 2.77913   5
   2  -1  -5 56.0905 2.87419   6
   2  -1  -5 56.5753 2.34137   4
  -2   1   5 55.6087 2.69779   6
  -2   1   5 56.7229 2.64968   5
  -2   1   5 49.4125 2.36471   1
  -2   1   5 55.3664 3.28248   3
  -2   1   5 55.0736 2.59961   5
  -2   1   5 58.5494 2.92505   6
   1  -1  -5 80.8781 3.23541   5
   1  -1  -5 74.9971 3.04271   1
   1  -1  -5 82.3517 3.59256   2
   1  -1  -5 76.7813 3.28577   5
   1  -1  -5 79.3392 3.05841   6
   1  -1  -5 76.0430 3.43496   6
   1  -1  -5 78.9044 2.69640   4
  -1   1   5 78.8783 3.12864   6
  -1   1   5 77.4292 3.26853   5
  -1   1   5 80.6509 3.21917   5
  -1   1   5 76.2455 3.48302   6
  -1   1   5 88.1274 3.20160   3
  -1   1   5 81.4316 3.03237   1
   0  -1  -5 97.6364 3.87677   5
   0  -1  -5 99.3659 4.03790   6
   0  -1  -5 104.836 3.83931   5
   0  -1  -5 101.278 3.65799   6
   0  -1  -5 103.890 3.16343   4
   0  -1  -5 105.259 4.00466   2
   0  -1  -5 108.189 3.80734   1
   0   1   5 108.098 3.40447   3
   0   1   5 102.072 3.80005   5
   0   1   5 98.9810 4.09237   6
   0   1   5 102.875 3.93399   5
   0   1   5 109.112 3.77497   6
   0   1   5 100.996 3.72476   1
  -1  -1  -5 343.821 10.2685   5
  -1  -1  -5 354.406 10.2186   5
  -1  -1  -5 350.946 10.2979   1
  -1  -1  -5 344.894 10.4451   6
  -1  -1  -5 338.316 9.50475   4
  -1  -1  -5 349.638 10.2705   2
  -1  -1  -5 350.082 10.1308   6
   1   1   5 343.758 10.2916   1
   1   1   5 350.217 10.1635   6
   1   1   5 348.300 9.49253   4
   1   1   5 346.618 10.3391   5
   1   1   5 338.901 10.5423   6
   1   1   5 351.821 10.2745   5
  -2  -1  -5 206.921 6.66954   6
  -2  -1  -5 202.313 6.32576   6
  -2  -1  -5 188.064 7.07435   2
  -2  -1  -5 202.046 6.73512   1
  -2  -1  -5 207.144 6.49644   5
  -2  -1  -5 207.843 6.40269   5
   2   1   5 204.798 6.62204   5
   2   1   5 209.179 6.42529   6
   2   1   5 206.838 5.64212   4
   2   1   5 206.570 6.76802   6
   2   1   5 202.652 6.68195   1
   2   1   5 202.659 6.47623   5
  -3  -1  -5 3.42620 0.94499   5
  -3  -1  -5 4.90671 0.99085   6
  -3  -1  -5 3.56886 1.40391   2
  -3  -1  -5 5.10216 1.25939   6
  -3  -1  -5 4.47384 1.81678   1
   3   1   5 2.55174 1.22683   6
   3   1   5 3.39552 0.54208   4
   3   1   5 3.96874 1.18891   5
   3   1   5 2.70270 1.24126   6
   3   1   5 1.93512 1.46731   1
   3   1   5 3.01574 1.09336   5
  -4  -1  -5 14.6284 1.35173   6
  -4  -1  -5 16.5973 1.67203   5
  -4  -1  -5 15.9662 1.31307   5
  -4  -1  -5 16.5994 2.20766   2
  -4  -1  -5 16.5792 1.61380   6
   4   1   5 16.9433 2.25331   1
   4   1   5 11.6183 1.78756   6
   4   1   5 15.4282 1.65424   5
   4   1   5 15.2149 1.37958   4
   4   1   5 15.3156 1.67434   5
   4   1   5 15.8738 1.57988   6
  -5  -1  -5 15.0103 2.55637   2
  -5  -1  -5 10.4977 1.21089   6
  -5  -1  -5 13.1415 1.40291   6
   5   1   5 11.8598 1.88447   6
   5   1   5 13.8994 1.38943   4
   5   1   5 12.6144 1.68584   6
   5   1   5 10.2876 2.40651   1
   5   1   5 12.8846 1.72240   5
   5   1   5 12.4602 1.73497   5
  -6  -1  -5 55.2097 4.57522   2
   6   1   5 53.2079 3.36101   5
   6   1   5 45.5598 4.06430   1
   6   1   5 55.6387 3.54005   5
   6   1   5 53.2044 3.26839   4
   6   1   5 58.5761 3.01894   4
   6   1   5 49.4039 3.47240   6
  -7  -1  -5 42.6805 4.13807   2
   7   1   5 44.2710 3.99959   5
   7   1   5 42.1777 3.21219   4
   7   1   5 50.9954 3.72075   5
   7   1   5 45.5212 4.86220   1
   7   1   5 45.9917 3.35672   4
  -8  -1  -5 46.1660 4.77000   2
   8   1   5 50.9195 6.12426   1
   8   1   5 44.4844 4.59097   5
   8   1   5 45.1827 4.28584   5
   9  -2  -5 14.1153 4.49493   1
   9  -2  -5 23.8916 3.32138   5
   9  -2  -5 23.5251 3.15401   6
   9  -2  -5 15.3421 2.89290   5
   9  -2  -5 13.6568 4.78269   4
  -9   2   5 19.2734 4.20654   3
   8  -2  -5 12.6526 2.27119   6
   8  -2  -5 10.5254 2.45367   5
   8  -2  -5 9.66028 2.23196   5
   8  -2  -5 7.33806 2.53018   1
   8  -2  -5 16.3686 3.58097   4
  -8   2   5 9.32066 3.24666   3
   7  -2  -5 99.7666 4.24995   6
   7  -2  -5 97.7171 4.85461   5
   7  -2  -5 94.8826 7.38784   4
   7  -2  -5 100.683 4.48119   5
   7  -2  -5 94.8889 5.08222   6
   7  -2  -5 99.7677 4.36531   1
   7  -2  -5 90.3543 5.61231   4
  -7   2   5 91.9650 5.64719   3
   6  -2  -5 22.5098 2.28052   5
   6  -2  -5 25.2803 3.49841   4
   6  -2  -5 26.1965 2.65238   5
   6  -2  -5 25.3271 1.88782   1
   6  -2  -5 22.6912 2.43360   6
   6  -2  -5 23.5343 2.44739   6
  -6   2   5 23.3762 3.00775   3
  -6   2   5 22.7980 1.78389   5
  -6   2   5 21.5822 2.06599   6
  -6   2   5 21.2545 1.70954   5
   5  -2  -5 -0.0738 1.20979   5
   5  -2  -5 1.75780 1.03544   1
   5  -2  -5 1.80038 1.94360   4
   5  -2  -5 2.08580 1.11856   6
   5  -2  -5 -0.5214 1.47428   6
  -5   2   5 3.32092 1.91225   3
  -5   2   5 1.44353 1.27497   6
  -5   2   5 1.65914 0.97191   1
  -5   2   5 2.51344 1.14370   5
  -5   2   5 1.98499 1.33816   6
  -5   2   5 0.49403 1.10778   5
   4  -2  -5 177.656 5.91245   5
   4  -2  -5 170.258 6.29940   6
   4  -2  -5 168.022 6.39885   4
   4  -2  -5 170.842 5.67496   6
   4  -2  -5 173.995 5.38032   1
   4  -2  -5 170.833 6.02231   5
  -4   2   5 157.115 6.18081   5
  -4   2   5 171.425 6.15558   6
  -4   2   5 183.008 5.93944   6
  -4   2   5 178.731 5.35882   1
  -4   2   5 170.443 6.52175   3
  -4   2   5 180.660 5.77151   5
   3  -2  -5 50.7546 2.85750   5
   3  -2  -5 56.4188 3.17404   6
   3  -2  -5 54.8367 2.35013   1
   3  -2  -5 52.3720 2.56730   6
   3  -2  -5 51.5592 3.31477   2
   3  -2  -5 53.0775 2.77733   5
  -3   2   5 55.5640 3.30645   3
  -3   2   5 57.6268 3.10764   6
  -3   2   5 51.1929 2.77227   6
  -3   2   5 52.5972 2.28947   1
  -3   2   5 56.1022 2.88926   5
   2  -2  -5 298.010 9.05732   6
   2  -2  -5 309.459 9.50180   6
   2  -2  -5 313.016 9.25439   5
   2  -2  -5 307.465 8.85351   4
   2  -2  -5 295.668 8.77139   1
   2  -2  -5 312.309 9.34087   5
   2  -2  -5 292.833 9.52646   2
  -2   2   5 293.946 9.23715   5
  -2   2   5 304.952 9.33284   3
  -2   2   5 296.304 9.44368   6
  -2   2   5 310.686 9.24755   5
  -2   2   5 301.553 8.78378   1
  -2   2   5 306.146 9.17091   6
   1  -2  -5 0.11855 1.07433   5
   1  -2  -5 -0.7579 1.22924   2
   1  -2  -5 0.19274 0.56651   4
   1  -2  -5 0.94783 0.73289   6
   1  -2  -5 -0.1310 0.73455   1
   1  -2  -5 0.40058 1.11686   6
   1  -2  -5 0.73285 0.77965   5
  -1   2   5 0.33139 0.87621   5
  -1   2   5 0.15573 1.00324   5
  -1   2   5 0.84267 0.79928   1
  -1   2   5 -0.4266 0.81270   6
  -1   2   5 0.62849 1.12307   6
  -1   2   5 -0.6219 1.00467   3
   0  -2  -5 10.4131 0.80213   4
   0  -2  -5 10.9671 1.45021   5
   0  -2  -5 11.3494 1.39423   5
   0  -2  -5 10.4491 1.63883   2
   0  -2  -5 7.31583 1.21305   6
   0  -2  -5 8.78183 1.15961   1
   0  -2  -5 9.51641 1.19404   6
   0   2   5 9.86183 1.52968   6
   0   2   5 7.52516 1.11310   1
   0   2   5 10.0736 1.21696   3
   0   2   5 8.94577 1.30804   5
   0   2   5 13.0824 1.45247   6
   0   2   5 5.90964 1.09711   5
  -1  -2  -5 631.066 18.0140   6
  -1  -2  -5 648.394 18.2220   1
  -1  -2  -5 644.747 18.2324   5
  -1  -2  -5 640.617 18.4142   6
  -1  -2  -5 668.486 18.3652   2
  -1  -2  -5 657.471 18.1295   5
   1   2   5 639.740 18.2048   5
   1   2   5 650.059 18.1543   6
   1   2   5 639.246 18.2008   1
   1   2   5 659.982 17.4563   3
   1   2   5 652.339 18.3040   5
   1   2   5 588.015 18.9357   6
  -2  -2  -5 29.6935 1.92172   6
  -2  -2  -5 29.9954 2.39800   6
  -2  -2  -5 29.7037 2.28150   5
  -2  -2  -5 28.2651 2.54910   2
  -2  -2  -5 27.5857 2.02022   5
   2   2   5 32.0441 2.21485   5
   2   2   5 31.1932 2.39206   5
   2   2   5 32.4570 2.49942   6
   2   2   5 28.4201 2.18718   6
   2   2   5 30.9277 2.48630   1
  -3  -2  -5 12.0450 1.92639   2
  -3  -2  -5 10.0822 1.55842   6
  -3  -2  -5 12.4923 1.33404   5
  -3  -2  -5 11.4816 1.44396   5
  -3  -2  -5 8.03746 1.14156   6
   3   2   5 9.57977 1.46415   5
   3   2   5 6.92095 1.43396   5
   3   2   5 9.39168 1.36501   6
   3   2   5 12.3073 1.76925   6
   3   2   5 8.79216 1.82547   1
  -4  -2  -5 1.49117 0.94003   5
  -4  -2  -5 1.04841 0.98694   6
  -4  -2  -5 2.09925 1.86017   2
  -4  -2  -5 2.83675 1.03709   5
  -4  -2  -5 1.71773 1.29028   6
   4   2   5 2.67617 1.26822   6
   4   2   5 3.27745 1.33384   5
   4   2   5 1.31961 1.29568   3
   4   2   5 2.42587 1.99304   1
   4   2   5 -0.3982 1.22870   5
   4   2   5 3.40974 1.50072   6
  -5  -2  -5 1.19033 2.23410   2
  -5  -2  -5 1.05059 0.99624   6
  -5  -2  -5 -0.6838 1.19115   6
   5   2   5 2.03909 0.78310   4
   5   2   5 0.31353 0.72434   4
   5   2   5 1.88879 3.30709   1
   5   2   5 0.45130 1.62288   6
   5   2   5 0.66497 1.44661   5
   5   2   5 1.82080 1.76059   6
   5   2   5 1.22340 1.74486   3
   5   2   5 -0.0813 1.59602   5
  -6  -2  -5 14.1318 2.97919   2
   6   2   5 14.5947 2.36381   6
   6   2   5 14.6646 1.36783   4
   6   2   5 22.5718 3.83614   1
   6   2   5 14.3596 2.20017   5
   6   2   5 14.1994 2.37234   6
   6   2   5 14.9600 2.16714   5
   6   2   5 18.1842 1.61145   4
   6   2   5 18.4784 2.53750   3
  -7  -2  -5 50.9541 4.66997   2
   7   2   5 53.6590 4.02892   4
   7   2   5 43.7739 4.28197   5
   7   2   5 47.4969 5.18576   1
   7   2   5 47.1277 2.88805   4
   7   2   5 44.3882 4.07504   5
  -8  -2  -5 5.98431 4.05826   2
   8   2   5 2.35462 2.74630   5
   8   2   5 6.70066 5.43909   1
   8   2   5 -1.0447 2.64252   5
   9  -3  -5 15.3566 3.13201   5
   9  -3  -5 3.55854 4.43989   4
   9  -3  -5 10.7907 4.72953   5
  -9   3   5 5.50980 3.71437   3
   8  -3  -5 0.71807 1.78590   1
   8  -3  -5 -1.8901 2.18849   6
   8  -3  -5 0.15209 1.31934   1
   8  -3  -5 1.52542 2.52160   5
   8  -3  -5 1.98635 2.37240   5
  -8   3   5 3.73691 2.83323   3
   7  -3  -5 75.0895 3.93123   6
   7  -3  -5 79.3359 4.70044   5
   7  -3  -5 72.9767 3.00600   1
   7  -3  -5 61.8819 5.28715   4
   7  -3  -5 71.2094 4.21184   5
   7  -3  -5 71.0630 5.04878   6
  -7   3   5 75.2581 4.05003   6
  -7   3   5 63.6779 4.94412   3
   6  -3  -5 4.63219 1.01708   1
   6  -3  -5 4.44099 1.49620   6
   6  -3  -5 6.49834 2.86653   4
   6  -3  -5 3.28014 2.04461   6
   6  -3  -5 5.31608 2.03741   5
  -6   3   5 4.47267 1.48201   5
  -6   3   5 4.75484 1.36170   5
  -6   3   5 2.29282 2.28971   3
   5  -3  -5 495.145 14.5774   6
   5  -3  -5 504.663 14.9803   5
   5  -3  -5 502.721 14.7880   5
   5  -3  -5 533.884 15.9205   4
   5  -3  -5 464.214 15.3925   2
   5  -3  -5 523.100 15.1925   6
   5  -3  -5 499.908 13.8574   1
  -5   3   5 492.580 15.6167   3
  -5   3   5 517.486 14.5465   5
  -5   3   5 501.671 14.5816   5
  -5   3   5 498.751 13.8489   1
  -5   3   5 500.944 14.9605   6
   4  -3  -5 13.9240 2.62342   4
   4  -3  -5 14.4067 1.12745   1
   4  -3  -5 16.2365 1.86743   5
   4  -3  -5 15.0946 2.31010   2
   4  -3  -5 17.2402 1.95139   5
   4  -3  -5 12.3417 1.93370   6
   4  -3  -5 12.1878 1.35760   6
  -4   3   5 10.6424 2.12772   3
  -4   3   5 14.9402 1.88066   6
  -4   3   5 14.0224 1.69715   5
  -4   3   5 16.1383 1.43469   1
  -4   3   5 15.1726 1.84176   6
  -4   3   5 12.2928 1.61131   5
   3  -3  -5 10.8811 1.48955   6
   3  -3  -5 8.53913 0.95847   1
   3  -3  -5 9.06065 1.64565   5
   3  -3  -5 8.37019 1.90001   2
   3  -3  -5 10.1446 1.73737   6
   3  -3  -5 9.08955 1.51270   5
   3  -3  -5 12.2190 1.74380   4
  -3   3   5 10.8802 2.00928   3
  -3   3   5 8.83226 0.97079   1
  -3   3   5 7.08177 1.40341   5
  -3   3   5 9.01742 1.47430   6
  -3   3   5 6.28841 1.38187   6
  -3   3   5 7.52685 1.45253   5
   2  -3  -5 0.27587 1.01251   5
   2  -3  -5 1.07843 0.78583   1
   2  -3  -5 1.01696 1.27748   5
   2  -3  -5 0.20272 1.09334   4
   2  -3  -5 -0.0787 0.90778   6
   2  -3  -5 0.24134 1.34473   6
   2  -3  -5 1.57243 1.37819   2
  -2   3   5 0.14994 1.34286   3
  -2   3   5 2.88783 1.26476   5
  -2   3   5 2.06229 1.22727   5
  -2   3   5 1.85466 1.30571   6
  -2   3   5 2.16815 1.11424   6
  -2   3   5 0.30053 0.78877   1
   1  -3  -5 61.1089 2.59033   4
   1  -3  -5 60.5435 2.87593   6
   1  -3  -5 64.4294 3.41328   5
   1  -3  -5 63.9807 3.36119   2
   1  -3  -5 60.1366 3.05208   5
   1  -3  -5 65.4450 2.76598   1
   1  -3  -5 66.9610 3.50425   6
  -1   3   5 60.4458 3.35567   6
  -1   3   5 64.5956 2.74018   1
  -1   3   5 63.6084 3.30914   5
  -1   3   5 62.3439 3.22597   3
  -1   3   5 60.9610 3.18667   6
  -1   3   5 69.2635 3.36706   5
   0  -3  -5 68.3174 3.24837   5
   0  -3  -5 68.4109 3.11481   1
   0  -3  -5 72.0287 2.40119   4
   0  -3  -5 69.7222 3.11923   6
   0  -3  -5 72.9527 3.52174   5
   0  -3  -5 71.5363 3.61644   6
   0  -3  -5 68.4991 2.24988   4
   0  -3  -5 64.8624 3.35818   2
   0   3   5 69.6733 3.12584   3
   0   3   5 72.8682 3.41263   5
   0   3   5 67.9481 3.06659   1
   0   3   5 63.2256 3.28466   5
   0   3   5 72.2712 3.63049   6
   0   3   5 71.1580 3.41515   6
  -1  -3  -5 68.6595 3.07868   6
  -1  -3  -5 71.2178 3.58812   6
  -1  -3  -5 73.4447 3.54098   5
  -1  -3  -5 66.6585 3.14705   5
  -1  -3  -5 63.4528 3.47345   2
   1   3   5 73.4051 3.06946   3
   1   3   5 67.4468 3.32856   1
   1   3   5 64.2892 4.30877   6
   1   3   5 73.6441 3.43175   6
   1   3   5 67.3584 3.31108   5
   1   3   5 70.7273 3.46835   5
  -2  -3  -5 260.223 8.17856   6
  -2  -3  -5 252.098 8.67064   5
  -2  -3  -5 261.136 8.73569   2
  -2  -3  -5 273.225 8.66407   6
  -2  -3  -5 274.527 8.30342   5
   2   3   5 278.505 8.70429   1
   2   3   5 264.852 8.56289   5
   2   3   5 264.919 8.74724   6
   2   3   5 272.907 8.53392   6
   2   3   5 281.363 7.89079   3
   2   3   5 267.409 8.51587   5
  -3  -3  -5 75.5028 4.11776   2
  -3  -3  -5 75.4189 3.88058   6
  -3  -3  -5 80.6121 3.33309   5
  -3  -3  -5 73.0291 3.21338   6
  -3  -3  -5 76.5346 3.60368   5
   3   3   5 76.3788 4.21812   1
   3   3   5 77.5285 3.12232   3
   3   3   5 78.2947 3.83774   5
   3   3   5 87.3536 4.20078   6
   3   3   5 69.5101 3.76933   6
   3   3   5 79.9464 3.83743   5
  -4  -3  -5 2.77841 1.06499   6
  -4  -3  -5 1.20759 1.96448   2
  -4  -3  -5 1.81668 1.03579   5
  -4  -3  -5 2.62441 1.48358   6
  -4  -3  -5 2.32289 1.22603   5
   4   3   5 7.61715 1.75486   3
   4   3   5 2.51081 1.90778   6
   4   3   5 3.47464 1.63745   5
   4   3   5 3.79730 1.71673   6
   4   3   5 2.08303 1.52872   5
   4   3   5 1.65478 2.19093   1
  -5  -3  -5 26.5858 3.38249   2
  -5  -3  -5 23.6458 2.12642   6
  -5  -3  -5 27.0199 2.64814   6
   5   3   5 27.6537 3.63123   1
   5   3   5 28.5490 2.86555   6
   5   3   5 26.3537 2.51480   5
   5   3   5 34.0903 2.59548   3
   5   3   5 23.4892 2.40376   5
   5   3   5 25.5002 2.64055   6
  -6  -3  -5 11.1815 3.01165   2
   6   3   5 9.67332 2.41703   5
   6   3   5 11.8616 4.76343   3
   6   3   5 15.5533 2.51444   5
   6   3   5 11.7181 3.58790   1
   6   3   5 9.51567 3.99962   6
  -7  -3  -5 15.4616 3.78118   2
   7   3   5 14.2767 8.14285   1
   7   3   5 10.3358 2.69566   5
   7   3   5 12.9667 3.83092   6
   7   3   5 11.5301 2.75950   5
   9  -4  -5 5.75592 3.54683   2
   9  -4  -5 1.78895 4.24211   5
  -9   4   5 6.45078 3.74030   3
   8  -4  -5 14.7352 3.39857   5
   8  -4  -5 19.5711 3.07742   6
   8  -4  -5 16.2444 2.92266   5
   8  -4  -5 13.8064 3.48154   2
  -8   4   5 10.6370 3.28139   3
  -8   4   5 17.2231 2.36957   6
   7  -4  -5 10.3311 2.16972   6
   7  -4  -5 13.1128 2.73749   5
   7  -4  -5 13.9041 4.50243   4
   7  -4  -5 5.68099 3.06120   6
   7  -4  -5 10.6288 2.91204   2
   7  -4  -5 10.8527 2.32060   5
  -7   4   5 12.2959 2.35479   6
  -7   4   5 15.9285 1.61328   5
  -7   4   5 13.2431 1.67907   5
  -7   4   5 10.8572 3.23860   3
   6  -4  -5 114.511 6.87873   4
   6  -4  -5 106.962 5.73970   6
   6  -4  -5 125.284 5.62484   5
   6  -4  -5 113.835 4.87074   6
   6  -4  -5 102.294 5.67127   2
   6  -4  -5 112.071 5.09923   5
  -6   4   5 105.434 5.97089   3
  -6   4   5 114.139 4.73857   5
  -6   4   5 113.006 4.93339   5
  -6   4   5 111.633 5.35047   6
   5  -4  -5 10.1779 1.75484   6
   5  -4  -5 5.54192 1.93456   5
   5  -4  -5 5.82610 2.05522   6
   5  -4  -5 6.29460 2.29413   2
   5  -4  -5 8.47742 2.54460   4
   5  -4  -5 9.23035 1.92627   5
  -5   4   5 8.88596 2.03939   5
  -5   4   5 8.21138 2.42911   3
  -5   4   5 7.81149 2.00901   6
  -5   4   5 8.81835 1.82558   5
   4  -4  -5 7.29635 2.10238   2
   4  -4  -5 3.36831 1.89008   4
   4  -4  -5 8.21403 2.01101   5
   4  -4  -5 7.94211 1.75741   5
   4  -4  -5 4.47564 1.60810   6
   4  -4  -5 3.53985 1.34315   6
  -4   4   5 5.58140 1.68314   6
  -4   4   5 7.34145 0.75672   1
  -4   4   5 6.01874 2.13656   3
  -4   4   5 6.35969 1.67544   5
  -4   4   5 6.78188 1.68384   5
   3  -4  -5 96.2290 4.62772   5
   3  -4  -5 99.9594 4.21409   6
   3  -4  -5 96.2710 4.29656   5
   3  -4  -5 96.6436 4.38162   4
   3  -4  -5 98.3819 4.63197   2
   3  -4  -5 96.1862 4.78491   6
  -3   4   5 91.7283 4.55231   5
  -3   4   5 95.0395 4.70196   3
  -3   4   5 93.0038 4.61614   6
  -3   4   5 100.115 4.51184   6
  -3   4   5 93.9120 3.23886   1
   2  -4  -5 20.3493 1.81549   4
   2  -4  -5 17.8124 2.18706   2
   2  -4  -5 21.0756 1.99839   6
   2  -4  -5 21.6306 2.42191   6
   2  -4  -5 18.4048 1.97068   5
   2  -4  -5 17.3434 2.08219   5
  -2   4   5 17.0293 2.21242   3
  -2   4   5 16.3158 1.94591   5
  -2   4   5 13.0776 1.77723   5
  -2   4   5 19.5082 2.29193   6
  -2   4   5 18.3419 1.40623   1
  -2   4   5 16.3861 1.85604   6
   1  -4  -5 230.093 7.71966   5
   1  -4  -5 239.557 7.09608   4
   1  -4  -5 225.548 7.93122   2
   1  -4  -5 239.852 8.11499   6
   1  -4  -5 231.981 8.01287   5
   1  -4  -5 231.616 7.62503   6
  -1   4   5 235.844 7.92217   6
  -1   4   5 235.775 7.93496   5
  -1   4   5 229.235 8.07231   6
  -1   4   5 237.616 7.94847   5
  -1   4   5 241.358 7.27960   1
  -1   4   5 238.627 7.79244   3
   0  -4  -5 6.53169 1.74654   6
   0  -4  -5 7.75063 1.74916   2
   0  -4  -5 4.99454 1.32626   5
   0  -4  -5 6.38124 1.54934   5
   0  -4  -5 6.31652 0.78159   4
   0  -4  -5 5.41666 1.31948   6
   0   4   5 7.32535 1.40103   1
   0   4   5 5.26343 1.58498   6
   0   4   5 8.39220 1.73926   6
   0   4   5 5.32606 1.70872   5
   0   4   5 6.54176 1.71785   5
  -1  -4  -5 2.01800 1.66626   5
  -1  -4  -5 1.83533 1.16080   6
  -1  -4  -5 0.05862 1.17753   5
  -1  -4  -5 2.46957 1.57106   2
  -1  -4  -5 0.38572 1.53545   6
   1   4   5 3.19035 1.40811   1
   1   4   5 4.02287 1.66000   6
   1   4   5 1.48873 1.58741   6
   1   4   5 2.04109 1.63368   3
   1   4   5 0.88243 1.44359   5
   1   4   5 3.05365 1.67213   5
  -2  -4  -5 370.288 11.0998   5
  -2  -4  -5 351.535 11.6650   2
  -2  -4  -5 375.043 11.4057   5
  -2  -4  -5 375.337 11.6111   6
  -2  -4  -5 365.604 11.0402   6
   2   4   5 366.249 11.4998   5
   2   4   5 373.673 11.7376   6
   2   4   5 366.708 11.4886   5
   2   4   5 369.010 10.8503   3
   2   4   5 373.312 11.5267   6
   2   4   5 383.886 11.5975   1
  -3  -4  -5 16.3669 1.69767   6
  -3  -4  -5 22.1481 2.22998   5
  -3  -4  -5 16.9665 2.16913   6
  -3  -4  -5 25.8694 2.53825   5
  -3  -4  -5 22.0701 2.75359   2
   3   4   5 25.8404 2.66760   6
   3   4   5 16.5889 2.30079   1
   3   4   5 23.1577 2.07326   3
   3   4   5 19.5859 2.26480   6
   3   4   5 18.8466 2.26276   5
   3   4   5 22.7810 2.40179   5
  -4  -4  -5 3.58894 2.23344   2
  -4  -4  -5 4.67657 1.87525   6
  -4  -4  -5 4.38160 1.28844   5
  -4  -4  -5 1.86172 1.56981   5
  -4  -4  -5 4.12317 1.33476   6
   4   4   5 4.66600 2.03544   6
   4   4   5 5.74960 1.99269   3
   4   4   5 6.28012 2.47409   1
   4   4   5 4.19003 1.99950   6
   4   4   5 4.31777 2.14715   5
   4   4   5 2.75095 1.87776   5
  -5  -4  -5 1.90108 1.26748   6
  -5  -4  -5 0.92613 1.66960   6
  -5  -4  -5 0.76379 2.60684   2
   5   4   5 2.21090 2.24988   5
   5   4   5 -2.0835 2.24544   6
   5   4   5 3.30817 2.75177   3
   5   4   5 -0.0649 1.99328   5
   5   4   5 -0.3339 3.07743   1
  -6  -4  -5 -0.4422 2.80060   2
   6   4   5 4.70900 4.25674   6
   6   4   5 -1.0471 4.02754   1
   6   4   5 4.77537 2.63289   5
   6   4   5 -6.0230 2.31683   5
  -7  -4  -5 20.6766 4.26019   2
   7   4   5 22.9641 5.10829   5
   7   4   5 16.7710 3.53416   5
   7   4   5 10.5229 5.45603   1
   8  -5  -5 34.9988 3.84931   5
   8  -5  -5 34.5533 4.32746   2
   8  -5  -5 44.4019 5.96064   5
  -8   5   5 31.9144 7.24658   3
  -8   5   5 46.7537 5.01358   6
   7  -5  -5 -1.0409 2.94752   5
   7  -5  -5 1.86637 2.47768   6
   7  -5  -5 -1.5427 2.71794   2
   7  -5  -5 -2.4005 2.35154   5
  -7   5   5 -2.6089 2.94819   3
  -7   5   5 0.60528 2.53987   6
  -7   5   5 -0.7396 2.84449   5
  -7   5   5 3.23809 2.07983   5
   6  -5  -5 76.7058 5.03284   2
   6  -5  -5 77.5440 6.67556   4
   6  -5  -5 83.9055 6.05469   6
   6  -5  -5 73.5818 4.36876   6
   6  -5  -5 78.2976 4.84554   5
   6  -5  -5 74.3349 5.23257   5
  -6   5   5 66.0090 5.45514   3
  -6   5   5 82.2104 4.69123   5
  -6   5   5 81.2578 4.92831   5
  -6   5   5 75.1157 5.05411   6
   5  -5  -5 1.55967 1.99021   2
   5  -5  -5 0.23426 1.67044   5
   5  -5  -5 3.90971 2.58779   4
   5  -5  -5 0.43911 2.42106   6
   5  -5  -5 1.69132 1.72717   6
   5  -5  -5 2.76848 2.32938   5
  -5   5   5 1.06244 2.07365   5
  -5   5   5 3.41881 1.91587   5
  -5   5   5 1.90607 2.02331   6
  -5   5   5 1.55354 2.34450   3
   4  -5  -5 440.373 13.6529   5
   4  -5  -5 422.287 13.2912   5
   4  -5  -5 405.503 13.4676   2
   4  -5  -5 436.769 13.2123   6
   4  -5  -5 444.661 13.8379   6
   4  -5  -5 446.564 13.4746   4
  -4   5   5 406.973 13.7631   3
  -4   5   5 432.477 13.2391   5
  -4   5   5 433.960 13.4373   5
  -4   5   5 428.525 13.6642   6
   3  -5  -5 26.7531 2.53397   4
   3  -5  -5 17.1391 2.25655   6
   3  -5  -5 21.8821 2.62951   5
   3  -5  -5 22.6041 2.70445   2
   3  -5  -5 24.2271 2.39245   6
   3  -5  -5 26.7505 2.62561   5
  -3   5   5 14.0722 2.24481   6
  -3   5   5 23.7508 2.68751   5
  -3   5   5 22.0944 1.66220   1
  -3   5   5 21.3358 2.42848   5
  -3   5   5 20.7549 2.82467   3
   2  -5  -5 18.3792 2.05051   6
   2  -5  -5 16.9769 2.57625   6
   2  -5  -5 17.9836 2.34374   5
   2  -5  -5 19.4347 1.91171   4
   2  -5  -5 16.2189 2.35455   2
   2  -5  -5 19.8537 2.25203   5
  -2   5   5 21.2019 2.43823   5
  -2   5   5 20.1953 2.59833   6
  -2   5   5 16.6807 2.20057   5
  -2   5   5 23.4377 2.74986   3
  -2   5   5 20.7630 2.46872   6
  -2   5   5 20.1180 1.57040   1
   1  -5  -5 0.75694 1.76687   2
   1  -5  -5 1.36237 1.06770   4
   1  -5  -5 1.92559 1.85169   6
   1  -5  -5 3.00673 1.59765   5
   1  -5  -5 0.40939 1.64549   5
   1  -5  -5 0.22404 1.42342   6
  -1   5   5 1.18299 1.19665   1
  -1   5   5 -1.8192 1.72155   5
  -1   5   5 -0.2501 1.53223   6
  -1   5   5 0.97868 1.74392   5
  -1   5   5 0.43732 1.83385   3
  -1   5   5 0.66517 1.72544   6
   0  -5  -5 33.4478 3.53017   6
   0  -5  -5 39.0709 3.59193   5
   0  -5  -5 27.4750 3.05032   2
   0  -5  -5 32.6776 3.08297   5
   0  -5  -5 31.8174 1.70131   4
   0  -5  -5 34.5558 2.93625   6
   0   5   5 32.7005 3.53865   6
   0   5   5 37.7676 2.89444   1
   0   5   5 37.2411 3.58525   5
   0   5   5 29.7892 3.13321   3
   0   5   5 32.1213 3.44464   5
   0   5   5 36.1384 3.56564   6
  -1  -5  -5 58.9242 3.90455   6
  -1  -5  -5 55.7169 4.07798   5
  -1  -5  -5 50.8517 3.66368   2
  -1  -5  -5 52.4897 3.35275   5
  -1  -5  -5 51.8830 3.36148   6
   1   5   5 57.5758 4.10185   5
   1   5   5 56.8773 3.99652   5
   1   5   5 57.7103 3.71689   3
   1   5   5 61.5576 4.12449   6
   1   5   5 55.0619 3.65371   1
   1   5   5 52.7446 4.21689   6
  -2  -5  -5 25.8836 2.69981   5
  -2  -5  -5 26.1661 2.98719   2
  -2  -5  -5 25.1250 2.24689   5
  -2  -5  -5 20.1229 2.01472   6
  -2  -5  -5 18.7155 2.23901   6
   2   5   5 22.2202 2.52766   5
   2   5   5 22.1501 2.58871   5
   2   5   5 18.1413 2.49745   6
   2   5   5 23.6276 2.39822   3
   2   5   5 20.4741 2.51433   6
   2   5   5 22.3593 2.52452   1
  -3  -5  -5 149.017 6.13146   5
  -3  -5  -5 150.467 5.79333   6
  -3  -5  -5 157.660 5.76924   5
  -3  -5  -5 149.331 6.63890   2
  -3  -5  -5 161.294 6.61398   6
   3   5   5 165.441 6.69218   6
   3   5   5 162.076 6.47859   5
   3   5   5 138.038 7.18266   5
   3   5   5 159.091 5.75951   3
   3   5   5 151.247 6.70885   6
  -4  -5  -5 22.5513 1.97204   5
  -4  -5  -5 24.3703 2.38203   5
  -4  -5  -5 20.4253 3.25101   2
  -4  -5  -5 19.4703 2.01409   6
  -4  -5  -5 23.4611 2.71626   6
   4   5   5 25.1472 3.34890   5
   4   5   5 26.0042 2.84687   3
   4   5   5 19.4729 3.01966   6
   4   5   5 21.4795 2.96376   5
   4   5   5 14.2266 3.24243   1
  -5  -5  -5 2.38849 1.99929   6
  -5  -5  -5 -2.7362 2.61274   2
  -5  -5  -5 0.13270 1.50332   6
   5   5   5 -1.5346 3.56798   1
   5   5   5 -1.3843 2.50550   5
   5   5   5 4.80174 3.35174   6
   5   5   5 -1.9222 2.95455   3
   5   5   5 -3.5238 2.55535   5
  -6  -5  -5 23.5731 4.14025   2
   6   5   5 21.9129 3.50100   5
   6   5   5 14.1485 5.08129   1
   6   5   5 25.8317 4.07393   5
   8  -6  -5 1.71280 3.27962   2
   8  -6  -5 6.64683 3.49750   5
  -8   6   5 -0.1539 3.84527   3
  -8   6   5 10.7577 3.48257   6
  -8   6   5 5.33947 2.51912   5
   7  -6  -5 7.99463 2.96254   5
   7  -6  -5 3.70813 2.77594   2
   7  -6  -5 3.39645 3.99436   5
   7  -6  -5 3.52771 3.08894   6
  -7   6   5 4.60413 3.12775   6
  -7   6   5 4.57196 2.84968   5
  -7   6   5 3.51486 3.43510   3
   6  -6  -5 5.95225 3.20646   5
   6  -6  -5 5.64372 2.49172   6
   6  -6  -5 9.81931 2.96510   5
   6  -6  -5 12.2270 3.60468   6
   6  -6  -5 8.28709 2.75910   2
   6  -6  -5 11.0259 4.00039   4
  -6   6   5 10.4420 2.79268   5
  -6   6   5 11.2629 3.20280   3
  -6   6   5 10.0700 2.90615   6
  -6   6   5 8.22944 3.12004   5
   5  -6  -5 83.5537 5.03854   2
   5  -6  -5 91.7236 5.96864   6
   5  -6  -5 96.5295 6.16317   5
   5  -6  -5 97.6238 6.88702   4
   5  -6  -5 90.9046 6.33330   6
  -5   6   5 82.7916 5.72261   3
  -5   6   5 94.2336 6.03465   5
  -5   6   5 94.8139 5.39030   5
  -5   6   5 93.1270 5.96271   6
   4  -6  -5 5.67338 2.29932   5
   4  -6  -5 1.21833 1.82382   6
   4  -6  -5 1.81397 2.36970   4
   4  -6  -5 0.27584 2.51074   6
   4  -6  -5 2.87271 2.47336   5
   4  -6  -5 1.60132 1.96461   2
  -4   6   5 2.93146 2.55518   6
  -4   6   5 2.27100 2.58942   3
  -4   6   5 2.95620 2.65722   5
   3  -6  -5 10.3840 2.24954   5
   3  -6  -5 8.52200 2.38824   2
   3  -6  -5 6.48964 2.10876   6
   3  -6  -5 7.61917 2.50131   5
   3  -6  -5 11.4565 2.22592   4
   3  -6  -5 8.77284 2.79006   6
  -3   6   5 7.75987 2.65741   5
  -3   6   5 9.69156 2.56392   5
  -3   6   5 8.74486 1.10645   1
  -3   6   5 11.7577 2.76652   6
  -3   6   5 6.72482 1.12741   1
  -3   6   5 7.57666 2.52891   3
   2  -6  -5 45.9321 3.23988   4
   2  -6  -5 51.1350 4.70367   5
   2  -6  -5 38.2106 3.64813   6
   2  -6  -5 39.1555 3.69701   2
   2  -6  -5 45.0920 4.53961   6
   2  -6  -5 38.5972 3.87361   5
  -2   6   5 46.2049 4.38594   6
  -2   6   5 43.6279 2.77239   1
  -2   6   5 40.6749 3.96384   3
  -2   6   5 51.6944 4.38442   5
  -2   6   5 44.3288 4.58139   5
   1  -6  -5 -3.1651 1.89995   5
   1  -6  -5 -1.2707 1.13306   4
   1  -6  -5 0.69140 2.10883   5
   1  -6  -5 -0.4490 1.78512   6
   1  -6  -5 -1.2776 1.64094   6
   1  -6  -5 -0.0447 1.85809   2
  -1   6   5 0.62531 2.04794   6
  -1   6   5 0.32301 1.49075   1
  -1   6   5 2.79357 2.14847   5
  -1   6   5 0.23685 2.06304   3
  -1   6   5 0.49295 2.44774   5
   0  -6  -5 124.973 4.01184   4
   0  -6  -5 119.409 5.57324   5
   0  -6  -5 125.994 6.14911   6
   0  -6  -5 125.166 5.97491   6
   0  -6  -5 124.377 6.20548   5
   0  -6  -5 111.185 5.63584   2
   0   6   5 128.961 5.23526   1
   0   6   5 116.527 6.16892   5
   0   6   5 125.753 6.16843   6
   0   6   5 117.799 5.60291   3
   0   6   5 127.930 6.09542   5
  -1  -6  -5 17.0559 2.30698   6
  -1  -6  -5 13.1091 2.58536   2
  -1  -6  -5 11.1334 2.09300   5
  -1  -6  -5 18.1087 2.78648   6
  -1  -6  -5 14.5384 0.93321   4
  -1  -6  -5 14.8049 2.93334   5
   1   6   5 17.2089 2.88335   5
   1   6   5 16.3883 2.49224   1
   1   6   5 14.7841 2.71128   6
   1   6   5 15.6159 2.54813   3
   1   6   5 18.1412 2.91415   5
  -2  -6  -5 3.87838 2.19132   2
  -2  -6  -5 6.87785 2.62015   6
  -2  -6  -5 3.16184 1.77393   5
  -2  -6  -5 6.36157 2.46434   6
  -2  -6  -5 4.51833 2.51791   5
   2   6   5 7.37162 2.36235   6
   2   6   5 9.57006 2.66391   5
   2   6   5 7.75641 2.51719   1
   2   6   5 8.42232 2.57505   5
   2   6   5 6.82816 2.35486   3
  -3  -6  -5 170.446 6.63432   5
  -3  -6  -5 180.750 7.54697   6
  -3  -6  -5 176.410 6.63671   6
  -3  -6  -5 176.647 7.67439   2
  -3  -6  -5 165.163 7.21437   5
   3   6   5 178.683 7.86696   1
   3   6   5 179.884 6.78378   3
   3   6   5 181.192 7.69647   5
   3   6   5 189.137 7.82177   6
   3   6   5 182.652 7.75696   5
  -4  -6  -5 10.2487 2.77750   6
  -4  -6  -5 4.16792 1.92681   6
  -4  -6  -5 3.99274 3.15476   2
   4   6   5 14.5726 3.83210   1
   4   6   5 4.88089 3.02812   5
   4   6   5 6.71767 2.98344   3
   4   6   5 9.07691 3.69348   6
   4   6   5 6.54493 3.88478   5
  -5  -6  -5 1.18361 2.52475   6
  -5  -6  -5 1.66750 3.31107   2
  -5  -6  -5 0.36361 1.92323   6
   5   6   5 -6.1775 4.31671   1
   5   6   5 0.02504 3.17230   5
   5   6   5 5.01102 3.68099   5
   5   6   5 0.56524 3.38169   3
  -6  -6  -5 4.21051 3.47585   2
   7  -7  -5 54.4307 4.73273   5
   7  -7  -5 61.9486 5.41495   2
  -7   7   5 51.1773 5.15152   6
  -7   7   5 53.1466 8.50546   3
   6  -7  -5 8.02644 4.56982   5
   6  -7  -5 1.92098 2.63828   2
   6  -7  -5 -0.6439 2.90861   5
   6  -7  -5 -0.1943 3.31133   6
  -6   7   5 0.87127 3.29565   5
  -6   7   5 2.26874 3.02281   3
  -6   7   5 3.19280 3.54379   6
   5  -7  -5 54.0978 4.87417   4
   5  -7  -5 43.4119 4.48419   2
   5  -7  -5 43.5683 3.90465   6
   5  -7  -5 34.7654 3.64870   5
   5  -7  -5 46.2502 5.10243   6
   5  -7  -5 38.5391 4.30469   5
  -5   7   5 33.6043 4.02122   6
  -5   7   5 41.6716 4.51594   5
  -5   7   5 36.8583 4.41967   3
   4  -7  -5 0.39642 2.33390   6
   4  -7  -5 1.90205 2.31462   2
   4  -7  -5 -0.7646 3.44178   6
   4  -7  -5 0.71071 2.71316   5
   4  -7  -5 -2.0641 3.21984   5
   4  -7  -5 1.81395 2.86614   4
  -4   7   5 4.85939 3.06335   5
  -4   7   5 -1.4581 2.72963   5
  -4   7   5 2.98306 3.06846   3
   3  -7  -5 249.070 8.80192   4
   3  -7  -5 273.814 9.42098   6
   3  -7  -5 258.480 10.2418   5
   3  -7  -5 240.009 9.21121   2
   3  -7  -5 253.357 9.51923   5
   3  -7  -5 268.656 10.3287   6
  -3   7   5 254.081 9.96454   6
  -3   7   5 252.070 10.2428   5
  -3   7   5 249.068 7.47511   1
  -3   7   5 254.048 9.82723   5
  -3   7   5 238.813 9.52483   3
  -3   7   5 245.360 7.43469   1
   2  -7  -5 25.5487 3.46323   6
   2  -7  -5 17.6113 4.06458   5
   2  -7  -5 18.7773 2.67174   2
   2  -7  -5 16.5888 2.80016   5
   2  -7  -5 21.3473 2.91285   6
  -2   7   5 23.6575 3.50999   5
  -2   7   5 19.4497 3.18110   3
  -2   7   5 20.6002 3.44073   5
  -2   7   5 14.1590 2.98333   6
  -2   7   5 22.1830 1.98486   1
  -2   7   5 19.2228 2.04951   1
   1  -7  -5 15.8009 2.74912   2
   1  -7  -5 19.3012 3.13511   6
   1  -7  -5 17.0087 2.66078   6
   1  -7  -5 18.0690 3.59837   5
   1  -7  -5 18.7232 3.08796   5
   1  -7  -5 20.8919 1.88242   4
  -1   7   5 20.4557 3.03945   3
  -1   7   5 18.0685 3.39097   5
  -1   7   5 21.0731 2.37554   1
  -1   7   5 19.3760 3.50713   5
  -1   7   5 23.8871 3.72014   6
  -1   7   5 18.8617 2.33188   1
   0  -7  -5 3.09910 2.42324   2
   0  -7  -5 8.00374 2.76004   5
   0  -7  -5 5.69580 2.85328   5
   0  -7  -5 7.07216 1.21457   4
   0  -7  -5 9.12736 2.49058   6
   0  -7  -5 10.5736 3.06839   6
   0   7   5 9.33600 3.09774   5
   0   7   5 10.3568 2.75952   3
   0   7   5 7.09345 2.95698   5
   0   7   5 5.52844 2.27396   1
   0   7   5 3.76226 2.70919   6
   0   7   5 3.07457 2.26525   1
  -1  -7  -5 10.4714 2.74030   2
  -1  -7  -5 8.87154 0.91633   4
  -1  -7  -5 9.08890 3.26111   5
  -1  -7  -5 9.23966 2.87633   6
  -1  -7  -5 9.24488 2.71781   6
  -1  -7  -5 3.14272 2.22234   5
   1   7   5 8.02888 2.90426   1
   1   7   5 9.55473 3.04742   5
   1   7   5 9.14275 3.39497   6
   1   7   5 5.88674 2.53263   1
   1   7   5 9.30481 2.81404   3
   1   7   5 6.00692 3.27641   5
  -2  -7  -5 33.3974 3.89351   2
  -2  -7  -5 31.9371 3.14423   5
  -2  -7  -5 38.3347 4.08880   5
  -2  -7  -5 40.5127 4.31586   6
   2   7   5 38.3480 4.34460   1
   2   7   5 36.2066 3.53441   3
   2   7   5 45.3638 4.22366   5
   2   7   5 37.7673 4.09754   5
   2   7   5 35.2156 3.95419   6
   2   7   5 35.8231 3.72130   1
  -3  -7  -5 4.28840 2.36825   6
  -3  -7  -5 4.93362 3.28232   6
  -3  -7  -5 6.59646 3.09288   2
  -3  -7  -5 3.13402 2.53071   5
   3   7   5 8.28376 3.56321   5
   3   7   5 5.85844 3.62993   6
   3   7   5 2.91413 3.49508   1
   3   7   5 5.26032 3.58500   5
   3   7   5 -1.1403 4.28974   1
   3   7   5 5.57534 2.71123   3
  -4  -7  -5 79.4577 5.03027   6
  -4  -7  -5 58.4679 5.79574   2
  -4  -7  -5 79.7629 5.17156   5
  -4  -7  -5 80.8258 6.51739   6
   4   7   5 85.9897 8.02140   1
   4   7   5 92.5837 7.15403   5
   4   7   5 68.4647 7.53592   5
   4   7   5 77.1592 5.35785   3
  -5  -7  -5 2.41570 2.40122   6
  -5  -7  -5 4.82212 3.51471   6
  -5  -7  -5 3.55785 3.39291   2
   5   7   5 5.41783 4.36238   3
   5   7   5 7.98571 5.74815   1
   5   7   5 8.55707 4.41499   5
   7  -8  -5 3.42913 3.35439   2
   7  -8  -5 2.57148 4.79507   5
  -7   8   5 3.59910 4.94932   6
  -7   8   5 0.85653 4.14160   3
   6  -8  -5 1.38431 2.87183   2
   6  -8  -5 -1.4555 4.03182   5
  -6   8   5 4.16896 4.22400   6
   5  -8  -5 11.1277 4.02716   5
   5  -8  -5 11.7866 4.41043   4
   5  -8  -5 12.4942 5.01521   6
   5  -8  -5 2.92675 2.82562   2
   5  -8  -5 5.61476 4.84700   5
   5  -8  -5 6.86661 3.16667   6
  -5   8   5 -1.5799 4.29980   6
  -5   8   5 4.78252 3.66070   3
  -5   8   5 5.20025 3.84099   5
   4  -8  -5 49.2456 4.62817   2
   4  -8  -5 46.3784 4.28285   6
   4  -8  -5 58.5881 5.49282   5
   4  -8  -5 36.4241 4.38700   6
   4  -8  -5 58.5307 5.52745   5
   4  -8  -5 58.2488 4.67716   4
  -4   8   5 49.9597 5.03262   6
  -4   8   5 49.4796 5.50596   5
  -4   8   5 47.6615 4.81346   3
  -4   8   5 53.7252 5.15950   5
   3  -8  -5 3.76801 4.12338   5
   3  -8  -5 2.16275 3.83463   6
   3  -8  -5 -0.7788 2.38027   2
   3  -8  -5 1.89314 2.55779   4
   3  -8  -5 4.91558 3.18891   5
   3  -8  -5 2.02340 2.95512   6
  -3   8   5 -0.2983 1.45068   1
  -3   8   5 3.08626 1.44649   1
  -3   8   5 1.53262 4.34765   5
  -3   8   5 2.13110 3.10356   3
  -3   8   5 4.00946 3.22665   5
  -3   8   5 7.92607 3.77451   6
   2  -8  -5 -6.0204 2.85874   5
   2  -8  -5 8.02724 3.82885   5
   2  -8  -5 2.78551 2.38189   2
   2  -8  -5 0.36847 2.10725   4
   2  -8  -5 3.68153 2.95237   6
  -2   8   5 4.58144 1.99317   1
  -2   8   5 2.27138 3.56842   5
  -2   8   5 2.47666 4.00468   6
  -2   8   5 1.34823 2.93395   3
  -2   8   5 1.83302 2.02420   1
  -2   8   5 1.24867 3.62983   5
   1  -8  -5 19.9390 4.74763   5
   1  -8  -5 22.6645 3.96608   6
   1  -8  -5 20.9207 3.62699   5
   1  -8  -5 19.0008 3.17903   2
   1  -8  -5 25.1947 3.56877   6
   1  -8  -5 21.4724 2.22145   4
  -1   8   5 23.8761 4.28594   6
  -1   8   5 22.7752 2.92339   1
  -1   8   5 24.9739 2.77215   1
  -1   8   5 16.0251 4.02340   5
  -1   8   5 18.6268 3.34585   3
  -1   8   5 15.5233 3.92682   5
   0  -8  -5 4.30664 2.67591   2
   0  -8  -5 7.55405 1.56814   4
   0  -8  -5 4.28448 2.89800   6
   0  -8  -5 5.37027 2.93722   5
   0  -8  -5 4.75417 2.76593   6
   0  -8  -5 5.13775 4.09028   5
   0   8   5 2.24598 2.81930   1
   0   8   5 5.67714 2.91827   3
   0   8   5 6.78903 4.09783   5
   0   8   5 9.38078 3.46500   6
   0   8   5 1.82586 3.71081   5
   0   8   5 6.69287 2.93120   1
  -1  -8  -5 63.1653 2.65044   4
  -1  -8  -5 63.1005 6.69796   6
  -1  -8  -5 54.6273 5.77381   6
  -1  -8  -5 61.0411 5.51166   5
  -1  -8  -5 56.3201 5.04957   2
  -1  -8  -5 65.9828 5.77403   5
   1   8   5 80.1541 7.02851   6
   1   8   5 67.6983 5.95398   1
   1   8   5 72.9201 6.35659   1
   1   8   5 60.2754 5.41761   5
   1   8   5 57.8932 5.25228   3
   1   8   5 56.1094 5.39487   5
  -2  -8  -5 13.6833 3.22332   5
  -2  -8  -5 9.79752 3.06502   6
  -2  -8  -5 9.53007 3.11741   2
   2   8   5 9.01041 4.02610   1
   2   8   5 12.4916 3.40047   3
   2   8   5 16.9819 4.43911   6
   2   8   5 14.4881 4.34741   5
   2   8   5 11.3963 4.33449   1
   2   8   5 12.5189 5.24313   5
  -3  -8  -5 13.5247 3.33171   6
  -3  -8  -5 8.66674 4.88444   2
  -3  -8  -5 -1.1446 4.66704   6
   3   8   5 8.71897 4.39756   1
   3   8   5 9.62052 3.31346   3
   3   8   5 8.24883 4.67502   5
  -4  -8  -5 69.5774 6.21672   2
  -4  -8  -5 57.3199 6.37537   6
   4   8   5 51.5176 6.33455   1
   4   8   5 61.8265 6.16886   5
   4   8   5 63.1079 5.79528   3
   6  -9  -5 54.4774 5.90270   2
   6  -9  -5 69.8316 6.97258   5
  -6   9   5 57.6245 6.05503   3
  -6   9   5 58.2113 7.04749   6
   5  -9  -5 17.5804 7.22793   6
   5  -9  -5 4.56424 4.95834   5
   5  -9  -5 7.15803 3.00909   2
  -5   9   5 -0.6173 4.44219   3
  -5   9   5 -3.2081 5.61759   6
   4  -9  -5 7.60394 3.82828   6
   4  -9  -5 2.85528 4.21041   4
   4  -9  -5 6.93250 6.13263   6
   4  -9  -5 13.7370 4.79088   5
   4  -9  -5 7.16063 6.79064   5
   4  -9  -5 7.64734 3.23169   2
  -4   9   5 10.0307 5.06471   5
  -4   9   5 2.03366 5.05558   6
  -4   9   5 5.00474 3.81232   3
   3  -9  -5 7.57913 2.98150   2
   3  -9  -5 13.7372 3.55663   4
   3  -9  -5 7.80615 3.86710   6
   3  -9  -5 12.6550 5.59747   6
   3  -9  -5 23.5310 6.39819   5
   3  -9  -5 8.29670 4.39449   5
  -3   9   5 10.3624 5.75764   5
  -3   9   5 11.3026 1.93135   1
  -3   9   5 11.5999 1.88284   1
  -3   9   5 9.77696 3.49523   3
  -3   9   5 12.5874 4.18358   5
  -3   9   5 10.3519 5.24257   6
   2  -9  -5 118.099 8.16983   5
   2  -9  -5 123.423 6.29258   4
   2  -9  -5 112.122 9.25015   6
   2  -9  -5 125.793 11.0205   5
   2  -9  -5 115.702 6.61030   2
   2  -9  -5 131.061 8.02976   6
  -2   9   5 117.060 11.0192   5
  -2   9   5 120.339 10.3220   5
  -2   9   5 126.853 7.34567   1
  -2   9   5 125.557 7.23758   3
  -2   9   5 122.951 9.73375   6
  -2   9   5 138.499 5.87211   1
   1  -9  -5 14.6421 6.15612   5
   1  -9  -5 9.80964 4.12800   6
   1  -9  -5 6.05155 4.02422   5
   1  -9  -5 12.2585 3.30894   2
   1  -9  -5 16.1646 2.48177   4
   1  -9  -5 8.12080 3.65435   6
  -1   9   5 12.1003 5.69539   5
  -1   9   5 14.8158 4.79299   5
  -1   9   5 11.6212 3.26204   1
  -1   9   5 10.9949 4.80345   6
  -1   9   5 10.3644 3.23531   1
  -1   9   5 9.60314 3.12484   3
   0  -9  -5 14.4182 3.95862   6
   0  -9  -5 11.1568 4.21013   5
   0  -9  -5 12.9645 2.08055   4
   0  -9  -5 9.41135 3.33039   2
   0  -9  -5 16.1665 5.23282   6
   0   9   5 5.77700 4.86884   5
   0   9   5 9.59172 3.78722   1
   0   9   5 5.68029 6.01624   5
   0   9   5 12.5158 4.13677   1
   0   9   5 7.71458 3.57334   3
   0   9   5 13.4647 4.50912   6
  -1  -9  -5 13.0918 4.08335   6
  -1  -9  -5 7.30221 3.19693   2
  -1  -9  -5 2.29240 4.44540   5
   1   9   5 10.3543 5.07923   1
   1   9   5 14.7177 5.39570   6
   1   9   5 10.4178 4.26597   1
   1   9   5 4.58600 8.28827   5
   1   9   5 11.4167 3.65928   3
   1   9   5 8.54680 5.10047   5
  -2  -9  -5 -2.4006 3.54392   6
  -2  -9  -5 4.51447 3.46713   2
   2   9   5 4.16956 5.03215   1
   2   9   5 4.49661 3.40944   3
   2   9   5 -0.9156 5.36188   5
   4 -10  -5 3.80125 5.80794   5
   4 -10  -5 -0.0095 3.36878   2
  -4  10   5 5.15727 4.07956   3
  -4  10   5 15.1622 7.03280   6
   3 -10  -5 13.0735 3.69839   2
   3 -10  -5 14.4606 4.97343   6
   3 -10  -5 13.9768 4.45805   4
   3 -10  -5 27.8985 9.88596   6
   3 -10  -5 9.84423 9.23558   5
  -3  10   5 12.9484 6.23331   6
  -3  10   5 30.4983 10.4658   5
   2 -10  -5 0.62586 3.17967   2
   2 -10  -5 3.21377 4.73660   5
   2 -10  -5 -0.2029 4.77695   6
   2 -10  -5 4.87746 3.94628   4
  -2  10   5 8.26428 5.80178   6
  -2  10   5 4.98585 3.27810   1
  -2  10   5 4.99081 3.82331   3
  -2  10   5 9.66645 8.40279   5
  -2  10   5 5.44044 5.80300   5
   1 -10  -5 -2.7729 3.42265   2
   1 -10  -5 1.39217 5.02373   6
  -1  10   5 3.78213 6.21740   6
  -1  10   5 -4.7594 5.25382   1
  -1  10   5 -8.8442 5.94080   5
  -1  10   5 0.87646 3.57121   3
  -1  10   5 -3.2313 14.7287   5
   0 -10  -5 9.46027 3.71695   2
   0 -10  -5 12.1700 5.26808   6
   0  10   5 6.21896 5.49039   1
   0  10   5 16.0112 4.77632   1
   0  10   5 18.9268 6.45527   5
   0  10   5 11.7611 4.05472   3
   1  10  -6 28.9030 6.75903   5
   1  10  -6 32.8536 5.71290   4
   1  10  -6 15.9645 4.22555   3
  -1 -10   6 23.4174 4.25143   2
  -1 -10   6 25.3207 5.89987   1
   0  10  -6 34.9980 6.59643   5
   0  10  -6 34.4597 5.65531   4
   0  10  -6 47.0335 7.41622   6
   0  10  -6 36.3228 5.15871   3
   0 -10   6 42.0211 4.63480   2
   0 -10   6 37.4961 5.43546   1
  -1  10  -6 19.0050 6.69177   6
  -1  10  -6 15.6575 7.38681   5
  -1  10  -6 16.0340 5.36138   4
  -1  10  -6 8.54018 6.34447   5
  -1  10  -6 13.2521 4.02474   3
   1 -10   6 15.6492 3.76720   2
   1 -10   6 8.47302 6.27503   5
   1 -10   6 24.3820 4.74395   1
  -2  10  -6 5.01439 5.11944   1
  -2  10  -6 6.03970 4.03692   3
  -2  10  -6 -4.7861 4.89385   4
  -2  10  -6 1.17765 7.32870   5
  -2  10  -6 -3.1352 6.40962   6
   2 -10   6 7.89325 4.39275   1
   2 -10   6 9.54403 6.79925   5
   2 -10   6 0.28916 8.47463   5
  -3  10  -6 8.13265 7.51747   6
  -3  10  -6 15.4580 4.49294   3
   3 -10   6 10.0621 4.28988   1
   3 -10   6 8.42538 6.10157   5
   3 -10   6 2.56894 8.57450   6
   3   9  -6 3.46948 3.22165   3
   3   9  -6 3.72706 5.65964   5
   3   9  -6 -4.2491 4.57844   4
  -3  -9   6 -6.8745 5.05612   1
  -3  -9   6 1.32534 3.46622   2
   2   9  -6 -0.8661 5.06245   6
   2   9  -6 -2.1779 5.13731   5
   2   9  -6 1.43984 3.94103   4
  -2  -9   6 2.02945 4.18195   1
  -2  -9   6 0.28947 3.14941   2
   1   9  -6 69.1987 5.74244   3
   1   9  -6 69.2405 7.15003   5
   1   9  -6 76.3220 6.99817   5
   1   9  -6 76.0102 7.24373   4
   1   9  -6 77.4249 6.96100   6
  -1  -9   6 73.5328 7.77131   6
  -1  -9   6 62.1426 5.63359   2
  -1  -9   6 60.8870 5.64986   5
  -1  -9   6 74.5023 5.68418   1
   0   9  -6 13.4424 5.37303   5
   0   9  -6 7.54671 3.85615   4
   0   9  -6 5.45278 4.86146   6
   0   9  -6 3.59843 3.26849   3
   0   9  -6 8.24196 4.35575   1
   0   9  -6 8.28884 4.81263   5
   0  -9   6 4.41783 4.11734   6
   0  -9   6 6.83860 3.09831   2
   0  -9   6 5.17075 4.12839   5
   0  -9   6 1.41130 3.59354   1
   0  -9   6 11.5352 5.45327   5
  -1   9  -6 15.8921 5.02466   5
  -1   9  -6 6.43765 4.58378   5
  -1   9  -6 4.78225 3.18146   3
  -1   9  -6 9.76153 3.96654   1
  -1   9  -6 8.61344 4.71755   6
  -1   9  -6 10.8699 4.08898   4
   1  -9   6 11.4169 4.28261   6
   1  -9   6 18.4279 3.53182   2
   1  -9   6 11.5146 5.31463   5
   1  -9   6 10.1086 3.72811   1
   1  -9   6 14.4166 4.95013   5
  -2   9  -6 1.51074 4.94044   5
  -2   9  -6 -0.9114 4.07163   4
  -2   9  -6 5.64863 4.74609   6
  -2   9  -6 -4.2782 4.63838   1
  -2   9  -6 0.97463 2.85422   3
  -2   9  -6 5.16545 4.58725   5
   2  -9   6 6.86728 5.83108   5
   2  -9   6 -0.7907 4.50901   6
   2  -9   6 -2.8209 4.48617   5
   2  -9   6 4.03292 3.44402   1
  -3   9  -6 3.03628 5.22235   6
  -3   9  -6 7.15589 4.22733   1
  -3   9  -6 5.28189 4.86827   4
  -3   9  -6 0.02761 3.72522   3
  -3   9  -6 4.33594 5.26142   5
   3  -9   6 -0.6473 5.10646   6
   3  -9   6 5.59133 5.06820   5
   3  -9   6 7.19485 3.51432   1
   3  -9   6 -4.4375 6.35485   5
  -4   9  -6 3.59211 4.71479   4
  -4   9  -6 -2.3184 5.14359   6
  -4   9  -6 3.62936 4.16033   1
  -4   9  -6 -0.0847 3.42382   3
   4  -9   6 5.60614 3.52783   1
   4  -9   6 3.21670 4.57773   5
  -5   9  -6 10.5855 5.28092   3
  -5   9  -6 18.1999 6.55971   6
   5  -9   6 17.8904 5.92132   5
   5   8  -6 59.0560 5.67481   4
   5   8  -6 45.5701 6.38577   5
   5   8  -6 39.9007 4.67992   3
  -5  -8   6 47.1261 5.28523   2
   4   8  -6 2.91388 3.73247   3
   4   8  -6 3.83433 4.45054   5
   4   8  -6 -2.2686 3.94958   4
  -4  -8   6 -3.6820 3.16067   2
  -4  -8   6 4.34061 5.07686   1
   3   8  -6 3.87527 4.08867   6
   3   8  -6 2.76553 2.64837   3
   3   8  -6 -2.6268 4.19885   5
   3   8  -6 -2.3976 3.30993   4
   3   8  -6 1.55078 4.84791   5
  -3  -8   6 0.36265 3.38039   5
  -3  -8   6 2.14344 2.78002   6
  -3  -8   6 1.65845 3.90133   1
  -3  -8   6 1.13829 2.84296   2
   2   8  -6 15.4764 4.89599   1
   2   8  -6 10.5722 3.03601   3
   2   8  -6 17.6703 4.81659   5
   2   8  -6 10.5795 4.28640   5
   2   8  -6 12.8171 3.39126   4
   2   8  -6 13.0761 3.70742   6
  -2  -8   6 7.39872 3.54613   1
  -2  -8   6 9.61785 3.36431   5
  -2  -8   6 6.58216 2.94526   2
  -2  -8   6 9.24088 4.17452   5
  -2  -8   6 10.6651 2.91882   6
   1   8  -6 31.6511 3.92196   4
   1   8  -6 33.7518 4.66267   5
   1   8  -6 37.9052 4.61546   6
   1   8  -6 29.0278 3.68590   3
   1   8  -6 33.5664 4.74804   5
   1   8  -6 27.7344 3.97094   1
  -1  -8   6 29.1491 4.68592   5
  -1  -8   6 24.4593 3.44175   6
  -1  -8   6 25.1657 3.79698   5
  -1  -8   6 26.3725 3.36847   2
  -1  -8   6 27.8306 3.88754   1
  -1  -8   6 28.6728 3.57627   4
   0   8  -6 106.290 6.59634   4
   0   8  -6 114.281 7.81909   5
   0   8  -6 102.644 5.85496   3
   0   8  -6 104.925 6.83645   1
   0   8  -6 96.6505 7.59568   5
   0   8  -6 108.375 7.56392   6
   0  -8   6 94.8454 5.57288   2
   0  -8   6 106.894 7.27035   5
   0  -8   6 104.372 6.88992   6
   0  -8   6 105.553 6.27357   4
   0  -8   6 100.865 7.75315   5
   0  -8   6 111.183 6.30176   1
  -1   8  -6 45.7353 5.18658   5
  -1   8  -6 34.9062 3.79551   1
  -1   8  -6 51.7547 5.08973   5
  -1   8  -6 37.6943 4.32176   4
  -1   8  -6 48.1776 5.10305   6
  -1   8  -6 34.3287 4.04654   3
   1  -8   6 37.8915 4.53375   5
   1  -8   6 32.3233 3.50808   1
   1  -8   6 43.6303 4.17992   4
   1  -8   6 45.5878 4.02552   2
   1  -8   6 36.5458 4.58918   5
  -2   8  -6 27.5363 4.48971   5
  -2   8  -6 36.9197 3.76511   1
  -2   8  -6 35.7499 4.63272   5
  -2   8  -6 28.7289 4.08151   4
  -2   8  -6 48.2164 5.14017   6
  -2   8  -6 44.9549 4.80537   3
   2  -8   6 38.2651 2.94141   2
   2  -8   6 44.1851 5.05952   5
   2  -8   6 36.1614 4.22565   1
   2  -8   6 37.6842 4.40198   5
   2  -8   6 40.9010 4.48739   6
   2  -8   6 24.8302 3.75691   4
  -3   8  -6 7.76147 3.94204   5
  -3   8  -6 4.44343 4.15558   6
  -3   8  -6 6.77014 4.43188   5
  -3   8  -6 2.09429 3.41239   4
  -3   8  -6 6.02934 2.89262   3
  -3   8  -6 9.34000 3.18206   1
   3  -8   6 1.26980 4.32775   5
   3  -8   6 4.42637 2.83747   1
   3  -8   6 3.85409 3.67301   6
   3  -8   6 8.51268 4.00750   5
  -4   8  -6 17.3073 3.74042   3
  -4   8  -6 16.9030 4.72442   5
  -4   8  -6 19.4567 4.66578   4
  -4   8  -6 13.1078 4.69107   6
  -4   8  -6 25.1076 3.60828   1
  -4   8  -6 18.9243 4.84772   6
   4  -8   6 22.0984 4.75774   6
   4  -8   6 19.0623 4.37969   5
   4  -8   6 13.7408 5.45057   5
   4  -8   6 19.4652 3.42381   1
  -5   8  -6 13.2439 4.73808   6
  -5   8  -6 12.7973 3.82686   1
  -5   8  -6 13.3546 4.87418   4
  -5   8  -6 16.6061 3.86384   3
   5  -8   6 14.6963 5.36048   5
   5  -8   6 13.8058 3.38001   1
  -6   8  -6 15.5826 4.34460   3
  -6   8  -6 11.6045 5.80394   6
  -6   8  -6 13.9144 5.92909   4
   6  -8   6 21.0326 5.65339   5
   6   7  -6 17.0260 4.58779   4
  -6  -7   6 25.9155 5.14372   6
  -6  -7   6 13.3811 4.23276   2
   5   7  -6 4.62605 3.60333   4
   5   7  -6 -2.9646 3.96188   5
  -5  -7   6 8.13587 2.78729   6
  -5  -7   6 6.01780 2.89917   5
  -5  -7   6 2.47121 3.40441   2
   4   7  -6 151.943 8.45058   5
   4   7  -6 163.411 8.58714   6
   4   7  -6 162.834 7.49704   4
   4   7  -6 163.893 8.52221   5
   4   7  -6 141.610 7.06519   3
  -4  -7   6 145.327 7.65492   2
  -4  -7   6 160.170 7.33040   5
  -4  -7   6 145.498 8.51949   1
  -4  -7   6 151.082 6.93520   6
   3   7  -6 5.45672 3.62087   6
   3   7  -6 5.55924 3.40593   5
   3   7  -6 4.62124 2.77205   4
   3   7  -6 3.51064 3.22508   5
   3   7  -6 5.36916 3.97352   1
   3   7  -6 1.36419 2.35313   3
  -3  -7   6 3.13121 2.82914   5
  -3  -7   6 3.98825 2.98258   5
  -3  -7   6 3.39860 3.10516   4
  -3  -7   6 2.40419 2.31684   6
  -3  -7   6 4.10536 2.60536   2
  -3  -7   6 9.16707 3.16308   1
   2   7  -6 4.15177 2.36980   3
   2   7  -6 3.39188 2.65315   4
   2   7  -6 7.62987 3.29035   1
   2   7  -6 7.91103 3.05829   5
   2   7  -6 1.49330 3.07380   6
   2   7  -6 4.64900 2.83584   5
  -2  -7   6 7.10616 2.89371   4
  -2  -7   6 4.06031 2.55577   2
  -2  -7   6 1.26199 2.37452   6
  -2  -7   6 3.05126 2.80934   5
  -2  -7   6 -1.2442 2.82089   1
  -2  -7   6 -0.3680 2.33955   5
   1   7  -6 1.06166 2.56978   5
   1   7  -6 -0.0939 2.29656   4
   1   7  -6 -2.2102 2.67665   6
   1   7  -6 6.24319 2.86105   1
   1   7  -6 3.95729 2.87254   5
   1   7  -6 4.12630 2.33069   3
  -1  -7   6 2.96577 2.14857   4
  -1  -7   6 1.88195 2.31347   6
  -1  -7   6 4.48852 2.85594   5
  -1  -7   6 7.61699 3.01567   5
  -1  -7   6 1.27396 2.61232   1
  -1  -7   6 4.20642 2.17616   2
   0   7  -6 116.413 6.00337   1
   0   7  -6 121.363 6.79164   5
   0   7  -6 109.962 5.70752   3
   0   7  -6 114.557 6.67651   5
   0   7  -6 103.357 5.84610   4
   0   7  -6 116.730 6.86493   6
   0  -7   6 112.014 5.23347   2
   0  -7   6 118.010 6.59731   5
   0  -7   6 111.174 5.77009   4
   0  -7   6 116.616 6.14054   6
   0  -7   6 118.631 6.52970   5
   0  -7   6 104.884 5.69502   1
  -1   7  -6 54.9386 5.60297   5
  -1   7  -6 48.3736 4.59196   1
  -1   7  -6 53.0608 4.54591   3
  -1   7  -6 41.6953 3.99673   5
  -1   7  -6 50.4987 4.41848   6
  -1   7  -6 48.3299 4.75566   4
   1  -7   6 49.0178 3.88373   2
   1  -7   6 55.0149 4.35999   1
   1  -7   6 53.7083 4.94844   6
   1  -7   6 56.5337 4.72934   5
   1  -7   6 52.4466 5.49921   5
   1  -7   6 56.3950 4.68423   4
  -2   7  -6 2.30078 3.01976   5
  -2   7  -6 3.34435 2.49096   1
  -2   7  -6 3.92623 3.04568   5
  -2   7  -6 3.13302 2.61068   4
  -2   7  -6 3.82940 3.05192   6
  -2   7  -6 1.84283 2.42549   3
   2  -7   6 1.21638 2.23895   1
   2  -7   6 0.56418 2.46634   6
   2  -7   6 -0.4464 3.00393   5
   2  -7   6 4.49310 3.11318   5
   2  -7   6 2.56086 2.52824   4
  -3   7  -6 4.86167 3.15023   5
  -3   7  -6 6.65113 2.93453   4
  -3   7  -6 1.99003 3.39314   6
  -3   7  -6 2.18984 2.49959   1
  -3   7  -6 6.39419 3.26669   5
  -3   7  -6 5.86963 2.67030   3
   3  -7   6 7.62121 3.25521   5
   3  -7   6 4.76695 2.88503   5
   3  -7   6 4.16536 2.36342   1
   3  -7   6 8.69374 3.11559   6
   3  -7   6 2.66696 2.83369   4
  -4   7  -6 2.15972 3.23106   6
  -4   7  -6 3.35623 3.46886   6
  -4   7  -6 -2.4010 2.85820   3
  -4   7  -6 -1.0090 2.55419   1
  -4   7  -6 -0.8255 3.66030   5
  -4   7  -6 2.69345 3.33156   5
  -4   7  -6 5.24647 3.17360   4
   4  -7   6 -1.3875 3.21241   5
   4  -7   6 1.24550 3.43722   5
   4  -7   6 -0.2956 3.35546   6
   4  -7   6 1.74277 2.42433   1
   4  -7   6 -5.7123 3.27692   4
  -5   7  -6 4.99203 3.13245   1
  -5   7  -6 4.91601 3.72245   6
  -5   7  -6 6.26079 3.28031   3
  -5   7  -6 -3.8170 3.30494   5
  -5   7  -6 6.47834 3.75534   4
  -5   7  -6 -2.3992 3.64281   6
   5  -7   6 4.99649 4.14488   5
   5  -7   6 4.71967 2.76398   1
   5  -7   6 0.62266 3.72468   5
  -6   7  -6 16.1772 4.00537   1
  -6   7  -6 17.2387 5.19527   4
  -6   7  -6 11.2300 4.39199   6
  -6   7  -6 12.3282 3.56907   3
   6  -7   6 15.3875 4.62078   1
   6  -7   6 5.60934 4.37703   5
   6   6  -6 25.9929 4.12827   4
   6   6  -6 31.2362 4.42385   5
  -6  -6   6 33.9970 2.82154   6
   5   6  -6 -2.7634 2.77700   4
   5   6  -6 -1.5975 3.51392   6
   5   6  -6 2.69927 3.22021   5
   5   6  -6 -7.3570 3.92056   5
  -5  -6   6 0.55061 6.32878   4
  -5  -6   6 1.49295 2.16669   5
  -5  -6   6 2.38760 3.14690   2
  -5  -6   6 -4.1091 3.46080   1
  -5  -6   6 -2.9374 2.00109   6
   4   6  -6 58.0905 4.75311   4
   4   6  -6 69.2680 5.33383   5
   4   6  -6 80.9429 6.99735   1
   4   6  -6 72.2356 6.80371   6
   4   6  -6 67.4411 5.48506   6
   4   6  -6 60.0824 5.80498   5
  -4  -6   6 77.8113 6.01527   1
  -4  -6   6 74.0434 4.86546   5
  -4  -6   6 62.8963 5.63972   4
  -4  -6   6 59.3011 5.05273   2
  -4  -6   6 60.8831 4.76516   5
  -4  -6   6 68.5875 4.51231   6
   3   6  -6 -2.8480 2.80623   6
   3   6  -6 -0.4728 2.45271   5
   3   6  -6 0.73215 2.05175   4
   3   6  -6 2.01354 4.15452   5
   3   6  -6 3.82767 2.67467   6
   3   6  -6 0.13166 2.92720   1
  -3  -6   6 -0.3695 1.68829   6
  -3  -6   6 3.53754 2.67466   1
  -3  -6   6 -0.0510 2.41653   4
  -3  -6   6 1.60144 2.07306   5
  -3  -6   6 -0.1229 2.16744   5
  -3  -6   6 1.69851 2.35634   2
   2   6  -6 0.86318 2.25783   5
   2   6  -6 3.40039 2.50201   6
   2   6  -6 1.63068 2.40904   5
   2   6  -6 4.19894 3.17826   4
   2   6  -6 4.30930 2.47361   1
   2   6  -6 5.45903 2.18386   3
  -2  -6   6 2.08847 1.78720   6
  -2  -6   6 3.82976 2.27975   5
  -2  -6   6 5.65355 2.18621   5
  -2  -6   6 4.08359 2.15750   2
  -2  -6   6 2.58017 2.06803   4
   1   6  -6 44.0130 4.54058   5
   1   6  -6 48.2612 4.36742   1
   1   6  -6 43.9285 3.59390   3
   1   6  -6 50.2934 4.59167   5
   1   6  -6 46.3204 3.80725   4
   1   6  -6 49.4513 4.52019   6
  -1  -6   6 49.1366 3.94516   6
  -1  -6   6 47.1694 4.45570   5
  -1  -6   6 37.7284 3.28885   5
  -1  -6   6 49.4048 4.18922   1
  -1  -6   6 45.3488 3.62743   2
  -1  -6   6 48.3822 3.64968   4
   0   6  -6 35.2530 3.38092   5
   0   6  -6 29.9254 3.22958   6
   0   6  -6 31.2287 3.36295   3
   0   6  -6 32.8081 2.94015   1
   0   6  -6 38.4352 3.59521   5
   0   6  -6 37.7193 3.66116   4
   0  -6   6 38.3095 3.67005   1
   0  -6   6 37.1268 3.47864   5
   0  -6   6 33.0509 3.28048   2
   0  -6   6 42.1651 3.66798   5
   0  -6   6 40.9072 3.87632   6
   0  -6   6 37.8579 3.47815   4
  -1   6  -6 270.704 9.62563   3
  -1   6  -6 289.792 9.55480   1
  -1   6  -6 272.582 10.0405   6
  -1   6  -6 288.396 10.1092   5
  -1   6  -6 289.851 9.61685   4
   1  -6   6 286.685 10.1049   5
   1  -6   6 283.507 9.30324   4
   1  -6   6 291.337 10.1128   5
   1  -6   6 297.330 9.82493   6
   1  -6   6 262.467 8.92695   2
   1  -6   6 274.762 9.34690   1
  -2   6  -6 17.8121 2.81437   5
  -2   6  -6 21.3300 2.84439   4
  -2   6  -6 25.5477 2.98372   3
  -2   6  -6 18.7951 2.70745   5
  -2   6  -6 22.7248 3.22627   6
  -2   6  -6 25.0689 2.98096   6
  -2   6  -6 23.9680 2.75102   1
   2  -6   6 24.8510 3.03339   5
   2  -6   6 21.0278 2.83970   5
   2  -6   6 27.5972 2.72540   1
   2  -6   6 21.0439 2.69649   6
   2  -6   6 22.8602 2.59152   4
  -3   6  -6 70.2260 5.60961   6
  -3   6  -6 64.9116 5.11258   6
  -3   6  -6 59.0472 5.52528   5
  -3   6  -6 61.0251 4.47557   1
  -3   6  -6 68.5045 4.56100   3
  -3   6  -6 58.1940 5.34595   5
   3  -6   6 61.4340 4.67890   4
   3  -6   6 65.8147 5.30130   5
   3  -6   6 65.9762 5.06581   6
   3  -6   6 65.3623 4.22991   1
   3  -6   6 64.7176 5.29687   5
  -4   6  -6 1.60388 2.66957   6
  -4   6  -6 0.65434 2.57450   3
  -4   6  -6 -0.0814 2.72599   4
  -4   6  -6 -2.3973 2.38840   5
  -4   6  -6 2.64835 2.69449   6
  -4   6  -6 -1.3144 2.62705   5
  -4   6  -6 -0.8852 2.30312   1
   4  -6   6 1.83882 2.62049   6
   4  -6   6 5.08891 2.75886   4
   4  -6   6 2.15299 2.61048   5
   4  -6   6 -0.7345 2.08134   1
  -5   6  -6 10.4839 3.74100   6
  -5   6  -6 6.26251 3.12488   4
  -5   6  -6 11.0561 3.31016   6
  -5   6  -6 16.4597 2.78726   1
  -5   6  -6 10.5584 3.11595   5
  -5   6  -6 12.4721 3.61170   5
  -5   6  -6 11.0848 3.09861   3
   5  -6   6 10.9407 3.20328   6
   5  -6   6 10.6374 3.42581   4
   5  -6   6 12.2734 2.70335   1
   5  -6   6 11.3328 3.19290   5
   5  -6   6 12.7716 3.27681   5
  -6   6  -6 7.63960 3.91433   4
  -6   6  -6 12.5604 3.39733   3
  -6   6  -6 13.0543 3.41674   1
  -6   6  -6 13.0892 3.98797   6
  -6   6  -6 13.3349 3.55987   6
  -6   6  -6 8.73685 3.34210   5
   6  -6   6 10.8204 3.88793   5
   6  -6   6 11.1803 3.78216   5
   6  -6   6 9.84799 2.93214   1
  -7   6  -6 25.2386 4.07664   3
  -7   6  -6 27.8407 4.98253   6
  -7   6  -6 28.3493 3.48026   5
  -7   6  -6 27.1350 4.05622   6
  -7   6  -6 23.2221 5.89083   4
   7  -6   6 27.9101 4.90709   5
   7  -6   6 33.8356 6.53734   1
   7   5  -6 27.8157 4.21303   5
   7   5  -6 23.1143 4.44702   4
  -7  -5   6 16.2623 3.82339   2
   6   5  -6 -7.2496 2.89495   4
   6   5  -6 4.02040 2.76027   5
   6   5  -6 -0.1501 2.85948   5
   6   5  -6 -1.1891 3.53869   6
  -6  -5   6 -0.6554 1.76648   6
  -6  -5   6 0.57142 3.32561   2
   5   5  -6 48.6038 4.99790   5
   5   5  -6 40.5990 3.97328   6
   5   5  -6 50.7503 5.07414   1
   5   5  -6 60.1119 4.71860   4
   5   5  -6 49.3281 4.97296   6
   5   5  -6 46.9310 4.80646   5
  -5  -5   6 44.8243 3.67602   5
  -5  -5   6 53.1513 3.69464   6
  -5  -5   6 58.6607 5.65278   1
  -5  -5   6 49.3111 3.67432   5
  -5  -5   6 47.5165 4.87108   2
   4   5  -6 7.50318 2.41959   5
   4   5  -6 7.37756 2.61732   6
   4   5  -6 13.2461 3.43978   1
   4   5  -6 11.2483 2.39810   4
   4   5  -6 9.79982 2.44789   5
   4   5  -6 11.4101 2.43476   6
  -4  -5   6 6.24936 1.95161   5
  -4  -5   6 5.72669 2.49057   2
  -4  -5   6 6.75523 1.91376   5
  -4  -5   6 7.57727 1.89101   6
  -4  -5   6 7.21970 2.71078   1
  -4  -5   6 11.5871 2.74675   4
   3   5  -6 187.952 7.92848   6
   3   5  -6 184.172 7.29176   5
   3   5  -6 187.189 7.56316   1
   3   5  -6 193.544 7.29103   6
   3   5  -6 184.653 7.39759   5
   3   5  -6 187.576 6.84611   4
  -3  -5   6 189.845 6.91541   5
  -3  -5   6 187.309 6.92073   5
  -3  -5   6 168.437 7.22729   2
  -3  -5   6 191.383 7.45816   1
  -3  -5   6 189.893 6.66999   6
  -3  -5   6 188.799 7.02150   4
   2   5  -6 2.46411 2.07772   1
   2   5  -6 4.59011 2.04893   5
   2   5  -6 8.61386 2.31228   6
   2   5  -6 4.48056 1.92638   5
   2   5  -6 7.59409 2.18899   6
   2   5  -6 4.60785 1.79294   4
  -2  -5   6 6.59396 2.15554   1
  -2  -5   6 5.38952 1.89576   2
  -2  -5   6 8.11227 1.73495   6
  -2  -5   6 4.60974 1.85784   4
  -2  -5   6 5.47943 1.75596   5
  -2  -5   6 3.54790 1.77660   5
   1   5  -6 22.6326 2.50666   1
   1   5  -6 23.3588 2.60799   5
   1   5  -6 19.6554 2.13158   4
   1   5  -6 27.6322 3.04827   6
   1   5  -6 28.8836 2.81695   3
   1   5  -6 20.0121 2.47810   5
   1   5  -6 24.0450 2.58538   6
  -1  -5   6 27.9531 2.38091   4
  -1  -5   6 20.4075 2.32651   1
  -1  -5   6 30.6958 3.03123   6
  -1  -5   6 21.3274 2.29753   5
  -1  -5   6 28.6100 2.68608   2
  -1  -5   6 26.3085 2.52733   5
   0   5  -6 2.99923 1.87227   5
   0   5  -6 3.65318 1.60769   4
   0   5  -6 5.88511 2.12784   5
   0   5  -6 4.48614 1.87612   1
   0   5  -6 3.77205 1.97727   6
   0   5  -6 4.60972 2.36798   6
   0   5  -6 3.17634 1.69436   3
   0  -5   6 6.46041 1.89045   1
   0  -5   6 4.82880 1.72826   2
   0  -5   6 5.09510 1.74257   5
   0  -5   6 4.05093 1.63760   4
   0  -5   6 4.74265 1.72943   6
   0  -5   6 4.08581 2.07071   5
  -1   5  -6 150.291 6.29293   5
  -1   5  -6 148.348 5.91031   1
  -1   5  -6 147.919 6.24478   5
  -1   5  -6 152.981 6.74348   6
  -1   5  -6 149.471 5.83513   4
  -1   5  -6 132.318 5.67303   3
  -1   5  -6 148.938 6.26698   6
   1  -5   6 144.813 5.75343   1
   1  -5   6 156.692 6.40291   5
   1  -5   6 153.570 5.98409   6
   1  -5   6 143.093 6.18163   5
   1  -5   6 152.781 5.65317   4
  -2   5  -6 186.392 6.88728   3
  -2   5  -6 190.108 7.29332   6
  -2   5  -6 198.231 7.71812   6
  -2   5  -6 183.264 7.27852   5
  -2   5  -6 180.199 6.95826   4
  -2   5  -6 189.518 7.36923   5
  -2   5  -6 185.346 6.81822   1
   2  -5   6 186.869 6.71505   4
   2  -5   6 183.545 7.22984   5
   2  -5   6 186.373 7.41520   5
   2  -5   6 192.759 6.71703   1
   2  -5   6 191.172 7.10265   6
  -3   5  -6 9.34374 2.10752   1
  -3   5  -6 7.77861 2.21472   6
  -3   5  -6 8.30784 2.29326   3
  -3   5  -6 11.1848 2.31755   4
  -3   5  -6 8.13355 2.16797   5
  -3   5  -6 7.32780 2.18046   5
  -3   5  -6 10.2262 2.43747   6
   3  -5   6 7.99927 2.39429   5
   3  -5   6 11.9592 2.20389   6
   3  -5   6 7.99539 2.34429   5
   3  -5   6 6.11253 2.05202   4
   3  -5   6 10.4712 1.97277   1
  -4   5  -6 12.4131 3.04642   6
  -4   5  -6 16.5757 2.57067   5
  -4   5  -6 12.2567 2.72201   4
  -4   5  -6 9.71220 2.69384   3
  -4   5  -6 13.5901 2.39173   1
  -4   5  -6 11.0753 2.54629   5
   4  -5   6 15.5109 2.79375   4
   4  -5   6 14.7323 2.57219   5
   4  -5   6 14.4622 2.22551   1
   4  -5   6 13.6822 2.52316   6
   4  -5   6 10.0181 2.52646   5
  -5   5  -6 6.83834 2.62933   3
  -5   5  -6 3.03117 2.86626   4
  -5   5  -6 2.35828 2.39958   6
  -5   5  -6 4.44260 2.42291   5
  -5   5  -6 7.39958 3.05703   6
  -5   5  -6 3.23848 2.62114   5
  -5   5  -6 5.88957 2.51690   1
   5  -5   6 3.18645 2.24340   5
   5  -5   6 2.62653 2.60058   5
   5  -5   6 4.66403 2.73633   4
   5  -5   6 5.36696 2.49866   6
   5  -5   6 1.32905 2.24127   1
  -6   5  -6 1.34274 2.56788   6
  -6   5  -6 3.84592 2.84278   3
  -6   5  -6 6.97187 3.17206   1
  -6   5  -6 6.72316 3.56673   4
  -6   5  -6 6.43796 3.26485   6
   6  -5   6 5.15747 3.07117   5
   6  -5   6 2.72758 3.83951   4
   6  -5   6 4.69007 2.75659   1
   6  -5   6 6.99881 3.21227   5
  -7   5  -6 6.91504 3.16531   3
  -7   5  -6 4.43221 4.68192   4
  -7   5  -6 7.80304 2.91676   6
  -7   5  -6 7.68869 3.15399   6
   7  -5   6 2.81649 3.32910   1
   7  -5   6 2.64103 3.55414   5
   7   4  -6 51.4421 4.80425   6
   7   4  -6 50.4829 4.10773   5
   7   4  -6 57.8597 4.28799   5
   7   4  -6 41.5102 4.39533   4
  -7  -4   6 40.2493 4.75028   2
   6   4  -6 -0.5156 2.47643   4
   6   4  -6 -0.7587 2.28186   5
   6   4  -6 0.51692 3.89245   6
   6   4  -6 -1.5685 2.50153   6
   6   4  -6 -0.0202 3.89952   1
   6   4  -6 -2.5103 2.25030   5
  -6  -4   6 1.04920 1.56579   6
  -6  -4   6 2.53713 2.88629   2
  -6  -4   6 1.53596 3.00870   1
   5   4  -6 34.7656 2.99826   6
   5   4  -6 29.7208 3.02793   5
   5   4  -6 33.4674 3.04153   5
   5   4  -6 35.2407 4.11499   1
   5   4  -6 29.2917 3.37730   6
   5   4  -6 41.2123 3.84975   4
  -5  -4   6 32.6139 3.85492   2
  -5  -4   6 33.9033 2.81000   5
  -5  -4   6 36.1522 2.97552   6
  -5  -4   6 27.7931 3.22734   1
  -5  -4   6 30.9588 2.82704   5
   4   4  -6 13.4829 2.14570   5
   4   4  -6 16.2479 2.53438   6
   4   4  -6 17.4254 2.85369   1
   4   4  -6 16.9531 2.38464   6
   4   4  -6 15.2736 2.18740   4
   4   4  -6 14.1696 2.20807   5
  -4  -4   6 18.1224 2.62707   4
  -4  -4   6 11.8825 2.40982   1
  -4  -4   6 16.2432 1.96172   5
  -4  -4   6 20.5527 3.08023   2
  -4  -4   6 14.5924 1.99016   5
  -4  -4   6 17.1866 1.94915   6
   3   4  -6 67.2146 4.39660   6
   3   4  -6 71.7634 4.03573   6
   3   4  -6 66.2976 3.59780   4
   3   4  -6 68.0628 4.14371   5
   3   4  -6 62.5878 4.30000   1
  -3  -4   6 65.7672 3.84203   4
  -3  -4   6 62.9312 4.29437   2
  -3  -4   6 70.6898 3.75984   5
  -3  -4   6 62.5113 3.36531   6
  -3  -4   6 67.8232 3.79079   5
  -3  -4   6 63.3079 4.09249   1
   2   4  -6 -0.3130 1.38634   6
   2   4  -6 2.49405 1.42244   4
   2   4  -6 0.15579 1.97648   6
   2   4  -6 0.25592 1.60112   5
   2   4  -6 0.10481 1.78157   1
   2   4  -6 -2.6747 1.65723   5
  -2  -4   6 -0.4803 1.44761   5
  -2  -4   6 2.32401 1.67256   1
  -2  -4   6 1.76143 1.45099   4
  -2  -4   6 -1.2428 1.38790   5
  -2  -4   6 0.61969 1.69091   2
  -2  -4   6 1.12703 1.23097   6
   1   4  -6 20.9459 2.12863   1
   1   4  -6 22.8488 2.01945   4
   1   4  -6 16.8187 2.00284   6
   1   4  -6 16.1570 2.00991   5
   1   4  -6 18.7812 2.44093   6
   1   4  -6 21.8757 2.48727   5
  -1  -4   6 24.7708 2.29184   4
  -1  -4   6 20.6862 2.18755   5
  -1  -4   6 18.7943 2.07726   2
  -1  -4   6 19.8717 2.15579   1
  -1  -4   6 16.7141 1.77743   6
  -1  -4   6 16.0625 1.90594   5
   0   4  -6 135.419 5.51792   5
   0   4  -6 137.520 5.84910   6
   0   4  -6 135.688 5.04726   4
   0   4  -6 136.389 5.44412   3
   0   4  -6 143.812 6.04528   6
   0   4  -6 135.015 5.53274   5
   0  -4   6 138.047 5.23910   4
   0  -4   6 127.011 5.17606   1
   0  -4   6 135.560 5.26870   6
   0  -4   6 133.490 5.51407   5
   0  -4   6 139.646 5.52114   5
  -1   4  -6 25.9433 2.48701   3
  -1   4  -6 31.7885 3.28594   5
  -1   4  -6 28.4103 2.60514   4
  -1   4  -6 33.4920 3.46528   6
  -1   4  -6 26.2239 2.79749   6
  -1   4  -6 31.6367 3.09677   5
  -1   4  -6 26.0725 2.32276   1
   1  -4   6 25.9997 2.67776   6
   1  -4   6 22.9471 2.32364   5
   1  -4   6 28.4620 2.97454   5
   1  -4   6 24.4104 2.15561   1
   1  -4   6 22.1463 2.28167   4
  -2   4  -6 426.328 16.6293   1
  -2   4  -6 520.629 13.7355   2
  -2   4  -6 524.265 15.4029   6
  -2   4  -6 510.364 15.1211   6
  -2   4  -6 507.115 14.7138   3
  -2   4  -6 486.557 14.7830   4
  -2   4  -6 511.933 15.1167   5
   2  -4   6 517.194 15.1711   5
   2  -4   6 510.224 14.7543   1
   2  -4   6 508.623 15.0863   5
   2  -4   6 511.292 14.9058   6
   2  -4   6 466.418 14.4807   4
  -3   4  -6 6.03966 1.73348   4
  -3   4  -6 6.57627 1.99831   3
  -3   4  -6 5.37472 1.96540   5
  -3   4  -6 8.91674 2.10452   6
  -3   4  -6 3.31501 1.64609   6
  -3   4  -6 7.64940 1.78725   1
   3  -4   6 4.03412 1.68019   5
   3  -4   6 7.36255 1.86983   5
   3  -4   6 6.62733 1.75573   6
   3  -4   6 6.31245 1.66271   1
   3  -4   6 6.25969 1.68447   4
  -4   4  -6 74.9977 4.25112   3
  -4   4  -6 67.9705 4.22405   1
  -4   4  -6 66.6646 4.34405   6
  -4   4  -6 72.2316 4.09625   5
  -4   4  -6 63.4990 4.65978   6
  -4   4  -6 73.2496 4.47792   5
  -4   4  -6 61.8536 4.37749   4
   4  -4   6 72.5450 4.41326   5
   4  -4   6 69.4606 4.52272   5
   4  -4   6 74.7442 4.31265   4
   4  -4   6 69.9070 4.13630   6
   4  -4   6 71.9798 4.17937   1
  -5   4  -6 -1.4853 1.86096   5
  -5   4  -6 -2.6283 1.96081   6
  -5   4  -6 -1.2034 2.47613   6
  -5   4  -6 -0.6757 2.10157   3
  -5   4  -6 -0.8372 2.19302   1
  -5   4  -6 3.11286 2.40225   4
  -5   4  -6 -2.4542 2.06231   5
   5  -4   6 -2.0896 2.04147   1
   5  -4   6 1.55404 2.49566   4
   5  -4   6 -2.7417 2.10099   5
   5  -4   6 0.71760 1.75615   6
   5  -4   6 1.37245 2.03345   5
  -6   4  -6 3.19681 2.87720   1
  -6   4  -6 5.02799 2.63381   3
  -6   4  -6 2.91709 1.95706   5
  -6   4  -6 0.47257 1.81847   5
  -6   4  -6 6.12508 2.53220   6
  -6   4  -6 0.13260 3.05417   4
  -6   4  -6 3.94711 2.15560   6
   6  -4   6 7.80694 3.30671   4
   6  -4   6 1.11019 2.62874   5
   6  -4   6 1.50824 2.52109   5
   6  -4   6 7.14815 2.76090   1
   6  -4   6 5.52369 2.67862   6
  -7   4  -6 9.51677 2.39404   6
  -7   4  -6 8.20451 4.19928   4
  -7   4  -6 8.21124 3.13063   3
  -7   4  -6 7.97255 2.58351   6
   7  -4   6 6.38619 2.98564   5
   7  -4   6 11.7566 3.60451   1
   7  -4   6 10.0840 3.35986   5
   7  -4   6 13.2173 4.28281   4
  -8   4  -6 28.0906 4.20775   3
   8  -4   6 35.6066 4.67772   1
   8   3  -6 -2.3174 3.03197   5
   8   3  -6 0.50993 2.93374   5
   8   3  -6 1.75083 4.01307   4
   7   3  -6 -1.1781 2.80179   4
   7   3  -6 2.10925 4.66827   1
   7   3  -6 1.51777 2.49192   5
   7   3  -6 2.77271 2.44372   5
  -7  -3   6 5.70790 3.15799   2
   6   3  -6 77.8990 5.35356   6
   6   3  -6 75.3536 4.88149   4
   6   3  -6 70.8260 4.44957   5
   6   3  -6 63.9737 4.57324   5
   6   3  -6 73.0207 6.26350   1
   6   3  -6 74.3603 4.60849   6
  -6  -3   6 73.2047 3.42334   6
  -6  -3   6 68.7318 5.38029   1
  -6  -3   6 70.8447 5.31041   2
   5   3  -6 -1.0280 2.81578   5
   5   3  -6 1.13232 1.73335   6
   5   3  -6 0.01770 1.82041   5
   5   3  -6 -0.4234 2.15475   6
   5   3  -6 -0.5756 2.53558   1
  -5  -3   6 1.35885 2.11054   1
  -5  -3   6 1.54205 2.16855   2
  -5  -3   6 3.88336 1.36879   6
  -5  -3   6 0.46807 1.28987   5
  -5  -3   6 -0.3488 1.20953   5
   4   3  -6 85.7356 4.84512   1
   4   3  -6 82.8043 4.67158   6
   4   3  -6 86.2574 4.25874   5
   4   3  -6 89.5526 4.16052   6
   4   3  -6 82.2846 4.34383   5
   4   3  -6 85.4169 4.11367   4
  -4  -3   6 82.3981 3.85496   5
  -4  -3   6 92.2223 4.64166   4
  -4  -3   6 88.0088 3.75889   5
  -4  -3   6 86.0111 4.55940   1
  -4  -3   6 87.2426 3.76417   6
  -4  -3   6 82.8598 4.77885   2
   3   3  -6 6.47433 1.35977   6
   3   3  -6 8.39457 1.71978   5
   3   3  -6 3.80019 1.29454   4
   3   3  -6 8.52618 1.92355   6
   3   3  -6 5.31939 1.70551   1
   3   3  -6 6.02416 1.59900   5
  -3  -3   6 6.57410 1.39923   5
  -3  -3   6 6.49646 1.30840   6
  -3  -3   6 8.23721 2.11039   2
  -3  -3   6 7.37311 1.60834   4
  -3  -3   6 6.86755 1.40764   5
  -3  -3   6 4.56693 1.63234   1
   2   3  -6 157.501 5.75686   5
   2   3  -6 150.215 5.59580   6
   2   3  -6 152.881 6.14352   6
   2   3  -6 151.070 5.33713   4
   2   3  -6 153.014 5.74766   5
  -2  -3   6 154.826 5.62375   5
  -2  -3   6 149.245 5.72727   2
  -2  -3   6 152.856 5.65992   1
  -2  -3   6 153.602 5.58595   5
  -2  -3   6 156.692 5.40160   6
   1   3  -6 12.0145 1.74088   5
   1   3  -6 10.1030 1.59798   5
   1   3  -6 10.1264 1.32798   4
   1   3  -6 13.2984 1.71173   6
   1   3  -6 10.6932 1.61884   1
   1   3  -6 12.6190 2.00760   6
  -1  -3   6 11.1361 1.57282   1
  -1  -3   6 12.4924 1.59309   6
  -1  -3   6 10.1492 1.60600   5
  -1  -3   6 7.43225 1.35581   5
  -1  -3   6 10.0034 1.32158   4
   0   3  -6 90.0909 3.73570   4
   0   3  -6 96.2449 4.13332   1
   0   3  -6 89.7074 4.23432   5
   0   3  -6 94.0840 3.79397   3
   0   3  -6 96.5443 4.08476   6
   0   3  -6 98.3729 4.54915   6
   0   3  -6 101.389 4.24658   5
   0  -3   6 97.7919 4.02328   6
   0  -3   6 94.8759 3.65464   4
   0  -3   6 89.1862 4.20163   5
   0  -3   6 94.9844 4.04794   1
   0  -3   6 97.9448 4.23196   5
  -1   3  -6 1.40658 1.27108   5
  -1   3  -6 0.79798 1.23596   6
  -1   3  -6 2.10895 1.51381   6
  -1   3  -6 0.19306 1.30348   1
  -1   3  -6 0.26292 1.05636   4
  -1   3  -6 0.81146 1.19530   3
  -1   3  -6 1.47965 1.42845   5
   1  -3   6 1.26278 1.25541   5
   1  -3   6 0.82966 1.18626   6
   1  -3   6 2.43262 1.39997   5
   1  -3   6 1.31795 1.06343   4
   1  -3   6 -0.9577 1.20184   1
  -2   3  -6 125.878 5.12227   6
  -2   3  -6 126.052 4.88550   4
  -2   3  -6 130.525 4.21085   2
  -2   3  -6 134.997 5.18183   5
  -2   3  -6 135.763 5.26690   5
  -2   3  -6 133.920 5.52986   6
  -2   3  -6 125.938 5.11498   1
   2  -3   6 129.258 5.00965   1
   2  -3   6 132.885 4.70837   4
   2  -3   6 124.740 5.16277   5
   2  -3   6 133.543 5.01291   6
   2  -3   6 134.376 5.28712   5
  -3   3  -6 433.279 12.6158   5
  -3   3  -6 407.238 12.6216   6
  -3   3  -6 381.237 13.2202   1
  -3   3  -6 407.632 12.5038   4
  -3   3  -6 425.146 12.5809   5
   3  -3   6 433.181 12.8601   5
   3  -3   6 415.850 12.5379   1
   3  -3   6 420.976 12.4796   6
   3  -3   6 420.108 12.2575   4
   3  -3   6 420.189 12.7052   5
  -4   3  -6 55.8116 3.81484   4
  -4   3  -6 61.2103 3.81239   5
  -4   3  -6 58.9943 3.48025   3
  -4   3  -6 61.9668 3.86024   1
  -4   3  -6 58.4793 3.54838   5
  -4   3  -6 60.8611 4.28029   6
  -4   3  -6 61.4538 3.70883   6
   4  -3   6 56.8455 3.48378   6
   4  -3   6 61.5516 3.75039   5
   4  -3   6 56.9152 3.96839   5
   4  -3   6 57.1476 3.83935   1
   4  -3   6 59.5039 3.61990   4
  -5   3  -6 18.9287 2.21652   6
  -5   3  -6 19.4250 2.07628   5
  -5   3  -6 20.7726 2.46545   3
  -5   3  -6 19.3193 2.48091   6
  -5   3  -6 22.9305 2.14580   5
  -5   3  -6 20.6884 2.68973   4
  -5   3  -6 21.3219 2.69549   1
   5  -3   6 16.2128 2.35049   6
   5  -3   6 18.2553 2.48005   5
   5  -3   6 20.0087 2.66384   1
   5  -3   6 15.1633 2.50984   4
  -6   3  -6 14.7905 3.11275   4
  -6   3  -6 12.1530 2.40470   6
  -6   3  -6 9.46531 2.51074   3
  -6   3  -6 11.9295 2.15118   6
   6  -3   6 11.9738 2.48334   6
   6  -3   6 11.6890 2.82360   1
   6  -3   6 11.5129 2.56326   5
   6  -3   6 11.7674 2.52557   5
   6  -3   6 16.5078 2.96615   4
  -7   3  -6 7.22296 1.81391   6
  -7   3  -6 4.02944 2.93265   3
   7  -3   6 8.11336 3.01470   5
   7  -3   6 11.2953 2.58152   5
   7  -3   6 10.2311 3.70714   4
   7  -3   6 7.99702 3.39960   1
  -8   3  -6 4.92685 3.34502   3
   8  -3   6 11.8329 4.41984   1
   8  -3   6 -3.5010 6.36755   4
   8  -3   6 2.00499 3.69849   5
   8   2  -6 0.97197 3.30775   6
   8   2  -6 2.81114 3.46476   4
   8   2  -6 -5.8896 2.34751   5
   8   2  -6 0.63484 2.51823   5
   8   2  -6 -1.2838 6.17865   1
  -8  -2   6 6.51341 5.26319   3
   7   2  -6 42.5205 4.11538   5
   7   2  -6 47.4706 3.97006   4
   7   2  -6 42.1380 3.28173   5
   7   2  -6 41.8855 4.17296   6
   7   2  -6 46.9592 4.77294   1
  -7  -2   6 37.5186 4.22206   3
   6   2  -6 48.2313 3.92074   1
   6   2  -6 47.0268 3.63359   5
   6   2  -6 45.7682 3.66141   5
   6   2  -6 48.4905 3.49872   6
   6   2  -6 41.9265 4.20661   6
   6   2  -6 42.0046 3.87616   4
  -6  -2   6 49.0221 2.74676   6
  -6  -2   6 39.6198 3.53923   1
  -6  -2   6 38.5880 4.05579   3
   5   2  -6 28.9424 2.83968   6
   5   2  -6 32.0822 2.94092   5
   5   2  -6 25.7992 2.38624   4
   5   2  -6 24.4748 2.59312   6
   5   2  -6 28.3169 2.94144   1
   5   2  -6 29.4356 2.51025   5
  -5  -2   6 29.2804 2.23211   5
  -5  -2   6 29.9173 2.29406   5
  -5  -2   6 26.0145 2.45256   6
  -5  -2   6 28.1552 3.04169   3
  -5  -2   6 29.3370 2.77379   1
   4   2  -6 20.9774 2.12929   5
   4   2  -6 18.2121 1.91331   4
   4   2  -6 26.9362 2.86426   5
   4   2  -6 21.1420 2.36076   1
   4   2  -6 23.7252 2.32511   6
   4   2  -6 25.9380 2.41619   6
  -4  -2   6 25.2785 2.29854   6
  -4  -2   6 23.8670 2.67571   3
  -4  -2   6 21.3469 2.18796   5
  -4  -2   6 25.1998 2.42146   1
  -4  -2   6 22.3776 2.29985   5
   3   2  -6 79.5108 3.79141   5
   3   2  -6 81.0796 3.56424   6
   3   2  -6 84.0224 4.06473   1
   3   2  -6 85.1004 3.59549   4
   3   2  -6 79.3090 3.78698   5
   3   2  -6 82.9787 4.22094   6
  -3  -2   6 82.6602 3.38369   6
  -3  -2   6 82.8477 3.64336   5
  -3  -2   6 84.1687 3.84770   4
  -3  -2   6 78.8978 4.06003   5
  -3  -2   6 78.7663 3.86735   1
   2   2  -6 55.6718 3.04234   5
   2   2  -6 53.6760 3.08592   1
   2   2  -6 49.7775 3.43509   6
   2   2  -6 53.4853 2.89766   6
   2   2  -6 55.2954 3.07730   5
   2   2  -6 52.2186 2.61716   4
  -2  -2   6 54.4436 2.95941   5
  -2  -2   6 50.2967 2.96749   1
  -2  -2   6 54.3192 2.91391   5
  -2  -2   6 58.6004 2.89558   4
  -2  -2   6 53.8007 2.68089   6
   1   2  -6 12.5630 1.32041   4
   1   2  -6 10.3305 1.44697   1
   1   2  -6 8.63266 1.18532   6
   1   2  -6 12.9998 1.71251   5
   1   2  -6 11.3708 1.90638   6
   1   2  -6 13.9411 1.69589   5
  -1  -2   6 10.2502 1.46869   5
  -1  -2   6 10.9919 1.29433   4
  -1  -2   6 7.31946 1.35454   5
  -1  -2   6 12.1383 1.55260   1
  -1  -2   6 10.6394 1.26781   6
   0   2  -6 95.1849 4.30663   6
   0   2  -6 90.6349 3.94836   5
   0   2  -6 87.5219 3.65953   6
   0   2  -6 83.9812 3.78995   5
   0   2  -6 88.8509 3.77247   1
   0   2  -6 87.2498 3.35470   4
   0  -2   6 84.3590 3.71901   1
   0  -2   6 85.9226 3.56565   6
   0  -2   6 88.1251 3.30777   4
   0  -2   6 92.8986 3.85441   5
   0  -2   6 82.4235 3.78824   5
  -1   2  -6 226.491 7.47238   5
  -1   2  -6 231.487 6.84868   3
  -1   2  -6 234.301 7.01558   2
  -1   2  -6 228.474 7.44955   5
  -1   2  -6 227.356 7.70567   6
  -1   2  -6 222.856 6.96864   4
  -1   2  -6 224.391 7.31455   1
  -1   2  -6 216.830 7.32907   6
   1  -2   6 223.479 6.87363   4
   1  -2   6 229.109 7.35379   1
   1  -2   6 225.145 7.47562   5
   1  -2   6 228.472 7.37156   5
   1  -2   6 226.346 7.25314   6
  -2   2  -6 19.1758 1.90156   1
  -2   2  -6 16.0177 1.80750   5
  -2   2  -6 12.6520 1.46627   6
  -2   2  -6 18.9052 1.93926   3
  -2   2  -6 16.3123 1.61535   4
  -2   2  -6 19.3761 1.88319   2
  -2   2  -6 17.7763 2.11296   6
   2  -2   6 12.1130 1.65276   1
   2  -2   6 16.9058 1.47534   4
   2  -2   6 13.5063 1.74087   5
   2  -2   6 19.3000 1.88742   5
   2  -2   6 18.3555 2.03245   6
  -3   2  -6 622.719 16.6760   3
  -3   2  -6 584.897 17.1790   6
  -3   2  -6 612.696 17.1695   5
  -3   2  -6 606.626 16.3676   2
  -3   2  -6 577.316 17.0005   4
  -3   2  -6 592.927 17.4425   6
  -3   2  -6 593.568 17.1304   5
   3  -2   6 597.140 16.7734   4
   3  -2   6 588.502 17.3148   5
   3  -2   6 587.563 17.2924   1
   3  -2   6 598.677 17.2659   5
   3  -2   6 598.787 17.0673   6
  -4   2  -6 0.97460 1.24987   6
  -4   2  -6 0.32846 1.34876   2
  -4   2  -6 2.02836 1.82375   1
  -4   2  -6 -0.4007 1.45373   3
  -4   2  -6 0.73337 1.45895   4
  -4   2  -6 0.93476 1.63339   6
  -4   2  -6 0.83783 1.33922   5
  -4   2  -6 1.24047 1.33349   5
   4  -2   6 -0.4593 1.34688   4
   4  -2   6 -0.5727 1.44738   5
   4  -2   6 0.75337 1.69748   1
   4  -2   6 2.08928 1.48447   5
   4  -2   6 -0.2586 1.33425   6
  -5   2  -6 42.8958 2.60911   2
  -5   2  -6 49.7807 4.37130   1
  -5   2  -6 45.2550 3.36607   6
  -5   2  -6 47.3753 3.89914   4
  -5   2  -6 45.8250 3.05401   3
  -5   2  -6 47.5955 2.86473   5
  -5   2  -6 50.0592 3.64741   6
  -5   2  -6 46.8006 2.85995   5
   5  -2   6 45.7895 3.28351   6
   5  -2   6 37.4981 3.57480   5
   5  -2   6 48.2537 3.97867   1
   5  -2   6 47.5844 3.52503   5
  -6   2  -6 -0.7265 1.51697   6
  -6   2  -6 -0.7551 1.72026   6
  -6   2  -6 1.48191 2.35440   4
   6  -2   6 0.17567 1.76283   5
   6  -2   6 0.10385 2.33778   4
   6  -2   6 -0.0468 2.03151   5
   6  -2   6 -0.0745 1.90284   6
  -7   2  -6 0.07528 2.43518   3
   7  -2   6 -2.4513 2.21741   5
   7  -2   6 4.50354 2.66667   5
   7  -2   6 3.42997 3.44087   1
   7  -2   6 -0.6364 3.01534   4
   8  -2   6 -2.0437 3.28318   5
   8  -2   6 11.2096 4.62035   1
   8   1  -6 10.2085 3.06462   6
   8   1  -6 4.86276 3.64009   4
   8   1  -6 5.87232 2.47403   5
   8   1  -6 10.5657 4.55417   1
   8   1  -6 14.0538 2.70653   5
  -8  -1   6 8.37467 3.45652   3
   7   1  -6 2.05686 2.65278   6
   7   1  -6 2.43540 1.93875   5
   7   1  -6 -0.0054 3.18416   1
   7   1  -6 -0.1398 1.84782   5
   7   1  -6 1.57852 1.90573   6
   7   1  -6 0.33787 2.54447   4
  -7  -1   6 -0.1448 2.38122   3
   6   1  -6 3.88680 2.09348   6
   6   1  -6 4.65875 1.69091   5
   6   1  -6 4.88201 1.75986   5
   6   1  -6 4.69799 1.96178   4
   6   1  -6 5.11297 1.55145   6
   6   1  -6 5.82520 2.43000   1
  -6  -1   6 5.39030 2.38217   3
  -6  -1   6 1.61516 2.04835   1
  -6  -1   6 7.60113 1.39281   6
   5   1  -6 118.245 4.95223   4
   5   1  -6 118.976 4.73966   5
   5   1  -6 120.199 5.00363   5
   5   1  -6 117.191 5.15392   6
   5   1  -6 116.734 5.04657   1
   5   1  -6 119.408 4.58692   6
  -5  -1   6 114.273 4.98345   1
  -5  -1   6 119.786 4.19924   5
  -5  -1   6 121.693 4.44434   6
  -5  -1   6 109.862 5.43761   3
  -5  -1   6 117.489 4.14352   5
   4   1  -6 0.94108 1.11655   6
   4   1  -6 1.59037 1.30087   4
   4   1  -6 1.67399 1.35250   5
   4   1  -6 -1.5264 1.53393   1
   4   1  -6 0.77800 1.20202   5
   4   1  -6 1.13010 1.48812   6
  -4  -1   6 0.96092 1.06033   5
  -4  -1   6 0.10562 1.06891   5
  -4  -1   6 0.49927 1.59562   3
  -4  -1   6 1.18040 1.34988   1
  -4  -1   6 0.21047 1.03323   6
   3   1  -6 81.2098 3.59386   5
   3   1  -6 83.2600 3.98656   6
   3   1  -6 83.9236 3.44349   6
   3   1  -6 82.2586 3.67051   5
   3   1  -6 79.3765 3.70331   1
   3   1  -6 85.0055 3.38245   4
  -3  -1   6 83.4940 3.51408   5
  -3  -1   6 79.6818 3.63706   1
  -3  -1   6 70.2117 3.75403   3
  -3  -1   6 81.8818 3.48434   6
  -3  -1   6 81.3792 3.47313   5
   2   1  -6 4.14788 1.53254   6
   2   1  -6 4.83376 1.18515   5
   2   1  -6 2.48713 0.87289   4
   2   1  -6 2.96246 1.15907   1
   2   1  -6 2.25862 1.05802   6
   2   1  -6 6.41790 1.36501   5
  -2  -1   6 4.90016 1.18904   4
  -2  -1   6 4.18798 1.51298   3
  -2  -1   6 1.89686 0.95764   5
  -2  -1   6 3.79132 1.15153   5
  -2  -1   6 3.54315 0.92854   6
  -2  -1   6 3.48772 1.17417   1
  -2  -1   6 5.02802 1.35212   6
   1   1  -6 73.3942 3.42907   5
   1   1  -6 71.2753 3.27122   5
   1   1  -6 72.8728 3.73532   6
   1   1  -6 73.6016 3.28701   1
   1   1  -6 75.7097 2.84577   4
   1   1  -6 65.7776 3.11760   6
  -1  -1   6 70.0632 3.07095   6
  -1  -1   6 70.5128 3.16270   1
  -1  -1   6 70.4007 3.26684   5
  -1  -1   6 74.6830 2.93471   4
   0   1  -6 9.11274 1.04847   4
   0   1  -6 8.70900 1.27461   5
   0   1  -6 7.41203 1.37085   5
   0   1  -6 9.35144 1.70829   6
   0   1  -6 7.48968 1.25615   6
   0   1  -6 10.2254 1.56395   2
   0   1  -6 6.23462 1.25188   1
   0  -1   6 6.22080 1.35734   5
   0  -1   6 6.98547 1.31620   6
   0  -1   6 7.61831 1.22556   6
   0  -1   6 8.04732 0.93366   4
   0  -1   6 5.54424 1.18305   1
   0  -1   6 7.84994 1.36010   5
  -1   1  -6 140.870 5.31558   6
  -1   1  -6 134.526 5.07861   5
  -1   1  -6 139.542 4.99808   5
  -1   1  -6 133.986 4.84003   6
  -1   1  -6 139.001 4.98251   1
  -1   1  -6 137.812 4.73442   2
  -1   1  -6 139.160 4.24508   3
  -1   1  -6 137.243 4.44375   4
   1  -1   6 137.461 5.01593   5
   1  -1   6 133.121 5.03675   5
   1  -1   6 134.843 4.34993   4
   1  -1   6 133.319 4.93426   1
   1  -1   6 139.931 4.81337   6
   1  -1   6 134.279 5.29175   6
  -2   1  -6 27.9310 2.56820   6
  -2   1  -6 24.8651 2.11734   6
  -2   1  -6 23.5146 2.44324   5
  -2   1  -6 27.2681 1.90152   4
  -2   1  -6 25.8534 2.51844   1
  -2   1  -6 22.4909 2.14123   2
  -2   1  -6 25.6925 1.74126   3
   2  -1   6 25.6185 2.08143   6
   2  -1   6 24.2048 2.48514   6
   2  -1   6 24.5392 2.27609   5
   2  -1   6 26.7202 2.42961   5
   2  -1   6 25.9456 1.67855   4
   2  -1   6 27.1331 2.48702   1
  -3   1  -6 66.1622 2.29979   3
  -3   1  -6 64.4672 3.01008   4
  -3   1  -6 62.4266 3.58048   1
  -3   1  -6 60.6293 3.10849   6
  -3   1  -6 59.5902 3.45957   6
  -3   1  -6 66.0702 3.01412   2
  -3   1  -6 60.9014 3.19368   5
   3  -1   6 63.9799 3.44221   5
   3  -1   6 63.7847 3.29977   5
   3  -1   6 58.6350 3.47783   1
   3  -1   6 66.2237 2.73639   4
   3  -1   6 66.3058 3.58120   6
   3  -1   6 61.6425 3.01340   6
  -4   1  -6 551.801 15.9639   6
  -4   1  -6 542.198 15.5024   5
  -4   1  -6 554.221 16.2546   1
  -4   1  -6 548.767 14.8582   3
  -4   1  -6 548.810 15.6615   4
  -4   1  -6 533.993 15.6891   6
  -4   1  -6 559.719 15.4882   2
  -4   1  -6 557.646 15.5466   5
   4  -1   6 536.386 15.3752   4
   4  -1   6 537.015 16.1963   1
   4  -1   6 542.234 15.6559   6
   4  -1   6 537.544 16.0008   5
   4  -1   6 549.239 15.9755   5
  -5   1  -6 96.6473 3.51039   5
  -5   1  -6 96.1096 3.63485   5
  -5   1  -6 103.287 4.52521   4
  -5   1  -6 95.9422 3.46034   3
  -5   1  -6 98.6105 4.41657   2
  -5   1  -6 100.029 5.36893   6
   5  -1   6 93.5645 4.44455   5
   5  -1   6 97.5941 5.15350   1
   5  -1   6 95.5394 4.27223   6
   5  -1   6 80.8865 5.53156   5
   5  -1   6 90.4177 4.11638   4
  -6   1  -6 14.8007 2.59891   2
  -6   1  -6 14.1604 1.72047   6
  -6   1  -6 13.7723 1.63648   6
  -6   1  -6 13.5396 2.03193   3
   6  -1   6 14.7815 3.14378   1
   6  -1   6 10.9035 2.22412   5
   6  -1   6 9.73757 2.15533   6
   6  -1   6 14.7160 2.13942   5
  -7   1  -6 13.7846 3.02435   2
   7  -1   6 13.4311 3.13596   4
   7  -1   6 15.5981 2.81956   5
   7  -1   6 7.74694 2.39320   5
   7  -1   6 9.48300 3.69535   1
   8  -1   6 17.2796 5.19095   1
   8  -1   6 12.5419 3.28338   5
   8  -1   6 10.7042 3.24925   5
   9   0  -6 3.64701 2.93502   5
   9   0  -6 4.08601 4.42258   4
   9   0  -6 3.25810 3.77210   6
   9   0  -6 10.6382 5.09029   5
  -9   0   6 5.20174 3.61424   3
   8   0  -6 2.30342 2.26080   5
   8   0  -6 5.38315 3.76239   1
   8   0  -6 -0.7703 2.27417   5
   8   0  -6 -1.6689 2.45386   6
   8   0  -6 4.34672 3.55636   4
  -8   0   6 0.74916 2.79122   3
   7   0  -6 -2.2323 1.82251   5
   7   0  -6 -0.8087 2.55006   4
   7   0  -6 0.67082 1.65336   6
   7   0  -6 -0.0417 1.72484   5
   7   0  -6 2.89181 2.33898   6
   7   0  -6 1.54486 2.50905   1
  -7   0   6 1.15410 2.36751   3
   6   0  -6 127.097 5.46604   1
   6   0  -6 122.861 5.55483   6
   6   0  -6 113.365 4.64535   6
   6   0  -6 118.531 4.87020   5
   6   0  -6 125.940 5.07659   5
   6   0  -6 114.992 5.45160   4
  -6   0   6 119.083 4.42814   6
  -6   0   6 105.715 5.65234   3
  -6   0   6 120.649 5.15022   1
   5   0  -6 28.3824 2.62205   5
   5   0  -6 26.8391 2.88863   5
   5   0  -6 21.7991 2.21081   4
   5   0  -6 22.1281 2.28531   6
   5   0  -6 28.5834 2.40811   6
   5   0  -6 24.7384 2.22567   1
  -5   0   6 23.7685 2.84970   3
  -5   0   6 28.8444 2.76485   1
  -5   0   6 24.8845 2.20099   5
  -5   0   6 29.3385 2.25286   5
  -5   0   6 29.5478 2.41505   6
   4   0  -6 125.196 4.66180   1
   4   0  -6 118.310 4.92615   6
   4   0  -6 114.184 4.59492   5
   4   0  -6 122.515 4.68139   5
   4   0  -6 109.854 4.49910   4
   4   0  -6 116.759 4.38432   6
  -4   0   6 113.430 4.70524   6
  -4   0   6 115.436 4.49419   1
  -4   0   6 106.886 5.00837   3
  -4   0   6 124.255 4.39593   5
  -4   0   6 122.776 4.48174   6
  -4   0   6 122.941 4.40219   5
   3   0  -6 24.0982 1.96980   6
   3   0  -6 26.3527 2.32797   5
   3   0  -6 22.3609 2.20422   1
   3   0  -6 24.5270 1.98326   4
   3   0  -6 20.8065 2.20681   5
   3   0  -6 30.5750 2.66245   6
  -3   0   6 26.2732 2.68443   3
  -3   0   6 25.0367 2.48206   6
  -3   0   6 24.9241 2.15503   1
  -3   0   6 26.2325 2.11577   5
  -3   0   6 23.7842 2.13695   5
   2   0  -6 155.068 5.17776   4
   2   0  -6 164.156 5.92033   6
   2   0  -6 161.911 5.62217   5
   2   0  -6 164.255 5.49283   1
   2   0  -6 163.106 5.45844   6
   2   0  -6 160.635 5.66769   5
  -2   0   6 165.072 5.66905   3
  -2   0   6 163.336 5.52989   5
  -2   0   6 155.544 5.66213   5
  -2   0   6 170.866 5.47833   6
  -2   0   6 167.066 5.45820   1
  -2   0   6 157.999 5.86436   6
   1   0  -6 32.7625 2.06404   6
   1   0  -6 32.0090 2.32984   5
   1   0  -6 33.1733 2.59186   2
   1   0  -6 32.1926 1.78314   4
   1   0  -6 34.0342 2.31511   1
   1   0  -6 31.5611 2.46352   5
  -1   0   6 33.3216 2.24244   3
  -1   0   6 34.7330 2.22151   1
  -1   0   6 37.4510 2.31669   5
  -1   0   6 30.9287 2.62962   6
  -1   0   6 38.1496 2.18888   6
  -1   0   6 35.2393 2.40964   5
  -1   0   6 33.0309 1.90520   4
   0   0  -6 31.5025 2.52600   6
   0   0  -6 30.4055 2.06323   6
   0   0  -6 30.2975 2.95140   2
   0   0  -6 33.0203 2.39657   5
   0   0  -6 30.3595 2.29701   5
   0   0  -6 33.1710 1.62528   4
   0   0  -6 29.3816 2.30373   1
   0   0   6 32.1850 1.67453   4
   0   0   6 31.5222 2.16597   6
   0   0   6 29.2272 2.20338   1
   0   0   6 32.1515 2.35821   5
   0   0   6 31.5626 2.59240   6
   0   0   6 30.4612 2.31664   5
  -1   0  -6 100.223 4.54783   5
  -1   0  -6 123.116 3.47603   3
  -1   0  -6 118.019 4.36437   2
  -1   0  -6 121.922 4.58290   1
  -1   0  -6 119.021 4.52875   5
  -1   0  -6 121.767 4.67514   6
  -1   0  -6 119.633 3.75470   4
  -1   0  -6 118.083 4.26609   6
   1   0   6 115.756 4.25988   6
   1   0   6 114.517 4.49173   5
   1   0   6 118.197 3.67141   4
   1   0   6 119.878 4.43209   5
   1   0   6 112.441 4.42584   1
   1   0   6 116.726 4.83594   6
  -2   0  -6 265.442 7.63835   4
  -2   0  -6 260.917 8.12092   6
  -2   0  -6 266.543 8.25238   5
  -2   0  -6 266.117 8.07881   2
  -2   0  -6 268.569 8.43403   1
  -2   0  -6 258.207 8.29835   5
   2   0   6 254.500 8.32358   5
   2   0   6 259.498 8.41293   1
   2   0   6 275.668 8.15729   6
   2   0   6 260.848 8.58232   6
   2   0   6 263.119 8.24187   5
   2   0   6 256.686 7.46301   4
  -3   0  -6 20.0425 2.12667   5
  -3   0  -6 19.9429 1.76830   4
  -3   0  -6 19.1112 1.79963   5
  -3   0  -6 20.5420 2.03615   6
  -3   0  -6 23.4843 2.31910   1
  -3   0  -6 19.2241 2.02287   6
   3   0   6 15.9303 2.01368   1
   3   0   6 19.4168 1.48280   4
   3   0   6 16.1429 1.76347   5
   3   0   6 21.5355 2.26540   5
   3   0   6 19.5842 1.82823   6
   3   0   6 19.6572 2.05490   6
  -4   0  -6 430.081 12.4008   5
  -4   0  -6 441.120 12.4317   5
  -4   0  -6 442.781 12.3592   4
  -4   0  -6 418.944 12.5499   6
  -4   0  -6 438.557 12.7829   2
  -4   0  -6 436.065 12.8609   6
  -4   0  -6 436.037 13.3403   1
   4   0   6 439.644 12.8997   5
   4   0   6 425.495 12.1320   4
   4   0   6 432.028 13.3651   1
   4   0   6 418.677 12.8809   5
   4   0   6 415.901 12.6174   6
   4   0   6 437.469 13.1873   6
  -5   0  -6 -1.0415 1.38100   6
  -5   0  -6 -0.3775 2.20197   2
   5   0   6 1.85683 1.62166   5
   5   0   6 2.02977 2.33777   1
   5   0   6 0.91042 1.83179   6
   5   0   6 1.13851 1.53518   6
   5   0   6 0.81944 1.62783   5
   5   0   6 1.06602 1.29712   4
  -6   0  -6 19.6956 2.09459   6
  -6   0  -6 21.8155 3.08813   2
  -6   0  -6 20.2173 2.02132   6
   6   0   6 15.4501 2.37139   6
   6   0   6 30.1846 3.64074   1
   6   0   6 20.2870 2.43900   5
   6   0   6 21.0695 2.08703   4
   6   0   6 19.4764 2.31913   5
  -7   0  -6 -3.1590 2.87488   2
   7   0   6 0.36191 3.98816   1
   7   0   6 -2.7945 2.17178   5
   7   0   6 1.09225 2.37820   5
  -8   0  -6 3.86866 3.80126   2
   8   0   6 -0.9022 5.48975   1
   8   0   6 -6.1110 3.03122   5
   8   0   6 6.49173 3.23139   5
   9  -1  -6 21.7712 3.32780   5
   9  -1  -6 22.2992 5.22054   4
   9  -1  -6 25.0554 3.72769   5
  -9   1   6 22.3103 4.29982   3
   8  -1  -6 -0.7896 2.22920   5
   8  -1  -6 -1.3592 2.35714   6
   8  -1  -6 -3.8236 3.22182   1
   8  -1  -6 -1.7724 2.40086   5
   8  -1  -6 0.75200 3.41659   4
  -8   1   6 2.41295 2.93039   3
   7  -1  -6 5.23864 2.75943   1
   7  -1  -6 1.00639 2.45095   4
   7  -1  -6 4.85114 4.19123   4
   7  -1  -6 2.77271 1.65053   6
   7  -1  -6 1.93837 2.34840   6
   7  -1  -6 0.70141 1.84497   5
   7  -1  -6 3.24547 2.14902   5
  -7   1   6 1.88047 2.62368   3
   6  -1  -6 -0.5819 1.90803   6
   6  -1  -6 -0.4947 1.53787   5
   6  -1  -6 1.59982 1.70019   5
   6  -1  -6 1.63093 1.38640   6
   6  -1  -6 -1.0539 1.67111   1
   6  -1  -6 1.44061 2.02302   4
  -6   1   6 -0.6232 1.56360   6
  -6   1   6 -1.8727 1.55398   1
  -6   1   6 -0.7474 1.94767   3
  -6   1   6 0.11032 1.01972   5
   5  -1  -6 9.08930 1.45754   6
   5  -1  -6 7.13452 1.88322   5
   5  -1  -6 8.69105 1.77771   4
   5  -1  -6 9.32915 1.85603   6
   5  -1  -6 7.75304 1.62264   1
   5  -1  -6 8.14879 1.60939   5
  -5   1   6 10.1980 1.41171   5
  -5   1   6 7.40563 2.28919   3
  -5   1   6 10.7940 1.56239   1
  -5   1   6 9.86220 1.48183   5
  -5   1   6 8.67738 1.50157   6
  -5   1   6 10.6485 1.72945   6
   4  -1  -6 126.190 5.04756   6
   4  -1  -6 118.837 4.78723   5
   4  -1  -6 116.237 4.63522   5
   4  -1  -6 124.414 4.45640   1
   4  -1  -6 118.126 4.59918   4
   4  -1  -6 116.189 4.40722   6
  -4   1   6 113.409 4.51231   5
  -4   1   6 116.072 5.15539   3
  -4   1   6 123.326 4.54330   5
  -4   1   6 117.575 4.95707   6
  -4   1   6 122.803 4.56178   6
  -4   1   6 121.134 4.40038   1
   3  -1  -6 0.38802 1.04672   5
   3  -1  -6 0.72418 0.85829   6
   3  -1  -6 0.54200 1.06668   1
   3  -1  -6 2.69994 1.45362   6
   3  -1  -6 -0.2660 1.14233   5
   3  -1  -6 0.31534 0.93902   4
  -3   1   6 1.27406 1.11307   5
  -3   1   6 2.39322 1.06912   6
  -3   1   6 1.78663 0.96446   1
  -3   1   6 1.98606 1.32243   6
  -3   1   6 0.94686 1.51416   3
   2  -1  -6 38.9052 2.35613   6
   2  -1  -6 41.5477 2.95487   6
   2  -1  -6 42.4779 2.10446   4
   2  -1  -6 33.7776 2.95904   2
   2  -1  -6 45.3359 2.46735   1
   2  -1  -6 36.0546 2.56655   5
   2  -1  -6 39.0973 2.68330   5
  -2   1   6 43.0271 2.69621   3
  -2   1   6 39.1295 2.84086   6
  -2   1   6 39.4194 2.33442   1
  -2   1   6 43.1799 2.61625   5
  -2   1   6 43.2011 2.72796   6
  -2   1   6 42.8263 2.65463   5
   1  -1  -6 1.34327 1.40850   2
   1  -1  -6 0.28604 0.57197   4
   1  -1  -6 0.61537 0.88299   6
   1  -1  -6 0.44616 1.07627   5
   1  -1  -6 0.58323 1.00354   1
   1  -1  -6 0.88695 1.20870   6
   1  -1  -6 0.49874 1.01993   5
  -1   1   6 0.94845 1.04548   6
  -1   1   6 0.18172 1.09835   3
  -1   1   6 0.17379 0.91947   6
  -1   1   6 1.30018 1.03560   5
  -1   1   6 0.50338 1.11774   5
  -1   1   6 -0.9541 0.87972   1
   0  -1  -6 7.55961 1.56065   2
   0  -1  -6 9.60906 1.30804   6
   0  -1  -6 10.1690 1.59681   5
   0  -1  -6 9.32738 1.47239   5
   0  -1  -6 9.68968 1.36931   1
   0  -1  -6 9.88060 0.84504   4
   0  -1  -6 11.0368 1.73952   6
   0   1   6 7.92951 1.33985   5
   0   1   6 9.28104 1.38505   1
   0   1   6 11.4671 1.26449   3
   0   1   6 10.4646 1.38686   6
   0   1   6 7.94997 1.21981   5
   0   1   6 7.71401 1.47794   6
  -1  -1  -6 -0.3263 1.14022   1
  -1  -1  -6 0.14504 0.87152   6
  -1  -1  -6 -0.1471 1.19095   6
  -1  -1  -6 0.63966 1.03592   5
  -1  -1  -6 0.65216 0.52634   4
  -1  -1  -6 0.79348 1.13146   5
  -1  -1  -6 -0.1828 1.18169   2
   1   1   6 0.30327 0.47911   4
   1   1   6 -0.0361 1.07947   1
   1   1   6 -0.7440 0.98652   5
   1   1   6 -0.3474 1.01389   6
   1   1   6 0.71935 0.86188   5
   1   1   6 0.91583 1.29387   6
  -2  -1  -6 58.2203 3.24912   2
  -2  -1  -6 60.5810 2.12692   4
  -2  -1  -6 59.3336 2.85882   6
  -2  -1  -6 58.4332 3.44766   1
  -2  -1  -6 60.3203 3.18146   5
  -2  -1  -6 63.1153 2.96787   5
   2   1   6 54.8717 2.99473   5
   2   1   6 57.7851 1.92127   4
   2   1   6 59.1836 2.95250   6
   2   1   6 57.7721 3.19363   5
   2   1   6 60.6140 3.36445   6
  -3  -1  -6 48.6834 2.71533   5
  -3  -1  -6 48.1144 3.42337   1
  -3  -1  -6 47.4510 3.26062   6
  -3  -1  -6 44.7088 3.07242   2
  -3  -1  -6 46.8578 2.82362   5
  -3  -1  -6 44.1886 2.59577   6
   3   1   6 50.7037 3.40640   6
   3   1   6 46.2603 1.64514   4
   3   1   6 44.6422 2.89535   5
   3   1   6 45.9025 3.35309   1
   3   1   6 42.3013 2.78917   6
   3   1   6 44.6953 3.02276   5
  -4  -1  -6 30.1017 2.70179   2
  -4  -1  -6 30.4457 2.37865   5
  -4  -1  -6 28.4953 2.28889   6
  -4  -1  -6 27.6153 2.84123   6
   4   1   6 23.1777 2.23510   5
   4   1   6 31.6252 3.23959   6
   4   1   6 34.7508 3.06945   1
   4   1   6 32.0355 2.83954   6
   4   1   6 29.5661 2.84469   5
   4   1   6 28.6507 1.49466   4
  -5  -1  -6 438.018 13.4534   2
  -5  -1  -6 440.213 12.6944   6
  -5  -1  -6 430.178 12.4726   6
   5   1   6 439.262 13.8563   1
   5   1   6 435.641 12.0571   4
   5   1   6 435.597 13.3063   6
   5   1   6 424.582 12.9187   6
   5   1   6 425.684 13.0686   5
   5   1   6 434.245 13.0021   5
  -6  -1  -6 94.0615 5.57180   2
   6   1   6 83.8202 6.31579   1
   6   1   6 89.8242 5.15406   6
   6   1   6 81.7664 4.49535   5
   6   1   6 81.6710 4.80523   5
   6   1   6 74.3910 4.65087   6
   6   1   6 83.5234 3.47875   4
   6   1   6 86.3710 3.60461   4
  -7  -1  -6 8.17513 3.45887   2
   7   1   6 5.06260 1.71702   4
   7   1   6 4.87103 2.60082   4
   7   1   6 0.00267 2.27151   5
   7   1   6 5.22238 2.69356   5
   7   1   6 8.87365 4.32981   1
   9  -2  -6 6.68856 3.13202   5
   9  -2  -6 7.72690 4.71492   4
  -9   2   6 7.25905 3.61162   3
   8  -2  -6 12.0565 2.94982   1
   8  -2  -6 9.62937 2.79973   5
   8  -2  -6 12.9339 2.58818   5
   8  -2  -6 4.33060 3.56425   4
  -8   2   6 12.7614 3.47402   3
   7  -2  -6 7.22400 4.07486   4
   7  -2  -6 -0.8814 1.84473   5
   7  -2  -6 -0.2478 1.66283   6
   7  -2  -6 1.55356 2.49812   4
   7  -2  -6 -0.3585 2.36604   6
   7  -2  -6 -2.1857 1.74469   1
   7  -2  -6 1.53349 2.05262   5
  -7   2   6 -2.4714 2.68142   3
  -7   2   6 0.69899 1.67256   6
   6  -2  -6 -2.6339 1.85459   5
   6  -2  -6 0.48808 3.03665   4
   6  -2  -6 0.36053 1.88205   4
   6  -2  -6 0.95855 1.55152   1
   6  -2  -6 -0.1909 1.35320   6
   6  -2  -6 -0.0069 2.00125   6
   6  -2  -6 -1.5522 1.48544   5
  -6   2   6 -0.1834 1.38057   5
  -6   2   6 0.50192 1.26453   5
  -6   2   6 0.17492 2.07737   3
  -6   2   6 3.46127 1.69176   6
  -6   2   6 -0.2623 1.36122   1
   5  -2  -6 232.122 7.76065   5
   5  -2  -6 243.637 8.25844   6
   5  -2  -6 230.255 7.97091   5
   5  -2  -6 235.074 8.53805   4
   5  -2  -6 229.111 7.88914   4
   5  -2  -6 239.047 7.55197   6
   5  -2  -6 233.599 7.26756   1
  -5   2   6 243.212 7.53205   5
  -5   2   6 218.856 8.48739   3
  -5   2   6 227.618 7.51829   5
  -5   2   6 227.099 7.93588   6
  -5   2   6 231.258 7.21541   1
  -5   2   6 235.847 7.77851   6
   4  -2  -6 17.2049 1.54985   1
   4  -2  -6 19.8719 2.02417   4
   4  -2  -6 14.1096 1.98624   6
   4  -2  -6 17.0401 2.06679   5
   4  -2  -6 18.3685 1.97498   5
   4  -2  -6 16.1904 1.57705   6
  -4   2   6 14.6101 1.65967   5
  -4   2   6 19.0495 2.49538   3
  -4   2   6 18.8914 2.17630   6
  -4   2   6 14.0072 1.72872   5
  -4   2   6 14.4252 1.71217   6
  -4   2   6 14.4543 1.45143   1
   3  -2  -6 156.959 5.88708   5
   3  -2  -6 148.502 6.17231   2
   3  -2  -6 162.267 5.28753   1
   3  -2  -6 166.294 5.80510   5
   3  -2  -6 165.758 5.51422   4
   3  -2  -6 163.355 5.61817   6
   3  -2  -6 165.365 6.22048   6
  -3   2   6 165.108 5.86664   5
  -3   2   6 162.853 5.28714   1
  -3   2   6 166.541 6.16174   6
  -3   2   6 162.733 6.10442   3
  -3   2   6 160.359 5.76827   5
  -3   2   6 169.064 5.81872   6
   2  -2  -6 36.9675 2.38502   6
   2  -2  -6 42.5502 2.16436   4
   2  -2  -6 40.2383 2.35243   1
   2  -2  -6 35.0921 2.95556   6
   2  -2  -6 40.3451 2.69146   5
   2  -2  -6 40.8020 2.81325   5
   2  -2  -6 38.7383 3.02846   2
  -2   2   6 39.2817 3.07136   6
  -2   2   6 44.2559 2.69754   6
  -2   2   6 46.0173 2.96784   5
  -2   2   6 41.6389 2.80942   5
  -2   2   6 42.7876 2.93658   3
  -2   2   6 40.9322 2.29840   1
   1  -2  -6 115.917 4.32427   6
   1  -2  -6 119.417 4.82847   2
   1  -2  -6 125.052 4.95945   6
   1  -2  -6 116.760 4.75043   5
   1  -2  -6 113.582 4.56220   5
   1  -2  -6 116.837 3.78335   4
   1  -2  -6 113.965 4.30779   1
  -1   2   6 116.155 4.87851   6
  -1   2   6 121.221 4.33403   3
  -1   2   6 117.200 4.29898   1
  -1   2   6 122.213 4.71409   5
  -1   2   6 117.526 4.52037   6
  -1   2   6 117.429 4.64921   5
   0  -2  -6 6.68435 1.39600   1
   0  -2  -6 6.30125 1.39536   6
   0  -2  -6 4.50781 1.00814   6
   0  -2  -6 7.39743 0.69815   4
   0  -2  -6 7.89736 1.43973   5
   0  -2  -6 9.01660 1.79323   2
   0  -2  -6 6.49706 1.44324   5
   0   2   6 6.37235 1.26522   1
   0   2   6 7.50740 1.29452   5
   0   2   6 6.37404 1.40724   5
   0   2   6 10.6458 1.40767   3
   0   2   6 5.92791 1.18967   6
   0   2   6 7.23926 1.51250   6
  -1  -2  -6 24.2300 2.63330   6
  -1  -2  -6 22.1731 2.21815   2
  -1  -2  -6 21.0756 0.96603   4
  -1  -2  -6 20.9274 2.16392   5
  -1  -2  -6 22.1183 1.96149   6
  -1  -2  -6 20.5994 2.08416   5
  -1  -2  -6 20.4663 1.92722   1
  -1  -2  -6 22.0141 0.91208   4
   1   2   6 20.9951 2.04440   1
   1   2   6 21.6126 2.26182   5
   1   2   6 20.9976 2.03966   5
   1   2   6 19.7077 2.16228   6
   1   2   6 22.5208 2.31781   6
   1   2   6 19.1653 1.46360   3
  -2  -2  -6 46.3897 3.13900   2
  -2  -2  -6 41.0501 3.12146   6
  -2  -2  -6 46.1797 2.68393   5
  -2  -2  -6 44.4061 3.01864   5
  -2  -2  -6 45.4557 3.31466   1
  -2  -2  -6 42.1934 2.53092   6
   2   2   6 42.2894 2.85556   5
   2   2   6 44.6144 3.15534   6
   2   2   6 43.9868 3.14278   1
   2   2   6 49.1429 3.05339   5
   2   2   6 43.5175 3.19919   6
  -3  -2  -6 162.293 6.34338   2
  -3  -2  -6 182.916 6.45546   6
  -3  -2  -6 172.324 6.05168   5
  -3  -2  -6 174.063 5.89548   5
  -3  -2  -6 170.752 5.85067   6
   3   2   6 179.287 6.17662   6
   3   2   6 176.913 6.71593   1
   3   2   6 171.858 6.21060   5
   3   2   6 180.439 6.34341   5
   3   2   6 178.058 6.61691   6
  -4  -2  -6 21.6309 2.29080   6
  -4  -2  -6 25.3434 2.82138   2
  -4  -2  -6 25.2461 1.96323   5
  -4  -2  -6 26.1704 2.32351   6
  -4  -2  -6 26.8812 2.28201   5
   4   2   6 25.7031 2.39853   5
   4   2   6 23.2707 2.53727   6
   4   2   6 21.6905 2.89160   1
   4   2   6 20.7050 2.28285   5
   4   2   6 22.3559 2.26538   6
  -5  -2  -6 205.694 6.64597   6
  -5  -2  -6 202.964 7.97025   2
  -5  -2  -6 224.500 7.05308   6
   5   2   6 210.971 8.53859   1
   5   2   6 209.948 7.44649   5
   5   2   6 205.789 7.77179   6
   5   2   6 201.978 7.41153   6
   5   2   6 211.317 7.48549   5
  -6  -2  -6 -1.0936 2.75808   2
   6   2   6 1.86644 2.04689   5
   6   2   6 0.49023 2.64643   6
   6   2   6 -2.3152 3.38930   1
   6   2   6 -1.7151 2.15441   5
  -7  -2  -6 7.84028 3.75950   2
   7   2   6 6.16417 2.91370   5
   7   2   6 3.82105 2.75627   5
   7   2   6 1.46201 4.74800   1
   9  -3  -6 10.9292 3.99498   2
  -9   3   6 14.4173 4.12115   3
   8  -3  -6 21.9132 2.20906   1
   8  -3  -6 20.4684 3.45265   5
   8  -3  -6 20.7205 3.09874   6
   8  -3  -6 19.8603 4.19576   4
   8  -3  -6 21.5641 3.11849   5
   8  -3  -6 17.9369 1.83006   1
  -8   3   6 19.1395 3.88403   3
   7  -3  -6 0.65330 2.80534   6
   7  -3  -6 0.90104 2.20786   5
   7  -3  -6 2.21184 2.68025   4
   7  -3  -6 0.88306 2.59227   2
   7  -3  -6 3.66974 4.29045   4
   7  -3  -6 2.33403 2.38197   5
   7  -3  -6 -0.5543 1.79755   6
   7  -3  -6 0.60856 1.36605   1
  -7   3   6 -0.2161 2.53348   3
  -7   3   6 0.89942 1.26065   5
  -7   3   6 -0.2070 1.14371   5
  -7   3   6 1.52816 1.99906   6
   6  -3  -6 1.42681 1.16352   1
   6  -3  -6 1.18088 2.24038   5
   6  -3  -6 2.84136 1.88754   5
   6  -3  -6 1.45613 2.94013   4
   6  -3  -6 -0.0162 1.40561   6
   6  -3  -6 0.86800 2.38308   2
   6  -3  -6 1.58035 2.38942   6
  -6   3   6 4.63990 2.51759   3
  -6   3   6 0.91708 1.56075   5
  -6   3   6 3.34712 2.03025   6
  -6   3   6 0.46038 1.75628   5
   5  -3  -6 -0.2886 1.53660   5
   5  -3  -6 2.33789 2.34232   4
   5  -3  -6 0.25225 1.82365   6
   5  -3  -6 -0.2904 1.51857   5
   5  -3  -6 0.25846 0.99609   1
   5  -3  -6 -1.2732 1.10079   6
   5  -3  -6 1.44368 2.12796   2
  -5   3   6 -0.4665 1.70379   6
  -5   3   6 0.96245 1.55384   5
  -5   3   6 -1.0136 1.72023   6
  -5   3   6 1.71646 1.47622   5
  -5   3   6 1.16074 1.02148   1
  -5   3   6 1.33916 2.02437   3
   4  -3  -6 21.6121 2.44926   6
   4  -3  -6 23.9172 1.94215   1
   4  -3  -6 22.5948 2.50944   6
   4  -3  -6 26.7581 2.39240   5
   4  -3  -6 19.3777 2.55974   4
   4  -3  -6 16.8278 2.47059   2
   4  -3  -6 17.8861 2.18381   5
  -4   3   6 20.8639 2.32921   5
  -4   3   6 18.0480 1.96254   5
  -4   3   6 23.4166 2.59013   6
  -4   3   6 23.7016 1.90997   1
  -4   3   6 22.2435 2.78972   3
   3  -3  -6 75.3442 4.24931   2
   3  -3  -6 81.5472 3.89732   5
   3  -3  -6 84.3187 4.02859   4
   3  -3  -6 76.9279 4.16269   5
   3  -3  -6 77.7108 3.64606   6
   3  -3  -6 75.1775 4.38573   6
   3  -3  -6 76.6389 3.17175   1
  -3   3   6 84.3352 3.98057   5
  -3   3   6 75.5210 3.88788   6
  -3   3   6 74.7147 4.18105   3
  -3   3   6 79.5903 4.06631   5
  -3   3   6 81.1858 3.12466   1
  -3   3   6 80.7307 4.26901   6
   2  -3  -6 6.65434 1.28773   6
   2  -3  -6 5.17968 1.31212   5
   2  -3  -6 6.52171 1.38515   4
   2  -3  -6 6.15215 1.20404   1
   2  -3  -6 4.48045 1.04513   4
   2  -3  -6 8.63463 1.85827   5
   2  -3  -6 6.58042 1.88408   2
   2  -3  -6 8.88102 1.96245   6
  -2   3   6 7.12442 1.71168   5
  -2   3   6 5.84397 1.59983   6
  -2   3   6 8.67686 1.24242   1
  -2   3   6 6.67642 1.76398   5
  -2   3   6 7.57285 1.54019   6
  -2   3   6 8.60812 1.82843   3
   1  -3  -6 14.2226 1.89461   5
   1  -3  -6 18.5688 1.94466   5
   1  -3  -6 17.1860 1.44021   4
   1  -3  -6 19.9705 2.09183   6
   1  -3  -6 16.9914 1.63347   1
   1  -3  -6 21.2726 2.34178   6
   1  -3  -6 22.0845 1.82026   4
   1  -3  -6 14.5378 2.00532   2
  -1   3   6 15.6194 1.97417   6
  -1   3   6 11.5089 1.63354   5
  -1   3   6 22.1546 2.10681   1
  -1   3   6 15.9602 1.77665   6
  -1   3   6 19.7973 2.11890   5
  -1   3   6 19.9805 1.97394   3
   0  -3  -6 -0.0874 0.46103   4
   0  -3  -6 -0.1489 1.43913   2
   0  -3  -6 0.94162 1.54588   5
   0  -3  -6 0.05730 0.89200   6
   0  -3  -6 0.02576 0.64851   4
   0  -3  -6 -1.0576 1.47244   6
   0  -3  -6 0.79139 1.29494   5
   0  -3  -6 0.44107 1.24610   1
   0   3   6 -1.9232 1.36496   6
   0   3   6 -1.6079 1.35434   5
   0   3   6 0.30931 1.29690   5
   0   3   6 1.86910 1.42794   6
   0   3   6 0.07663 1.37034   3
   0   3   6 1.21844 1.24124   1
  -1  -3  -6 0.56864 1.57691   5
  -1  -3  -6 2.39285 1.31340   5
  -1  -3  -6 3.58171 1.46731   6
  -1  -3  -6 1.44454 1.48423   2
  -1  -3  -6 0.94218 1.02012   6
   1   3   6 0.88501 1.34191   6
   1   3   6 4.14922 1.55233   5
   1   3   6 1.97733 1.40131   5
   1   3   6 1.70350 1.32833   3
   1   3   6 1.95757 1.46118   1
   1   3   6 0.88958 1.31173   6
  -2  -3  -6 7.67850 1.65480   6
  -2  -3  -6 8.13567 1.54460   5
  -2  -3  -6 6.83883 1.93992   2
  -2  -3  -6 6.98878 1.34254   6
  -2  -3  -6 6.53510 1.78264   5
   2   3   6 9.09264 1.78655   5
   2   3   6 5.60271 1.90770   1
   2   3   6 7.13451 1.74258   5
   2   3   6 7.39186 1.73434   6
   2   3   6 4.85540 1.65791   6
   2   3   6 6.21148 1.24686   3
  -3  -3  -6 19.4664 1.88676   5
  -3  -3  -6 17.1077 2.06094   5
  -3  -3  -6 17.2538 2.29187   6
  -3  -3  -6 18.2239 1.79567   6
  -3  -3  -6 18.3006 2.45987   2
   3   3   6 16.2352 2.41320   1
   3   3   6 20.0979 2.21024   6
   3   3   6 22.1498 2.26743   5
   3   3   6 16.6542 2.18989   5
   3   3   6 24.5191 2.65474   6
  -4  -3  -6 49.3147 2.92210   6
  -4  -3  -6 50.2104 3.28129   5
  -4  -3  -6 46.4014 4.10820   2
  -4  -3  -6 50.9492 2.94216   5
  -4  -3  -6 51.1487 3.78020   6
   4   3   6 48.2311 3.93573   6
   4   3   6 49.3471 4.62051   1
   4   3   6 45.1806 3.71530   5
   4   3   6 38.6220 4.04044   6
   4   3   6 49.0183 3.88492   5
  -5  -3  -6 21.2602 2.32582   6
  -5  -3  -6 18.2313 3.02702   2
  -5  -3  -6 23.2977 1.95321   6
   5   3   6 23.1303 2.92397   6
   5   3   6 23.6263 2.76737   5
   5   3   6 18.4265 3.51109   1
   5   3   6 19.7927 2.87554   6
   5   3   6 24.0617 2.75215   5
  -6  -3  -6 245.440 9.73199   2
   6   3   6 241.492 9.97854   6
   6   3   6 252.611 10.8727   1
   6   3   6 245.418 8.98938   5
   6   3   6 247.701 8.96514   5
  -7  -3  -6 59.7313 6.42428   2
   7   3   6 52.9473 5.73173   5
   7   3   6 61.3565 5.81552   5
   7   3   6 52.1994 6.46894   1
   8  -4  -6 5.22730 3.05680   5
   8  -4  -6 4.33988 3.78068   5
   8  -4  -6 2.72912 3.01196   2
  -8   4   6 2.55300 2.55610   6
  -8   4   6 7.47079 3.78685   3
   7  -4  -6 16.4130 2.50668   6
   7  -4  -6 15.8918 3.25872   2
   7  -4  -6 17.1352 3.39106   5
   7  -4  -6 15.8350 2.75501   5
  -7   4   6 21.0955 2.20357   5
  -7   4   6 17.8253 2.88023   6
  -7   4   6 17.1377 3.43395   3
  -7   4   6 17.7772 2.39114   5
   6  -4  -6 1.31550 1.64131   6
   6  -4  -6 2.56839 3.69102   4
   6  -4  -6 1.50089 2.74185   6
   6  -4  -6 0.06348 2.31360   2
   6  -4  -6 2.11310 2.09658   5
   6  -4  -6 0.54255 2.22025   5
  -6   4   6 0.42371 2.06811   6
  -6   4   6 -0.2933 1.75337   5
  -6   4   6 -1.8067 2.29870   3
  -6   4   6 2.84539 2.22733   5
   5  -4  -6 0.50989 1.80891   5
   5  -4  -6 -0.4298 2.28952   6
   5  -4  -6 -0.0290 1.35540   6
   5  -4  -6 0.24685 2.02562   5
   5  -4  -6 0.38623 2.58038   4
   5  -4  -6 -0.0360 2.07409   2
   5  -4  -6 0.43123 0.78053   1
  -5   4   6 0.19164 0.84185   1
  -5   4   6 1.32922 1.82610   5
  -5   4   6 -0.7317 1.96252   6
  -5   4   6 1.86406 1.97227   5
  -5   4   6 1.14987 2.36699   3
   4  -4  -6 258.960 9.58528   2
   4  -4  -6 279.014 9.06098   6
   4  -4  -6 289.398 9.58058   5
   4  -4  -6 284.587 9.44162   4
   4  -4  -6 274.656 7.99905   1
   4  -4  -6 276.503 9.21826   5
   4  -4  -6 273.329 9.68808   6
  -4   4   6 272.035 9.55712   6
  -4   4   6 279.101 9.32478   5
  -4   4   6 273.685 7.98447   1
  -4   4   6 289.161 9.45586   6
  -4   4   6 272.411 9.69375   3
   3  -4  -6 12.6400 2.09171   5
   3  -4  -6 16.6543 2.61909   6
   3  -4  -6 8.87681 1.70331   5
   3  -4  -6 11.9487 1.94963   4
   3  -4  -6 13.6355 1.84926   6
   3  -4  -6 11.8304 2.21753   2
   3  -4  -6 12.8692 1.35941   1
  -3   4   6 14.1850 2.25314   5
  -3   4   6 14.5395 2.25361   5
  -3   4   6 12.9228 2.42101   3
  -3   4   6 10.1068 1.98255   6
  -3   4   6 10.8250 1.26117   1
  -3   4   6 13.0433 2.11556   6
   2  -4  -6 85.0216 3.50872   1
   2  -4  -6 83.5452 4.69328   6
   2  -4  -6 80.6780 4.32548   2
   2  -4  -6 86.1896 3.98183   6
   2  -4  -6 84.4363 4.18521   5
   2  -4  -6 88.4304 4.63977   5
   2  -4  -6 85.6939 3.81047   4
  -2   4   6 78.1478 4.29253   3
  -2   4   6 79.7775 3.41703   1
  -2   4   6 94.0866 4.65443   5
  -2   4   6 84.0438 4.54345   6
  -2   4   6 78.0996 4.35995   5
  -2   4   6 87.5233 4.43834   6
   1  -4  -6 50.2957 2.56795   4
   1  -4  -6 52.5050 3.41002   5
   1  -4  -6 48.3811 3.46856   2
   1  -4  -6 47.6316 3.80011   6
   1  -4  -6 46.8294 3.75208   5
   1  -4  -6 52.0012 3.12098   6
  -1   4   6 49.5484 3.38998   3
  -1   4   6 54.6590 3.79668   6
  -1   4   6 52.2481 3.89874   6
  -1   4   6 48.2450 3.71539   5
  -1   4   6 48.5867 2.87338   1
  -1   4   6 58.9892 3.82795   5
   0  -4  -6 55.4650 1.97299   4
   0  -4  -6 54.2683 3.97141   6
   0  -4  -6 53.5692 3.20611   6
   0  -4  -6 53.0374 3.63170   2
   0  -4  -6 54.4157 2.08710   4
   0  -4  -6 56.0822 3.53825   5
   0  -4  -6 54.7527 4.00253   5
   0   4   6 56.9542 3.73676   6
   0   4   6 50.6975 3.73241   5
   0   4   6 56.2135 3.20456   1
   0   4   6 59.2334 3.94886   6
   0   4   6 51.9797 3.79675   5
  -1  -4  -6 -1.7641 1.83648   5
  -1  -4  -6 2.57044 1.56004   6
  -1  -4  -6 -0.3482 1.35082   5
  -1  -4  -6 0.14119 1.20815   6
  -1  -4  -6 1.25637 1.80200   2
   1   4   6 -0.4660 1.79959   5
   1   4   6 2.25036 1.68952   1
   1   4   6 1.13927 1.64110   5
   1   4   6 -0.0885 1.59921   3
   1   4   6 1.00251 1.64111   6
  -2  -4  -6 5.02593 1.42312   6
  -2  -4  -6 3.78221 1.59730   5
  -2  -4  -6 4.94852 2.02911   6
  -2  -4  -6 4.52985 1.83066   5
  -2  -4  -6 2.95610 2.03362   2
   2   4   6 3.18276 1.77369   6
   2   4   6 2.50345 1.99487   1
   2   4   6 3.96846 1.86297   6
   2   4   6 5.77232 2.01329   5
   2   4   6 4.04524 1.71408   3
   2   4   6 2.19850 1.76994   5
  -3  -4  -6 7.93133 2.29885   6
  -3  -4  -6 8.36797 2.41923   6
  -3  -4  -6 3.62730 2.03037   2
  -3  -4  -6 7.08122 1.69446   5
  -3  -4  -6 7.30978 2.12076   5
   3   4   6 6.84504 2.35782   1
   3   4   6 7.71529 2.08411   3
   3   4   6 5.30859 2.09142   5
   3   4   6 7.82032 2.27088   6
   3   4   6 6.38444 2.00407   5
   3   4   6 6.25009 2.20548   6
  -4  -4  -6 64.4822 4.02320   5
  -4  -4  -6 72.8635 4.86806   2
  -4  -4  -6 72.2760 4.80470   6
  -4  -4  -6 71.2202 3.65171   6
  -4  -4  -6 69.3587 3.61360   5
   4   4   6 72.3617 4.73677   5
   4   4   6 69.8361 4.94542   5
   4   4   6 58.8287 4.93717   6
   4   4   6 72.4312 5.33117   1
   4   4   6 65.6281 5.03894   6
  -5  -4  -6 25.9476 3.58469   2
  -5  -4  -6 22.2759 2.08329   6
  -5  -4  -6 22.0269 2.58252   6
   5   4   6 25.3580 4.15221   1
   5   4   6 21.4572 3.19543   5
   5   4   6 22.2540 3.58975   6
   5   4   6 17.6004 2.90156   5
  -6  -4  -6 67.9812 6.01039   2
   6   4   6 64.2627 6.01672   5
   6   4   6 70.6800 5.93661   5
   6   4   6 65.9818 6.24505   1
   8  -5  -6 16.0051 3.71447   2
   8  -5  -6 18.6610 3.84155   5
  -8   5   6 11.5863 3.72111   3
  -8   5   6 12.1340 3.29882   6
   7  -5  -6 9.20873 3.15465   2
   7  -5  -6 9.00292 3.82532   5
   7  -5  -6 8.75509 2.81462   6
   7  -5  -6 10.4799 3.19239   5
  -7   5   6 10.5844 3.32928   3
  -7   5   6 11.6101 3.12256   6
   6  -5  -6 1.39623 3.27635   6
   6  -5  -6 1.53461 2.44287   2
   6  -5  -6 1.86636 2.38850   5
   6  -5  -6 2.71673 2.62737   5
   6  -5  -6 0.67137 3.60608   4
   6  -5  -6 1.57363 1.79522   6
  -6   5   6 -1.8237 2.56120   6
  -6   5   6 2.02663 2.72532   3
  -6   5   6 -0.5555 2.33736   5
  -6   5   6 -1.0638 2.58630   5
   5  -5  -6 36.5887 3.87152   6
   5  -5  -6 29.7154 3.63337   4
   5  -5  -6 38.9089 4.10365   5
   5  -5  -6 40.3428 3.77866   5
   5  -5  -6 26.2549 3.23678   2
  -5   5   6 34.4017 3.32196   5
  -5   5   6 34.8631 3.14489   5
  -5   5   6 42.5519 4.60716   6
  -5   5   6 35.0474 3.90959   3
   4  -5  -6 2.12926 2.18589   6
   4  -5  -6 0.60647 1.95453   5
   4  -5  -6 3.12978 2.39291   5
   4  -5  -6 -2.7232 2.02960   4
   4  -5  -6 0.42308 1.82555   6
   4  -5  -6 1.00931 2.16198   2
  -4   5   6 2.63223 2.20932   6
  -4   5   6 1.09415 2.14332   5
  -4   5   6 -1.1350 2.06079   3
  -4   5   6 0.78893 0.87544   1
  -4   5   6 2.76284 2.13744   5
   3  -5  -6 50.2341 4.70819   5
   3  -5  -6 45.4426 3.59176   6
   3  -5  -6 41.8962 3.72262   5
   3  -5  -6 37.9563 3.60702   2
  -3   5   6 41.0194 4.13095   6
  -3   5   6 40.3637 3.88940   3
  -3   5   6 43.6221 4.37608   5
  -3   5   6 41.0127 2.41266   1
  -3   5   6 41.8926 4.13511   5
  -3   5   6 43.8820 4.22610   6
   2  -5  -6 43.4971 3.62547   2
   2  -5  -6 46.2682 3.45059   6
   2  -5  -6 44.0114 3.06485   4
   2  -5  -6 43.1751 4.49951   5
   2  -5  -6 38.4245 4.26786   6
   2  -5  -6 46.1992 3.66945   5
  -2   5   6 52.7948 4.16574   5
  -2   5   6 38.3601 4.15933   6
  -2   5   6 45.3490 4.35659   5
  -2   5   6 44.2078 3.86910   3
  -2   5   6 45.1873 2.76893   1
  -2   5   6 43.8019 4.06795   6
   1  -5  -6 7.39272 2.12361   2
   1  -5  -6 6.75341 1.85263   6
   1  -5  -6 7.84344 1.75482   5
   1  -5  -6 9.03459 2.31700   6
   1  -5  -6 10.6036 1.36475   4
   1  -5  -6 9.95672 2.54815   5
  -1   5   6 12.9636 2.42540   5
  -1   5   6 7.69682 2.18490   3
  -1   5   6 7.19911 1.99302   6
  -1   5   6 7.89507 1.70343   1
  -1   5   6 7.53667 1.94868   6
  -1   5   6 8.66343 2.34051   5
   0  -5  -6 3.92009 2.06970   5
   0  -5  -6 9.15597 1.78976   6
   0  -5  -6 8.61960 2.09052   2
   0  -5  -6 10.5746 0.94354   4
   0  -5  -6 5.10835 1.96275   5
   0  -5  -6 6.22273 2.02939   6
   0  -5  -6 7.40546 0.89568   4
   0   5   6 13.7218 2.30025   3
   0   5   6 7.18794 2.25820   5
   0   5   6 6.50022 1.85608   1
   0   5   6 7.32633 2.31732   5
   0   5   6 7.36700 2.20010   6
   0   5   6 7.90948 2.16531   6
  -1  -5  -6 1.33363 1.85307   2
  -1  -5  -6 1.41456 1.94184   6
  -1  -5  -6 1.91025 1.58916   5
  -1  -5  -6 2.22500 1.62290   6
  -1  -5  -6 1.41679 2.22852   5
   1   5   6 -0.0601 2.32152   6
   1   5   6 -0.6232 2.06366   5
   1   5   6 1.99219 1.88498   3
   1   5   6 -0.5614 2.12291   1
   1   5   6 -0.5966 1.97370   5
   1   5   6 -1.0056 2.04616   6
  -2  -5  -6 7.32793 1.74366   5
  -2  -5  -6 7.08324 2.43765   5
  -2  -5  -6 8.91641 1.72715   6
  -2  -5  -6 8.64528 2.49109   2
   2   5   6 4.37766 2.28122   1
   2   5   6 10.9953 2.71227   6
   2   5   6 8.59415 2.45253   5
   2   5   6 7.81678 2.29219   6
   2   5   6 9.98177 2.55688   5
  -3  -5  -6 16.1611 2.28881   5
  -3  -5  -6 15.1085 2.84596   6
  -3  -5  -6 15.1175 2.74667   5
  -3  -5  -6 14.0522 2.04495   6
  -3  -5  -6 11.3651 2.88623   2
   3   5   6 12.1205 2.93950   1
   3   5   6 17.5066 3.04453   6
   3   5   6 11.7151 2.79267   5
   3   5   6 14.4070 2.59435   3
   3   5   6 11.1778 2.83261   6
   3   5   6 15.5868 2.87660   5
  -4  -5  -6 12.2300 2.65866   6
  -4  -5  -6 10.7609 2.49521   5
  -4  -5  -6 9.36766 1.96992   6
  -4  -5  -6 12.0017 3.08964   2
  -4  -5  -6 12.6332 2.09554   5
   4   5   6 6.29449 2.92773   3
   4   5   6 8.72572 2.86654   5
   4   5   6 11.6359 3.50044   1
   4   5   6 15.8574 3.19517   6
  -5  -5  -6 27.9455 3.96001   2
  -5  -5  -6 26.0845 2.46365   6
  -5  -5  -6 34.0299 3.18638   6
   5   5   6 22.8022 3.58023   5
   5   5   6 35.0714 4.00653   5
   5   5   6 37.5196 4.87908   1
   5   5   6 34.0415 4.79423   6
  -6  -5  -6 9.44771 3.86763   2
   6   5   6 13.7987 5.60853   1
   6   5   6 22.0929 4.00118   5
   8  -6  -6 49.3871 5.02165   5
   8  -6  -6 44.0086 4.78612   2
  -8   6   6 42.7442 5.30480   3
  -8   6   6 48.7023 5.41005   6
   7  -6  -6 0.58647 2.86649   2
   7  -6  -6 4.58640 3.37978   5
  -7   6   6 3.96877 3.76074   6
  -7   6   6 4.68904 3.23559   5
  -7   6   6 4.01840 3.57547   3
   6  -6  -6 21.3596 3.44282   2
   6  -6  -6 14.3580 3.09213   6
   6  -6  -6 18.6150 3.45175   5
   6  -6  -6 18.7056 4.09203   6
   6  -6  -6 17.5064 4.11905   5
   6  -6  -6 27.1240 4.96411   4
  -6   6   6 15.5446 3.39558   3
  -6   6   6 17.9464 3.25986   5
  -6   6   6 21.2412 3.73345   6
   5  -6  -6 1.83388 2.44882   5
   5  -6  -6 1.08705 3.47968   6
   5  -6  -6 -0.5255 2.32580   2
   5  -6  -6 1.04408 2.88219   5
   5  -6  -6 0.77743 2.29925   6
   5  -6  -6 0.45070 3.27238   4
  -5   6   6 -0.4514 2.75694   6
  -5   6   6 1.95830 3.03087   5
  -5   6   6 -1.0409 2.69814   3
  -5   6   6 -0.9964 2.32121   5
   4  -6  -6 4.31949 2.49885   6
   4  -6  -6 3.11129 2.07541   5
   4  -6  -6 7.07596 2.36253   6
   4  -6  -6 6.29449 2.66531   4
   4  -6  -6 5.06370 2.39017   2
   4  -6  -6 3.23782 2.94822   5
  -4   6   6 2.04206 2.81435   5
  -4   6   6 5.27599 2.63145   3
  -4   6   6 7.91125 2.98447   6
  -4   6   6 3.88721 4.09663   5
   3  -6  -6 214.215 8.88684   5
   3  -6  -6 209.230 7.71589   4
   3  -6  -6 212.873 8.92465   6
   3  -6  -6 197.766 8.08412   2
   3  -6  -6 213.837 8.07730   6
   3  -6  -6 211.913 8.23151   5
  -3   6   6 223.898 8.62558   5
  -3   6   6 217.193 6.60569   1
  -3   6   6 212.800 8.41131   3
  -3   6   6 219.491 8.79989   5
  -3   6   6 200.414 8.71052   6
   2  -6  -6 12.4790 2.27584   6
   2  -6  -6 18.6830 2.86909   5
   2  -6  -6 15.0080 2.68919   6
   2  -6  -6 14.7740 1.97056   4
   2  -6  -6 14.8754 2.71867   2
   2  -6  -6 15.2933 3.31140   5
  -2   6   6 6.65444 2.44435   3
  -2   6   6 16.2691 3.07499   6
  -2   6   6 13.5331 3.23264   5
  -2   6   6 13.2487 1.86255   1
  -2   6   6 16.8005 3.03472   5
   1  -6  -6 30.9513 2.42117   4
   1  -6  -6 26.2799 3.13318   2
   1  -6  -6 25.2767 2.65645   6
   1  -6  -6 31.2531 3.20824   5
   1  -6  -6 22.2923 3.10017   6
   1  -6  -6 29.5416 3.72954   5
  -1   6   6 27.4590 2.41876   1
  -1   6   6 23.7750 2.89517   3
  -1   6   6 24.4509 3.05769   5
  -1   6   6 30.0426 3.60925   5
  -1   6   6 19.4085 2.98297   6
   0  -6  -6 46.6809 4.81336   6
   0  -6  -6 47.1031 4.25624   5
   0  -6  -6 48.0849 2.08030   4
   0  -6  -6 48.4938 4.17281   2
   0  -6  -6 40.4994 3.86852   6
   0  -6  -6 33.1293 3.31857   5
   0   6   6 46.7239 4.05570   3
   0   6   6 49.0896 5.22630   5
   0   6   6 47.5725 5.02068   6
   0   6   6 48.7163 3.96668   1
   0   6   6 48.9534 4.24356   6
   0   6   6 40.8287 3.79378   5
  -1  -6  -6 26.0510 3.36451   5
  -1  -6  -6 28.2816 2.95105   5
  -1  -6  -6 28.7077 3.54276   6
  -1  -6  -6 26.0085 2.64044   6
  -1  -6  -6 25.4902 3.26617   2
   1   6   6 31.3855 3.62868   5
   1   6   6 23.4782 3.32792   6
   1   6   6 25.2197 3.04039   1
   1   6   6 21.7360 3.18436   6
   1   6   6 29.1217 3.55866   5
   1   6   6 26.6433 2.94679   3
  -2  -6  -6 14.6654 2.42247   5
  -2  -6  -6 8.47680 2.23669   6
  -2  -6  -6 10.3771 2.59731   2
  -2  -6  -6 12.5452 3.23550   5
   2   6   6 10.8655 3.32373   6
   2   6   6 12.9432 2.54584   3
   2   6   6 12.7015 2.84111   1
   2   6   6 10.8424 3.20231   5
   2   6   6 6.19456 2.94448   5
  -3  -6  -6 -0.1522 2.23171   5
  -3  -6  -6 -0.5264 2.99072   5
  -3  -6  -6 -0.2685 2.77968   6
  -3  -6  -6 -3.0849 1.91657   6
  -3  -6  -6 1.60218 2.62321   2
   3   6   6 3.60816 3.12025   5
   3   6   6 2.19315 2.87975   5
   3   6   6 0.89870 3.15787   1
   3   6   6 -0.8463 2.90905   6
   3   6   6 0.10773 2.58052   3
  -4  -6  -6 -0.4123 2.61556   2
  -4  -6  -6 -1.6666 2.81848   6
  -4  -6  -6 0.29961 2.19158   5
  -4  -6  -6 1.81607 2.09224   6
   4   6   6 -0.9279 3.82373   5
   4   6   6 0.67475 3.31021   5
   4   6   6 -1.5601 3.32844   3
   4   6   6 5.92351 4.04911   1
   4   6   6 2.56956 4.59766   6
  -5  -6  -6 23.7843 3.35601   6
  -5  -6  -6 22.8633 2.68531   6
  -5  -6  -6 17.3873 4.61648   2
   5   6   6 18.2918 5.19087   1
   5   6   6 23.1960 4.22770   5
   7  -7  -6 14.2337 3.48911   2
   7  -7  -6 16.4618 4.06384   5
  -7   7   6 18.1264 4.71383   6
  -7   7   6 12.4158 4.25922   3
   6  -7  -6 -4.7317 3.49414   5
   6  -7  -6 4.01401 3.30841   6
   6  -7  -6 0.26266 2.74538   2
   6  -7  -6 3.68096 5.37699   5
  -6   7   6 -2.0788 3.70367   6
  -6   7   6 -0.9764 3.66669   5
  -6   7   6 5.40255 3.44759   3
   5  -7  -6 5.64029 3.85513   4
   5  -7  -6 6.49756 3.06266   6
   5  -7  -6 5.33396 3.41208   5
   5  -7  -6 3.17162 2.59058   2
   5  -7  -6 9.50435 4.46847   6
   5  -7  -6 4.99903 4.69226   5
  -5   7   6 4.81096 3.31641   6
  -5   7   6 10.1271 4.72662   5
  -5   7   6 3.50337 3.21914   5
  -5   7   6 4.30620 3.09845   3
   4  -7  -6 81.6237 7.31078   5
   4  -7  -6 89.1793 6.21392   4
   4  -7  -6 87.4182 7.34906   6
   4  -7  -6 74.7961 5.21494   2
   4  -7  -6 85.7762 5.83610   6
   4  -7  -6 81.9761 6.17432   5
  -4   7   6 88.0614 5.87777   3
  -4   7   6 93.9562 7.68280   5
  -4   7   6 89.1235 6.73438   5
  -4   7   6 83.2576 6.99858   6
   3  -7  -6 2.52710 3.00909   6
   3  -7  -6 4.10893 2.60640   6
   3  -7  -6 0.28419 2.23819   4
   3  -7  -6 0.01885 2.68873   5
   3  -7  -6 1.42505 2.50998   2
   3  -7  -6 -0.7349 3.29809   5
  -3   7   6 3.21129 3.28359   6
  -3   7   6 5.27842 3.70016   5
  -3   7   6 4.04504 3.41878   5
  -3   7   6 1.73075 1.45016   1
  -3   7   6 3.24644 1.48222   1
  -3   7   6 3.83558 2.91822   3
   2  -7  -6 34.2884 3.42614   5
   2  -7  -6 24.7071 3.19044   2
   2  -7  -6 30.1474 3.88496   5
   2  -7  -6 48.0547 4.74956   6
   2  -7  -6 36.9431 3.50381   6
  -2   7   6 35.5596 4.34032   5
  -2   7   6 43.4665 3.53352   1
  -2   7   6 37.3492 3.38367   1
  -2   7   6 38.7081 4.06891   5
  -2   7   6 31.6059 3.74593   3
  -2   7   6 37.0875 4.45968   6
   1  -7  -6 19.5342 3.35269   5
   1  -7  -6 20.0855 2.94643   6
   1  -7  -6 21.8096 1.98292   4
   1  -7  -6 15.8519 3.06824   2
   1  -7  -6 24.1455 3.62669   6
   1  -7  -6 14.8943 3.62988   5
  -1   7   6 16.8925 3.01806   3
  -1   7   6 15.0794 3.54757   6
  -1   7   6 20.8362 2.58600   1
  -1   7   6 13.7215 3.33710   5
   0  -7  -6 7.53664 3.62675   5
   0  -7  -6 6.41069 2.59260   6
   0  -7  -6 6.15532 3.09507   6
   0  -7  -6 4.14547 2.24438   2
   0  -7  -6 4.25950 1.09213   4
   0  -7  -6 4.96642 2.75207   5
   0   7   6 0.00228 3.27001   5
   0   7   6 3.88242 3.11053   5
   0   7   6 6.37023 2.56335   1
   0   7   6 2.95777 3.20037   6
   0   7   6 2.73250 2.65610   3
  -1  -7  -6 5.30341 3.50558   6
  -1  -7  -6 6.31491 2.63384   2
  -1  -7  -6 3.81123 3.80300   5
  -1  -7  -6 3.02849 2.34178   6
  -1  -7  -6 1.86469 2.46046   5
   1   7   6 2.51851 3.58070   5
   1   7   6 0.89699 2.83991   1
   1   7   6 -0.2942 3.20007   6
   1   7   6 3.02778 2.77668   3
  -2  -7  -6 3.88092 2.58333   5
  -2  -7  -6 3.94448 5.58165   5
  -2  -7  -6 -0.6246 2.53919   6
  -2  -7  -6 1.00287 2.53731   2
   2   7   6 -1.9760 3.64449   5
   2   7   6 1.44247 3.34334   6
   2   7   6 2.90541 3.32120   1
   2   7   6 6.43081 2.72609   3
   2   7   6 1.95440 3.41267   5
  -3  -7  -6 12.2973 2.82484   6
  -3  -7  -6 10.6482 3.03607   5
  -3  -7  -6 8.37447 3.77929   6
  -3  -7  -6 8.34387 3.26880   2
   3   7   6 8.76054 4.57659   6
   3   7   6 17.8896 3.48281   3
   3   7   6 5.40978 4.05424   1
   3   7   6 5.39621 3.85149   5
   3   7   6 15.3832 4.67309   5
  -4  -7  -6 8.49941 5.01280   6
  -4  -7  -6 10.5195 3.97324   2
  -4  -7  -6 10.3806 2.81638   6
   4   7   6 4.21002 4.03837   3
   4   7   6 7.15209 5.44229   1
   4   7   6 18.4356 4.52348   5
   6  -8  -6 -7.6810 4.10068   5
   6  -8  -6 -0.8855 3.18310   2
  -6   8   6 0.21068 3.69837   3
  -6   8   6 4.11031 4.75361   6
   5  -8  -6 15.0300 5.72688   6
   5  -8  -6 12.8944 3.71741   6
   5  -8  -6 18.9791 4.48161   5
   5  -8  -6 17.1790 5.91703   5
   5  -8  -6 8.57212 3.26278   2
   5  -8  -6 22.3668 5.69979   4
  -5   8   6 8.20880 4.29436   6
  -5   8   6 5.71317 5.66108   5
  -5   8   6 17.0682 3.96963   3
   4  -8  -6 6.52340 4.93190   6
   4  -8  -6 0.27878 2.49344   2
   4  -8  -6 0.51706 3.24524   6
   4  -8  -6 5.20806 5.43543   5
   4  -8  -6 4.40784 3.57975   4
   4  -8  -6 -0.0499 3.87200   5
  -4   8   6 -3.1436 5.20241   5
  -4   8   6 -3.4319 3.97138   5
  -4   8   6 4.94377 4.08840   6
  -4   8   6 2.21063 3.18119   3
   3  -8  -6 13.8059 4.13504   6
   3  -8  -6 16.4387 3.18412   4
   3  -8  -6 13.4607 5.09138   5
   3  -8  -6 14.3327 3.47067   6
   3  -8  -6 20.0096 4.13375   5
   3  -8  -6 13.7239 3.21965   2
  -3   8   6 18.1238 4.13409   5
  -3   8   6 14.5918 1.95008   1
  -3   8   6 12.8046 5.16764   5
  -3   8   6 14.4326 3.45014   3
  -3   8   6 10.0705 6.62599   6
  -3   8   6 15.2219 1.93856   1
   2  -8  -6 105.451 6.34030   2
   2  -8  -6 107.908 8.83945   5
   2  -8  -6 125.706 7.57820   5
   2  -8  -6 122.905 5.64824   4
   2  -8  -6 110.902 7.06334   6
   2  -8  -6 129.285 8.76658   6
  -2   8   6 124.315 8.63775   6
  -2   8   6 123.746 5.50236   1
  -2   8   6 112.453 5.47778   1
  -2   8   6 111.760 8.21263   5
  -2   8   6 114.529 6.52443   3
  -2   8   6 110.802 9.03286   5
   1  -8  -6 12.3226 4.34065   6
   1  -8  -6 19.1840 4.96408   5
   1  -8  -6 6.00634 3.89432   6
   1  -8  -6 19.2565 3.81727   5
   1  -8  -6 10.3207 2.91920   2
   1  -8  -6 13.8043 2.12285   4
  -1   8   6 11.4328 3.25566   3
  -1   8   6 15.8236 4.15104   6
  -1   8   6 16.0473 4.86628   5
  -1   8   6 15.1495 2.92122   1
  -1   8   6 21.9560 3.21590   1
  -1   8   6 20.3382 4.17480   5
   0  -8  -6 5.55193 2.96427   2
   0  -8  -6 7.56673 1.48890   4
   0  -8  -6 7.31219 3.37972   5
   0  -8  -6 10.6262 3.30020   6
   0  -8  -6 2.49418 3.89574   6
   0  -8  -6 -2.4410 4.86077   5
   0   8   6 5.49199 4.44938   5
   0   8   6 10.5716 5.26886   1
   0   8   6 9.50610 5.68418   5
   0   8   6 7.53222 3.81618   6
   0   8   6 9.05142 3.24644   1
   0   8   6 7.60380 3.15677   3
  -1  -8  -6 24.4807 3.86726   5
  -1  -8  -6 26.8802 4.79111   6
  -1  -8  -6 26.4390 3.84905   2
  -1  -8  -6 23.5338 3.60797   6
   1   8   6 29.4938 4.26810   1
   1   8   6 28.7855 4.46034   1
   1   8   6 28.3030 5.19961   5
   1   8   6 25.4336 5.19192   6
   1   8   6 32.8221 5.03779   5
   1   8   6 28.9635 3.94647   3
  -2  -8  -6 -0.7483 5.21091   5
  -2  -8  -6 7.35934 3.32728   6
  -2  -8  -6 11.7259 3.58737   2
   2   8   6 11.4151 4.73624   6
   2   8   6 12.1653 4.87332   5
   2   8   6 6.75003 4.25306   1
   2   8   6 15.0415 3.55493   3
  -3  -8  -6 15.5724 3.86084   2
  -3  -8  -6 19.9027 3.44609   6
   3   8   6 14.6930 5.58798   1
   3   8   6 12.3120 5.27893   5
   3   8   6 15.1532 3.97585   3
   5  -9  -6 1.82719 5.31800   5
   5  -9  -6 3.60741 3.12721   2
  -5   9   6 -0.3270 3.97956   3
  -5   9   6 -1.4013 6.19618   6
   4  -9  -6 8.88053 7.71709   5
   4  -9  -6 7.59065 4.32929   6
   4  -9  -6 4.17903 3.24613   2
   4  -9  -6 -2.4006 4.59850   4
   4  -9  -6 2.95430 4.35673   5
   4  -9  -6 4.88378 6.37486   6
  -4   9   6 10.3170 4.16766   3
  -4   9   6 3.57932 5.54768   6
   3  -9  -6 89.2174 6.39778   2
   3  -9  -6 113.352 9.26426   5
   3  -9  -6 102.861 8.98247   5
   3  -9  -6 109.334 10.8315   6
   3  -9  -6 95.6948 8.06627   6
   3  -9  -6 92.3946 7.41257   4
  -3   9   6 92.4198 8.01066   6
  -3   9   6 109.925 9.59046   5
  -3   9   6 96.0010 6.99519   3
  -3   9   6 104.495 8.59887   5
  -3   9   6 109.508 4.75108   1
   2  -9  -6 2.39386 4.26739   5
   2  -9  -6 -3.1820 6.47952   5
   2  -9  -6 -5.1306 4.19652   6
   2  -9  -6 0.24830 2.80857   2
   2  -9  -6 6.36329 2.90271   4
   2  -9  -6 -0.2433 4.02852   6
  -2   9   6 -1.0659 2.85915   1
  -2   9   6 2.63754 6.55859   5
  -2   9   6 4.08400 2.65896   1
  -2   9   6 1.33046 3.17914   3
  -2   9   6 -6.3407 4.57799   5
  -2   9   6 4.34750 6.44195   6
   1  -9  -6 16.7807 3.82492   2
   1  -9  -6 22.6478 2.71358   4
   1  -9  -6 16.0551 4.68379   6
   1  -9  -6 21.6252 4.66491   6
   1  -9  -6 17.5350 6.54029   5
   1  -9  -6 18.9909 4.04177   5
  -1   9   6 19.0278 4.03391   1
  -1   9   6 18.7909 3.87166   3
  -1   9   6 19.2650 5.99922   5
  -1   9   6 27.0501 6.22730   6
  -1   9   6 16.9080 7.24175   5
  -1   9   6 23.4003 3.79278   1
   0  -9  -6 5.11667 4.09441   6
   0  -9  -6 4.20740 3.59707   2
   0  -9  -6 0.68132 4.80347   5
   0   9   6 1.69352 4.02495   1
   0   9   6 4.48527 3.31073   3
   0   9   6 10.4715 4.67464   1
   0   9   6 6.24715 6.84730   5
   0   9   6 10.4977 5.37736   6
   0   9   6 13.7355 5.32291   5
  -1  -9  -6 4.43046 3.96153   6
  -1  -9  -6 -1.1599 3.21543   2
   1   9   6 5.71174 5.88862   5
   1   9   6 -0.2604 3.51558   3
   1   9   6 -0.3323 4.73319   1
  -2  -9  -6 6.10927 4.23314   6
  -2  -9  -6 -4.2282 3.20209   2
   2   9   6 5.74422 5.83192   1
   2   9   6 -0.3126 3.74330   3
   2   9   6 -3.9119 6.26076   5
   2 -10  -6 10.1324 3.61010   2
   2 -10  -6 20.1615 5.59361   6
  -2  10   6 13.2870 8.16432   5
  -2  10   6 20.6232 7.00660   6
  -2  10   6 18.7909 4.98106   3
   1 -10  -6 36.7437 6.12939   6
   1 -10  -6 36.6944 4.57261   2
  -1  10   6 55.3400 7.58224   5
  -1  10   6 43.8373 5.25118   3
  -1  10   6 68.5373 12.4092   6
  -1  10   6 50.8715 5.10241   1
   0  10  -7 12.7548 4.21137   3
   0  10  -7 15.1447 6.77363   5
   0 -10   7 14.5924 4.30656   2
   0 -10   7 15.4870 5.69447   1
  -1  10  -7 13.4205 8.33756   5
  -1  10  -7 7.31276 4.20422   3
  -1  10  -7 3.44879 7.10577   6
   1 -10   7 12.9560 5.41878   1
   1 -10   7 11.0146 4.11175   2
   3   9  -7 2.16165 3.31670   3
   3   9  -7 -4.2046 6.71798   5
   3   9  -7 -2.3966 5.18095   4
  -3  -9   7 4.20141 6.46317   1
  -3  -9   7 2.48776 3.99104   2
   2   9  -7 1.85745 4.54395   4
   2   9  -7 0.69965 3.36417   3
   2   9  -7 -7.7392 6.08933   5
  -2  -9   7 3.34257 3.39707   2
  -2  -9   7 -3.7249 4.63626   1
   1   9  -7 64.8935 7.04872   3
   1   9  -7 100.779 9.56926   6
   1   9  -7 84.1806 8.14801   4
   1   9  -7 74.3694 7.63473   5
   1   9  -7 76.3556 7.25802   5
  -1  -9   7 87.1623 8.33879   1
  -1  -9   7 93.2447 6.40407   2
   0   9  -7 3.63956 4.40148   4
   0   9  -7 4.71643 6.31498   5
   0   9  -7 16.1446 6.98554   6
   0   9  -7 6.88375 6.97698   5
   0   9  -7 1.95807 3.28349   3
   0  -9   7 3.81209 4.44845   6
   0  -9   7 -2.0182 4.09744   5
   0  -9   7 1.72050 6.29231   5
   0  -9   7 -1.4430 4.15030   1
   0  -9   7 -1.6151 3.47414   2
  -1   9  -7 5.87448 7.73108   5
  -1   9  -7 13.9278 3.74983   3
  -1   9  -7 11.0478 4.77925   4
  -1   9  -7 10.6918 5.65370   5
   1  -9   7 8.92126 5.13146   5
   1  -9   7 8.10831 3.24067   2
   1  -9   7 -2.9619 5.68615   5
   1  -9   7 14.4159 5.05980   6
   1  -9   7 13.9056 4.26440   1
  -2   9  -7 6.28402 4.98844   1
  -2   9  -7 11.2693 4.79189   4
  -2   9  -7 10.4410 6.13521   5
  -2   9  -7 16.3379 6.24460   6
  -2   9  -7 10.1198 5.36734   5
  -2   9  -7 8.82110 3.53721   3
  -2   9  -7 5.42516 6.97914   6
   2  -9   7 12.0596 5.54924   6
   2  -9   7 13.1616 4.24929   1
   2  -9   7 4.04089 6.69355   5
   2  -9   7 6.45093 4.62907   5
  -3   9  -7 49.0616 5.70913   1
  -3   9  -7 55.4810 7.09329   6
  -3   9  -7 47.8547 5.13708   3
  -3   9  -7 55.8751 6.24207   4
   3  -9   7 56.6534 5.16360   1
   3  -9   7 54.1711 6.92468   6
   3  -9   7 48.9519 6.20834   5
  -4   9  -7 59.0222 7.61633   6
  -4   9  -7 64.7302 6.90656   3
   4  -9   7 71.6146 8.00708   5
   4  -9   7 74.7975 5.56939   1
   4   8  -7 4.99747 5.30772   5
   4   8  -7 3.05563 4.33010   4
   4   8  -7 7.51398 3.40677   3
  -4  -8   7 5.29678 4.18632   2
  -4  -8   7 7.76811 5.47142   1
   3   8  -7 17.5162 5.25768   5
   3   8  -7 20.5154 4.25297   4
   3   8  -7 23.2167 5.50619   6
   3   8  -7 14.2957 3.59376   3
  -3  -8   7 15.7461 3.66785   2
  -3  -8   7 11.7556 4.74402   1
   2   8  -7 20.6502 4.86783   6
   2   8  -7 11.1608 3.77433   4
   2   8  -7 25.7403 5.85515   6
   2   8  -7 16.5216 3.34177   3
   2   8  -7 19.0862 4.93796   5
   2   8  -7 26.7596 5.65415   5
  -2  -8   7 23.2599 3.94188   6
  -2  -8   7 23.3790 4.82153   5
  -2  -8   7 18.6368 3.37808   2
  -2  -8   7 18.7569 4.12417   1
   1   8  -7 17.4161 7.82783   5
   1   8  -7 24.2536 5.27789   1
   1   8  -7 26.1483 5.51084   6
   1   8  -7 24.9585 4.03833   4
   1   8  -7 19.6477 3.33604   3
   1   8  -7 30.9173 4.75568   6
  -1  -8   7 24.2264 3.53514   2
  -1  -8   7 21.1240 4.01351   5
  -1  -8   7 26.1819 4.22052   1
  -1  -8   7 18.9664 4.71824   5
  -1  -8   7 26.7656 3.67161   6
   0   8  -7 13.1125 4.90137   6
   0   8  -7 19.1880 4.70796   5
   0   8  -7 20.7845 5.58800   5
   0   8  -7 15.1402 3.47950   4
   0   8  -7 20.8824 4.43268   1
   0   8  -7 18.4945 3.42351   3
   0   8  -7 13.3423 4.40407   6
   0  -8   7 11.2901 4.34887   5
   0  -8   7 20.8946 3.78275   1
   0  -8   7 18.1765 3.81901   5
   0  -8   7 18.0291 3.99671   6
   0  -8   7 16.3801 3.17792   2
  -1   8  -7 21.7576 4.69318   6
  -1   8  -7 29.6125 5.19658   6
  -1   8  -7 21.2282 4.55865   5
  -1   8  -7 17.0368 3.78266   4
  -1   8  -7 25.2065 4.13110   1
  -1   8  -7 25.4070 3.59620   3
  -1   8  -7 26.7807 4.77861   5
   1  -8   7 21.7554 2.92705   2
   1  -8   7 30.0311 4.34381   6
   1  -8   7 28.6152 3.78356   1
   1  -8   7 29.0757 5.07490   5
   1  -8   7 29.1344 4.77441   5
  -2   8  -7 35.8743 5.33711   6
  -2   8  -7 24.5526 3.67310   3
  -2   8  -7 33.0867 5.24862   6
  -2   8  -7 22.4689 5.07242   5
  -2   8  -7 34.6911 5.13551   5
  -2   8  -7 36.5183 4.24049   1
  -2   8  -7 28.9545 4.37192   4
   2  -8   7 24.0622 4.57905   5
   2  -8   7 28.5639 3.81735   1
   2  -8   7 16.5071 4.33009   5
   2  -8   7 33.4561 4.83213   6
  -3   8  -7 -1.7357 4.28392   5
  -3   8  -7 9.81286 5.35355   6
  -3   8  -7 2.62164 2.87127   3
  -3   8  -7 9.20671 4.53147   6
  -3   8  -7 3.75716 3.78226   1
  -3   8  -7 8.54154 6.28086   5
  -3   8  -7 2.91863 3.76408   4
   3  -8   7 -0.5106 3.31885   1
   3  -8   7 4.53807 5.32995   5
   3  -8   7 2.58875 4.21652   6
   3  -8   7 4.47617 4.79973   5
  -4   8  -7 93.7956 8.89213   6
  -4   8  -7 89.8186 6.93997   4
  -4   8  -7 84.4153 7.84847   1
  -4   8  -7 87.4343 6.66547   3
   4  -8   7 106.317 6.98797   1
   4  -8   7 90.5482 7.38530   5
   4  -8   7 94.7455 11.0363   5
  -5   8  -7 13.3323 3.96900   3
  -5   8  -7 11.3350 5.45267   6
  -5   8  -7 13.9972 5.78716   4
  -5   8  -7 10.0390 5.47912   1
   5  -8   7 8.46222 3.96377   1
   5  -8   7 14.5764 5.58126   5
   5   7  -7 90.3479 7.62626   4
   5   7  -7 78.9295 6.56807   5
  -5  -7   7 62.7134 8.96309   2
  -5  -7   7 67.9893 6.29917   1
   4   7  -7 35.9993 5.34340   6
   4   7  -7 22.6854 3.90919   4
   4   7  -7 24.2121 4.76589   5
   4   7  -7 21.3754 5.01193   5
   4   7  -7 24.9880 3.67107   3
  -4  -7   7 16.0964 3.59174   2
  -4  -7   7 23.3252 4.56618   1
  -4  -7   7 18.6678 3.86296   5
  -4  -7   7 25.5795 3.49156   6
   3   7  -7 30.8750 4.45902   5
   3   7  -7 34.0195 4.53101   5
   3   7  -7 37.1396 3.98062   4
   3   7  -7 31.0336 5.17641   6
   3   7  -7 43.1878 4.70812   6
   3   7  -7 29.2997 3.54227   3
  -3  -7   7 38.3656 4.02663   5
  -3  -7   7 25.7981 4.23425   1
  -3  -7   7 33.7957 3.79899   2
   2   7  -7 6.91062 4.07013   6
   2   7  -7 7.04220 2.86858   4
   2   7  -7 2.95494 2.45616   3
   2   7  -7 5.79278 3.85432   1
   2   7  -7 -5.0159 3.14262   6
   2   7  -7 -1.4228 3.99658   5
   2   7  -7 9.53692 3.68272   5
  -2  -7   7 1.29702 2.71188   6
  -2  -7   7 5.27368 2.72513   2
  -2  -7   7 4.51888 3.00565   4
  -2  -7   7 3.83890 3.57816   5
  -2  -7   7 6.02089 4.58348   5
  -2  -7   7 4.46709 3.27116   1
   1   7  -7 -1.2003 3.23757   6
   1   7  -7 5.63988 3.31246   1
   1   7  -7 -0.9932 3.42457   5
   1   7  -7 4.68931 3.76590   6
   1   7  -7 0.66128 2.61698   4
   1   7  -7 0.29171 2.22626   3
   1   7  -7 -1.8688 3.48656   5
  -1  -7   7 -0.4601 2.83687   1
  -1  -7   7 2.73699 3.48138   5
  -1  -7   7 0.11811 2.59184   6
  -1  -7   7 3.83970 2.71166   4
  -1  -7   7 1.79273 2.50810   2
  -1  -7   7 4.15643 2.89443   5
   0   7  -7 154.359 8.27714   6
   0   7  -7 111.555 6.11278   3
   0   7  -7 134.341 7.89170   5
   0   7  -7 119.427 6.58424   4
   0   7  -7 128.380 7.51512   6
   0   7  -7 130.872 7.75155   5
   0   7  -7 128.550 6.92304   1
   0  -7   7 144.507 7.60788   5
   0  -7   7 136.172 6.55619   1
   0  -7   7 133.945 6.78498   6
   0  -7   7 131.462 7.65553   5
   0  -7   7 128.943 5.88605   2
  -1   7  -7 5.29900 3.11642   5
  -1   7  -7 6.76693 3.85641   6
  -1   7  -7 12.4368 3.08406   1
  -1   7  -7 8.43153 3.34658   6
  -1   7  -7 8.90525 2.79053   4
  -1   7  -7 3.96595 2.69312   3
  -1   7  -7 11.2720 3.67687   5
   1  -7   7 10.3052 3.36792   5
   1  -7   7 5.08456 2.90819   4
   1  -7   7 6.05990 2.88286   1
   1  -7   7 13.5782 3.77826   5
  -2   7  -7 10.9349 4.12020   5
  -2   7  -7 11.6905 3.18973   1
  -2   7  -7 4.84216 3.70617   6
  -2   7  -7 9.02102 3.06240   4
  -2   7  -7 8.57243 2.85465   3
  -2   7  -7 4.30322 3.22180   5
  -2   7  -7 7.64843 3.55744   6
   2  -7   7 4.02999 5.29714   5
   2  -7   7 8.00311 3.13123   6
   2  -7   7 3.74009 2.91071   4
   2  -7   7 13.1959 3.80280   5
  -3   7  -7 32.2865 3.69334   1
  -3   7  -7 40.4515 4.92249   6
  -3   7  -7 25.3025 3.80855   4
  -3   7  -7 36.7382 4.69713   5
  -3   7  -7 36.8974 4.04848   3
  -3   7  -7 30.6224 4.30685   5
  -3   7  -7 23.3838 4.20812   6
   3  -7   7 35.5111 4.03878   6
   3  -7   7 33.9132 4.18189   5
   3  -7   7 23.2813 3.71732   4
   3  -7   7 43.4104 4.84777   5
  -4   7  -7 40.7348 4.68787   4
  -4   7  -7 63.6945 6.15885   1
  -4   7  -7 64.3394 5.49302   3
  -4   7  -7 52.7602 5.14019   6
  -4   7  -7 66.7928 5.71695   5
  -4   7  -7 70.6280 7.68071   6
   4  -7   7 72.2961 6.01543   5
   4  -7   7 55.9421 5.40925   5
   4  -7   7 58.6364 5.23561   6
   4  -7   7 57.8259 4.83357   1
  -5   7  -7 110.262 8.16166   1
  -5   7  -7 101.712 6.64528   3
  -5   7  -7 117.401 8.29725   6
  -5   7  -7 95.9518 8.66372   4
   5  -7   7 120.463 8.91695   5
   5  -7   7 125.394 7.03834   1
  -6   7  -7 0.07695 3.42260   3
  -6   7  -7 7.39476 4.62261   6
  -6   7  -7 -3.3109 5.18106   4
   6  -7   7 1.45355 5.13707   5
   6  -7   7 -3.5586 3.61564   1
   6   6  -7 17.1847 4.57944   5
   6   6  -7 21.4437 4.56034   4
  -6  -6   7 26.6884 4.31862   2
  -6  -6   7 25.5736 3.01909   6
   5   6  -7 78.0390 5.78945   5
   5   6  -7 71.6564 7.24091   5
   5   6  -7 76.5771 6.35873   4
   5   6  -7 72.1888 8.02909   6
  -5  -6   7 72.7508 6.37171   5
  -5  -6   7 82.4230 5.31946   6
  -5  -6   7 75.8474 6.30795   2
  -5  -6   7 76.6218 7.42177   1
   4   6  -7 14.5519 3.45200   5
   4   6  -7 20.6134 4.00004   6
   4   6  -7 20.8666 3.67296   5
   4   6  -7 15.8868 4.23820   6
   4   6  -7 18.4137 3.07457   4
  -4  -6   7 16.4045 2.65266   6
  -4  -6   7 10.8978 3.42202   1
  -4  -6   7 16.4427 3.48170   4
  -4  -6   7 16.9413 3.14648   5
  -4  -6   7 17.6152 3.58249   2
   3   6  -7 3.45953 2.80478   5
   3   6  -7 1.51841 2.39739   4
   3   6  -7 2.06293 3.19213   6
   3   6  -7 -3.7712 3.18790   1
   3   6  -7 1.25196 2.84076   5
   3   6  -7 -1.1159 2.63256   6
  -3  -6   7 -0.6536 2.65972   4
  -3  -6   7 1.03290 2.90405   1
  -3  -6   7 1.23723 2.58794   5
  -3  -6   7 0.80467 2.38623   2
  -3  -6   7 1.98655 2.42723   5
   2   6  -7 25.3264 3.09216   5
   2   6  -7 23.5916 2.86468   4
   2   6  -7 22.0002 3.33218   1
   2   6  -7 18.7898 3.17915   5
   2   6  -7 22.5619 3.12453   6
   2   6  -7 29.2168 3.27606   3
   2   6  -7 23.1400 3.77392   6
  -2  -6   7 26.3616 2.79178   6
  -2  -6   7 23.8299 3.12260   2
  -2  -6   7 29.5939 3.55424   1
  -2  -6   7 19.3208 4.26593   5
  -2  -6   7 25.8782 3.26389   5
  -2  -6   7 21.8103 2.94867   4
   1   6  -7 35.1225 3.43419   1
   1   6  -7 36.2682 3.85038   6
   1   6  -7 38.3023 3.83909   5
   1   6  -7 31.9154 3.43840   5
   1   6  -7 30.5664 3.00993   4
   1   6  -7 36.8225 4.20973   6
   1   6  -7 24.5988 2.99577   3
  -1  -6   7 22.1458 2.94933   5
  -1  -6   7 33.4806 3.17170   6
  -1  -6   7 23.3265 2.63222   4
  -1  -6   7 31.5075 3.44082   5
  -1  -6   7 26.7170 4.91340   1
  -1  -6   7 27.0535 2.77349   2
   0   6  -7 9.94064 2.34788   3
   0   6  -7 15.0639 3.02477   5
   0   6  -7 24.3025 3.71032   6
   0   6  -7 11.8672 2.79897   4
   0   6  -7 9.93136 2.80743   5
   0   6  -7 11.0068 2.81703   1
   0   6  -7 14.6072 2.79520   6
   0  -6   7 11.5231 2.25014   2
   0  -6   7 14.9078 2.64663   4
   0  -6   7 9.82850 2.80968   5
   0  -6   7 15.1095 2.82594   5
   0  -6   7 14.0263 2.67052   6
   0  -6   7 12.6040 2.66084   1
  -1   6  -7 38.7300 5.09398   4
  -1   6  -7 47.1114 4.31743   6
  -1   6  -7 49.1686 4.30240   5
  -1   6  -7 46.6032 4.76168   6
  -1   6  -7 49.1218 3.93946   3
  -1   6  -7 38.4911 3.80168   5
  -1   6  -7 47.9326 4.63150   1
   1  -6   7 38.6609 3.72480   5
   1  -6   7 48.5968 4.18362   1
   1  -6   7 35.3199 3.19487   4
   1  -6   7 48.6507 4.34921   5
   1  -6   7 39.6573 4.34352   6
  -2   6  -7 22.4300 2.95741   4
  -2   6  -7 26.4247 3.25736   5
  -2   6  -7 28.8117 3.76735   6
  -2   6  -7 29.3894 3.45449   6
  -2   6  -7 25.1677 3.43804   5
  -2   6  -7 28.0866 3.06625   3
  -2   6  -7 30.0056 3.12568   1
   2  -6   7 27.1268 3.13213   4
   2  -6   7 25.9286 3.34014   5
   2  -6   7 28.5313 3.02567   6
   2  -6   7 30.2450 3.49405   5
   2  -6   7 27.6746 2.97106   1
  -3   6  -7 47.7418 4.11228   4
  -3   6  -7 54.0486 4.56086   3
  -3   6  -7 60.1887 6.00808   6
  -3   6  -7 54.6788 5.17925   1
  -3   6  -7 55.4625 4.49168   5
  -3   6  -7 54.6799 4.56449   5
   3  -6   7 47.8030 4.48274   1
   3  -6   7 45.0620 4.12814   5
   3  -6   7 50.5526 5.32584   6
   3  -6   7 54.4825 5.12764   4
   3  -6   7 58.8014 5.75049   5
  -4   6  -7 18.0905 3.55963   4
  -4   6  -7 20.1777 3.82535   6
  -4   6  -7 20.4182 3.27831   3
  -4   6  -7 20.1520 3.29817   1
  -4   6  -7 19.8751 3.62092   6
  -4   6  -7 25.1550 3.65075   5
  -4   6  -7 19.2935 3.36158   5
   4  -6   7 21.9457 3.22200   1
   4  -6   7 27.3075 3.69358   4
   4  -6   7 19.4681 3.49495   5
   4  -6   7 18.5170 3.31896   6
   4  -6   7 18.6564 3.61758   5
  -5   6  -7 85.8849 5.87917   3
  -5   6  -7 89.0717 8.33270   6
  -5   6  -7 100.089 7.11834   6
  -5   6  -7 86.1154 7.29362   4
  -5   6  -7 78.1770 6.35525   1
  -5   6  -7 96.2778 6.86039   5
   5  -6   7 79.3059 7.33306   4
   5  -6   7 82.0783 7.40405   1
   5  -6   7 92.1392 7.63195   5
   5  -6   7 96.5104 7.34887   5
  -6   6  -7 10.6833 3.75645   6
  -6   6  -7 6.04701 4.78115   6
  -6   6  -7 17.4245 4.89837   4
  -6   6  -7 21.4644 4.45178   1
  -6   6  -7 18.9434 3.71962   3
   6  -6   7 15.0608 4.36171   5
   6  -6   7 19.8573 3.79084   1
   7   5  -7 -0.1302 4.68136   5
   7   5  -7 -7.9561 4.62347   4
  -7  -5   7 3.96073 3.44717   2
  -7  -5   7 -0.3964 1.79583   6
  -7  -5   7 2.12129 2.18536   6
   6   5  -7 4.17004 4.65658   6
   6   5  -7 5.68553 3.50844   5
   6   5  -7 6.91821 3.59960   4
   6   5  -7 1.53539 3.34883   5
  -6  -5   7 8.51026 3.98375   1
  -6  -5   7 5.47867 3.46283   2
  -6  -5   7 2.96910 2.19682   6
   5   5  -7 2.52168 2.86644   5
   5   5  -7 -3.9559 4.83399   1
   5   5  -7 4.47660 3.08611   5
   5   5  -7 -1.1642 3.92795   6
   5   5  -7 -0.5689 2.64570   4
   5   5  -7 3.60087 3.04456   6
  -5  -5   7 -0.5658 3.93625   5
  -5  -5   7 1.15149 2.81858   2
  -5  -5   7 1.03275 3.14724   1
  -5  -5   7 0.52407 2.19982   5
  -5  -5   7 -0.1859 1.99868   6
   4   5  -7 229.951 8.67899   5
   4   5  -7 216.220 9.36015   1
   4   5  -7 226.420 8.35366   4
   4   5  -7 230.565 8.64641   6
   4   5  -7 222.382 9.68118   6
   4   5  -7 232.881 8.76401   5
  -4  -5   7 221.721 7.95049   6
  -4  -5   7 221.933 8.01521   5
  -4  -5   7 228.585 9.04687   1
  -4  -5   7 209.084 8.75783   4
  -4  -5   7 225.477 8.18933   5
  -4  -5   7 214.480 8.75679   2
   3   5  -7 23.1250 3.46935   1
   3   5  -7 17.3649 3.02254   6
   3   5  -7 22.3326 2.93956   5
   3   5  -7 19.1443 2.57119   4
   3   5  -7 24.6552 3.24847   6
   3   5  -7 20.1570 2.89028   5
  -3  -5   7 23.0234 2.79528   5
  -3  -5   7 17.8318 2.78133   2
  -3  -5   7 17.8719 2.96380   1
  -3  -5   7 21.1019 2.68766   5
  -3  -5   7 18.7335 2.70721   4
   2   5  -7 90.5272 5.21430   6
   2   5  -7 98.5935 5.52321   5
   2   5  -7 85.9088 5.78301   6
   2   5  -7 86.0386 5.18516   5
   2   5  -7 87.7520 4.54862   4
   2   5  -7 92.0821 5.42739   1
  -2  -5   7 90.1277 4.52047   6
  -2  -5   7 87.2145 4.97889   1
  -2  -5   7 84.1521 4.75102   2
  -2  -5   7 92.2844 5.06442   5
  -2  -5   7 89.6019 4.75774   4
  -2  -5   7 78.0396 5.88007   5
   1   5  -7 7.31035 1.99375   3
   1   5  -7 8.42893 3.01728   6
   1   5  -7 8.36187 2.32162   1
   1   5  -7 10.5403 2.63747   5
   1   5  -7 6.64011 2.09471   6
   1   5  -7 8.11326 1.98020   4
   1   5  -7 9.22634 2.57722   5
  -1  -5   7 6.28223 2.07839   5
  -1  -5   7 5.20529 1.97940   2
  -1  -5   7 8.30253 2.18498   1
  -1  -5   7 7.39051 1.84990   4
  -1  -5   7 11.6948 2.54764   5
  -1  -5   7 8.22068 1.74757   6
   0   5  -7 9.36632 2.33099   6
   0   5  -7 7.09075 1.93472   4
   0   5  -7 5.70417 2.47397   5
   0   5  -7 4.63669 2.45857   6
   0   5  -7 7.44418 2.21465   1
   0   5  -7 3.96579 1.90162   3
   0   5  -7 6.09978 2.49768   5
   0  -5   7 7.21427 1.97258   4
   0  -5   7 4.71695 2.09796   5
   0  -5   7 6.25350 2.42030   5
   0  -5   7 4.26270 1.65481   6
   0  -5   7 4.00104 2.01884   1
  -1   5  -7 160.213 7.39122   6
  -1   5  -7 158.579 6.21706   3
  -1   5  -7 166.051 7.02693   5
  -1   5  -7 163.569 6.62140   1
  -1   5  -7 158.862 6.85268   6
  -1   5  -7 161.802 6.44400   4
   1  -5   7 165.041 7.05141   5
   1  -5   7 161.111 6.25655   4
   1  -5   7 173.322 7.11277   5
   1  -5   7 164.542 6.57180   6
   1  -5   7 163.232 6.44833   1
  -2   5  -7 19.2853 2.70817   1
  -2   5  -7 18.4499 1.71933   2
  -2   5  -7 15.1017 2.90343   5
  -2   5  -7 19.7191 2.57084   4
  -2   5  -7 15.1802 2.96127   6
  -2   5  -7 13.3284 2.58283   5
  -2   5  -7 16.9846 2.46390   3
  -2   5  -7 16.1635 2.81112   6
   2  -5   7 16.2256 2.41042   4
   2  -5   7 16.8007 2.42664   1
   2  -5   7 19.6525 2.68338   6
   2  -5   7 14.6729 2.59729   5
   2  -5   7 18.5879 2.81296   5
  -3   5  -7 5.89463 2.35970   4
  -3   5  -7 4.79863 2.35957   6
  -3   5  -7 8.38300 2.38019   3
  -3   5  -7 5.72326 2.78782   5
  -3   5  -7 6.51097 2.42657   1
  -3   5  -7 6.29183 2.77948   6
  -3   5  -7 7.15214 2.31103   5
   3  -5   7 3.81260 1.91389   6
   3  -5   7 7.36752 2.56512   5
   3  -5   7 8.30078 2.44471   4
   3  -5   7 5.81187 2.65970   5
   3  -5   7 5.75400 2.15376   1
  -4   5  -7 66.4324 4.80351   3
  -4   5  -7 64.3959 5.31638   6
  -4   5  -7 66.4887 5.03191   5
  -4   5  -7 61.5907 5.54384   5
  -4   5  -7 66.0819 5.97040   4
  -4   5  -7 72.9370 5.15551   1
   4  -5   7 61.8211 4.91129   6
   4  -5   7 70.1024 5.57298   5
   4  -5   7 65.3744 4.76014   1
   4  -5   7 60.6150 5.22219   5
   4  -5   7 67.7342 4.96668   4
  -5   5  -7 49.6231 4.65580   3
  -5   5  -7 55.3771 5.44205   5
  -5   5  -7 59.9472 6.26044   6
  -5   5  -7 54.9867 4.64155   4
  -5   5  -7 48.7782 4.92825   5
  -5   5  -7 51.5028 5.50674   6
  -5   5  -7 58.7646 5.67641   1
   5  -5   7 54.4866 4.63112   5
   5  -5   7 52.0283 4.89227   1
   5  -5   7 54.6789 4.49070   4
   5  -5   7 57.3014 5.82169   5
   5  -5   7 56.0074 5.29158   6
  -6   5  -7 121.858 6.93205   5
  -6   5  -7 118.832 7.03371   6
  -6   5  -7 120.791 7.63644   6
  -6   5  -7 127.899 8.37877   4
  -6   5  -7 127.141 7.85207   1
  -6   5  -7 127.573 6.59596   3
   6  -5   7 126.694 7.95015   5
   6  -5   7 114.985 8.57019   4
   6  -5   7 140.465 7.39845   1
   6  -5   7 122.523 8.03627   5
  -7   5  -7 3.36235 3.41930   6
  -7   5  -7 4.45296 5.37938   4
  -7   5  -7 6.99233 3.72509   3
  -7   5  -7 -2.5498 3.80126   6
   7  -5   7 -0.4748 4.09686   1
   7  -5   7 1.94968 4.38540   5
   7   4  -7 106.949 7.13743   5
   7   4  -7 131.623 9.59207   5
   7   4  -7 149.834 9.07517   4
  -7  -4   7 101.812 7.32955   2
  -7  -4   7 123.944 4.50541   6
   6   4  -7 13.3173 2.99999   5
   6   4  -7 5.80139 7.18858   1
   6   4  -7 8.97221 3.37253   6
   6   4  -7 10.8334 3.10255   5
   6   4  -7 8.79642 2.94345   4
  -6  -4   7 14.8084 2.17086   6
  -6  -4   7 9.44573 3.65088   1
  -6  -4   7 14.2748 3.52555   2
   5   4  -7 28.2995 4.19628   1
   5   4  -7 28.2946 3.20759   5
   5   4  -7 31.9946 3.26796   4
   5   4  -7 27.5719 3.22013   6
   5   4  -7 33.5934 3.73687   6
  -5  -4   7 28.7045 3.55420   1
  -5  -4   7 35.2151 3.42123   5
  -5  -4   7 32.1234 3.87092   2
  -5  -4   7 33.4715 2.64987   5
  -5  -4   7 35.9315 3.38070   6
   4   4  -7 170.758 6.78620   4
   4   4  -7 183.824 6.95763   5
   4   4  -7 166.627 7.69505   6
   4   4  -7 184.273 7.66968   1
   4   4  -7 173.286 6.89483   6
  -4  -4   7 173.614 7.29968   4
  -4  -4   7 175.917 6.49450   6
  -4  -4   7 177.154 6.59988   5
  -4  -4   7 171.042 7.31266   1
  -4  -4   7 177.441 6.63169   5
  -4  -4   7 164.043 7.34650   2
   3   4  -7 17.1430 2.25357   4
   3   4  -7 18.8779 3.00739   6
   3   4  -7 20.8437 2.67991   5
   3   4  -7 18.0473 2.85759   1
   3   4  -7 19.2389 2.62838   6
  -3  -4   7 20.3179 2.73861   1
  -3  -4   7 20.1608 2.88122   2
  -3  -4   7 18.5663 2.37905   5
  -3  -4   7 15.5253 2.28391   4
  -3  -4   7 20.9499 2.37683   5
   2   4  -7 1.47406 1.79392   6
   2   4  -7 1.02486 1.99788   5
   2   4  -7 0.97791 1.49082   4
   2   4  -7 4.25091 2.36241   6
   2   4  -7 3.17245 2.02555   1
  -2  -4   7 2.57811 1.84147   1
  -2  -4   7 0.38896 1.50890   4
  -2  -4   7 1.76871 1.72260   5
  -2  -4   7 -0.0717 1.73599   2
  -2  -4   7 2.18471 1.46076   6
  -2  -4   7 2.72793 2.37085   5
   1   4  -7 37.9436 4.06800   6
   1   4  -7 39.4850 3.53981   1
   1   4  -7 32.3980 3.37234   6
   1   4  -7 31.5624 2.76108   4
   1   4  -7 38.8919 3.66018   5
   1   4  -7 34.3099 3.70055   5
  -1  -4   7 33.4447 3.06753   5
  -1  -4   7 32.3773 3.50071   5
  -1  -4   7 32.0346 3.02095   6
  -1  -4   7 34.0326 3.14613   1
  -1  -4   7 32.6125 2.91923   4
   0   4  -7 32.2355 3.45349   5
   0   4  -7 32.5457 3.20580   6
   0   4  -7 30.8158 2.66340   1
   0   4  -7 34.1441 3.49010   5
   0   4  -7 28.5451 3.19579   6
   0   4  -7 33.3485 2.84232   4
   0   4  -7 31.7442 2.77759   3
   0  -4   7 35.3953 3.49899   5
   0  -4   7 32.8884 2.76883   4
   0  -4   7 25.9299 2.53323   5
   0  -4   7 28.7314 2.66636   1
   0  -4   7 31.4129 3.03300   6
  -1   4  -7 1.89803 1.60682   5
  -1   4  -7 3.69797 1.58447   4
  -1   4  -7 2.68857 2.18828   6
  -1   4  -7 -0.5180 1.65364   1
  -1   4  -7 3.25600 1.60075   3
  -1   4  -7 1.88679 1.94976   5
  -1   4  -7 2.23534 1.81064   6
   1  -4   7 1.46362 1.51497   4
   1  -4   7 1.16808 1.54013   6
   1  -4   7 1.26471 1.75664   1
   1  -4   7 2.04548 2.01701   5
   1  -4   7 3.39636 1.90153   5
  -2   4  -7 60.8149 4.06357   6
  -2   4  -7 65.8370 2.94824   2
  -2   4  -7 61.6174 4.41585   5
  -2   4  -7 61.4721 4.49115   5
  -2   4  -7 68.9318 3.90325   4
  -2   4  -7 65.8004 4.23347   1
  -2   4  -7 64.0343 4.65413   6
  -2   4  -7 72.8879 3.74064   3
   2  -4   7 66.3692 4.45871   5
   2  -4   7 57.0458 4.24719   5
   2  -4   7 59.9215 3.62798   4
   2  -4   7 65.1873 3.99464   1
  -3   4  -7 20.8218 2.46866   4
  -3   4  -7 12.5984 2.45516   6
  -3   4  -7 16.3560 2.73520   5
  -3   4  -7 17.9408 2.71180   5
  -3   4  -7 18.6950 2.46594   3
  -3   4  -7 14.6148 2.38259   6
  -3   4  -7 12.9096 2.46965   1
   3  -4   7 18.9963 2.42920   1
   3  -4   7 19.0373 2.54354   5
   3  -4   7 18.2516 2.52682   6
   3  -4   7 17.6037 2.56029   5
   3  -4   7 18.5583 2.27149   4
  -4   4  -7 61.0303 4.32231   5
  -4   4  -7 54.5187 4.08196   3
  -4   4  -7 60.1183 4.48080   6
  -4   4  -7 56.9438 4.96503   6
  -4   4  -7 47.9778 4.43866   4
  -4   4  -7 60.0371 4.71916   1
  -4   4  -7 55.3235 4.81955   5
   4  -4   7 52.6836 4.61426   5
   4  -4   7 55.8131 4.26384   4
   4  -4   7 55.0162 4.28906   6
   4  -4   7 68.3078 4.56835   5
   4  -4   7 50.9909 4.47193   1
  -5   4  -7 51.4663 5.35581   6
  -5   4  -7 52.9025 4.57968   5
  -5   4  -7 64.0148 5.55365   1
  -5   4  -7 46.1125 4.02545   4
  -5   4  -7 48.2770 4.41795   3
  -5   4  -7 57.5545 4.90783   5
  -5   4  -7 51.6100 4.64798   6
   5  -4   7 44.1464 4.61119   6
   5  -4   7 57.4772 5.22286   5
   5  -4   7 54.3382 5.14128   4
   5  -4   7 60.5658 5.05952   1
   5  -4   7 62.5844 4.84964   5
  -6   4  -7 80.3923 5.23665   3
  -6   4  -7 82.0955 6.47256   1
  -6   4  -7 78.4858 5.72685   6
  -6   4  -7 60.5442 5.11964   4
  -6   4  -7 68.8956 5.34419   6
  -6   4  -7 71.3574 4.73111   5
   6  -4   7 79.3555 5.98020   5
   6  -4   7 67.2668 6.18301   5
   6  -4   7 83.0615 6.68442   4
   6  -4   7 78.6893 6.35165   1
  -7   4  -7 14.8916 3.12215   6
  -7   4  -7 14.8969 4.71878   4
  -7   4  -7 19.8996 3.34028   6
  -7   4  -7 15.8647 3.51407   3
   7  -4   7 14.9652 4.19212   1
   7  -4   7 10.4040 3.96977   5
   7  -4   7 14.9879 5.18436   4
   8   3  -7 -1.6592 4.15466   4
   8   3  -7 3.44047 4.29644   5
   7   3  -7 9.72844 2.99224   5
   7   3  -7 9.33740 3.69503   6
   7   3  -7 8.80541 3.68834   4
  -7  -3   7 9.82150 1.59888   6
   6   3  -7 3.38728 2.38262   5
   6   3  -7 3.01088 2.60253   4
   6   3  -7 3.02849 3.64826   1
   6   3  -7 1.30294 2.40682   5
   6   3  -7 -0.0926 2.88753   6
   6   3  -7 2.65062 2.47893   6
  -6  -3   7 -0.5572 1.73303   6
  -6  -3   7 -0.4944 2.73268   1
   5   3  -7 -2.1343 2.71567   1
   5   3  -7 0.57793 1.95994   4
   5   3  -7 -1.0425 1.71263   6
   5   3  -7 -0.0067 2.03164   5
   5   3  -7 -2.2729 2.34932   6
  -5  -3   7 0.77512 1.59327   5
  -5  -3   7 0.28126 1.56668   6
  -5  -3   7 -1.3638 2.53622   1
  -5  -3   7 -2.7679 1.41663   5
   4   3  -7 -0.8020 1.76087   5
   4   3  -7 2.21664 2.32134   6
   4   3  -7 1.61210 1.60001   6
   4   3  -7 1.54103 1.84857   5
   4   3  -7 -0.5527 2.44775   1
   4   3  -7 0.94542 1.64821   4
  -4  -3   7 0.11057 1.47767   6
  -4  -3   7 -0.0911 1.48305   5
  -4  -3   7 -0.9075 1.49486   5
  -4  -3   7 0.67752 2.09672   4
  -4  -3   7 -2.5542 1.99502   1
   3   3  -7 501.636 15.1450   6
   3   3  -7 498.302 15.5348   1
   3   3  -7 508.091 14.9082   4
   3   3  -7 509.810 15.7321   6
   3   3  -7 503.782 15.2767   5
   3   3  -7 528.511 15.4555   5
  -3  -3   7 520.114 15.1248   5
  -3  -3   7 500.415 15.4129   5
  -3  -3   7 503.421 15.0414   4
  -3  -3   7 506.964 15.2502   1
   2   3  -7 16.6873 2.40316   6
   2   3  -7 15.7510 1.70574   4
   2   3  -7 15.9722 2.22429   1
   2   3  -7 13.3160 2.05437   5
   2   3  -7 19.0948 2.30692   5
   2   3  -7 11.6813 1.69764   6
  -2  -3   7 22.0448 2.38557   6
  -2  -3   7 17.2389 2.15617   5
  -2  -3   7 16.1654 2.07646   1
  -2  -3   7 15.3373 1.97202   4
   1   3  -7 154.544 5.91624   6
   1   3  -7 159.646 6.10179   5
   1   3  -7 161.190 6.15495   5
   1   3  -7 160.581 5.51741   4
   1   3  -7 153.669 5.99773   1
   1   3  -7 161.193 6.56023   6
  -1  -3   7 157.305 6.10970   5
  -1  -3   7 154.394 5.89659   1
  -1  -3   7 149.193 5.92044   5
  -1  -3   7 156.024 5.52243   4
  -1  -3   7 153.539 5.68996   6
   0   3  -7 19.1867 1.89566   3
   0   3  -7 17.9397 2.07051   1
   0   3  -7 18.6479 2.64651   6
   0   3  -7 14.4688 2.08728   5
   0   3  -7 17.4335 2.20419   5
   0   3  -7 13.5963 1.60271   4
   0   3  -7 12.2717 1.71344   6
   0  -3   7 18.0962 1.81797   4
   0  -3   7 17.5151 2.13667   5
   0  -3   7 12.9375 1.95677   1
   0  -3   7 16.8994 1.94945   6
   0  -3   7 17.5741 2.17811   5
  -1   3  -7 27.9114 2.79611   6
  -1   3  -7 27.0804 2.48746   4
  -1   3  -7 36.0237 3.57582   6
  -1   3  -7 24.0850 2.48273   1
  -1   3  -7 30.0174 2.62016   2
  -1   3  -7 32.0108 3.35033   5
  -1   3  -7 28.1391 2.39570   3
   1  -3   7 24.3964 1.98747   4
   1  -3   7 27.3406 2.68957   6
   1  -3   7 28.0655 3.01477   5
   1  -3   7 21.2498 2.17927   5
   1  -3   7 21.2891 2.18197   1
  -2   3  -7 156.206 6.04232   1
  -2   3  -7 149.609 6.12040   5
  -2   3  -7 134.081 8.16914   5
  -2   3  -7 151.873 5.01396   2
  -2   3  -7 152.457 5.91934   6
  -2   3  -7 145.763 5.33761   3
  -2   3  -7 149.972 6.36458   6
  -2   3  -7 146.516 5.56995   4
   2  -3   7 155.249 6.05943   5
   2  -3   7 152.393 6.11133   5
   2  -3   7 150.243 5.86879   1
   2  -3   7 151.765 5.31777   4
   2  -3   7 150.489 5.72372   6
  -3   3  -7 11.9619 1.94276   4
  -3   3  -7 15.7207 2.34780   5
  -3   3  -7 16.8837 2.15884   5
  -3   3  -7 19.5148 2.67572   3
  -3   3  -7 17.0586 2.52031   1
  -3   3  -7 16.1111 2.19761   6
  -3   3  -7 14.4204 2.64505   6
   3  -3   7 17.5684 2.42087   5
   3  -3   7 16.3043 2.00789   6
   3  -3   7 13.8021 1.88718   4
   3  -3   7 11.7542 2.01461   5
   3  -3   7 12.3405 3.29603   1
  -4   3  -7 10.0440 2.15612   4
  -4   3  -7 5.50621 2.25153   1
  -4   3  -7 8.32805 2.25587   6
  -4   3  -7 5.80561 2.50946   6
  -4   3  -7 7.02411 2.23199   5
  -4   3  -7 6.03926 3.12944   3
  -4   3  -7 7.79562 2.06882   5
   4  -3   7 7.44789 1.94978   6
   4  -3   7 5.13409 1.93260   4
   4  -3   7 8.85534 2.35923   5
   4  -3   7 9.25710 2.24495   1
   4  -3   7 8.63023 2.16053   5
  -5   3  -7 74.6599 4.51381   5
  -5   3  -7 69.9409 4.52524   6
  -5   3  -7 74.6694 4.34657   3
  -5   3  -7 67.7584 5.51267   1
  -5   3  -7 74.6692 4.45309   5
  -5   3  -7 81.3204 5.10406   6
  -5   3  -7 67.5047 4.97357   4
   5  -3   7 79.2895 4.84476   4
   5  -3   7 70.9712 4.78545   6
   5  -3   7 73.7813 5.13957   5
   5  -3   7 77.2712 4.64936   5
   5  -3   7 65.2843 5.23331   1
  -6   3  -7 50.8131 3.33640   5
  -6   3  -7 44.7722 4.73333   6
  -6   3  -7 42.2698 3.98144   3
  -6   3  -7 41.8899 4.30362   6
  -6   3  -7 43.5210 4.22924   4
  -6   3  -7 41.2639 3.30680   5
   6  -3   7 48.5052 3.94076   4
   6  -3   7 45.0854 4.14367   1
   6  -3   7 40.5792 3.63285   5
   6  -3   7 43.4123 3.98156   5
  -7   3  -7 90.8020 5.62448   6
  -7   3  -7 98.7537 5.14872   6
   7  -3   7 94.8555 8.56352   4
   7  -3   7 105.814 7.83679   5
   7  -3   7 105.797 7.05990   5
   7  -3   7 108.471 8.06315   1
   8   2  -7 21.3038 3.56625   5
   8   2  -7 20.9173 3.71443   5
   8   2  -7 24.8840 4.28170   4
   7   2  -7 2.41425 2.47727   5
   7   2  -7 -1.7796 2.70065   6
   7   2  -7 5.55057 2.93085   4
   7   2  -7 2.66790 4.10962   1
   7   2  -7 0.21847 2.47074   5
  -7  -2   7 -2.4099 2.89514   3
  -7  -2   7 1.86149 2.17576   6
   6   2  -7 195.493 7.26281   6
   6   2  -7 211.367 7.78102   4
   6   2  -7 196.003 7.55750   5
   6   2  -7 204.247 7.54526   5
   6   2  -7 190.394 7.98250   6
   6   2  -7 207.251 8.53632   1
  -6  -2   7 181.293 7.96668   3
  -6  -2   7 209.336 6.74475   6
  -6  -2   7 185.400 8.61321   1
  -6  -2   7 192.441 5.83152   5
   5   2  -7 33.5742 2.96441   4
   5   2  -7 25.1255 3.04780   6
   5   2  -7 33.5256 3.32193   1
   5   2  -7 28.0318 2.47210   6
  -5  -2   7 23.1406 2.97324   3
  -5  -2   7 29.2393 2.80770   5
  -5  -2   7 32.7412 2.88730   5
  -5  -2   7 27.7602 2.96958   1
  -5  -2   7 31.1147 2.98984   6
   4   2  -7 22.2199 2.28999   5
   4   2  -7 24.8678 2.66473   1
   4   2  -7 19.4871 2.10794   4
   4   2  -7 24.5782 2.61674   6
   4   2  -7 20.1603 2.28788   5
   4   2  -7 22.1107 2.71684   6
  -4  -2   7 22.7098 2.82329   3
  -4  -2   7 22.3308 2.14945   5
  -4  -2   7 26.5955 2.22202   6
  -4  -2   7 23.5433 2.12816   5
  -4  -2   7 24.4136 2.57752   1
   3   2  -7 245.066 8.28896   1
   3   2  -7 247.878 8.10946   6
   3   2  -7 246.424 7.89773   4
   3   2  -7 243.297 8.29295   5
   3   2  -7 251.062 8.67496   6
   3   2  -7 248.938 8.35326   5
  -3  -2   7 242.794 8.20616   5
  -3  -2   7 248.517 8.22221   4
  -3  -2   7 250.318 8.24377   1
  -3  -2   7 238.678 7.98410   5
   2   2  -7 15.6405 1.90621   5
   2   2  -7 18.6830 2.13852   1
   2   2  -7 16.9258 2.41184   6
   2   2  -7 16.1953 1.70297   4
   2   2  -7 19.2576 2.24308   5
   2   2  -7 12.1247 1.50866   6
  -2  -2   7 16.7283 1.89294   5
  -2  -2   7 14.2447 1.88961   1
  -2  -2   7 19.1102 2.39933   4
  -2  -2   7 16.2559 1.76300   6
   1   2  -7 4.25604 1.18252   4
   1   2  -7 4.92016 1.56391   5
   1   2  -7 4.84774 1.40716   6
   1   2  -7 5.56123 1.95542   6
   1   2  -7 2.44567 1.71567   1
   1   2  -7 5.21273 1.49300   5
  -1  -2   7 4.27302 1.60183   5
  -1  -2   7 5.08012 1.49749   5
  -1  -2   7 4.06536 1.41066   1
  -1  -2   7 5.12713 1.33490   6
  -1  -2   7 4.92040 1.27646   4
   0   2  -7 38.3389 3.18102   5
   0   2  -7 37.4392 2.96951   5
   0   2  -7 37.5614 2.35647   4
   0   2  -7 35.1945 2.62157   6
   0   2  -7 32.8690 2.94945   1
   0   2  -7 35.2337 3.46560   6
   0  -2   7 34.6584 3.00412   5
   0  -2   7 38.9738 2.95037   1
   0  -2   7 39.0417 2.70932   6
   0  -2   7 37.1910 2.91931   5
   0  -2   7 33.1401 2.26807   4
  -1   2  -7 32.0690 2.68094   6
  -1   2  -7 35.7901 2.35357   4
  -1   2  -7 37.1197 4.14405   1
  -1   2  -7 33.4453 2.11588   3
  -1   2  -7 33.6183 3.00217   5
  -1   2  -7 32.7176 2.58729   2
  -1   2  -7 33.9064 3.35193   6
  -1   2  -7 30.0826 3.12569   5
   1  -2   7 34.0453 2.92057   5
   1  -2   7 28.4053 2.88208   5
   1  -2   7 33.4706 2.70325   6
   1  -2   7 31.6970 2.20902   4
   1  -2   7 36.1968 2.86316   1
  -2   2  -7 6.30436 1.75363   1
  -2   2  -7 7.37284 1.55087   2
  -2   2  -7 9.12107 1.74338   6
  -2   2  -7 10.1816 1.51196   3
  -2   2  -7 8.77956 1.75973   5
  -2   2  -7 8.03998 1.42350   4
  -2   2  -7 3.38738 1.63136   6
  -2   2  -7 9.85330 2.07123   5
   2  -2   7 7.58370 1.27968   4
   2  -2   7 6.14890 1.49224   6
   2  -2   7 10.2129 1.90042   5
   2  -2   7 6.23228 1.49629   5
   2  -2   7 8.62888 1.73037   1
  -3   2  -7 44.9701 2.61648   3
  -3   2  -7 39.2762 3.72014   6
  -3   2  -7 43.0011 3.16582   6
  -3   2  -7 48.1670 3.60538   5
  -3   2  -7 43.4591 2.62811   2
  -3   2  -7 46.2112 3.28744   5
  -3   2  -7 48.1004 3.09058   4
   3  -2   7 42.4398 3.46564   5
   3  -2   7 49.0049 3.56397   1
   3  -2   7 44.1367 2.75753   4
   3  -2   7 45.2936 3.13336   6
   3  -2   7 42.0561 3.35952   5
  -4   2  -7 -0.4775 1.47783   6
  -4   2  -7 2.36441 1.60320   3
  -4   2  -7 -0.3847 1.69644   5
  -4   2  -7 2.76681 1.97100   6
  -4   2  -7 0.37629 1.67602   2
  -4   2  -7 1.62866 1.68959   5
  -4   2  -7 1.00899 1.70380   4
  -4   2  -7 3.11825 2.35918   1
   4  -2   7 1.02881 1.75914   5
   4  -2   7 1.19734 2.04728   1
   4  -2   7 2.84901 1.46326   4
   4  -2   7 0.92499 1.54706   5
   4  -2   7 1.82547 1.64044   6
  -5   2  -7 43.1674 3.59239   6
  -5   2  -7 43.5921 3.32818   5
  -5   2  -7 38.7160 4.05397   6
  -5   2  -7 43.0908 4.18586   4
  -5   2  -7 34.8663 3.64826   1
  -5   2  -7 37.7391 2.90040   3
  -5   2  -7 39.4366 3.26468   5
   5  -2   7 40.1028 3.72673   6
   5  -2   7 43.0235 3.92683   5
   5  -2   7 42.0936 4.12865   5
   5  -2   7 42.3292 3.81832   4
  -6   2  -7 76.7803 6.33247   4
  -6   2  -7 73.5940 4.40693   6
  -6   2  -7 78.7396 4.75416   6
   6  -2   7 66.9239 4.96416   5
   6  -2   7 77.0008 5.41986   5
   6  -2   7 69.1788 6.07445   1
   6  -2   7 74.5338 5.05292   4
   7  -2   7 47.8818 5.17782   1
   7  -2   7 50.4592 4.34747   5
   7  -2   7 57.4355 4.99442   4
   7  -2   7 56.0506 5.30643   5
   8   1  -7 28.4286 3.45599   5
   8   1  -7 27.1875 5.39543   1
   8   1  -7 28.0671 3.42850   5
   8   1  -7 20.5431 4.14173   4
   8   1  -7 30.6060 3.93004   6
  -8  -1   7 19.3708 5.18034   3
   7   1  -7 1.94211 3.45643   1
   7   1  -7 0.69133 2.25817   5
   7   1  -7 -1.3909 2.32778   6
   7   1  -7 -1.2219 2.84191   4
   7   1  -7 1.33010 2.28768   5
  -7  -1   7 -0.5563 2.55382   3
  -7  -1   7 0.89263 1.48651   6
   6   1  -7 4.55155 1.83202   6
   6   1  -7 4.53504 2.60388   6
   6   1  -7 5.05610 2.90017   1
   6   1  -7 4.87037 2.11329   5
   6   1  -7 6.00959 2.23834   4
   6   1  -7 4.25114 1.96540   5
  -6  -1   7 6.31638 2.57964   3
  -6  -1   7 6.42739 1.68065   6
  -6  -1   7 6.26569 1.28496   5
  -6  -1   7 5.47695 1.26137   5
  -6  -1   7 3.05856 2.28102   1
   5   1  -7 -1.4932 1.52265   4
   5   1  -7 -0.2747 1.42465   6
   5   1  -7 -1.0251 1.98935   1
   5   1  -7 1.46721 1.57337   5
   5   1  -7 0.74372 1.66629   5
   5   1  -7 0.90315 1.91685   6
  -5  -1   7 2.19422 1.46383   6
  -5  -1   7 0.89650 1.44450   5
  -5  -1   7 0.89516 1.79785   1
  -5  -1   7 -0.4401 2.01665   3
  -5  -1   7 0.34647 1.34361   5
   4   1  -7 12.5212 2.15019   1
   4   1  -7 12.6188 1.76214   6
   4   1  -7 12.6695 2.26196   6
   4   1  -7 14.4903 2.05953   5
   4   1  -7 15.2086 1.81440   4
   4   1  -7 15.5513 2.00584   5
  -4  -1   7 12.5039 1.70992   5
  -4  -1   7 9.92242 1.91385   1
  -4  -1   7 12.0365 2.28377   3
  -4  -1   7 13.6432 1.74075   5
   3   1  -7 7.46984 1.32394   6
   3   1  -7 7.73305 1.60617   5
   3   1  -7 6.68544 1.36857   4
   3   1  -7 5.45348 1.63172   1
   3   1  -7 8.35984 2.62578   6
   3   1  -7 7.14730 1.75795   5
  -3  -1   7 9.34057 1.75218   1
  -3  -1   7 5.19084 1.29345   6
  -3  -1   7 7.02305 1.83524   3
  -3  -1   7 4.97360 1.31950   5
  -3  -1   7 5.44209 1.48728   6
   2   1  -7 861.883 24.2557   5
   2   1  -7 878.068 24.6764   6
   2   1  -7 834.813 24.0873   6
   2   1  -7 862.854 23.8009   4
   2   1  -7 853.471 24.1001   1
   2   1  -7 891.825 24.3830   5
  -2  -1   7 809.169 24.0597   3
  -2  -1   7 850.943 24.5536   6
  -2  -1   7 856.557 24.1347   5
  -2  -1   7 863.813 23.9394   4
  -2  -1   7 864.130 24.1024   1
  -2  -1   7 869.530 24.2976   5
  -2  -1   7 870.153 24.0269   6
   1   1  -7 18.5485 2.04995   6
   1   1  -7 21.0032 2.08199   5
   1   1  -7 26.4003 2.58918   1
   1   1  -7 23.8468 2.32521   6
   1   1  -7 24.7725 1.94040   4
   1   1  -7 23.5480 2.52696   5
  -1  -1   7 25.1245 2.54236   5
  -1  -1   7 26.2710 2.69964   6
  -1  -1   7 21.9220 2.05931   5
  -1  -1   7 24.6892 2.26498   6
  -1  -1   7 26.2689 2.44728   1
  -1  -1   7 20.6383 2.02746   4
   0   1  -7 150.513 5.67423   5
   0   1  -7 140.769 5.38622   2
   0   1  -7 151.388 5.91862   6
   0   1  -7 142.007 5.44176   1
   0   1  -7 149.290 4.85532   4
   0   1  -7 149.658 5.54005   5
   0   1  -7 148.457 5.39397   6
   0  -1   7 145.264 5.40252   1
   0  -1   7 154.893 5.66345   5
   0  -1   7 149.112 5.90559   6
   0  -1   7 143.897 5.50230   5
   0  -1   7 150.774 5.29989   6
   0  -1   7 146.376 4.87169   4
  -1   1  -7 26.5152 1.70480   3
  -1   1  -7 27.2527 2.41164   5
  -1   1  -7 25.3743 1.92474   4
  -1   1  -7 26.6163 2.93643   6
  -1   1  -7 24.3053 3.76962   1
  -1   1  -7 26.1749 2.64499   5
  -1   1  -7 28.0486 2.46587   6
   1  -1   7 22.3501 2.02079   5
   1  -1   7 21.8520 2.32073   6
   1  -1   7 26.4044 2.69678   5
   1  -1   7 18.1749 1.90332   1
   1  -1   7 26.0449 1.84249   4
   1  -1   7 28.2912 2.95488   6
  -2   1  -7 51.2260 3.06819   6
  -2   1  -7 49.9478 3.35661   5
  -2   1  -7 52.0870 3.56492   6
  -2   1  -7 55.0165 2.72347   4
  -2   1  -7 50.0688 3.49297   1
  -2   1  -7 53.9919 3.00112   2
  -2   1  -7 55.1051 2.26211   3
  -2   1  -7 55.2177 3.20246   5
   2  -1   7 49.5956 3.09865   6
   2  -1   7 52.6372 3.32446   5
   2  -1   7 46.9987 3.60805   6
   2  -1   7 56.3116 2.45118   4
   2  -1   7 53.4819 3.38501   1
   2  -1   7 53.9412 3.42738   5
  -3   1  -7 65.7943 3.58946   6
  -3   1  -7 72.5634 3.38208   4
  -3   1  -7 68.9845 3.42502   2
  -3   1  -7 76.7046 4.06340   6
  -3   1  -7 76.1954 3.93230   5
  -3   1  -7 69.8465 4.23375   1
   3  -1   7 70.1839 4.20311   1
   3  -1   7 67.8861 3.93005   5
   3  -1   7 72.7933 2.99744   4
   3  -1   7 71.4811 3.65416   6
   3  -1   7 73.2232 3.78137   5
   3  -1   7 69.7119 4.16611   6
  -4   1  -7 3.10763 2.20516   1
  -4   1  -7 3.29971 1.53828   6
  -4   1  -7 4.59049 1.60468   5
  -4   1  -7 3.17142 1.71847   5
  -4   1  -7 2.52934 1.54943   4
  -4   1  -7 3.06510 1.93941   2
  -4   1  -7 3.46771 1.89889   6
   4  -1   7 2.86924 2.16990   1
   4  -1   7 3.57946 1.35574   4
   4  -1   7 1.90513 1.56486   6
   4  -1   7 0.70908 1.54179   5
   4  -1   7 1.07303 1.63787   5
  -5   1  -7 19.0221 1.92481   5
  -5   1  -7 15.3175 2.46627   6
  -5   1  -7 15.7941 2.26085   4
  -5   1  -7 13.9039 1.96704   6
  -5   1  -7 16.4255 1.86538   5
   5  -1   7 15.0564 2.36530   6
   5  -1   7 16.1822 2.75616   5
   5  -1   7 13.2467 1.86547   4
   5  -1   7 10.8263 2.19229   5
   5  -1   7 15.7180 2.91030   1
  -6   1  -7 48.6836 3.72096   6
  -6   1  -7 52.1669 3.63778   6
  -6   1  -7 42.6075 4.26139   2
   6  -1   7 44.5027 4.26887   1
   6  -1   7 45.1369 4.13885   5
   6  -1   7 52.2042 4.67894   5
   7  -1   7 39.1311 3.61058   5
   7  -1   7 33.0512 3.73112   5
   7  -1   7 29.8396 3.89318   4
   7  -1   7 35.3173 5.11830   1
   8   0  -7 18.3458 3.45348   6
   8   0  -7 16.5458 3.10566   5
   8   0  -7 15.8012 4.83819   1
   8   0  -7 14.7593 3.73420   4
   8   0  -7 24.5609 3.17685   5
  -8   0   7 10.9219 3.35180   3
   7   0  -7 31.7405 2.87209   6
   7   0  -7 32.7368 3.06876   5
   7   0  -7 30.2531 2.99640   5
   7   0  -7 27.2906 3.29752   4
   7   0  -7 31.2652 3.51255   1
  -7   0   7 29.5489 3.79489   3
   6   0  -7 3.13991 2.12333   4
   6   0  -7 4.58901 2.48712   6
   6   0  -7 -0.8505 2.01840   5
   6   0  -7 4.22534 1.87822   5
   6   0  -7 5.17450 2.41058   1
   6   0  -7 4.26309 1.70941   6
  -6   0   7 4.21094 2.42492   3
  -6   0   7 4.15315 1.41447   5
  -6   0   7 4.58640 1.70777   6
  -6   0   7 5.51215 2.08468   1
   5   0  -7 213.387 7.90560   6
   5   0  -7 205.738 7.34429   4
   5   0  -7 214.440 7.56332   5
   5   0  -7 217.055 7.19227   6
   5   0  -7 211.897 7.44258   1
   5   0  -7 199.774 8.37764   5
  -5   0   7 222.827 7.23600   6
  -5   0   7 211.049 7.04715   5
  -5   0   7 217.693 7.34975   1
  -5   0   7 217.688 7.02130   5
  -5   0   7 206.041 8.03636   3
   4   0  -7 33.0978 2.97177   1
   4   0  -7 37.6845 3.44539   6
   4   0  -7 35.7662 2.99450   5
   4   0  -7 35.5547 2.75568   4
   4   0  -7 34.5500 3.05842   5
   4   0  -7 34.4212 2.72596   6
  -4   0   7 32.8155 2.95937   1
  -4   0   7 37.2799 2.92564   5
  -4   0   7 37.3467 2.78058   5
  -4   0   7 38.4842 2.74818   6
  -4   0   7 33.5940 3.12294   6
  -4   0   7 40.2832 3.44656   3
   3   0  -7 1.11079 1.38814   1
   3   0  -7 -0.3503 1.27901   6
   3   0  -7 0.14231 1.35754   5
   3   0  -7 0.80009 1.02945   4
   3   0  -7 -0.2737 1.42860   5
  -3   0   7 -1.1866 1.11481   6
  -3   0   7 -0.6990 1.24961   1
  -3   0   7 0.05167 1.37944   6
  -3   0   7 0.33792 1.30371   5
  -3   0   7 2.00006 1.41987   5
  -3   0   7 1.69863 1.63526   3
   2   0  -7 220.256 7.38074   6
   2   0  -7 223.179 7.43261   1
   2   0  -7 233.091 7.74955   5
   2   0  -7 218.765 7.57209   5
   2   0  -7 231.151 7.07462   4
   2   0  -7 229.160 7.99028   6
  -2   0   7 227.925 7.94609   6
  -2   0   7 233.487 7.50836   3
  -2   0   7 229.238 7.63638   5
  -2   0   7 232.112 7.53996   5
  -2   0   7 230.233 7.38307   1
  -2   0   7 233.926 7.46246   6
   1   0  -7 20.8484 2.26361   6
   1   0  -7 18.7835 2.07099   6
   1   0  -7 19.2952 1.87432   5
   1   0  -7 17.9627 1.86636   5
   1   0  -7 17.4918 1.60721   4
   1   0  -7 18.6786 1.80664   1
   1   0  -7 18.4154 2.08696   2
  -1   0   7 24.7967 1.99032   4
  -1   0   7 13.8539 1.81220   6
  -1   0   7 23.2376 2.34710   3
  -1   0   7 16.1590 1.75970   5
  -1   0   7 13.7935 1.68479   5
  -1   0   7 17.4671 1.72530   1
  -1   0   7 20.9537 2.15092   6
   0   0  -7 12.8645 1.67782   1
   0   0  -7 13.4546 1.52649   6
   0   0  -7 14.8305 1.80547   5
   0   0  -7 14.5143 2.00434   5
   0   0  -7 11.9987 1.74043   6
   0   0  -7 16.3265 1.95356   2
   0   0  -7 13.9465 1.22081   4
   0   0   7 16.1418 1.60482   4
   0   0   7 17.6592 1.81294   5
   0   0   7 10.3035 1.52294   5
   0   0   7 13.5641 1.96443   6
   0   0   7 16.3459 1.71814   6
   0   0   7 11.0499 1.52413   1
  -1   0  -7 17.2362 1.96579   5
  -1   0  -7 11.5807 1.76028   6
  -1   0  -7 15.0091 2.24102   1
  -1   0  -7 13.1525 1.51569   6
  -1   0  -7 17.4931 1.98975   5
  -1   0  -7 17.6347 1.23902   3
  -1   0  -7 15.9565 1.51253   4
  -1   0  -7 13.6153 1.82773   2
   1   0   7 15.6161 1.37914   4
   1   0   7 13.3603 1.79826   1
   1   0   7 13.9123 1.72694   5
   1   0   7 13.7628 1.78750   5
   1   0   7 16.1228 2.13063   6
   1   0   7 16.9411 1.79615   6
  -2   0  -7 26.5029 2.93073   6
  -2   0  -7 28.8718 2.85617   5
  -2   0  -7 23.1040 2.28574   1
  -2   0  -7 28.4966 1.89096   4
  -2   0  -7 24.3979 2.64907   2
  -2   0  -7 29.1369 2.50588   6
   2   0   7 25.5908 2.74042   5
   2   0   7 29.9916 2.92366   1
   2   0   7 27.4547 1.67049   4
   2   0   7 24.9857 2.66601   6
   2   0   7 28.6797 2.75959   6
   2   0   7 29.9952 2.76759   5
  -3   0  -7 70.5663 3.72924   5
  -3   0  -7 65.4121 3.49400   5
  -3   0  -7 68.7084 3.46116   6
  -3   0  -7 68.2996 4.33329   1
  -3   0  -7 67.4902 3.54761   2
  -3   0  -7 65.8463 3.99485   6
  -3   0  -7 66.9873 2.93994   4
   3   0   7 65.6138 3.70434   5
   3   0   7 68.1297 2.63065   4
   3   0   7 69.1582 3.62113   6
   3   0   7 69.0354 3.84292   5
   3   0   7 74.9155 4.20296   1
   3   0   7 65.4942 4.05334   6
  -4   0  -7 13.3335 1.91904   5
  -4   0  -7 10.8915 1.73109   6
  -4   0  -7 15.1259 1.86828   5
  -4   0  -7 13.3640 2.18946   6
  -4   0  -7 16.1097 2.84232   1
  -4   0  -7 13.9197 1.59134   4
  -4   0  -7 12.8679 2.26412   2
   4   0   7 12.3111 2.15228   5
   4   0   7 13.6298 2.06253   5
   4   0   7 12.0633 2.58491   1
   4   0   7 9.58539 2.11898   6
   4   0   7 11.2355 1.28306   4
   4   0   7 13.3835 2.02292   6
  -5   0  -7 3.92775 1.59917   6
  -5   0  -7 6.50844 2.59733   2
  -5   0  -7 5.66763 2.04397   6
  -5   0  -7 4.65598 1.44572   5
  -5   0  -7 4.72414 1.35481   5
   5   0   7 5.13863 1.36873   4
   5   0   7 3.66075 2.12913   5
   5   0   7 6.61193 2.30120   6
   5   0   7 3.93847 2.01960   6
   5   0   7 4.92250 2.03007   5
   5   0   7 1.06362 2.78441   1
  -6   0  -7 26.3058 2.91261   6
  -6   0  -7 24.8786 2.29980   6
  -6   0  -7 30.7882 3.48852   2
   6   0   7 24.8039 2.95241   5
   6   0   7 28.7111 3.97586   1
   6   0   7 25.2540 2.94620   5
   6   0   7 24.6794 2.29583   4
  -7   0  -7 64.1762 5.89341   2
   7   0   7 59.0524 5.35632   5
   7   0   7 59.2730 5.71120   5
   7   0   7 88.0168 8.22608   1
   8  -1  -7 72.6686 5.76895   5
   8  -1  -7 70.4661 6.87697   4
   8  -1  -7 72.8604 5.20543   1
   8  -1  -7 66.1925 5.18631   5
   8  -1  -7 64.2570 6.28720   6
  -8   1   7 71.2804 5.74941   3
   7  -1  -7 36.8730 3.29129   1
   7  -1  -7 40.7722 4.16688   5
   7  -1  -7 30.3485 4.20024   6
   7  -1  -7 38.0235 3.79113   6
   7  -1  -7 34.4663 3.18156   5
   7  -1  -7 25.3238 5.76370   4
   7  -1  -7 35.3074 3.72100   4
  -7   1   7 31.5616 3.91653   3
   6  -1  -7 0.30953 2.16982   4
   6  -1  -7 2.61737 1.91067   5
   6  -1  -7 1.23553 1.62773   6
   6  -1  -7 -2.3971 2.41697   6
   6  -1  -7 3.47851 2.33760   1
   6  -1  -7 1.21840 2.11539   5
  -6   1   7 -0.1722 1.69502   6
  -6   1   7 0.95910 1.39868   5
  -6   1   7 0.99625 1.76998   1
  -6   1   7 -1.6187 1.49948   5
  -6   1   7 0.60519 1.73035   6
  -6   1   7 -1.2102 2.11385   3
   5  -1  -7 0.49186 1.66967   5
   5  -1  -7 -0.8614 1.58532   5
   5  -1  -7 -0.1584 1.37852   6
   5  -1  -7 -1.0647 2.29336   4
   5  -1  -7 1.46378 1.65883   1
   5  -1  -7 0.15757 1.90494   6
  -5   1   7 0.72587 1.49310   1
  -5   1   7 1.58591 1.52328   5
  -5   1   7 0.54667 1.40844   5
  -5   1   7 0.42871 2.15316   3
  -5   1   7 -1.9108 1.55092   6
  -5   1   7 -1.4752 1.55792   6
   4  -1  -7 4.12710 1.48367   5
   4  -1  -7 4.74207 1.71585   6
   4  -1  -7 3.36243 1.55367   5
   4  -1  -7 5.32340 1.33833   6
   4  -1  -7 2.76424 1.41290   4
   4  -1  -7 5.55561 1.59962   1
  -4   1   7 6.39084 1.94516   3
  -4   1   7 5.31121 1.45813   6
  -4   1   7 3.14625 1.80093   6
  -4   1   7 3.87169 1.54595   5
  -4   1   7 4.79993 1.47214   1
  -4   1   7 4.36662 1.39306   5
   3  -1  -7 58.0807 3.15461   1
   3  -1  -7 63.5033 3.62382   5
   3  -1  -7 63.0231 3.95309   6
   3  -1  -7 54.8800 3.08902   6
   3  -1  -7 54.6373 2.88439   4
   3  -1  -7 58.3285 3.45420   5
  -3   1   7 61.4634 3.38650   5
  -3   1   7 59.5291 3.05060   1
  -3   1   7 54.6711 3.76223   6
  -3   1   7 56.0951 3.49807   3
  -3   1   7 54.1511 4.25969   5
  -3   1   7 60.2110 3.25536   6
   2  -1  -7 11.8175 1.61615   1
   2  -1  -7 10.9332 1.70329   5
   2  -1  -7 14.0664 2.03684   2
   2  -1  -7 11.1416 1.64129   6
   2  -1  -7 11.8443 1.79296   5
   2  -1  -7 12.8035 1.54158   6
   2  -1  -7 10.9175 1.23019   4
  -2   1   7 12.6200 1.58411   1
  -2   1   7 14.4119 1.69350   6
  -2   1   7 17.7356 2.07128   3
  -2   1   7 15.2732 2.11426   6
  -2   1   7 14.4406 1.94073   5
  -2   1   7 10.7698 1.57875   5
   1  -1  -7 890.509 24.8277   2
   1  -1  -7 880.594 24.6767   5
   1  -1  -7 898.765 24.6235   5
   1  -1  -7 877.018 24.4277   6
   1  -1  -7 879.860 24.9290   6
   1  -1  -7 855.615 23.8237   4
   1  -1  -7 864.620 24.3197   1
  -1   1   7 882.781 24.1010   3
  -1   1   7 860.434 24.5361   5
  -1   1   7 879.408 24.4386   6
  -1   1   7 836.083 24.8805   6
  -1   1   7 857.928 24.6207   5
  -1   1   7 869.609 24.3308   1
   0  -1  -7 44.1278 2.69290   6
   0  -1  -7 49.8969 3.33408   5
   0  -1  -7 44.7554 3.09875   2
   0  -1  -7 48.7928 3.07350   1
   0  -1  -7 47.0992 2.99588   5
   0  -1  -7 43.7463 1.97252   4
   0  -1  -7 44.6422 3.41294   6
   0   1   7 42.0767 2.89739   1
   0   1   7 48.6902 2.99993   5
   0   1   7 44.2899 2.43592   3
   0   1   7 49.0662 3.45997   6
   0   1   7 47.8808 2.94048   6
   0   1   7 50.0981 3.20269   5
  -1  -1  -7 66.6304 5.11142   5
  -1  -1  -7 76.9505 3.85612   5
  -1  -1  -7 74.1831 3.92161   6
  -1  -1  -7 67.7660 3.33815   6
  -1  -1  -7 69.5077 2.51284   4
  -1  -1  -7 73.4200 3.66236   2
  -1  -1  -7 68.3148 5.53948   1
   1   1   7 71.5485 2.54135   4
   1   1   7 75.3192 3.57262   6
   1   1   7 68.1939 4.11950   6
   1   1   7 60.5975 3.49322   1
   1   1   7 66.0309 3.61942   5
   1   1   7 72.7112 3.79831   5
  -2  -1  -7 30.2410 1.62547   4
  -2  -1  -7 27.4246 2.46478   5
  -2  -1  -7 33.3266 3.30038   1
  -2  -1  -7 25.7882 2.71988   5
  -2  -1  -7 29.9262 2.77236   2
  -2  -1  -7 31.5292 2.52200   6
  -2  -1  -7 28.8176 3.81767   6
   2   1   7 30.0739 3.01194   5
   2   1   7 28.6954 1.40953   4
   2   1   7 32.3090 2.73699   6
   2   1   7 34.4728 3.33911   6
   2   1   7 27.9198 2.80931   1
  -3  -1  -7 32.9215 3.07159   2
  -3  -1  -7 32.5579 3.09239   6
  -3  -1  -7 35.8501 2.77990   5
  -3  -1  -7 34.5393 2.78326   6
  -3  -1  -7 35.1652 3.11393   5
  -3  -1  -7 45.0818 3.88114   1
   3   1   7 32.3976 2.93812   6
   3   1   7 32.8827 3.21070   5
   3   1   7 33.8174 1.43337   4
   3   1   7 31.6260 3.04201   5
   3   1   7 37.5535 3.51694   6
   3   1   7 32.3931 2.95303   1
  -4  -1  -7 9.35136 2.00643   6
  -4  -1  -7 11.3218 2.35066   2
  -4  -1  -7 9.68443 1.81128   5
  -4  -1  -7 9.54343 1.63948   5
   4   1   7 5.79168 2.12942   6
   4   1   7 10.0766 0.81746   4
   4   1   7 8.10923 1.89933   6
   4   1   7 6.18408 3.05510   5
   4   1   7 5.56372 2.14240   5
  -5  -1  -7 2.05568 1.90137   6
  -5  -1  -7 1.50998 2.49901   2
  -5  -1  -7 4.03124 1.23565   5
  -5  -1  -7 3.64459 1.31277   5
  -5  -1  -7 4.09844 1.63652   6
   5   1   7 2.54531 2.04655   5
   5   1   7 1.78657 0.91503   4
   5   1   7 0.83327 1.88138   5
   5   1   7 5.45734 2.51844   6
   5   1   7 4.07793 2.19802   6
   5   1   7 1.93331 3.07322   1
  -6  -1  -7 25.9924 2.16222   6
  -6  -1  -7 24.7942 2.72150   6
  -6  -1  -7 27.7821 3.66252   2
   6   1   7 21.6703 4.25055   1
   6   1   7 23.8195 2.89254   5
   6   1   7 24.3378 2.27775   4
   6   1   7 20.1561 1.97372   4
   6   1   7 22.0492 3.66702   6
   6   1   7 22.8232 3.11215   5
  -7  -1  -7 25.2648 4.15609   2
   7   1   7 19.5150 3.51226   5
   7   1   7 16.7429 3.51218   5
   7   1   7 9.58883 5.30143   1
   8  -2  -7 8.09134 2.96209   5
   8  -2  -7 11.3852 4.17779   4
   8  -2  -7 10.0906 3.19234   5
   8  -2  -7 8.97582 3.44626   6
  -8   2   7 9.29568 3.42083   3
   7  -2  -7 15.9799 3.27484   4
   7  -2  -7 24.1618 2.76375   6
   7  -2  -7 20.4153 3.01766   5
   7  -2  -7 12.7852 7.01458   4
   7  -2  -7 22.2263 2.59487   1
   7  -2  -7 18.0127 2.72426   5
  -7   2   7 20.6888 2.66146   6
  -7   2   7 12.3287 3.11755   3
   6  -2  -7 31.6874 2.82148   5
   6  -2  -7 35.9995 3.46545   6
   6  -2  -7 33.8175 4.17286   4
   6  -2  -7 35.8326 3.16912   1
   6  -2  -7 30.0692 3.11214   6
   6  -2  -7 27.8218 3.48168   5
   6  -2  -7 25.5786 3.00889   4
  -6   2   7 21.2611 3.15261   3
  -6   2   7 30.6977 2.49143   5
  -6   2   7 27.7059 2.35560   1
  -6   2   7 28.4623 2.73964   6
  -6   2   7 27.2997 2.35813   5
  -6   2   7 26.0453 2.78805   6
   5  -2  -7 2.35088 2.53233   4
   5  -2  -7 4.83915 2.30450   6
   5  -2  -7 3.54378 1.69966   5
   5  -2  -7 5.86485 1.85317   4
   5  -2  -7 4.21309 1.53836   1
   5  -2  -7 3.99232 1.55070   6
   5  -2  -7 2.09626 1.87809   5
  -5   2   7 4.18910 1.50028   1
  -5   2   7 6.18880 1.83877   5
  -5   2   7 2.88564 1.64411   5
  -5   2   7 2.04685 2.05332   3
  -5   2   7 3.61640 1.84964   6
  -5   2   7 3.30807 2.02660   6
   4  -2  -7 130.466 5.52698   5
   4  -2  -7 118.795 5.85736   2
   4  -2  -7 128.395 5.90258   6
   4  -2  -7 132.142 5.04708   4
   4  -2  -7 127.681 4.77924   1
   4  -2  -7 124.340 4.93088   6
   4  -2  -7 124.957 5.28012   5
  -4   2   7 123.281 6.23966   6
  -4   2   7 130.116 5.08789   5
  -4   2   7 119.485 5.53878   3
  -4   2   7 124.037 4.64421   1
  -4   2   7 124.783 5.36361   5
   3  -2  -7 24.0679 2.30927   1
   3  -2  -7 19.1719 1.96481   6
   3  -2  -7 17.6666 1.95146   5
   3  -2  -7 19.6483 1.73735   4
   3  -2  -7 19.8831 2.19452   5
   3  -2  -7 21.7494 2.70703   2
   3  -2  -7 24.1955 2.63816   6
  -3   2   7 20.7426 2.32174   3
  -3   2   7 22.1025 2.37991   6
  -3   2   7 24.3988 2.27064   6
  -3   2   7 16.5657 1.90830   5
  -3   2   7 19.4982 1.72589   1
  -3   2   7 16.9182 1.91312   5
   2  -2  -7 24.3466 2.67710   2
   2  -2  -7 33.5199 3.10877   5
   2  -2  -7 33.8996 2.65276   1
   2  -2  -7 38.4425 3.34879   6
   2  -2  -7 35.4981 2.15028   4
   2  -2  -7 34.0045 2.86246   5
   2  -2  -7 31.7948 2.51328   6
  -2   2   7 38.9500 2.89569   6
  -2   2   7 37.4367 2.87279   3
  -2   2   7 34.9578 3.12164   5
  -2   2   7 31.2946 3.26456   6
  -2   2   7 34.8952 2.55095   1
  -2   2   7 32.8298 3.19345   5
   1  -2  -7 145.691 5.65767   5
   1  -2  -7 140.182 5.80382   6
   1  -2  -7 138.721 5.45651   5
   1  -2  -7 133.433 5.58332   2
   1  -2  -7 144.761 5.23461   1
   1  -2  -7 140.469 4.46490   4
   1  -2  -7 140.284 5.16043   6
  -1   2   7 126.565 5.41114   3
  -1   2   7 143.686 5.94762   6
  -1   2   7 150.119 5.42762   6
  -1   2   7 140.179 5.59967   5
  -1   2   7 142.706 5.12340   1
  -1   2   7 145.279 5.55291   5
   0  -2  -7 29.0153 2.38242   1
   0  -2  -7 27.3938 2.74046   2
   0  -2  -7 26.2017 2.54594   6
   0  -2  -7 24.1165 2.29072   6
   0  -2  -7 22.0364 2.11886   5
   0  -2  -7 22.0446 2.28956   5
   0  -2  -7 25.1562 1.41778   4
   0   2   7 19.7229 2.14769   6
   0   2   7 24.6053 2.63753   6
   0   2   7 18.6841 1.90284   1
   0   2   7 25.5736 2.37840   5
   0   2   7 24.3342 2.19681   3
   0   2   7 26.3114 2.65788   5
  -1  -2  -7 31.5190 2.93978   2
  -1  -2  -7 33.1116 3.29767   6
  -1  -2  -7 31.2845 1.37067   4
  -1  -2  -7 32.4910 2.55714   6
  -1  -2  -7 35.8377 3.42690   5
  -1  -2  -7 32.5126 3.13327   1
   1   2   7 31.7739 3.45278   6
   1   2   7 29.0390 2.91141   1
   1   2   7 34.3108 2.88918   6
   1   2   7 33.2467 2.96439   5
   1   2   7 35.4518 3.19046   5
  -2  -2  -7 1.29586 1.23435   5
  -2  -2  -7 1.08063 1.23935   6
  -2  -2  -7 0.77849 1.73170   2
  -2  -2  -7 -0.1208 1.68618   5
  -2  -2  -7 0.38465 1.83977   1
   2   2   7 -0.8178 1.49296   6
   2   2   7 -2.1660 1.50790   5
   2   2   7 -0.3257 1.60804   5
   2   2   7 -0.0753 1.51569   6
   2   2   7 -0.1384 1.71107   1
  -3  -2  -7 21.6574 2.32589   5
  -3  -2  -7 21.1457 2.00574   5
  -3  -2  -7 17.0911 1.86066   6
  -3  -2  -7 16.4537 2.37430   2
  -3  -2  -7 18.7135 2.52345   6
   3   2   7 21.1454 2.50680   6
   3   2   7 19.0761 2.58802   1
   3   2   7 18.9734 2.30705   5
   3   2   7 18.4180 2.10890   6
   3   2   7 20.6255 2.26465   5
  -4  -2  -7 129.032 5.89729   2
  -4  -2  -7 137.456 5.76066   6
  -4  -2  -7 128.426 5.12236   6
  -4  -2  -7 131.729 5.26282   5
  -4  -2  -7 138.972 5.06471   5
   4   2   7 123.007 5.67058   6
   4   2   7 132.231 6.41149   1
   4   2   7 134.052 5.82206   5
   4   2   7 126.902 5.98200   6
  -5  -2  -7 2.47330 1.59489   6
  -5  -2  -7 0.87687 1.99472   6
  -5  -2  -7 4.16580 2.65950   2
   5   2   7 5.84428 3.25639   1
   5   2   7 3.89160 2.16885   5
   5   2   7 0.51356 2.20860   5
   5   2   7 -0.6957 2.33475   6
   5   2   7 -1.4926 2.41658   6
  -6  -2  -7 15.0093 3.64595   2
  -6  -2  -7 10.4598 2.19874   6
  -6  -2  -7 13.4026 1.72041   6
   6   2   7 13.9798 4.07140   6
   6   2   7 15.3369 2.77715   5
   6   2   7 13.9768 4.48728   1
   6   2   7 11.4646 2.98129   5
  -7  -2  -7 16.0858 4.23868   2
   7   2   7 28.6424 5.84913   1
   7   2   7 14.9318 3.76393   5
   8  -3  -7 0.23228 4.55921   5
   8  -3  -7 -3.4157 3.03392   2
   8  -3  -7 1.07809 4.14777   4
   8  -3  -7 -0.8990 2.80888   5
  -8   3   7 -0.5835 2.45123   6
   7  -3  -7 103.158 4.52266   1
   7  -3  -7 105.332 6.46706   2
   7  -3  -7 109.615 6.37689   4
   7  -3  -7 104.708 5.79426   5
   7  -3  -7 106.950 6.43643   5
   7  -3  -7 106.966 5.65605   6
  -7   3   7 114.580 4.56109   5
  -7   3   7 99.8317 6.21136   3
  -7   3   7 91.1609 4.78091   5
  -7   3   7 108.714 5.84018   6
   6  -3  -7 34.1897 3.75136   6
   6  -3  -7 34.5577 4.29425   4
   6  -3  -7 29.3490 3.72943   2
   6  -3  -7 27.4816 3.01190   5
   6  -3  -7 33.1076 3.40743   6
   6  -3  -7 33.5214 3.27470   4
   6  -3  -7 35.2456 2.76509   1
   6  -3  -7 31.6113 2.89001   5
  -6   3   7 34.1953 2.75712   1
  -6   3   7 30.1713 2.93706   5
  -6   3   7 34.6130 3.99271   3
  -6   3   7 34.4424 2.75258   5
  -6   3   7 30.2638 3.13314   6
   5  -3  -7 6.20385 1.95788   4
   5  -3  -7 5.01278 2.05074   5
   5  -3  -7 5.69649 1.70191   6
   5  -3  -7 1.46607 2.55715   6
   5  -3  -7 3.81080 2.90003   4
   5  -3  -7 5.64439 2.11545   5
   5  -3  -7 7.14323 1.45658   1
   5  -3  -7 1.54590 2.33432   2
  -5   3   7 5.74817 2.81844   6
  -5   3   7 2.15281 2.09870   3
  -5   3   7 5.53032 2.10361   5
  -5   3   7 4.32554 1.84508   5
  -5   3   7 6.64992 2.10603   6
  -5   3   7 3.80161 1.37075   1
   4  -3  -7 9.97451 2.38050   2
   4  -3  -7 9.72270 2.40295   4
   4  -3  -7 11.4996 1.57999   1
   4  -3  -7 7.68635 1.82041   5
   4  -3  -7 5.02884 2.15240   6
   4  -3  -7 6.34121 1.78863   6
   4  -3  -7 7.69806 1.71604   4
   4  -3  -7 6.31736 2.07316   5
  -4   3   7 6.96806 2.04503   5
  -4   3   7 5.42986 1.36240   1
  -4   3   7 8.24705 1.98458   6
  -4   3   7 7.11325 2.27960   3
  -4   3   7 11.3288 2.35642   6
   3  -3  -7 12.6262 2.11172   4
   3  -3  -7 12.7050 2.53017   2
   3  -3  -7 13.8363 2.05145   5
   3  -3  -7 9.59043 1.56495   1
   3  -3  -7 7.65980 1.49571   6
   3  -3  -7 7.60537 2.11766   5
   3  -3  -7 14.4078 1.69314   4
   3  -3  -7 11.5172 2.36846   6
  -3   3   7 12.3991 2.04974   5
  -3   3   7 14.8581 2.17512   6
  -3   3   7 16.5802 2.56649   3
  -3   3   7 7.28270 1.97450   6
  -3   3   7 9.04793 1.96086   5
  -3   3   7 11.8061 1.51508   1
   2  -3  -7 88.6024 4.13049   6
   2  -3  -7 96.7959 3.59448   4
   2  -3  -7 86.7880 4.64809   2
   2  -3  -7 84.1086 3.82038   1
   2  -3  -7 95.1971 4.84585   5
   2  -3  -7 98.8029 5.07525   6
   2  -3  -7 91.8763 4.03686   4
   2  -3  -7 95.6138 4.44253   5
  -2   3   7 94.2708 4.39201   3
  -2   3   7 98.0242 4.79399   5
  -2   3   7 98.8886 4.56123   6
  -2   3   7 83.9334 4.53873   5
  -2   3   7 94.1768 4.96039   6
  -2   3   7 89.7643 3.84431   1
   1  -3  -7 3.15244 1.13108   4
   1  -3  -7 3.15265 1.44660   6
   1  -3  -7 1.22323 1.71862   6
   1  -3  -7 4.09864 1.86768   2
   1  -3  -7 3.14493 1.71644   5
   1  -3  -7 2.70783 0.82254   4
   1  -3  -7 4.48368 1.51049   1
   1  -3  -7 5.12023 1.71870   5
  -1   3   7 3.81640 1.88054   5
  -1   3   7 3.08358 1.58847   6
  -1   3   7 3.23520 1.63437   6
  -1   3   7 3.09536 1.59187   3
  -1   3   7 5.24163 1.47469   1
  -1   3   7 3.47814 1.59879   5
   0  -3  -7 465.179 15.8652   1
   0  -3  -7 523.703 15.3972   6
   0  -3  -7 536.716 15.8213   5
   0  -3  -7 516.546 14.3103   4
   0  -3  -7 519.223 15.7702   2
   0  -3  -7 531.265 15.5891   5
   0  -3  -7 527.175 14.5022   4
   0  -3  -7 544.970 16.0764   6
   0   3   7 540.164 15.4638   1
   0   3   7 529.482 14.9117   3
   0   3   7 527.662 15.8063   5
   0   3   7 536.897 16.0917   6
   0   3   7 536.758 15.8034   5
   0   3   7 521.008 15.6154   6
  -1  -3  -7 56.9301 4.12416   5
  -1  -3  -7 61.0809 3.77227   2
  -1  -3  -7 64.3629 3.65250   5
  -1  -3  -7 64.0815 3.33721   6
  -1  -3  -7 55.8601 3.85634   1
  -1  -3  -7 69.2726 4.24757   6
   1   3   7 53.6239 4.23807   6
   1   3   7 63.5931 4.00052   5
   1   3   7 60.7332 2.80920   3
   1   3   7 58.5473 3.81267   1
   1   3   7 62.1444 4.01373   5
  -2  -3  -7 32.8632 3.08889   2
  -2  -3  -7 29.9334 2.72685   6
  -2  -3  -7 27.6789 2.92578   5
  -2  -3  -7 31.6901 2.86813   5
   2   3   7 22.2700 2.49389   5
   2   3   7 26.5142 2.69315   1
   2   3   7 27.7501 2.85338   6
   2   3   7 32.5583 3.44888   6
   2   3   7 31.1337 3.20338   5
  -3  -3  -7 12.0259 2.27751   5
  -3  -3  -7 10.8689 1.92459   5
  -3  -3  -7 12.7738 2.44395   6
  -3  -3  -7 11.3422 2.36931   2
  -3  -3  -7 7.62154 2.73729   6
   3   3   7 13.9492 2.28940   5
   3   3   7 12.6199 2.25483   5
   3   3   7 8.14352 2.14566   6
   3   3   7 15.6009 2.47107   6
  -4  -3  -7 9.66257 1.82562   6
  -4  -3  -7 12.3862 2.76581   2
  -4  -3  -7 13.5617 1.97313   5
  -4  -3  -7 13.3450 2.44379   6
  -4  -3  -7 18.5793 2.36694   5
   4   3   7 10.7100 2.49215   6
   4   3   7 14.0015 2.93417   5
   4   3   7 17.2215 2.72947   5
   4   3   7 14.8357 2.75473   6
   4   3   7 12.7728 3.20646   1
  -5  -3  -7 2.36062 1.76610   6
  -5  -3  -7 4.04539 2.29845   6
  -5  -3  -7 0.22362 2.56150   2
   5   3   7 4.61154 2.61284   5
   5   3   7 1.44726 2.56289   5
   5   3   7 0.29658 3.61669   1
   5   3   7 2.38270 3.14396   6
  -6  -3  -7 17.2357 2.03984   6
  -6  -3  -7 13.6339 3.64746   2
  -6  -3  -7 17.5693 1.83478   6
   6   3   7 19.1922 3.67105   5
   6   3   7 16.2671 4.82839   1
   6   3   7 18.1357 3.46398   5
   8  -4  -7 20.6294 3.81865   2
   8  -4  -7 31.5701 4.98876   4
   8  -4  -7 15.6342 3.58084   5
  -8   4   7 20.3283 4.22007   3
  -8   4   7 13.6214 3.29573   6
   7  -4  -7 20.7894 3.09411   6
   7  -4  -7 28.4376 4.02637   4
   7  -4  -7 28.5089 4.22132   5
   7  -4  -7 24.1864 3.80868   2
   7  -4  -7 26.7790 3.57152   5
  -7   4   7 20.9648 3.64199   3
  -7   4   7 27.6677 2.77609   5
  -7   4   7 25.8196 3.46340   6
   6  -4  -7 17.8565 4.20317   4
   6  -4  -7 17.1476 3.15007   5
   6  -4  -7 13.8137 2.74852   5
   6  -4  -7 14.1125 2.26428   6
   6  -4  -7 15.0686 1.27232   1
   6  -4  -7 14.6889 3.10034   2
   6  -4  -7 20.7187 3.89199   6
  -6   4   7 17.0806 2.62559   5
  -6   4   7 16.9000 2.98261   5
  -6   4   7 14.3854 2.85817   6
  -6   4   7 9.94331 2.94282   3
   5  -4  -7 12.6983 3.00920   4
   5  -4  -7 12.2098 2.69248   5
   5  -4  -7 14.5032 3.04306   5
   5  -4  -7 12.7002 2.20815   6
   5  -4  -7 12.5028 3.13484   6
   5  -4  -7 13.5411 2.91657   2
   5  -4  -7 12.5096 1.35748   1
  -5   4   7 13.9964 1.47494   1
  -5   4   7 9.65323 2.43440   6
  -5   4   7 13.0181 2.93029   3
  -5   4   7 14.1026 2.36485   5
  -5   4   7 11.6907 2.73523   6
  -5   4   7 15.2329 2.80257   5
   4  -4  -7 0.14493 1.21998   1
   4  -4  -7 0.39675 2.19862   4
   4  -4  -7 1.15536 2.17535   2
   4  -4  -7 0.92624 1.78723   5
   4  -4  -7 -2.3565 2.35134   5
   4  -4  -7 -3.1197 1.99170   6
   4  -4  -7 1.63965 1.74236   6
  -4   4   7 -0.0211 1.98938   5
  -4   4   7 0.05913 1.98519   6
  -4   4   7 1.69381 1.24368   1
  -4   4   7 -1.4654 2.27724   3
  -4   4   7 3.11383 2.32923   5
  -4   4   7 0.72870 1.87396   6
   3  -4  -7 32.8690 3.23868   5
   3  -4  -7 31.5587 3.25666   6
   3  -4  -7 25.1680 3.99970   4
   3  -4  -7 31.3303 2.63697   1
   3  -4  -7 36.9158 3.70723   5
   3  -4  -7 28.9739 3.12244   2
   3  -4  -7 41.9317 4.50460   6
  -3   4   7 40.9503 3.96096   5
  -3   4   7 37.9903 2.61671   1
  -3   4   7 42.3677 4.23872   5
  -3   4   7 41.9054 3.73699   6
  -3   4   7 34.8900 3.67052   3
  -3   4   7 40.0973 4.04728   6
   2  -4  -7 6.08050 2.01660   5
   2  -4  -7 8.03653 2.25318   2
   2  -4  -7 5.51703 2.02343   6
   2  -4  -7 5.86717 1.59470   6
   2  -4  -7 3.98023 1.53294   4
   2  -4  -7 6.06249 1.53849   1
   2  -4  -7 8.53978 2.40001   5
   2  -4  -7 4.81078 1.25335   4
  -2   4   7 4.59877 1.82970   5
  -2   4   7 4.30067 2.15400   6
  -2   4   7 3.25999 1.93274   5
  -2   4   7 5.57871 1.85186   3
  -2   4   7 6.13677 1.93600   6
  -2   4   7 6.99536 1.48938   1
   1  -4  -7 84.4292 3.53067   4
   1  -4  -7 79.1896 5.09293   6
   1  -4  -7 85.5026 3.14876   4
   1  -4  -7 80.2901 4.02549   1
   1  -4  -7 83.7658 4.51966   5
   1  -4  -7 89.8374 5.03148   5
   1  -4  -7 93.9939 4.30056   6
   1  -4  -7 83.7976 4.66500   2
  -1   4   7 84.1149 4.23959   3
  -1   4   7 87.7646 4.90415   5
  -1   4   7 86.4655 4.83739   6
  -1   4   7 82.0628 4.90440   5
  -1   4   7 80.6082 4.03280   1
  -1   4   7 86.4441 5.07396   6
   0  -4  -7 65.1237 4.16836   2
   0  -4  -7 73.8003 4.72459   6
   0  -4  -7 66.4654 3.74151   6
   0  -4  -7 69.4636 2.48161   4
   0  -4  -7 68.2556 2.30949   4
   0  -4  -7 64.9426 4.74734   5
   0  -4  -7 71.8481 4.17430   5
   0   4   7 76.1926 4.00880   1
   0   4   7 69.7344 4.49226   6
   0   4   7 65.2658 4.71654   6
   0   4   7 62.4148 5.23687   3
   0   4   7 72.7214 4.74415   5
   0   4   7 70.3811 4.56908   5
  -1  -4  -7 20.3901 2.15846   6
  -1  -4  -7 18.6125 2.36878   5
  -1  -4  -7 19.7913 2.73968   5
  -1  -4  -7 14.6647 2.22451   6
  -1  -4  -7 20.6540 2.78149   2
   1   4   7 21.9226 2.85590   5
   1   4   7 20.8050 2.14535   3
   1   4   7 17.9996 2.51982   6
   1   4   7 17.7165 2.39521   1
   1   4   7 19.5057 2.72887   5
   1   4   7 13.5470 2.38488   6
  -2  -4  -7 42.7078 3.48221   5
  -2  -4  -7 34.1125 3.62399   2
  -2  -4  -7 41.6519 3.22535   6
  -2  -4  -7 44.3706 3.42969   5
   2   4   7 37.9428 3.32936   5
   2   4   7 35.8796 2.90550   3
   2   4   7 41.4033 3.53368   5
   2   4   7 39.5823 4.24850   6
   2   4   7 43.0248 4.24035   1
  -3  -4  -7 8.68378 1.86725   6
  -3  -4  -7 6.41160 2.43128   2
  -3  -4  -7 5.19379 1.84381   5
  -3  -4  -7 7.72407 2.57781   5
  -3  -4  -7 3.73396 2.38134   6
   3   4   7 6.52288 2.76414   1
   3   4   7 5.47357 2.54006   6
   3   4   7 6.59029 2.32730   5
   3   4   7 5.66562 2.45016   6
   3   4   7 5.64461 2.35406   5
  -4  -4  -7 14.5788 3.01043   2
  -4  -4  -7 17.2175 2.18384   5
  -4  -4  -7 10.5449 2.54823   5
  -4  -4  -7 16.8033 2.86787   6
  -4  -4  -7 13.9796 2.10048   6
   4   4   7 11.6984 3.01302   6
   4   4   7 17.6295 2.99985   5
   4   4   7 11.8967 3.66285   1
   4   4   7 9.89951 3.02934   6
   4   4   7 12.5089 2.91851   5
  -5  -4  -7 133.168 6.15744   6
  -5  -4  -7 114.158 6.60946   2
  -5  -4  -7 119.857 5.23913   6
   5   4   7 115.728 8.45953   1
   5   4   7 136.941 7.20731   5
   5   4   7 116.477 8.09682   6
   5   4   7 125.650 6.94157   5
  -6  -4  -7 -1.0812 1.96818   6
  -6  -4  -7 -1.6266 3.55143   2
  -6  -4  -7 -0.6395 1.78501   6
   6   4   7 2.44665 5.36909   1
   6   4   7 -0.4743 3.55081   5
   8  -5  -7 6.26149 4.03513   5
   8  -5  -7 13.0068 4.94882   4
   8  -5  -7 3.84817 3.64885   2
  -8   5   7 3.86926 3.77447   6
  -8   5   7 4.17621 2.81889   5
  -8   5   7 5.85494 3.75812   3
   7  -5  -7 3.12804 3.13080   6
   7  -5  -7 0.31518 4.38876   5
   7  -5  -7 -3.0785 3.18686   5
   7  -5  -7 -0.0986 2.83573   2
  -7   5   7 4.23602 3.38170   5
  -7   5   7 -1.7159 3.16717   6
  -7   5   7 3.15685 3.30341   3
   6  -5  -7 118.686 6.17492   6
   6  -5  -7 104.794 6.32788   2
   6  -5  -7 123.216 6.64349   5
   6  -5  -7 120.813 8.42674   4
   6  -5  -7 123.191 7.73420   5
   6  -5  -7 106.178 8.08168   6
  -6   5   7 115.406 7.05817   6
  -6   5   7 116.589 6.68522   3
  -6   5   7 129.679 6.49365   5
   5  -5  -7 20.7347 2.81146   5
   5  -5  -7 26.6649 2.89704   6
   5  -5  -7 27.9317 3.98266   4
   5  -5  -7 17.7450 3.30986   6
   5  -5  -7 24.7973 3.43761   2
   5  -5  -7 29.0868 3.89430   5
  -5   5   7 25.2497 3.13165   5
  -5   5   7 29.0508 3.69782   6
  -5   5   7 18.9579 3.46608   5
  -5   5   7 19.4810 3.28783   3
   4  -5  -7 10.6523 2.99322   6
   4  -5  -7 8.54278 2.46949   5
   4  -5  -7 5.99916 2.53255   5
   4  -5  -7 9.99965 2.75476   2
   4  -5  -7 9.20519 2.67946   4
   4  -5  -7 7.59057 1.87906   6
  -4   5   7 12.6332 4.35151   6
  -4   5   7 5.69179 3.03452   5
  -4   5   7 7.18238 2.53637   3
  -4   5   7 3.96866 2.61154   6
  -4   5   7 9.93042 1.37388   1
   3  -5  -7 22.6995 2.68622   4
   3  -5  -7 18.3061 3.16578   6
   3  -5  -7 17.6940 2.10157   6
   3  -5  -7 15.0823 2.89996   5
   3  -5  -7 18.7437 2.79187   5
   3  -5  -7 17.2057 2.95625   2
  -3   5   7 17.5919 2.76473   6
  -3   5   7 13.1077 2.69458   5
  -3   5   7 19.2024 3.26497   5
  -3   5   7 17.8830 1.80758   1
  -3   5   7 13.7888 2.77078   6
  -3   5   7 18.1316 2.83573   3
   2  -5  -7 4.77650 2.15864   5
   2  -5  -7 6.77591 1.79226   4
   2  -5  -7 3.73302 1.72297   6
   2  -5  -7 4.71620 2.33118   2
   2  -5  -7 6.76661 2.85688   6
   2  -5  -7 7.20902 2.93005   5
  -2   5   7 7.18375 2.33031   6
  -2   5   7 11.5746 2.80165   5
  -2   5   7 7.17881 1.65726   1
  -2   5   7 5.71156 2.67185   5
  -2   5   7 3.64047 2.23203   6
  -2   5   7 9.84899 2.31389   3
   1  -5  -7 73.2560 5.50132   5
   1  -5  -7 82.5088 5.46877   6
   1  -5  -7 76.5103 4.37883   6
   1  -5  -7 73.2691 3.06496   4
   1  -5  -7 58.2367 4.29098   2
   1  -5  -7 70.4420 3.31035   4
   1  -5  -7 75.1304 4.75566   5
  -1   5   7 76.0013 4.10656   1
  -1   5   7 81.9025 5.45883   6
  -1   5   7 82.8718 5.71489   5
  -1   5   7 77.6624 5.18162   6
  -1   5   7 78.8982 4.45525   3
  -1   5   7 83.8088 5.29093   5
   0  -5  -7 -1.3277 2.06436   5
   0  -5  -7 1.43765 1.96445   2
   0  -5  -7 0.28225 2.19878   6
   0  -5  -7 0.85654 0.68950   4
   0  -5  -7 -0.1451 0.63341   4
   0  -5  -7 0.46258 1.81980   6
   0  -5  -7 2.97679 2.41564   5
   0   5   7 -3.3034 1.88764   1
   0   5   7 -1.4258 2.01226   5
   0   5   7 2.10855 2.07009   6
   0   5   7 -1.2379 2.35159   5
   0   5   7 3.94430 2.28983   6
   0   5   7 1.60042 2.11832   3
  -1  -5  -7 240.311 9.10240   6
  -1  -5  -7 224.758 8.81260   2
  -1  -5  -7 234.616 9.07393   5
  -1  -5  -7 231.496 8.21427   6
  -1  -5  -7 246.703 8.50383   5
   1   5   7 232.118 7.83452   3
   1   5   7 245.597 9.29609   5
   1   5   7 243.634 9.51101   6
   1   5   7 242.349 9.13703   6
   1   5   7 236.819 8.61062   1
   1   5   7 231.175 9.06880   5
  -2  -5  -7 47.6800 4.01216   5
  -2  -5  -7 48.2573 5.18444   5
  -2  -5  -7 48.1115 4.29582   2
  -2  -5  -7 51.5394 3.90009   6
   2   5   7 52.6568 3.86649   3
   2   5   7 46.2329 5.06652   6
   2   5   7 48.9432 5.15292   5
   2   5   7 38.1292 3.92288   6
   2   5   7 50.1554 4.95131   1
   2   5   7 41.0470 5.28842   5
  -3  -5  -7 8.82820 3.08338   5
  -3  -5  -7 11.3354 2.22588   6
  -3  -5  -7 14.2926 2.48667   5
  -3  -5  -7 11.3235 2.94237   6
  -3  -5  -7 10.6151 2.88523   2
   3   5   7 6.12674 2.80744   6
   3   5   7 8.26946 3.47054   6
   3   5   7 15.3077 3.11047   5
   3   5   7 9.80478 2.92288   5
   3   5   7 8.80163 3.28460   1
  -4  -5  -7 0.05882 3.39173   5
  -4  -5  -7 2.46751 2.79520   2
  -4  -5  -7 -4.5609 2.81193   6
  -4  -5  -7 1.02974 2.08361   6
   4   5   7 -1.6230 3.50055   5
   4   5   7 8.81778 3.94341   6
   4   5   7 -1.1942 3.09860   5
   4   5   7 1.38956 3.70281   1
  -5  -5  -7 5.35495 2.25073   6
  -5  -5  -7 7.95715 3.08080   6
  -5  -5  -7 7.47754 3.37190   2
   5   5   7 4.61138 5.02032   1
   5   5   7 6.93395 3.66113   5
   7  -6  -7 10.1792 4.11204   5
   7  -6  -7 7.29644 3.33869   2
  -7   6   7 13.9848 4.63639   3
  -7   6   7 13.3691 4.14430   6
   6  -6  -7 33.6635 5.42569   5
   6  -6  -7 34.9525 3.87707   6
   6  -6  -7 26.2309 4.06497   5
   6  -6  -7 26.7547 3.75713   2
  -6   6   7 28.4659 3.91859   5
  -6   6   7 29.6210 4.43248   6
  -6   6   7 24.4802 3.92240   3
   5  -6  -7 14.8243 3.27733   5
   5  -6  -7 10.7275 4.09762   6
   5  -6  -7 10.9628 3.80039   5
   5  -6  -7 10.8331 2.96608   2
   5  -6  -7 12.7381 2.83585   6
   5  -6  -7 14.2064 3.91832   4
  -5   6   7 13.6816 3.29713   3
  -5   6   7 13.6466 3.41589   6
  -5   6   7 11.7520 3.86107   5
   4  -6  -7 3.12966 3.17084   5
   4  -6  -7 -3.6644 2.57557   5
   4  -6  -7 -0.6072 2.19230   6
   4  -6  -7 3.14883 2.78086   4
   4  -6  -7 0.47834 3.25649   6
   4  -6  -7 -1.3360 2.22388   2
  -4   6   7 1.42417 3.04827   5
  -4   6   7 0.87581 1.14909   1
  -4   6   7 -4.6467 3.35528   5
  -4   6   7 -0.5200 2.42029   3
  -4   6   7 -1.1869 3.10888   6
   3  -6  -7 2.00798 2.46061   2
   3  -6  -7 -0.6580 2.64506   5
   3  -6  -7 6.97673 3.34093   5
   3  -6  -7 -0.6043 2.18587   4
   3  -6  -7 0.19023 2.78151   6
   3  -6  -7 -0.3711 2.20799   6
  -3   6   7 0.36738 1.52862   1
  -3   6   7 -4.6617 2.95756   5
  -3   6   7 4.52843 2.65711   3
  -3   6   7 4.59654 2.97617   5
  -3   6   7 3.01435 2.83717   6
   2  -6  -7 7.46856 3.30810   6
   2  -6  -7 0.15561 2.18106   2
   2  -6  -7 3.49693 2.35627   6
   2  -6  -7 0.61828 3.27494   5
   2  -6  -7 4.02788 2.60270   5
   2  -6  -7 3.05565 1.85541   4
  -2   6   7 2.81929 2.84950   6
  -2   6   7 3.76476 1.82101   1
  -2   6   7 3.63681 3.11412   5
  -2   6   7 -0.1920 3.29457   5
  -2   6   7 4.28062 2.53594   3
  -2   6   7 0.00822 2.89174   6
   1  -6  -7 1.52274 1.38162   4
   1  -6  -7 2.45099 3.28340   5
   1  -6  -7 0.84091 2.31738   5
   1  -6  -7 1.77532 2.20589   2
   1  -6  -7 0.37572 2.65666   6
   1  -6  -7 1.93681 2.13437   6
  -1   6   7 4.94356 3.03347   5
  -1   6   7 3.18216 2.98647   6
  -1   6   7 5.35445 3.45255   5
  -1   6   7 1.40599 3.24437   6
  -1   6   7 5.37228 2.49988   3
  -1   6   7 4.48178 2.01217   1
   0  -6  -7 105.245 5.86948   5
   0  -6  -7 100.384 6.69857   5
   0  -6  -7 92.6770 5.37284   6
   0  -6  -7 94.1741 2.98975   4
   0  -6  -7 95.2132 6.38337   6
   0  -6  -7 87.8627 5.35659   2
   0  -6  -7 90.5151 2.98360   4
   0   6   7 96.7822 6.68887   6
   0   6   7 93.7671 6.54189   6
   0   6   7 82.8933 5.11239   3
   0   6   7 98.9740 5.28758   1
   0   6   7 100.513 6.74109   5
   0   6   7 95.7381 6.38351   5
  -1  -6  -7 23.0717 3.12027   2
  -1  -6  -7 27.9982 2.88087   6
  -1  -6  -7 24.7016 3.11604   5
  -1  -6  -7 30.0361 3.92317   6
  -1  -6  -7 37.8154 4.39656   5
   1   6   7 30.0013 4.00425   5
   1   6   7 34.8806 4.10642   5
   1   6   7 31.2163 4.28194   6
   1   6   7 35.3787 4.10006   6
   1   6   7 31.4431 3.07036   3
  -2  -6  -7 10.5179 2.82798   2
  -2  -6  -7 8.69721 3.53728   5
  -2  -6  -7 11.4144 2.76601   5
  -2  -6  -7 9.83547 2.56380   6
   2   6   7 13.3608 3.51032   1
   2   6   7 12.1950 4.00401   6
   2   6   7 15.8380 3.82277   5
   2   6   7 9.61884 3.34082   6
   2   6   7 12.4606 3.52687   5
   2   6   7 9.78289 2.78186   3
  -3  -6  -7 27.1027 3.99933   6
  -3  -6  -7 29.9408 3.99326   2
  -3  -6  -7 25.0805 2.98398   6
  -3  -6  -7 40.3418 3.59512   5
   3   6   7 31.2133 4.73149   6
   3   6   7 49.8668 5.06131   5
   3   6   7 30.6571 4.18653   5
   3   6   7 31.0721 4.59106   1
  -4  -6  -7 15.3939 3.69143   6
  -4  -6  -7 3.44902 3.15351   2
  -4  -6  -7 8.45192 2.68512   6
  -4  -6  -7 13.2034 3.10478   5
   4   6   7 16.7475 4.77139   1
   4   6   7 14.5119 4.12833   5
  -5  -6  -7 5.24509 3.61192   2
   7  -7  -7 10.2550 3.89685   2
   7  -7  -7 8.84006 5.02171   5
  -7   7   7 4.30877 4.21806   3
  -7   7   7 0.04269 5.84437   6
   6  -7  -7 3.34761 3.59420   5
   6  -7  -7 -1.6102 3.18125   2
  -6   7   7 -3.2759 3.12151   3
  -6   7   7 0.19942 4.18513   6
   5  -7  -7 99.3710 7.39938   5
   5  -7  -7 92.6011 6.47588   6
   5  -7  -7 85.7961 9.02654   6
   5  -7  -7 99.0996 7.44429   5
   5  -7  -7 79.7326 5.94878   2
   5  -7  -7 97.6666 8.09186   4
  -5   7   7 92.9056 8.21880   6
  -5   7   7 105.197 7.30602   5
  -5   7   7 89.5346 6.42890   3
   4  -7  -7 26.2474 5.34520   5
   4  -7  -7 18.6866 3.33044   6
   4  -7  -7 21.3942 3.67157   4
   4  -7  -7 16.9510 4.16525   6
   4  -7  -7 13.8410 4.15733   5
   4  -7  -7 18.0997 3.47876   2
  -4   7   7 10.6521 3.99727   6
  -4   7   7 23.2878 4.26691   5
  -4   7   7 19.0522 1.37052   1
  -4   7   7 15.5070 5.01172   5
  -4   7   7 18.0756 1.36064   1
  -4   7   7 9.68053 3.16689   3
   3  -7  -7 2.59250 3.32234   5
   3  -7  -7 2.01465 2.64128   2
   3  -7  -7 4.93365 4.17323   5
   3  -7  -7 2.09465 3.05291   6
   3  -7  -7 5.84627 2.60795   4
   3  -7  -7 3.43795 3.96381   6
  -3   7   7 0.04147 3.75156   5
  -3   7   7 6.67576 4.51252   5
  -3   7   7 6.09942 2.80135   3
  -3   7   7 5.31977 3.75988   6
  -3   7   7 3.82343 1.87928   1
  -3   7   7 5.89425 1.82143   1
   2  -7  -7 13.2085 3.03446   6
   2  -7  -7 12.8261 2.93976   2
   2  -7  -7 13.8843 4.06003   5
   2  -7  -7 13.3532 3.51713   5
   2  -7  -7 13.9440 3.92415   6
  -2   7   7 14.3263 4.08647   5
  -2   7   7 17.2059 3.39224   3
  -2   7   7 11.1267 3.89189   6
  -2   7   7 13.0143 2.38420   1
  -2   7   7 17.9913 4.42320   5
   1  -7  -7 0.48927 1.53054   4
   1  -7  -7 1.40194 2.64504   2
   1  -7  -7 -1.1031 2.62983   5
   1  -7  -7 -2.8545 2.78938   6
   1  -7  -7 -0.1949 2.58931   6
   1  -7  -7 1.90739 3.61047   5
  -1   7   7 1.75601 2.55752   1
  -1   7   7 4.16895 3.40768   5
  -1   7   7 2.16400 3.76814   5
  -1   7   7 -1.5965 3.04106   6
  -1   7   7 0.94646 2.69759   3
   0  -7  -7 43.0584 5.10199   5
   0  -7  -7 40.4204 1.91138   4
   0  -7  -7 36.8041 4.05119   2
   0  -7  -7 48.3984 5.14953   6
   0  -7  -7 38.9555 1.91014   4
   0  -7  -7 41.9183 4.02606   5
   0  -7  -7 31.5848 3.42025   6
   0   7   7 35.0468 4.36324   6
   0   7   7 36.4749 3.66420   3
   0   7   7 42.5008 4.88373   5
   0   7   7 54.2648 5.11145   5
   0   7   7 39.1568 3.78052   1
  -1  -7  -7 0.77070 2.57453   2
  -1  -7  -7 1.35073 2.66722   6
  -1  -7  -7 4.03497 3.39511   6
  -1  -7  -7 1.34765 2.62882   5
  -1  -7  -7 -3.0323 3.96140   5
   1   7   7 7.39483 3.92279   5
   1   7   7 10.1278 3.46339   1
   1   7   7 2.59286 4.77237   5
   1   7   7 3.00963 2.70428   3
   1   7   7 2.40617 3.90026   6
  -2  -7  -7 86.1399 6.04635   5
  -2  -7  -7 81.5193 5.97891   2
  -2  -7  -7 95.7991 5.76440   6
   2   7   7 82.6588 7.44743   1
   2   7   7 95.4955 9.29874   5
   2   7   7 85.1425 5.76867   3
   2   7   7 91.9136 8.35222   6
   2   7   7 80.9174 7.95952   5
  -3  -7  -7 18.2432 4.35498   2
  -3  -7  -7 34.2432 3.59421   6
   3   7   7 27.6246 5.23878   3
   3   7   7 27.1453 5.30791   1
   3   7   7 26.0131 5.11496   5
  -4  -7  -7 2.25244 3.43986   2
   4   7   7 7.34861 5.95302   1
   4   7   7 3.88878 4.99716   5
   6  -8  -7 5.47814 4.30231   2
   6  -8  -7 1.37037 4.70510   5
  -6   8   7 1.20833 4.02934   3
  -6   8   7 7.18197 5.58861   6
   5  -8  -7 19.8229 4.71334   6
   5  -8  -7 20.3330 3.83761   2
   5  -8  -7 26.7401 4.94091   5
  -5   8   7 23.6058 5.53540   6
  -5   8   7 16.3956 4.04599   3
   4  -8  -7 10.9924 3.40715   2
   4  -8  -7 10.3837 6.37482   5
   4  -8  -7 12.7257 5.65438   6
   4  -8  -7 9.62418 4.04241   5
   4  -8  -7 8.16211 3.82067   6
   4  -8  -7 3.52295 4.27256   4
  -4   8   7 7.29487 3.55902   3
  -4   8   7 14.7832 4.97679   5
  -4   8   7 10.3942 5.27660   6
   3  -8  -7 4.59919 3.64788   5
   3  -8  -7 6.68588 3.72398   6
   3  -8  -7 3.98081 2.94038   2
   3  -8  -7 1.24928 5.63782   5
   3  -8  -7 10.1478 4.99659   6
   3  -8  -7 8.51403 3.32952   4
  -3   8   7 4.36323 4.46891   5
  -3   8   7 3.39597 2.11311   1
  -3   8   7 4.25654 2.18217   1
  -3   8   7 7.12186 3.18305   3
  -3   8   7 3.81244 4.92348   6
  -3   8   7 7.84070 5.89553   5
   2  -8  -7 -0.7192 2.48833   4
   2  -8  -7 -0.5285 3.30869   6
   2  -8  -7 5.97269 3.08121   2
   2  -8  -7 0.48950 3.48007   5
   2  -8  -7 10.3916 4.57064   6
   2  -8  -7 17.7254 5.70167   5
  -2   8   7 0.59384 2.59736   1
  -2   8   7 13.0702 4.92862   6
  -2   8   7 7.29400 2.65271   1
  -2   8   7 2.74949 5.47143   5
  -2   8   7 5.82357 4.81421   5
  -2   8   7 -0.6081 2.95270   3
   1  -8  -7 2.09846 3.82800   6
   1  -8  -7 -0.7885 1.88107   4
   1  -8  -7 -1.8945 3.77376   5
   1  -8  -7 2.12215 2.86381   2
   1  -8  -7 -1.5818 3.39211   6
   1  -8  -7 -7.3640 5.53579   5
  -1   8   7 1.52144 4.73586   5
  -1   8   7 0.63549 3.20694   3
  -1   8   7 0.64340 5.47630   5
  -1   8   7 -3.4083 4.44798   6
  -1   8   7 -3.4284 3.16518   1
  -1   8   7 3.96185 3.38264   1
   0  -8  -7 2.47195 2.90489   2
   0  -8  -7 3.27760 3.40895   6
   0  -8  -7 7.57189 3.57334   5
   0  -8  -7 3.18456 4.85883   6
   0   8   7 0.42480 3.62923   1
   0   8   7 3.71593 4.51582   5
   0   8   7 0.95261 5.24295   5
   0   8   7 -2.5472 2.96742   3
   0   8   7 7.41744 4.80635   6
   0   8   7 7.53779 3.86777   1
  -1  -8  -7 63.3222 5.69007   2
  -1  -8  -7 61.1936 6.67234   6
   1   8   7 60.7163 6.12981   6
   1   8   7 69.3116 5.64362   1
   1   8   7 64.2560 7.38415   5
   1   8   7 82.3837 7.01497   5
   1   8   7 63.5422 5.59183   3
   1   8   7 51.8563 5.93925   1
  -2  -8  -7 8.20754 3.41004   2
  -2  -8  -7 15.5583 3.72696   6
   2   8   7 8.90348 5.04193   1
   2   8   7 9.17424 3.76944   3
   2   8   7 15.6516 5.77203   5
   4  -9  -7 46.8480 8.30951   6
   4  -9  -7 38.4639 5.53164   4
   4  -9  -7 45.7696 5.75809   5
   4  -9  -7 32.6997 5.06226   2
   4  -9  -7 63.5638 6.51146   6
  -4   9   7 54.6271 7.34357   6
   3  -9  -7 23.1171 6.47259   6
   3  -9  -7 10.6160 5.15364   5
   3  -9  -7 19.9172 4.30942   4
   3  -9  -7 10.2310 7.28159   6
   3  -9  -7 17.4247 8.57497   5
  -3   9   7 20.0265 6.17698   6
  -3   9   7 13.3293 3.98118   3
  -3   9   7 16.8584 6.28204   5
   2  -9  -7 -0.7245 4.43050   6
   2  -9  -7 6.12609 7.32640   5
   2  -9  -7 0.43849 4.75355   5
  -2   9   7 10.9648 7.75880   5
  -2   9   7 0.42648 3.38285   3
  -2   9   7 2.63444 5.45423   6
  -2   9   7 -4.8261 3.07720   1
  -2   9   7 -3.0349 5.61767   5
   1  -9  -7 9.97119 6.05663   5
   1  -9  -7 8.56754 3.43479   2
   1  -9  -7 -1.0534 4.57212   6
  -1   9   7 4.60852 5.82635   5
  -1   9   7 9.34484 8.50175   5
  -1   9   7 4.22365 5.63658   6
  -1   9   7 -2.7751 4.51127   1
  -1   9   7 8.28287 3.67758   3
  -1   9   7 -0.7257 4.00478   1
   0  -9  -7 4.22502 3.33250   2
   0  -9  -7 -1.3201 4.47500   6
   0   9   7 1.87299 5.87001   5
   0   9   7 3.23528 3.60035   3
   0   9   7 -5.0212 9.33298   6
   0   9   7 -8.6649 5.00687   1
   0   9   7 3.35596 4.55140   1
  -1  -9  -7 17.0802 4.76039   6
  -1  -9  -7 15.4792 3.72475   2
   1   9   7 15.7101 5.71946   1
   1   9   7 17.4095 6.97285   5
   1   9   7 16.6743 4.01395   3
   2   9  -8 110.781 9.91922   4
   2   9  -8 88.6627 8.55140   5
   2   9  -8 74.6901 6.46765   3
  -2  -9   8 86.9355 7.10767   2
  -2  -9   8 80.5554 7.21149   1
   1   9  -8 13.8751 6.56031   5
   1   9  -8 8.40975 5.27301   4
   1   9  -8 2.09167 6.47689   6
   1   9  -8 11.4146 3.68904   3
  -1  -9   8 9.71773 5.35596   1
  -1  -9   8 6.47819 3.68354   2
   0   9  -8 4.92327 5.97621   5
   0   9  -8 -4.1358 5.42869   6
   0   9  -8 3.95506 7.60961   6
   0   9  -8 -9.2864 7.95526   5
   0   9  -8 3.87966 4.84633   4
   0  -9   8 3.67662 6.83035   5
   0  -9   8 9.03778 5.05592   1
  -1   9  -8 14.5441 3.98324   3
  -1   9  -8 27.4524 8.31656   5
  -1   9  -8 16.6056 5.41779   4
  -1   9  -8 8.36213 5.94423   6
  -1   9  -8 24.9487 10.0504   6
  -1   9  -8 15.1095 6.17207   5
   1  -9   8 17.1061 4.92411   1
   1  -9   8 10.9810 6.16533   5
   1  -9   8 15.6308 8.04294   5
  -2   9  -8 2.69748 5.04349   4
  -2   9  -8 4.12541 3.50516   3
  -2   9  -8 8.42788 6.21131   6
   2  -9   8 -1.0830 6.25086   6
   2  -9   8 1.35208 4.72954   1
   2  -9   8 13.7595 8.19616   5
   2  -9   8 7.28015 5.72787   5
  -3   9  -8 -1.0121 3.75571   3
  -3   9  -8 -2.8294 6.57421   6
  -3   9  -8 -11.511 7.14195   4
   3  -9   8 10.6585 6.64542   5
   3  -9   8 -6.4975 4.73027   1
   3   8  -8 18.4411 4.81014   4
   3   8  -8 12.3248 3.72816   3
   3   8  -8 13.7113 6.07990   5
  -3  -8   8 8.50531 3.75293   2
  -3  -8   8 22.2851 5.51713   1
   2   8  -8 48.9032 5.11072   4
   2   8  -8 56.2133 6.08567   6
   2   8  -8 48.3478 5.84767   5
   2   8  -8 56.6348 5.14854   3
   2   8  -8 38.0409 7.59358   6
   2   8  -8 45.8764 7.01460   5
  -2  -8   8 56.0844 5.81031   1
  -2  -8   8 52.1384 5.51196   2
   1   8  -8 7.45816 4.77123   6
   1   8  -8 14.1469 5.85626   5
   1   8  -8 12.4250 5.21401   5
   1   8  -8 10.7546 3.06800   3
   1   8  -8 20.8787 6.31938   6
   1   8  -8 15.8051 4.15746   4
  -1  -8   8 10.5298 3.99049   6
  -1  -8   8 9.95168 3.37843   2
  -1  -8   8 11.6615 4.31159   1
  -1  -8   8 21.1930 4.53777   5
   0   8  -8 25.8558 5.23977   6
   0   8  -8 21.0866 6.51981   6
   0   8  -8 20.5376 5.71372   5
   0   8  -8 21.3375 3.88209   3
   0   8  -8 19.2177 4.87524   5
   0   8  -8 23.9106 4.44897   4
   0  -8   8 29.9524 5.82829   5
   0  -8   8 29.2306 4.99535   5
   0  -8   8 20.7226 4.39305   1
   0  -8   8 27.2675 4.21204   6
  -1   8  -8 66.0515 6.49601   5
  -1   8  -8 64.8741 5.51643   3
  -1   8  -8 50.2997 5.63269   1
  -1   8  -8 65.5097 6.78597   5
  -1   8  -8 65.1025 6.48239   6
  -1   8  -8 64.0676 7.44577   6
  -1   8  -8 58.0527 5.27877   4
   1  -8   8 59.9689 4.99893   1
   1  -8   8 75.4557 7.67246   6
   1  -8   8 72.1678 7.35092   5
   1  -8   8 83.2255 6.93813   5
  -2   8  -8 34.6743 4.92571   4
  -2   8  -8 41.4893 6.68271   6
  -2   8  -8 34.7318 5.13562   1
  -2   8  -8 37.4872 5.55386   5
  -2   8  -8 39.9435 5.93366   6
  -2   8  -8 39.8994 4.40370   3
  -2   8  -8 37.3515 6.59771   5
   2  -8   8 43.6296 4.75255   1
   2  -8   8 43.6501 5.52026   6
   2  -8   8 36.8249 5.77842   5
   2  -8   8 38.9208 6.78338   5
  -3   8  -8 -0.9585 5.15242   5
  -3   8  -8 1.65290 4.35281   4
  -3   8  -8 5.82926 5.20892   6
  -3   8  -8 -6.0759 4.63850   1
  -3   8  -8 7.24297 3.38894   3
   3  -8   8 0.68974 4.16916   1
   3  -8   8 3.76670 6.34823   5
   3  -8   8 2.82373 5.29360   6
   3  -8   8 3.30778 4.93885   5
  -4   8  -8 2.96278 3.65560   3
  -4   8  -8 1.49034 5.42459   4
  -4   8  -8 -5.4470 5.03555   1
  -4   8  -8 1.70033 5.53513   6
   4  -8   8 -3.4204 4.32828   1
   4  -8   8 7.70938 5.73070   5
   5   7  -8 0.10280 5.12627   5
   5   7  -8 3.75541 4.46286   4
  -5  -7   8 2.34075 3.34192   2
  -5  -7   8 1.98029 8.26893   1
   4   7  -8 6.71523 4.04637   4
   4   7  -8 12.1078 4.91966   5
  -4  -7   8 7.32053 4.83269   1
  -4  -7   8 7.38685 3.47241   2
   3   7  -8 7.07851 3.03712   3
   3   7  -8 1.19000 5.93717   6
   3   7  -8 0.80357 4.10396   6
   3   7  -8 7.71931 4.78706   5
   3   7  -8 7.67010 3.82007   4
   3   7  -8 9.35798 4.78824   5
  -3  -7   8 -4.1532 4.29305   1
  -3  -7   8 5.73223 3.01861   2
  -3  -7   8 14.6770 3.57052   5
  -3  -7   8 7.70738 3.14416   6
   2   7  -8 3.89313 4.37258   5
   2   7  -8 3.16563 3.21369   4
   2   7  -8 -4.7280 4.85320   6
   2   7  -8 2.38317 3.78435   6
   2   7  -8 9.72001 4.87356   5
   2   7  -8 -3.0637 2.50756   3
  -2  -7   8 1.71863 3.87250   5
  -2  -7   8 5.31750 3.87286   1
  -2  -7   8 2.20962 2.67230   2
  -2  -7   8 5.57688 2.72171   6
  -2  -7   8 1.33409 3.50131   5
   1   7  -8 195.489 8.44487   4
   1   7  -8 166.071 9.08675   1
   1   7  -8 205.272 9.46897   6
   1   7  -8 173.353 7.72533   3
   1   7  -8 202.795 10.8628   6
   1   7  -8 197.281 9.80699   5
   1   7  -8 191.145 13.1554   5
  -1  -7   8 174.178 9.61985   5
  -1  -7   8 183.766 10.0380   4
  -1  -7   8 182.644 8.74866   1
  -1  -7   8 185.630 9.05911   5
  -1  -7   8 186.212 10.0758   2
  -1  -7   8 188.906 8.40900   6
   0   7  -8 13.6261 4.66241   6
   0   7  -8 6.12255 3.28696   4
   0   7  -8 9.92778 3.85092   6
   0   7  -8 9.74678 4.08729   5
   0   7  -8 10.7371 2.82655   3
   0   7  -8 6.50167 4.00482   1
   0   7  -8 8.68152 4.16857   5
   0  -7   8 12.1321 3.15700   1
   0  -7   8 9.48456 3.86295   5
   0  -7   8 -0.1399 3.12201   4
   0  -7   8 12.7667 3.40166   6
   0  -7   8 6.15489 3.70005   5
  -1   7  -8 0.11507 3.50573   1
  -1   7  -8 2.46935 2.69349   3
  -1   7  -8 5.89653 3.23161   4
  -1   7  -8 4.61609 4.52525   6
  -1   7  -8 2.31313 3.96529   6
  -1   7  -8 -0.1876 4.24552   5
  -1   7  -8 2.89899 4.14061   5
   1  -7   8 4.29858 2.74429   6
   1  -7   8 6.22714 3.16885   4
   1  -7   8 -2.5278 3.77309   5
   1  -7   8 4.41792 3.21042   1
   1  -7   8 4.19450 3.78301   5
  -2   7  -8 25.0958 4.06223   1
  -2   7  -8 29.1262 4.54622   6
  -2   7  -8 29.3317 4.66165   5
  -2   7  -8 28.4847 5.08745   5
  -2   7  -8 28.4655 4.05828   4
  -2   7  -8 32.8856 5.07562   6
  -2   7  -8 24.4405 3.52990   3
   2  -7   8 29.9414 3.84992   1
   2  -7   8 25.4970 4.45088   5
   2  -7   8 19.6575 4.57687   4
   2  -7   8 12.8127 4.10608   5
   2  -7   8 22.3357 3.42367   6
  -3   7  -8 2.89158 3.79789   1
  -3   7  -8 8.99944 3.01816   3
  -3   7  -8 8.98565 3.68031   4
  -3   7  -8 12.7105 4.82491   6
  -3   7  -8 9.63281 4.27740   5
  -3   7  -8 2.89818 4.45671   5
  -3   7  -8 10.2167 4.27071   6
   3  -7   8 12.9514 5.08826   5
   3  -7   8 9.22065 3.40127   1
   3  -7   8 13.2110 3.77362   6
   3  -7   8 16.1120 4.75166   5
  -4   7  -8 -1.5222 5.07995   5
  -4   7  -8 2.28639 4.39232   6
  -4   7  -8 -4.4797 3.98630   4
  -4   7  -8 4.28920 4.29156   1
  -4   7  -8 0.63780 5.09452   6
  -4   7  -8 2.14492 3.15668   3
   4  -7   8 3.86213 4.31875   5
   4  -7   8 -2.2282 5.40915   5
   4  -7   8 4.14725 3.68211   1
  -5   7  -8 18.1896 5.15947   6
  -5   7  -8 11.5591 5.13167   4
  -5   7  -8 20.5435 3.86618   3
  -5   7  -8 20.1370 5.38935   1
   5  -7   8 19.1898 4.44821   1
   5  -7   8 14.8456 5.47078   5
   6   6  -8 7.65089 6.05299   5
   6   6  -8 2.29462 4.40379   4
  -6  -6   8 2.21995 3.45773   2
  -6  -6   8 10.5146 5.99321   1
   5   6  -8 15.4438 4.06027   4
   5   6  -8 8.21270 4.44172   5
  -5  -6   8 -0.8124 4.31966   1
  -5  -6   8 9.45523 3.61479   2
  -5  -6   8 10.5381 3.10327   6
   4   6  -8 181.336 8.21764   4
   4   6  -8 166.887 9.35299   5
   4   6  -8 173.971 9.24779   5
   4   6  -8 189.812 9.45267   6
  -4  -6   8 186.094 9.21202   1
  -4  -6   8 175.379 8.27173   2
  -4  -6   8 196.222 8.37481   5
  -4  -6   8 183.628 7.82475   6
   3   6  -8 27.7830 4.08448   6
   3   6  -8 32.2618 4.46878   5
   3   6  -8 29.1771 3.48172   4
   3   6  -8 25.2678 4.81051   1
   3   6  -8 25.8037 4.81378   6
   3   6  -8 24.1738 4.09347   5
  -3  -6   8 35.5010 3.28002   6
  -3  -6   8 31.2281 3.96054   5
  -3  -6   8 28.7605 3.83239   4
  -3  -6   8 36.2258 4.38989   1
  -3  -6   8 28.9520 3.65431   2
  -3  -6   8 21.9157 3.28738   5
   2   6  -8 51.2854 4.90742   4
   2   6  -8 58.0013 5.63449   6
   2   6  -8 49.7958 4.81552   5
   2   6  -8 46.6747 4.74216   1
   2   6  -8 49.3533 5.21197   6
   2   6  -8 50.1962 4.64132   5
   2   6  -8 43.6159 4.20084   3
  -2  -6   8 61.3417 5.76132   1
  -2  -6   8 47.4149 3.86024   4
  -2  -6   8 51.3717 4.79911   6
  -2  -6   8 43.0413 4.47629   2
  -2  -6   8 47.0774 4.27720   5
  -2  -6   8 56.6719 5.59404   5
   1   6  -8 77.1799 5.94714   1
   1   6  -8 65.6159 6.62779   6
   1   6  -8 56.2456 4.49735   3
   1   6  -8 71.5979 5.05681   4
   1   6  -8 74.6926 6.11136   5
   1   6  -8 75.7246 5.91768   6
   1   6  -8 74.9958 6.52455   5
  -1  -6   8 66.8342 5.12309   6
  -1  -6   8 72.2608 5.18752   4
  -1  -6   8 69.8138 5.61777   1
  -1  -6   8 74.1362 6.19894   5
  -1  -6   8 74.7219 5.99088   5
   0   6  -8 40.3083 4.53823   5
   0   6  -8 33.1565 3.81244   6
   0   6  -8 32.0969 3.34817   3
   0   6  -8 34.1794 5.93427   6
   0   6  -8 24.7870 3.64885   5
   0   6  -8 39.3893 4.09692   1
   0   6  -8 31.8887 3.38564   4
   0  -6   8 28.7185 3.33480   1
   0  -6   8 28.5167 2.94584   6
   0  -6   8 25.8380 2.89294   4
   0  -6   8 29.6537 4.03523   5
   0  -6   8 34.1898 4.23654   5
  -1   6  -8 52.6702 4.79687   4
  -1   6  -8 50.4461 4.23755   3
  -1   6  -8 47.5054 4.10420   1
  -1   6  -8 50.5861 4.58258   5
  -1   6  -8 51.9315 5.59280   6
  -1   6  -8 49.9663 4.58049   5
  -1   6  -8 55.2593 5.07028   6
   1  -6   8 47.9728 4.49715   5
   1  -6   8 44.7898 4.26977   5
   1  -6   8 57.5949 4.79208   1
   1  -6   8 50.5389 4.93484   4
   1  -6   8 53.2017 4.80843   6
  -2   6  -8 70.6746 5.98245   6
  -2   6  -8 65.8694 5.26390   5
  -2   6  -8 62.4503 6.69633   6
  -2   6  -8 53.3234 4.69683   5
  -2   6  -8 53.9883 5.27927   4
  -2   6  -8 65.7526 4.73078   3
  -2   6  -8 75.2244 6.04819   1
   2  -6   8 63.3942 6.39459   5
   2  -6   8 61.6198 5.23239   1
   2  -6   8 65.0755 5.32029   6
   2  -6   8 63.4651 5.47006   4
   2  -6   8 57.5565 6.20027   5
  -3   6  -8 57.6520 5.40760   6
  -3   6  -8 66.7543 5.63785   4
  -3   6  -8 52.5093 4.73838   3
  -3   6  -8 48.7901 4.89929   6
  -3   6  -8 61.7741 5.14708   5
  -3   6  -8 57.8827 5.11273   5
  -3   6  -8 55.6652 4.48011   1
   3  -6   8 62.4756 6.50600   5
   3  -6   8 56.9303 4.52756   4
   3  -6   8 55.5008 5.31650   1
   3  -6   8 62.3937 8.85420   5
   3  -6   8 52.1972 5.45405   6
  -4   6  -8 9.55714 3.19424   3
  -4   6  -8 11.7122 3.56105   1
  -4   6  -8 7.99747 3.49607   4
  -4   6  -8 11.6052 3.70719   5
  -4   6  -8 9.18439 3.75746   6
  -4   6  -8 9.83657 4.17974   6
   4  -6   8 11.1811 4.15297   5
   4  -6   8 12.6700 3.83514   4
   4  -6   8 2.91600 3.37884   1
   4  -6   8 9.17161 3.18560   6
   4  -6   8 11.0987 4.53338   5
  -5   6  -8 0.78036 6.19912   6
  -5   6  -8 1.11132 5.14640   5
  -5   6  -8 0.93915 3.88281   6
  -5   6  -8 0.65361 3.03161   3
  -5   6  -8 2.97595 4.26638   1
  -5   6  -8 8.09974 4.35926   4
   5  -6   8 1.09457 4.35905   5
   5  -6   8 -0.6904 3.63305   1
  -6   6  -8 61.6290 6.56280   3
  -6   6  -8 51.5328 6.36110   4
  -6   6  -8 47.5728 5.98561   1
  -6   6  -8 51.7100 5.49784   6
   6  -6   8 39.5641 4.98896   1
   6  -6   8 53.1996 6.07065   5
   6   5  -8 2.70456 3.91232   5
   6   5  -8 1.85777 3.92726   4
  -6  -5   8 4.49581 2.65921   6
  -6  -5   8 0.16116 4.68320   1
  -6  -5   8 4.58204 2.54455   5
  -6  -5   8 0.27550 5.55011   2
   5   5  -8 20.0762 3.98615   6
   5   5  -8 22.4565 3.62356   5
   5   5  -8 24.4247 3.95102   4
   5   5  -8 24.0571 4.13882   5
  -5  -5   8 17.6905 3.88119   2
  -5  -5   8 14.0756 3.98581   1
  -5  -5   8 19.0626 2.80232   6
  -5  -5   8 23.5723 3.21785   5
   4   5  -8 0.76666 3.84713   6
   4   5  -8 3.85565 2.83505   6
   4   5  -8 2.59849 2.84760   5
   4   5  -8 0.51576 3.84950   1
   4   5  -8 -0.8960 2.97000   5
   4   5  -8 2.35181 2.61815   4
  -4  -5   8 -3.8707 3.02879   4
  -4  -5   8 0.55667 2.44221   6
  -4  -5   8 0.49420 2.68217   2
  -4  -5   8 -0.2057 2.53679   5
  -4  -5   8 1.03568 3.17127   1
  -4  -5   8 0.35450 2.67522   5
   3   5  -8 11.0477 2.57552   4
   3   5  -8 18.9492 3.80715   1
   3   5  -8 10.3412 3.86296   6
   3   5  -8 10.4644 3.30516   6
   3   5  -8 13.6479 3.05062   5
  -3  -5   8 14.7898 2.28674   6
  -3  -5   8 10.8292 2.86783   5
  -3  -5   8 9.33373 3.04752   1
  -3  -5   8 11.7444 2.57346   5
  -3  -5   8 13.7909 2.95989   4
  -3  -5   8 7.97412 2.66855   2
   2   5  -8 5.87566 2.94650   5
   2   5  -8 8.67682 2.21281   4
   2   5  -8 2.56855 2.67562   6
   2   5  -8 2.65862 3.21485   6
   2   5  -8 6.02739 2.50704   5
   2   5  -8 5.85523 2.99147   1
  -2  -5   8 3.06657 2.28874   5
  -2  -5   8 9.04512 2.61623   4
  -2  -5   8 8.81640 2.86919   5
  -2  -5   8 5.73057 2.59599   1
  -2  -5   8 4.05891 1.95298   6
   1   5  -8 1.30719 2.60180   6
   1   5  -8 -2.4481 2.61467   5
   1   5  -8 -2.6303 2.54067   1
   1   5  -8 -1.8249 2.40924   6
   1   5  -8 0.88960 2.34639   5
   1   5  -8 -2.2965 1.79388   3
  -1  -5   8 0.19835 2.01738   4
  -1  -5   8 0.33116 2.20792   5
  -1  -5   8 -1.1371 1.76256   6
  -1  -5   8 -0.1453 2.15275   5
  -1  -5   8 -4.7288 4.19167   1
   0   5  -8 281.148 10.3071   6
   0   5  -8 276.055 9.54622   3
   0   5  -8 278.551 9.62822   4
   0   5  -8 274.153 10.4038   5
   0   5  -8 304.602 10.5721   5
   0   5  -8 301.484 10.9769   6
   0   5  -8 266.734 9.92726   1
   0  -5   8 288.054 9.84472   6
   0  -5   8 283.581 9.91360   1
   0  -5   8 296.520 10.5081   5
   0  -5   8 301.819 10.5330   5
   0  -5   8 301.017 9.59206   4
  -1   5  -8 10.8382 2.48078   6
  -1   5  -8 11.2395 2.99194   5
  -1   5  -8 11.1864 2.97994   1
  -1   5  -8 11.7606 2.30471   3
  -1   5  -8 10.3936 2.47127   4
  -1   5  -8 11.1567 3.16920   6
  -1   5  -8 4.88475 2.77952   5
   1  -5   8 10.0946 2.80168   5
   1  -5   8 8.28837 2.39506   5
   1  -5   8 11.3808 2.46468   6
   1  -5   8 9.88374 2.23349   4
   1  -5   8 7.08005 2.39759   1
  -2   5  -8 6.22974 2.69706   5
  -2   5  -8 7.88893 2.37032   4
  -2   5  -8 6.77730 2.48248   6
  -2   5  -8 4.60427 2.86721   1
  -2   5  -8 8.02653 2.30690   3
  -2   5  -8 5.82759 2.82414   6
  -2   5  -8 9.58339 1.79089   2
  -2   5  -8 7.08790 2.75457   5
   2  -5   8 5.64009 2.44476   6
   2  -5   8 3.92272 2.74500   5
   2  -5   8 5.13569 2.25413   4
   2  -5   8 5.66159 2.40228   1
   2  -5   8 5.66523 2.63799   5
  -3   5  -8 29.2682 3.09138   3
  -3   5  -8 23.7132 3.25983   5
  -3   5  -8 20.4960 3.61497   5
  -3   5  -8 23.5306 3.23702   4
  -3   5  -8 20.6645 3.22493   1
  -3   5  -8 20.6211 3.57167   6
  -3   5  -8 25.5208 3.23582   6
   3  -5   8 19.9343 2.94862   4
   3  -5   8 17.4903 3.09059   5
   3  -5   8 21.2684 2.89233   6
   3  -5   8 17.5718 3.51310   5
  -4   5  -8 30.4898 3.91271   6
  -4   5  -8 31.9430 3.46939   3
  -4   5  -8 27.9576 4.00286   5
  -4   5  -8 26.3418 3.42178   5
  -4   5  -8 28.5589 3.88709   1
  -4   5  -8 23.2938 3.37981   4
   4  -5   8 21.5510 3.25624   4
   4  -5   8 21.2416 3.64908   5
   4  -5   8 22.7325 3.60558   5
   4  -5   8 23.2850 3.37686   1
   4  -5   8 31.3058 3.71415   6
  -5   5  -8 4.61184 3.40624   6
  -5   5  -8 9.02801 3.86630   1
  -5   5  -8 6.19259 3.93408   6
  -5   5  -8 6.39118 3.46708   4
  -5   5  -8 -0.9465 2.83404   3
  -5   5  -8 0.62454 3.28005   5
   5  -5   8 2.78396 3.72312   4
   5  -5   8 0.50636 3.62769   5
   5  -5   8 -1.8675 3.41371   1
   5  -5   8 -1.8069 3.70018   5
  -6   5  -8 7.13316 4.56436   4
  -6   5  -8 12.5020 3.51574   3
  -6   5  -8 12.6289 3.80875   6
  -6   5  -8 16.0818 5.16073   1
  -6   5  -8 8.27863 4.58585   6
   6  -5   8 10.7879 4.50781   5
   6  -5   8 9.05161 4.32898   1
   7   4  -8 7.57092 4.22601   4
   7   4  -8 6.97025 4.05811   5
  -7  -4   8 4.92269 2.31761   6
   6   4  -8 22.5103 3.96339   4
   6   4  -8 27.2403 3.91700   5
   6   4  -8 15.7272 4.21769   6
   6   4  -8 17.5716 3.66380   5
  -6  -4   8 21.4524 2.50703   5
  -6  -4   8 26.2563 2.81394   6
  -6  -4   8 14.7127 4.15479   1
   5   4  -8 -4.0357 4.06963   1
   5   4  -8 1.07444 2.71233   4
   5   4  -8 1.48055 2.83905   6
   5   4  -8 -0.1778 3.52191   6
   5   4  -8 2.70734 3.04151   5
  -5  -4   8 -0.7964 1.96692   6
  -5  -4   8 -2.1501 3.03010   1
  -5  -4   8 -1.0747 2.32310   5
  -5  -4   8 -0.4216 2.32768   5
   4   4  -8 11.5864 3.38926   1
   4   4  -8 7.78240 2.58317   5
   4   4  -8 10.5748 2.67423   5
   4   4  -8 6.24586 3.21321   6
   4   4  -8 8.51456 2.45112   4
   4   4  -8 6.99161 2.59951   6
  -4  -4   8 12.4076 2.64708   5
  -4  -4   8 5.41834 2.73627   1
  -4  -4   8 8.25091 2.35337   5
  -4  -4   8 7.68892 3.03168   4
   3   4  -8 252.769 8.67952   4
   3   4  -8 257.805 9.39714   5
   3   4  -8 239.252 9.29324   5
   3   4  -8 252.216 9.54418   1
   3   4  -8 259.505 9.27387   6
   3   4  -8 260.108 10.0574   6
  -3  -4   8 261.326 9.05266   4
  -3  -4   8 250.518 9.17141   1
  -3  -4   8 246.446 8.90725   5
  -3  -4   8 258.393 8.65479   6
   2   4  -8 53.2271 5.39606   6
   2   4  -8 50.2439 4.20372   6
   2   4  -8 49.5114 4.68964   5
   2   4  -8 40.2061 3.54977   1
   2   4  -8 50.3966 3.65296   4
   2   4  -8 48.9179 4.38186   5
  -2  -4   8 49.3805 4.43686   5
  -2  -4   8 51.3758 4.46097   5
  -2  -4   8 54.0885 4.00722   4
  -2  -4   8 45.2839 4.09099   1
  -2  -4   8 50.9367 3.64247   6
   1   4  -8 131.102 6.80436   6
   1   4  -8 122.265 5.86837   6
   1   4  -8 121.218 6.33814   5
   1   4  -8 137.330 6.13681   1
   1   4  -8 125.571 5.31664   4
  -1  -4   8 130.333 5.87308   5
  -1  -4   8 131.479 5.45345   4
  -1  -4   8 126.808 5.78179   1
  -1  -4   8 129.920 6.02898   5
  -1  -4   8 132.666 5.50110   6
   0   4  -8 68.0318 3.78022   3
   0   4  -8 66.2271 4.46432   6
   0   4  -8 69.2220 4.82261   5
   0   4  -8 73.2224 4.97278   5
   0   4  -8 66.6662 3.88310   4
   0   4  -8 59.0880 5.22742   6
   0   4  -8 74.7176 4.70039   1
   0  -4   8 70.8793 4.71125   5
   0  -4   8 63.9156 4.24540   6
   0  -4   8 69.7552 4.67000   5
   0  -4   8 61.0512 3.85392   4
   0  -4   8 67.1374 4.32852   1
  -1   4  -8 38.1921 3.91835   6
  -1   4  -8 47.4623 3.52280   1
  -1   4  -8 39.0218 4.07718   2
  -1   4  -8 43.8125 3.69797   5
  -1   4  -8 40.7711 3.44239   4
  -1   4  -8 38.0267 3.14332   3
  -1   4  -8 35.1501 3.56661   6
  -1   4  -8 48.4452 3.85919   5
   1  -4   8 41.5885 4.27350   5
   1  -4   8 39.9417 3.66862   5
   1  -4   8 44.9404 3.76905   6
   1  -4   8 35.3936 3.06052   1
   1  -4   8 45.4840 3.46644   4
  -2   4  -8 94.3445 5.20530   6
  -2   4  -8 106.764 5.71709   1
  -2   4  -8 90.4686 5.64491   5
  -2   4  -8 105.355 5.85455   5
  -2   4  -8 98.1990 5.94596   6
  -2   4  -8 89.1726 4.81485   4
  -2   4  -8 92.7863 4.51449   3
  -2   4  -8 95.5195 3.87993   2
   2  -4   8 87.8354 5.46661   5
   2  -4   8 99.6408 5.18423   1
   2  -4   8 86.5387 4.60802   4
   2  -4   8 97.9060 4.99287   6
   2  -4   8 93.2743 5.55674   5
  -3   4  -8 26.8334 2.92999   4
  -3   4  -8 28.3763 2.89050   3
  -3   4  -8 22.5128 3.29969   6
  -3   4  -8 29.6954 3.54610   5
  -3   4  -8 25.0728 3.21875   1
  -3   4  -8 24.8078 3.04397   6
  -3   4  -8 33.9070 3.36868   5
   3  -4   8 20.4367 2.85821   5
   3  -4   8 24.3189 2.66345   4
   3  -4   8 24.4838 2.85555   1
   3  -4   8 30.2987 3.21987   6
   3  -4   8 28.0099 3.23360   5
  -4   4  -8 50.0849 4.95738   4
  -4   4  -8 66.6511 5.68942   1
  -4   4  -8 59.2544 4.28970   3
  -4   4  -8 57.1695 5.02312   6
  -4   4  -8 68.1488 5.80267   5
  -4   4  -8 68.0036 5.67486   6
  -4   4  -8 65.1030 5.18171   5
   4  -4   8 68.3571 5.60256   5
   4  -4   8 62.5164 5.20801   5
   4  -4   8 62.4147 5.00485   6
   4  -4   8 63.8839 4.96986   4
   4  -4   8 60.0585 5.13744   1
  -5   4  -8 29.9409 3.75438   6
  -5   4  -8 31.0731 3.61654   5
  -5   4  -8 30.8634 4.11630   1
  -5   4  -8 30.0921 3.27905   3
  -5   4  -8 30.8003 3.90334   6
  -5   4  -8 24.2771 3.75984   4
   5  -4   8 29.8893 4.43511   6
   5  -4   8 25.8052 3.84435   5
   5  -4   8 29.9724 3.77770   1
   5  -4   8 25.3850 3.83609   5
   5  -4   8 23.0895 3.41513   4
  -6   4  -8 -0.6969 4.50083   1
  -6   4  -8 -1.5529 3.09256   3
  -6   4  -8 -1.3555 3.99049   4
  -6   4  -8 0.41498 3.32799   6
  -6   4  -8 -2.3047 2.94129   6
  -6   4  -8 1.79672 2.95290   5
   6  -4   8 -2.6603 3.88319   1
   6  -4   8 -2.2610 3.61989   5
   6  -4   8 -1.5553 3.91907   4
  -7   4  -8 46.4697 4.90042   6
  -7   4  -8 43.2904 5.87611   4
   7  -4   8 51.2505 5.80663   1
   7   3  -8 17.4101 4.12206   4
   7   3  -8 11.7889 3.58921   5
   7   3  -8 13.7219 5.72488   5
  -7  -3   8 14.2155 4.22889   1
   6   3  -8 49.2043 4.29289   6
   6   3  -8 35.5598 4.99083   1
   6   3  -8 41.2835 3.93435   5
   6   3  -8 44.6905 3.99637   5
   6   3  -8 38.4114 3.84036   4
  -6  -3   8 46.2970 4.07428   6
  -6  -3   8 40.2031 4.37052   1
  -6  -3   8 50.0777 3.57904   5
  -6  -3   8 42.2780 4.23499   5
   5   3  -8 3.92309 3.48507   1
   5   3  -8 -0.9737 2.20695   5
   5   3  -8 2.22147 2.45717   5
   5   3  -8 0.50687 3.08668   6
   5   3  -8 1.03864 2.12644   6
   5   3  -8 5.33968 2.54511   4
  -5  -3   8 3.51079 2.09881   5
  -5  -3   8 2.02372 1.96714   6
  -5  -3   8 -1.3254 2.81626   1
  -5  -3   8 1.02966 1.97137   5
   4   3  -8 16.6381 2.40162   4
   4   3  -8 19.4101 2.53276   6
   4   3  -8 22.1395 2.87594   5
   4   3  -8 22.0818 3.26351   1
   4   3  -8 15.3212 2.61793   5
   4   3  -8 24.8372 3.38961   6
  -4  -3   8 21.9251 2.37093   6
  -4  -3   8 20.7190 3.16125   4
  -4  -3   8 21.5827 2.64001   5
  -4  -3   8 16.7429 2.36912   5
   3   3  -8 0.96231 1.66975   6
   3   3  -8 -0.6877 2.55925   6
   3   3  -8 1.79366 2.25130   5
   3   3  -8 0.75944 2.25466   1
   3   3  -8 2.43838 2.08997   5
   3   3  -8 -0.0775 1.65498   4
  -3  -3   8 1.67150 2.03286   5
  -3  -3   8 -0.0484 2.10920   1
  -3  -3   8 0.82981 1.48901   6
  -3  -3   8 -0.9821 2.05450   4
   2   3  -8 3.12503 2.37900   6
   2   3  -8 7.06718 2.34906   5
   2   3  -8 2.34642 1.96854   5
   2   3  -8 4.76947 2.22677   1
   2   3  -8 3.23202 1.89904   6
   2   3  -8 3.17513 1.48386   4
  -2  -3   8 6.21162 1.75244   4
  -2  -3   8 2.46693 2.14885   5
  -2  -3   8 4.03790 1.50919   6
  -2  -3   8 6.27855 2.01705   1
  -2  -3   8 2.07887 1.83082   5
   1   3  -8 7.38982 2.48889   6
   1   3  -8 4.83311 1.98453   5
   1   3  -8 6.62247 2.13987   5
   1   3  -8 2.71968 1.81569   6
   1   3  -8 5.16741 2.04059   1
   1   3  -8 4.74888 1.51140   4
  -1  -3   8 5.71978 1.54504   6
  -1  -3   8 6.35176 1.75181   4
  -1  -3   8 5.71594 1.98141   1
  -1  -3   8 5.42150 1.86171   5
  -1  -3   8 4.12507 1.84404   5
   0   3  -8 0.96191 1.39143   4
   0   3  -8 3.10307 2.34348   6
   0   3  -8 4.89172 1.86100   6
   0   3  -8 4.22887 1.98481   1
   0   3  -8 3.20336 1.61154   3
   0   3  -8 3.66015 1.97645   5
   0   3  -8 -0.0731 2.04029   5
   0  -3   8 4.98183 1.76627   6
   0  -3   8 3.65212 2.10574   5
   0  -3   8 3.12993 1.47800   4
   0  -3   8 6.21095 1.78782   1
   0  -3   8 2.72565 1.82668   5
  -1   3  -8 346.499 10.6106   4
  -1   3  -8 357.624 11.7754   6
  -1   3  -8 344.356 11.1489   6
  -1   3  -8 346.085 10.3940   3
  -1   3  -8 355.055 11.1701   1
  -1   3  -8 320.059 11.8598   5
   1  -3   8 332.001 11.1726   5
   1  -3   8 347.596 10.4774   4
   1  -3   8 351.164 11.0993   1
   1  -3   8 343.633 10.9364   6
   1  -3   8 349.912 11.3328   5
  -2   3  -8 13.2998 2.03374   4
  -2   3  -8 12.7094 2.34716   5
  -2   3  -8 11.3651 2.09775   6
  -2   3  -8 12.9843 2.67954   6
  -2   3  -8 11.1184 2.51536   5
  -2   3  -8 13.1553 1.93409   2
  -2   3  -8 8.96229 2.22628   1
  -2   3  -8 13.1631 1.98518   3
   2  -3   8 16.2295 2.56387   1
   2  -3   8 10.2532 2.18808   5
   2  -3   8 13.2456 1.84410   4
   2  -3   8 9.70025 2.19733   5
   2  -3   8 10.3625 1.95711   6
  -3   3  -8 14.9754 2.30886   4
  -3   3  -8 9.88924 2.06539   6
  -3   3  -8 16.5719 1.59282   2
  -3   3  -8 16.7124 2.94471   1
  -3   3  -8 20.6168 2.35159   3
  -3   3  -8 15.8490 2.87611   5
  -3   3  -8 9.49369 2.38777   6
   3  -3   8 9.31712 2.07443   5
   3  -3   8 11.6452 1.95631   4
   3  -3   8 13.7268 2.57375   1
   3  -3   8 12.8791 2.49084   5
   3  -3   8 12.0465 2.35697   6
  -4   3  -8 3.98455 2.46380   5
  -4   3  -8 4.35380 2.15693   4
  -4   3  -8 3.52356 2.53842   5
  -4   3  -8 6.33642 2.91995   1
  -4   3  -8 2.74734 2.08171   3
  -4   3  -8 5.25762 2.22148   6
   4  -3   8 5.96531 2.56412   5
   4  -3   8 2.92413 2.88738   1
   4  -3   8 4.27409 2.35027   5
   4  -3   8 5.48818 2.14974   4
   4  -3   8 4.85722 2.38655   6
  -5   3  -8 23.6427 3.86281   1
  -5   3  -8 33.5165 2.92795   3
  -5   3  -8 29.0408 3.18513   6
  -5   3  -8 31.4298 3.11766   5
  -5   3  -8 26.8478 3.43998   4
  -5   3  -8 26.9572 3.20793   5
  -5   3  -8 32.0877 3.55554   6
   5  -3   8 25.1416 3.09428   6
   5  -3   8 29.9242 3.76684   5
   5  -3   8 30.7180 3.82131   1
   5  -3   8 26.5740 2.94550   4
   5  -3   8 22.7944 2.99396   5
  -6   3  -8 13.4106 2.57855   5
  -6   3  -8 14.4947 3.33555   6
  -6   3  -8 10.3620 2.93793   6
  -6   3  -8 5.13022 4.50375   1
   6  -3   8 6.51334 4.05089   1
   6  -3   8 9.31128 3.57189   4
   6  -3   8 17.0328 3.35141   5
   6  -3   8 7.36368 3.41650   5
  -7   3  -8 2.16692 2.81974   6
  -7   3  -8 7.03793 2.95113   6
   7  -3   8 5.45790 4.18727   5
   7  -3   8 -14.545 8.33692   1
   8   2  -8 23.7829 5.27537   4
   7   2  -8 51.3455 4.55461   6
   7   2  -8 48.8371 4.65041   4
   7   2  -8 54.1550 4.34656   5
   7   2  -8 49.5808 4.07797   5
   7   2  -8 47.4008 5.61168   1
  -7  -2   8 35.9904 4.23400   3
  -7  -2   8 49.2809 3.86377   6
  -7  -2   8 56.1144 4.97913   1
   6   2  -8 12.6141 2.86870   5
   6   2  -8 9.29096 3.91585   1
   6   2  -8 8.20732 2.90615   5
   6   2  -8 13.0064 3.46978   6
   6   2  -8 12.7677 2.81342   4
   6   2  -8 14.9162 2.75339   6
  -6  -2   8 13.3756 2.06221   5
  -6  -2   8 14.2003 2.34237   6
  -6  -2   8 9.80649 3.14008   1
  -6  -2   8 7.91132 2.72872   3
  -6  -2   8 12.3726 1.87885   5
   5   2  -8 64.8773 4.44411   4
   5   2  -8 56.7405 4.63969   5
   5   2  -8 55.2531 5.27672   6
   5   2  -8 61.2985 5.48544   1
   5   2  -8 53.9962 4.09591   6
   5   2  -8 66.3193 4.63005   5
  -5  -2   8 63.3281 4.07828   5
  -5  -2   8 61.1213 4.88820   1
  -5  -2   8 55.9589 4.66117   3
  -5  -2   8 58.9637 3.95723   5
  -5  -2   8 62.8862 4.02074   6
   4   2  -8 14.9152 2.42919   5
   4   2  -8 9.44976 2.32840   5
   4   2  -8 14.2233 2.17675   4
   4   2  -8 10.8752 2.67750   1
   4   2  -8 7.65177 2.79262   6
   4   2  -8 10.7457 1.87166   6
  -4  -2   8 10.0951 1.81505   6
  -4  -2   8 12.8631 2.08947   5
  -4  -2   8 10.6460 2.36449   1
  -4  -2   8 11.6593 2.13383   5
   3   2  -8 2.09965 2.00751   5
   3   2  -8 2.36732 1.66380   6
   3   2  -8 1.52915 1.85717   5
   3   2  -8 2.79808 1.38886   4
   3   2  -8 2.90103 2.08363   1
   3   2  -8 2.09565 2.27227   6
  -3  -2   8 3.95309 1.83505   5
  -3  -2   8 -0.2778 1.29937   6
  -3  -2   8 2.87064 2.06589   4
  -3  -2   8 -0.1299 1.71400   5
  -3  -2   8 0.27062 1.89699   1
   2   2  -8 267.987 9.06074   5
   2   2  -8 257.985 8.74003   6
   2   2  -8 257.898 9.04547   5
   2   2  -8 259.411 8.88453   1
   2   2  -8 259.667 8.35189   4
   2   2  -8 268.704 9.49467   6
  -2  -2   8 256.197 8.79513   1
  -2  -2   8 268.163 8.99413   5
  -2  -2   8 277.003 8.67589   6
  -2  -2   8 269.380 8.93738   5
  -2  -2   8 255.667 8.50883   4
   1   2  -8 54.7498 3.78103   5
   1   2  -8 48.9723 2.94317   4
   1   2  -8 51.9688 3.80783   1
   1   2  -8 54.1339 3.91933   5
   1   2  -8 47.9330 3.36362   6
   1   2  -8 52.8532 4.37579   6
  -1  -2   8 47.3963 3.63672   5
  -1  -2   8 48.8144 3.52854   1
  -1  -2   8 55.8648 3.75214   5
  -1  -2   8 52.7256 3.14673   4
  -1  -2   8 56.7154 3.43305   6
   0   2  -8 218.489 8.16218   6
   0   2  -8 208.767 7.58741   1
   0   2  -8 211.753 6.92322   4
   0   2  -8 210.715 7.29140   2
   0   2  -8 206.358 7.40810   6
   0   2  -8 213.797 7.72983   5
   0   2  -8 215.648 7.66412   5
   0  -2   8 214.939 6.88168   4
   0  -2   8 209.068 7.28301   6
   0  -2   8 206.264 7.39742   1
   0  -2   8 209.948 7.54726   5
   0  -2   8 225.395 7.75383   5
  -1   2  -8 64.1983 2.93488   3
  -1   2  -8 63.1914 3.74349   6
  -1   2  -8 66.4942 4.14542   1
  -1   2  -8 42.4983 5.40103   5
  -1   2  -8 61.7999 3.51417   2
  -1   2  -8 60.1858 3.24286   4
  -1   2  -8 62.8426 4.58966   6
  -1   2  -8 70.5937 4.17300   5
   1  -2   8 61.4963 4.17782   5
   1  -2   8 66.0734 3.99463   1
   1  -2   8 62.8536 4.10238   5
   1  -2   8 67.1686 3.13487   4
   1  -2   8 73.5769 3.79892   6
  -2   2  -8 28.7251 2.91647   6
  -2   2  -8 31.0193 2.96930   1
  -2   2  -8 31.3891 3.25148   5
  -2   2  -8 33.2974 3.14674   5
  -2   2  -8 29.7371 3.17069   6
  -2   2  -8 35.1286 2.84153   2
  -2   2  -8 30.3220 2.73256   4
  -2   2  -8 30.8856 2.50318   3
   2  -2   8 34.4748 3.05517   5
   2  -2   8 23.4462 2.25103   6
   2  -2   8 26.6333 2.75534   1
   2  -2   8 29.2235 2.82503   5
   2  -2   8 31.0466 2.51055   4
  -3   2  -8 142.252 5.65864   4
  -3   2  -8 146.479 5.15910   2
  -3   2  -8 151.045 6.67128   1
  -3   2  -8 149.534 4.91616   3
  -3   2  -8 155.169 6.10123   5
  -3   2  -8 142.856 6.00702   6
  -3   2  -8 145.777 6.27350   5
   3  -2   8 144.412 6.24889   5
   3  -2   8 157.616 6.46508   1
   3  -2   8 141.568 6.29057   5
   3  -2   8 142.369 5.86897   6
   3  -2   8 147.590 5.31657   4
  -4   2  -8 6.57528 2.75123   6
  -4   2  -8 1.12377 1.93552   4
  -4   2  -8 8.75138 2.35589   5
  -4   2  -8 6.31572 3.08000   1
  -4   2  -8 4.29367 2.01314   2
  -4   2  -8 3.89544 2.31950   5
  -4   2  -8 3.43761 1.94526   6
   4  -2   8 3.98706 2.68757   1
   4  -2   8 2.24620 2.06775   5
   4  -2   8 0.69914 2.03050   5
   4  -2   8 3.53521 2.14771   6
  -5   2  -8 45.2480 4.07496   5
  -5   2  -8 45.5347 4.23802   6
  -5   2  -8 40.2281 4.03826   5
  -5   2  -8 37.7734 4.35513   1
  -5   2  -8 47.5053 3.67225   4
  -5   2  -8 48.5122 5.01116   6
   5  -2   8 40.8784 4.43672   5
   5  -2   8 46.1081 3.94279   5
   5  -2   8 49.1925 3.98924   4
   5  -2   8 40.3940 4.49521   6
   5  -2   8 41.6148 3.96214   1
  -6   2  -8 30.6455 3.55680   6
  -6   2  -8 41.8317 3.87606   4
  -6   2  -8 33.5644 3.29397   6
   6  -2   8 37.7404 4.41968   1
   6  -2   8 37.1001 3.65540   5
   6  -2   8 33.5236 3.56542   4
   6  -2   8 38.5974 3.97504   5
  -7   2  -8 1.33657 2.32411   6
  -7   2  -8 0.69787 2.28576   6
   7  -2   8 -3.1603 3.75848   5
   7  -2   8 -0.1368 4.76915   1
   8   1  -8 4.10630 4.06408   4
   8   1  -8 8.63329 6.13599   1
   8   1  -8 8.32238 3.48475   5
  -8  -1   8 4.62580 3.29508   3
   7   1  -8 6.31253 2.78068   5
   7   1  -8 3.71172 3.02655   6
   7   1  -8 12.6291 2.92719   5
   7   1  -8 6.91369 3.24815   4
   7   1  -8 8.33988 4.23090   1
  -7  -1   8 3.48447 2.91141   3
  -7  -1   8 8.13949 3.48058   1
  -7  -1   8 11.4450 2.19303   6
   6   1  -8 12.1351 2.60103   4
   6   1  -8 14.6513 2.59277   5
   6   1  -8 14.8776 3.39825   1
   6   1  -8 13.3990 2.34772   6
   6   1  -8 14.8718 3.23154   6
   6   1  -8 11.8762 2.61099   5
  -6  -1   8 13.1125 3.01686   3
  -6  -1   8 14.1172 2.30995   6
  -6  -1   8 10.2667 2.86171   1
  -6  -1   8 13.4182 2.18113   5
   5   1  -8 76.5357 5.23937   6
   5   1  -8 80.8646 4.32278   6
   5   1  -8 82.3622 5.29222   1
   5   1  -8 76.5632 4.66598   5
   5   1  -8 79.1188 4.46727   4
   5   1  -8 75.5823 4.60443   5
  -5  -1   8 79.4682 4.33019   5
  -5  -1   8 86.8472 4.23486   5
  -5  -1   8 75.5300 4.82810   1
  -5  -1   8 76.0305 4.30302   6
  -5  -1   8 70.5866 4.78496   3
   4   1  -8 2.16458 1.67695   4
   4   1  -8 3.51509 1.69463   6
   4   1  -8 2.28193 1.67519   5
   4   1  -8 5.62286 2.20191   1
   4   1  -8 1.98385 1.97518   5
   4   1  -8 4.84251 2.09055   6
  -4  -1   8 -0.5272 1.44707   5
  -4  -1   8 2.38393 1.96675   1
  -4  -1   8 2.67961 2.01219   3
  -4  -1   8 2.59810 1.51948   6
  -4  -1   8 3.79626 1.80843   5
   3   1  -8 5.67876 2.14941   6
   3   1  -8 4.07970 1.70222   5
   3   1  -8 2.52157 1.36226   4
   3   1  -8 2.46145 1.90303   1
   3   1  -8 6.86771 2.19084   5
   3   1  -8 2.27725 1.48940   6
  -3  -1   8 3.40316 1.73061   1
  -3  -1   8 2.50736 1.38630   5
  -3  -1   8 4.63506 1.87885   3
  -3  -1   8 3.31686 1.70230   5
  -3  -1   8 6.50595 2.05860   6
  -3  -1   8 2.01171 1.35413   6
   2   1  -8 2.60498 1.51275   5
   2   1  -8 1.80614 1.91863   5
   2   1  -8 4.27420 1.70144   6
   2   1  -8 2.70472 1.84032   1
   2   1  -8 1.80675 1.49012   6
   2   1  -8 2.30609 1.24597   4
  -2  -1   8 1.33396 1.62770   4
  -2  -1   8 1.96178 1.60335   6
  -2  -1   8 2.27811 1.55058   5
  -2  -1   8 3.47013 1.48934   6
  -2  -1   8 3.87365 1.67753   1
   1   1  -8 7.86419 1.73653   1
   1   1  -8 6.94735 2.13124   6
   1   1  -8 8.14645 1.36612   4
   1   1  -8 7.05231 1.94073   2
   1   1  -8 7.55769 1.71851   6
   1   1  -8 7.85520 1.77238   5
   1   1  -8 10.0282 2.21150   5
  -1  -1   8 10.3525 2.16744   6
  -1  -1   8 7.72794 1.92901   5
  -1  -1   8 5.86793 1.43874   4
  -1  -1   8 6.21479 1.63878   1
  -1  -1   8 6.32072 1.83309   5
  -1  -1   8 9.79602 1.74146   6
   0   1  -8 8.28164 1.89642   2
   0   1  -8 7.50375 1.91686   5
   0   1  -8 4.38573 1.54764   6
   0   1  -8 7.56326 1.23269   4
   0   1  -8 8.09104 1.72558   6
   0   1  -8 7.50981 1.89598   1
   0   1  -8 8.63488 1.93185   5
   0  -1   8 7.90667 1.84988   5
   0  -1   8 9.44202 1.78765   6
   0  -1   8 6.04045 1.60227   1
   0  -1   8 9.28163 1.29119   4
   0  -1   8 4.08416 1.46946   5
   0  -1   8 6.38075 1.82993   6
  -1   1  -8 16.6613 1.71337   3
  -1   1  -8 14.3583 2.19555   5
  -1   1  -8 14.4799 2.30966   6
  -1   1  -8 8.27402 2.72029   5
  -1   1  -8 17.9546 2.16106   2
  -1   1  -8 14.5714 2.35435   1
  -1   1  -8 13.6972 1.50061   4
  -1   1  -8 10.9556 1.73401   6
   1  -1   8 10.7156 2.02648   1
   1  -1   8 16.9394 2.06539   6
   1  -1   8 9.66917 1.87164   5
   1  -1   8 15.5939 2.13207   5
   1  -1   8 13.0784 1.35597   4
   1  -1   8 14.0335 2.28296   6
  -2   1  -8 349.694 11.2062   6
  -2   1  -8 366.678 11.7654   6
  -2   1  -8 378.073 10.9095   2
  -2   1  -8 352.679 11.4577   1
  -2   1  -8 343.586 11.8582   5
  -2   1  -8 365.744 11.3086   5
  -2   1  -8 367.197 10.6811   4
   2  -1   8 362.995 11.4316   5
   2  -1   8 354.283 11.8750   6
   2  -1   8 361.744 10.4445   4
   2  -1   8 363.340 11.2137   6
   2  -1   8 357.086 11.4445   1
   2  -1   8 353.540 11.5188   5
  -3   1  -8 10.7706 2.20025   5
  -3   1  -8 7.51295 1.88369   6
  -3   1  -8 5.54755 1.71596   5
  -3   1  -8 11.0435 2.56054   1
  -3   1  -8 10.5767 2.25474   6
  -3   1  -8 7.38730 1.61919   4
  -3   1  -8 8.95882 1.95881   2
   3  -1   8 11.5297 2.41426   6
   3  -1   8 7.54214 1.36855   4
   3  -1   8 8.30218 2.02403   6
   3  -1   8 7.80112 2.00075   5
   3  -1   8 9.16830 2.05333   5
   3  -1   8 6.10009 2.22432   1
  -4   1  -8 17.9651 3.05708   1
  -4   1  -8 18.3336 2.38900   5
  -4   1  -8 17.9314 2.40279   5
  -4   1  -8 23.2426 2.59056   2
  -4   1  -8 18.4726 2.15762   4
  -4   1  -8 15.8788 2.79057   6
  -4   1  -8 17.3002 2.28129   6
   4  -1   8 15.6423 2.33668   6
   4  -1   8 18.0493 1.81173   4
   4  -1   8 13.7464 2.44220   5
   4  -1   8 17.6593 2.94543   1
   4  -1   8 14.1665 2.33706   5
  -5   1  -8 0.76672 2.08443   4
  -5   1  -8 3.94280 2.62548   2
  -5   1  -8 -0.1132 2.55400   6
  -5   1  -8 -1.3867 3.45617   1
  -5   1  -8 1.52171 1.89877   6
  -5   1  -8 -0.6651 1.99744   5
  -5   1  -8 3.61423 2.01346   5
   5  -1   8 -0.6975 1.63268   4
   5  -1   8 1.69070 2.35523   5
   5  -1   8 4.06440 2.86542   1
   5  -1   8 2.50572 2.30990   5
   5  -1   8 0.12885 2.27164   6
  -6   1  -8 21.8839 2.67710   6
  -6   1  -8 22.3558 2.91671   6
   6  -1   8 19.8822 3.35077   5
   6  -1   8 23.9217 4.36918   1
   6  -1   8 22.4175 3.24312   5
   7  -1   8 32.0621 5.48201   1
   7  -1   8 25.0798 4.09865   5
   8   0  -8 2.90778 4.18525   4
   8   0  -8 -0.1847 3.19365   5
   8   0  -8 -7.2168 5.18923   1
  -8   0   8 5.05327 3.38049   3
   7   0  -8 27.7220 3.63115   4
   7   0  -8 32.3516 4.18911   1
   7   0  -8 29.4861 3.44720   5
   7   0  -8 33.0155 3.43038   6
   7   0  -8 28.1396 3.31394   5
  -7   0   8 17.2289 3.35963   3
  -7   0   8 27.0360 3.53840   1
  -7   0   8 32.5962 2.79227   6
   6   0  -8 140.578 6.34487   4
   6   0  -8 136.122 6.61463   5
   6   0  -8 137.315 6.23050   5
   6   0  -8 138.612 5.76051   6
   6   0  -8 128.446 7.05595   6
   6   0  -8 142.853 6.78094   1
  -6   0   8 126.350 6.41519   3
  -6   0   8 142.003 5.88720   6
  -6   0   8 137.061 5.50181   5
  -6   0   8 141.540 6.32868   1
  -6   0   8 142.280 5.34919   5
   5   0  -8 8.99376 2.22287   4
   5   0  -8 7.69031 2.09002   5
   5   0  -8 8.14292 2.39039   6
   5   0  -8 5.92770 1.50881   6
   5   0  -8 7.33251 2.41393   1
  -5   0   8 5.42450 2.04557   5
  -5   0   8 7.17064 2.02626   6
  -5   0   8 8.21237 2.47484   3
  -5   0   8 5.81723 2.09109   1
  -5   0   8 4.51924 2.10924   6
  -5   0   8 4.91217 1.79664   5
   4   0  -8 126.267 5.22078   6
   4   0  -8 129.241 5.45219   1
   4   0  -8 131.070 5.19316   4
   4   0  -8 127.989 6.07319   6
   4   0  -8 128.291 5.54834   5
   4   0  -8 127.857 5.77632   5
  -4   0   8 133.241 5.52836   5
  -4   0   8 125.532 5.77475   3
  -4   0   8 129.009 5.88655   6
  -4   0   8 129.418 5.16350   6
  -4   0   8 126.821 5.29510   5
  -4   0   8 125.027 5.29089   1
   3   0  -8 50.1731 2.94329   4
   3   0  -8 45.0400 3.20720   6
   3   0  -8 50.0813 3.83693   5
   3   0  -8 50.1407 4.03178   6
   3   0  -8 45.7414 3.53665   5
   3   0  -8 48.1650 3.62760   1
  -3   0   8 43.7871 3.84620   6
  -3   0   8 44.1771 3.46764   5
  -3   0   8 47.5315 3.11535   6
  -3   0   8 48.5177 3.55928   3
  -3   0   8 44.6383 3.32614   5
  -3   0   8 53.6892 3.33621   1
   2   0  -8 4.61268 1.90725   5
   2   0  -8 4.01787 1.19652   4
   2   0  -8 3.97425 1.91014   6
   2   0  -8 6.15930 1.77459   5
   2   0  -8 4.79818 2.02324   1
   2   0  -8 3.66650 1.99930   2
   2   0  -8 5.17112 1.46978   6
  -2   0   8 3.30499 1.58106   5
  -2   0   8 4.73243 1.49090   6
  -2   0   8 3.48841 1.75032   6
  -2   0   8 5.91712 1.62870   1
  -2   0   8 4.81875 1.63944   3
  -2   0   8 4.82864 1.74815   5
   1   0  -8 202.828 7.62620   6
   1   0  -8 196.429 6.95591   6
   1   0  -8 197.428 7.17415   5
   1   0  -8 201.409 7.30916   2
   1   0  -8 200.256 6.36468   4
   1   0  -8 202.299 7.38423   5
   1   0  -8 202.866 7.06920   1
  -1   0   8 212.254 7.03339   6
  -1   0   8 200.950 6.55589   4
  -1   0   8 206.608 7.66123   6
  -1   0   8 211.495 7.34560   5
  -1   0   8 191.747 6.90020   1
  -1   0   8 201.576 6.63634   3
  -1   0   8 201.915 7.17125   5
   0   0  -8 54.2256 3.48523   5
   0   0  -8 50.3298 3.63080   1
   0   0  -8 60.2303 3.97952   6
   0   0  -8 54.4117 3.90693   5
   0   0  -8 57.8412 3.29124   6
   0   0  -8 54.0707 3.47619   2
   0   0  -8 50.8830 2.53847   4
   0   0   8 54.9714 3.53747   5
   0   0   8 55.4266 3.49936   1
   0   0   8 55.2974 2.68538   4
   0   0   8 58.2726 4.06530   6
   0   0   8 56.8304 3.45469   6
   0   0   8 51.6496 3.63289   5
  -1   0  -8 201.743 5.79496   3
  -1   0  -8 204.452 7.03281   6
  -1   0  -8 201.041 7.27704   5
  -1   0  -8 204.267 7.36591   1
  -1   0  -8 192.955 6.98950   2
  -1   0  -8 174.759 8.02709   5
  -1   0  -8 202.363 6.25358   4
  -1   0  -8 211.219 7.62210   6
   1   0   8 204.165 7.22207   1
   1   0   8 212.717 7.11491   6
   1   0   8 203.015 6.22067   4
   1   0   8 218.065 7.42120   5
   1   0   8 208.851 7.43276   5
   1   0   8 197.206 7.70721   6
  -2   0  -8 62.3066 3.60935   6
  -2   0  -8 66.3830 4.33333   1
  -2   0  -8 62.9792 4.18795   6
  -2   0  -8 61.3814 2.86933   4
  -2   0  -8 65.2038 4.20688   5
  -2   0  -8 60.5256 3.72906   5
  -2   0  -8 56.7214 3.48160   2
   2   0   8 62.1657 2.67342   4
   2   0   8 59.8061 4.02829   5
   2   0   8 59.4630 4.02487   5
   2   0   8 62.5274 4.69902   6
   2   0   8 62.3615 3.79878   6
   2   0   8 57.8215 4.01841   1
  -3   0  -8 16.8581 2.34758   5
  -3   0  -8 21.1457 2.63554   6
  -3   0  -8 16.6402 1.64836   4
  -3   0  -8 13.8251 2.09304   5
  -3   0  -8 18.5936 2.28218   2
  -3   0  -8 19.6722 2.95063   1
  -3   0  -8 16.0234 2.12561   6
   3   0   8 12.7142 2.44841   1
   3   0   8 17.6659 2.57933   5
   3   0   8 16.7379 2.35029   5
   3   0   8 15.4568 2.21127   6
   3   0   8 16.1529 2.73256   6
   3   0   8 15.5026 1.32179   4
  -4   0  -8 150.502 5.97213   5
  -4   0  -8 139.467 7.27070   1
  -4   0  -8 144.358 5.93450   6
  -4   0  -8 147.731 6.55013   6
  -4   0  -8 154.652 5.25314   4
  -4   0  -8 158.440 6.19758   2
  -4   0  -8 143.217 6.11150   5
   4   0   8 151.933 6.28603   5
   4   0   8 140.169 6.23044   6
   4   0   8 153.902 7.04818   1
   4   0   8 148.225 6.53115   5
   4   0   8 153.235 4.78815   4
   4   0   8 150.268 6.84423   6
  -5   0  -8 -0.2659 2.27906   6
  -5   0  -8 0.87902 2.70701   2
  -5   0  -8 0.58074 1.81277   5
  -5   0  -8 1.83828 2.03791   5
  -5   0  -8 1.54334 1.99277   6
   5   0   8 -1.5580 1.35830   4
   5   0   8 -2.0433 3.23862   1
   5   0   8 -4.6602 2.15941   5
   5   0   8 -0.5790 2.36350   6
   5   0   8 -0.2819 2.42579   5
  -6   0  -8 16.9561 2.40473   6
  -6   0  -8 17.5554 3.49852   2
  -6   0  -8 16.5651 2.62826   6
   6   0   8 18.4261 3.17535   5
   6   0   8 18.0512 4.47908   1
   6   0   8 16.4412 3.22589   5
   6   0   8 19.2049 2.24375   4
  -7   0  -8 30.9616 4.61823   2
   7   0   8 16.4928 5.77920   1
   7   0   8 24.0772 4.45448   5
   8  -1  -8 6.25592 6.29724   1
   8  -1  -8 0.05608 4.02062   4
   8  -1  -8 -1.0577 2.86908   5
  -8   1   8 1.27103 3.40576   3
   7  -1  -8 3.18354 3.11336   4
   7  -1  -8 4.95403 3.05878   1
   7  -1  -8 7.11061 2.76479   5
   7  -1  -8 2.73413 2.65363   5
   7  -1  -8 5.41911 2.68761   6
  -7   1   8 1.74627 2.62294   1
  -7   1   8 4.59845 2.39975   6
  -7   1   8 5.00597 2.83479   3
   6  -1  -8 16.5039 2.36835   6
   6  -1  -8 21.1951 2.94041   5
   6  -1  -8 20.1693 2.71906   5
   6  -1  -8 24.5957 2.90832   1
   6  -1  -8 19.9053 2.91950   4
   6  -1  -8 22.2257 3.58150   6
  -6   1   8 25.6448 2.64773   6
  -6   1   8 18.9153 3.00178   1
  -6   1   8 19.9959 2.83871   6
  -6   1   8 21.3344 2.26617   5
  -6   1   8 23.3674 2.46797   5
  -6   1   8 18.3865 3.40622   3
   5  -1  -8 9.56538 2.23570   1
   5  -1  -8 9.93899 1.74120   6
   5  -1  -8 8.50859 2.57475   5
   5  -1  -8 12.1033 2.11254   5
   5  -1  -8 10.6367 2.69151   6
  -5   1   8 11.2231 2.04418   1
  -5   1   8 6.73332 1.88153   5
  -5   1   8 8.61416 2.64459   3
  -5   1   8 12.0549 2.38387   6
  -5   1   8 7.58453 2.34129   6
  -5   1   8 9.98755 2.21621   5
   4  -1  -8 88.8233 5.27495   6
   4  -1  -8 87.6346 4.12757   4
   4  -1  -8 92.1509 4.50832   1
   4  -1  -8 87.2272 4.74330   5
   4  -1  -8 85.3505 4.31316   6
   4  -1  -8 94.6435 4.95298   5
  -4   1   8 88.1023 5.08321   6
  -4   1   8 85.0455 4.21681   1
  -4   1   8 83.9050 4.73181   3
  -4   1   8 89.1465 4.45964   5
  -4   1   8 97.8003 4.75521   5
   3  -1  -8 3.09685 1.79283   6
   3  -1  -8 5.56787 1.71285   1
   3  -1  -8 3.02565 1.30840   4
   3  -1  -8 6.29112 1.88929   5
   3  -1  -8 2.76647 2.02138   2
   3  -1  -8 4.90974 1.61015   6
   3  -1  -8 4.64005 1.93082   5
  -3   1   8 4.64165 1.58642   1
  -3   1   8 3.28821 1.88120   5
  -3   1   8 2.13571 2.03475   6
  -3   1   8 5.01560 1.52296   6
  -3   1   8 7.64275 2.33130   5
  -3   1   8 5.65522 1.97999   3
   2  -1  -8 11.0295 2.32653   6
   2  -1  -8 12.5922 2.35365   2
   2  -1  -8 9.15905 1.98894   5
   2  -1  -8 10.5237 1.93842   1
   2  -1  -8 7.89348 1.44811   6
   2  -1  -8 8.34383 2.00917   5
   2  -1  -8 9.32955 1.28557   4
  -2   1   8 7.38757 1.96413   5
  -2   1   8 11.9985 2.26497   6
  -2   1   8 9.71878 2.00836   5
  -2   1   8 10.4320 1.73263   1
  -2   1   8 9.55035 1.82134   3
  -2   1   8 10.8214 1.93172   6
   1  -1  -8 -0.5229 1.53998   6
   1  -1  -8 -0.1400 1.34803   6
   1  -1  -8 -0.7457 1.73855   2
   1  -1  -8 -0.6713 1.52661   5
   1  -1  -8 -0.5960 0.88086   4
   1  -1  -8 -1.5121 1.44791   5
  -1   1   8 -0.3285 1.52135   3
  -1   1   8 -0.5886 1.63212   5
  -1   1   8 2.72539 1.46159   5
  -1   1   8 -0.8232 1.33998   1
  -1   1   8 2.30598 1.88362   6
  -1   1   8 -0.9093 1.33866   6
   0  -1  -8 40.9817 2.15776   4
   0  -1  -8 42.4547 3.32471   2
   0  -1  -8 42.8531 3.30728   5
   0  -1  -8 46.2002 3.79487   6
   0  -1  -8 44.1259 3.03411   6
   0  -1  -8 42.7044 3.60121   1
   0  -1  -8 36.9350 3.69631   5
   0   1   8 46.2751 3.28775   6
   0   1   8 45.1929 3.79237   6
   0   1   8 45.6053 2.57321   3
   0   1   8 38.9779 3.32963   5
   0   1   8 43.8610 3.28498   1
   0   1   8 41.4449 3.47002   5
  -1  -1  -8 3.95207 1.75623   2
  -1  -1  -8 4.47352 1.40292   6
  -1  -1  -8 8.20411 1.86427   5
  -1  -1  -8 7.89126 2.07323   5
  -1  -1  -8 5.15895 0.93875   4
  -1  -1  -8 4.42831 1.90621   6
  -1  -1  -8 5.30612 2.01048   1
   1   1   8 2.12539 1.80393   6
   1   1   8 6.93342 1.87253   1
   1   1   8 5.77709 1.68739   5
   1   1   8 4.06803 1.61621   6
   1   1   8 5.36412 1.97851   5
  -2  -1  -8 18.2831 2.50795   5
  -2  -1  -8 14.9092 1.92007   6
  -2  -1  -8 17.2349 1.62855   4
  -2  -1  -8 16.2197 2.45397   6
  -2  -1  -8 17.9318 2.54969   1
  -2  -1  -8 18.4270 2.31969   2
   2   1   8 16.5936 2.46386   1
   2   1   8 17.5014 2.41897   5
   2   1   8 12.3707 2.10391   6
   2   1   8 15.3268 2.18053   5
   2   1   8 17.5091 1.42648   4
   2   1   8 12.2740 2.26328   6
  -3  -1  -8 326.850 10.7674   1
  -3  -1  -8 305.740 10.6270   6
  -3  -1  -8 295.324 9.74233   6
  -3  -1  -8 303.238 8.50567   4
  -3  -1  -8 311.576 9.81433   5
  -3  -1  -8 311.280 10.0919   5
  -3  -1  -8 285.287 9.81671   2
   3   1   8 311.739 10.0059   6
   3   1   8 296.858 8.37811   4
   3   1   8 299.469 10.2280   5
   3   1   8 316.213 10.1328   5
   3   1   8 286.875 12.6288   1
   3   1   8 308.917 10.6199   6
  -4  -1  -8 2.42880 2.13884   5
  -4  -1  -8 4.76788 2.45409   2
  -4  -1  -8 5.46699 1.85731   6
  -4  -1  -8 8.08843 2.37863   6
  -4  -1  -8 6.17804 1.91198   5
   4   1   8 1.86280 2.81632   1
   4   1   8 7.21509 2.34882   5
   4   1   8 1.16798 2.23977   6
   4   1   8 7.85237 2.29138   6
   4   1   8 5.63510 2.15117   5
  -5  -1  -8 16.8004 3.15939   2
  -5  -1  -8 19.7680 2.07460   5
  -5  -1  -8 13.0929 2.19034   5
  -5  -1  -8 13.8918 2.23708   6
  -5  -1  -8 15.3077 2.72667   6
   5   1   8 11.1752 2.85996   5
   5   1   8 17.3731 2.70822   5
   5   1   8 11.6622 3.48925   6
   5   1   8 13.1113 3.65348   1
  -6  -1  -8 6.52666 3.45680   2
  -6  -1  -8 9.59743 2.21731   6
  -6  -1  -8 11.8327 2.46021   6
   6   1   8 13.9370 4.69574   1
   6   1   8 11.4134 3.32247   5
   6   1   8 10.4296 3.12105   5
   8  -2  -8 -0.8520 3.22467   5
   8  -2  -8 3.41160 4.17641   4
  -8   2   8 -3.1395 3.29807   3
   7  -2  -8 3.44128 2.66679   5
   7  -2  -8 6.70101 3.19009   5
   7  -2  -8 3.06205 3.76891   1
   7  -2  -8 5.75047 2.84508   6
   7  -2  -8 -1.2052 3.10490   4
  -7   2   8 3.95544 2.26343   1
  -7   2   8 4.08567 2.63216   6
  -7   2   8 3.31238 2.07352   5
  -7   2   8 1.49067 2.87106   3
   6  -2  -8 29.8320 3.12367   5
   6  -2  -8 24.4857 3.95552   6
   6  -2  -8 25.0265 2.98050   5
   6  -2  -8 32.0075 2.68197   1
   6  -2  -8 25.7565 3.19517   4
   6  -2  -8 28.7843 2.79572   6
   6  -2  -8 33.3792 4.70739   4
  -6   2   8 28.9211 3.22943   6
  -6   2   8 31.8793 3.08742   6
  -6   2   8 23.7939 2.81625   5
  -6   2   8 28.4551 2.62318   1
  -6   2   8 29.2780 2.77509   5
  -6   2   8 26.6283 3.55690   3
   5  -2  -8 268.179 8.90571   6
   5  -2  -8 267.649 8.73499   1
   5  -2  -8 276.569 9.55980   5
   5  -2  -8 254.967 10.0439   2
   5  -2  -8 270.585 10.0389   6
  -5   2   8 246.151 9.64711   3
  -5   2   8 284.482 9.13256   5
  -5   2   8 265.849 10.4244   6
  -5   2   8 265.299 8.61843   1
  -5   2   8 276.235 9.79371   6
  -5   2   8 271.422 9.34321   5
   4  -2  -8 0.74219 2.05397   6
   4  -2  -8 -1.4192 1.97915   2
   4  -2  -8 0.81480 1.62542   1
   4  -2  -8 -0.5336 1.56016   4
   4  -2  -8 -1.1351 1.87422   5
   4  -2  -8 0.42802 2.08895   5
   4  -2  -8 1.05495 1.70616   6
  -4   2   8 3.51439 2.04091   6
  -4   2   8 1.92417 2.12699   3
  -4   2   8 3.34649 1.75888   6
  -4   2   8 0.31326 1.49207   1
  -4   2   8 1.63369 2.09992   5
   3  -2  -8 168.514 7.14750   6
   3  -2  -8 176.163 7.03499   5
   3  -2  -8 160.416 7.03549   2
   3  -2  -8 176.201 5.98228   4
   3  -2  -8 180.643 6.84950   5
   3  -2  -8 175.850 6.19355   1
   3  -2  -8 177.118 6.47545   6
  -3   2   8 170.823 6.09448   1
  -3   2   8 175.724 6.84214   5
  -3   2   8 170.159 6.66666   3
  -3   2   8 181.655 6.71217   6
  -3   2   8 180.469 7.19019   6
  -3   2   8 183.788 6.89430   5
   2  -2  -8 93.6593 5.12614   6
   2  -2  -8 92.0365 4.18330   1
   2  -2  -8 91.0598 4.80176   2
   2  -2  -8 86.1790 4.56329   5
   2  -2  -8 83.3799 4.86148   5
   2  -2  -8 87.0891 4.16419   6
   2  -2  -8 84.5044 3.52329   4
  -2   2   8 81.4980 4.85112   6
  -2   2   8 85.2146 4.06055   1
  -2   2   8 83.4945 4.66154   5
  -2   2   8 90.3457 4.71723   5
  -2   2   8 84.0268 4.41098   6
  -2   2   8 85.4917 4.14488   3
   1  -2  -8 17.1803 2.63485   6
   1  -2  -8 11.8856 1.75463   6
   1  -2  -8 11.4048 2.19006   2
   1  -2  -8 11.8805 1.19148   4
   1  -2  -8 8.43895 2.00849   5
   1  -2  -8 11.4941 2.17232   5
  -1   2   8 10.7941 1.86823   5
  -1   2   8 9.12154 2.02713   6
  -1   2   8 11.6289 1.90106   6
  -1   2   8 18.4279 2.46717   5
  -1   2   8 15.3873 1.96429   3
  -1   2   8 13.8747 1.93517   1
   0  -2  -8 95.9321 4.39787   6
   0  -2  -8 102.103 4.80931   5
   0  -2  -8 107.071 5.29754   6
   0  -2  -8 96.4014 5.20022   5
   0  -2  -8 95.6716 4.78353   2
   0  -2  -8 97.7703 4.73260   1
   0  -2  -8 100.118 3.32501   4
   0   2   8 99.6032 5.02096   5
   0   2   8 100.072 5.24819   6
   0   2   8 98.7947 3.82788   3
   0   2   8 93.7710 4.60632   1
   0   2   8 94.0116 4.63640   6
   0   2   8 92.1578 4.80194   5
  -1  -2  -8 53.3550 4.32845   6
  -1  -2  -8 68.0647 4.48145   5
  -1  -2  -8 53.0169 3.87081   2
  -1  -2  -8 59.3655 2.21614   4
  -1  -2  -8 63.6667 4.22715   1
  -1  -2  -8 58.3331 3.55801   6
  -1  -2  -8 60.8758 4.06765   5
   1   2   8 61.2650 4.44666   6
   1   2   8 62.4041 4.05361   1
   1   2   8 64.0719 4.17819   5
   1   2   8 64.4334 4.28699   5
   1   2   8 63.8149 3.91997   6
  -2  -2  -8 128.753 5.73803   2
  -2  -2  -8 142.303 6.13268   6
  -2  -2  -8 133.974 5.76363   5
  -2  -2  -8 129.860 5.31121   6
  -2  -2  -8 125.611 5.97178   5
  -2  -2  -8 138.172 6.37001   1
   2   2   8 134.528 5.77794   6
   2   2   8 126.401 5.86919   1
   2   2   8 131.911 5.95769   5
   2   2   8 131.634 5.80334   5
   2   2   8 131.843 6.33520   6
  -3  -2  -8 35.6922 3.31907   5
  -3  -2  -8 35.1435 3.63026   2
  -3  -2  -8 30.7367 3.62746   6
  -3  -2  -8 36.0751 3.22716   6
  -3  -2  -8 38.3717 3.10223   5
   3   2   8 31.2356 3.26655   1
   3   2   8 37.6655 3.96829   6
   3   2   8 33.3163 3.54112   5
   3   2   8 40.2972 4.15917   6
   3   2   8 34.8959 3.49470   5
  -4  -2  -8 9.88525 2.62936   6
  -4  -2  -8 11.7771 2.83145   2
  -4  -2  -8 8.19179 2.37129   5
  -4  -2  -8 9.37268 1.98263   6
  -4  -2  -8 12.5375 2.16503   5
   4   2   8 6.53237 2.36656   6
   4   2   8 8.62379 2.37772   5
   4   2   8 12.4340 2.70468   5
   4   2   8 5.94691 2.50098   6
   4   2   8 11.5925 3.44699   1
  -5  -2  -8 97.0391 4.19299   5
  -5  -2  -8 90.8474 5.78284   2
  -5  -2  -8 89.5119 5.35706   6
  -5  -2  -8 91.1397 4.40461   5
  -5  -2  -8 95.5275 4.81976   6
   5   2   8 90.7944 7.12320   6
   5   2   8 85.9297 5.98310   5
   5   2   8 76.2718 7.61179   1
   5   2   8 89.1088 5.75894   5
  -6  -2  -8 2.24882 2.10759   6
  -6  -2  -8 1.31792 2.36813   6
  -6  -2  -8 0.92751 3.51818   2
   6   2   8 1.82311 3.25992   5
   6   2   8 -2.5374 4.96890   1
   8  -3  -8 14.6029 3.71166   5
   8  -3  -8 11.0441 4.62265   4
  -8   3   8 6.21156 3.67165   3
  -8   3   8 9.57316 3.27399   6
   7  -3  -8 3.04501 2.32333   1
   7  -3  -8 3.21181 3.27694   4
   7  -3  -8 0.53158 3.01695   2
   7  -3  -8 0.70066 2.81885   6
   7  -3  -8 1.10318 2.83887   5
  -7   3   8 -1.5948 3.05789   3
  -7   3   8 -0.2008 2.87415   6
  -7   3   8 0.36597 2.27126   5
   6  -3  -8 -0.8819 1.72390   1
   6  -3  -8 2.77513 2.77113   4
   6  -3  -8 2.43965 2.50538   2
   6  -3  -8 -0.4057 3.89805   4
   6  -3  -8 0.66459 3.10183   6
   6  -3  -8 1.62782 2.42616   5
   6  -3  -8 -2.3231 2.42871   5
   6  -3  -8 4.62120 2.07972   6
  -6   3   8 -0.0105 2.65905   5
  -6   3   8 -0.9317 1.71045   1
  -6   3   8 3.11874 2.65205   3
  -6   3   8 -1.8893 2.57334   6
  -6   3   8 1.55007 2.74618   6
  -6   3   8 0.88030 2.30648   5
   5  -3  -8 30.5816 3.66187   4
   5  -3  -8 34.1431 3.76583   6
   5  -3  -8 33.8463 3.65930   5
   5  -3  -8 37.9377 4.47492   4
   5  -3  -8 25.9099 3.66393   5
   5  -3  -8 31.9452 2.42093   1
   5  -3  -8 19.3980 3.11346   2
   5  -3  -8 33.1543 3.50355   6
  -5   3   8 29.3151 3.18707   5
  -5   3   8 33.3186 3.45253   6
  -5   3   8 33.0859 3.12158   6
  -5   3   8 35.8624 3.70361   3
  -5   3   8 35.6256 3.09232   1
  -5   3   8 36.5513 3.09081   5
   4  -3  -8 11.8279 2.51465   5
   4  -3  -8 8.69140 1.94869   6
   4  -3  -8 12.9176 2.89425   5
   4  -3  -8 11.0346 2.59565   4
   4  -3  -8 11.6896 2.70179   6
   4  -3  -8 13.7305 2.04550   4
   4  -3  -8 9.72987 2.68274   2
   4  -3  -8 15.2330 2.02145   1
  -4   3   8 9.17751 2.14433   5
  -4   3   8 6.78782 2.36065   5
  -4   3   8 13.0387 1.84439   1
  -4   3   8 5.70879 2.33073   3
  -4   3   8 9.00068 2.16552   6
  -4   3   8 10.3110 2.55038   6
   3  -3  -8 52.1361 3.66134   6
   3  -3  -8 65.2378 3.67831   1
   3  -3  -8 52.1520 3.97658   4
   3  -3  -8 54.2047 4.97028   6
   3  -3  -8 55.4540 4.22149   2
   3  -3  -8 58.8579 4.19889   5
   3  -3  -8 57.9087 3.28472   4
   3  -3  -8 56.1159 4.90348   5
  -3   3   8 58.0570 4.53049   5
  -3   3   8 64.2903 4.72069   6
  -3   3   8 53.9200 3.40259   1
  -3   3   8 58.5134 4.30298   6
  -3   3   8 57.7217 3.94590   3
  -3   3   8 55.4881 4.62193   5
   2  -3  -8 16.1811 2.63427   2
   2  -3  -8 15.9294 2.00442   4
   2  -3  -8 13.9999 2.16039   5
   2  -3  -8 13.0173 2.74485   5
   2  -3  -8 18.0101 2.09141   6
   2  -3  -8 16.6719 1.55478   4
   2  -3  -8 21.1164 3.06070   6
   2  -3  -8 18.7776 2.11981   1
  -2   3   8 15.8421 2.64363   5
  -2   3   8 15.5155 2.24358   6
  -2   3   8 17.7459 2.44229   3
  -2   3   8 17.0346 2.02018   1
  -2   3   8 25.9656 3.16171   6
   1  -3  -8 55.6892 3.05978   4
   1  -3  -8 56.2806 3.74666   1
   1  -3  -8 54.6539 4.62218   6
   1  -3  -8 59.3796 4.55299   5
   1  -3  -8 57.9741 2.47402   4
   1  -3  -8 61.1290 4.11276   5
   1  -3  -8 56.6820 4.08398   2
   1  -3  -8 58.4255 3.62687   6
  -1   3   8 56.9341 3.62047   1
  -1   3   8 62.5395 4.34026   5
  -1   3   8 51.4028 3.40867   3
  -1   3   8 57.7659 4.51682   6
  -1   3   8 55.6132 4.06579   6
  -1   3   8 63.7674 4.51523   5
   0  -3  -8 2.96642 0.99605   4
   0  -3  -8 1.14788 1.86734   5
   0  -3  -8 0.70007 2.12240   6
   0  -3  -8 1.77465 1.43193   6
   0  -3  -8 2.64278 0.76710   4
   0  -3  -8 -0.0029 1.83712   1
   0  -3  -8 0.63095 2.03323   5
   0  -3  -8 3.80992 1.98574   2
   0   3   8 2.00535 1.62506   3
   0   3   8 5.84026 2.18499   5
   0   3   8 1.05361 2.05457   6
   0   3   8 2.30543 1.78047   1
   0   3   8 4.12617 2.21206   5
   0   3   8 1.55891 1.76050   6
  -1  -3  -8 56.8902 4.46802   1
  -1  -3  -8 54.7926 3.92107   2
  -1  -3  -8 54.7199 4.63846   5
  -1  -3  -8 52.9172 3.47233   6
  -1  -3  -8 47.2755 4.22297   5
  -1  -3  -8 52.8603 4.48542   6
   1   3   8 50.8660 4.62960   6
   1   3   8 48.4989 4.16222   6
   1   3   8 55.2544 4.07715   1
   1   3   8 53.8629 4.18076   5
   1   3   8 49.7174 2.60858   3
   1   3   8 48.1784 4.31149   5
  -2  -3  -8 0.62053 1.61738   6
  -2  -3  -8 0.91769 2.30186   5
  -2  -3  -8 -1.0583 1.61147   5
  -2  -3  -8 1.69289 2.04899   6
  -2  -3  -8 -1.0372 2.04966   2
   2   3   8 0.48627 2.15462   6
   2   3   8 -0.5425 2.34265   5
   2   3   8 3.36671 2.42497   5
   2   3   8 -2.3955 2.35580   1
   2   3   8 -0.1088 2.98508   6
  -3  -3  -8 8.18780 2.09565   5
  -3  -3  -8 9.70128 2.85852   6
  -3  -3  -8 11.6674 2.04333   6
  -3  -3  -8 7.66126 2.71180   5
  -3  -3  -8 12.9716 2.64809   2
   3   3   8 11.7247 2.93738   5
   3   3   8 15.2460 3.05484   1
   3   3   8 12.6587 2.51924   5
   3   3   8 9.67809 2.61138   6
   3   3   8 9.73918 2.73696   6
  -4  -3  -8 186.057 7.60200   5
  -4  -3  -8 191.297 8.02067   2
  -4  -3  -8 195.596 8.00047   6
  -4  -3  -8 203.439 7.25493   5
  -4  -3  -8 206.485 7.22713   6
   4   3   8 192.876 8.86637   1
   4   3   8 198.156 8.32427   5
   4   3   8 202.713 8.77621   6
   4   3   8 192.502 8.37337   6
   4   3   8 195.115 8.16180   5
  -5  -3  -8 4.87341 2.84871   6
  -5  -3  -8 2.92869 1.91652   5
  -5  -3  -8 3.33245 2.19379   6
  -5  -3  -8 0.67667 2.89091   2
   5   3   8 5.90599 4.00410   6
   5   3   8 1.92210 3.13795   5
   5   3   8 6.57372 3.38207   5
   5   3   8 11.5117 4.35354   1
  -6  -3  -8 6.59452 2.27044   6
  -6  -3  -8 10.2386 4.04636   2
  -6  -3  -8 14.9827 2.60999   6
   6   3   8 14.7133 3.95763   5
   6   3   8 10.7818 5.60815   1
   8  -4  -8 5.81467 4.03633   5
   8  -4  -8 0.15904 3.46410   2
   8  -4  -8 -2.1976 4.71625   4
  -8   4   8 6.58758 3.81167   3
  -8   4   8 5.09306 3.57882   6
   7  -4  -8 6.76552 3.29724   2
   7  -4  -8 16.5967 5.23211   6
   7  -4  -8 6.53877 5.45202   5
   7  -4  -8 14.8463 3.77133   4
   7  -4  -8 11.7021 3.42058   5
  -7   4   8 14.7849 3.48647   5
  -7   4   8 16.9838 3.69249   6
  -7   4   8 8.36946 3.45881   3
   6  -4  -8 7.24453 2.81132   4
   6  -4  -8 7.42154 4.03766   4
   6  -4  -8 3.67204 2.78207   5
   6  -4  -8 0.85610 3.61392   6
   6  -4  -8 4.32859 3.04337   2
   6  -4  -8 7.29027 2.54323   6
   6  -4  -8 3.24367 1.66545   1
   6  -4  -8 6.72695 3.67724   5
  -6   4   8 8.24757 3.21481   6
  -6   4   8 5.83118 1.53544   1
  -6   4   8 8.80901 2.93979   3
  -6   4   8 7.37979 2.76543   5
   5  -4  -8 21.4190 2.29689   1
   5  -4  -8 17.6384 2.68571   4
   5  -4  -8 20.6145 3.84631   4
   5  -4  -8 11.7784 2.88809   2
   5  -4  -8 16.3728 3.08074   5
   5  -4  -8 19.4214 2.79167   6
   5  -4  -8 19.6767 3.15240   5
   5  -4  -8 20.9017 3.41914   6
  -5   4   8 19.6213 3.04032   5
  -5   4   8 18.3815 3.30592   5
  -5   4   8 19.5914 1.93883   1
  -5   4   8 15.4621 3.17908   3
  -5   4   8 16.4146 3.13307   6
   4  -4  -8 343.691 10.5164   1
   4  -4  -8 343.707 10.9776   4
   4  -4  -8 363.154 11.8351   4
   4  -4  -8 357.391 12.1916   5
   4  -4  -8 356.871 12.4808   6
   4  -4  -8 348.412 11.7127   5
   4  -4  -8 361.613 11.4140   6
   4  -4  -8 322.461 11.9631   2
  -4   4   8 355.971 11.8501   6
  -4   4   8 337.499 11.8268   3
  -4   4   8 353.788 10.5022   1
  -4   4   8 350.838 12.3673   6
  -4   4   8 344.853 11.8548   5
  -4   4   8 369.704 12.1694   5
   3  -4  -8 0.42281 2.73284   5
   3  -4  -8 -0.9484 1.85765   6
   3  -4  -8 1.65152 2.21656   4
   3  -4  -8 -0.0155 2.41733   6
   3  -4  -8 0.41799 1.49977   4
   3  -4  -8 0.47407 1.97234   5
   3  -4  -8 1.13126 1.60434   1
   3  -4  -8 -0.1080 2.02655   2
  -3   4   8 -1.3497 2.05940   3
  -3   4   8 -2.6159 1.50947   1
  -3   4   8 -0.1316 2.27865   6
  -3   4   8 -2.0862 2.46096   5
  -3   4   8 0.95341 1.93329   6
  -3   4   8 0.21457 2.27672   5
   2  -4  -8 135.506 5.86148   6
   2  -4  -8 142.901 7.05169   6
   2  -4  -8 123.297 6.15547   2
   2  -4  -8 134.477 6.23837   5
   2  -4  -8 140.294 4.95718   4
   2  -4  -8 141.768 5.48202   4
   2  -4  -8 137.523 5.66939   1
   2  -4  -8 146.552 7.00012   5
  -2   4   8 143.909 6.93255   6
  -2   4   8 138.593 6.64804   5
  -2   4   8 139.552 6.45012   6
  -2   4   8 149.989 6.83916   5
  -2   4   8 144.813 5.53379   1
  -2   4   8 142.399 5.94219   3
   1  -4  -8 86.9224 4.64588   1
   1  -4  -8 82.7410 3.65000   4
   1  -4  -8 87.4114 5.62742   6
   1  -4  -8 82.2991 5.94311   5
   1  -4  -8 82.3186 4.81364   2
   1  -4  -8 84.5515 5.02824   5
   1  -4  -8 84.5284 3.17867   4
   1  -4  -8 85.0134 4.44771   6
  -1   4   8 83.1539 4.43651   1
  -1   4   8 86.6822 5.61338   6
  -1   4   8 92.8024 5.65047   5
  -1   4   8 92.2076 5.48175   5
  -1   4   8 80.2849 4.33806   3
  -1   4   8 86.9837 5.22715   6
   0  -4  -8 12.9251 2.69351   5
   0  -4  -8 11.8643 1.04012   4
   0  -4  -8 11.2163 0.88878   4
   0  -4  -8 13.5237 2.52145   5
   0  -4  -8 9.80969 2.76269   6
   0  -4  -8 10.9127 1.89169   6
   0  -4  -8 12.6230 2.68938   2
   0   4   8 7.73963 2.54826   6
   0   4   8 8.06577 2.12341   1
   0   4   8 6.66753 2.50007   6
   0   4   8 11.1317 2.45459   5
   0   4   8 13.4762 3.42997   3
   0   4   8 16.2528 3.03626   5
  -1  -4  -8 44.0133 4.55350   6
  -1  -4  -8 39.1586 3.47714   6
  -1  -4  -8 42.9569 3.94482   5
  -1  -4  -8 30.6233 3.25771   2
   1   4   8 38.7448 3.07995   3
   1   4   8 37.6191 3.29433   1
   1   4   8 38.8834 3.69947   5
   1   4   8 36.8878 3.57631   6
   1   4   8 23.6579 2.96785   5
   1   4   8 42.4692 4.20164   6
  -2  -4  -8 39.6973 3.76047   6
  -2  -4  -8 39.4450 4.02653   5
  -2  -4  -8 50.5742 5.13671   6
  -2  -4  -8 44.1046 4.04913   2
  -2  -4  -8 36.8716 3.68355   5
   2   4   8 34.4394 3.75872   6
   2   4   8 30.9949 3.55702   1
   2   4   8 41.9366 3.93829   5
   2   4   8 48.6592 5.14842   5
   2   4   8 48.4404 4.01679   6
  -3  -4  -8 80.9709 4.93117   5
  -3  -4  -8 74.2057 5.69555   5
  -3  -4  -8 71.6706 5.71545   6
  -3  -4  -8 64.0167 4.91546   2
  -3  -4  -8 73.2330 4.63325   6
   3   4   8 71.7221 5.84300   6
   3   4   8 65.8869 5.56960   5
   3   4   8 81.4472 6.18649   6
   3   4   8 79.5068 5.95598   5
   3   4   8 87.1405 6.22056   1
  -4  -4  -8 9.66045 2.30919   6
  -4  -4  -8 10.8911 3.11363   6
  -4  -4  -8 13.8351 3.17238   2
  -4  -4  -8 8.86341 2.48709   5
   4   4   8 9.56589 3.44185   5
   4   4   8 4.73651 4.04136   1
   4   4   8 6.15505 3.66819   6
   4   4   8 7.75116 3.67766   5
  -5  -4  -8 10.0957 3.35016   6
  -5  -4  -8 11.1732 2.59080   6
  -5  -4  -8 7.42527 3.27138   2
   5   4   8 4.33052 4.97503   1
   5   4   8 8.19416 3.74287   5
   7  -5  -8 19.7745 3.91219   2
   7  -5  -8 21.9369 4.21632   4
   7  -5  -8 25.9943 4.36376   5
  -7   5   8 19.7913 4.28937   6
   6  -5  -8 9.15489 3.31959   5
   6  -5  -8 6.14385 7.81060   4
   6  -5  -8 5.99338 3.23834   4
   6  -5  -8 0.41001 4.51755   5
   6  -5  -8 9.84599 3.04310   6
   6  -5  -8 -1.2556 2.75429   2
  -6   5   8 2.80591 3.15800   3
  -6   5   8 3.37115 3.46745   6
  -6   5   8 4.89849 3.22017   5
   5  -5  -8 1.35363 3.87558   6
   5  -5  -8 0.68481 2.49440   4
   5  -5  -8 0.31495 2.80408   5
   5  -5  -8 0.70389 3.60650   4
   5  -5  -8 -0.3399 2.68939   2
   5  -5  -8 -0.0815 3.60621   5
   5  -5  -8 0.11155 1.90021   6
  -5   5   8 0.09566 2.76109   3
  -5   5   8 4.21383 3.52479   5
  -5   5   8 -1.5855 2.93184   5
  -5   5   8 1.68665 1.32580   1
  -5   5   8 1.94811 3.27160   6
   4  -5  -8 35.2202 3.38506   6
   4  -5  -8 29.3029 3.39639   5
   4  -5  -8 28.0420 2.81641   4
   4  -5  -8 32.8857 3.52463   4
   4  -5  -8 32.5302 4.31184   5
   4  -5  -8 26.6472 3.73926   6
   4  -5  -8 27.6923 3.61551   2
  -4   5   8 29.5477 3.78672   3
  -4   5   8 29.9712 2.93958   1
  -4   5   8 34.5451 3.98229   5
  -4   5   8 34.9649 4.18883   5
  -4   5   8 23.8163 3.62193   6
  -4   5   8 28.2415 3.61985   6
   3  -5  -8 18.9892 3.44775   6
   3  -5  -8 14.4982 3.02783   2
   3  -5  -8 18.4084 2.71764   6
   3  -5  -8 17.2076 2.59513   4
   3  -5  -8 21.6842 3.92715   5
   3  -5  -8 17.4294 2.16149   4
   3  -5  -8 21.7898 3.08172   5
  -3   5   8 22.1228 2.26036   1
  -3   5   8 22.6462 3.74848   5
  -3   5   8 19.3487 3.39340   6
  -3   5   8 18.6434 2.99104   3
  -3   5   8 19.6171 3.50302   5
  -3   5   8 18.0125 3.04940   6
   2  -5  -8 13.0044 2.01202   4
   2  -5  -8 10.1087 2.25971   6
   2  -5  -8 11.4153 1.75340   4
   2  -5  -8 13.4529 3.37188   6
   2  -5  -8 14.3389 3.02645   5
   2  -5  -8 12.4099 2.58055   2
  -2   5   8 19.5025 3.61161   5
  -2   5   8 15.4082 3.38856   6
  -2   5   8 14.3019 2.23737   1
  -2   5   8 11.5835 2.58540   3
  -2   5   8 15.1317 3.27004   5
  -2   5   8 11.0956 2.59770   6
   1  -5  -8 30.1674 3.37929   5
   1  -5  -8 27.7118 3.64931   6
   1  -5  -8 25.9616 2.71406   6
   1  -5  -8 33.2213 3.91542   5
   1  -5  -8 28.9918 2.60384   4
   1  -5  -8 27.2847 2.10939   4
   1  -5  -8 23.3640 3.12355   2
  -1   5   8 26.3714 2.96724   3
  -1   5   8 38.2165 3.97828   6
  -1   5   8 28.6451 3.81713   6
  -1   5   8 26.3273 3.83252   5
  -1   5   8 32.0345 2.85029   1
  -1   5   8 29.5747 3.80969   5
   0  -5  -8 94.5336 6.78211   5
   0  -5  -8 97.5744 6.22742   6
   0  -5  -8 97.6315 5.28631   6
   0  -5  -8 93.9464 5.70607   5
   0  -5  -8 88.0086 5.15972   2
   0   5   8 99.1553 5.30760   1
   0   5   8 104.360 6.48466   6
   0   5   8 104.786 6.22054   6
   0   5   8 90.6323 4.72111   3
   0   5   8 88.3850 6.63941   5
   0   5   8 94.1992 6.31119   5
  -1  -5  -8 -1.5751 3.25329   5
  -1  -5  -8 1.43065 2.32324   6
  -1  -5  -8 1.35443 2.27893   2
  -1  -5  -8 -0.6826 2.43221   6
   1   5   8 -1.1882 2.18176   3
   1   5   8 1.66301 3.26490   6
   1   5   8 -2.5533 3.11438   1
   1   5   8 3.36381 3.01353   5
   1   5   8 0.06082 3.24004   5
   1   5   8 1.09952 3.11370   6
  -2  -5  -8 39.0365 4.20156   6
  -2  -5  -8 35.3353 4.05829   5
  -2  -5  -8 51.1674 4.74771   5
  -2  -5  -8 37.8920 3.93428   2
  -2  -5  -8 48.4755 5.29824   6
   2   5   8 28.0500 3.66965   6
   2   5   8 46.5890 4.27847   5
   2   5   8 41.9583 4.26258   5
   2   5   8 45.8452 4.17982   1
   2   5   8 39.3125 4.27315   6
  -3  -5  -8 -1.5011 2.57393   2
  -3  -5  -8 1.69114 2.36639   6
  -3  -5  -8 2.02959 2.42337   5
  -3  -5  -8 -0.5783 3.23234   6
   3   5   8 -0.7668 4.65265   6
   3   5   8 4.00742 3.78614   1
   3   5   8 5.50092 3.92900   5
   3   5   8 0.68799 3.69118   6
   3   5   8 2.70994 3.28529   5
  -4  -5  -8 3.30629 2.52114   6
  -4  -5  -8 2.78030 3.59697   6
  -4  -5  -8 6.56069 2.94953   5
  -4  -5  -8 2.38216 3.10867   2
   4   5   8 0.12639 3.74293   5
   4   5   8 5.86199 4.56534   1
  -5  -5  -8 96.8435 10.1327   2
  -5  -5  -8 91.4435 5.72587   6
   5   5   8 95.4982 8.64113   5
   5   5   8 123.407 12.1797   1
   7  -6  -8 3.40182 4.79842   5
  -7   6   8 2.67245 4.17286   3
  -7   6   8 -1.2499 4.59925   6
   6  -6  -8 15.7555 4.42062   5
   6  -6  -8 20.1057 3.99005   2
   6  -6  -8 16.2370 5.30309   6
  -6   6   8 14.1478 3.90548   3
  -6   6   8 23.3651 4.94878   6
   5  -6  -8 9.09186 3.24475   6
   5  -6  -8 6.04291 4.08931   4
   5  -6  -8 9.84345 3.83536   5
   5  -6  -8 7.45642 4.96722   6
   5  -6  -8 11.0459 4.89689   5
   5  -6  -8 5.40756 2.97955   2
  -5   6   8 11.9481 3.59128   5
  -5   6   8 12.4722 3.93340   6
  -5   6   8 7.53214 3.35532   3
   4  -6  -8 4.55810 3.37537   5
   4  -6  -8 11.9973 4.46300   6
   4  -6  -8 10.7206 3.45518   4
   4  -6  -8 10.8451 3.05332   6
   4  -6  -8 12.1988 4.31974   5
   4  -6  -8 9.63574 3.07942   2
  -4   6   8 10.5870 3.71062   5
  -4   6   8 13.1610 4.27748   5
  -4   6   8 8.94693 1.75635   1
  -4   6   8 9.87231 3.44254   3
  -4   6   8 11.5800 3.86887   6
   3  -6  -8 337.273 12.7740   6
   3  -6  -8 296.384 11.4412   2
   3  -6  -8 329.550 10.7763   4
   3  -6  -8 323.869 13.1483   5
   3  -6  -8 317.757 11.8292   5
   3  -6  -8 333.648 11.3580   6
  -3   6   8 320.041 12.7579   5
  -3   6   8 313.597 10.0358   1
  -3   6   8 322.641 11.9492   5
  -3   6   8 321.051 12.4387   6
  -3   6   8 308.483 11.2472   3
  -3   6   8 341.740 12.4507   6
   2  -6  -8 -2.5422 3.89771   5
   2  -6  -8 -0.4457 3.06598   5
   2  -6  -8 -0.3229 1.66559   4
   2  -6  -8 1.50251 2.36594   2
   2  -6  -8 0.81845 4.25218   6
   2  -6  -8 -3.0756 1.85838   4
   2  -6  -8 -1.4603 2.41670   6
  -2   6   8 6.40281 4.03912   5
  -2   6   8 -1.7229 3.41946   6
  -2   6   8 0.18071 3.49258   5
  -2   6   8 1.55799 2.54499   3
  -2   6   8 2.31202 2.13793   1
  -2   6   8 -0.9638 2.98298   6
   1  -6  -8 63.5673 6.54497   6
   1  -6  -8 59.5926 4.75798   2
   1  -6  -8 66.6137 3.05862   4
   1  -6  -8 65.3356 5.72353   5
   1  -6  -8 76.8512 5.91176   5
   1  -6  -8 67.4674 3.34842   4
   1  -6  -8 64.9523 5.15838   6
  -1   6   8 77.8102 6.63170   6
  -1   6   8 62.0591 4.96095   3
  -1   6   8 64.0002 4.97870   1
  -1   6   8 68.2807 6.69043   5
  -1   6   8 62.2892 6.57733   6
  -1   6   8 70.1405 7.08297   5
   0  -6  -8 37.9632 3.65381   5
   0  -6  -8 52.5056 5.25791   5
   0  -6  -8 61.9311 6.59354   6
   0  -6  -8 50.2269 4.77786   2
   0   6   8 61.9924 6.60481   6
   0   6   8 48.9636 4.80361   5
   0   6   8 56.4215 5.37457   6
   0   6   8 47.3778 4.74169   5
   0   6   8 42.1478 3.84728   1
   0   6   8 53.9763 4.50053   3
  -1  -6  -8 1.04124 3.54668   5
  -1  -6  -8 8.31757 3.80597   6
  -1  -6  -8 5.94255 2.70406   6
  -1  -6  -8 0.86480 2.48019   2
  -1  -6  -8 5.02411 3.33137   5
   1   6   8 4.90686 2.71119   3
   1   6   8 2.92497 3.65328   6
   1   6   8 8.07140 3.86125   5
   1   6   8 4.31262 3.07943   1
   1   6   8 2.22194 3.69061   6
   1   6   8 6.36343 4.12754   5
  -2  -6  -8 11.6942 3.26826   5
  -2  -6  -8 5.72456 2.93585   2
  -2  -6  -8 7.68721 2.75438   6
   2   6   8 14.1581 4.70736   5
   2   6   8 14.6201 4.29175   5
   2   6   8 15.2255 4.10277   6
   2   6   8 10.6763 3.93697   1
   2   6   8 10.6859 4.86425   6
  -3  -6  -8 9.03317 4.34886   6
  -3  -6  -8 20.0704 3.25969   6
  -3  -6  -8 16.6242 3.75577   2
  -3  -6  -8 14.9980 3.89788   5
   3   6   8 23.4593 4.77512   1
   3   6   8 21.5164 4.66503   5
  -4  -6  -8 31.2100 3.65682   6
  -4  -6  -8 34.3141 4.61208   2
   4   6   8 40.2685 6.41856   1
   4   6   8 41.4893 5.32713   5
   6  -7  -8 26.3499 5.31205   5
  -6   7   8 19.7672 4.39179   3
  -6   7   8 34.4363 6.28055   6
   5  -7  -8 3.88830 3.25402   2
   5  -7  -8 9.30649 5.21828   4
   5  -7  -8 4.69408 4.05300   5
   5  -7  -8 6.51504 8.25424   5
   5  -7  -8 11.0343 3.62119   6
  -5   7   8 13.7602 5.07887   6
  -5   7   8 4.83852 3.54130   3
   4  -7  -8 1.87840 3.00455   2
   4  -7  -8 4.90975 4.90593   5
   4  -7  -8 -3.7134 5.22488   6
   4  -7  -8 8.43085 4.14760   5
   4  -7  -8 -0.4952 2.68431   6
   4  -7  -8 2.05964 3.87879   4
  -4   7   8 0.90643 6.78812   5
  -4   7   8 1.89833 3.85759   5
  -4   7   8 -0.0411 4.50258   6
  -4   7   8 1.15268 1.73072   1
  -4   7   8 4.53528 3.12173   3
  -4   7   8 1.34134 1.59624   1
   3  -7  -8 17.7785 3.44435   4
   3  -7  -8 13.6050 4.09939   5
   3  -7  -8 13.8851 3.34350   2
   3  -7  -8 17.3187 3.27211   6
   3  -7  -8 10.0657 3.84829   6
   3  -7  -8 18.9928 5.29835   5
  -3   7   8 10.8390 4.96237   6
  -3   7   8 13.9077 4.36045   5
  -3   7   8 11.9085 3.22814   3
  -3   7   8 10.2156 2.34901   1
  -3   7   8 16.5437 5.71782   5
   2  -7  -8 21.1014 3.99279   5
   2  -7  -8 27.8353 2.50734   4
   2  -7  -8 28.3027 3.78533   2
   2  -7  -8 14.4634 3.89343   6
   2  -7  -8 22.2098 4.62329   5
   2  -7  -8 30.2929 3.86769   6
  -2   7   8 31.4831 4.91379   5
  -2   7   8 26.0691 3.07727   1
  -2   7   8 29.5297 5.16172   5
  -2   7   8 23.5915 3.66693   3
  -2   7   8 27.2749 4.68463   6
   1  -7  -8 -1.0496 3.34964   5
   1  -7  -8 2.72304 1.62005   4
   1  -7  -8 1.48028 4.13748   6
   1  -7  -8 2.82538 3.87619   6
   1  -7  -8 1.74689 1.42605   4
   1  -7  -8 -4.8904 4.00219   5
   1  -7  -8 0.89479 2.75506   2
  -1   7   8 -1.4354 2.93175   1
  -1   7   8 -1.1821 2.83341   3
  -1   7   8 9.04570 4.31615   6
  -1   7   8 1.04284 4.82424   5
  -1   7   8 -4.0032 4.27515   5
   0  -7  -8 21.3352 3.45086   2
   0  -7  -8 30.5694 3.91877   6
   0  -7  -8 28.1273 4.64512   6
   0  -7  -8 21.6095 5.40703   5
   0  -7  -8 24.2613 3.99497   5
   0   7   8 16.9876 7.29779   5
   0   7   8 25.7113 6.77834   5
   0   7   8 31.3290 5.07055   6
   0   7   8 24.4909 3.40481   3
   0   7   8 21.6392 3.95892   1
  -1  -7  -8 81.6558 6.37953   6
  -1  -7  -8 99.0425 8.51195   6
  -1  -7  -8 73.7572 5.86172   2
  -1  -7  -8 91.3858 7.04943   5
   1   7   8 78.1477 8.26333   6
   1   7   8 90.4174 7.74304   5
   1   7   8 85.2284 8.82630   5
   1   7   8 82.9124 5.69430   3
   1   7   8 75.1730 7.27177   1
  -2  -7  -8 2.13390 3.63808   2
  -2  -7  -8 1.26999 3.16956   6
   2   7   8 -4.0520 4.70483   5
   2   7   8 2.61518 4.67826   1
  -3  -7  -8 26.7753 3.88414   6
  -3  -7  -8 14.8343 3.63859   2
   3   7   8 24.1988 5.90264   5
   3   7   8 20.2873 5.99342   1
   5  -8  -8 23.5892 5.43442   5
   5  -8  -8 8.35896 3.60826   2
  -5   8   8 10.7099 4.02068   3
  -5   8   8 9.99720 6.23433   6
   4  -8  -8 18.3075 4.65732   4
   4  -8  -8 8.25595 5.30404   2
   4  -8  -8 13.3976 5.08257   5
   4  -8  -8 9.76662 12.9586   5
   4  -8  -8 10.3631 4.01417   6
   4  -8  -8 4.87121 6.19145   6
  -4   8   8 6.60114 3.49540   3
  -4   8   8 4.37821 5.53904   6
   3  -8  -8 6.42167 3.33594   2
   3  -8  -8 7.90223 6.72626   5
   3  -8  -8 2.25678 6.35667   6
   3  -8  -8 4.50423 3.90861   6
   3  -8  -8 12.2543 4.97942   5
   3  -8  -8 9.03894 3.67584   4
  -3   8   8 9.38862 5.29435   6
  -3   8   8 7.30908 4.57282   1
  -3   8   8 14.0788 6.74713   5
  -3   8   8 2.11748 5.41322   5
  -3   8   8 5.87252 2.57977   1
  -3   8   8 3.78206 3.30650   3
   2  -8  -8 180.097 8.92421   2
   2  -8  -8 205.656 12.1915   6
   2  -8  -8 203.586 10.4114   5
   2  -8  -8 181.080 13.2281   5
   2  -8  -8 205.655 9.72759   6
   2  -8  -8 201.774 7.70665   4
  -2   8   8 212.556 11.8243   5
  -2   8   8 188.072 8.74957   3
  -2   8   8 196.076 8.58776   1
  -2   8   8 197.147 13.5147   5
  -2   8   8 146.404 15.1609   6
  -2   8   8 198.936 8.25350   1
   1  -8  -8 -2.7406 1.66760   4
   1  -8  -8 9.22830 4.25786   5
   1  -8  -8 4.96501 3.98681   6
   1  -8  -8 -3.7888 5.24511   6
   1  -8  -8 4.78800 8.73837   5
   1  -8  -8 -2.0830 2.83360   2
  -1   8   8 -3.4454 6.77206   5
  -1   8   8 2.39477 6.34275   6
  -1   8   8 -1.8893 3.20299   3
  -1   8   8 6.14160 8.09997   5
  -1   8   8 4.03580 3.62696   1
   0  -8  -8 12.4238 4.04143   2
   0  -8  -8 14.8882 4.19935   6
   0   8   8 23.7871 5.99665   5
   0   8   8 14.6313 3.59070   3
   0   8   8 27.5206 5.96413   6
   0   8   8 12.7682 8.24155   5
   0   8   8 8.72454 4.60231   1
  -1  -8  -8 12.0005 3.41496   2
  -1  -8  -8 19.0112 4.32009   6
   1   8   8 3.65798 6.01270   5
   1   8   8 12.1425 5.06743   1
   1   8   8 17.2016 4.04480   3
   3  -9  -8 2.59480 4.99722   6
   2  -9  -8 3.13768 3.16175   2
   2  -9  -8 -3.4916 4.77782   6
  -2   9   8 4.26711 6.38614   6
  -2   9   8 3.41328 3.74288   3
  -2   9   8 15.3807 7.57246   5
  -2   9   8 2.72119 4.81876   1
   1  -9  -8 17.9524 3.97500   2
   1  -9  -8 30.8055 5.49262   6
  -1   9   8 23.3950 4.47787   3
  -1   9   8 26.7888 7.08583   5
  -1   9   8 29.4853 4.71304   1
   0  -9   9 5.17827 5.87154   1
   3   8  -9 -9.6189 6.69733   5
   3   8  -9 -3.5612 3.47947   3
  -3  -8   9 0.18198 3.45615   2
   2   8  -9 23.3358 6.73794   5
   2   8  -9 31.5763 5.30617   4
   2   8  -9 19.5347 3.99676   3
  -2  -8   9 27.8897 6.01580   1
   1   8  -9 1.95575 4.91128   6
   1   8  -9 4.40699 6.87229   6
   1   8  -9 -2.1232 5.47639   5
   1   8  -9 -1.6611 3.06912   3
   1   8  -9 0.84748 4.45786   4
   1   8  -9 2.15123 7.30467   5
  -1  -8   9 -1.0096 6.29831   5
  -1  -8   9 3.78351 5.08148   1
   0   8  -9 12.0498 5.90942   5
   0   8  -9 -2.9581 4.06054   4
   0   8  -9 -5.1967 7.00462   5
   0   8  -9 11.9283 5.32511   6
   0   8  -9 8.17564 3.38872   3
   0   8  -9 18.4175 7.26552   6
   0  -8   9 -3.5112 6.01649   5
   0  -8   9 6.16795 4.83308   1
   0  -8   9 11.2879 4.55811   5
   0  -8   9 2.05154 4.76203   6
  -1   8  -9 11.0938 4.66458   4
  -1   8  -9 7.40622 5.42530   6
  -1   8  -9 14.4283 3.64437   3
  -1   8  -9 22.3812 7.16440   5
  -1   8  -9 16.7024 5.41741   5
  -1   8  -9 25.4999 7.35477   6
   1  -8   9 15.0095 5.56075   5
   1  -8   9 7.99641 4.75148   6
   1  -8   9 17.4218 6.68222   5
   1  -8   9 13.0837 4.64226   1
  -2   8  -9 11.7229 5.88474   6
  -2   8  -9 12.7251 6.23779   5
  -2   8  -9 14.4016 3.69172   3
  -2   8  -9 15.5622 5.20131   4
   2  -8   9 13.0675 7.24714   5
   2  -8   9 25.2200 6.22124   5
   2  -8   9 9.20434 4.90468   1
   2  -8   9 13.2112 5.59493   6
  -3   8  -9 -4.1973 5.31494   4
  -3   8  -9 8.03176 3.75683   3
  -3   8  -9 0.30891 6.20191   6
   3  -8   9 2.47750 5.71560   5
   3  -8   9 5.66463 5.09285   1
   4   7  -9 45.5975 5.74161   4
   4   7  -9 56.0408 6.97447   5
  -4  -7   9 48.9263 6.13114   1
  -4  -7   9 56.2750 5.64901   2
   3   7  -9 10.3799 3.47275   3
   3   7  -9 8.92243 4.05682   4
   3   7  -9 15.6999 5.50394   5
   3   7  -9 13.2808 5.99555   6
  -3  -7   9 -2.1115 4.61176   1
   2   7  -9 5.26155 5.80274   6
   2   7  -9 -0.4702 2.71432   3
   2   7  -9 -1.0418 5.05178   5
   2   7  -9 0.48721 3.61057   4
   2   7  -9 5.86156 4.45345   6
   2   7  -9 -4.1537 4.71530   5
  -2  -7   9 2.19017 4.40056   1
  -2  -7   9 1.24378 3.25050   6
  -2  -7   9 6.82412 3.85298   5
   1   7  -9 -0.8723 4.82828   5
   1   7  -9 1.42273 2.63965   3
   1   7  -9 2.26456 3.56991   4
   1   7  -9 -1.2373 4.97659   5
   1   7  -9 9.49214 5.20620   6
   1   7  -9 3.31422 4.06703   6
  -1  -7   9 -1.8079 3.01126   6
  -1  -7   9 1.13656 4.08419   5
  -1  -7   9 3.31798 4.63164   5
  -1  -7   9 0.33530 3.88960   1
   0   7  -9 5.04182 5.03175   6
   0   7  -9 11.0141 5.06871   5
   0   7  -9 -2.3216 3.89134   6
   0   7  -9 -0.5376 2.69564   3
   0   7  -9 0.42738 3.32904   4
   0   7  -9 2.66873 4.36173   5
   0  -7   9 -4.5647 4.43426   5
   0  -7   9 -3.4164 3.67193   1
   0  -7   9 -7.0776 3.59659   5
  -1   7  -9 11.6586 4.48181   5
  -1   7  -9 12.5916 5.16092   6
  -1   7  -9 15.7919 5.57361   1
  -1   7  -9 17.9488 5.22876   6
  -1   7  -9 11.2990 4.96796   5
  -1   7  -9 14.1964 4.01413   4
  -1   7  -9 10.2845 3.14709   3
   1  -7   9 8.55792 3.97384   1
   1  -7   9 16.0656 3.98363   6
   1  -7   9 11.1833 4.49703   5
   1  -7   9 11.4235 4.70739   5
  -2   7  -9 80.2491 7.25254   5
  -2   7  -9 85.3566 7.59868   4
  -2   7  -9 76.6881 6.86516   1
  -2   7  -9 92.5521 9.84290   6
  -2   7  -9 86.3868 8.41989   5
  -2   7  -9 87.2739 5.80722   3
  -2   7  -9 76.9367 6.59810   6
   2  -7   9 74.3513 7.39600   6
   2  -7   9 107.299 7.19904   1
   2  -7   9 95.1722 10.1012   5
   2  -7   9 86.6064 8.94377   5
  -3   7  -9 0.12575 4.78489   6
  -3   7  -9 3.24342 3.05538   3
  -3   7  -9 -7.2633 4.23448   5
  -3   7  -9 6.82381 7.31596   6
  -3   7  -9 -1.1043 4.21426   4
   3  -7   9 -6.3702 3.84040   1
   3  -7   9 -1.6087 4.75050   5
   3  -7   9 -5.9597 3.91051   6
   3  -7   9 2.10073 5.92294   5
  -4   7  -9 84.3296 7.00186   6
  -4   7  -9 72.2860 6.30900   3
  -4   7  -9 89.1547 7.01257   4
   4  -7   9 74.9629 6.03451   1
   4  -7   9 88.6844 7.64740   5
   5   6  -9 60.0793 6.21393   5
   5   6  -9 44.7883 4.99366   4
  -5  -6   9 43.9580 5.96373   1
   4   6  -9 6.73068 4.81580   6
   4   6  -9 5.15259 3.75731   4
   4   6  -9 3.72093 4.79622   5
  -4  -6   9 4.61220 5.16767   6
  -4  -6   9 10.8139 4.90352   5
  -4  -6   9 10.1770 4.44681   1
   3   6  -9 1.84191 4.63563   5
   3   6  -9 5.87582 3.28499   4
   3   6  -9 5.91460 5.00894   6
   3   6  -9 16.1423 4.03771   6
   3   6  -9 5.65832 4.37508   5
  -3  -6   9 6.85492 2.94194   6
  -3  -6   9 2.80087 3.89288   1
   2   6  -9 -3.7623 4.59495   5
   2   6  -9 6.76710 3.70504   6
   2   6  -9 -0.3320 3.70024   5
   2   6  -9 1.55287 2.38698   3
   2   6  -9 -3.4849 4.47153   6
   2   6  -9 2.15223 2.89455   4
  -2  -6   9 7.86914 2.66491   6
  -2  -6   9 6.38516 3.74926   1
  -2  -6   9 1.94381 3.12708   5
  -2  -6   9 3.41637 3.75292   5
   1   6  -9 34.1892 4.65036   1
   1   6  -9 40.7295 3.90835   3
   1   6  -9 40.8361 5.18003   6
   1   6  -9 41.2312 3.87695   4
   1   6  -9 45.2860 4.76923   6
   1   6  -9 33.7801 5.60645   5
   1   6  -9 34.2547 4.66086   5
  -1  -6   9 36.8857 4.26282   4
  -1  -6   9 37.0935 3.64358   6
  -1  -6   9 42.7319 4.71978   5
  -1  -6   9 39.2022 4.19995   1
  -1  -6   9 41.4887 4.57728   5
   0   6  -9 4.83189 3.82541   5
   0   6  -9 -2.4961 2.05302   3
   0   6  -9 0.60046 2.74687   4
   0   6  -9 6.31038 4.05096   6
   0   6  -9 11.7627 4.00854   5
   0   6  -9 0.45478 3.21362   6
   0   6  -9 1.59631 3.53986   1
   0  -6   9 0.40137 3.11936   1
   0  -6   9 -0.6619 2.42146   6
   0  -6   9 -0.2903 3.36002   5
   0  -6   9 -0.7902 3.67883   5
   0  -6   9 5.45434 3.02873   4
  -1   6  -9 19.9259 4.76747   5
  -1   6  -9 28.8358 4.19297   1
  -1   6  -9 21.8835 3.85226   6
  -1   6  -9 31.6633 3.44852   3
  -1   6  -9 24.0462 4.61851   5
  -1   6  -9 27.9850 3.65080   4
  -1   6  -9 36.6323 5.09544   6
   1  -6   9 19.7064 3.28600   4
   1  -6   9 29.6546 4.50110   5
   1  -6   9 26.7980 3.53123   1
   1  -6   9 37.6601 3.97408   6
   1  -6   9 28.5456 4.41886   5
  -2   6  -9 25.9890 4.88937   6
  -2   6  -9 14.9737 3.75184   6
  -2   6  -9 19.6056 4.23167   5
  -2   6  -9 26.0899 4.94432   5
  -2   6  -9 20.3543 4.02073   1
  -2   6  -9 14.1465 3.68459   4
  -2   6  -9 19.3499 3.17202   3
   2  -6   9 17.4950 3.25960   6
   2  -6   9 24.9544 4.43550   5
   2  -6   9 30.0616 4.99874   5
   2  -6   9 16.6772 3.64562   4
   2  -6   9 22.7243 3.68006   1
  -3   6  -9 41.3534 4.95326   6
  -3   6  -9 31.0334 4.32603   5
  -3   6  -9 38.8167 5.50844   6
  -3   6  -9 35.2858 4.59272   1
  -3   6  -9 34.1301 3.86462   3
  -3   6  -9 31.5580 4.21743   4
  -3   6  -9 30.9662 6.40039   5
   3  -6   9 25.3708 4.32201   4
   3  -6   9 30.9047 5.12184   5
   3  -6   9 30.4858 3.94481   1
   3  -6   9 30.3680 4.06968   6
   3  -6   9 36.2200 5.57445   5
  -4   6  -9 8.89706 4.08912   4
  -4   6  -9 9.48986 4.35137   6
  -4   6  -9 9.63693 3.43874   3
  -4   6  -9 -0.6647 4.24260   5
  -4   6  -9 5.04160 4.69875   1
  -4   6  -9 -1.8400 5.01803   6
   4  -6   9 7.00265 4.23860   1
   4  -6   9 2.34423 5.21138   5
   4  -6   9 2.96274 4.74263   5
  -5   6  -9 1.29326 4.69190   6
  -5   6  -9 0.60203 3.60336   3
  -5   6  -9 4.84062 5.12903   4
   5  -6   9 8.26862 4.57001   1
   5  -6   9 7.26604 5.07486   5
   6   5  -9 30.1355 4.94430   5
   6   5  -9 35.8150 5.19916   4
  -6  -5   9 23.9632 5.76692   1
   5   5  -9 19.3364 4.25791   4
   5   5  -9 11.8660 4.22766   5
  -5  -5   9 12.1087 4.54754   1
  -5  -5   9 12.0827 3.13544   6
  -5  -5   9 16.5452 3.92288   5
   4   5  -9 24.3129 4.09542   5
   4   5  -9 22.6060 4.47065   5
   4   5  -9 27.4253 5.37713   6
   4   5  -9 23.4348 3.50344   4
  -4  -5   9 33.5549 3.89430   5
  -4  -5   9 23.1450 4.24226   1
  -4  -5   9 26.8683 3.27525   6
   3   5  -9 85.2234 6.73984   5
   3   5  -9 92.5626 5.53056   4
   3   5  -9 81.5061 7.47658   1
   3   5  -9 85.6800 6.72802   5
   3   5  -9 79.1884 6.33203   6
   3   5  -9 92.0191 7.78690   6
  -3  -5   9 87.5492 5.43092   6
  -3  -5   9 74.0427 6.13905   5
  -3  -5   9 74.8303 6.40433   4
  -3  -5   9 74.4155 6.49136   1
   2   5  -9 23.6983 3.85415   6
   2   5  -9 25.4276 3.91024   5
   2   5  -9 24.8702 4.65968   6
   2   5  -9 19.0347 2.81602   4
   2   5  -9 24.6811 3.96662   5
   2   5  -9 25.3715 4.10213   1
  -2  -5   9 20.2084 3.43451   1
  -2  -5   9 29.4025 3.75052   5
  -2  -5   9 22.9768 3.25857   5
  -2  -5   9 27.1386 3.07453   6
  -2  -5   9 19.1536 3.11617   4
   1   5  -9 7.21514 3.32113   5
   1   5  -9 8.19750 3.06359   6
   1   5  -9 6.61614 2.37624   4
   1   5  -9 7.24870 3.39368   1
   1   5  -9 4.90294 3.48013   6
   1   5  -9 6.13262 2.17554   3
   1   5  -9 5.54690 3.29881   5
  -1  -5   9 8.52094 3.15503   1
  -1  -5   9 3.36340 2.55701   4
  -1  -5   9 8.51063 2.52791   6
  -1  -5   9 4.57113 2.59710   5
  -1  -5   9 7.93384 2.91885   5
   0   5  -9 5.85677 3.00037   5
   0   5  -9 1.88545 2.16814   3
   0   5  -9 -1.5753 3.03046   1
   0   5  -9 -0.6822 2.69699   5
   0   5  -9 -2.0154 3.37664   6
   0   5  -9 1.33586 2.78938   6
   0   5  -9 1.85414 2.37476   4
   0  -5   9 2.94258 2.81682   5
   0  -5   9 2.38829 2.42169   5
   0  -5   9 4.22366 2.52796   4
   0  -5   9 1.41289 2.59854   6
   0  -5   9 4.69487 2.83981   1
  -1   5  -9 2.15032 2.77435   6
  -1   5  -9 -0.8271 2.27693   2
  -1   5  -9 -0.0280 2.37975   4
  -1   5  -9 0.83228 2.04909   3
  -1   5  -9 -0.9880 3.34410   6
  -1   5  -9 -2.6091 3.44863   5
  -1   5  -9 -1.3423 3.47270   5
  -1   5  -9 1.95917 3.11948   1
   1  -5   9 1.27193 2.60544   4
   1  -5   9 3.62222 2.73138   1
   1  -5   9 -2.1728 3.71554   5
   1  -5   9 0.88495 2.41758   6
   1  -5   9 -1.3777 2.58111   5
  -2   5  -9 20.7070 4.10137   6
  -2   5  -9 23.7674 3.35654   6
  -2   5  -9 24.3138 4.00395   5
  -2   5  -9 24.8939 3.41391   4
  -2   5  -9 28.7648 3.96382   5
  -2   5  -9 29.1422 3.95159   1
  -2   5  -9 24.5871 2.99918   3
   2  -5   9 17.4907 3.40991   5
   2  -5   9 29.1996 3.30666   4
   2  -5   9 33.2652 4.22296   5
   2  -5   9 22.4636 2.97826   6
   2  -5   9 19.7062 3.32304   1
  -3   5  -9 73.9210 6.43042   6
  -3   5  -9 78.7045 7.25735   5
  -3   5  -9 69.0106 7.30387   6
  -3   5  -9 77.6162 5.84682   4
  -3   5  -9 57.4793 4.99086   1
  -3   5  -9 74.6309 5.05221   3
   3  -5   9 79.7449 5.95329   4
   3  -5   9 81.0332 6.07168   1
   3  -5   9 75.1541 6.97851   5
   3  -5   9 77.9948 6.81617   5
   3  -5   9 73.4497 6.19918   6
  -4   5  -9 7.03623 3.01767   3
  -4   5  -9 4.23585 3.34706   5
  -4   5  -9 9.27117 3.50744   4
  -4   5  -9 3.66006 3.49240   6
  -4   5  -9 3.66745 3.75219   1
  -4   5  -9 4.28686 4.16615   6
   4  -5   9 1.02651 3.64610   6
   4  -5   9 2.24204 3.85340   5
   4  -5   9 5.58704 3.38585   4
   4  -5   9 9.89676 4.32795   5
   4  -5   9 6.11882 3.55002   1
  -5   5  -9 52.9325 5.47109   3
  -5   5  -9 54.5191 5.16492   6
  -5   5  -9 55.1622 5.43894   4
   5  -5   9 58.8722 5.50563   1
   5  -5   9 61.2335 5.95355   5
   5  -5   9 68.4861 8.26696   4
  -6   5  -9 76.9718 6.69608   4
   6  -5   9 90.5653 6.87022   1
   6  -5   9 65.5857 6.79998   5
   6   4  -9 3.63966 4.07340   4
  -6  -4   9 3.50387 4.33986   1
  -6  -4   9 4.23566 2.91441   6
  -6  -4   9 6.18108 2.97579   5
   5   4  -9 -4.6891 2.98414   4
   5   4  -9 8.74135 3.55133   6
   5   4  -9 4.88565 3.59392   5
   5   4  -9 6.51828 3.37918   5
  -5  -4   9 4.37512 2.83109   5
  -5  -4   9 0.69809 3.62977   1
  -5  -4   9 2.84728 2.55783   6
   4   4  -9 177.452 9.04391   1
   4   4  -9 185.512 8.48064   5
   4   4  -9 184.852 7.72889   4
   4   4  -9 203.003 8.60348   5
   4   4  -9 161.885 8.83060   6
   4   4  -9 184.069 9.36453   6
  -4  -4   9 171.463 7.82028   5
  -4  -4   9 202.916 7.53043   6
  -4  -4   9 197.047 8.61992   1
  -4  -4   9 180.549 8.82778   4
  -4  -4   9 191.196 7.95753   5
   3   4  -9 4.48152 2.92350   5
   3   4  -9 -4.4874 2.71103   5
   3   4  -9 2.00545 2.25732   4
   3   4  -9 0.56296 3.47341   6
   3   4  -9 3.62374 3.37857   1
   3   4  -9 -1.3464 2.19423   6
  -3  -4   9 2.08063 2.74876   4
  -3  -4   9 2.64218 2.71018   1
  -3  -4   9 -1.7290 2.67167   5
  -3  -4   9 -0.3245 2.10750   6
  -3  -4   9 1.95901 2.55058   5
   2   4  -9 10.9110 2.23205   4
   2   4  -9 15.1405 2.93975   6
   2   4  -9 13.4025 3.47649   1
   2   4  -9 15.6288 3.86693   6
   2   4  -9 18.0783 3.12045   5
   2   4  -9 20.8982 3.39800   5
  -2  -4   9 14.6961 2.38333   6
  -2  -4   9 12.0242 2.85958   4
  -2  -4   9 9.54462 2.84151   1
  -2  -4   9 8.14759 2.50760   5
  -2  -4   9 16.3086 3.23870   5
   1   4  -9 7.78300 2.16331   4
   1   4  -9 4.60787 2.08092   6
   1   4  -9 10.4026 3.20985   5
   1   4  -9 5.54845 3.13280   6
   1   4  -9 10.2031 2.98475   1
  -1  -4   9 8.34756 2.64278   5
  -1  -4   9 6.53592 2.28877   4
  -1  -4   9 11.1816 2.82219   5
  -1  -4   9 8.66899 2.15232   6
  -1  -4   9 3.75265 2.46169   1
   0   4  -9 25.3547 3.98856   6
   0   4  -9 28.3225 3.43282   1
   0   4  -9 25.7844 2.59328   3
   0   4  -9 33.5717 3.45708   6
   0   4  -9 27.5383 2.70452   4
   0   4  -9 31.0998 3.87008   5
   0   4  -9 26.3600 3.45620   5
   0  -4   9 27.7271 2.77520   6
   0  -4   9 24.6888 2.65000   4
   0  -4   9 21.4345 3.23829   1
   0  -4   9 23.2879 3.02704   5
   0  -4   9 31.3055 3.72134   5
  -1   4  -9 0.40105 2.79529   5
  -1   4  -9 -2.9007 1.94431   6
  -1   4  -9 -1.0751 2.09797   2
  -1   4  -9 3.86030 2.85832   1
  -1   4  -9 5.84652 3.00028   6
  -1   4  -9 -1.1605 1.82141   3
  -1   4  -9 -2.9900 2.81977   5
  -1   4  -9 -0.0145 1.85419   4
   1  -4   9 -1.3229 2.41776   5
   1  -4   9 -1.7690 2.47299   5
   1  -4   9 2.83605 2.05577   6
   1  -4   9 0.72853 1.92617   4
   1  -4   9 -2.9686 2.14357   1
  -2   4  -9 72.2929 4.81251   4
  -2   4  -9 66.9271 6.34641   6
  -2   4  -9 71.1979 5.88146   1
  -2   4  -9 70.1753 5.19051   6
  -2   4  -9 66.6769 4.16914   3
  -2   4  -9 74.4420 5.93540   5
  -2   4  -9 70.5690 3.83235   2
  -2   4  -9 72.5449 6.07999   5
   2  -4   9 73.5778 5.82281   5
   2  -4   9 65.4004 4.56483   4
   2  -4   9 65.9583 4.97705   6
   2  -4   9 69.4495 5.39979   5
   2  -4   9 70.0213 5.20320   1
  -3   4  -9 29.7558 4.24141   5
  -3   4  -9 27.3505 3.46727   6
  -3   4  -9 29.5261 3.00728   3
  -3   4  -9 24.9234 3.26457   4
  -3   4  -9 23.6880 3.84987   1
  -3   4  -9 23.7594 3.79906   6
  -3   4  -9 25.4054 3.60971   5
   3  -4   9 26.7797 3.22382   4
   3  -4   9 18.1996 3.24432   1
   3  -4   9 23.9519 3.28110   5
   3  -4   9 28.4761 3.42932   6
  -4   4  -9 43.0799 4.62946   6
  -4   4  -9 46.4949 4.17737   5
  -4   4  -9 44.1073 4.15887   3
  -4   4  -9 38.4792 3.86637   4
  -4   4  -9 45.1015 4.88834   1
  -4   4  -9 33.8772 3.80753   6
   4  -4   9 44.2819 3.76807   4
   4  -4   9 40.7435 4.01085   6
   4  -4   9 44.6104 4.70026   5
   4  -4   9 34.7177 3.82287   5
   4  -4   9 41.5330 4.34063   1
  -5   4  -9 9.64904 3.62364   6
  -5   4  -9 8.74770 3.79980   4
  -5   4  -9 10.5936 3.79709   6
  -5   4  -9 13.2608 3.67060   5
  -5   4  -9 14.0929 5.72719   1
   5  -4   9 15.7649 4.26652   1
   5  -4   9 13.6201 4.05953   5
   5  -4   9 11.7490 3.84752   5
   5  -4   9 8.38690 3.75139   4
  -6   4  -9 1.14109 3.82760   6
  -6   4  -9 -0.1809 4.49821   4
   6  -4   9 -5.9609 4.58354   4
   6  -4   9 5.68327 4.92286   1
   6  -4   9 -3.5940 4.48823   5
   7   3  -9 3.53735 4.09831   5
   7   3  -9 -2.3641 4.01464   4
  -7  -3   9 1.67895 4.92175   1
  -7  -3   9 3.54921 2.85480   6
   6   3  -9 -0.5643 3.26137   5
   6   3  -9 0.20515 3.63216   6
   6   3  -9 1.06721 3.37714   4
  -6  -3   9 -0.9745 2.50619   5
  -6  -3   9 5.69635 2.58298   6
  -6  -3   9 2.49471 3.74015   1
   5   3  -9 66.1908 5.73851   5
   5   3  -9 53.5910 5.36431   6
   5   3  -9 38.7406 4.39228   6
   5   3  -9 60.6158 5.06969   4
   5   3  -9 49.4956 4.85945   1
   5   3  -9 59.1144 5.64153   5
  -5  -3   9 58.9480 4.71772   6
  -5  -3   9 61.3914 5.05312   5
  -5  -3   9 59.2467 5.92011   1
   4   3  -9 25.0581 3.81307   1
   4   3  -9 33.2811 3.60065   5
   4   3  -9 33.6420 3.72365   5
   4   3  -9 27.2124 2.89373   6
   4   3  -9 24.9449 3.01525   4
   4   3  -9 25.1522 4.02801   6
  -4  -3   9 27.8018 2.65892   6
  -4  -3   9 28.9010 3.17273   5
  -4  -3   9 29.1896 3.63565   1
  -4  -3   9 31.6749 3.24364   5
   3   3  -9 83.0547 4.62873   4
   3   3  -9 82.1007 6.38114   6
   3   3  -9 78.6235 5.40793   5
   3   3  -9 84.4529 5.14795   6
   3   3  -9 69.8981 5.67447   1
   3   3  -9 69.6558 5.32621   5
  -3  -3   9 80.1695 4.85270   5
  -3  -3   9 84.7391 4.63569   6
  -3  -3   9 77.6925 5.25787   4
  -3  -3   9 73.4927 5.24010   1
  -3  -3   9 71.3702 5.31462   5
   2   3  -9 86.6799 6.17766   6
   2   3  -9 88.2632 5.37581   5
   2   3  -9 84.6775 5.75782   5
   2   3  -9 83.0465 4.46869   4
   2   3  -9 89.4901 5.50145   1
   2   3  -9 90.5835 5.16152   6
  -2  -3   9 88.9157 5.39768   5
  -2  -3   9 98.8840 5.48334   5
  -2  -3   9 86.2290 5.15203   1
  -2  -3   9 88.1447 4.72592   6
  -2  -3   9 80.5349 4.90100   4
   1   3  -9 46.8839 4.55110   5
   1   3  -9 44.6564 3.44923   4
   1   3  -9 40.6218 3.76132   5
   1   3  -9 42.0884 4.08452   6
   1   3  -9 47.3696 5.12535   6
   1   3  -9 49.4191 4.54081   1
  -1  -3   9 49.0573 3.89440   6
  -1  -3   9 49.7504 4.38197   5
  -1  -3   9 36.6809 3.37572   5
  -1  -3   9 45.9858 3.97883   1
  -1  -3   9 44.8847 3.78861   4
   0   3  -9 23.8683 2.97896   5
   0   3  -9 25.0484 3.70426   5
   0   3  -9 18.5810 2.17344   4
   0   3  -9 25.5864 2.73663   2
   0   3  -9 25.4504 3.13338   1
   0   3  -9 21.8796 2.30541   3
   0   3  -9 19.7293 2.74025   6
   0   3  -9 20.7522 3.09238   6
   0  -3   9 29.4018 2.88822   6
   0  -3   9 18.0716 2.56893   1
   0  -3   9 19.2395 2.77306   5
   0  -3   9 28.2633 2.55499   4
   0  -3   9 24.1296 2.92305   5
  -1   3  -9 10.0967 2.51975   5
  -1   3  -9 11.2043 2.98384   1
  -1   3  -9 10.0607 2.85122   5
  -1   3  -9 8.01042 1.78518   3
  -1   3  -9 10.6702 2.22922   2
  -1   3  -9 8.00379 2.41369   6
  -1   3  -9 9.59328 2.85108   6
  -1   3  -9 10.8115 1.91761   4
   1  -3   9 11.4872 3.42879   6
   1  -3   9 8.91243 2.58354   1
   1  -3   9 7.95908 2.56840   5
   1  -3   9 10.2261 1.89432   4
   1  -3   9 11.0824 2.60233   5
  -2   3  -9 7.32285 2.10703   2
  -2   3  -9 7.24726 2.86513   6
  -2   3  -9 8.57984 1.93572   3
  -2   3  -9 6.54573 2.37829   6
  -2   3  -9 6.17568 2.00676   4
  -2   3  -9 9.91400 2.98405   1
  -2   3  -9 4.75193 3.19095   5
  -2   3  -9 8.68105 2.71399   5
   2  -3   9 5.32341 2.70109   5
   2  -3   9 7.93213 2.65614   5
   2  -3   9 8.79665 2.41290   6
   2  -3   9 5.43579 2.91010   1
   2  -3   9 6.39296 1.92346   4
  -3   3  -9 45.3625 3.11860   2
  -3   3  -9 45.6840 4.18556   6
  -3   3  -9 42.7524 3.33892   4
  -3   3  -9 44.0673 4.12155   5
  -3   3  -9 49.0272 3.72454   3
  -3   3  -9 48.3115 4.62581   6
  -3   3  -9 48.0173 4.48880   1
   3  -3   9 46.9635 4.00953   1
   3  -3   9 42.8409 4.55948   6
   3  -3   9 38.1229 3.60179   5
   3  -3   9 43.6515 3.93922   4
   3  -3   9 34.7179 3.37701   5
  -4   3  -9 43.6230 4.03443   5
  -4   3  -9 38.3869 4.30171   1
  -4   3  -9 31.2705 3.41210   4
  -4   3  -9 39.0609 4.05912   6
  -4   3  -9 34.7959 3.67996   5
  -4   3  -9 37.1187 3.73520   6
   4  -3   9 35.2815 3.20846   4
   4  -3   9 39.1853 3.73809   6
   4  -3   9 41.2061 4.04200   5
   4  -3   9 41.2500 4.19096   5
   4  -3   9 36.7903 4.06775   1
  -5   3  -9 25.7494 3.97502   6
  -5   3  -9 14.7396 4.74507   1
  -5   3  -9 24.1550 3.68083   4
  -5   3  -9 19.2101 3.42912   6
  -5   3  -9 20.3808 3.41678   5
   5  -3   9 10.6007 3.66635   5
   5  -3   9 16.7757 3.19063   4
   5  -3   9 22.2606 4.08180   1
   5  -3   9 24.0787 4.12145   5
  -6   3  -9 29.0379 4.54847   4
  -6   3  -9 35.5629 4.51677   6
  -6   3  -9 31.9719 3.74642   5
  -6   3  -9 33.1245 3.97390   6
   6  -3   9 37.7251 5.32801   1
   6  -3   9 32.2634 4.65538   5
   6  -3   9 29.1558 4.66774   4
   7   2  -9 4.17570 3.81474   4
   7   2  -9 4.58116 3.66070   5
  -7  -2   9 2.11998 4.19294   1
  -7  -2   9 2.19357 2.55751   6
   6   2  -9 1.43962 3.08322   4
   6   2  -9 -1.0799 3.11958   5
   6   2  -9 0.13211 3.05144   5
   6   2  -9 -0.1310 2.95906   6
   6   2  -9 -2.9555 4.24701   1
  -6  -2   9 -0.7417 3.38447   1
  -6  -2   9 -0.8645 2.37518   6
  -6  -2   9 3.09662 2.33285   5
   5   2  -9 0.18407 1.98359   6
   5   2  -9 2.00840 2.67151   5
   5   2  -9 3.48351 2.65886   5
   5   2  -9 7.11057 2.46517   4
   5   2  -9 2.26415 3.45034   1
   5   2  -9 2.22677 3.42990   6
  -5  -2   9 4.50203 2.50376   5
  -5  -2   9 -1.2242 2.80225   1
  -5  -2   9 5.43405 2.31372   6
  -5  -2   9 4.93185 2.31191   5
   4   2  -9 -1.4444 2.85189   1
   4   2  -9 -0.6551 2.45374   6
   4   2  -9 2.16211 1.96716   6
   4   2  -9 1.89612 2.07516   4
   4   2  -9 -1.4551 2.42570   5
   4   2  -9 -1.5895 3.59731   5
  -4  -2   9 1.63205 2.19744   5
  -4  -2   9 1.02201 2.03210   5
  -4  -2   9 -1.0866 1.84313   6
   3   2  -9 421.642 12.9492   4
   3   2  -9 425.057 13.5790   1
   3   2  -9 424.597 14.0955   6
   3   2  -9 432.904 13.7875   5
   3   2  -9 426.586 13.6994   5
   3   2  -9 419.186 13.3466   6
  -3  -2   9 433.807 13.4450   5
  -3  -2   9 440.083 13.1673   6
  -3  -2   9 420.746 13.3779   4
  -3  -2   9 425.446 13.3855   5
  -3  -2   9 415.430 13.3782   1
   2   2  -9 10.4690 2.36125   5
   2   2  -9 4.55933 1.64307   4
   2   2  -9 8.18374 2.89672   6
   2   2  -9 6.53355 2.45229   1
   2   2  -9 7.45399 2.54414   5
   2   2  -9 7.13855 2.15749   6
  -2  -2   9 5.97433 2.44887   5
  -2  -2   9 1.93402 1.97707   1
  -2  -2   9 5.25586 2.21636   5
  -2  -2   9 9.84005 2.00444   6
  -2  -2   9 4.57018 2.06806   4
   1   2  -9 10.8917 2.56268   5
   1   2  -9 12.5349 2.68359   1
   1   2  -9 7.39523 1.83034   6
   1   2  -9 11.0697 2.91588   6
   1   2  -9 9.71464 2.51960   5
   1   2  -9 12.7568 1.86130   4
  -1  -2   9 12.0293 2.55325   5
  -1  -2   9 5.88447 2.02721   1
  -1  -2   9 16.2364 2.33877   6
  -1  -2   9 9.66471 1.85782   4
  -1  -2   9 15.8613 3.71522   5
   0   2  -9 11.7109 2.24722   6
   0   2  -9 10.2030 2.26536   2
   0   2  -9 9.59634 2.52708   1
   0   2  -9 8.96946 2.71967   5
   0   2  -9 8.56631 1.63286   4
   0   2  -9 12.5996 2.90687   6
   0   2  -9 6.01490 2.13922   5
   0  -2   9 11.3251 2.18917   6
   0  -2   9 9.60260 2.20387   1
   0  -2   9 10.3113 2.42995   5
   0  -2   9 9.96828 2.47766   5
   0  -2   9 13.2291 1.80854   4
  -1   2  -9 7.48172 2.28507   5
  -1   2  -9 6.01145 2.00281   2
  -1   2  -9 4.65228 1.56924   4
  -1   2  -9 4.45185 2.43859   1
  -1   2  -9 4.00157 1.91624   3
  -1   2  -9 9.24070 2.49810   5
  -1   2  -9 6.08228 1.77386   6
  -1   2  -9 6.70753 2.61822   6
   1  -2   9 5.27513 2.28308   1
   1  -2   9 5.80783 1.55567   4
   1  -2   9 4.39863 2.12258   5
   1  -2   9 3.94285 2.13747   5
  -2   2  -9 -2.2049 2.37345   5
  -2   2  -9 -0.9929 1.88850   6
  -2   2  -9 0.87610 1.62349   4
  -2   2  -9 0.53960 1.84951   2
  -2   2  -9 0.09833 1.65290   3
  -2   2  -9 -0.4133 2.64742   5
  -2   2  -9 -0.4648 2.46853   1
  -2   2  -9 -0.6704 2.14334   6
   2  -2   9 -1.3367 2.11805   5
   2  -2   9 -2.4760 1.72838   4
   2  -2   9 -2.4565 2.49350   1
   2  -2   9 -0.3359 1.99186   6
   2  -2   9 0.20120 2.26221   5
  -3   2  -9 97.1824 6.42653   1
  -3   2  -9 96.8126 5.96648   5
  -3   2  -9 98.4157 4.86598   4
  -3   2  -9 104.487 5.63499   5
  -3   2  -9 101.959 4.36490   2
  -3   2  -9 100.360 5.75969   6
  -3   2  -9 100.703 5.36507   6
   3  -2   9 91.7834 5.25233   6
   3  -2   9 99.6933 5.81824   1
   3  -2   9 95.3721 4.37336   4
   3  -2   9 92.5820 5.72779   5
   3  -2   9 99.4774 5.63413   5
  -4   2  -9 30.3500 3.04920   4
  -4   2  -9 33.3149 3.56325   5
  -4   2  -9 36.6066 2.97378   2
  -4   2  -9 27.3759 3.12658   6
  -4   2  -9 31.0619 3.47794   5
  -4   2  -9 31.3477 3.79908   6
  -4   2  -9 28.7175 4.08500   1
   4  -2   9 31.9052 3.74057   5
   4  -2   9 30.6809 2.61890   4
   4  -2   9 29.0964 3.18030   5
   4  -2   9 30.5040 3.34921   6
   4  -2   9 23.0025 3.63500   1
  -5   2  -9 28.2222 3.27991   6
  -5   2  -9 36.1378 3.54277   4
  -5   2  -9 34.6901 3.95730   6
  -5   2  -9 33.1983 3.35505   5
   5  -2   9 32.9149 4.00175   5
   5  -2   9 33.0249 4.25637   1
   5  -2   9 28.4543 3.77455   5
   5  -2   9 37.3566 3.08658   4
  -6   2  -9 16.8174 3.61028   4
  -6   2  -9 17.7586 3.64266   6
  -6   2  -9 13.1005 3.23003   6
  -6   2  -9 17.5908 2.81099   5
   6  -2   9 18.5302 4.44444   4
   6  -2   9 18.0827 4.94366   1
   6  -2   9 23.4243 4.36115   5
   7   1  -9 -4.4775 3.17310   5
   7   1  -9 -1.1463 4.81147   5
   7   1  -9 5.15382 4.80583   1
   7   1  -9 -0.5701 3.28297   4
  -7  -1   9 -2.0345 2.43312   6
  -7  -1   9 4.47156 3.60339   3
  -7  -1   9 0.94450 3.73364   1
   6   1  -9 5.32432 3.81679   1
   6   1  -9 1.88960 2.72211   4
   6   1  -9 8.48302 3.17536   5
   6   1  -9 1.89409 2.83212   5
   6   1  -9 2.87445 2.72036   6
  -6  -1   9 6.77568 2.39509   5
  -6  -1   9 8.20361 3.16563   1
  -6  -1   9 3.60837 2.60976   3
  -6  -1   9 4.37621 2.45187   6
   5   1  -9 8.09465 2.20180   6
   5   1  -9 5.79283 2.93470   6
   5   1  -9 10.4193 2.59498   4
   5   1  -9 8.51575 2.45985   5
   5   1  -9 5.36501 2.45809   5
   5   1  -9 14.0764 3.35372   1
  -5  -1   9 7.57277 2.59545   3
  -5  -1   9 9.54227 2.49085   6
  -5  -1   9 12.7980 2.64414   5
  -5  -1   9 9.18865 3.26479   1
  -5  -1   9 7.51248 2.36015   5
   4   1  -9 79.8156 5.08642   4
   4   1  -9 87.4933 5.50842   1
   4   1  -9 91.3293 5.26455   5
   4   1  -9 88.6330 5.85162   6
   4   1  -9 87.3653 5.17823   5
  -4  -1   9 81.1350 4.69068   5
  -4  -1   9 88.9477 5.00124   5
  -4  -1   9 79.9567 4.77636   3
  -4  -1   9 83.7888 5.10728   1
   3   1  -9 27.9989 2.87467   5
   3   1  -9 35.2809 3.27539   5
   3   1  -9 32.8978 3.20049   1
   3   1  -9 31.1164 3.00590   4
   3   1  -9 37.2675 3.08256   6
   3   1  -9 31.6532 3.43306   6
  -3  -1   9 35.1354 3.61963   5
  -3  -1   9 25.4360 2.77371   6
  -3  -1   9 26.9882 2.98966   3
  -3  -1   9 36.1059 3.33415   6
  -3  -1   9 27.8976 2.73423   5
  -3  -1   9 29.6725 2.85319   1
   2   1  -9 150.071 8.33521   6
   2   1  -9 146.200 5.50299   4
   2   1  -9 150.650 6.70590   5
   2   1  -9 143.901 6.07101   6
   2   1  -9 151.054 6.32386   1
   2   1  -9 146.955 6.40461   5
  -2  -1   9 149.355 6.11375   1
  -2  -1   9 155.161 6.36964   5
  -2  -1   9 149.125 6.44940   5
  -2  -1   9 159.929 5.99853   4
  -2  -1   9 143.732 5.91753   6
  -2  -1   9 151.166 6.84387   6
   1   1  -9 66.1567 3.45273   4
   1   1  -9 66.5077 4.07927   6
   1   1  -9 62.9754 4.74233   5
   1   1  -9 63.5518 4.50310   1
   1   1  -9 63.6601 4.15906   2
   1   1  -9 69.8677 4.53470   5
  -1  -1   9 70.4857 4.94416   6
  -1  -1   9 71.5245 4.14356   6
  -1  -1   9 68.1500 4.46632   5
  -1  -1   9 75.4559 3.70567   4
  -1  -1   9 68.1218 4.44605   5
  -1  -1   9 64.7280 4.13056   1
   0   1  -9 57.7996 4.30182   5
   0   1  -9 60.3592 3.95331   6
   0   1  -9 57.7179 4.67649   5
   0   1  -9 59.5823 3.91992   2
   0   1  -9 62.1021 4.50660   1
   0   1  -9 57.9556 3.14287   4
   0   1  -9 67.1414 4.83023   6
   0  -1   9 59.9555 3.26386   4
   0  -1   9 61.6839 4.42100   5
   0  -1   9 56.9023 3.92793   6
   0  -1   9 62.1465 4.53285   5
   0  -1   9 62.0120 4.75046   6
   0  -1   9 69.8218 4.21749   1
  -1   1  -9 45.7309 2.45886   3
  -1   1  -9 60.1011 4.71068   1
  -1   1  -9 45.5877 3.54445   2
  -1   1  -9 47.4906 4.58017   5
  -1   1  -9 46.3023 4.46649   6
  -1   1  -9 47.2645 3.00595   4
  -1   1  -9 48.7540 4.14059   5
  -1   1  -9 45.5976 4.11644   6
   1  -1   9 46.4882 4.46706   6
   1  -1   9 47.7063 4.60368   6
   1  -1   9 50.1197 4.06855   1
   1  -1   9 47.1722 4.14548   5
   1  -1   9 51.8550 2.97293   4
   1  -1   9 50.8167 4.33911   5
  -2   1  -9 9.15061 1.72646   4
  -2   1  -9 8.26554 2.73371   1
  -2   1  -9 7.56367 2.07885   6
  -2   1  -9 11.0982 2.75429   5
  -2   1  -9 14.5829 2.30330   2
  -2   1  -9 10.5599 2.25650   5
  -2   1  -9 10.6710 2.55453   6
   2  -1   9 15.9036 2.68961   5
   2  -1   9 6.17297 2.37782   6
   2  -1   9 7.81742 1.97162   5
   2  -1   9 12.2077 2.68778   1
   2  -1   9 9.50194 1.50925   4
   2  -1   9 12.8859 2.24983   6
  -3   1  -9 10.0309 2.16059   6
  -3   1  -9 9.67806 3.12908   1
  -3   1  -9 8.30941 2.55997   5
  -3   1  -9 12.0814 2.39268   5
  -3   1  -9 14.9864 2.05986   4
  -3   1  -9 9.44777 2.16845   2
   3  -1   9 9.77734 2.75458   5
   3  -1   9 12.6415 2.56221   5
   3  -1   9 11.4973 2.55437   6
   3  -1   9 10.0558 1.61286   4
   3  -1   9 10.8186 2.89769   1
  -4   1  -9 42.8531 4.29478   1
  -4   1  -9 48.8185 4.19941   2
  -4   1  -9 55.8850 3.99489   4
  -4   1  -9 42.5201 4.01581   6
  -4   1  -9 47.6496 3.69157   5
  -4   1  -9 47.4328 4.41160   6
  -4   1  -9 43.0990 3.55589   5
   4  -1   9 38.4945 3.64212   5
   4  -1   9 50.4877 4.41115   1
   4  -1   9 48.3381 5.17192   6
   4  -1   9 51.4238 4.55863   5
   4  -1   9 54.0371 3.18535   4
  -5   1  -9 10.9124 3.15936   2
  -5   1  -9 14.4305 2.55229   4
  -5   1  -9 7.49333 2.54067   6
  -5   1  -9 12.1637 3.16443   6
   5  -1   9 10.7166 2.20495   4
   5  -1   9 5.66403 3.12905   5
   5  -1   9 6.59120 3.61899   1
   5  -1   9 8.16401 3.06398   5
  -6   1  -9 22.2592 3.54398   6
  -6   1  -9 25.2673 3.25023   6
   6  -1   9 24.9046 4.17235   5
   6  -1   9 23.2724 5.33637   1
  -8   0   9 1.42034 3.59217   3
   7   0  -9 50.5267 4.73187   5
   7   0  -9 57.5678 4.79961   4
   7   0  -9 50.6030 4.38035   5
   7   0  -9 64.0561 6.40316   6
   7   0  -9 52.4062 5.30402   1
  -7   0   9 48.0238 4.39974   1
  -7   0   9 49.0618 5.30610   3
  -7   0   9 53.3080 4.86831   6
  -7   0   9 56.2887 3.85679   5
   6   0  -9 1.57900 2.46692   6
   6   0  -9 0.98219 2.67998   5
   6   0  -9 4.91488 4.24273   6
   6   0  -9 0.17357 2.93273   5
   6   0  -9 2.14704 2.75110   4
   6   0  -9 3.36870 3.35464   1
  -6   0   9 1.51007 2.38309   6
  -6   0   9 3.50420 2.76429   1
  -6   0   9 2.46373 2.62883   3
  -6   0   9 -0.0429 2.22675   5
   5   0  -9 0.16127 2.93309   6
   5   0  -9 2.48362 2.10918   4
   5   0  -9 -0.4290 2.75148   1
   5   0  -9 0.91767 2.32324   5
   5   0  -9 0.05314 1.90116   6
   5   0  -9 1.56593 2.28495   5
  -5   0   9 -0.6044 2.27490   3
  -5   0   9 0.13368 2.36577   6
  -5   0   9 4.28985 2.34140   1
  -5   0   9 3.56059 2.38215   6
  -5   0   9 -0.8573 2.33718   5
  -5   0   9 1.03789 2.05719   5
   4   0  -9 6.35485 2.41357   1
   4   0  -9 1.82633 2.43639   6
   4   0  -9 1.14574 2.08842   5
   4   0  -9 4.40426 1.84690   4
   4   0  -9 5.02451 2.03008   6
   4   0  -9 7.42423 2.39582   5
  -4   0   9 4.48421 2.21024   5
  -4   0   9 2.61107 2.16243   3
  -4   0   9 5.67057 2.54562   6
  -4   0   9 3.32675 1.76301   5
  -4   0   9 4.27486 2.07175   6
  -4   0   9 5.37407 2.20877   1
   3   0  -9 -1.1519 2.04990   1
   3   0  -9 0.28530 1.35580   4
   3   0  -9 0.93931 2.15641   5
   3   0  -9 0.30331 1.86994   5
   3   0  -9 -1.7117 1.73135   6
   3   0  -9 0.11451 1.68948   6
  -3   0   9 -0.4896 1.98776   6
  -3   0   9 -1.0309 1.86849   3
  -3   0   9 -0.9332 1.93009   5
  -3   0   9 1.40517 1.65652   6
  -3   0   9 -0.3796 1.87012   1
  -3   0   9 -0.3261 2.49213   5
   2   0  -9 648.819 18.9942   5
   2   0  -9 586.296 18.9957   2
   2   0  -9 642.489 19.4116   6
   2   0  -9 652.792 19.2073   5
   2   0  -9 640.164 18.7215   6
   2   0  -9 621.984 18.0950   4
   2   0  -9 632.314 18.7293   1
  -2   0   9 669.982 18.7652   6
  -2   0   9 642.100 18.6206   1
  -2   0   9 631.239 18.4601   3
  -2   0   9 645.091 18.9875   5
  -2   0   9 660.895 18.8868   5
  -2   0   9 630.169 19.3194   6
   1   0  -9 18.1796 2.64478   2
   1   0  -9 17.1100 2.16980   6
   1   0  -9 13.9749 2.24286   6
   1   0  -9 15.2264 2.53924   5
   1   0  -9 17.9730 2.50827   5
   1   0  -9 16.2860 1.66729   4
   1   0  -9 16.4174 2.39969   1
  -1   0   9 18.6310 2.71157   5
  -1   0   9 12.0621 1.89429   5
  -1   0   9 17.5288 2.34302   1
  -1   0   9 17.7270 2.22925   6
  -1   0   9 13.2736 2.38902   6
   0   0  -9 2.96919 1.61263   6
   0   0  -9 2.53305 1.95361   5
   0   0  -9 1.59209 1.85665   2
   0   0  -9 1.86320 2.13696   6
   0   0  -9 0.03291 2.09535   1
   0   0  -9 3.72339 1.22521   4
   0   0  -9 3.23724 4.06434   5
   0   0   9 3.64972 1.91422   1
   0   0   9 0.88779 1.34170   4
   0   0   9 3.38522 2.33838   6
   0   0   9 1.49179 1.80738   6
   0   0   9 2.94725 2.00418   5
   0   0   9 1.03903 2.18654   5
  -1   0  -9 4.33331 2.40826   1
  -1   0  -9 5.44642 1.88523   6
  -1   0  -9 8.31798 1.12926   3
  -1   0  -9 6.23404 2.46568   5
  -1   0  -9 7.10548 2.46576   6
  -1   0  -9 5.71154 1.31583   4
  -1   0  -9 6.96075 2.17270   5
  -1   0  -9 9.41661 2.15330   2
   1   0   9 5.89721 2.30617   5
   1   0   9 6.12820 2.01219   6
   1   0   9 5.02015 2.12308   6
   1   0   9 5.78465 1.38501   4
   1   0   9 5.86609 2.13310   1
   1   0   9 7.65142 2.31651   5
  -2   0  -9 -0.2548 1.71278   5
  -2   0  -9 -0.3845 1.68053   6
  -2   0  -9 -0.4513 1.24509   4
  -2   0  -9 2.24983 2.23802   5
  -2   0  -9 1.22537 2.20292   6
  -2   0  -9 -1.1475 2.47794   1
  -2   0  -9 -1.0304 1.75733   2
   2   0   9 -0.6702 1.14775   4
   2   0   9 2.72495 2.13568   5
   2   0   9 -0.7577 2.25799   6
   2   0   9 -0.4706 1.94130   6
   2   0   9 0.33521 2.13745   5
   2   0   9 0.58241 2.51799   1
  -3   0  -9 -3.1170 2.36857   5
  -3   0  -9 2.63411 2.05317   2
  -3   0  -9 1.69886 1.47103   4
  -3   0  -9 -0.3818 2.37040   6
  -3   0  -9 4.38480 2.04745   6
  -3   0  -9 2.60184 2.90510   1
  -3   0  -9 0.51148 1.99357   5
   3   0   9 4.49110 2.81146   1
   3   0   9 2.70802 1.11840   4
   3   0   9 0.55498 2.01553   5
   3   0   9 0.73086 2.50324   6
   3   0   9 2.83108 2.35517   6
  -4   0  -9 88.8933 5.19032   2
  -4   0  -9 78.1407 7.01491   1
  -4   0  -9 91.7133 5.86187   6
  -4   0  -9 82.4506 5.12843   6
  -4   0  -9 92.0590 5.65294   5
  -4   0  -9 84.0325 3.98375   4
   4   0   9 92.1118 5.95620   5
   4   0   9 83.3208 5.71922   6
   4   0   9 87.9419 5.32406   5
   4   0   9 89.3609 3.37969   4
   4   0   9 99.2256 6.05093   6
   4   0   9 84.7418 6.45769   1
  -5   0  -9 36.6196 3.41728   6
  -5   0  -9 46.4134 3.92672   2
  -5   0  -9 38.1147 3.23504   5
  -5   0  -9 31.4390 3.71149   6
   5   0   9 43.3376 4.95101   1
   5   0   9 39.3284 2.97544   4
   5   0   9 40.7073 4.13329   5
  -6   0  -9 17.4370 2.98135   6
  -6   0  -9 15.1654 3.29365   6
  -6   0  -9 16.5697 3.87630   2
   6   0   9 17.5054 5.27051   1
   6   0   9 16.6910 3.92320   5
   8  -1  -9 5.99170 4.75307   4
   8  -1  -9 3.38851 4.37481   5
  -8   1   9 3.96012 3.55439   3
   7  -1  -9 1.31531 4.12098   1
   7  -1  -9 3.86743 3.13364   5
   7  -1  -9 6.47591 3.62046   5
   7  -1  -9 6.02606 3.41331   4
   7  -1  -9 8.53527 4.03212   6
  -7   1   9 3.85366 2.85545   6
  -7   1   9 9.96649 2.49426   5
  -7   1   9 2.90174 3.00136   3
  -7   1   9 6.64287 3.08224   1
   6  -1  -9 5.24552 3.14799   5
   6  -1  -9 -1.9465 2.62792   5
   6  -1  -9 5.10054 2.93764   1
   6  -1  -9 1.34740 2.50078   4
   6  -1  -9 1.24053 3.76246   6
   6  -1  -9 7.63136 2.52048   6
  -6   1   9 1.65862 2.41960   6
  -6   1   9 0.30641 2.34060   5
  -6   1   9 2.04108 2.52757   3
  -6   1   9 1.43976 2.76363   6
  -6   1   9 4.38044 2.53294   1
   5  -1  -9 4.07371 2.18903   4
   5  -1  -9 3.44984 2.92135   6
   5  -1  -9 10.2335 2.82397   5
   5  -1  -9 4.80327 2.48407   5
   5  -1  -9 6.47896 2.53391   1
   5  -1  -9 3.77357 2.06360   6
  -5   1   9 4.77579 2.63837   5
  -5   1   9 3.41527 2.61264   5
  -5   1   9 7.15627 3.21118   6
  -5   1   9 2.14384 2.29299   3
  -5   1   9 5.94235 2.31878   1
  -5   1   9 3.79445 2.47739   6
   4  -1  -9 17.3840 2.38891   6
   4  -1  -9 18.2444 2.66954   1
   4  -1  -9 18.1820 2.21740   4
   4  -1  -9 17.5196 3.06442   2
   4  -1  -9 15.7284 3.05179   6
   4  -1  -9 21.6647 2.90371   5
   4  -1  -9 12.6618 2.45765   5
  -4   1   9 20.6152 3.17560   6
  -4   1   9 12.3297 2.50323   5
  -4   1   9 22.8229 3.03069   3
  -4   1   9 23.4480 2.65329   6
  -4   1   9 16.2754 2.33258   1
   3  -1  -9 110.874 5.70064   2
   3  -1  -9 126.071 5.79856   5
   3  -1  -9 118.985 6.07419   5
   3  -1  -9 116.217 4.71255   4
   3  -1  -9 126.640 6.36010   6
   3  -1  -9 115.366 5.38854   1
   3  -1  -9 119.311 5.34316   6
  -3   1   9 120.842 5.40240   6
  -3   1   9 119.747 5.87612   5
  -3   1   9 118.084 6.26681   6
  -3   1   9 116.721 5.21536   1
  -3   1   9 119.572 5.90676   5
  -3   1   9 120.100 5.34762   3
   2  -1  -9 29.2650 3.20712   6
   2  -1  -9 23.8680 2.58833   5
   2  -1  -9 23.9943 2.64418   1
   2  -1  -9 25.3027 2.42232   4
   2  -1  -9 22.1740 2.90907   2
   2  -1  -9 20.2900 2.65798   5
   2  -1  -9 25.7435 3.10598   6
  -2   1   9 26.3598 2.57858   3
  -2   1   9 15.8382 2.28366   5
  -2   1   9 22.3012 2.85820   6
  -2   1   9 24.9414 2.71621   5
  -2   1   9 22.7955 2.49552   1
  -2   1   9 26.5465 2.69808   6
   1  -1  -9 178.894 7.65288   6
   1  -1  -9 184.871 7.42467   5
   1  -1  -9 164.491 7.01236   2
   1  -1  -9 182.520 6.74645   6
   1  -1  -9 175.520 7.00983   1
   1  -1  -9 189.258 7.18745   5
   1  -1  -9 190.489 5.94859   4
  -1   1   9 178.436 7.60765   6
  -1   1   9 183.406 6.29878   3
  -1   1   9 178.038 6.78948   1
  -1   1   9 194.603 7.32568   5
  -1   1   9 186.615 7.15337   5
  -1   1   9 183.719 6.90085   6
   0  -1  -9 40.3947 4.26498   5
   0  -1  -9 44.6981 3.56226   6
   0  -1  -9 45.1478 3.65716   2
   0  -1  -9 41.8606 3.98314   5
   0  -1  -9 52.4083 4.14846   1
   0  -1  -9 46.8125 4.42951   6
   0  -1  -9 48.0787 2.48485   4
   0   1   9 38.0096 3.97966   5
   0   1   9 45.8782 4.48419   6
   0   1   9 48.3560 3.77750   6
   0   1   9 44.1276 3.92268   1
  -1  -1  -9 43.7675 4.39176   5
  -1  -1  -9 47.3417 2.42740   4
  -1  -1  -9 47.8488 3.56571   6
  -1  -1  -9 40.9563 4.34894   6
  -1  -1  -9 46.3548 3.71277   2
  -1  -1  -9 52.7177 4.15923   5
  -1  -1  -9 44.8978 4.40611   1
   1   1   9 34.1437 3.41055   6
   1   1   9 49.1209 4.17020   5
   1   1   9 49.1353 4.06703   5
   1   1   9 51.5800 3.92657   6
   1   1   9 40.2507 3.97070   1
  -2  -1  -9 65.7595 4.98034   5
  -2  -1  -9 72.4720 4.95606   6
  -2  -1  -9 69.0120 5.26560   1
  -2  -1  -9 68.2918 4.19011   6
  -2  -1  -9 69.2452 4.16839   2
  -2  -1  -9 65.4169 2.82706   4
   2   1   9 58.3457 5.60441   1
   2   1   9 63.6416 5.40033   6
   2   1   9 69.8191 4.43212   6
   2   1   9 64.8520 4.58354   5
   2   1   9 60.6093 4.81721   5
  -3  -1  -9 3.34285 2.20595   2
  -3  -1  -9 3.89062 2.09571   6
  -3  -1  -9 4.27009 2.53560   6
  -3  -1  -9 5.77299 2.83502   5
  -3  -1  -9 8.34757 2.18930   5
  -3  -1  -9 7.92671 3.40309   1
   3   1   9 5.87566 2.49342   6
   3   1   9 4.94372 2.24208   5
   3   1   9 7.30967 2.63673   6
   3   1   9 12.4257 2.78899   5
   3   1   9 5.00189 2.77980   1
  -4  -1  -9 3.84061 2.74703   6
  -4  -1  -9 10.3770 2.39929   6
  -4  -1  -9 10.4788 2.82469   2
  -4  -1  -9 5.70106 2.78050   5
  -4  -1  -9 15.6635 2.67528   5
   4   1   9 3.82754 2.28363   5
   4   1   9 7.82774 2.74420   5
   4   1   9 8.00439 2.89124   6
   4   1   9 9.89035 3.74094   1
   4   1   9 11.7876 3.22386   6
  -5  -1  -9 41.0250 4.13606   2
  -5  -1  -9 37.3227 3.69072   6
  -5  -1  -9 30.8184 3.17347   6
  -5  -1  -9 33.3068 3.47455   5
   5   1   9 33.2616 4.81218   6
   5   1   9 27.5066 3.70122   5
   5   1   9 34.5872 5.10006   1
   5   1   9 33.0463 4.02526   5
  -6  -1  -9 -0.2201 2.60032   6
  -6  -1  -9 1.57463 3.65634   2
   6   1   9 2.22708 3.76699   5
   6   1   9 -1.6911 5.26000   1
   8  -2  -9 7.64213 5.41775   4
   8  -2  -9 3.77881 3.81687   2
   8  -2  -9 4.25376 4.79972   5
  -8   2   9 3.70207 3.72869   3
   7  -2  -9 3.43456 3.55685   1
   7  -2  -9 -0.6553 3.33911   2
   7  -2  -9 -1.3820 3.31631   5
   7  -2  -9 4.09372 5.22291   5
   7  -2  -9 2.01225 3.60890   4
  -7   2   9 1.21069 3.12480   6
  -7   2   9 -2.9309 2.59315   5
  -7   2   9 -4.9415 3.05332   6
  -7   2   9 2.09503 3.04176   3
  -7   2   9 1.95095 2.67086   1
   6  -2  -9 35.5379 4.40300   5
   6  -2  -9 35.0575 3.77761   5
   6  -2  -9 31.2311 3.59772   4
   6  -2  -9 22.9161 3.78090   2
   6  -2  -9 24.8603 5.52671   6
   6  -2  -9 30.8331 3.14095   1
   6  -2  -9 33.0086 5.37953   4
   6  -2  -9 34.0583 3.41151   6
  -6   2   9 31.7232 3.03445   1
  -6   2   9 30.8345 3.29749   5
  -6   2   9 29.1437 3.70888   3
  -6   2   9 30.7972 3.36400   6
  -6   2   9 31.3692 3.79211   6
   5  -2  -9 0.45763 2.42343   5
   5  -2  -9 -0.7903 2.01113   6
   5  -2  -9 2.82690 2.55325   5
   5  -2  -9 0.51941 3.33830   6
   5  -2  -9 -0.1516 2.16311   4
   5  -2  -9 -0.5702 2.41527   2
   5  -2  -9 -0.1582 2.22656   1
  -5   2   9 1.88711 2.35445   5
  -5   2   9 -2.5723 2.12556   6
  -5   2   9 -0.3291 2.69056   5
  -5   2   9 -1.7278 2.55591   6
  -5   2   9 2.32892 2.14018   1
  -5   2   9 -1.5632 2.37440   3
   4  -2  -9 5.81318 3.09692   6
   4  -2  -9 6.49450 1.88423   4
   4  -2  -9 5.25392 2.21200   5
   4  -2  -9 5.33801 2.00586   6
   4  -2  -9 4.67655 2.37391   2
   4  -2  -9 5.55506 2.19879   1
   4  -2  -9 6.43652 2.48776   5
  -4   2   9 3.51225 2.37993   6
  -4   2   9 3.70283 2.67101   5
  -4   2   9 5.19065 2.11964   5
  -4   2   9 3.68446 2.27322   3
  -4   2   9 6.71219 2.32414   6
  -4   2   9 3.79853 1.96296   1
   3  -2  -9 4.15399 2.29506   5
   3  -2  -9 4.13356 2.50360   6
   3  -2  -9 5.30687 2.01597   6
   3  -2  -9 4.26600 2.27278   5
   3  -2  -9 5.31892 1.60937   4
   3  -2  -9 2.20835 2.12144   2
   3  -2  -9 1.28022 2.03515   1
  -3   2   9 5.73383 2.29135   6
  -3   2   9 5.51924 2.12222   3
  -3   2   9 7.15552 2.65806   5
  -3   2   9 5.78230 1.81266   1
  -3   2   9 6.44310 2.54196   6
  -3   2   9 2.16617 2.15065   5
   2  -2  -9 3.07875 1.27939   4
   2  -2  -9 2.40188 2.08547   6
   2  -2  -9 4.29816 2.04862   1
   2  -2  -9 2.68815 2.06699   2
   2  -2  -9 1.29921 1.80575   6
   2  -2  -9 3.05878 2.05203   5
   2  -2  -9 0.97801 2.16474   5
  -2   2   9 2.71989 2.10717   5
  -2   2   9 1.57881 1.87738   6
  -2   2   9 5.98249 1.85236   1
  -2   2   9 3.22323 1.92643   3
  -2   2   9 3.85766 2.36930   5
  -2   2   9 2.69126 2.54745   6
   1  -2  -9 590.843 18.5333   2
   1  -2  -9 619.933 18.6660   5
   1  -2  -9 614.989 18.1179   1
   1  -2  -9 607.688 18.8368   6
   1  -2  -9 619.983 17.1556   4
   1  -2  -9 639.178 18.6021   5
   1  -2  -9 608.812 18.1041   6
  -1   2   9 603.415 18.2681   6
  -1   2   9 623.475 18.5215   5
  -1   2   9 618.534 18.5970   5
  -1   2   9 619.370 17.5489   3
  -1   2   9 621.582 18.9796   6
  -1   2   9 609.510 18.0118   1
   0  -2  -9 22.7887 1.86387   4
   0  -2  -9 21.2603 2.73676   2
   0  -2  -9 19.3150 2.94313   5
   0  -2  -9 21.8940 2.93475   1
   0  -2  -9 18.8228 2.38298   6
   0  -2  -9 21.7302 2.76477   5
   0  -2  -9 26.5211 3.25915   6
   0   2   9 20.4955 2.76404   5
   0   2   9 26.3725 2.84763   1
   0   2   9 26.8997 2.53529   3
   0   2   9 26.7030 3.44030   6
   0   2   9 22.6648 2.84445   6
   0   2   9 19.7468 2.76146   5
  -1  -2  -9 -1.1671 2.36404   5
  -1  -2  -9 0.02227 2.03361   5
  -1  -2  -9 3.16686 1.73305   6
  -1  -2  -9 2.40006 2.49388   1
  -1  -2  -9 1.58788 2.30629   6
  -1  -2  -9 0.86271 2.10373   2
  -1  -2  -9 0.83024 0.88417   4
   1   2   9 -0.3204 2.28054   1
   1   2   9 3.16527 2.03460   6
   1   2   9 1.95331 2.39773   5
   1   2   9 2.32341 2.53946   6
   1   2   9 1.29912 2.33827   5
  -2  -2  -9 3.24644 2.23329   2
  -2  -2  -9 -1.5707 2.72055   6
  -2  -2  -9 7.67113 3.12894   1
  -2  -2  -9 5.13658 2.48961   6
  -2  -2  -9 7.08611 2.82065   5
   2   2   9 5.09541 2.52476   5
   2   2   9 2.41624 2.42630   6
   2   2   9 5.28336 2.50257   5
   2   2   9 7.82231 2.41143   6
   2   2   9 5.93446 2.55077   1
  -3  -2  -9 3.71751 2.29326   5
  -3  -2  -9 3.44371 2.37285   2
  -3  -2  -9 6.19787 3.07126   6
  -3  -2  -9 5.13525 2.10900   6
  -3  -2  -9 3.82247 2.73994   5
   3   2   9 -0.3737 2.80347   1
   3   2   9 5.70326 2.72509   6
   3   2   9 0.05594 2.37146   6
   3   2   9 2.64399 2.61608   5
   3   2   9 3.86912 2.35894   5
  -4  -2  -9 10.7380 2.49508   6
  -4  -2  -9 12.9597 3.13770   2
  -4  -2  -9 11.8450 3.16740   6
  -4  -2  -9 9.67444 2.59286   5
   4   2   9 7.91139 3.67703   6
   4   2   9 12.0006 3.87487   1
   4   2   9 6.71992 3.04129   5
   4   2   9 12.8928 3.11559   5
  -5  -2  -9 43.6879 4.72487   6
  -5  -2  -9 46.5080 4.13493   6
  -5  -2  -9 50.4496 4.56394   2
  -5  -2  -9 49.1599 4.55122   5
   5   2   9 49.4408 5.83822   1
   5   2   9 43.5085 4.43212   5
   5   2   9 52.0453 5.38072   5
  -6  -2  -9 37.1735 4.85211   2
  -6  -2  -9 43.3227 3.79341   6
  -6  -2  -9 32.2910 3.32497   6
   6   2   9 34.7478 9.43127   1
   7  -3  -9 8.39596 3.64155   5
   7  -3  -9 4.43808 3.34602   2
   7  -3  -9 3.78328 3.74569   4
  -7   3   9 4.60612 3.10973   5
  -7   3   9 6.46497 3.38464   6
  -7   3   9 3.61965 3.12357   3
  -7   3   9 2.20892 2.41273   1
   6  -3  -9 15.1549 3.81535   5
   6  -3  -9 0.62562 2.73087   2
   6  -3  -9 4.68189 2.62598   6
   6  -3  -9 7.30795 3.02252   5
   6  -3  -9 5.22681 5.47109   4
   6  -3  -9 8.60164 3.23220   4
   6  -3  -9 3.48026 2.61956   1
  -6   3   9 4.30929 2.98600   3
  -6   3   9 6.99701 3.23385   6
  -6   3   9 4.00187 2.79541   5
  -6   3   9 4.84661 3.43771   6
  -6   3   9 9.92843 2.21841   1
   5  -3  -9 4.88114 2.45839   4
   5  -3  -9 3.58624 3.64382   4
   5  -3  -9 3.11428 3.75135   6
   5  -3  -9 8.67617 2.30012   1
   5  -3  -9 7.20425 3.24395   5
   5  -3  -9 4.87851 2.77460   5
   5  -3  -9 4.20121 2.41562   6
   5  -3  -9 4.13412 2.73767   2
  -5   3   9 4.75836 2.13405   1
  -5   3   9 4.78871 2.64674   5
  -5   3   9 6.66959 2.71054   3
  -5   3   9 3.98926 3.17722   6
  -5   3   9 7.89398 3.20915   5
   4  -3  -9 2.84841 3.10743   6
   4  -3  -9 2.01977 2.62893   5
   4  -3  -9 0.71088 2.79938   4
   4  -3  -9 -0.1362 1.97089   6
   4  -3  -9 2.42885 2.02123   4
   4  -3  -9 1.79143 2.91007   5
   4  -3  -9 0.07283 2.35261   2
  -4   3   9 -1.8155 2.42354   5
  -4   3   9 -2.6700 2.13340   3
  -4   3   9 -0.5391 1.87780   1
  -4   3   9 1.07219 2.43836   6
  -4   3   9 -1.4697 2.84942   5
   3  -3  -9 13.9786 2.57299   4
   3  -3  -9 20.3140 2.53450   1
   3  -3  -9 20.1583 2.01090   4
   3  -3  -9 20.1066 3.35122   5
   3  -3  -9 17.0359 2.84653   2
   3  -3  -9 20.4554 2.90437   5
   3  -3  -9 16.4383 3.17865   6
   3  -3  -9 17.5653 2.37403   6
  -3   3   9 17.8968 3.13999   5
  -3   3   9 15.9458 3.18104   5
  -3   3   9 16.3016 2.27491   1
  -3   3   9 15.7924 3.13828   6
  -3   3   9 18.4017 3.00709   6
  -3   3   9 17.6661 2.63838   3
   2  -3  -9 124.116 6.09088   5
   2  -3  -9 114.913 5.43569   1
   2  -3  -9 113.603 6.69725   5
   2  -3  -9 113.332 5.05032   4
   2  -3  -9 122.521 6.68039   6
   2  -3  -9 116.673 4.39126   4
   2  -3  -9 101.191 5.67179   2
   2  -3  -9 116.424 5.50740   6
  -2   3   9 123.762 5.99721   6
  -2   3   9 123.333 6.26678   5
  -2   3   9 116.841 6.27255   5
  -2   3   9 112.855 5.15923   3
  -2   3   9 117.128 5.24438   1
  -2   3   9 110.600 6.33101   6
   1  -3  -9 21.3883 3.00535   2
   1  -3  -9 23.3608 2.90368   5
   1  -3  -9 23.5441 2.56090   6
   1  -3  -9 22.7265 2.83747   1
   1  -3  -9 24.1029 2.12293   4
   1  -3  -9 20.9824 2.07107   4
   1  -3  -9 22.9742 3.51186   5
   1  -3  -9 28.6049 3.65530   6
  -1   3   9 18.0683 2.69117   5
  -1   3   9 25.8751 3.61617   6
  -1   3   9 25.4761 3.38564   5
  -1   3   9 24.8384 2.54257   3
  -1   3   9 20.5592 2.64430   1
  -1   3   9 30.4900 3.23414   6
   0  -3  -9 151.268 6.53739   2
   0  -3  -9 158.408 6.80444   5
   0  -3  -9 146.924 6.76865   1
   0  -3  -9 150.143 6.23100   6
   0  -3  -9 147.864 4.64485   4
   0  -3  -9 160.751 7.32795   5
   0  -3  -9 148.734 7.30359   6
   0  -3  -9 149.847 4.94615   4
   0   3   9 144.044 6.96585   5
   0   3   9 155.187 7.14505   5
   0   3   9 148.965 5.27462   3
   0   3   9 159.361 7.57901   6
   0   3   9 146.420 6.75562   6
   0   3   9 154.099 6.49032   1
  -1  -3  -9 36.9520 3.89470   6
  -1  -3  -9 33.1879 3.30666   5
  -1  -3  -9 34.8145 3.71171   2
  -1  -3  -9 31.3849 2.90011   6
  -1  -3  -9 26.7494 3.53930   5
  -1  -3  -9 38.8888 3.83705   1
   1   3   9 21.7178 3.20641   6
   1   3   9 33.7706 3.69424   5
   1   3   9 35.6862 3.42453   6
   1   3   9 39.9368 3.91325   5
  -2  -3  -9 25.0578 2.88892   5
  -2  -3  -9 20.6034 2.52976   6
  -2  -3  -9 28.8656 3.58943   6
  -2  -3  -9 21.0930 2.98907   2
  -2  -3  -9 21.8634 3.41217   5
   2   3   9 25.2357 3.58184   1
   2   3   9 28.0833 3.45041   5
   2   3   9 21.0964 3.17409   6
   2   3   9 23.8658 3.66270   6
  -3  -3  -9 55.4188 4.79365   2
  -3  -3  -9 62.7457 4.57588   6
  -3  -3  -9 57.8404 6.20199   6
  -3  -3  -9 66.4897 4.93467   5
  -3  -3  -9 51.9700 4.40716   5
   3   3   9 68.0494 5.53627   5
   3   3   9 65.5018 6.09407   6
   3   3   9 65.1093 6.24173   1
   3   3   9 64.1441 5.93878   5
   3   3   9 58.9476 6.12179   6
  -4  -3  -9 -0.4444 2.37531   6
  -4  -3  -9 4.65055 2.99018   2
  -4  -3  -9 -1.8059 3.12961   6
  -4  -3  -9 2.57190 2.65018   5
   4   3   9 5.75351 4.18852   1
   4   3   9 -0.7102 3.36673   5
   4   3   9 3.21800 4.02123   6
   4   3   9 4.57865 3.47042   5
  -5  -3  -9 8.85804 2.88152   6
  -5  -3  -9 4.83250 2.79666   5
  -5  -3  -9 8.07717 3.58145   2
  -5  -3  -9 14.5533 3.72970   6
   5   3   9 2.19907 5.04345   1
   5   3   9 9.17012 3.95392   5
   7  -4  -9 7.29849 4.06341   5
   7  -4  -9 8.51374 4.15742   4
  -7   4   9 8.84471 4.11401   6
  -7   4   9 6.71597 4.25168   3
   6  -4  -9 2.15306 3.44945   5
   6  -4  -9 3.08984 4.31203   5
   6  -4  -9 0.99202 3.12512   2
   6  -4  -9 -1.4218 2.88176   6
   6  -4  -9 -3.6926 2.22766   1
   6  -4  -9 -1.4951 3.07942   4
  -6   4   9 3.09851 3.61924   6
  -6   4   9 -1.9981 2.69302   3
  -6   4   9 0.75911 1.90027   1
  -6   4   9 0.41146 3.12914   5
  -6   4   9 4.05834 3.86976   6
   5  -4  -9 12.4771 3.87584   5
   5  -4  -9 12.2564 2.72770   4
   5  -4  -9 8.63003 3.17249   2
   5  -4  -9 13.4923 2.88417   6
   5  -4  -9 6.78604 3.74019   6
   5  -4  -9 12.1701 4.07441   4
   5  -4  -9 7.14754 3.24723   5
   5  -4  -9 12.4334 2.24890   1
  -5   4   9 10.0539 2.13235   1
  -5   4   9 8.44376 3.48253   6
  -5   4   9 7.98686 2.88011   5
  -5   4   9 6.31211 3.14834   6
  -5   4   9 5.73725 3.91284   5
  -5   4   9 10.9073 3.01027   3
   4  -4  -9 0.88312 2.44564   2
   4  -4  -9 -0.3112 3.48682   6
   4  -4  -9 -0.4300 2.81091   5
   4  -4  -9 -1.6913 2.03770   4
   4  -4  -9 -1.6227 1.88648   1
   4  -4  -9 1.68663 3.30265   5
   4  -4  -9 2.07436 3.05611   4
   4  -4  -9 0.55311 1.86334   6
  -4   4   9 -0.2325 3.37303   5
  -4   4   9 -0.8201 2.88174   6
  -4   4   9 -0.3004 2.98133   5
  -4   4   9 2.20333 2.46764   3
  -4   4   9 0.14160 2.73629   6
  -4   4   9 -0.4594 1.92972   1
   3  -4  -9 15.3927 2.75005   4
   3  -4  -9 16.5815 3.73753   5
   3  -4  -9 12.7880 1.98613   4
   3  -4  -9 17.0915 2.71829   6
   3  -4  -9 15.8946 3.68126   6
   3  -4  -9 11.7135 2.44390   1
   3  -4  -9 10.5337 2.73800   2
   3  -4  -9 14.2763 2.86523   5
  -3   4   9 13.3773 2.64511   3
  -3   4   9 12.7009 3.09817   5
  -3   4   9 10.2636 2.68547   6
  -3   4   9 14.0928 2.32338   1
  -3   4   9 11.6272 3.58238   5
  -3   4   9 13.8212 3.02533   6
   2  -4  -9 10.5054 2.05076   4
   2  -4  -9 10.2959 2.77088   5
   2  -4  -9 10.5246 2.47620   6
   2  -4  -9 5.52331 2.40823   1
   2  -4  -9 12.1505 4.03731   6
   2  -4  -9 8.90815 2.53764   2
   2  -4  -9 9.16509 1.54349   4
  -2   4   9 8.16068 3.01801   6
  -2   4   9 8.18913 2.19617   1
  -2   4   9 6.54316 2.44015   3
  -2   4   9 11.1962 3.35222   6
  -2   4   9 16.4952 3.27773   5
  -2   4   9 13.7341 3.35297   5
   1  -4  -9 17.3287 1.50005   4
   1  -4  -9 16.0744 1.88841   4
   1  -4  -9 12.1588 3.74681   5
   1  -4  -9 15.0424 3.13119   5
   1  -4  -9 17.4887 3.61839   6
   1  -4  -9 17.5582 2.87175   1
   1  -4  -9 16.7453 3.06004   2
   1  -4  -9 15.6344 2.62205   6
  -1   4   9 15.0569 3.35829   6
  -1   4   9 16.3822 2.45506   3
  -1   4   9 16.5193 2.70274   1
  -1   4   9 13.1776 2.78770   6
  -1   4   9 7.75281 3.08233   5
   0  -4  -9 407.584 11.2957   4
   0  -4  -9 405.686 13.5528   2
   0  -4  -9 392.653 11.1962   4
   0  -4  -9 403.760 13.3491   5
   0  -4  -9 407.083 13.9343   5
   0  -4  -9 420.987 14.0592   6
   0  -4  -9 416.477 13.0864   6
   0  -4  -9 391.887 13.2863   1
   0   4   9 410.558 13.7863   5
   0   4   9 425.214 13.8283   6
   0   4   9 423.238 14.2659   6
   0   4   9 419.433 13.8323   5
   0   4   9 409.735 13.1531   1
  -1  -4  -9 17.0356 3.74841   5
  -1  -4  -9 15.8300 2.96023   6
  -1  -4  -9 13.8960 2.80227   2
  -1  -4  -9 16.8047 3.68507   6
  -1  -4  -9 12.4791 3.02880   5
   1   4   9 17.7229 3.77202   5
   1   4   9 14.4701 3.01938   1
   1   4   9 15.6830 3.58338   6
   1   4   9 11.4999 3.39041   6
   1   4   9 16.1195 3.58117   5
  -2  -4  -9 4.11195 2.43251   5
  -2  -4  -9 5.01876 3.15807   6
  -2  -4  -9 4.63132 2.62065   2
  -2  -4  -9 0.09715 3.34479   5
  -2  -4  -9 6.22081 2.40286   6
   2   4   9 7.40781 3.22051   1
   2   4   9 2.22661 3.47704   6
   2   4   9 6.65719 3.45306   5
   2   4   9 -5.1071 2.90784   6
   2   4   9 4.25709 3.33327   5
  -3  -4  -9 2.82967 3.45751   6
  -3  -4  -9 3.00868 2.48633   6
  -3  -4  -9 4.31082 2.82349   2
  -3  -4  -9 3.37623 2.76965   5
   3   4   9 1.05791 3.92569   1
   3   4   9 3.68199 3.56956   5
   3   4   9 5.50643 3.43070   6
   3   4   9 4.79611 6.24176   6
   3   4   9 5.53068 3.72775   5
  -4  -4  -9 10.5456 3.85390   6
  -4  -4  -9 7.17582 2.69115   6
  -4  -4  -9 5.04444 3.11526   2
   4   4   9 1.09827 4.78794   1
   4   4   9 6.21236 3.95961   5
  -5  -4  -9 13.8226 4.03946   2
  -5  -4  -9 18.2196 3.96849   6
   5   4   9 23.6793 8.71416   1
   5   4   9 15.8319 4.83115   5
   7  -5  -9 20.1728 4.85444   4
   7  -5  -9 24.0877 5.04360   5
   7  -5  -9 9.14647 3.59279   2
  -7   5   9 10.2909 3.91459   3
  -7   5   9 2.69824 4.51427   6
   6  -5  -9 -0.6463 3.54608   5
   6  -5  -9 2.70093 3.69681   4
   6  -5  -9 1.80360 3.11327   2
  -6   5   9 0.80786 4.09877   6
  -6   5   9 1.83537 1.70628   1
  -6   5   9 0.03963 3.17638   3
   5  -5  -9 9.25407 4.69373   5
   5  -5  -9 2.47808 4.09403   6
   5  -5  -9 1.32382 2.77854   6
   5  -5  -9 -1.0886 2.81405   4
   5  -5  -9 1.75907 2.93564   2
   5  -5  -9 3.91901 3.34510   5
   5  -5  -9 -1.3526 3.80646   4
  -5   5   9 1.17634 4.10168   6
  -5   5   9 3.97583 1.88284   1
  -5   5   9 -1.0967 3.72907   6
  -5   5   9 5.30705 3.09758   3
   4  -5  -9 2.57987 2.45224   6
   4  -5  -9 0.38101 3.47688   6
   4  -5  -9 3.02498 5.68669   5
   4  -5  -9 2.13806 3.16425   4
   4  -5  -9 5.64998 2.56274   4
   4  -5  -9 -0.1365 3.67989   5
   4  -5  -9 5.64656 3.03647   2
  -4   5   9 5.55437 3.36947   5
  -4   5   9 5.13940 2.06293   1
  -4   5   9 2.22280 3.39565   6
  -4   5   9 0.51281 4.15721   5
  -4   5   9 -2.0445 2.61094   3
  -4   5   9 4.53874 3.73144   6
   3  -5  -9 0.97358 2.87489   5
   3  -5  -9 -2.5347 2.34446   4
   3  -5  -9 1.87453 1.92058   4
   3  -5  -9 -1.5895 3.69933   6
   3  -5  -9 0.83210 2.52890   6
   3  -5  -9 -0.2255 2.54469   2
  -3   5   9 0.22244 3.26273   6
  -3   5   9 -0.7655 3.27421   6
  -3   5   9 1.19134 2.13043   1
  -3   5   9 -4.2116 3.40602   5
  -3   5   9 -0.0548 2.39083   3
  -3   5   9 5.71870 4.19976   5
   2  -5  -9 14.2942 2.36768   4
   2  -5  -9 17.1339 3.20359   5
   2  -5  -9 18.1450 1.90253   4
   2  -5  -9 16.6776 3.11123   2
   2  -5  -9 14.6179 3.78240   5
   2  -5  -9 9.30538 2.52538   6
   2  -5  -9 8.82760 3.29078   6
  -2   5   9 14.0429 3.48024   5
  -2   5   9 14.4723 2.90920   3
  -2   5   9 10.7203 3.56993   6
  -2   5   9 15.6506 2.65461   1
  -2   5   9 17.5094 3.41686   6
  -2   5   9 9.46552 3.82076   5
   1  -5  -9 76.6452 3.66613   4
   1  -5  -9 67.2516 6.63045   6
   1  -5  -9 79.1899 5.99322   5
   1  -5  -9 71.7855 7.35316   5
   1  -5  -9 59.7585 5.02335   2
   1  -5  -9 75.0392 3.08024   4
   1  -5  -9 81.0740 5.23374   6
  -1   5   9 76.4878 5.29369   1
  -1   5   9 77.3546 6.47100   6
  -1   5   9 72.9855 4.79059   3
  -1   5   9 91.1155 6.85419   5
  -1   5   9 68.6320 7.12741   5
  -1   5   9 69.7727 6.61944   6
   0  -5  -9 30.0251 4.11674   6
   0  -5  -9 24.0711 4.58318   5
   0  -5  -9 23.8296 4.18816   6
   0  -5  -9 19.6287 3.05601   2
   0  -5  -9 23.9293 3.56902   5
   0   5   9 27.5452 4.13473   6
   0   5   9 21.8788 4.10921   5
   0   5   9 30.0758 4.21256   5
   0   5   9 29.2970 2.97986   3
   0   5   9 18.7642 4.03649   6
   0   5   9 20.8950 3.63625   1
  -1  -5  -9 67.1351 5.23942   2
  -1  -5  -9 77.0252 6.94145   6
  -1  -5  -9 79.6249 5.34515   6
  -1  -5  -9 67.6799 7.12973   5
  -1  -5  -9 74.0226 6.02228   5
   1   5   9 71.6861 6.25895   1
   1   5   9 70.6381 7.10447   6
   1   5   9 71.3071 6.83156   5
   1   5   9 67.8634 6.91899   6
   1   5   9 76.9813 7.08278   5
  -2  -5  -9 16.9460 3.21060   5
  -2  -5  -9 18.0097 3.02415   6
  -2  -5  -9 19.5091 3.49881   2
  -2  -5  -9 22.0524 4.15970   6
   2   5   9 12.9488 4.19547   6
   2   5   9 25.1599 4.49294   5
   2   5   9 24.0355 4.79639   6
   2   5   9 26.8207 4.56375   1
   2   5   9 20.9300 4.89135   5
  -3  -5  -9 1.33194 2.83767   6
  -3  -5  -9 8.55222 3.60281   5
  -3  -5  -9 7.65618 4.36047   6
  -3  -5  -9 4.73831 3.02755   2
   3   5   9 -1.9366 4.93934   6
   3   5   9 5.59353 4.39817   5
   3   5   9 2.18050 4.65683   1
  -4  -5  -9 43.1489 4.93582   2
  -4  -5  -9 42.9981 3.98050   6
   4   5   9 47.6560 5.94838   5
   4   5   9 48.1464 6.59588   1
   6  -6  -9 4.41056 4.02900   4
   6  -6  -9 5.54906 4.12085   2
   6  -6  -9 5.63006 4.74748   5
  -6   6   9 8.65672 5.31105   6
   5  -6  -9 0.56274 7.07118   6
   5  -6  -9 -3.2469 6.39446   5
   5  -6  -9 1.61379 4.92799   4
   5  -6  -9 0.42946 3.21059   2
   5  -6  -9 4.11102 4.53365   5
   5  -6  -9 -1.0421 2.68124   6
   5  -6  -9 -3.9742 3.16822   4
  -5   6   9 -3.4222 4.76686   6
  -5   6   9 -0.0515 1.60355   1
  -5   6   9 1.64141 3.10986   3
  -5   6   9 4.93485 4.12742   5
   4  -6  -9 2.24051 2.69817   4
   4  -6  -9 -1.2634 3.59722   4
   4  -6  -9 3.26936 3.93074   5
   4  -6  -9 -1.8368 2.59174   6
   4  -6  -9 4.63422 5.21333   6
   4  -6  -9 -2.7171 6.06556   5
   4  -6  -9 1.42084 2.82151   2
  -4   6   9 -1.4375 2.64575   3
  -4   6   9 -3.6919 2.06477   1
  -4   6   9 -6.9404 4.20461   6
  -4   6   9 2.10316 4.49860   6
  -4   6   9 -4.3226 3.71882   5
  -4   6   9 -6.7699 5.44137   5
   3  -6  -9 0.00043 2.70515   6
   3  -6  -9 -0.8230 3.18576   5
   3  -6  -9 3.98774 4.47146   5
   3  -6  -9 -0.3396 2.79743   4
   3  -6  -9 -0.0546 2.20455   4
   3  -6  -9 -2.1281 4.55029   6
   3  -6  -9 -0.2373 2.87364   2
  -3   6   9 -0.8208 2.63779   3
  -3   6   9 -2.3950 4.83734   5
  -3   6   9 4.60804 3.98342   6
  -3   6   9 -5.4951 4.25940   6
  -3   6   9 2.64243 3.74803   5
  -3   6   9 -3.0261 2.34199   1
   2  -6  -9 22.9742 2.26842   4
   2  -6  -9 23.5974 3.39586   6
   2  -6  -9 34.4165 5.05632   6
   2  -6  -9 26.8202 5.03509   5
   2  -6  -9 31.2479 2.94121   4
   2  -6  -9 20.6985 3.61668   2
   2  -6  -9 27.3386 3.85261   5
  -2   6   9 24.2504 4.74712   6
  -2   6   9 26.0763 4.31755   5
  -2   6   9 26.4449 3.23968   1
  -2   6   9 27.3364 3.54961   3
  -2   6   9 27.3057 4.85260   6
  -2   6   9 26.2298 5.31560   5
   1  -6  -9 9.92160 4.05421   6
   1  -6  -9 20.2702 4.03119   5
   1  -6  -9 18.0624 4.85598   5
   1  -6  -9 15.2454 1.81777   4
   1  -6  -9 14.6591 3.13123   2
   1  -6  -9 17.2578 1.49097   4
   1  -6  -9 14.8231 3.75581   6
  -1   6   9 17.0655 4.20511   6
  -1   6   9 16.3048 3.21588   1
  -1   6   9 19.4837 4.88496   5
  -1   6   9 13.5799 4.13979   6
  -1   6   9 13.4810 4.41934   5
  -1   6   9 12.8650 2.91157   3
   0  -6  -9 24.8138 3.61081   5
   0  -6  -9 25.7815 3.74428   2
   0  -6  -9 21.9247 4.24060   6
   0  -6  -9 28.0099 5.40168   5
   0  -6  -9 32.8891 3.83351   6
   0   6   9 31.2813 4.74665   6
   0   6   9 24.0050 4.20674   6
   0   6   9 25.9825 3.87819   1
   0   6   9 28.5232 5.01746   5
   0   6   9 31.8095 7.53576   5
   0   6   9 32.7847 3.29869   3
  -1  -6  -9 223.824 10.7536   6
  -1  -6  -9 219.685 9.07269   6
  -1  -6  -9 198.090 9.01952   2
   1   6   9 233.614 10.8396   5
   1   6   9 218.143 9.74846   1
   1   6   9 222.376 10.8082   6
   1   6   9 228.196 11.2254   6
   1   6   9 201.592 12.0295   5
   1   6   9 217.209 8.47835   3
  -2  -6  -9 7.01863 3.21517   6
  -2  -6  -9 7.61632 3.25432   2
   2   6   9 6.89044 4.53364   5
   2   6   9 7.86907 4.82596   1
   2   6   9 9.23681 5.21023   6
  -3  -6  -9 4.80834 3.47102   6
  -3  -6  -9 6.06300 4.17256   2
   3   6   9 4.45484 5.49304   1
   3   6   9 11.5566 5.41998   5
   5  -7  -9 1.15856 3.78957   4
   5  -7  -9 3.00754 5.15038   5
   5  -7  -9 3.25176 3.38276   2
  -5   7   9 3.68229 5.77159   6
  -5   7   9 7.51250 3.73014   3
   4  -7  -9 0.99449 3.22220   2
   4  -7  -9 -1.1822 6.13312   5
   4  -7  -9 1.23522 3.30768   4
   4  -7  -9 6.02130 5.01660   5
   4  -7  -9 -3.3296 5.35474   6
   4  -7  -9 3.76180 3.80460   6
   4  -7  -9 -6.6567 4.32782   4
  -4   7   9 8.60391 5.34030   6
  -4   7   9 -1.6329 2.22481   1
  -4   7   9 -0.4739 2.99208   3
  -4   7   9 10.5656 5.60843   5
   3  -7  -9 13.5984 5.93156   6
   3  -7  -9 -1.6309 6.46391   5
   3  -7  -9 5.47085 3.39570   4
   3  -7  -9 3.27722 2.56875   4
   3  -7  -9 4.67788 3.60385   6
   3  -7  -9 2.67346 3.11919   2
   3  -7  -9 9.49223 4.72646   5
  -3   7   9 1.67742 2.57631   1
  -3   7   9 -2.1162 6.40911   5
  -3   7   9 5.47721 3.22049   3
  -3   7   9 8.64910 5.04515   5
  -3   7   9 3.93607 4.60524   6
   2  -7  -9 6.45318 4.81709   6
   2  -7  -9 2.35562 3.02505   2
   2  -7  -9 2.27384 5.06123   5
   2  -7  -9 2.43586 4.16983   5
   2  -7  -9 2.82760 4.16203   4
   2  -7  -9 5.07767 2.05927   4
  -2   7   9 11.6784 6.23655   5
  -2   7   9 3.56629 3.07855   1
  -2   7   9 2.12325 3.12560   3
  -2   7   9 4.76142 4.65658   5
  -2   7   9 3.70787 4.76416   6
   1  -7  -9 8.99209 3.15826   2
   1  -7  -9 12.8834 1.46411   4
   1  -7  -9 10.2017 5.23605   5
   1  -7  -9 15.4805 1.74063   4
   1  -7  -9 11.4594 5.47486   6
   1  -7  -9 13.0063 3.94428   6
   1  -7  -9 9.63183 3.82462   5
  -1   7   9 13.6008 3.76977   1
  -1   7   9 13.6630 3.30959   3
  -1   7   9 12.7626 5.04220   6
  -1   7   9 14.9737 5.73662   6
  -1   7   9 1.06289 6.57654   5
  -1   7   9 11.3120 5.10012   5
   0  -7  -9 26.2091 4.91055   5
   0  -7  -9 31.0871 4.55485   6
   0  -7  -9 25.5876 6.10112   6
   0  -7  -9 22.0471 3.85905   2
   0   7   9 27.5769 5.53881   6
   0   7   9 20.0490 5.51905   5
   0   7   9 33.3040 4.67612   1
   0   7   9 30.5132 3.82243   3
   0   7   9 28.0405 6.59559   6
   0   7   9 26.1813 7.37925   5
  -1  -7  -9 18.5634 3.84131   6
  -1  -7  -9 11.2816 4.30469   2
   1   7   9 12.6131 6.45467   6
   1   7   9 18.7440 4.94164   3
   1   7   9 17.6471 6.04000   5
   1   7   9 20.8164 5.18393   1
  -2  -7  -9 15.1826 3.81483   2
  -2  -7  -9 21.3491 4.08397   6
   2   7   9 30.6431 6.17671   1
   2   7   9 16.5158 6.48753   5
   4  -8  -9 3.43655 3.66657   4
   4  -8  -9 1.17477 3.28094   2
   4  -8  -9 3.94925 5.63058   5
  -4   8   9 2.58212 3.41597   3
  -4   8   9 0.23404 6.63402   6
   3  -8  -9 21.7189 11.5269   6
   3  -8  -9 5.39607 3.31267   2
   3  -8  -9 9.44782 7.98512   5
   3  -8  -9 8.86636 6.63927   5
   3  -8  -9 3.68153 4.45686   6
   3  -8  -9 11.1294 3.13111   4
  -3   8   9 6.30086 6.56522   6
  -3   8   9 3.22645 3.52964   3
   2  -8  -9 3.28447 5.36272   5
   2  -8  -9 -6.1063 4.31858   6
   2  -8  -9 1.87470 3.37634   2
  -2   8   9 13.9815 8.86059   5
  -2   8   9 -1.9007 3.66487   1
  -2   8   9 -2.2288 6.13677   6
  -2   8   9 2.85172 3.34428   3
  -2   8   9 4.02183 6.10929   5
   1  -8  -9 25.4868 4.36067   2
   1  -8  -9 31.0540 5.00805   6
  -1   8   9 33.0941 4.24372   3
  -1   8   9 31.3949 4.69517   1
  -1   8   9 25.2339 6.59531   5
  -1   8   9 17.5296 6.00517   6
   0  -8  -9 10.2326 4.79844   6
   0  -8  -9 8.73407 3.61111   2
   0   8   9 6.07726 6.43908   5
   0   8   9 16.9689 5.22836   1
   0   8   9 18.9308 4.02637   3
   1   8 -10 30.1199 4.60543   3
   1   8 -10 34.5041 6.67685   4
   1   8 -10 14.9999 9.44788   6
   1   8 -10 30.1085 6.85589   5
   1   8 -10 35.5538 12.6823   6
  -1  -8  10 33.7100 6.07763   1
   0   8 -10 11.9073 9.06396   5
   0   8 -10 21.5859 5.52649   4
   0   8 -10 15.7040 3.77945   3
   0   8 -10 1.08174 6.04001   5
   0   8 -10 27.4671 6.71649   6
   0  -8  10 21.6589 6.04356   1
  -1   8 -10 14.3417 10.0489   5
  -1   8 -10 9.92077 3.59455   3
  -1   8 -10 16.3691 5.38683   4
  -1   8 -10 19.0244 6.25608   6
   1  -8  10 17.0599 6.44968   5
   1  -8  10 14.1734 5.66737   1
   1  -8  10 10.2441 9.26999   5
  -2   8 -10 -1.1564 3.62714   3
  -2   8 -10 2.60282 6.58706   6
  -2   8 -10 0.12587 5.28345   4
   2  -8  10 -0.3173 5.64485   1
   2  -8  10 7.10213 6.87588   5
   3   7 -10 1.21039 3.24746   3
   3   7 -10 1.64481 4.51834   4
   3   7 -10 3.77612 6.19803   5
  -3  -7  10 3.26370 5.63756   1
   2   7 -10 -2.0989 9.48390   6
   2   7 -10 19.6051 5.80403   6
   2   7 -10 15.8421 6.22688   5
   2   7 -10 5.33255 3.36377   3
   2   7 -10 12.4125 4.39103   4
  -2  -7  10 17.7085 5.33418   1
   1   7 -10 86.6067 7.55251   5
   1   7 -10 81.2086 8.34728   5
   1   7 -10 88.5353 8.97257   6
   1   7 -10 81.8765 8.32978   6
   1   7 -10 70.0493 5.66539   3
   1   7 -10 75.0255 5.96629   4
  -1  -7  10 84.5132 6.57722   1
  -1  -7  10 74.7530 6.42019   5
  -1  -7  10 70.5283 7.36167   6
   0   7 -10 2.48568 4.14775   4
   0   7 -10 2.03936 6.39233   6
   0   7 -10 -4.1697 4.75381   6
   0   7 -10 -5.1938 5.32741   5
   0   7 -10 6.79680 6.88349   5
   0   7 -10 1.76037 2.86254   3
   0  -7  10 1.41457 4.24948   1
   0  -7  10 -2.9014 5.16938   5
   0  -7  10 -1.1858 4.33193   5
   0  -7  10 2.09987 4.06349   6
  -1   7 -10 2.93655 4.97456   6
  -1   7 -10 -2.2777 6.06141   5
  -1   7 -10 -7.8854 4.95241   5
  -1   7 -10 5.02758 3.09514   3
  -1   7 -10 -4.4448 4.24655   4
  -1   7 -10 -2.2971 6.63954   6
   1  -7  10 13.6398 4.96367   5
   1  -7  10 -4.7710 4.51391   1
   1  -7  10 6.58602 6.66481   5
   1  -7  10 5.55131 4.05587   6
  -2   7 -10 28.2723 5.10411   4
  -2   7 -10 38.1206 6.57533   6
  -2   7 -10 29.7018 3.91193   3
  -2   7 -10 27.7744 6.44858   5
   2  -7  10 35.4133 7.62447   5
   2  -7  10 31.0522 5.66613   6
   2  -7  10 43.1337 5.33919   1
   2  -7  10 36.2345 6.30588   5
  -3   7 -10 28.0086 5.30313   4
  -3   7 -10 46.5999 6.95815   6
  -3   7 -10 32.4692 4.27056   3
   3  -7  10 50.4355 7.04104   5
   3  -7  10 26.7831 5.39001   1
   4   6 -10 5.70752 5.44377   5
   4   6 -10 4.54066 4.09354   4
  -4  -6  10 7.97335 5.48028   1
   3   6 -10 29.4212 5.52611   5
   3   6 -10 19.6949 8.03354   5
   3   6 -10 22.5591 3.60814   3
   3   6 -10 24.6774 4.23282   4
   3   6 -10 31.1133 5.33484   6
  -3  -6  10 23.1653 5.15646   1
   2   6 -10 33.3813 4.78758   6
   2   6 -10 47.4929 4.82514   3
   2   6 -10 47.9053 5.92338   5
   2   6 -10 42.2887 6.25543   6
   2   6 -10 38.7469 4.54622   4
  -2  -6  10 33.8069 4.63570   5
  -2  -6  10 47.7123 4.87413   6
  -2  -6  10 48.0987 5.29642   1
   1   6 -10 21.2498 5.02769   5
   1   6 -10 23.6365 5.98954   6
   1   6 -10 22.5141 3.77507   4
   1   6 -10 24.0691 4.38186   6
   1   6 -10 26.4893 3.37690   3
   1   6 -10 21.6623 5.17692   5
  -1  -6  10 36.5527 5.02602   5
  -1  -6  10 26.5144 5.38069   5
  -1  -6  10 26.7279 3.84695   6
  -1  -6  10 15.5729 4.51637   1
   0   6 -10 54.6073 4.58330   4
   0   6 -10 65.0907 4.86369   3
   0   6 -10 65.8062 6.05196   5
   0   6 -10 67.0524 6.41498   5
   0   6 -10 71.0378 7.76879   6
   0   6 -10 71.0285 7.12353   6
   0  -6  10 74.1525 6.97151   1
   0  -6  10 74.6521 6.14936   5
   0  -6  10 78.8144 6.28718   6
   0  -6  10 56.4748 5.46181   5
  -1   6 -10 27.3440 5.51634   5
  -1   6 -10 30.3960 5.11144   5
  -1   6 -10 24.2625 4.06213   4
  -1   6 -10 22.0495 5.53831   6
  -1   6 -10 22.5385 3.15484   2
  -1   6 -10 24.5014 7.05484   6
  -1   6 -10 20.1950 3.24848   3
   1  -6  10 17.0814 4.00340   1
   1  -6  10 16.2306 5.85393   5
   1  -6  10 8.65249 3.64561   6
   1  -6  10 16.4982 4.50678   5
  -2   6 -10 12.1633 4.81919   6
  -2   6 -10 14.9744 3.24994   3
  -2   6 -10 17.9291 4.66848   5
  -2   6 -10 21.8050 5.82075   6
  -2   6 -10 18.9780 4.20321   4
  -2   6 -10 12.6577 5.34237   5
   2  -6  10 17.2337 4.33623   1
   2  -6  10 17.5342 4.50238   6
   2  -6  10 14.7973 5.35362   5
   2  -6  10 14.5556 6.71511   5
  -3   6 -10 -6.7767 5.17406   5
  -3   6 -10 1.50938 4.63150   6
  -3   6 -10 -1.1838 3.73944   4
  -3   6 -10 2.39605 3.10815   3
   3  -6  10 -4.1636 7.66021   5
   3  -6  10 -2.3986 5.17538   5
   3  -6  10 0.64457 4.14379   1
   3  -6  10 -1.8343 4.21605   6
  -4   6 -10 -2.4849 5.35355   6
  -4   6 -10 8.68565 3.90969   3
  -4   6 -10 8.00480 4.95299   4
   4  -6  10 9.92013 6.13289   5
   4  -6  10 0.02338 5.12175   1
   5   5 -10 6.18545 4.91749   5
   5   5 -10 4.51872 3.99224   4
  -5  -5  10 1.64514 5.27084   1
   4   5 -10 -1.2402 3.47295   4
   4   5 -10 6.52223 6.94451   5
   4   5 -10 1.14116 4.13411   5
   4   5 -10 -2.4141 4.12115   6
  -4  -5  10 5.70191 3.19640   6
  -4  -5  10 0.05254 4.49139   1
  -4  -5  10 0.24281 4.06417   5
   3   5 -10 2.00114 3.03821   4
   3   5 -10 13.5368 5.18397   6
   3   5 -10 8.04829 4.68514   5
   3   5 -10 4.24959 3.42496   6
   3   5 -10 5.54016 4.20256   5
  -3  -5  10 6.53557 3.23353   6
  -3  -5  10 5.35918 3.04599   5
  -3  -5  10 3.92011 3.78562   1
   2   5 -10 1.66683 4.50842   6
   2   5 -10 -1.7833 4.18066   5
   2   5 -10 -5.6733 3.30627   6
   2   5 -10 2.40565 3.99608   5
   2   5 -10 -0.7042 2.79742   4
  -2  -5  10 -2.2734 3.57315   5
  -2  -5  10 -3.6707 2.94478   5
  -2  -5  10 -0.3447 2.64412   6
  -2  -5  10 0.62273 4.03963   4
  -2  -5  10 -2.8600 3.62218   1
   1   5 -10 13.5852 3.79880   5
   1   5 -10 7.69989 3.71414   1
   1   5 -10 11.3307 2.58214   3
   1   5 -10 12.6370 3.11286   4
   1   5 -10 13.8524 4.02919   5
   1   5 -10 11.4276 3.60768   6
   1   5 -10 18.5257 4.94000   6
  -1  -5  10 15.3646 3.39566   6
  -1  -5  10 14.6943 4.22830   5
  -1  -5  10 11.5375 3.75850   1
  -1  -5  10 15.0440 3.64719   5
  -1  -5  10 13.4043 3.27946   4
   0   5 -10 111.480 5.55868   3
   0   5 -10 127.143 8.51328   5
   0   5 -10 120.884 8.81747   6
   0   5 -10 115.265 7.71451   1
   0   5 -10 121.936 7.34849   6
   0   5 -10 116.821 6.49651   4
   0   5 -10 124.745 8.12699   5
   0  -5  10 129.958 7.96983   5
   0  -5  10 106.261 10.9911   6
   0  -5  10 120.103 6.62408   4
   0  -5  10 123.289 7.20734   1
   0  -5  10 122.079 8.20039   5
  -1   5 -10 -0.5097 3.72083   5
  -1   5 -10 4.14446 2.53579   2
  -1   5 -10 1.82603 2.64958   4
  -1   5 -10 4.54090 4.16489   1
  -1   5 -10 0.56407 2.21112   3
  -1   5 -10 3.02297 4.48745   6
  -1   5 -10 5.38589 4.25742   5
  -1   5 -10 1.01014 3.50914   6
   1  -5  10 0.17217 3.04250   4
   1  -5  10 1.06939 3.05653   5
   1  -5  10 3.56698 3.19336   6
   1  -5  10 2.26026 3.59982   5
   1  -5  10 4.83270 3.30056   1
  -2   5 -10 -4.8615 3.97788   1
  -2   5 -10 -2.3637 3.05259   6
  -2   5 -10 1.39933 2.48068   3
  -2   5 -10 1.62545 3.82309   5
  -2   5 -10 7.11728 4.58647   5
  -2   5 -10 -9.2187 4.46617   6
  -2   5 -10 -1.5194 3.08246   4
   2  -5  10 0.54164 3.74213   5
   2  -5  10 -1.0685 3.17657   4
   2  -5  10 2.97121 3.50610   1
   2  -5  10 4.14937 3.22659   6
  -3   5 -10 50.3001 4.91908   6
  -3   5 -10 50.1091 5.73191   6
  -3   5 -10 52.0741 4.23933   3
  -3   5 -10 47.1452 4.38206   4
  -3   5 -10 39.1543 6.50146   5
   3  -5  10 56.5259 5.00888   1
   3  -5  10 52.7151 5.04580   6
   3  -5  10 42.0885 4.88462   5
   3  -5  10 33.0642 4.15448   4
   3  -5  10 67.8321 6.27454   5
  -4   5 -10 80.9701 6.05450   3
  -4   5 -10 74.2637 7.85824   6
  -4   5 -10 83.4450 7.72908   4
   4  -5  10 78.7449 6.90774   5
   4  -5  10 89.2027 8.75452   4
   4  -5  10 69.3679 5.93812   1
  -5   5 -10 11.2713 5.24299   4
  -5   5 -10 16.3204 5.07937   6
   5  -5  10 13.7412 5.39826   5
   5  -5  10 11.2168 5.45435   1
   6   4 -10 -9.6871 4.55528   4
  -6  -4  10 3.33723 4.95019   1
   5   4 -10 22.1448 4.40183   5
   5   4 -10 20.8306 4.11384   4
  -5  -4  10 23.0101 4.70719   1
  -5  -4  10 23.0843 5.18757   5
  -5  -4  10 18.8639 3.50706   6
   4   4 -10 25.7020 4.12654   6
   4   4 -10 24.2013 5.35931   6
   4   4 -10 20.7267 4.52180   5
   4   4 -10 21.7734 4.26868   5
   4   4 -10 20.6112 3.50603   4
  -4  -4  10 24.5501 4.44208   1
  -4  -4  10 26.4766 3.82223   5
   3   4 -10 6.09492 3.76131   5
   3   4 -10 1.83086 3.48941   5
   3   4 -10 5.35336 2.84115   4
   3   4 -10 1.17943 2.88401   6
   3   4 -10 6.00659 4.38121   6
   3   4 -10 4.80514 4.29062   1
  -3  -4  10 -1.7733 3.43490   4
  -3  -4  10 3.16431 2.73663   5
  -3  -4  10 -0.5689 2.71738   6
  -3  -4  10 0.96894 3.47634   5
  -3  -4  10 4.54822 3.27233   1
   2   4 -10 40.5154 4.92792   6
   2   4 -10 38.9520 3.49323   4
   2   4 -10 37.6372 4.30736   5
   2   4 -10 34.2129 4.26437   5
   2   4 -10 45.4848 4.30421   6
   2   4 -10 35.0670 4.27507   1
  -2  -4  10 34.8684 3.51270   6
  -2  -4  10 34.2161 4.09588   1
  -2  -4  10 39.3818 4.08369   4
  -2  -4  10 39.2822 4.34810   5
  -2  -4  10 28.0249 3.41246   5
   1   4 -10 92.9773 5.27771   4
   1   4 -10 84.2560 4.73947   3
   1   4 -10 87.4104 6.00279   6
   1   4 -10 89.3304 7.31097   6
   1   4 -10 87.9565 7.01937   1
   1   4 -10 63.5799 6.82910   5
  -1  -4  10 94.5090 6.72699   5
  -1  -4  10 83.9507 6.32708   5
  -1  -4  10 100.933 6.18463   1
  -1  -4  10 88.1049 5.88796   4
  -1  -4  10 102.118 5.85451   6
   0   4 -10 25.2178 3.90008   5
   0   4 -10 30.3474 3.29054   2
   0   4 -10 23.9486 2.86503   4
   0   4 -10 31.4177 3.40089   3
   0   4 -10 37.0215 4.67429   6
   0   4 -10 33.8652 3.88827   6
   0   4 -10 30.2104 4.15250   1
   0   4 -10 32.4078 4.32731   5
   0  -4  10 27.5741 3.99283   5
   0  -4  10 25.1049 3.59886   5
   0  -4  10 29.8136 3.31375   4
   0  -4  10 35.6724 3.52530   6
   0  -4  10 27.6795 3.75258   1
  -1   4 -10 83.2834 6.05932   6
  -1   4 -10 90.4542 6.87257   5
  -1   4 -10 78.9934 7.23913   6
  -1   4 -10 84.1679 5.28984   4
  -1   4 -10 84.4664 6.68937   1
  -1   4 -10 77.3815 7.20822   5
  -1   4 -10 74.1928 4.34621   3
   1  -4  10 93.1958 7.41922   5
   1  -4  10 87.0304 5.85895   6
   1  -4  10 74.0710 5.96746   1
   1  -4  10 79.4609 6.59933   5
   1  -4  10 86.4691 5.27887   4
  -2   4 -10 19.9361 2.72235   3
  -2   4 -10 12.1600 4.11921   6
  -2   4 -10 17.0058 3.89228   5
  -2   4 -10 16.1238 3.11540   4
  -2   4 -10 15.0189 4.44603   5
  -2   4 -10 17.8889 2.63304   2
  -2   4 -10 15.4937 4.13782   1
  -2   4 -10 12.6825 3.33312   6
   2  -4  10 12.6374 3.71268   5
   2  -4  10 17.4530 3.11721   6
   2  -4  10 15.1507 2.76022   4
   2  -4  10 15.5023 3.60391   5
   2  -4  10 25.0543 3.80461   1
  -3   4 -10 14.9361 3.10844   3
  -3   4 -10 10.1038 3.64266   5
  -3   4 -10 7.36176 3.56919   6
  -3   4 -10 5.55895 4.37855   1
  -3   4 -10 9.32056 3.20523   4
  -3   4 -10 13.3603 4.70906   5
  -3   4 -10 10.2719 4.13172   6
   3  -4  10 14.2354 3.76388   1
   3  -4  10 17.3363 4.30037   5
   3  -4  10 18.7762 3.74636   6
   3  -4  10 13.2710 4.50108   5
   3  -4  10 10.6607 3.08478   4
  -4   4 -10 0.38124 3.51210   4
  -4   4 -10 0.05023 6.29506   6
  -4   4 -10 -1.9353 3.24195   6
  -4   4 -10 -2.4764 3.94858   5
   4  -4  10 -4.2177 3.96160   1
   4  -4  10 -1.1168 4.17921   5
   4  -4  10 -3.8247 4.55798   5
   4  -4  10 -3.3009 3.49834   4
  -5   4 -10 16.2472 4.50174   6
  -5   4 -10 8.35502 4.41448   4
   5  -4  10 11.9409 4.72399   4
   5  -4  10 8.38237 4.85746   5
   5  -4  10 7.51490 4.90320   1
   6   3 -10 4.30035 3.82816   4
   6   3 -10 1.08023 4.13026   5
  -6  -3  10 3.84265 4.42723   1
  -6  -3  10 1.77025 3.34028   6
   5   3 -10 18.7818 3.91649   6
   5   3 -10 19.5567 4.40569   5
   5   3 -10 20.4796 3.84727   4
   5   3 -10 25.7416 4.14841   5
  -5  -3  10 25.1132 3.54521   5
  -5  -3  10 22.8023 3.47660   6
  -5  -3  10 24.0676 4.31988   1
   4   3 -10 2.68748 2.81706   4
   4   3 -10 -1.9572 2.74540   6
   4   3 -10 -0.1854 3.92503   6
   4   3 -10 4.09414 3.51889   5
   4   3 -10 -0.0577 4.25744   1
   4   3 -10 1.47784 3.16113   5
  -4  -3  10 6.90364 3.00237   5
  -4  -3  10 6.27198 3.16516   1
  -4  -3  10 1.19728 2.78310   5
   3   3 -10 -1.1044 3.23864   5
   3   3 -10 -0.3852 3.35742   1
   3   3 -10 0.28192 3.85672   6
   3   3 -10 -0.7369 2.52298   6
   3   3 -10 3.61097 3.14188   5
   3   3 -10 -0.5794 2.39071   4
  -3  -3  10 1.88456 3.02291   4
  -3  -3  10 -0.8741 2.18624   5
  -3  -3  10 2.33243 2.83143   1
  -3  -3  10 2.25806 2.28171   6
  -3  -3  10 0.86839 3.03205   5
   2   3 -10 7.17133 3.38054   1
   2   3 -10 6.30156 2.81916   5
   2   3 -10 4.47151 2.87288   5
   2   3 -10 3.71183 2.12968   4
   2   3 -10 12.8474 3.92129   6
   2   3 -10 3.47420 2.40382   6
  -2  -3  10 1.03983 2.68088   1
  -2  -3  10 5.72439 2.66022   4
  -2  -3  10 3.16954 2.40584   6
  -2  -3  10 4.80695 3.06613   5
  -2  -3  10 7.16630 2.92449   5
   1   3 -10 5.92575 2.08121   4
   1   3 -10 8.76934 3.45630   5
   1   3 -10 5.98440 2.47520   6
   1   3 -10 8.81795 3.10895   5
   1   3 -10 5.68644 3.41728   6
   1   3 -10 10.3176 3.30527   1
  -1  -3  10 6.28097 2.57388   5
  -1  -3  10 4.68274 2.26839   6
  -1  -3  10 6.60636 2.76725   1
  -1  -3  10 2.31886 2.22103   4
  -1  -3  10 9.49563 3.04350   5
   0   3 -10 26.4565 3.61894   1
   0   3 -10 28.0998 4.27700   6
   0   3 -10 22.9377 3.53648   5
   0   3 -10 21.3636 2.61532   4
   0   3 -10 22.7121 3.64919   5
   0   3 -10 22.1766 2.84060   2
   0   3 -10 21.5728 2.43510   3
   0   3 -10 20.8910 3.08737   6
   0  -3  10 22.7156 3.24135   5
   0  -3  10 21.5326 2.57055   4
   0  -3  10 15.1251 2.87134   5
   0  -3  10 18.9798 3.09797   1
   0  -3  10 23.7387 3.01825   6
  -1   3 -10 125.408 7.22424   1
  -1   3 -10 121.731 5.62934   2
  -1   3 -10 121.147 5.08084   3
  -1   3 -10 133.895 7.64687   6
  -1   3 -10 139.171 7.01569   5
  -1   3 -10 139.081 6.73011   6
  -1   3 -10 119.604 7.53394   5
  -1   3 -10 126.386 5.75690   4
   1  -3  10 128.303 6.91977   5
   1  -3  10 128.930 5.64727   4
   1  -3  10 135.883 6.51809   6
   1  -3  10 129.661 7.04211   5
   1  -3  10 127.668 6.65570   1
  -2   3 -10 2.56264 2.61152   6
  -2   3 -10 -1.1331 3.41321   5
  -2   3 -10 3.16145 3.06565   6
  -2   3 -10 -0.0102 3.29085   5
  -2   3 -10 4.03155 3.20185   1
  -2   3 -10 0.45939 2.16190   3
  -2   3 -10 3.29831 2.31251   4
  -2   3 -10 1.94600 2.17779   2
   2  -3  10 -0.0864 2.91395   5
   2  -3  10 -0.0530 2.64150   6
   2  -3  10 0.75551 2.98745   5
   2  -3  10 3.00308 2.18105   4
   2  -3  10 3.27611 2.85136   1
  -3   3 -10 13.2306 3.95751   5
  -3   3 -10 1.35051 2.58268   6
  -3   3 -10 5.37915 3.52694   6
  -3   3 -10 7.17901 2.69445   4
  -3   3 -10 10.8478 4.05746   1
   3  -3  10 4.04204 3.33434   1
   3  -3  10 5.58658 3.45047   5
   3  -3  10 3.80196 3.10278   5
   3  -3  10 5.41277 2.37371   4
   3  -3  10 3.73611 3.01404   6
  -4   3 -10 49.4025 4.62770   5
  -4   3 -10 56.9562 6.05395   6
  -4   3 -10 46.2460 4.18990   4
  -4   3 -10 44.1505 4.79595   6
   4  -3  10 46.0722 3.69640   4
   4  -3  10 49.8664 4.69333   5
   4  -3  10 48.1219 4.82361   1
   4  -3  10 47.3735 5.11932   5
  -5   3 -10 103.282 7.44299   6
  -5   3 -10 106.366 7.41664   4
   5  -3  10 113.413 9.08329   1
   5  -3  10 101.561 8.87709   5
   5  -3  10 84.8739 6.50392   4
   7   2 -10 9.48528 4.74942   5
   7   2 -10 14.0780 5.09200   4
  -7  -2  10 5.35531 4.99749   1
   6   2 -10 11.7315 4.05402   5
   6   2 -10 12.4872 3.54246   4
  -6  -2  10 10.4588 4.03988   1
  -6  -2  10 11.0009 3.15734   6
  -6  -2  10 6.00765 3.94153   5
   5   2 -10 4.80686 4.64799   6
   5   2 -10 3.91364 4.54149   1
   5   2 -10 0.20972 2.87740   4
   5   2 -10 -2.7901 2.79865   6
   5   2 -10 5.42508 3.32924   5
   5   2 -10 7.01590 3.76236   5
  -5  -2  10 3.86536 3.37226   1
  -5  -2  10 -6.7575 2.45721   6
  -5  -2  10 1.30413 2.77252   5
   4   2 -10 17.1723 2.85577   4
   4   2 -10 24.5907 3.69388   5
   4   2 -10 14.6028 3.78442   1
   4   2 -10 16.5375 3.63449   6
   4   2 -10 17.2525 2.99740   6
   4   2 -10 19.0867 3.44519   5
  -4  -2  10 16.2093 2.85925   5
  -4  -2  10 17.0569 3.47267   1
  -4  -2  10 20.9397 3.73416   6
  -4  -2  10 20.5926 3.17280   5
   3   2 -10 31.1930 3.76418   1
   3   2 -10 38.8839 3.91564   5
   3   2 -10 36.2399 3.84564   5
   3   2 -10 40.8117 3.71189   6
   3   2 -10 33.2862 2.99486   4
   3   2 -10 24.3457 3.53755   6
  -3  -2  10 29.1365 3.02394   6
  -3  -2  10 44.0029 3.91004   5
  -3  -2  10 26.3799 3.23833   1
   2   2 -10 1.86093 1.88404   4
   2   2 -10 1.13729 2.00463   6
   2   2 -10 -0.7843 2.83325   1
   2   2 -10 2.11938 2.72297   5
   2   2 -10 -0.4312 3.13187   6
   2   2 -10 1.65947 2.72245   5
  -2  -2  10 1.85353 2.43923   5
  -2  -2  10 6.07671 2.52648   1
  -2  -2  10 -0.8900 2.29732   4
  -2  -2  10 -0.2445 2.04098   5
  -2  -2  10 3.23192 2.20151   6
   1   2 -10 30.3473 2.64120   4
   1   2 -10 39.6101 3.84505   5
   1   2 -10 32.5679 3.94427   5
   1   2 -10 33.1784 3.65518   1
   1   2 -10 32.5906 3.34559   2
   1   2 -10 36.9437 3.46055   6
   1   2 -10 34.9444 4.06260   6
  -1  -2  10 27.6699 2.95633   6
  -1  -2  10 34.4031 3.47667   1
  -1  -2  10 29.0543 2.88443   4
  -1  -2  10 30.9541 3.60617   5
  -1  -2  10 27.9844 3.43463   5
   0   2 -10 138.603 5.39909   3
   0   2 -10 155.578 6.75750   6
   0   2 -10 151.603 7.54306   6
   0   2 -10 144.669 7.52831   5
   0   2 -10 158.937 7.19665   5
   0   2 -10 142.662 6.27665   2
   0   2 -10 140.558 5.79001   4
   0   2 -10 146.028 7.12885   1
   0  -2  10 150.592 5.97187   4
   0  -2  10 143.931 7.09058   5
   0  -2  10 152.220 6.72139   1
   0  -2  10 158.636 7.65185   5
   0  -2  10 166.123 6.63874   6
  -1   2 -10 18.9757 3.09452   5
  -1   2 -10 25.3818 3.23169   3
  -1   2 -10 28.5752 2.93559   2
  -1   2 -10 25.8350 3.46230   6
  -1   2 -10 25.5261 3.63781   1
  -1   2 -10 22.2658 2.76673   6
  -1   2 -10 21.6573 2.40940   4
  -1   2 -10 22.4362 3.79279   5
   1  -2  10 26.2195 3.32307   1
   1  -2  10 30.4674 3.12855   6
   1  -2  10 25.2811 2.53095   4
   1  -2  10 32.5687 3.61393   5
   1  -2  10 26.7545 3.34525   5
  -2   2 -10 71.9967 3.77151   3
  -2   2 -10 66.0635 4.36435   4
  -2   2 -10 67.6005 6.26981   5
  -2   2 -10 67.4820 5.52395   5
  -2   2 -10 69.6886 6.41862   1
  -2   2 -10 70.9150 4.32882   2
  -2   2 -10 65.7614 5.84559   6
   2  -2  10 57.6177 5.61229   5
   2  -2  10 65.0414 5.58006   1
   2  -2  10 71.4181 4.05938   4
   2  -2  10 65.3704 5.70403   5
   2  -2  10 65.6754 5.34052   6
  -3   2 -10 15.2792 2.99506   6
  -3   2 -10 9.03432 3.51511   5
  -3   2 -10 13.8088 3.17693   6
  -3   2 -10 15.9936 2.69166   4
  -3   2 -10 11.3114 3.85204   1
  -3   2 -10 16.1690 2.47754   2
  -3   2 -10 9.29766 3.17276   5
   3  -2  10 13.0338 2.13677   4
   3  -2  10 7.91217 3.46309   1
   3  -2  10 10.2417 2.97852   6
   3  -2  10 13.9886 3.50581   5
   3  -2  10 12.3331 3.03261   5
  -4   2 -10 1.94547 3.55217   5
  -4   2 -10 5.29351 2.74610   4
  -4   2 -10 2.90117 3.04294   6
  -4   2 -10 8.87046 3.89366   6
   4  -2  10 2.11587 3.74309   1
   4  -2  10 6.33536 3.33205   5
   4  -2  10 3.15525 2.19467   4
   4  -2  10 8.33026 3.82465   5
  -5   2 -10 -1.1585 3.16255   4
  -5   2 -10 2.50724 3.98472   5
  -5   2 -10 -2.7465 3.03620   6
  -5   2 -10 -6.1600 3.87438   6
   5  -2  10 -7.5681 4.53441   1
   5  -2  10 5.04512 3.88758   5
   5  -2  10 -1.4027 3.11150   4
   6  -2  10 8.79755 6.00458   1
   7   1 -10 2.40794 4.18444   5
   7   1 -10 -3.2677 3.83470   4
  -7  -1  10 6.31621 3.52176   3
  -7  -1  10 3.45603 4.35868   1
  -7  -1  10 7.90361 3.46044   6
  -7  -1  10 4.00600 2.89775   5
   6   1 -10 61.7548 4.84227   4
   6   1 -10 54.7845 5.10265   5
   6   1 -10 64.0966 6.72683   5
   6   1 -10 67.0632 6.52445   6
   6   1 -10 61.8309 5.73060   1
  -6  -1  10 50.4734 4.81799   1
  -6  -1  10 69.6394 5.73226   6
  -6  -1  10 63.2281 5.42720   3
  -6  -1  10 64.1710 5.53036   5
   5   1 -10 8.09664 3.36744   5
   5   1 -10 -0.4587 3.26255   6
   5   1 -10 2.39461 3.75805   1
   5   1 -10 4.89878 2.95789   6
   5   1 -10 0.68708 3.10478   5
   5   1 -10 6.20042 2.76362   4
  -5  -1  10 4.74468 3.17277   1
  -5  -1  10 2.94940 2.86238   6
  -5  -1  10 1.19903 2.59225   5
  -5  -1  10 5.49749 2.66662   3
   4   1 -10 13.3766 2.84267   6
   4   1 -10 17.8387 3.29380   5
   4   1 -10 12.9936 3.22748   1
   4   1 -10 7.71469 2.93746   5
   4   1 -10 9.20300 2.27563   4
   4   1 -10 13.0880 3.72165   6
  -4  -1  10 14.7540 3.17416   5
  -4  -1  10 9.64595 2.41468   5
  -4  -1  10 15.5778 2.64566   6
  -4  -1  10 7.58995 2.75275   1
  -4  -1  10 9.83436 2.60423   3
   3   1 -10 0.54137 2.42495   6
   3   1 -10 0.38123 2.16209   6
   3   1 -10 -1.0634 2.69560   5
   3   1 -10 0.04332 2.80019   1
   3   1 -10 -1.5601 2.05534   4
   3   1 -10 0.48320 2.52169   5
  -3  -1  10 -1.0093 2.71203   5
  -3  -1  10 -0.7650 2.00477   6
  -3  -1  10 -0.7011 2.11376   5
   2   1 -10 8.95017 3.09535   6
   2   1 -10 7.09102 2.78503   1
   2   1 -10 0.77277 2.98759   5
   2   1 -10 6.56835 2.35216   6
   2   1 -10 5.50121 1.80553   4
   2   1 -10 4.47120 2.54606   5
   2   1 -10 2.81676 2.26198   2
  -2  -1  10 7.60807 2.45928   5
  -2  -1  10 7.36035 2.24739   6
  -2  -1  10 6.26099 2.40009   1
  -2  -1  10 5.70190 2.77780   6
  -2  -1  10 5.12776 2.39241   5
   1   1 -10 2.75008 2.31661   6
   1   1 -10 5.54337 2.49900   5
   1   1 -10 5.08551 2.92890   5
   1   1 -10 4.60315 1.67801   4
   1   1 -10 2.28945 2.23757   2
   1   1 -10 0.14853 2.02634   6
   1   1 -10 1.56147 2.68253   1
  -1  -1  10 2.59985 2.37356   6
  -1  -1  10 6.96682 2.54626   1
  -1  -1  10 6.14373 2.28956   6
  -1  -1  10 5.13719 2.55575   5
  -1  -1  10 2.78626 3.75525   5
  -1  -1  10 3.14190 2.04908   4
   0   1 -10 10.8946 2.42852   2
   0   1 -10 11.7355 3.07412   1
   0   1 -10 13.4431 3.20322   6
   0   1 -10 11.7052 2.37957   6
   0   1 -10 11.2130 3.06723   5
   0   1 -10 13.8191 1.88985   4
   0   1 -10 12.7266 2.78813   5
   0  -1  10 12.5759 2.59948   6
   0  -1  10 8.04753 2.24608   5
   0  -1  10 10.2649 2.89013   6
   0  -1  10 13.0760 2.90793   5
   0  -1  10 13.0204 2.15031   4
   0  -1  10 7.44382 3.81797   1
  -1   1 -10 42.6411 3.82535   2
  -1   1 -10 49.0562 3.58831   3
  -1   1 -10 49.2939 4.29654   1
  -1   1 -10 39.7430 3.27854   4
  -1   1 -10 48.2851 4.43569   6
  -1   1 -10 48.4721 4.95412   6
  -1   1 -10 44.7332 4.72570   5
  -1   1 -10 43.1694 4.06823   5
   1  -1  10 47.6679 3.78217   4
   1  -1  10 51.2149 4.62149   6
   1  -1  10 49.8190 4.82631   5
   1  -1  10 45.7408 4.49985   6
   1  -1  10 49.2150 5.19872   5
  -2   1 -10 81.6883 6.30800   5
  -2   1 -10 91.6649 6.14799   6
  -2   1 -10 82.1083 4.77589   2
  -2   1 -10 86.2956 6.42045   1
  -2   1 -10 78.7839 7.07182   5
  -2   1 -10 85.2566 4.43762   4
   2  -1  10 90.9491 4.07430   4
   2  -1  10 84.9505 5.94282   5
   2  -1  10 90.7242 5.77699   6
   2  -1  10 75.9662 5.55716   5
   2  -1  10 76.9327 6.31053   6
   2  -1  10 86.7769 5.71571   1
  -3   1 -10 -3.2975 2.27621   5
  -3   1 -10 -1.7570 3.34121   1
  -3   1 -10 -0.1757 1.96013   4
  -3   1 -10 5.27355 2.63335   6
  -3   1 -10 1.12724 3.10831   5
  -3   1 -10 -0.0811 2.25118   2
   3  -1  10 -2.0825 2.88898   5
   3  -1  10 -3.6446 3.18375   1
   3  -1  10 0.59512 2.81404   5
   3  -1  10 -0.7266 2.84912   6
   3  -1  10 0.63909 1.59442   4
  -4   1 -10 11.4663 3.05321   6
  -4   1 -10 15.2042 3.72213   6
  -4   1 -10 13.8455 2.96291   2
  -4   1 -10 10.3072 2.42522   4
  -4   1 -10 11.6096 3.37789   5
   4  -1  10 10.6559 3.87144   1
   4  -1  10 6.65668 2.18725   4
   4  -1  10 9.35033 3.08727   5
   4  -1  10 11.0195 3.78172   5
  -5   1 -10 30.9733 4.32595   6
  -5   1 -10 24.8467 3.64021   6
  -5   1 -10 31.8519 3.18615   4
  -5   1 -10 33.4403 4.12280   5
   5  -1  10 29.0045 4.51125   5
   5  -1  10 21.4142 5.03010   1
   6  -1  10 76.6714 7.19758   1
   7   0 -10 -0.5514 3.80582   4
   7   0 -10 4.64599 5.67556   1
   7   0 -10 6.37088 3.79535   5
  -7   0  10 4.46972 3.39277   6
  -7   0  10 7.86369 4.00586   1
  -7   0  10 8.12654 3.18693   5
  -7   0  10 1.19779 3.45720   3
   6   0 -10 20.3901 4.38211   5
   6   0 -10 14.6239 4.25835   1
   6   0 -10 12.4999 3.42772   5
   6   0 -10 17.8548 3.51048   4
   6   0 -10 15.9742 3.48330   6
  -6   0  10 21.6852 3.68405   1
  -6   0  10 17.2423 3.30032   6
  -6   0  10 14.5512 3.14674   5
  -6   0  10 13.9768 3.23033   3
   5   0 -10 28.7186 4.01445   6
   5   0 -10 27.3811 3.84474   5
   5   0 -10 27.0960 3.07415   4
   5   0 -10 35.7232 3.38589   6
   5   0 -10 31.1257 4.04290   1
   5   0 -10 27.5939 3.48727   5
  -5   0  10 22.3176 3.11346   5
  -5   0  10 27.7829 3.53977   3
  -5   0  10 22.6139 3.94878   1
  -5   0  10 17.7308 3.52913   5
  -5   0  10 31.1506 3.62426   6
   4   0 -10 4.20149 2.31921   6
   4   0 -10 -0.9149 2.85029   5
   4   0 -10 1.55449 2.08576   4
   4   0 -10 -0.2183 2.47233   6
   4   0 -10 -3.5421 2.70438   1
  -4   0  10 1.55880 2.43631   1
  -4   0  10 -0.6977 2.79755   6
  -4   0  10 0.66518 2.74584   5
  -4   0  10 0.84573 2.37968   3
  -4   0  10 1.50075 2.14528   6
   3   0 -10 2.03564 2.66573   5
   3   0 -10 1.65759 2.50368   6
   3   0 -10 2.69420 2.52915   1
   3   0 -10 2.43033 2.08552   6
   3   0 -10 3.12257 1.76780   4
   3   0 -10 5.22671 2.52353   5
   3   0 -10 2.95200 2.61741   2
  -3   0  10 3.76622 2.15273   6
  -3   0  10 2.78885 2.42160   1
  -3   0  10 3.93508 2.07048   3
  -3   0  10 1.54286 2.40295   6
  -3   0  10 1.42469 2.71452   5
  -3   0  10 3.29731 2.22154   5
   2   0 -10 18.2145 3.26848   6
   2   0 -10 20.3246 3.33324   5
   2   0 -10 24.4674 2.27778   4
   2   0 -10 18.3620 2.92348   2
   2   0 -10 25.1979 3.27100   5
   2   0 -10 23.9365 3.21799   1
   2   0 -10 14.8685 2.40570   6
  -2   0  10 20.8719 2.94561   5
  -2   0  10 23.5392 3.59238   6
  -2   0  10 20.8541 2.66960   3
  -2   0  10 23.2020 3.23013   5
  -2   0  10 22.3255 2.77654   6
  -2   0  10 22.5813 2.81491   1
   1   0 -10 1.04144 1.88543   6
   1   0 -10 1.34277 2.57794   6
   1   0 -10 -0.2049 2.33813   1
   1   0 -10 1.77586 1.45761   4
   1   0 -10 0.08741 2.40543   5
   1   0 -10 1.77241 2.18936   2
   1   0 -10 0.68317 2.97254   5
  -1   0  10 2.88760 2.59772   5
  -1   0  10 -0.3215 2.11736   1
  -1   0  10 1.96545 2.03962   6
  -1   0  10 2.09252 2.46906   6
  -1   0  10 -1.3126 2.21233   5
   0   0 -10 20.3611 3.21659   1
   0   0 -10 20.4202 2.67286   6
   0   0 -10 16.3485 2.72435   2
   0   0 -10 11.5823 2.80245   5
   0   0 -10 17.9840 1.85713   4
   0   0 -10 16.1593 2.85142   5
   0   0 -10 12.7951 2.48646   6
   0   0  10 16.3144 2.98589   6
   0   0  10 11.4498 3.11424   1
   0   0  10 15.5374 2.97344   6
   0   0  10 14.9675 2.88648   5
   0   0  10 13.3244 2.42939   5
   0   0  10 18.8727 2.12520   4
  -1   0 -10 154.034 7.53272   1
  -1   0 -10 170.966 7.73651   5
  -1   0 -10 173.686 5.91065   4
  -1   0 -10 182.656 7.97506   6
  -1   0 -10 177.031 6.94299   2
  -1   0 -10 178.445 7.16301   6
  -1   0 -10 169.561 7.41889   5
   1   0  10 169.994 7.31232   6
   1   0  10 172.338 5.95063   4
   1   0  10 180.028 7.74071   5
   1   0  10 182.322 7.43011   1
   1   0  10 168.957 7.57057   5
   1   0  10 164.467 8.01646   6
  -2   0 -10 22.0687 2.86456   5
  -2   0 -10 27.2676 3.50342   5
  -2   0 -10 31.0086 3.92184   1
  -2   0 -10 22.9731 2.79961   2
  -2   0 -10 29.7951 2.24130   4
  -2   0 -10 28.8669 3.17720   6
  -2   0 -10 32.2693 3.80788   6
   2   0  10 22.1307 3.65734   6
   2   0  10 23.3914 3.33893   6
   2   0  10 23.7595 3.52842   1
   2   0  10 17.6822 2.97908   5
   2   0  10 26.7052 1.97446   4
   2   0  10 18.7204 2.87435   5
  -3   0 -10 24.0260 4.42484   6
  -3   0 -10 31.5107 3.46708   5
  -3   0 -10 30.2366 3.15041   2
  -3   0 -10 25.1299 3.60116   5
  -3   0 -10 31.4096 3.07223   4
  -3   0 -10 29.3269 3.15175   6
  -3   0 -10 31.2756 4.39908   1
   3   0  10 30.0911 2.57822   4
   3   0  10 28.5940 3.86833   6
   3   0  10 33.2294 3.93787   5
   3   0  10 24.1229 3.44099   5
   3   0  10 36.4333 4.31482   1
   3   0  10 31.6656 3.69263   6
  -4   0 -10 17.2181 3.62526   6
  -4   0 -10 13.2521 3.31331   5
  -4   0 -10 16.2995 3.19646   6
  -4   0 -10 7.26251 2.99423   2
  -4   0 -10 13.6215 1.93046   4
   4   0  10 12.6055 4.15430   1
   4   0  10 13.6551 3.96403   6
   4   0  10 8.63617 3.56046   5
   4   0  10 12.6485 1.73553   4
   4   0  10 11.0348 3.33030   5
  -5   0 -10 0.58222 3.65361   6
  -5   0 -10 0.18367 3.07894   6
  -5   0 -10 2.68506 3.26353   2
  -5   0 -10 5.54173 3.44842   5
   5   0  10 0.06596 3.66329   5
   5   0  10 6.18094 4.75677   1
   7  -1 -10 66.1948 5.30796   5
   7  -1 -10 57.7049 5.96310   1
   7  -1 -10 55.4239 4.91669   4
  -7   1  10 49.4053 5.32066   3
  -7   1  10 60.0642 4.92382   6
  -7   1  10 56.7677 4.67450   1
   6  -1 -10 4.61361 3.58132   1
   6  -1 -10 8.73262 3.04352   4
   6  -1 -10 15.0367 3.94163   5
   6  -1 -10 11.4974 3.28925   6
   6  -1 -10 7.21547 3.35729   5
  -6   1  10 6.07793 3.64232   1
  -6   1  10 9.96338 2.91561   5
  -6   1  10 6.48083 3.01227   3
  -6   1  10 15.4678 3.31253   6
  -6   1  10 9.75159 3.55531   6
   5  -1 -10 49.7097 4.78958   6
   5  -1 -10 51.8933 4.94215   6
   5  -1 -10 48.0112 4.61223   4
   5  -1 -10 35.2625 4.22584   2
   5  -1 -10 43.8537 4.05420   1
   5  -1 -10 54.4739 5.67495   5
   5  -1 -10 41.1535 4.19841   5
  -5   1  10 41.1803 4.17943   6
  -5   1  10 55.5185 5.09054   1
  -5   1  10 51.8572 4.68625   3
  -5   1  10 51.0289 5.17350   5
  -5   1  10 39.6129 4.11720   5
  -5   1  10 44.9492 4.99588   6
   4  -1 -10 2.45304 3.20051   5
   4  -1 -10 5.12809 2.89042   1
   4  -1 -10 3.97317 2.33007   6
   4  -1 -10 3.00122 2.42710   2
   4  -1 -10 3.87843 2.97840   6
   4  -1 -10 2.59667 2.77886   5
   4  -1 -10 3.77556 2.10272   4
  -4   1  10 3.86586 2.46788   3
  -4   1  10 5.17366 2.80772   5
  -4   1  10 5.56749 2.54704   6
  -4   1  10 4.05582 2.65480   5
  -4   1  10 9.48192 3.10511   6
  -4   1  10 3.49575 2.40215   1
   3  -1 -10 1.26656 2.13660   6
   3  -1 -10 3.25731 2.58104   5
   3  -1 -10 -1.4939 2.50373   6
   3  -1 -10 5.78176 2.87614   5
   3  -1 -10 1.08968 2.42906   2
   3  -1 -10 3.33506 2.61671   1
   3  -1 -10 0.68972 1.67075   4
  -3   1  10 1.52285 2.11362   1
  -3   1  10 -1.9878 2.40724   5
  -3   1  10 -1.2050 2.77314   6
  -3   1  10 -0.0206 2.40830   5
  -3   1  10 -0.1499 2.13497   3
  -3   1  10 0.16447 2.12255   6
   2  -1 -10 2.74747 2.42996   1
   2  -1 -10 0.89170 2.58182   6
   2  -1 -10 1.97974 2.06445   6
   2  -1 -10 1.96739 2.35848   2
   2  -1 -10 0.60432 1.48118   4
   2  -1 -10 0.08618 2.58124   5
   2  -1 -10 0.10605 2.29736   5
  -2   1  10 0.94114 2.43186   5
  -2   1  10 2.24105 2.28857   6
  -2   1  10 -0.7077 2.03702   3
  -2   1  10 1.95338 2.58706   6
  -2   1  10 0.91390 2.15444   1
  -2   1  10 0.67824 2.75688   5
   1  -1 -10 9.36361 2.11180   6
   1  -1 -10 9.02583 2.88665   1
   1  -1 -10 7.78690 2.57331   5
   1  -1 -10 6.07450 2.64217   5
   1  -1 -10 9.80568 3.13946   6
   1  -1 -10 10.0371 2.39885   2
   1  -1 -10 13.1658 1.67676   4
  -1   1  10 10.3229 2.47267   1
  -1   1  10 13.7327 3.08104   6
  -1   1  10 5.98545 2.80017   5
  -1   1  10 9.73197 2.56057   5
  -1   1  10 11.2324 2.15423   3
  -1   1  10 4.58850 2.07577   6
   0  -1 -10 9.50456 1.50061   4
   0  -1 -10 10.6420 3.00205   5
   0  -1 -10 9.78257 2.49252   2
   0  -1 -10 9.75662 2.79395   1
   0  -1 -10 5.51866 2.92488   6
   0  -1 -10 10.5759 2.48306   5
   0  -1 -10 11.0955 2.28600   6
   0   1  10 7.12544 2.05663   5
   0   1  10 12.7231 2.77812   5
   0   1  10 9.01632 3.13363   1
   0   1  10 7.16111 2.50123   6
   0   1  10 9.89332 2.95705   6
  -1  -1 -10 6.18201 2.07420   6
  -1  -1 -10 5.64482 2.32027   2
  -1  -1 -10 3.09891 2.88421   1
  -1  -1 -10 8.04821 2.85713   5
  -1  -1 -10 7.98147 1.40635   4
  -1  -1 -10 13.3964 3.35864   6
  -1  -1 -10 3.64039 2.73681   5
   1   1  10 3.70381 2.53110   1
   1   1  10 9.18022 2.93287   5
   1   1  10 3.80116 2.04028   5
   1   1  10 5.01032 2.71585   6
   1   1  10 3.41303 2.26405   6
  -2  -1 -10 69.0794 6.20479   1
  -2  -1 -10 61.3622 4.44883   2
  -2  -1 -10 62.4980 4.74120   6
  -2  -1 -10 67.8714 5.71042   6
  -2  -1 -10 58.4458 5.89352   5
  -2  -1 -10 69.2552 3.06336   4
  -2  -1 -10 68.8576 4.92153   5
   2   1  10 67.1099 5.63233   1
   2   1  10 66.0044 6.06316   6
   2   1  10 62.7795 5.22088   5
   2   1  10 64.8531 5.10269   6
   2   1  10 69.7618 5.94512   5
  -3  -1 -10 27.9750 3.77313   6
  -3  -1 -10 36.2736 3.46578   2
  -3  -1 -10 21.7168 3.83175   5
  -3  -1 -10 34.0674 3.50356   6
  -3  -1 -10 26.3252 4.65945   1
  -3  -1 -10 38.0205 3.66018   5
   3   1  10 37.5377 3.97129   5
   3   1  10 41.3287 5.14156   6
   3   1  10 33.3876 3.99801   5
   3   1  10 37.3593 3.93483   6
   3   1  10 31.2118 4.16708   1
  -4  -1 -10 4.48969 2.75752   6
  -4  -1 -10 -3.0731 2.76875   2
  -4  -1 -10 3.14693 3.37485   6
  -4  -1 -10 1.74927 2.90929   5
   4   1  10 -0.2486 4.11211   6
   4   1  10 4.42459 4.24156   1
   4   1  10 2.48207 3.00085   5
   4   1  10 -4.0955 3.34764   5
  -5  -1 -10 6.66830 3.64763   5
  -5  -1 -10 10.3459 3.23043   6
  -5  -1 -10 8.11656 3.60313   2
  -5  -1 -10 7.33076 4.01948   6
   5   1  10 6.27928 3.98672   5
   5   1  10 8.94202 5.05004   1
   7  -2 -10 216.388 10.0259   5
   7  -2 -10 216.000 9.59515   4
   7  -2 -10 171.725 9.26385   2
  -7   2  10 204.633 9.65273   6
  -7   2  10 193.925 9.25931   3
  -7   2  10 204.178 8.56190   1
   6  -2 -10 12.3093 3.14427   4
   6  -2 -10 9.47382 3.33012   6
   6  -2 -10 10.5001 3.68274   1
   6  -2 -10 13.5815 3.71877   2
   6  -2 -10 14.0343 3.65925   5
   6  -2 -10 9.62441 4.35788   5
  -6   2  10 14.7772 3.62609   6
  -6   2  10 8.85748 3.32195   3
  -6   2  10 11.8365 3.82538   6
  -6   2  10 17.0743 3.10030   1
  -6   2  10 9.42491 3.39407   5
   5  -2 -10 16.9625 4.36564   6
   5  -2 -10 11.5320 3.08508   2
   5  -2 -10 18.6872 2.91179   4
   5  -2 -10 15.3297 3.49890   5
   5  -2 -10 15.8579 4.16421   5
   5  -2 -10 22.1987 3.23114   1
   5  -2 -10 15.5981 2.91895   6
  -5   2  10 28.4307 3.55898   5
  -5   2  10 24.1871 6.78631   5
  -5   2  10 12.3243 3.00209   3
  -5   2  10 15.2463 2.90713   1
  -5   2  10 13.6114 3.99591   6
   4  -2 -10 47.7221 5.03503   5
   4  -2 -10 49.5163 3.70173   1
   4  -2 -10 53.4817 4.67435   5
   4  -2 -10 42.9031 4.62624   2
   4  -2 -10 33.4357 3.72930   4
   4  -2 -10 39.6164 4.42172   6
   4  -2 -10 45.5378 4.52235   6
  -4   2  10 46.4366 4.49126   1
  -4   2  10 48.8588 4.17648   3
  -4   2  10 48.1445 4.77415   6
  -4   2  10 54.2061 5.19232   6
  -4   2  10 42.1681 4.25099   5
  -4   2  10 43.5529 3.99954   5
   3  -2 -10 2.20726 2.64163   1
   3  -2 -10 -1.8119 1.56087   4
   3  -2 -10 -2.0267 2.87381   6
   3  -2 -10 1.16601 2.59562   2
   3  -2 -10 -0.3937 2.43102   5
   3  -2 -10 0.21819 1.97990   6
   3  -2 -10 2.77923 3.01426   5
  -3   2  10 3.19426 2.33375   3
  -3   2  10 -0.2839 2.53559   5
  -3   2  10 -0.4953 2.75639   5
  -3   2  10 -0.4212 2.08964   1
  -3   2  10 2.94355 2.55519   6
  -3   2  10 0.75951 2.61172   6
   2  -2 -10 15.1384 3.47103   5
   2  -2 -10 9.00659 3.88078   2
   2  -2 -10 7.43715 2.66480   5
   2  -2 -10 10.1502 2.92533   1
   2  -2 -10 7.55582 1.68297   4
   2  -2 -10 9.94935 2.47382   6
   2  -2 -10 6.68256 2.87362   6
  -2   2  10 9.15919 2.99186   5
  -2   2  10 8.46154 2.94641   5
  -2   2  10 5.00493 2.59886   6
  -2   2  10 5.61035 2.26318   1
  -2   2  10 12.5066 2.50051   3
  -2   2  10 8.05770 3.11548   6
   1  -2 -10 2.88988 2.66760   5
   1  -2 -10 3.54111 3.01404   6
   1  -2 -10 0.01762 3.22645   5
   1  -2 -10 -0.4948 2.38396   2
   1  -2 -10 5.67669 2.54123   1
   1  -2 -10 0.26931 1.28482   4
   1  -2 -10 3.34055 2.17310   6
  -1   2  10 2.03133 1.94775   3
  -1   2  10 2.16955 2.27567   1
  -1   2  10 -0.3287 2.45667   5
  -1   2  10 3.85045 2.76489   5
  -1   2  10 -0.3669 2.84442   6
  -1   2  10 0.70738 2.26874   6
   0  -2 -10 9.07357 2.94854   6
   0  -2 -10 11.5306 3.13762   1
   0  -2 -10 6.87897 2.47477   5
   0  -2 -10 9.10098 1.38209   4
   0  -2 -10 8.12111 3.32169   5
   0  -2 -10 11.0289 2.63798   2
   0  -2 -10 6.66109 2.05323   6
   0   2  10 10.8148 2.39859   6
   0   2  10 3.38524 2.75530   6
   0   2  10 11.5462 3.06167   5
   0   2  10 16.4030 3.34612   5
  -1  -2 -10 6.71620 2.41826   6
  -1  -2 -10 6.61770 3.05833   5
  -1  -2 -10 11.1149 3.15217   6
  -1  -2 -10 9.87935 3.18862   1
  -1  -2 -10 8.97655 2.60432   2
  -1  -2 -10 7.59343 1.20312   4
  -1  -2 -10 12.9560 3.10215   5
   1   2  10 13.5534 3.11668   1
   1   2  10 8.13701 2.74485   5
   1   2  10 7.42643 2.66908   6
   1   2  10 1.31922 2.74299   6
   1   2  10 7.70971 3.01259   5
  -2  -2 -10 135.362 6.50974   2
  -2  -2 -10 133.947 7.87603   1
  -2  -2 -10 134.656 6.30569   6
  -2  -2 -10 134.508 7.61398   6
  -2  -2 -10 142.385 7.78071   5
   2   2  10 145.812 7.36540   1
   2   2  10 126.699 7.08330   5
   2   2  10 143.092 7.45964   5
   2   2  10 128.593 6.96375   6
   2   2  10 146.305 7.76990   6
  -3  -2 -10 30.2412 3.33408   5
  -3  -2 -10 26.3698 3.99373   6
  -3  -2 -10 26.0785 3.34053   6
  -3  -2 -10 23.6768 3.36644   2
   3   2  10 32.5645 4.19969   5
   3   2  10 20.8484 3.72654   6
   3   2  10 21.8989 3.71464   5
   3   2  10 31.1025 4.39032   1
  -4  -2 -10 8.80440 2.93372   6
  -4  -2 -10 2.11206 3.19706   5
  -4  -2 -10 8.69238 3.73396   6
  -4  -2 -10 4.43635 3.07281   2
   4   2  10 7.18763 4.66212   1
   4   2  10 7.40739 4.58436   5
   4   2  10 2.81909 3.43342   5
   4   2  10 3.06407 5.13520   6
  -5  -2 -10 7.90631 3.38579   6
  -5  -2 -10 10.1023 3.76666   2
   5   2  10 5.99207 4.40771   5
   5   2  10 1.99724 5.64384   1
   7  -3 -10 -6.8762 4.16942   4
   7  -3 -10 2.05623 4.25666   5
   7  -3 -10 -2.3281 3.41086   2
  -7   3  10 1.46328 3.36208   3
  -7   3  10 0.54081 4.24887   6
   6  -3 -10 45.4892 4.37961   4
   6  -3 -10 49.9826 4.98026   5
   6  -3 -10 58.9624 4.39406   1
   6  -3 -10 52.9474 5.76478   2
   6  -3 -10 48.7551 4.98127   6
  -6   3  10 48.5247 4.93828   5
  -6   3  10 41.9677 4.51556   3
  -6   3  10 49.5984 4.93561   1
  -6   3  10 28.0132 4.70681   6
  -6   3  10 53.5483 5.33811   6
   5  -3 -10 24.0098 3.34570   6
   5  -3 -10 24.5783 3.98388   5
   5  -3 -10 14.9974 3.52070   2
   5  -3 -10 17.2856 2.88927   4
   5  -3 -10 25.9255 4.76323   5
   5  -3 -10 15.3320 3.06800   1
   5  -3 -10 24.5242 4.57883   4
   5  -3 -10 24.5481 5.05843   6
  -5   3  10 17.0863 3.51383   6
  -5   3  10 23.8692 3.69426   5
  -5   3  10 18.0529 3.21420   3
  -5   3  10 23.3425 4.30792   6
  -5   3  10 19.4263 2.86742   1
   4  -3 -10 24.7563 3.71877   4
   4  -3 -10 22.0468 2.98456   6
   4  -3 -10 17.4378 3.49048   2
   4  -3 -10 22.9885 4.32451   6
   4  -3 -10 15.8820 4.02050   5
   4  -3 -10 22.9016 3.09693   1
  -4   3  10 21.6729 2.86253   1
  -4   3  10 26.3287 4.19621   5
  -4   3  10 25.2787 3.56879   6
  -4   3  10 27.3145 4.12541   6
  -4   3  10 23.9365 3.21051   3
  -4   3  10 33.9187 4.41340   5
   3  -3 -10 4.82780 2.73334   2
   3  -3 -10 1.98235 1.77334   4
   3  -3 -10 0.47774 2.87674   5
   3  -3 -10 -0.6548 2.45621   1
   3  -3 -10 2.11906 3.27170   6
   3  -3 -10 6.10284 3.76177   5
   3  -3 -10 2.77753 2.60278   4
   3  -3 -10 3.96881 2.40090   6
  -3   3  10 -0.4845 3.31044   5
  -3   3  10 3.78421 2.48464   3
  -3   3  10 3.45596 2.90902   6
  -3   3  10 2.77127 3.10690   5
  -3   3  10 2.58597 2.87325   6
  -3   3  10 0.45703 2.24710   1
   2  -3 -10 3.19722 3.06960   6
   2  -3 -10 4.08176 2.61292   1
   2  -3 -10 1.62605 2.82260   5
   2  -3 -10 0.07473 2.43935   2
   2  -3 -10 -0.8456 2.46589   4
   2  -3 -10 -0.7293 2.28978   6
   2  -3 -10 1.16250 1.53751   4
   2  -3 -10 -4.3101 3.37998   5
  -2   3  10 0.98135 2.63309   6
  -2   3  10 0.85692 3.16758   5
  -2   3  10 0.49525 2.29915   3
  -2   3  10 5.33225 2.78706   6
  -2   3  10 -0.6993 2.28230   1
  -2   3  10 3.30319 2.79689   5
   1  -3 -10 7.27092 1.97392   4
   1  -3 -10 8.17036 1.45593   4
   1  -3 -10 13.6406 3.75909   6
   1  -3 -10 5.82480 3.43638   5
   1  -3 -10 8.01856 2.56273   6
   1  -3 -10 10.6856 3.01384   1
   1  -3 -10 5.25168 3.03314   5
   1  -3 -10 4.90748 2.59606   2
  -1   3  10 8.09916 3.45748   5
  -1   3  10 4.01474 2.85886   5
  -1   3  10 7.90740 2.51675   1
  -1   3  10 5.88858 2.12208   3
  -1   3  10 12.0304 3.61986   6
   0  -3 -10 9.90520 1.55922   4
   0  -3 -10 6.50232 2.62555   2
   0  -3 -10 8.33950 3.84783   5
   0  -3 -10 11.6991 2.56212   6
   0  -3 -10 13.2007 3.03185   5
   0  -3 -10 2.12893 2.99948   1
   0  -3 -10 7.65301 3.06802   6
   0  -3 -10 10.5708 1.24872   4
   0   3  10 10.0083 2.93203   6
   0   3  10 12.2787 2.35320   3
   0   3  10 8.70023 3.00725   1
   0   3  10 9.73602 3.32269   5
   0   3  10 6.37053 3.43103   5
   0   3  10 15.1447 3.27817   6
  -1  -3 -10 24.7424 4.08468   5
  -1  -3 -10 22.0081 3.13813   6
  -1  -3 -10 20.2348 3.10707   5
  -1  -3 -10 19.5187 3.15933   2
  -1  -3 -10 21.8450 4.26846   1
  -1  -3 -10 14.8514 3.86740   6
   1   3  10 18.0847 3.32504   1
   1   3  10 20.2264 3.71197   6
   1   3  10 11.7942 3.30483   5
   1   3  10 14.4947 3.60222   5
   1   3  10 21.6233 3.63918   6
  -2  -3 -10 0.60598 2.53955   2
  -2  -3 -10 0.67012 2.52481   6
  -2  -3 -10 -0.5912 3.47979   5
  -2  -3 -10 -3.2874 3.53730   5
  -2  -3 -10 3.10127 3.15291   6
   2   3  10 5.78223 3.63909   1
   2   3  10 -2.1512 3.50943   5
   2   3  10 -2.4721 3.36596   5
   2   3  10 0.46050 3.62850   6
   2   3  10 3.70199 3.72130   6
  -3  -3 -10 70.7085 5.83141   5
  -3  -3 -10 67.7329 5.33493   6
  -3  -3 -10 65.5330 5.31279   2
   3   3  10 70.9578 7.40529   5
   3   3  10 69.3772 7.14696   5
   3   3  10 64.8849 5.52474   1
  -4  -3 -10 11.7368 3.53290   2
  -4  -3 -10 13.0978 3.28199   6
  -4  -3 -10 15.2901 5.52891   6
   4   3  10 17.8781 5.31085   1
   4   3  10 15.3260 4.34051   5
   7  -4 -10 5.57781 3.74109   2
   7  -4 -10 4.49671 4.74613   4
   7  -4 -10 -1.1565 4.54351   5
  -7   4  10 1.10056 3.49062   3
   6  -4 -10 205.744 9.13285   4
   6  -4 -10 198.239 9.95627   5
  -6   4  10 185.969 8.86458   3
  -6   4  10 188.903 11.1458   6
  -6   4  10 206.306 7.42990   1
   5  -4 -10 8.11585 4.54631   4
   5  -4 -10 14.2108 3.93091   5
   5  -4 -10 12.2157 3.22263   6
   5  -4 -10 19.4758 5.35672   5
   5  -4 -10 15.3090 3.19905   1
   5  -4 -10 12.6493 5.00457   6
   5  -4 -10 16.3655 3.77134   2
   5  -4 -10 14.5456 3.18251   4
  -5   4  10 15.3708 3.18096   3
  -5   4  10 14.4386 4.75825   6
  -5   4  10 15.8542 4.13902   6
  -5   4  10 15.2584 2.63521   1
   4  -4 -10 24.4643 3.95587   5
   4  -4 -10 14.8827 4.70993   5
   4  -4 -10 17.8551 3.16946   6
   4  -4 -10 17.4157 4.36904   6
   4  -4 -10 14.3342 3.39121   2
   4  -4 -10 15.1840 2.75751   4
   4  -4 -10 11.3664 3.75684   4
   4  -4 -10 17.1513 2.96195   1
  -4   4  10 19.0674 4.01209   5
  -4   4  10 16.7061 3.11475   3
  -4   4  10 11.6167 4.64115   5
  -4   4  10 16.3771 3.71370   6
  -4   4  10 16.5073 4.06508   6
  -4   4  10 16.5290 2.69755   1
   3  -4 -10 45.0885 7.74322   5
   3  -4 -10 43.6412 3.74232   4
   3  -4 -10 56.2579 4.89245   5
   3  -4 -10 49.7718 5.52790   6
   3  -4 -10 57.0570 5.18972   4
   3  -4 -10 46.9020 4.90658   2
   3  -4 -10 53.0546 5.18188   6
   3  -4 -10 48.3555 3.71867   1
  -3   4  10 38.3576 4.18650   6
  -3   4  10 37.4141 5.09497   5
  -3   4  10 45.8448 4.65850   5
  -3   4  10 38.3306 3.75150   3
  -3   4  10 50.8772 4.73379   1
   2  -4 -10 0.70990 4.11362   5
   2  -4 -10 -4.2783 3.35008   6
   2  -4 -10 0.44892 2.57320   6
   2  -4 -10 -2.9940 3.02623   5
   2  -4 -10 -0.8947 2.41081   2
   2  -4 -10 -1.5835 2.35204   4
   2  -4 -10 2.27278 1.52471   4
   2  -4 -10 -3.3181 2.78976   1
  -2   4  10 0.56999 3.64944   5
  -2   4  10 -2.6305 2.50644   1
  -2   4  10 -3.9687 3.05398   6
  -2   4  10 0.79287 2.35454   3
  -2   4  10 -0.7157 3.38649   6
  -2   4  10 -0.2450 3.47354   5
   1  -4 -10 45.1151 4.83304   5
   1  -4 -10 49.9438 3.54036   4
   1  -4 -10 56.0702 5.75951   5
   1  -4 -10 57.0272 4.55511   1
   1  -4 -10 48.8118 4.74780   2
   1  -4 -10 48.7853 2.78879   4
   1  -4 -10 48.2588 4.98591   6
   1  -4 -10 52.7745 5.04112   6
  -1   4  10 54.5182 5.86970   6
  -1   4  10 52.5056 5.03147   5
  -1   4  10 48.7512 4.03035   3
  -1   4  10 33.1105 4.38708   6
  -1   4  10 43.4610 4.71327   1
  -1   4  10 55.7292 5.07949   5
   0  -4 -10 2.88954 3.03241   5
   0  -4 -10 -2.6909 3.39928   1
   0  -4 -10 5.85591 4.22614   5
   0  -4 -10 5.21118 2.78667   2
   0  -4 -10 2.32814 3.79130   6
   0   4  10 0.79578 3.56205   6
   0   4  10 2.65428 2.85135   1
   0   4  10 2.50530 2.45413   3
   0   4  10 8.34566 3.60971   6
   0   4  10 4.09478 3.75505   5
   0   4  10 0.38696 3.55459   5
  -1  -4 -10 14.0766 4.25796   5
  -1  -4 -10 12.0035 4.08632   6
  -1  -4 -10 15.6705 3.27163   2
  -1  -4 -10 18.4165 3.17364   6
  -1  -4 -10 17.3542 3.53490   5
   1   4  10 18.1732 4.45983   5
   1   4  10 12.6352 3.90312   6
   1   4  10 9.37897 4.01186   5
   1   4  10 10.7746 3.78179   6
   1   4  10 7.80537 3.36335   1
  -2  -4 -10 -0.2161 2.62250   2
  -2  -4 -10 4.11209 3.65777   6
  -2  -4 -10 4.06235 2.93491   5
  -2  -4 -10 1.50486 2.72989   6
   2   4  10 0.18434 3.68458   1
   2   4  10 11.8047 4.19185   6
   2   4  10 6.05885 4.12569   6
   2   4  10 3.73872 4.48669   5
   2   4  10 0.63650 4.06899   5
  -3  -4 -10 65.4726 5.57422   2
  -3  -4 -10 68.4856 5.89957   6
   3   4  10 73.6732 6.27655   1
   3   4  10 68.8440 6.09596   5
  -4  -4 -10 14.5861 3.50003   6
  -4  -4 -10 15.0247 4.00654   2
   4   4  10 14.6706 6.11178   1
   4   4  10 22.8668 5.23294   5
   6  -5 -10 2.89085 3.16209   2
   6  -5 -10 3.28553 4.09769   4
   6  -5 -10 4.99628 4.72432   5
  -6   5  10 7.45943 5.12184   6
   5  -5 -10 38.7642 5.78883   4
   5  -5 -10 27.9243 5.01576   5
   5  -5 -10 35.0774 4.06238   4
   5  -5 -10 23.5385 3.92893   6
   5  -5 -10 31.4810 11.4308   5
   5  -5 -10 27.7773 4.32172   2
  -5   5  10 28.4099 3.85973   3
  -5   5  10 30.7698 2.88731   1
  -5   5  10 27.5835 5.01788   6
   4  -5 -10 26.2283 3.82787   6
   4  -5 -10 41.3455 4.52460   4
   4  -5 -10 4.93917 7.97875   5
   4  -5 -10 30.2997 4.28695   2
   4  -5 -10 28.8065 4.51664   5
   4  -5 -10 32.9017 3.74235   1
   4  -5 -10 31.4736 3.37926   4
   4  -5 -10 26.2831 5.23246   6
  -4   5  10 32.6870 4.30689   1
  -4   5  10 26.1835 4.73204   6
  -4   5  10 36.8913 4.82701   5
  -4   5  10 29.5842 4.82884   6
  -4   5  10 29.4821 3.77751   3
   3  -5 -10 5.34558 2.98478   2
   3  -5 -10 8.96351 3.71679   5
   3  -5 -10 3.93206 2.14964   4
   3  -5 -10 7.47362 3.15810   4
   3  -5 -10 0.23299 4.35113   5
   3  -5 -10 8.73197 2.78830   6
   3  -5 -10 11.2447 4.58514   6
  -3   5  10 9.36431 2.75833   1
  -3   5  10 14.5557 4.38461   6
  -3   5  10 9.60502 3.92369   6
  -3   5  10 6.91607 4.94187   5
  -3   5  10 2.90516 2.89020   3
  -3   5  10 7.45633 4.06369   5
   2  -5 -10 9.10576 4.41175   6
   2  -5 -10 2.09696 4.63665   5
   2  -5 -10 1.78346 2.69366   2
   2  -5 -10 1.52332 1.67079   4
   2  -5 -10 0.50678 3.57120   5
   2  -5 -10 0.24878 2.32030   4
   2  -5 -10 1.87756 2.92408   6
  -2   5  10 -0.3611 2.82607   1
  -2   5  10 2.74175 2.69557   3
  -2   5  10 7.82788 3.76837   6
  -2   5  10 3.54721 3.99870   6
  -2   5  10 0.10595 3.89058   5
  -2   5  10 4.01673 4.15988   5
   1  -5 -10 6.42384 4.54060   6
   1  -5 -10 1.24619 2.88558   2
   1  -5 -10 1.82376 3.51013   5
   1  -5 -10 4.36157 1.35692   4
   1  -5 -10 10.6673 5.03378   5
   1  -5 -10 7.07487 3.17626   6
   1  -5 -10 4.48023 1.76436   4
  -1   5  10 6.53881 3.20234   1
  -1   5  10 1.60079 4.39757   5
  -1   5  10 7.50904 2.59192   3
  -1   5  10 6.60585 4.42102   6
  -1   5  10 7.73863 4.50832   5
  -1   5  10 0.72896 3.81309   6
   0  -5 -10 20.1331 3.57722   6
   0  -5 -10 12.6130 3.31405   2
   0  -5 -10 12.6143 5.10119   5
   0  -5 -10 14.5625 4.59799   6
   0  -5 -10 17.5527 3.92782   5
   0   5  10 21.2494 4.36254   6
   0   5  10 15.1207 4.66437   5
   0   5  10 17.8414 3.77278   1
   0   5  10 22.8470 3.13519   3
   0   5  10 12.9588 4.32304   6
   0   5  10 19.0744 4.69115   5
  -1  -5 -10 2.86080 3.53836   5
  -1  -5 -10 2.79968 3.09560   6
  -1  -5 -10 1.07680 4.42080   6
  -1  -5 -10 4.64878 3.06745   2
   1   5  10 7.24183 3.99585   1
   1   5  10 9.43260 4.43852   6
   1   5  10 -0.5912 4.59718   5
   1   5  10 3.64707 3.96472   6
   1   5  10 9.01682 5.33705   5
  -2  -5 -10 17.3905 3.52871   6
  -2  -5 -10 22.2151 3.87840   2
   2   5  10 29.6888 4.88972   1
   2   5  10 11.9511 4.77692   6
   2   5  10 20.2328 5.42110   5
  -3  -5 -10 2.21517 3.60171   2
  -3  -5 -10 -4.8446 3.19397   6
   3   5  10 -1.2516 5.44931   1
   3   5  10 0.33793 5.33381   5
   5  -6 -10 145.160 7.91186   4
   5  -6 -10 147.577 10.4643   5
   5  -6 -10 128.847 7.70926   2
  -5   6  10 127.967 7.45848   3
  -5   6  10 144.074 11.1806   6
   4  -6 -10 13.3237 5.58464   6
   4  -6 -10 22.1881 7.55768   5
   4  -6 -10 13.9452 4.95324   5
   4  -6 -10 22.7117 4.11808   4
   4  -6 -10 17.3057 3.77504   6
   4  -6 -10 9.88715 5.01119   2
   4  -6 -10 20.6635 4.73487   4
  -4   6  10 11.0201 2.85073   1
  -4   6  10 13.8741 5.16589   5
  -4   6  10 12.9319 5.04685   6
  -4   6  10 11.6042 3.58697   3
   3  -6 -10 14.3664 6.77801   5
   3  -6 -10 10.5886 4.49622   5
   3  -6 -10 13.2245 6.15079   6
   3  -6 -10 17.3565 2.66387   4
   3  -6 -10 17.0410 3.56807   6
   3  -6 -10 16.8719 3.72418   4
   3  -6 -10 12.0675 3.46031   2
  -3   6  10 13.2988 3.14040   1
  -3   6  10 13.0399 3.49603   3
  -3   6  10 13.6464 4.89584   6
  -3   6  10 15.7270 5.20646   5
  -3   6  10 19.0259 5.27876   6
  -3   6  10 17.1342 6.21002   5
   2  -6 -10 31.5205 4.33322   2
   2  -6 -10 27.3636 2.40654   4
   2  -6 -10 36.4723 6.62654   5
   2  -6 -10 32.3648 5.81881   6
   2  -6 -10 25.8681 4.06758   6
   2  -6 -10 38.1543 5.18041   5
   2  -6 -10 35.4622 3.23405   4
  -2   6  10 30.1181 3.91424   3
  -2   6  10 30.7261 6.79362   6
  -2   6  10 23.3626 6.52531   5
  -2   6  10 25.5889 5.00589   6
  -2   6  10 30.9126 4.49144   1
  -2   6  10 28.6267 5.19140   5
   1  -6 -10 0.21593 5.08859   5
   1  -6 -10 -1.6872 1.56608   4
   1  -6 -10 -0.1935 1.20478   4
   1  -6 -10 1.37556 4.48740   6
   1  -6 -10 0.45033 2.83016   2
   1  -6 -10 0.77341 3.22429   6
   1  -6 -10 3.89146 3.88891   5
  -1   6  10 0.69861 3.57697   1
  -1   6  10 -1.9194 4.51504   6
  -1   6  10 1.30419 6.36519   5
  -1   6  10 0.89823 4.93980   5
  -1   6  10 -1.4512 2.94538   3
  -1   6  10 0.79939 4.95488   6
   0  -6 -10 89.0952 9.84472   6
   0  -6 -10 85.0869 7.72349   5
   0  -6 -10 84.2007 7.01735   6
   0  -6 -10 87.3447 6.43059   2
   0   6  10 58.3657 6.45242   6
   0   6  10 89.1147 8.62269   5
   0   6  10 63.0114 6.43277   6
   0   6  10 89.3842 9.48882   5
   0   6  10 85.0001 5.97913   3
   0   6  10 91.1305 7.69353   1
  -1  -6 -10 11.1616 5.40582   6
  -1  -6 -10 9.28769 4.23651   2
   1   6  10 20.3377 5.80345   5
   1   6  10 9.90111 5.47581   6
   1   6  10 12.1880 4.60922   1
  -2  -6 -10 1.84143 3.15368   2
  -2  -6 -10 11.3723 4.06508   6
   2   6  10 5.10699 6.18485   5
   2   6  10 9.05228 5.42416   1
   4  -7 -10 10.5855 3.79505   2
   4  -7 -10 17.1860 3.56983   4
   4  -7 -10 11.0127 5.16210   5
  -4   7  10 7.36772 8.49866   6
  -4   7  10 16.1094 3.85528   3
   3  -7 -10 19.5667 6.70095   5
   3  -7 -10 31.8387 3.30726   4
   3  -7 -10 35.5303 8.30471   6
   3  -7 -10 43.8968 9.14574   5
   3  -7 -10 25.8644 4.26748   2
  -3   7  10 38.5756 3.99233   1
  -3   7  10 32.1990 6.45986   6
  -3   7  10 36.9747 4.48521   3
  -3   7  10 8.86574 7.26087   5
   2  -7 -10 2.35599 3.03545   2
   2  -7 -10 -1.5749 4.45704   5
   2  -7 -10 -1.9354 4.10618   6
   2  -7 -10 1.41935 6.80991   5
   2  -7 -10 -1.1079 2.15459   4
  -2   7  10 2.96604 8.14076   5
  -2   7  10 -5.3603 7.78899   6
  -2   7  10 4.39564 3.30790   3
  -2   7  10 -3.1486 5.48365   5
  -2   7  10 5.55835 5.08199   6
  -2   7  10 2.18720 3.80580   1
   1  -7 -10 3.27036 6.81788   5
   1  -7 -10 3.43257 3.41268   2
   1  -7 -10 -0.9282 4.06813   6
  -1   7  10 4.75189 3.34644   3
  -1   7  10 -3.9931 4.06437   1
  -1   7  10 -1.0554 6.01640   5
  -1   7  10 -3.4384 8.57242   5
  -1   7  10 6.58092 5.75404   6
  -1   7  10 -1.8185 7.14110   6
   0  -7 -10 2.82770 3.23532   2
   0  -7 -10 11.9933 4.38347   6
   0   7  10 0.46271 7.63739   6
   0   7  10 19.1382 6.46866   5
   0   7  10 5.72007 4.98773   1
   0   7  10 5.77025 4.10894   3
  -1  -7 -10 25.3229 5.00205   6
  -1  -7 -10 18.3738 3.98045   2
   1   7  10 17.5880 5.97931   1
   1   7  10 25.0822 7.05862   5
   2   7 -11 3.18952 3.53500   3
   2   7 -11 9.04896 6.93707   5
   1   7 -11 2.71247 3.24401   3
   1   7 -11 4.73925 5.15819   4
   1   7 -11 7.73416 6.62383   5
   1   7 -11 6.49836 6.13661   6
   1   7 -11 -4.3292 8.24375   6
  -1  -7  11 9.29458 5.83264   1
   0   7 -11 25.1612 5.26535   4
   0   7 -11 24.4058 6.36621   6
   0   7 -11 36.6855 7.06522   5
   0   7 -11 17.7335 8.23244   5
   0   7 -11 28.8552 3.98986   3
   0  -7  11 37.5648 7.45253   5
   0  -7  11 29.8157 6.05036   1
  -1   7 -11 3.50691 3.17455   3
  -1   7 -11 4.96691 4.96432   4
  -1   7 -11 2.00165 5.91409   6
   1  -7  11 2.27261 10.8525   5
   1  -7  11 -4.4812 5.58984   1
   1  -7  11 5.61271 8.24123   5
  -2   7 -11 63.2256 6.21821   3
  -2   7 -11 92.6032 8.70224   6
  -2   7 -11 64.1262 6.90420   4
   2  -7  11 83.0249 9.03603   6
   2  -7  11 62.2460 6.62782   1
   2  -7  11 85.2073 8.55854   5
   3   6 -11 21.7772 5.63023   3
   3   6 -11 16.0375 4.64998   4
   3   6 -11 18.4467 6.49738   5
  -3  -6  11 20.0271 5.91911   1
   2   6 -11 8.25126 4.99478   6
   2   6 -11 -5.8933 7.71162   6
   2   6 -11 7.22132 5.96644   5
   2   6 -11 18.6611 4.60057   4
   2   6 -11 7.60755 3.06956   3
  -2  -6  11 14.3603 5.18385   1
   1   6 -11 13.9507 5.00631   6
   1   6 -11 9.57227 7.10327   5
   1   6 -11 8.10953 3.00931   3
   1   6 -11 16.5672 10.2432   5
   1   6 -11 10.1405 4.23756   4
   1   6 -11 5.20205 7.00375   6
  -1  -6  11 3.78600 4.64241   5
  -1  -6  11 4.66132 4.96824   6
  -1  -6  11 3.78966 4.58081   1
   0   6 -11 4.59164 6.47973   5
   0   6 -11 15.3891 3.30880   3
   0   6 -11 17.8045 5.75293   5
   0   6 -11 17.7126 7.14675   6
   0   6 -11 15.2327 4.23484   4
   0  -6  11 12.8232 4.27989   6
   0  -6  11 10.0201 4.70331   1
   0  -6  11 19.2963 5.94228   5
   0  -6  11 12.5313 5.07802   5
  -1   6 -11 24.2985 3.64926   3
  -1   6 -11 21.9094 4.64393   4
  -1   6 -11 31.2226 7.41396   6
  -1   6 -11 24.9313 4.22943   2
  -1   6 -11 13.9935 6.27181   5
  -1   6 -11 26.5236 6.02440   5
  -1   6 -11 22.8358 5.54749   6
   1  -6  11 29.7666 6.90559   5
   1  -6  11 19.1648 4.94387   1
   1  -6  11 16.2982 4.68494   6
   1  -6  11 16.5637 5.36578   5
  -2   6 -11 17.9709 4.75963   4
  -2   6 -11 24.9916 3.79746   3
  -2   6 -11 22.7185 5.64853   6
   2  -6  11 32.4959 5.46731   1
   2  -6  11 18.5978 8.89417   5
   2  -6  11 28.4217 5.53912   6
   2  -6  11 24.2287 5.99720   5
  -3   6 -11 7.52369 5.10255   4
  -3   6 -11 10.5874 6.02407   6
  -3   6 -11 7.92153 3.84156   3
   3  -6  11 6.13772 5.37208   1
   3  -6  11 7.53250 6.07942   5
   4   5 -11 16.1264 5.85514   5
   4   5 -11 3.85496 4.16520   4
  -4  -5  11 1.62932 5.16589   1
   3   5 -11 74.1361 6.64806   5
   3   5 -11 99.3068 11.2962   5
   3   5 -11 75.8893 6.56835   6
   3   5 -11 68.8540 6.83626   4
  -3  -5  11 79.5220 6.43568   1
   2   5 -11 8.63818 5.81687   5
   2   5 -11 9.44710 4.59420   5
   2   5 -11 2.75794 4.27554   6
   2   5 -11 4.82519 6.13358   6
   2   5 -11 3.57897 2.68225   3
   2   5 -11 5.87660 3.64467   4
  -2  -5  11 5.22903 4.26480   5
  -2  -5  11 7.84553 4.36234   1
  -2  -5  11 8.47625 3.86684   6
   1   5 -11 6.37750 2.82151   3
   1   5 -11 5.38765 3.79257   6
   1   5 -11 4.19001 5.45082   5
   1   5 -11 0.71429 5.31852   6
   1   5 -11 6.72219 3.36318   4
   1   5 -11 4.87746 4.98517   5
  -1  -5  11 -1.2476 3.45463   6
  -1  -5  11 4.65284 4.14579   1
  -1  -5  11 5.52999 5.06639   5
  -1  -5  11 10.3550 4.41093   5
   0   5 -11 5.91589 3.41453   4
   0   5 -11 3.73078 4.41925   5
   0   5 -11 2.25952 5.09010   6
   0   5 -11 3.21531 2.98765   2
   0   5 -11 0.94229 4.78804   5
   0   5 -11 6.22945 2.43851   3
   0   5 -11 2.18613 3.71594   6
   0  -5  11 2.81261 4.74625   5
   0  -5  11 5.71892 3.72005   6
   0  -5  11 5.79292 3.81341   1
   0  -5  11 6.42556 4.59744   5
  -1   5 -11 35.4423 5.86893   6
  -1   5 -11 42.6987 5.54554   5
  -1   5 -11 40.3101 5.43055   6
  -1   5 -11 31.9652 6.07537   5
  -1   5 -11 33.7132 3.64877   3
  -1   5 -11 36.0042 3.51964   2
  -1   5 -11 34.9455 4.30881   4
   1  -5  11 29.7535 4.62422   5
   1  -5  11 28.0202 5.73324   5
   1  -5  11 42.2969 5.17627   6
   1  -5  11 43.5222 5.04591   1
  -2   5 -11 12.5372 5.88760   6
  -2   5 -11 16.7597 4.48297   6
  -2   5 -11 9.78297 3.17211   3
  -2   5 -11 6.89027 3.87973   4
  -2   5 -11 5.26621 5.06508   5
   2  -5  11 4.83619 4.64280   6
   2  -5  11 11.9750 5.21302   5
   2  -5  11 13.3291 4.70050   1
   2  -5  11 10.0935 6.04323   5
  -3   5 -11 87.3860 8.00441   4
  -3   5 -11 93.2302 8.40361   6
  -3   5 -11 65.7686 6.03858   3
   3  -5  11 89.1839 7.48063   5
   3  -5  11 83.2863 6.55115   1
  -4   5 -11 13.8297 5.50308   6
  -4   5 -11 8.02386 4.92762   4
   4  -5  11 10.8071 5.45451   1
   4  -5  11 1.08350 5.64827   5
   5   4 -11 46.7656 5.34573   4
   5   4 -11 37.9364 5.80554   5
  -5  -4  11 35.9841 5.74555   1
   4   4 -11 -1.2757 4.14694   6
   4   4 -11 -1.3412 3.66777   4
   4   4 -11 5.15679 4.68528   5
  -4  -4  11 -0.9280 4.48882   1
   3   4 -11 6.78646 5.50729   6
   3   4 -11 0.98748 4.42880   5
   3   4 -11 5.52344 3.43262   6
   3   4 -11 2.35269 2.97742   4
   3   4 -11 2.29463 5.03666   5
  -3  -4  11 6.59182 5.05505   5
  -3  -4  11 1.68119 3.22319   6
  -3  -4  11 4.61866 3.93376   1
   2   4 -11 12.6448 6.82163   5
   2   4 -11 15.5060 3.67198   6
   2   4 -11 19.5824 5.44545   6
   2   4 -11 8.24010 4.39816   5
   2   4 -11 13.1156 3.11078   4
  -2  -4  11 13.3952 3.42251   6
  -2  -4  11 15.9731 4.02471   1
  -2  -4  11 24.3698 4.24082   5
  -2  -4  11 26.2886 6.88510   4
  -2  -4  11 13.1800 4.60161   5
   1   4 -11 -0.5664 2.78302   4
   1   4 -11 4.93950 4.28623   5
   1   4 -11 1.97433 2.37466   3
   1   4 -11 3.59125 4.87666   6
   1   4 -11 2.93015 3.05899   6
  -1  -4  11 4.17914 3.46807   4
  -1  -4  11 6.69496 3.49234   1
  -1  -4  11 5.18456 4.45675   5
  -1  -4  11 4.58530 3.18479   6
  -1  -4  11 5.18866 3.76968   5
   0   4 -11 21.3718 3.26985   2
   0   4 -11 17.0501 3.27437   4
   0   4 -11 21.2508 2.80863   3
   0   4 -11 16.2961 4.22564   5
   0   4 -11 21.5693 4.92575   6
   0   4 -11 17.5488 3.96436   6
   0   4 -11 22.1495 5.03215   5
   0  -4  11 16.5278 4.16826   5
   0  -4  11 19.9017 3.48330   4
   0  -4  11 13.4308 3.73397   1
   0  -4  11 19.0619 3.60341   6
   0  -4  11 22.1883 4.53180   5
  -1   4 -11 19.2430 3.11122   2
  -1   4 -11 18.3197 3.33295   4
  -1   4 -11 24.2563 2.89643   3
  -1   4 -11 23.6408 4.40554   6
  -1   4 -11 22.5186 4.97460   6
  -1   4 -11 27.6661 5.44016   5
  -1   4 -11 27.9703 4.94785   5
   1  -4  11 25.7856 4.86833   5
   1  -4  11 22.3253 3.51730   4
   1  -4  11 30.8432 4.18842   6
   1  -4  11 16.6827 3.99756   1
   1  -4  11 18.9138 4.09590   5
  -2   4 -11 49.6989 4.82122   2
  -2   4 -11 35.6407 5.09864   6
  -2   4 -11 33.9479 4.01155   4
  -2   4 -11 40.0814 5.05243   5
  -2   4 -11 42.0697 4.89167   6
  -2   4 -11 28.5712 6.00697   5
  -2   4 -11 49.8655 3.86531   3
   2  -4  11 47.1021 4.99197   1
   2  -4  11 29.2725 8.26148   5
   2  -4  11 47.8716 4.75104   6
   2  -4  11 36.7809 5.28460   5
   2  -4  11 35.4680 3.93013   4
  -3   4 -11 21.4801 4.34423   6
  -3   4 -11 18.9121 4.87415   6
  -3   4 -11 26.1377 4.08196   4
  -3   4 -11 13.2220 4.72798   5
   3  -4  11 24.1374 3.85898   4
   3  -4  11 24.1356 5.35219   6
   3  -4  11 27.9923 5.60008   5
   3  -4  11 41.0611 6.27666   5
   3  -4  11 27.3461 4.90435   1
  -4   4 -11 0.94261 4.16748   6
  -4   4 -11 -0.2734 4.18036   4
   4  -4  11 5.69044 4.94016   1
   4  -4  11 -0.4531 5.22924   5
   4  -4  11 3.80693 4.35417   4
   6   3 -11 11.8161 5.36804   5
  -6  -3  11 12.6853 5.71987   1
   5   3 -11 26.6993 4.41912   4
   5   3 -11 36.1368 5.30332   5
  -5  -3  11 27.2782 5.31486   1
   4   3 -11 19.5727 5.13406   6
   4   3 -11 34.7148 5.80937   5
   4   3 -11 32.8771 4.37439   6
   4   3 -11 30.5381 4.66130   5
   4   3 -11 31.8273 3.97569   4
  -4  -3  11 27.6911 4.54754   1
  -4  -3  11 26.5437 3.92309   5
  -4  -3  11 30.1495 3.62823   6
   3   3 -11 17.7522 4.16556   5
   3   3 -11 13.7523 3.44561   6
   3   3 -11 17.4809 3.21173   4
   3   3 -11 11.4006 4.30935   6
   3   3 -11 18.0076 5.01216   5
  -3  -3  11 14.1734 4.22541   4
  -3  -3  11 14.9629 3.10416   6
  -3  -3  11 18.3822 3.77900   5
  -3  -3  11 6.86799 4.19808   5
  -3  -3  11 13.4112 3.99372   1
   2   3 -11 100.806 8.05556   6
   2   3 -11 94.6258 7.73944   5
   2   3 -11 103.726 7.88792   1
   2   3 -11 101.080 5.67288   4
   2   3 -11 102.562 7.51739   5
   2   3 -11 96.8095 6.66387   6
  -2  -3  11 100.688 6.65205   4
  -2  -3  11 90.7594 6.64960   1
  -2  -3  11 87.8887 7.74777   5
  -2  -3  11 110.067 6.46064   6
  -2  -3  11 99.5893 7.01822   5
   1   3 -11 17.5650 4.49154   1
   1   3 -11 12.4112 2.94767   2
   1   3 -11 19.5452 4.56456   6
   1   3 -11 14.8282 3.86277   5
   1   3 -11 13.3652 4.54679   5
   1   3 -11 10.5575 3.19146   6
   1   3 -11 14.8902 2.84056   4
  -1  -3  11 12.4226 3.75459   5
  -1  -3  11 13.6364 3.35412   1
  -1  -3  11 14.4412 3.12962   6
  -1  -3  11 15.2397 3.54982   5
  -1  -3  11 18.5452 3.36318   4
   0   3 -11 15.9064 4.30685   6
   0   3 -11 16.7810 3.05060   2
   0   3 -11 15.0354 2.39604   3
   0   3 -11 14.9695 2.72631   4
   0   3 -11 18.1948 3.68092   6
   0   3 -11 21.3225 4.09525   5
   0   3 -11 17.3429 4.54636   5
   0   3 -11 18.8842 4.30989   1
   0  -3  11 21.6992 4.16133   5
   0  -3  11 18.2293 3.11893   4
   0  -3  11 7.33008 3.40946   1
   0  -3  11 18.3085 3.15462   6
   0  -3  11 20.5475 4.14415   5
  -1   3 -11 -1.3423 3.93566   1
  -1   3 -11 3.63641 2.23984   3
  -1   3 -11 0.94890 2.49632   2
  -1   3 -11 8.25799 4.42955   5
  -1   3 -11 5.91532 3.10894   6
   1  -3  11 -0.9611 3.24076   1
   1  -3  11 -2.1209 3.10017   6
   1  -3  11 -0.0655 3.32966   5
   1  -3  11 -0.4056 2.72949   4
   1  -3  11 4.83722 3.64369   5
  -2   3 -11 39.7522 4.25624   2
  -2   3 -11 44.4716 4.46276   6
  -2   3 -11 50.4759 5.55495   6
  -2   3 -11 39.1937 4.68559   5
  -2   3 -11 39.3250 5.49635   5
  -2   3 -11 44.4177 4.83440   3
   2  -3  11 37.5870 4.43173   1
   2  -3  11 41.4449 4.74107   5
   2  -3  11 38.6102 4.27306   6
   2  -3  11 46.3729 3.50613   4
   2  -3  11 43.2970 4.89545   5
  -3   3 -11 19.0638 3.80869   6
  -3   3 -11 16.5325 4.00438   6
   3  -3  11 20.6217 4.44993   1
   3  -3  11 21.8445 4.75791   5
   3  -3  11 25.5005 3.52049   4
   3  -3  11 33.0075 5.51390   5
   3  -3  11 22.2115 4.29042   6
  -4   3 -11 48.4559 4.60312   4
  -4   3 -11 45.8454 5.04024   6
   4  -3  11 46.8781 5.61200   5
   4  -3  11 52.2995 5.91612   1
   4  -3  11 48.4434 4.57885   4
  -5   3 -11 12.7133 4.52666   4
   5  -3  11 8.70065 5.64172   1
   5  -3  11 7.28294 5.63230   5
   6   2 -11 9.15296 4.38146   4
   6   2 -11 13.5066 4.92991   5
  -6  -2  11 8.44297 4.95086   1
   5   2 -11 35.6880 4.94485   5
   5   2 -11 38.3340 4.21633   4
   5   2 -11 44.7939 9.52808   5
  -5  -2  11 27.9260 4.31795   5
  -5  -2  11 29.9279 4.87798   1
   4   2 -11 33.5321 4.57173   5
   4   2 -11 26.1878 5.06289   1
   4   2 -11 21.7442 3.41096   4
   4   2 -11 20.3510 4.47678   5
   4   2 -11 31.2156 5.18407   6
   4   2 -11 25.1152 3.81474   6
  -4  -2  11 23.0711 3.55419   5
  -4  -2  11 24.5659 3.44854   6
  -4  -2  11 25.3990 4.19995   1
   3   2 -11 13.8241 4.46060   6
   3   2 -11 12.6578 4.04923   5
   3   2 -11 19.8678 3.04521   4
   3   2 -11 17.0970 4.20171   1
   3   2 -11 12.3383 3.27387   6
  -3  -2  11 10.6181 3.61670   5
  -3  -2  11 8.30454 3.22576   1
  -3  -2  11 10.7998 3.07031   5
  -3  -2  11 12.0938 3.00759   6
   2   2 -11 -1.8982 3.59443   5
   2   2 -11 -1.9473 2.83993   6
   2   2 -11 0.73139 2.65432   2
   2   2 -11 1.94327 3.59087   1
   2   2 -11 -0.0526 2.22180   4
   2   2 -11 -0.8995 2.51323   6
   2   2 -11 1.34408 3.25312   5
  -2  -2  11 4.50988 3.01193   1
  -2  -2  11 -2.4117 2.65910   6
  -2  -2  11 0.76868 2.65737   5
  -2  -2  11 -0.4034 3.65205   5
  -2  -2  11 -3.4349 2.93940   4
   1   2 -11 12.9456 2.68034   4
   1   2 -11 8.87787 2.69001   2
   1   2 -11 17.1693 3.97325   6
   1   2 -11 15.5488 3.91011   1
   1   2 -11 9.04278 3.37802   5
   1   2 -11 16.8215 3.21832   6
   1   2 -11 9.58424 3.71391   5
  -1  -2  11 13.8188 3.01502   4
  -1  -2  11 13.1426 3.30129   1
  -1  -2  11 14.8128 3.11388   6
  -1  -2  11 13.1199 3.67386   5
  -1  -2  11 9.55044 3.42097   5
   0   2 -11 -0.6803 3.88549   5
   0   2 -11 3.29106 3.62778   1
   0   2 -11 0.83974 2.39661   2
   0   2 -11 1.83137 2.06271   4
   0   2 -11 -0.6801 1.79920   3
   0   2 -11 -1.2085 2.58543   6
   0   2 -11 -0.6548 3.36068   6
   0   2 -11 2.56405 3.00506   5
   0  -2  11 -0.9081 2.39730   4
   0  -2  11 4.87443 3.21566   5
   0  -2  11 1.41847 3.48046   5
   0  -2  11 -1.5910 2.87983   1
   0  -2  11 1.94858 2.75033   6
  -1   2 -11 33.5990 3.09447   3
  -1   2 -11 37.0216 3.47466   2
  -1   2 -11 30.9398 3.99023   6
  -1   2 -11 31.9946 3.02676   4
  -1   2 -11 41.2054 4.91480   6
  -1   2 -11 42.8999 4.38296   5
  -1   2 -11 33.2864 4.91587   5
  -1   2 -11 43.1643 4.95538   1
   1  -2  11 32.7574 4.12728   5
   1  -2  11 31.2710 3.72058   6
   1  -2  11 28.8399 3.82213   1
   1  -2  11 30.1848 3.93431   5
   1  -2  11 40.2252 3.23741   4
  -2   2 -11 24.7098 3.84199   6
  -2   2 -11 24.1847 3.01697   4
  -2   2 -11 27.3993 4.68865   6
  -2   2 -11 26.5408 3.20363   2
  -2   2 -11 24.8020 4.61944   5
  -2   2 -11 30.6376 4.29484   5
   2  -2  11 24.3836 2.91594   4
   2  -2  11 26.5605 4.05576   1
   2  -2  11 23.4416 3.74329   6
   2  -2  11 16.1251 3.79522   5
   2  -2  11 24.7790 4.19814   5
  -3   2 -11 65.1761 4.60255   2
  -3   2 -11 60.5714 6.12855   6
  -3   2 -11 53.9855 5.13379   4
  -3   2 -11 58.0539 4.89894   5
  -3   2 -11 64.9369 7.14565   6
   3  -2  11 57.8417 5.59577   5
   3  -2  11 56.1727 5.17759   5
   3  -2  11 55.0939 5.32420   1
   3  -2  11 58.5560 4.86376   4
   3  -2  11 49.0995 4.86902   6
  -4   2 -11 23.7125 3.64121   4
  -4   2 -11 18.4051 4.02395   6
   4  -2  11 13.5300 4.90248   1
   4  -2  11 21.8890 4.55133   5
   4  -2  11 24.7012 4.81986   4
  -5   2 -11 0.16633 4.38302   6
   5  -2  11 2.72440 4.97048   5
   5  -2  11 -0.2073 5.69872   1
   6   1 -11 -2.2245 4.21417   5
   6   1 -11 5.86984 3.73870   4
  -6  -1  11 1.69939 4.30263   1
  -6  -1  11 0.44804 5.40669   3
   5   1 -11 42.9033 4.76141   5
   5   1 -11 34.0115 3.79430   4
   5   1 -11 40.1844 5.60597   5
   5   1 -11 32.1919 3.99496   6
   5   1 -11 29.5193 5.40657   1
  -5  -1  11 40.3950 4.61555   1
  -5  -1  11 37.7114 4.24308   5
  -5  -1  11 36.1882 4.04556   6
   4   1 -11 38.8890 3.96041   6
   4   1 -11 29.9496 4.16800   5
   4   1 -11 31.8615 4.66936   5
   4   1 -11 32.5474 4.35320   6
   4   1 -11 30.5653 4.79258   1
   4   1 -11 32.6825 3.32327   4
  -4  -1  11 27.7130 4.54745   5
  -4  -1  11 38.4099 3.90545   6
  -4  -1  11 28.6457 3.90625   1
   3   1 -11 60.5339 6.69691   6
   3   1 -11 58.6875 6.23018   5
   3   1 -11 50.7689 5.06683   2
   3   1 -11 61.1039 4.66548   4
   3   1 -11 62.1173 5.10162   1
   3   1 -11 58.2643 5.34238   6
   3   1 -11 56.1126 5.20838   5
  -3  -1  11 58.4722 5.87402   5
  -3  -1  11 59.5611 4.53587   1
  -3  -1  11 57.3511 5.21729   6
  -3  -1  11 67.3309 5.84865   5
   2   1 -11 23.2333 2.86602   4
   2   1 -11 26.8352 4.14413   5
   2   1 -11 14.8644 3.86660   1
   2   1 -11 8.87660 2.83582   6
   2   1 -11 16.9183 3.22078   2
   2   1 -11 18.5299 3.17861   6
   2   1 -11 24.8399 3.65667   5
  -2  -1  11 13.6672 3.01774   5
  -2  -1  11 23.8902 3.41019   6
  -2  -1  11 19.6083 3.16492   1
  -2  -1  11 23.7379 3.62968   5
  -2  -1  11 21.1272 3.82662   6
   1   1 -11 86.6021 5.39019   2
   1   1 -11 90.4527 5.93591   6
   1   1 -11 91.1552 4.67690   4
   1   1 -11 103.512 7.37905   5
   1   1 -11 87.6737 6.49812   5
   1   1 -11 89.3146 6.84275   1
  -1  -1  11 89.7586 5.52449   4
  -1  -1  11 80.0526 6.28445   5
  -1  -1  11 83.4867 6.31446   5
  -1  -1  11 93.1421 5.80058   1
  -1  -1  11 91.2739 6.81616   6
  -1  -1  11 89.0940 5.72076   6
   0   1 -11 15.3948 3.33711   6
   0   1 -11 10.1462 3.74863   5
   0   1 -11 22.4484 2.13177   3
   0   1 -11 20.1045 3.91542   1
   0   1 -11 15.9913 2.86209   2
   0   1 -11 21.7957 3.57639   5
   0   1 -11 17.0668 3.02587   6
   0   1 -11 17.4627 2.34151   4
   0  -1  11 21.0449 2.63674   4
   0  -1  11 18.5153 3.34321   1
   0  -1  11 16.2042 3.46910   5
   0  -1  11 24.0591 4.03926   5
   0  -1  11 18.2419 3.82141   6
   0  -1  11 17.6052 3.06921   6
  -1   1 -11 36.0271 4.33723   5
  -1   1 -11 36.2929 5.03473   6
  -1   1 -11 30.5619 2.73018   4
  -1   1 -11 29.7671 3.70705   5
  -1   1 -11 29.8309 3.34457   2
  -1   1 -11 33.8321 4.44596   1
  -1   1 -11 39.2593 4.73171   6
   1  -1  11 26.3944 3.33953   5
   1  -1  11 31.4732 3.76073   5
   1  -1  11 30.5572 4.03189   1
   1  -1  11 35.1704 3.67095   6
   1  -1  11 41.2600 4.97624   6
   1  -1  11 35.9140 2.79030   4
  -2   1 -11 1.45550 3.47389   6
  -2   1 -11 4.68826 3.37105   5
  -2   1 -11 -1.1668 4.83779   1
  -2   1 -11 -0.2405 2.44475   2
  -2   1 -11 1.54358 2.17093   4
  -2   1 -11 0.86115 2.71740   6
  -2   1 -11 -3.9257 3.23225   5
   2  -1  11 -0.0462 3.66306   6
   2  -1  11 -2.2420 2.93112   5
   2  -1  11 2.65725 2.06972   4
   2  -1  11 -3.3663 3.01707   6
   2  -1  11 -4.2890 3.20695   5
   2  -1  11 4.37718 3.30651   1
  -3   1 -11 36.5322 3.13468   4
  -3   1 -11 32.5351 4.33251   6
  -3   1 -11 32.0251 3.93775   6
  -3   1 -11 36.6489 3.41686   2
   3  -1  11 29.7181 4.47530   6
   3  -1  11 34.6049 4.43878   5
   3  -1  11 30.7211 4.05753   5
   3  -1  11 38.6718 4.69165   1
   3  -1  11 30.1215 4.28252   4
  -4   1 -11 51.6312 4.81810   4
  -4   1 -11 43.0963 4.00540   2
  -4   1 -11 36.6598 4.37708   6
   4  -1  11 44.6399 5.75234   1
   4  -1  11 36.8093 5.02291   5
  -5   1 -11 13.7742 4.75383   6
   5  -1  11 16.3712 5.22967   5
   5  -1  11 17.4568 5.82908   1
   6   0 -11 18.0094 5.36393   1
   6   0 -11 20.0589 3.99971   4
   6   0 -11 16.8602 4.43782   5
  -6   0  11 15.8063 3.81834   3
  -6   0  11 14.7444 4.40924   1
   5   0 -11 6.08107 4.14356   5
   5   0 -11 7.20465 3.19981   6
   5   0 -11 8.28390 3.53393   2
   5   0 -11 6.25951 3.51893   5
   5   0 -11 11.1679 3.24534   4
   5   0 -11 12.4404 4.36281   1
  -5   0  11 6.37586 3.14487   5
  -5   0  11 8.18529 3.07337   6
  -5   0  11 9.47558 3.68856   1
  -5   0  11 5.55948 2.85404   3
   4   0 -11 63.8588 4.92804   4
   4   0 -11 73.0121 5.48329   6
   4   0 -11 70.9667 5.20762   1
   4   0 -11 70.1238 7.51756   5
   4   0 -11 70.4340 6.38136   5
   4   0 -11 61.3155 5.49004   2
   4   0 -11 72.3872 7.60294   6
  -4   0  11 57.7946 5.63177   1
  -4   0  11 61.3023 4.76880   3
  -4   0  11 74.8801 5.58753   6
  -4   0  11 47.4153 4.74970   5
  -4   0  11 77.1369 7.11715   6
  -4   0  11 70.6427 5.60722   5
   3   0 -11 4.87524 2.94610   5
   3   0 -11 10.4026 2.86519   6
   3   0 -11 6.01234 3.82773   5
   3   0 -11 3.37414 3.34158   1
   3   0 -11 8.82680 2.24108   4
   3   0 -11 4.37430 3.27441   6
   3   0 -11 7.33105 2.80401   2
  -3   0  11 7.55764 3.05227   1
  -3   0  11 6.29653 2.66159   3
  -3   0  11 9.05276 3.78019   6
  -3   0  11 10.5219 2.87636   6
  -3   0  11 5.78322 2.58750   5
  -3   0  11 3.84664 3.28591   5
   2   0 -11 43.7402 4.67582   6
   2   0 -11 35.0323 3.79554   5
   2   0 -11 23.7967 3.49408   6
   2   0 -11 40.1660 4.13645   1
   2   0 -11 30.8388 2.76247   4
   2   0 -11 45.1445 6.51358   5
   2   0 -11 32.8853 3.62111   2
  -2   0  11 46.6696 4.50209   5
  -2   0  11 35.2327 3.52283   1
  -2   0  11 46.2434 4.76242   6
  -2   0  11 43.9908 4.82252   6
  -2   0  11 33.1424 3.72240   5
   1   0 -11 7.59754 3.22500   5
   1   0 -11 5.98560 1.89950   4
   1   0 -11 11.8949 3.82224   5
   1   0 -11 7.18896 2.47321   6
   1   0 -11 -0.2221 2.27286   2
   1   0 -11 3.82632 3.46003   1
   1   0 -11 2.94373 2.74634   6
  -1   0  11 2.01475 2.83060   5
  -1   0  11 5.83864 3.37393   5
  -1   0  11 4.30336 3.47964   6
  -1   0  11 7.06974 2.89737   1
  -1   0  11 5.49806 2.44328   6
   0   0 -11 0.24444 2.38416   6
   0   0 -11 1.57985 2.33732   2
   0   0 -11 5.28638 3.52602   5
   0   0 -11 1.21366 1.77859   4
   0   0 -11 3.42933 2.69245   5
   0   0 -11 1.09906 3.70794   1
   0   0 -11 5.31300 3.39138   6
   0   0  11 3.14746 2.97384   1
   0   0  11 1.49766 2.58806   6
   0   0  11 -1.8141 3.14404   6
   0   0  11 4.88222 3.03813   5
   0   0  11 6.29313 2.92588   5
  -1   0 -11 8.87640 3.74638   1
  -1   0 -11 1.62945 3.01298   5
  -1   0 -11 1.29903 3.28690   5
  -1   0 -11 -1.7074 3.30359   6
  -1   0 -11 1.67417 2.46712   2
  -1   0 -11 2.31320 1.83683   4
  -1   0 -11 2.07936 3.20277   6
   1   0  11 1.72021 1.92914   4
   1   0  11 -0.4348 2.83643   5
   1   0  11 -1.4127 3.14209   6
   1   0  11 0.88541 3.12027   5
   1   0  11 -2.5594 2.91985   1
   1   0  11 4.10809 2.76026   6
  -2   0 -11 46.2454 3.67278   4
  -2   0 -11 36.2819 4.45681   5
  -2   0 -11 47.3184 4.23607   6
  -2   0 -11 47.4168 4.72471   6
  -2   0 -11 43.8275 4.33164   5
  -2   0 -11 43.1603 4.44023   2
   2   0  11 33.6027 4.15413   6
   2   0  11 34.3657 4.03462   5
   2   0  11 38.5564 4.61311   1
   2   0  11 51.8233 4.80290   5
   2   0  11 41.1454 3.92548   6
   2   0  11 44.7069 3.50491   4
  -3   0 -11 24.9607 3.57670   6
  -3   0 -11 24.1853 2.38560   4
  -3   0 -11 20.2203 3.22472   2
  -3   0 -11 25.8577 3.60354   5
   3   0  11 19.1741 4.15786   6
   3   0  11 21.6446 4.35378   5
   3   0  11 16.6147 4.26029   6
   3   0  11 19.3474 4.43227   1
   3   0  11 20.9779 2.27913   4
   3   0  11 23.0144 4.13216   5
  -4   0 -11 63.4472 6.58681   6
  -4   0 -11 64.2744 5.61822   2
   4   0  11 72.0658 6.32292   1
   4   0  11 53.3715 5.07513   5
  -5   0 -11 12.3000 4.05094   2
   5   0  11 18.8713 8.53389   1
   5   0  11 6.73820 4.92989   5
   6  -1 -11 24.4067 3.82066   4
   6  -1 -11 29.6014 4.58407   2
   6  -1 -11 31.7848 4.82421   5
   6  -1 -11 31.6351 5.66349   1
  -6   1  11 30.2021 4.24329   1
  -6   1  11 22.6701 3.82620   3
  -6   1  11 25.4220 4.54128   6
   5  -1 -11 -1.1180 2.76043   4
   5  -1 -11 -2.4162 4.18293   5
   5  -1 -11 -3.5762 3.56224   5
   5  -1 -11 0.56077 2.89439   6
   5  -1 -11 -2.3735 3.67950   1
   5  -1 -11 -1.3500 2.93524   2
  -5   1  11 2.06604 3.82290   6
  -5   1  11 3.39602 3.08229   5
  -5   1  11 -3.6843 3.29472   1
  -5   1  11 -1.5571 2.75860   3
   4  -1 -11 62.3892 5.37319   2
   4  -1 -11 59.2045 4.78061   1
   4  -1 -11 69.4715 6.53768   5
   4  -1 -11 50.1066 4.91410   5
   4  -1 -11 66.4860 5.36294   6
   4  -1 -11 63.6316 5.66863   6
   4  -1 -11 60.2514 4.83241   4
  -4   1  11 64.9023 5.74044   1
  -4   1  11 57.3506 4.75356   3
  -4   1  11 50.0461 4.89907   6
  -4   1  11 61.1979 5.64656   6
  -4   1  11 85.3879 6.21456   5
  -4   1  11 68.7341 6.84076   5
   3  -1 -11 30.8886 4.05358   5
   3  -1 -11 25.5058 3.13289   6
   3  -1 -11 31.2408 3.26697   4
   3  -1 -11 24.9689 3.45468   2
   3  -1 -11 28.1869 3.76850   1
   3  -1 -11 21.4994 3.85268   6
   3  -1 -11 26.8665 3.82181   5
  -3   1  11 34.3875 3.88468   6
  -3   1  11 26.9170 4.08520   5
  -3   1  11 22.1311 3.77872   6
  -3   1  11 29.5155 3.60320   5
  -3   1  11 25.9310 3.31414   1
  -3   1  11 28.8632 3.31950   3
   2  -1 -11 62.9179 6.34691   5
   2  -1 -11 70.7612 6.31349   6
   2  -1 -11 77.3161 6.10858   1
   2  -1 -11 60.5271 5.07801   2
   2  -1 -11 78.1438 8.18843   5
   2  -1 -11 68.4966 6.69591   6
   2  -1 -11 68.0279 4.12959   4
  -2   1  11 69.5756 6.66483   6
  -2   1  11 66.0348 5.23290   1
  -2   1  11 63.6234 6.19773   5
  -2   1  11 67.0915 4.40209   3
  -2   1  11 76.1560 6.66341   5
  -2   1  11 62.6292 5.35608   6
   1  -1 -11 31.9960 4.11389   6
   1  -1 -11 27.5256 2.38530   4
   1  -1 -11 23.5412 3.45827   5
   1  -1 -11 26.1454 3.48491   2
   1  -1 -11 23.9230 2.98969   6
   1  -1 -11 20.0071 3.84931   1
   1  -1 -11 30.4941 4.31000   5
  -1   1  11 29.1442 4.09330   5
  -1   1  11 22.3774 3.47354   5
  -1   1  11 19.1774 3.87426   6
  -1   1  11 30.3383 3.63685   1
  -1   1  11 22.2209 3.12425   6
   0  -1 -11 50.7695 4.72455   1
   0  -1 -11 52.4085 3.30536   4
   0  -1 -11 53.4571 4.15137   6
   0  -1 -11 43.3773 4.55951   2
   0  -1 -11 55.0614 5.11607   6
   0  -1 -11 36.4004 4.41056   5
   0  -1 -11 52.5452 5.51494   5
   0   1  11 54.0257 5.00471   6
   0   1  11 51.3679 5.90046   5
   0   1  11 42.5923 4.13608   1
   0   1  11 37.3142 4.37612   6
   0   1  11 32.7296 3.93390   5
  -1  -1 -11 16.7256 3.21023   6
  -1  -1 -11 13.9948 3.98901   5
  -1  -1 -11 13.8114 3.01068   5
  -1  -1 -11 17.5223 3.06017   2
  -1  -1 -11 10.1401 4.11860   1
  -1  -1 -11 9.18744 3.89860   6
  -1  -1 -11 17.1656 1.92089   4
   1   1  11 19.0225 3.67560   5
   1   1  11 16.4041 3.91490   6
   1   1  11 19.9471 3.89377   5
   1   1  11 16.1815 3.59849   1
   1   1  11 11.8608 3.13999   6
  -2  -1 -11 51.1251 5.06205   6
  -2  -1 -11 42.4134 2.80700   4
  -2  -1 -11 45.8065 4.17960   6
  -2  -1 -11 39.8887 3.71804   5
  -2  -1 -11 40.1192 3.81900   2
  -2  -1 -11 28.7283 4.55099   5
   2   1  11 35.9868 4.32095   6
   2   1  11 49.7257 4.92201   5
   2   1  11 37.7623 4.48680   1
   2   1  11 42.1879 4.81856   6
   2   1  11 45.5381 4.65414   5
  -3  -1 -11 1.38886 3.03120   5
  -3  -1 -11 -5.3447 2.85053   6
  -3  -1 -11 1.45085 2.77036   2
  -3  -1 -11 -0.4935 3.77158   6
   3   1  11 5.83008 4.40542   5
   3   1  11 -0.6410 3.91737   6
   3   1  11 -1.5767 4.03845   1
   3   1  11 0.06985 3.87018   5
  -4  -1 -11 18.8637 3.93647   6
  -4  -1 -11 20.2893 5.62807   2
   4   1  11 19.5900 4.83581   5
   4   1  11 12.3587 5.26126   1
   6  -2 -11 2.56054 4.35758   5
   6  -2 -11 1.29818 3.20758   2
   6  -2 -11 3.51280 4.81327   1
   6  -2 -11 -0.6768 3.55288   4
  -6   2  11 -3.7853 3.51217   1
  -6   2  11 1.52895 4.30538   6
  -6   2  11 1.36334 3.15106   3
   5  -2 -11 14.9516 5.39075   5
   5  -2 -11 15.1932 3.96087   1
   5  -2 -11 17.9222 3.51065   6
   5  -2 -11 13.0372 4.13694   5
   5  -2 -11 8.25100 3.32631   2
   5  -2 -11 13.6104 3.03981   4
  -5   2  11 17.4689 4.07615   6
  -5   2  11 13.9293 4.32722   6
  -5   2  11 16.0781 3.20869   3
  -5   2  11 7.23597 3.61254   5
   4  -2 -11 13.7089 3.43310   1
   4  -2 -11 4.37280 4.62374   6
   4  -2 -11 3.19869 2.89694   2
   4  -2 -11 8.75888 3.56739   5
   4  -2 -11 3.96431 4.80410   5
   4  -2 -11 7.29701 2.88097   6
   4  -2 -11 4.93410 2.43985   4
  -4   2  11 6.97260 2.85117   3
  -4   2  11 9.05730 3.78086   5
  -4   2  11 12.9789 4.18512   5
  -4   2  11 5.77685 3.33785   6
  -4   2  11 13.4625 4.00238   6
   3  -2 -11 84.1229 5.91542   2
   3  -2 -11 99.0373 5.04251   4
   3  -2 -11 101.713 7.13156   5
   3  -2 -11 109.687 7.84155   5
   3  -2 -11 90.1861 7.98452   6
   3  -2 -11 94.9176 6.73192   1
   3  -2 -11 98.7237 6.10900   6
  -3   2  11 98.7592 7.68012   6
  -3   2  11 109.448 6.89170   6
  -3   2  11 104.421 7.06161   5
  -3   2  11 97.8317 5.52658   3
  -3   2  11 104.411 7.64143   5
   2  -2 -11 1.84989 3.16064   5
   2  -2 -11 -0.0205 3.54595   6
   2  -2 -11 0.35671 2.58278   2
   2  -2 -11 -0.0956 3.23526   6
   2  -2 -11 2.98363 3.32231   1
   2  -2 -11 3.98508 3.60859   5
   2  -2 -11 -0.2892 1.74470   4
  -2   2  11 0.69960 2.82157   1
  -2   2  11 0.25263 3.50906   6
  -2   2  11 4.00039 3.33790   5
  -2   2  11 -1.0505 3.32781   5
  -2   2  11 1.92438 3.04208   6
  -2   2  11 2.16842 2.37439   3
   1  -2 -11 59.6729 5.33625   5
   1  -2 -11 63.0871 3.52769   4
   1  -2 -11 46.4549 4.34810   1
   1  -2 -11 67.5610 6.88946   6
   1  -2 -11 64.0115 5.27871   6
   1  -2 -11 56.5997 4.92280   2
   1  -2 -11 63.9320 6.02872   5
  -1   2  11 56.5735 5.26356   6
  -1   2  11 58.4151 3.94337   3
  -1   2  11 55.7699 4.84994   5
  -1   2  11 50.4576 4.32871   1
  -1   2  11 59.1109 6.28872   5
  -1   2  11 57.3542 5.60803   6
   0  -2 -11 8.30947 3.88660   1
   0  -2 -11 12.8132 1.69605   4
   0  -2 -11 10.0465 2.93509   2
   0  -2 -11 15.6663 4.33084   5
   0  -2 -11 6.29043 3.68517   6
   0  -2 -11 10.5473 3.08236   5
   0  -2 -11 14.0220 2.86589   6
   0   2  11 10.1054 3.78339   5
   0   2  11 11.0593 3.86560   5
   0   2  11 20.2334 4.29781   6
   0   2  11 7.96579 2.96423   6
   0   2  11 13.5323 3.33954   1
  -1  -2 -11 0.34462 3.50488   6
  -1  -2 -11 -0.1659 1.23924   4
  -1  -2 -11 4.45164 4.17068   1
  -1  -2 -11 -0.6910 2.29796   6
  -1  -2 -11 0.01656 3.95762   5
  -1  -2 -11 -0.1785 1.33589   4
  -1  -2 -11 -3.1244 2.35890   2
  -1  -2 -11 2.23030 2.84680   5
   1   2  11 4.64968 3.46320   1
   1   2  11 -1.8141 3.48347   6
   1   2  11 4.40808 3.06769   6
   1   2  11 4.50741 5.28931   5
   1   2  11 2.98228 3.34980   5
  -2  -2 -11 2.58003 3.00382   6
  -2  -2 -11 -1.0204 3.41954   6
  -2  -2 -11 4.12615 2.81100   2
   2   2  11 7.47689 3.85587   5
   2   2  11 0.25961 3.69511   1
   2   2  11 2.74126 4.07840   6
   2   2  11 10.6020 4.47644   5
   2   2  11 1.04424 3.72826   6
  -3  -2 -11 37.0865 5.04076   5
  -3  -2 -11 47.0039 4.26561   6
  -3  -2 -11 42.1029 4.11757   2
   3   2  11 45.2920 4.97522   5
   3   2  11 44.2775 5.62133   1
   3   2  11 27.4062 5.53611   6
  -4  -2 -11 12.7980 3.77648   2
  -4  -2 -11 12.7768 3.87785   6
   4   2  11 18.3717 4.63638   5
   4   2  11 16.7239 5.81468   1
   6  -3 -11 13.8931 4.02161   2
   6  -3 -11 13.7049 3.87870   4
   6  -3 -11 11.9203 4.88109   5
  -6   3  11 17.5020 3.58171   1
  -6   3  11 17.4633 5.29907   6
  -6   3  11 11.0850 3.81157   3
   5  -3 -11 59.3699 5.83319   5
   5  -3 -11 55.5839 7.40118   5
   5  -3 -11 46.8840 4.24465   4
   5  -3 -11 50.0476 5.37864   2
   5  -3 -11 51.6328 5.11170   1
   5  -3 -11 49.3548 4.41854   6
  -5   3  11 55.3102 4.18378   1
  -5   3  11 56.0304 6.19367   6
  -5   3  11 43.8750 4.46427   3
   4  -3 -11 0.56944 2.99145   2
   4  -3 -11 -2.3131 4.06051   5
   4  -3 -11 -2.9002 3.24027   1
   4  -3 -11 5.42722 3.88251   4
   4  -3 -11 -2.1198 4.76590   5
   4  -3 -11 2.81361 3.07528   6
   4  -3 -11 4.89069 4.43653   6
   4  -3 -11 -0.8258 2.45443   4
  -4   3  11 1.07271 2.60868   3
  -4   3  11 2.03349 3.68012   6
  -4   3  11 0.83146 3.31700   6
  -4   3  11 -0.2688 3.83395   5
  -4   3  11 0.04795 3.01014   1
   3  -3 -11 78.9351 6.10705   4
   3  -3 -11 88.0966 6.90964   6
   3  -3 -11 61.0989 6.67716   6
   3  -3 -11 62.5412 5.44769   2
   3  -3 -11 64.7006 6.30228   1
   3  -3 -11 81.8179 6.56269   5
   3  -3 -11 57.9606 5.08152   5
   3  -3 -11 67.8955 4.52299   4
  -3   3  11 68.2814 7.45043   6
  -3   3  11 77.5527 8.28316   5
  -3   3  11 61.1351 5.37319   1
  -3   3  11 52.5099 4.76618   5
  -3   3  11 73.4071 6.85961   6
  -3   3  11 75.2248 5.14258   3
   2  -3 -11 28.3941 4.05255   5
   2  -3 -11 26.5432 3.83667   2
   2  -3 -11 23.3507 3.26738   6
   2  -3 -11 21.9633 3.87058   1
   2  -3 -11 24.4191 2.33679   4
   2  -3 -11 19.5526 4.58356   5
   2  -3 -11 34.5789 5.06971   6
   2  -3 -11 29.1318 3.16364   4
  -2   3  11 24.5538 3.50023   1
  -2   3  11 22.7469 3.10635   3
  -2   3  11 19.8864 4.10435   5
  -2   3  11 31.0384 4.52253   5
  -2   3  11 22.0744 4.45847   6
  -2   3  11 28.7203 4.07740   6
   1  -3 -11 55.2757 3.32008   4
   1  -3 -11 52.6958 5.08171   2
   1  -3 -11 60.3917 5.73738   6
   1  -3 -11 53.1081 4.29404   4
   1  -3 -11 49.9724 4.50824   5
   1  -3 -11 59.0244 5.72595   6
   1  -3 -11 49.0881 4.93919   1
   1  -3 -11 60.5202 6.00729   5
  -1   3  11 58.1855 5.38833   5
  -1   3  11 65.2867 6.95555   5
  -1   3  11 41.5096 4.81181   6
  -1   3  11 45.1992 4.22973   1
  -1   3  11 60.1990 6.19088   6
  -1   3  11 56.6984 4.14297   3
   0  -3 -11 24.8098 3.77144   5
   0  -3 -11 30.0954 2.88666   4
   0  -3 -11 33.3396 5.35263   5
   0  -3 -11 26.3161 3.73191   6
   0  -3 -11 34.9810 4.98852   2
   0  -3 -11 24.2506 4.32985   6
   0  -3 -11 34.0717 4.73459   1
   0  -3 -11 27.0930 2.31642   4
   0   3  11 33.8628 4.59076   6
   0   3  11 26.4809 4.53881   5
   0   3  11 37.3533 5.14318   6
   0   3  11 29.6675 4.51049   5
   0   3  11 29.6772 4.05564   1
  -1  -3 -11 16.6346 3.05066   6
  -1  -3 -11 15.6400 3.15049   2
  -1  -3 -11 16.9443 4.92122   5
  -1  -3 -11 12.4880 4.32762   6
  -1  -3 -11 15.3013 3.72243   5
   1   3  11 13.7392 4.09519   5
   1   3  11 10.1447 4.10687   6
   1   3  11 14.8815 4.86180   5
   1   3  11 8.07504 3.70092   6
   1   3  11 15.9133 3.88037   1
  -2  -3 -11 13.9244 3.28122   2
  -2  -3 -11 11.7368 3.16763   6
  -2  -3 -11 15.5411 4.67507   6
   2   3  11 13.8644 4.47984   1
   2   3  11 5.86685 5.13415   5
   2   3  11 6.27091 3.99729   6
   2   3  11 16.2010 4.27765   5
   2   3  11 10.8623 5.46313   6
  -3  -3 -11 33.8559 4.05299   6
  -3  -3 -11 26.2636 3.86338   2
   3   3  11 35.7292 5.27202   5
   3   3  11 32.7936 5.62018   1
   6  -4 -11 -1.6148 3.35805   2
   6  -4 -11 4.93862 4.05027   4
   6  -4 -11 4.41101 5.28657   5
  -6   4  11 3.41088 4.11187   3
  -6   4  11 5.44163 5.51849   6
   5  -4 -11 1.97682 4.49516   1
   5  -4 -11 5.27125 3.73182   2
   5  -4 -11 -0.9357 3.14597   4
   5  -4 -11 10.1247 4.79437   5
  -5   4  11 1.43813 2.91567   3
  -5   4  11 -5.1674 4.94309   6
  -5   4  11 -0.1181 3.13433   1
   4  -4 -11 5.59380 3.36769   6
   4  -4 -11 -2.7615 5.61763   6
   4  -4 -11 2.41030 3.09142   2
   4  -4 -11 1.20682 4.35037   5
   4  -4 -11 0.87013 3.87733   1
   4  -4 -11 -0.0665 6.50660   5
   4  -4 -11 -6.9142 4.17510   4
   4  -4 -11 -0.5637 2.70564   4
  -4   4  11 1.04183 4.57305   6
  -4   4  11 -0.4157 3.94891   5
  -4   4  11 10.0385 3.14371   1
  -4   4  11 5.04021 3.01152   3
  -4   4  11 -0.6385 4.51901   6
   3  -4 -11 3.17466 4.08056   5
   3  -4 -11 2.44746 2.21071   4
   3  -4 -11 3.24553 5.59714   5
   3  -4 -11 -0.7486 5.01430   6
   3  -4 -11 0.39498 3.48273   4
   3  -4 -11 8.75677 3.25176   6
   3  -4 -11 4.76798 3.55496   1
   3  -4 -11 3.62420 3.07112   2
  -3   4  11 -1.2559 4.03349   6
  -3   4  11 4.89988 4.25961   6
  -3   4  11 6.28459 3.73950   1
  -3   4  11 14.9698 5.39338   5
  -3   4  11 9.87134 4.02084   5
  -3   4  11 6.85499 2.93065   3
   2  -4 -11 89.4316 7.36621   5
   2  -4 -11 83.4574 6.06133   2
   2  -4 -11 96.3417 4.49791   4
   2  -4 -11 106.437 9.23453   6
   2  -4 -11 102.239 7.60325   5
   2  -4 -11 103.798 5.77968   4
   2  -4 -11 87.0883 6.72118   6
   2  -4 -11 87.8645 7.27015   1
  -2   4  11 105.465 8.03085   6
  -2   4  11 90.5865 8.20515   5
  -2   4  11 97.0755 8.39749   6
  -2   4  11 83.4822 8.89061   5
  -2   4  11 92.4670 6.58090   1
  -2   4  11 95.1312 5.38179   3
   1  -4 -11 5.42886 5.33078   5
   1  -4 -11 1.82894 4.08244   1
   1  -4 -11 -2.6025 1.99252   4
   1  -4 -11 -1.3274 1.43941   4
   1  -4 -11 0.23544 2.67453   2
   1  -4 -11 -4.0475 3.50339   5
   1  -4 -11 5.95036 4.46861   6
  -1   4  11 3.01662 3.64867   6
  -1   4  11 1.90701 5.59391   3
  -1   4  11 8.20796 4.80943   5
  -1   4  11 3.14939 5.10814   5
  -1   4  11 -0.3765 3.21574   1
  -1   4  11 -4.9423 3.96501   6
   0  -4 -11 46.2057 5.60564   1
   0  -4 -11 53.6623 5.05806   5
   0  -4 -11 55.9332 4.78334   6
   0  -4 -11 47.0503 4.61450   2
   0  -4 -11 49.0821 6.28501   5
   0  -4 -11 58.7049 6.24547   6
   0   4  11 27.8751 4.51557   6
   0   4  11 40.7702 5.74619   5
   0   4  11 42.6439 4.62154   1
   0   4  11 51.4055 6.47508   5
   0   4  11 37.8722 5.41979   6
  -1  -4 -11 8.45638 3.19364   2
  -1  -4 -11 6.45813 3.34725   6
  -1  -4 -11 8.70080 4.77459   6
  -1  -4 -11 12.9660 3.95218   5
   1   4  11 6.67842 4.82085   5
   1   4  11 10.7500 4.42601   1
   1   4  11 17.3515 5.09094   5
   1   4  11 20.2689 4.93584   6
   1   4  11 21.6803 5.22251   6
  -2  -4 -11 6.52535 3.39012   2
  -2  -4 -11 7.03168 3.75389   6
   2   4  11 5.28406 5.30075   5
   2   4  11 11.4702 4.91847   1
  -3  -4 -11 -0.3475 3.42214   2
  -3  -4 -11 4.79470 3.50791   6
   3   4  11 2.94024 5.38017   1
   3   4  11 3.77987 5.40567   5
   5  -5 -11 12.1970 3.69151   4
   5  -5 -11 7.55214 3.87571   2
   5  -5 -11 17.5088 5.82146   5
  -5   5  11 13.7900 6.08340   6
  -5   5  11 12.2037 3.51643   3
  -5   5  11 5.54054 5.20063   1
   4  -5 -11 64.2659 5.37953   6
   4  -5 -11 60.4159 5.93376   5
   4  -5 -11 69.2606 5.85278   4
   4  -5 -11 53.9775 7.76933   6
   4  -5 -11 54.0856 5.28562   1
   4  -5 -11 53.5596 5.64928   2
   4  -5 -11 81.9124 12.7371   5
   4  -5 -11 58.4775 5.28945   4
  -4   5  11 59.0364 6.42336   6
  -4   5  11 51.9464 5.37444   3
  -4   5  11 62.7142 5.89262   1
   3  -5 -11 -5.0822 4.34949   1
   3  -5 -11 -0.5515 2.29557   4
   3  -5 -11 -10.675 6.89578   5
   3  -5 -11 3.11484 3.24331   2
   3  -5 -11 -10.097 3.50243   4
   3  -5 -11 -4.1472 5.00681   6
   3  -5 -11 -3.8466 4.50997   5
  -3   5  11 0.29921 2.78380   3
  -3   5  11 0.73422 4.67706   6
  -3   5  11 -3.9460 4.41256   6
  -3   5  11 -1.0578 6.48145   5
  -3   5  11 -7.5400 4.62265   5
  -3   5  11 1.63321 5.96854   1
   2  -5 -11 45.9808 5.47758   5
   2  -5 -11 51.2958 5.48245   6
   2  -5 -11 65.3069 6.90789   6
   2  -5 -11 52.3357 5.14515   4
   2  -5 -11 54.1030 7.43918   5
   2  -5 -11 47.7132 4.95429   2
   2  -5 -11 54.4492 3.76904   4
  -2   5  11 42.0137 5.55909   6
  -2   5  11 57.0502 4.87233   1
  -2   5  11 56.7562 6.89007   6
  -2   5  11 41.3219 6.14594   5
  -2   5  11 58.7757 6.05051   5
  -2   5  11 45.5810 4.81378   3
   1  -5 -11 19.2998 4.30822   6
   1  -5 -11 21.9330 1.76294   4
   1  -5 -11 20.6806 2.30619   4
   1  -5 -11 22.3837 4.69964   5
   1  -5 -11 18.0170 3.98939   2
   1  -5 -11 12.9645 5.72552   5
   1  -5 -11 15.1103 5.34110   6
  -1   5  11 32.3406 7.39784   5
  -1   5  11 22.4237 5.59528   5
  -1   5  11 18.9310 4.24334   1
  -1   5  11 13.8117 4.70160   6
  -1   5  11 24.4829 5.99129   6
  -1   5  11 22.7276 3.52720   3
   0  -5 -11 27.2075 4.36572   6
   0  -5 -11 26.5795 4.82512   5
   0  -5 -11 24.0643 3.90439   2
   0  -5 -11 23.4950 5.37778   6
   0   5  11 24.1586 5.71576   5
   0   5  11 24.2056 5.06138   6
   0   5  11 36.4501 4.92059   1
   0   5  11 31.7302 7.52747   5
   0   5  11 39.1009 6.86517   6
  -1  -5 -11 17.4997 4.02344   2
  -1  -5 -11 22.8492 4.37154   6
   1   5  11 30.8731 6.41221   5
   1   5  11 24.3174 5.15541   1
   1   5  11 18.6864 6.52697   6
  -2  -5 -11 0.91553 3.91571   6
  -2  -5 -11 6.13645 3.42003   2
   2   5  11 -8.4240 5.99775   5
   2   5  11 3.30944 5.39697   1
   4  -6 -11 2.60966 3.60292   2
   4  -6 -11 1.16408 3.15108   4
   4  -6 -11 -0.5934 5.25639   5
  -4   6  11 6.18722 6.11910   1
  -4   6  11 4.83309 6.10095   6
  -4   6  11 2.87620 3.50135   3
   3  -6 -11 0.30051 2.57709   4
   3  -6 -11 9.69537 5.17021   5
   3  -6 -11 -1.7488 3.14094   2
   3  -6 -11 4.10725 6.43582   6
   3  -6 -11 0.74308 9.05990   5
   3  -6 -11 2.31986 6.31612   6
  -3   6  11 6.46879 6.26854   6
  -3   6  11 -4.0678 2.98187   3
  -3   6  11 -5.8933 4.21208   1
   2  -6 -11 0.42766 2.17620   4
   2  -6 -11 4.79952 4.00887   6
   2  -6 -11 -2.7979 4.72134   5
   2  -6 -11 9.27518 10.5295   6
   2  -6 -11 4.13823 8.65517   5
   2  -6 -11 -1.5106 3.43577   2
  -2   6  11 -8.2236 8.02259   5
  -2   6  11 -6.3130 3.97395   1
  -2   6  11 1.01838 5.68468   5
  -2   6  11 5.71633 8.64671   6
  -2   6  11 -1.5973 2.91316   3
  -2   6  11 10.0216 5.93459   6
   1  -6 -11 52.5128 5.48745   6
   1  -6 -11 35.8988 4.47796   2
   1  -6 -11 55.7563 7.17236   5
  -1   6  11 63.9373 7.98461   6
  -1   6  11 62.0136 7.25747   5
  -1   6  11 48.3902 6.22819   6
  -1   6  11 62.2915 5.67402   1
  -1   6  11 53.8458 9.30727   5
  -1   6  11 61.8033 5.89428   3
   0  -6 -11 3.48631 4.51309   6
   0  -6 -11 3.97022 3.34303   2
   0   6  11 -1.6439 4.91592   1
   0   6  11 8.23867 6.45573   5
   0   6  11 2.73967 6.62809   6
  -1  -6 -11 23.9689 5.20916   6
  -1  -6 -11 18.9966 3.85044   2
   1   6  11 22.9336 7.25590   5
   1   6  11 25.5394 6.00150   1
   1   6 -12 2.00144 8.23958   6
   1   6 -12 8.64334 3.27667   3
   1   6 -12 6.37059 5.13609   4
   1   6 -12 5.73445 7.09637   5
  -1  -6  12 11.3790 6.02479   1
   0   6 -12 3.78104 7.22789   5
   0   6 -12 1.95439 2.96706   3
   0   6 -12 -2.8057 5.71036   6
   0   6 -12 -0.8293 4.70674   4
   0   6 -12 7.26960 10.6435   5
   0   6 -12 7.82855 3.64924   2
   0  -6  12 5.16186 6.84739   5
   0  -6  12 -1.2372 5.38403   1
  -1   6 -12 28.2032 5.46214   4
  -1   6 -12 37.4708 7.20041   6
  -1   6 -12 32.9096 4.14883   3
   1  -6  12 31.5806 6.01061   1
   1  -6  12 30.4425 7.33411   5
   3   5 -12 24.6731 6.21899   5
   3   5 -12 18.3373 4.90207   4
  -3  -5  12 19.9456 5.91406   1
   2   5 -12 -1.1251 4.27188   4
   2   5 -12 2.21550 7.21294   6
   2   5 -12 -0.5568 5.54355   5
   2   5 -12 2.69195 2.89701   3
   2   5 -12 -6.6363 4.70491   6
  -2  -5  12 0.87592 4.84452   1
   1   5 -12 20.8518 4.03651   2
   1   5 -12 17.1583 4.43083   4
   1   5 -12 12.4234 7.40019   5
   1   5 -12 19.7804 7.40722   6
   1   5 -12 16.5833 3.13863   3
   1   5 -12 11.2725 9.30962   5
   1   5 -12 11.7125 6.94396   6
  -1  -5  12 13.7584 4.66263   5
  -1  -5  12 22.3463 5.18794   1
   0   5 -12 -0.3501 7.25124   5
   0   5 -12 3.06494 5.52189   5
   0   5 -12 -1.7267 4.51234   6
   0   5 -12 -4.7765 3.79614   4
   0   5 -12 1.02396 2.52055   3
   0   5 -12 9.33050 6.95862   6
   0   5 -12 0.45207 3.30051   2
   0  -5  12 -4.9304 4.17552   5
   0  -5  12 3.86877 6.46367   5
   0  -5  12 0.10048 5.07102   6
   0  -5  12 -1.6150 4.83002   1
  -1   5 -12 112.381 6.12819   3
  -1   5 -12 126.082 11.3072   5
  -1   5 -12 116.822 6.46008   2
  -1   5 -12 106.896 8.32858   4
  -1   5 -12 107.860 10.1124   6
   1  -5  12 122.950 12.1540   5
   1  -5  12 122.680 9.90309   6
   1  -5  12 99.8627 8.84991   5
   1  -5  12 95.4719 7.36461   1
  -2   5 -12 28.4315 5.26408   4
  -2   5 -12 38.4010 4.27788   3
  -2   5 -12 44.9423 6.50705   6
   2  -5  12 31.4507 6.75779   5
   2  -5  12 29.8984 5.90392   1
   2  -5  12 37.6766 7.02293   6
   4   4 -12 -3.1231 5.93363   5
   4   4 -12 11.2983 4.38850   4
  -4  -4  12 10.8171 5.76690   1
   3   4 -12 87.9193 8.93156   6
   3   4 -12 73.6937 7.28938   4
   3   4 -12 86.5165 7.28563   5
  -3  -4  12 75.5517 6.44274   1
   2   4 -12 21.6812 7.35892   5
   2   4 -12 15.9237 3.99208   4
   2   4 -12 15.1613 5.07877   5
   2   4 -12 16.7191 7.02457   6
   2   4 -12 13.9031 4.28619   6
  -2  -4  12 10.1042 3.86416   5
  -2  -4  12 9.58611 4.42834   6
  -2  -4  12 11.1919 4.65357   1
   1   4 -12 32.5138 3.96863   2
   1   4 -12 25.6242 4.02207   4
   1   4 -12 25.9482 4.92199   6
   1   4 -12 31.6601 6.49593   5
   1   4 -12 32.4258 6.86195   6
   1   4 -12 28.2468 3.28621   3
  -1  -4  12 34.0294 5.09164   1
  -1  -4  12 26.5868 6.04139   5
  -1  -4  12 31.5287 4.99350   6
  -1  -4  12 31.0915 5.34301   5
   0   4 -12 13.8008 3.98393   6
   0   4 -12 17.7430 6.11451   5
   0   4 -12 20.5491 3.93707   4
   0   4 -12 19.0494 5.39866   5
   0   4 -12 24.5949 3.79136   2
   0   4 -12 22.0016 2.98337   3
   0   4 -12 31.3948 6.42233   6
   0  -4  12 34.8900 6.09909   5
   0  -4  12 23.1650 4.74571   1
   0  -4  12 33.5897 5.04310   6
   0  -4  12 18.0210 4.40571   5
  -1   4 -12 -0.1174 3.60270   4
  -1   4 -12 2.36518 2.97073   2
  -1   4 -12 -3.5249 4.86265   6
  -1   4 -12 -1.9519 5.07146   5
  -1   4 -12 -7.4605 6.85535   5
  -1   4 -12 1.17181 4.02953   6
  -1   4 -12 -3.2079 2.64213   3
   1  -4  12 8.33147 4.68955   6
   1  -4  12 1.08913 3.94783   4
   1  -4  12 -11.988 5.77007   5
   1  -4  12 -10.001 7.26518   5
   1  -4  12 2.33718 4.43042   1
  -2   4 -12 17.4654 4.39929   4
  -2   4 -12 24.2627 5.33458   6
  -2   4 -12 26.8425 3.74542   3
   2  -4  12 14.0026 5.35469   5
   2  -4  12 24.9117 5.21597   1
   2  -4  12 21.9361 5.72028   6
   2  -4  12 23.3111 10.8455   5
   2  -4  12 10.7880 4.42050   4
  -3   4 -12 12.0668 4.56667   4
  -3   4 -12 12.9192 4.95926   6
   3  -4  12 18.0296 6.48008   5
   3  -4  12 17.9196 5.49990   1
   5   3 -12 14.2904 6.11614   5
   5   3 -12 6.20261 4.81296   4
  -5  -3  12 19.9863 5.95861   1
   4   3 -12 39.1065 6.05734   5
   4   3 -12 24.8730 4.30633   4
  -4  -3  12 20.0000 5.25629   1
   3   3 -12 7.08355 4.07197   6
   3   3 -12 10.7398 6.29598   6
   3   3 -12 4.10536 3.33325   4
   3   3 -12 4.94179 4.99472   5
  -3  -3  12 1.98071 4.39636   5
  -3  -3  12 -2.4532 3.97362   6
  -3  -3  12 -2.3916 4.25479   1
   2   3 -12 16.9393 3.42047   4
   2   3 -12 22.3076 6.28083   5
   2   3 -12 15.4465 3.71329   6
   2   3 -12 19.9345 3.56567   2
   2   3 -12 21.0219 5.66609   6
  -2  -3  12 23.6948 4.67051   5
  -2  -3  12 15.6806 4.52297   5
  -2  -3  12 19.6787 4.27141   1
  -2  -3  12 19.1328 4.13982   6
   1   3 -12 -4.4244 5.24571   5
   1   3 -12 4.15175 4.24662   5
   1   3 -12 2.80091 3.09219   4
   1   3 -12 -0.4117 2.80438   2
   1   3 -12 0.10714 2.13597   3
   1   3 -12 -5.2855 3.37781   6
   1   3 -12 -1.7671 4.37946   6
  -1  -3  12 -2.0920 3.60693   4
  -1  -3  12 0.53932 3.76204   1
  -1  -3  12 -0.6253 4.72806   5
  -1  -3  12 -3.0504 4.93271   6
  -1  -3  12 -0.1335 3.63190   5
   0   3 -12 9.13392 3.12903   4
   0   3 -12 9.43328 3.15291   2
   0   3 -12 11.4390 2.47816   3
   0   3 -12 10.2382 4.43522   5
   0   3 -12 14.9290 4.73128   6
   0   3 -12 9.15255 5.64671   5
   0  -3  12 14.8701 5.37894   5
   0  -3  12 7.01133 3.97419   1
   0  -3  12 13.0133 3.96586   6
   0  -3  12 10.0047 3.83556   4
   0  -3  12 10.9844 4.16160   5
  -1   3 -12 4.01281 2.56409   3
  -1   3 -12 3.13669 3.16076   4
  -1   3 -12 3.60361 2.92185   2
  -1   3 -12 4.95790 5.05916   6
  -1   3 -12 3.77923 5.85037   5
  -1   3 -12 0.35276 3.89656   6
   1  -3  12 0.63016 5.37217   5
   1  -3  12 0.17572 4.57069   5
   1  -3  12 6.61165 4.21384   1
   1  -3  12 8.04461 3.65781   4
   1  -3  12 4.68713 4.16255   6
  -2   3 -12 57.7522 6.13749   5
  -2   3 -12 86.1385 9.23697   6
  -2   3 -12 67.8081 6.59401   4
  -2   3 -12 75.0374 6.28185   6
  -2   3 -12 70.2173 5.41865   2
   2  -3  12 65.3718 6.13537   6
   2  -3  12 80.8935 6.57060   1
   2  -3  12 62.0971 6.54548   4
   2  -3  12 88.3877 7.78931   5
   2  -3  12 74.8952 6.70222   5
  -3   3 -12 54.2386 4.93051   4
  -3   3 -12 58.0656 5.98339   6
   3  -3  12 49.6517 5.18252   4
   3  -3  12 46.2949 6.27610   5
   3  -3  12 39.9549 5.78607   1
   5   2 -12 24.1940 5.76923   5
   5   2 -12 25.3653 4.63616   4
  -5  -2  12 18.8031 5.51376   1
   4   2 -12 30.6718 4.81588   6
   4   2 -12 31.8349 5.56781   5
   4   2 -12 19.5488 3.98120   4
  -4  -2  12 23.0939 4.88245   1
   3   2 -12 17.7160 4.78078   5
   3   2 -12 17.5441 5.99880   5
   3   2 -12 30.5499 6.05461   6
   3   2 -12 18.1365 3.83346   2
   3   2 -12 19.2756 3.95945   6
   3   2 -12 21.8880 3.38793   4
  -3  -2  12 20.5936 4.49700   5
  -3  -2  12 27.6294 4.07281   6
  -3  -2  12 20.1995 4.42268   1
   2   2 -12 82.7475 5.59552   4
   2   2 -12 85.9602 8.92247   5
   2   2 -12 74.1767 5.61952   2
   2   2 -12 78.5856 7.98357   5
   2   2 -12 83.9416 7.14150   6
   2   2 -12 90.4673 6.98136   6
  -2  -2  12 82.5145 6.82849   6
  -2  -2  12 91.0167 7.50890   5
  -2  -2  12 84.2238 7.13678   1
  -2  -2  12 76.6779 7.58568   4
  -2  -2  12 79.9300 7.87058   5
   1   2 -12 22.6281 3.54817   2
   1   2 -12 33.9385 5.33612   5
   1   2 -12 34.3619 3.47849   4
   1   2 -12 23.0392 3.88319   6
   1   2 -12 26.8247 4.51902   5
   1   2 -12 17.1879 4.11992   6
  -1  -2  12 30.4126 4.10714   4
  -1  -2  12 29.9650 4.94236   6
  -1  -2  12 24.9803 4.18502   5
  -1  -2  12 39.1032 4.78300   5
  -1  -2  12 31.9978 4.58549   1
   0   2 -12 26.0696 3.23631   4
   0   2 -12 21.6672 5.52287   5
   0   2 -12 22.6036 2.59710   3
   0   2 -12 21.6744 3.42609   2
   0   2 -12 19.7286 5.52338   6
   0   2 -12 26.1454 4.40473   5
   0   2 -12 20.8478 4.27991   6
   0  -2  12 24.4493 4.19704   1
   0  -2  12 21.4563 3.42097   4
   0  -2  12 32.0259 4.86703   5
   0  -2  12 21.1523 4.43482   5
   0  -2  12 22.2813 4.20165   6
  -1   2 -12 21.4942 3.89420   6
  -1   2 -12 30.7873 5.88827   5
  -1   2 -12 33.0314 3.57218   4
  -1   2 -12 40.5427 3.87900   2
  -1   2 -12 38.7155 5.10493   6
  -1   2 -12 24.8434 4.44702   5
   1  -2  12 30.8723 3.67220   4
   1  -2  12 43.6968 5.81281   5
   1  -2  12 37.5308 5.24955   5
   1  -2  12 35.7780 4.95181   1
   1  -2  12 38.1634 4.73759   6
  -2   2 -12 1.88809 4.25740   6
  -2   2 -12 -2.6991 2.71067   2
  -2   2 -12 -4.0775 3.76298   6
  -2   2 -12 -2.8102 2.91054   4
   2  -2  12 -1.0930 3.33252   4
   2  -2  12 -0.1804 4.46570   6
   2  -2  12 -0.8998 4.23680   5
   2  -2  12 -2.3112 5.85951   5
   2  -2  12 1.52784 4.40533   1
  -3   2 -12 8.97901 3.34844   2
  -3   2 -12 5.54722 3.43990   4
  -3   2 -12 8.74384 4.13524   6
   3  -2  12 10.4101 3.81587   4
   3  -2  12 8.03858 4.91418   5
   3  -2  12 10.2058 5.16090   1
  -4   2 -12 24.0520 6.73269   4
  -4   2 -12 11.4773 4.47153   6
   4  -2  12 30.3256 6.55677   1
   4  -2  12 25.2571 6.21141   5
   5   1 -12 0.61743 4.89513   5
   5   1 -12 -0.1737 3.55459   4
  -5  -1  12 -0.3609 4.51014   1
   4   1 -12 16.8160 5.95446   5
   4   1 -12 13.7269 3.98613   2
   4   1 -12 18.1692 4.77457   5
   4   1 -12 9.40180 5.10349   6
   4   1 -12 16.3049 3.63022   4
   4   1 -12 9.46226 3.75310   6
  -4  -1  12 6.91713 3.87444   5
  -4  -1  12 19.1979 4.55616   1
  -4  -1  12 10.3893 3.82817   6
   3   1 -12 34.9370 5.19939   6
   3   1 -12 31.6380 3.99624   2
   3   1 -12 40.6464 4.34871   6
   3   1 -12 40.5696 7.70926   5
   3   1 -12 33.5324 4.87816   5
   3   1 -12 39.9039 3.82429   4
  -3  -1  12 42.7437 4.72956   5
  -3  -1  12 38.1344 4.18983   6
  -3  -1  12 28.6722 4.18778   1
  -3  -1  12 28.4935 4.79048   5
   2   1 -12 24.1315 4.98313   6
   2   1 -12 19.7435 5.53259   1
   2   1 -12 17.5599 3.47403   2
   2   1 -12 19.9723 4.60157   5
   2   1 -12 19.5953 3.81838   6
   2   1 -12 20.0509 2.99305   4
   2   1 -12 13.4039 4.49182   5
  -2  -1  12 14.9162 3.43660   5
  -2  -1  12 22.1993 4.09014   1
  -2  -1  12 14.5549 4.42375   5
  -2  -1  12 11.8147 3.58594   6
   1   1 -12 14.0647 4.18311   6
   1   1 -12 6.59193 4.49925   5
   1   1 -12 9.55343 3.42769   6
   1   1 -12 16.2140 4.28192   5
   1   1 -12 7.61986 2.83212   2
   1   1 -12 -1.4559 7.06841   1
  -1  -1  12 17.7665 4.21107   5
  -1  -1  12 8.85689 3.99058   6
  -1  -1  12 12.6035 3.76065   1
  -1  -1  12 8.16145 3.31107   5
  -1  -1  12 10.4883 3.57984   6
   0   1 -12 1.67903 2.76353   2
   0   1 -12 3.03381 4.69885   5
   0   1 -12 2.80443 2.39691   4
   0   1 -12 3.05034 4.55785   6
   0   1 -12 5.97569 3.58542   6
   0   1 -12 3.94633 3.83630   5
   0   1 -12 0.59276 2.02502   3
   0  -1  12 2.75800 2.95398   4
   0  -1  12 4.33598 3.71208   6
   0  -1  12 -0.4458 3.46517   5
   0  -1  12 0.52367 3.37056   5
   0  -1  12 5.49962 3.99475   6
   0  -1  12 2.34317 3.40753   1
  -1   1 -12 2.56294 3.58877   6
  -1   1 -12 11.8874 5.14039   5
  -1   1 -12 1.27374 2.44428   4
  -1   1 -12 7.44423 3.77334   5
  -1   1 -12 6.17626 3.01601   2
  -1   1 -12 2.63904 3.35926   6
   1  -1  12 6.51811 3.68696   6
   1  -1  12 7.60808 3.90744   1
   1  -1  12 3.45125 4.15563   5
   1  -1  12 3.68653 3.67786   6
   1  -1  12 -2.8126 4.22076   5
   1  -1  12 4.75588 2.74206   4
  -2   1 -12 7.68468 2.77126   4
  -2   1 -12 9.34194 4.41492   6
  -2   1 -12 3.57310 3.50356   6
  -2   1 -12 7.19967 3.06008   2
  -2   1 -12 9.58675 4.19838   5
   2  -1  12 8.07122 4.30976   6
   2  -1  12 5.61648 4.36763   1
   2  -1  12 -1.1660 2.88681   4
   2  -1  12 1.29154 4.21165   5
   2  -1  12 1.04503 4.52639   5
  -3   1 -12 34.8605 3.44835   4
  -3   1 -12 29.1559 4.67032   6
  -3   1 -12 34.6756 3.79539   2
   3  -1  12 30.0587 5.38392   1
   3  -1  12 19.9741 4.38527   5
  -4   1 -12 39.4639 5.16927   6
   4  -1  12 61.1161 7.77536   1
   4  -1  12 38.7489 5.64428   5
   6   0 -12 7.56577 5.47765   5
   6   0 -12 6.49391 3.88587   2
   6   0 -12 13.5391 4.60121   4
  -6   0  12 14.2564 3.78554   3
  -6   0  12 8.32434 5.00192   1
   5   0 -12 3.60151 4.44173   5
   5   0 -12 3.75664 3.68837   4
   5   0 -12 -1.6535 4.13873   2
  -5   0  12 3.28581 4.42041   1
  -5   0  12 0.89474 2.70707   3
   4   0 -12 32.4310 3.62731   4
   4   0 -12 28.0180 5.34288   6
   4   0 -12 41.1364 6.12439   5
   4   0 -12 24.9009 5.14260   1
   4   0 -12 38.7992 4.58271   2
   4   0 -12 38.5797 4.49869   6
   4   0 -12 44.5900 5.34082   5
  -4   0  12 36.2458 3.89493   3
  -4   0  12 33.5756 4.39543   1
  -4   0  12 33.3769 4.42426   5
  -4   0  12 35.0004 5.45840   6
  -4   0  12 28.5868 4.35137   6
   3   0 -12 20.1859 3.63583   6
   3   0 -12 28.0921 5.11814   1
   3   0 -12 25.0510 3.91675   2
   3   0 -12 31.9843 5.03493   5
   3   0 -12 29.1325 3.31795   4
   3   0 -12 30.1509 6.17904   5
   3   0 -12 16.5259 4.18846   6
  -3   0  12 24.5792 4.84465   6
  -3   0  12 29.5940 4.30591   5
  -3   0  12 26.1139 4.19424   1
  -3   0  12 26.8107 4.12963   6
  -3   0  12 35.1239 5.41433   5
   2   0 -12 32.3631 4.49304   5
   2   0 -12 29.0425 4.68076   5
   2   0 -12 38.5180 5.12041   6
   2   0 -12 33.3044 3.99027   2
   2   0 -12 19.9398 4.55712   1
   2   0 -12 37.8756 3.34585   4
   2   0 -12 38.8830 4.23424   6
  -2   0  12 39.3765 4.37426   1
  -2   0  12 36.0143 5.54560   6
  -2   0  12 26.0687 3.61962   6
  -2   0  12 34.8878 4.57055   5
  -2   0  12 27.9969 3.67088   5
   1   0 -12 73.8606 6.88510   5
   1   0 -12 64.1761 5.22036   2
   1   0 -12 63.0834 4.58026   4
   1   0 -12 78.6861 7.86774   6
   1   0 -12 68.9459 6.31763   6
   1   0 -12 66.1859 5.88280   1
   1   0 -12 74.2377 7.88487   5
  -1   0  12 65.5547 6.93481   5
  -1   0  12 57.2739 4.80343   1
  -1   0  12 68.2321 6.21074   6
  -1   0  12 66.2587 6.67574   5
  -1   0  12 78.2807 7.80711   6
   0   0 -12 39.5234 4.03063   2
   0   0 -12 40.1866 5.60115   5
   0   0 -12 39.6509 4.55472   5
   0   0 -12 44.4015 6.26224   6
   0   0 -12 45.5563 4.30821   3
   0   0 -12 34.5934 4.90298   6
   0   0 -12 43.9647 4.05050   4
   0   0  12 44.9367 4.93720   5
   0   0  12 33.7360 4.02046   6
   0   0  12 39.1887 5.08767   6
   0   0  12 47.4267 5.08303   5
   0   0  12 38.8363 4.45010   1
  -1   0 -12 19.1299 3.24355   2
  -1   0 -12 11.4698 3.61214   5
  -1   0 -12 16.0089 3.64294   6
  -1   0 -12 17.1326 4.51019   6
  -1   0 -12 20.9364 2.51663   4
  -1   0 -12 12.9975 5.21915   5
   1   0  12 22.9293 4.53371   1
   1   0  12 10.6723 4.36204   6
   1   0  12 14.7875 4.59556   5
   1   0  12 24.6867 5.22644   5
   1   0  12 13.6038 4.03890   6
  -2   0 -12 26.6630 2.76233   4
  -2   0 -12 26.0082 5.19354   6
  -2   0 -12 29.3539 6.10768   5
  -2   0 -12 28.2804 3.62165   2
  -2   0 -12 28.4759 4.47890   6
   2   0  12 23.1316 4.85299   5
   2   0  12 25.4207 5.59336   5
   2   0  12 24.8085 4.73268   6
   2   0  12 34.9140 5.16078   1
   2   0  12 36.9187 5.57929   6
  -3   0 -12 -0.9503 3.87633   6
  -3   0 -12 -1.7912 3.03025   2
   3   0  12 6.87559 4.79665   5
   3   0  12 3.84098 5.11116   1
  -4   0 -12 3.06782 3.64757   2
   4   0  12 -1.2589 5.10484   5
   6  -1 -12 16.9603 5.32984   5
   6  -1 -12 -1.9705 3.14744   2
   6  -1 -12 7.29504 4.31414   4
  -6   1  12 0.34689 4.54568   1
  -6   1  12 1.54622 3.52268   3
   5  -1 -12 8.65102 3.64983   4
   5  -1 -12 0.71881 4.50801   5
   5  -1 -12 0.19814 2.87720   2
   5  -1 -12 9.37532 5.26646   1
  -5   1  12 3.62633 2.95478   3
  -5   1  12 -1.3764 4.85771   6
  -5   1  12 3.44934 4.29905   1
   4  -1 -12 3.06752 4.38172   5
   4  -1 -12 -2.4844 2.99885   6
   4  -1 -12 4.23721 4.21318   1
   4  -1 -12 -4.2726 4.33193   6
   4  -1 -12 -0.3085 2.78706   4
   4  -1 -12 4.41684 5.65821   5
   4  -1 -12 0.42793 2.86816   2
  -4   1  12 -4.2541 3.57981   1
  -4   1  12 2.39175 3.78908   6
  -4   1  12 0.36288 2.81969   3
  -4   1  12 1.59212 4.04091   6
  -4   1  12 -2.6452 4.07981   5
   3  -1 -12 4.29811 4.40283   1
   3  -1 -12 2.75133 4.02317   6
   3  -1 -12 4.75356 3.22152   2
   3  -1 -12 2.22735 2.87312   6
   3  -1 -12 5.77279 4.86393   5
   3  -1 -12 4.43149 2.55808   4
  -3   1  12 3.22574 4.36032   5
  -3   1  12 6.62577 3.98342   5
  -3   1  12 1.92963 3.53806   1
  -3   1  12 1.78546 3.81740   6
  -3   1  12 8.70155 3.60938   6
  -3   1  12 -0.2291 2.66864   3
   2  -1 -12 41.4694 4.31231   6
   2  -1 -12 47.8044 5.15285   5
   2  -1 -12 46.8073 5.55042   5
   2  -1 -12 29.7257 5.12082   1
   2  -1 -12 34.7723 5.12580   6
   2  -1 -12 32.7452 3.93017   2
   2  -1 -12 36.4613 3.12647   4
  -2   1  12 33.4022 7.69385   6
  -2   1  12 35.8017 4.16941   1
  -2   1  12 49.6636 4.92603   6
  -2   1  12 36.5842 5.03846   5
  -2   1  12 27.4867 4.22436   5
   1  -1 -12 39.8229 2.93482   4
   1  -1 -12 31.8285 3.82144   6
   1  -1 -12 43.2546 5.06695   1
   1  -1 -12 41.0032 4.17400   2
   1  -1 -12 30.7605 4.63802   6
   1  -1 -12 40.4814 4.60589   5
   1  -1 -12 47.5654 5.37424   5
  -1   1  12 26.6392 4.25388   5
  -1   1  12 45.3435 5.13190   6
  -1   1  12 41.0339 5.25417   5
  -1   1  12 25.4755 3.79836   6
  -1   1  12 40.5964 4.23858   1
   0  -1 -12 0.10264 3.66459   6
   0  -1 -12 2.48058 1.95645   4
   0  -1 -12 1.66207 2.81921   2
   0  -1 -12 -2.5759 3.58660   5
   0  -1 -12 3.30877 3.00230   6
   0  -1 -12 1.62794 4.44295   5
   0   1  12 4.19092 3.85615   5
   0   1  12 -0.7749 3.19740   6
   0   1  12 7.37227 4.23848   6
   0   1  12 2.03483 3.63509   1
   0   1  12 4.21717 3.70089   5
  -1  -1 -12 6.74428 3.64363   5
  -1  -1 -12 3.89803 6.52941   5
  -1  -1 -12 2.85693 2.80919   2
  -1  -1 -12 7.28459 4.05815   6
  -1  -1 -12 6.75376 2.01398   4
  -1  -1 -12 1.31435 3.34976   6
   1   1  12 7.24686 4.56675   5
   1   1  12 0.88175 4.10622   1
   1   1  12 11.2712 4.46898   6
   1   1  12 6.21560 3.48794   6
   1   1  12 -3.7601 5.52233   5
  -2  -1 -12 -9.8301 6.69600   6
  -2  -1 -12 0.25618 1.67777   4
  -2  -1 -12 4.88396 3.79326   6
  -2  -1 -12 -1.3144 3.51298   5
  -2  -1 -12 0.31072 3.01189   2
   2   1  12 3.18542 4.44971   6
   2   1  12 1.22261 4.53327   5
   2   1  12 -4.4570 4.66582   5
   2   1  12 6.22487 4.43611   1
  -3  -1 -12 0.83249 3.78416   6
  -3  -1 -12 2.53913 3.33470   2
   3   1  12 11.7804 5.42494   1
   3   1  12 4.86027 4.97163   5
   5  -2 -12 9.42260 5.58151   1
   5  -2 -12 0.14448 4.92023   5
   5  -2 -12 6.88433 3.77012   4
   5  -2 -12 8.21232 3.68338   2
  -5   2  12 5.47860 3.04748   3
  -5   2  12 9.36854 4.01265   1
  -5   2  12 11.5199 5.16212   6
   4  -2 -12 3.65326 4.68713   5
   4  -2 -12 5.00921 5.55359   6
   4  -2 -12 2.13769 4.63209   1
   4  -2 -12 1.25942 3.06873   2
   4  -2 -12 2.89138 3.07002   4
   4  -2 -12 0.70894 3.39025   6
  -4   2  12 2.38437 2.93247   3
  -4   2  12 7.87286 3.74321   1
  -4   2  12 4.46979 6.10332   6
  -4   2  12 2.60104 5.10551   6
  -4   2  12 0.90832 4.56551   5
   3  -2 -12 41.5494 4.69242   2
   3  -2 -12 25.8107 5.09582   1
   3  -2 -12 39.2587 4.45530   6
   3  -2 -12 36.7884 3.45896   4
   3  -2 -12 44.0145 6.86245   5
   3  -2 -12 41.9248 6.17646   6
  -3   2  12 24.9291 5.18944   6
  -3   2  12 28.4568 4.64475   5
  -3   2  12 28.2734 4.15900   1
  -3   2  12 32.7787 3.62810   3
  -3   2  12 21.3536 4.71165   5
  -3   2  12 33.4581 4.67049   6
   2  -2 -12 10.5019 3.32495   2
   2  -2 -12 14.0404 4.61310   1
   2  -2 -12 14.6404 3.70239   6
   2  -2 -12 26.1720 5.77602   5
   2  -2 -12 15.4095 5.12294   6
   2  -2 -12 15.0958 2.51222   4
   2  -2 -12 12.8013 4.53536   5
  -2   2  12 10.5580 4.87769   6
  -2   2  12 12.4721 5.03153   5
  -2   2  12 16.8535 4.40663   5
  -2   2  12 11.9724 3.85855   1
  -2   2  12 12.1107 2.82737   3
   1  -2 -12 23.0705 4.73638   6
   1  -2 -12 29.3373 5.70193   5
   1  -2 -12 33.2659 2.61112   4
   1  -2 -12 27.9673 3.56858   6
   1  -2 -12 26.3763 4.24757   5
   1  -2 -12 22.1871 4.90157   1
   1  -2 -12 33.0318 4.13231   2
  -1   2  12 29.9680 5.45397   6
  -1   2  12 29.0292 4.98087   5
  -1   2  12 26.3424 4.26064   1
  -1   2  12 27.3039 4.33217   5
  -1   2  12 28.6771 4.31822   6
   0  -2 -12 66.9561 5.59165   5
   0  -2 -12 55.5726 4.79033   6
   0  -2 -12 51.5329 5.24791   2
   0  -2 -12 55.6235 6.75882   5
   0  -2 -12 56.0301 6.22316   6
   0  -2 -12 53.3643 3.52839   4
   0   2  12 43.9080 5.41857   6
   0   2  12 48.4082 4.89712   1
   0   2  12 43.6865 5.21952   5
   0   2  12 62.5363 6.20280   5
   0   2  12 59.2018 5.58372   6
  -1  -2 -12 32.4292 2.78042   4
  -1  -2 -12 31.0992 3.95199   2
  -1  -2 -12 34.1552 2.59790   4
  -1  -2 -12 31.9306 4.19888   6
  -1  -2 -12 29.1023 4.48342   5
  -1  -2 -12 36.3229 5.70470   6
   1   2  12 21.3137 5.34531   5
   1   2  12 42.1909 5.34330   1
   1   2  12 32.0172 5.23251   6
   1   2  12 40.7139 5.46844   6
   1   2  12 21.9958 4.68935   5
  -2  -2 -12 11.2083 3.54488   2
  -2  -2 -12 7.08258 3.71218   6
   2   2  12 6.21405 6.02499   6
   2   2  12 22.1734 5.27183   1
   2   2  12 13.7774 5.40857   5
  -3  -2 -12 13.2354 3.69001   2
  -3  -2 -12 18.4513 4.29895   6
   3   2  12 19.3556 5.72905   5
   3   2  12 -1.9915 5.35815   1
   5  -3 -12 7.63223 3.74959   2
   5  -3 -12 7.32452 5.43462   5
   5  -3 -12 2.68016 3.69868   4
  -5   3  12 3.29550 3.34575   3
  -5   3  12 8.57927 5.56745   6
  -5   3  12 4.62486 3.94860   1
   4  -3 -12 -14.933 5.94327   6
   4  -3 -12 5.83674 5.09926   1
   4  -3 -12 3.08085 5.28857   4
   4  -3 -12 -2.1223 4.86699   5
   4  -3 -12 -0.5985 3.64071   6
   4  -3 -12 -3.9176 3.02580   4
  -4   3  12 -2.6947 3.71039   1
  -4   3  12 -0.6660 3.17245   3
  -4   3  12 -5.3946 4.93054   6
   3  -3 -12 -3.6497 5.43308   6
   3  -3 -12 -1.2559 2.44934   4
   3  -3 -12 -2.5504 6.60497   5
   3  -3 -12 -3.6589 3.96453   4
   3  -3 -12 2.62481 3.32022   2
   3  -3 -12 -1.0979 3.60305   6
   3  -3 -12 -2.5122 4.23991   1
   3  -3 -12 0.89416 5.15611   5
  -3   3  12 5.73889 10.1269   5
  -3   3  12 5.61663 4.65227   5
  -3   3  12 1.02398 2.86350   3
  -3   3  12 1.55598 4.48746   6
  -3   3  12 0.31001 4.74893   6
  -3   3  12 2.34003 3.63298   1
   2  -3 -12 -0.1576 3.14211   4
   2  -3 -12 -0.9797 5.45326   5
   2  -3 -12 -1.5313 2.96032   2
   2  -3 -12 -0.0598 4.44117   1
   2  -3 -12 4.81840 5.07111   6
   2  -3 -12 0.38972 2.16232   4
   2  -3 -12 2.03828 3.47181   6
   2  -3 -12 -2.4499 4.23128   5
  -2   3  12 3.21319 4.57481   6
  -2   3  12 -3.6303 4.47228   5
  -2   3  12 -1.7119 3.75997   1
  -2   3  12 -4.9102 4.42399   6
  -2   3  12 -6.0421 4.28790   5
  -2   3  12 -3.3666 2.64304   3
   1  -3 -12 34.6571 4.93333   5
   1  -3 -12 25.8505 4.28975   6
   1  -3 -12 28.3546 3.15733   4
   1  -3 -12 18.7302 5.28215   6
   1  -3 -12 27.3092 4.05224   2
   1  -3 -12 32.7908 6.33321   5
   1  -3 -12 29.4528 2.37297   4
   1  -3 -12 19.7843 5.74057   1
  -1   3  12 35.6921 5.38526   6
  -1   3  12 22.9781 5.24589   6
  -1   3  12 32.1436 3.54189   3
  -1   3  12 25.3433 4.93067   5
  -1   3  12 26.6062 4.86703   5
  -1   3  12 27.6300 4.48138   1
   0  -3 -12 49.6933 3.61864   4
   0  -3 -12 53.5234 10.4727   5
   0  -3 -12 57.9873 5.55862   5
   0  -3 -12 59.4458 5.21490   6
   0  -3 -12 51.8339 5.60757   2
   0  -3 -12 62.6376 6.79219   6
   0  -3 -12 51.0971 3.02029   4
   0   3  12 42.0211 5.42214   6
   0   3  12 56.6515 5.35160   1
   0   3  12 56.5425 7.13796   5
   0   3  12 53.5113 5.91209   5
   0   3  12 49.3050 5.58465   6
  -1  -3 -12 2.11616 3.45984   6
  -1  -3 -12 2.68944 3.08484   2
   1   3  12 -2.2005 4.65961   5
   1   3  12 -5.5226 5.31879   6
   1   3  12 -0.9027 4.46291   6
   1   3  12 11.2292 8.04054   5
   1   3  12 5.88003 4.76305   1
  -2  -3 -12 4.30664 3.73010   6
  -2  -3 -12 7.47646 3.51423   2
   2   3  12 7.96721 5.52760   1
   2   3  12 5.89845 5.62006   5
   5  -4 -12 37.8966 6.88597   5
   5  -4 -12 35.2870 4.42264   4
   5  -4 -12 26.4949 4.30015   2
  -5   4  12 30.4210 6.88981   6
  -5   4  12 35.9248 4.84487   1
   4  -4 -12 6.11796 5.48996   1
   4  -4 -12 7.34608 3.14776   4
   4  -4 -12 -4.1528 5.37356   4
   4  -4 -12 -3.0983 5.31878   5
   4  -4 -12 -5.2911 4.96006   6
   4  -4 -12 0.85286 3.36436   2
  -4   4  12 3.01073 5.50240   6
  -4   4  12 -1.5647 3.02237   3
  -4   4  12 3.52194 3.84559   1
   3  -4 -12 -2.7322 5.00241   5
   3  -4 -12 5.71091 4.67812   2
   3  -4 -12 2.27446 3.94015   6
   3  -4 -12 9.00903 8.44453   5
   3  -4 -12 2.20577 6.72745   6
   3  -4 -12 2.41051 4.11252   4
   3  -4 -12 -3.4621 4.95581   1
  -3   4  12 6.15651 3.85376   1
  -3   4  12 -4.5003 5.22211   5
  -3   4  12 5.44715 3.03441   3
  -3   4  12 3.87032 5.10669   6
   2  -4 -12 23.8779 7.62536   5
   2  -4 -12 17.4052 3.69573   4
   2  -4 -12 22.3795 5.06407   5
   2  -4 -12 24.1604 6.92210   6
   2  -4 -12 20.5693 2.61753   4
   2  -4 -12 19.8955 5.53762   1
   2  -4 -12 17.8459 4.01688   2
   2  -4 -12 14.9686 4.66314   6
  -2   4  12 22.8373 3.27135   3
  -2   4  12 17.6874 5.86095   6
  -2   4  12 21.1718 4.44225   1
  -2   4  12 23.8068 7.01834   5
  -2   4  12 21.6352 5.38112   6
  -2   4  12 28.6141 5.57520   5
   1  -4 -12 1.76506 4.21116   6
   1  -4 -12 -5.2941 6.19317   6
   1  -4 -12 -2.2232 4.48230   5
   1  -4 -12 0.93579 1.78877   4
   1  -4 -12 -0.0775 3.00433   2
   1  -4 -12 1.47076 6.90217   5
  -1   4  12 6.32514 6.94375   5
  -1   4  12 -2.8941 4.87925   6
  -1   4  12 -0.7910 5.15036   3
  -1   4  12 0.86849 5.65244   6
  -1   4  12 6.22333 5.03128   5
  -1   4  12 -1.9668 4.33570   1
   0  -4 -12 8.86194 3.42952   2
   0  -4 -12 16.4016 6.03905   5
   0  -4 -12 11.9242 4.30157   6
   0   4  12 14.4489 5.79729   5
   0   4  12 19.6237 5.13299   1
   0   4  12 16.9773 6.74830   6
   0   4  12 13.6518 7.37842   5
   0   4  12 0.62303 4.99551   6
  -1  -4 -12 33.2338 4.80379   2
  -1  -4 -12 42.0430 5.27926   6
   1   4  12 36.0427 6.31831   5
   1   4  12 31.3667 5.94250   1
   3  -5 -12 2.69487 7.08637   6
   3  -5 -12 4.77435 5.82353   5
   3  -5 -12 1.09601 3.39514   2
   3  -5 -12 1.72830 3.19020   4
  -3   5  12 17.5135 6.28101   6
  -3   5  12 -1.9240 4.13601   1
  -3   5  12 4.61284 3.07777   3
   2  -5 -12 1.85757 5.37918   5
   2  -5 -12 -5.8937 4.31292   6
   2  -5 -12 -2.8732 7.92903   5
   2  -5 -12 1.13753 3.33646   2
  -2   5  12 -5.5039 5.57045   6
  -2   5  12 -4.4061 3.12074   3
  -2   5  12 -12.679 10.2562   5
  -2   5  12 3.88484 6.00114   5
  -2   5  12 -4.5960 4.45876   1
   1  -5 -12 2.56271 3.25780   2
   1  -5 -12 1.22193 4.65858   6
  -1   5  12 22.0135 9.87341   5
  -1   5  12 2.35654 4.88460   1
  -1   5  12 -3.8659 6.10446   5
  -1   5  12 -3.6812 7.52775   6
  -1   5  12 6.16548 7.61230   6
   0  -5 -12 14.3893 3.67859   2
   0  -5 -12 18.7479 4.98874   6
   0   5  12 19.0658 6.79510   5
   0   5  12 15.0521 5.63153   1
   2   4 -13 28.3920 3.53327   3
   2   4 -13 18.4371 7.10088   6
   2   4 -13 25.6929 4.47738   2
   2   4 -13 30.9536 5.21088   4
   2   4 -13 35.9914 5.96351   6
  -2  -4  13 28.2452 6.08890   1
   1   4 -13 9.08383 4.24457   4
   1   4 -13 4.26602 7.23935   6
   1   4 -13 -7.4625 8.14943   5
   1   4 -13 0.42823 2.60530   3
   1   4 -13 3.51313 3.62583   2
   1   4 -13 5.35916 4.79990   6
  -1  -4  13 6.18329 5.49498   1
   0   4 -13 30.5961 7.28523   5
   0   4 -13 40.2049 4.49074   2
   0   4 -13 40.7342 5.97802   6
   0   4 -13 31.0340 3.61102   3
   0   4 -13 42.6079 5.06799   4
   0  -4  13 34.6957 5.93298   1
   0  -4  13 37.1564 8.48480   5
   0  -4  13 32.0757 5.73059   5
  -1   4 -13 42.3843 4.11970   3
  -1   4 -13 40.5568 4.42464   2
  -1   4 -13 30.0600 5.93258   6
  -1   4 -13 43.8305 5.38508   4
   1  -4  13 25.8446 6.45425   1
   1  -4  13 38.0442 7.20398   5
   1  -4  13 37.4780 7.31069   6
   3   3 -13 1.84452 4.11964   4
   3   3 -13 4.62545 6.07466   5
   3   3 -13 -4.3476 3.43769   2
  -3  -3  13 -7.9244 5.27702   1
   2   3 -13 20.2630 6.88406   6
   2   3 -13 21.5215 4.98945   6
   2   3 -13 27.4651 4.51810   4
   2   3 -13 37.1203 6.29573   5
   2   3 -13 25.8738 9.31112   5
   2   3 -13 27.7913 4.22272   2
  -2  -3  13 32.4765 5.61388   1
   1   3 -13 19.8728 3.15935   3
   1   3 -13 22.3167 3.98585   2
   1   3 -13 26.9982 6.55811   6
   1   3 -13 23.1434 4.17659   4
   1   3 -13 22.0022 7.29811   6
   1   3 -13 29.7338 6.34731   5
   1   3 -13 16.6953 8.32999   5
  -1  -3  13 33.9739 6.04179   5
  -1  -3  13 23.1844 6.36345   5
  -1  -3  13 20.5198 5.43498   1
  -1  -3  13 32.9323 8.87242   6
   0   3 -13 6.33244 3.33091   2
   0   3 -13 -1.8377 2.45889   3
   0   3 -13 7.24290 5.47757   5
   0   3 -13 -2.3230 4.42696   6
   0   3 -13 -9.5371 6.98453   6
   0   3 -13 -3.6838 3.68179   4
   0   3 -13 7.15781 7.40578   5
   0  -3  13 -3.0288 4.99496   6
   0  -3  13 5.33762 5.03580   1
   0  -3  13 -2.8413 7.11761   5
   0  -3  13 -7.0251 5.33327   5
  -1   3 -13 277.568 12.5988   6
  -1   3 -13 278.285 10.1921   2
  -1   3 -13 269.562 10.9925   4
   1  -3  13 281.297 13.1781   6
   1  -3  13 262.490 12.5677   1
   1  -3  13 266.491 13.7777   5
   1  -3  13 266.963 12.0439   4
  -2   3 -13 2.76319 4.18880   4
  -2   3 -13 1.00668 5.36188   6
   2  -3  13 -2.1005 6.16805   5
   2  -3  13 -1.7386 6.02044   1
   2  -3  13 -5.2742 8.23299   4
   4   2 -13 5.65320 4.37380   4
   4   2 -13 8.13975 6.15521   5
   4   2 -13 4.89040 3.68241   2
  -4  -2  13 4.22755 5.46486   1
   3   2 -13 8.20816 5.90255   5
   3   2 -13 17.8711 5.15272   6
   3   2 -13 8.45065 3.65588   2
   3   2 -13 13.3354 3.96094   4
  -3  -2  13 5.76863 4.86660   1
   2   2 -13 80.8094 7.32377   5
   2   2 -13 84.3726 6.76926   4
   2   2 -13 85.1320 8.14269   6
   2   2 -13 70.3533 6.17412   2
   2   2 -13 88.0341 9.02969   5
   2   2 -13 73.5840 8.05317   6
  -2  -2  13 77.4662 6.59789   1
  -2  -2  13 85.5325 7.00327   5
   1   2 -13 43.5584 6.95564   6
   1   2 -13 46.8985 6.09242   5
   1   2 -13 39.6931 4.40410   2
   1   2 -13 39.5329 4.31904   4
   1   2 -13 39.1479 4.16623   3
   1   2 -13 44.1953 8.08846   5
  -1  -2  13 42.8760 5.60269   6
  -1  -2  13 30.7969 5.87935   5
  -1  -2  13 33.3075 5.27113   1
  -1  -2  13 24.3533 4.86776   5
  -1  -2  13 39.1706 5.26445   4
   0   2 -13 5.97212 6.68557   5
   0   2 -13 -2.1388 5.78011   6
   0   2 -13 -2.1278 4.25452   6
   0   2 -13 0.86863 3.19953   2
   0   2 -13 -0.7297 3.27453   4
   0   2 -13 1.38412 2.32742   3
   0   2 -13 -2.0540 4.68563   5
   0  -2  13 -3.4815 4.34430   4
   0  -2  13 -3.0838 5.01510   5
   0  -2  13 1.51037 4.67183   1
   0  -2  13 -2.8905 4.52009   6
   0  -2  13 -8.1454 5.97235   5
  -1   2 -13 34.8691 4.13685   2
  -1   2 -13 22.7279 5.15856   6
  -1   2 -13 31.9478 8.25600   5
  -1   2 -13 31.6186 3.96260   4
   1  -2  13 23.7912 6.99480   5
   1  -2  13 32.1271 4.98071   4
   1  -2  13 23.3414 5.76645   5
   1  -2  13 21.7420 5.61770   6
   1  -2  13 24.8716 5.55044   1
  -2   2 -13 53.2054 5.58612   2
  -2   2 -13 41.3205 5.71788   6
  -2   2 -13 53.8578 4.62660   4
   2  -2  13 36.6504 6.07554   1
   2  -2  13 39.9561 6.29529   5
   4   1 -13 7.09156 3.68896   2
   4   1 -13 2.13211 4.01875   4
   4   1 -13 -0.9855 6.08495   5
  -4  -1  13 0.44976 5.20965   1
   3   1 -13 30.3623 4.00569   4
   3   1 -13 35.5020 6.08217   5
   3   1 -13 28.0070 4.37131   2
   3   1 -13 32.0767 11.2853   5
   3   1 -13 28.0619 4.74556   6
   3   1 -13 38.0050 7.31027   6
  -3  -1  13 19.6062 4.75263   1
   2   1 -13 -1.0592 4.22469   6
   2   1 -13 0.75630 3.25020   2
   2   1 -13 3.22015 7.20561   5
   2   1 -13 4.20121 4.79578   6
   2   1 -13 -2.9015 5.58797   5
   2   1 -13 0.39211 3.14890   4
  -2  -1  13 5.97023 4.50010   6
  -2  -1  13 -0.7336 4.33094   1
  -2  -1  13 7.49843 4.15158   5
  -2  -1  13 10.2313 7.29097   5
   1   1 -13 31.3109 5.48486   6
   1   1 -13 52.5625 5.90393   5
   1   1 -13 44.4703 4.61655   2
   1   1 -13 57.7245 10.1494   5
   1   1 -13 53.5531 4.21052   4
  -1  -1  13 24.7160 4.89049   5
  -1  -1  13 33.4283 4.60212   5
  -1  -1  13 45.7568 5.41261   1
  -1  -1  13 43.9700 4.83048   6
   0   1 -13 36.2937 4.16033   2
   0   1 -13 36.3865 3.78317   4
   0   1 -13 36.8267 4.98358   6
   0   1 -13 33.3847 6.71733   6
   0   1 -13 36.1222 5.83348   5
   0   1 -13 33.7497 6.84076   5
   0  -1  13 32.1538 6.01713   5
   0  -1  13 32.2552 4.96707   1
   0  -1  13 38.0425 5.75073   5
   0  -1  13 37.9329 5.31094   6
  -1   1 -13 2.01072 3.10507   4
  -1   1 -13 1.36220 5.17298   5
  -1   1 -13 6.08614 3.26991   2
  -1   1 -13 -1.5387 4.52777   6
   1  -1  13 3.49783 4.59088   1
   1  -1  13 0.72435 5.57333   5
   1  -1  13 5.41420 4.69530   5
   1  -1  13 2.69692 4.21362   4
   1  -1  13 5.35574 5.35338   6
  -2   1 -13 248.912 9.74912   4
  -2   1 -13 289.195 12.3146   6
  -2   1 -13 248.256 9.78299   2
   2  -1  13 264.890 12.9094   5
   2  -1  13 251.752 12.8403   1
   4   0 -13 78.3666 6.49900   2
   4   0 -13 94.9293 7.93550   5
   4   0 -13 91.4549 7.43888   4
  -4   0  13 91.4006 8.73446   1
   3   0 -13 3.31856 3.30551   4
   3   0 -13 2.70606 3.30622   2
   3   0 -13 9.38241 6.30035   5
   3   0 -13 -1.5190 5.02008   5
   3   0 -13 7.52770 4.06813   6
   3   0 -13 1.56743 5.70830   6
  -3   0  13 1.30420 4.97139   6
  -3   0  13 3.12177 4.38416   1
  -3   0  13 7.48508 6.11350   5
   2   0 -13 18.4354 6.10688   5
   2   0 -13 8.12956 3.51013   2
   2   0 -13 11.5926 4.30746   6
   2   0 -13 10.2153 3.09818   4
   2   0 -13 13.5597 5.01490   5
   2   0 -13 3.90535 4.66914   6
  -2   0  13 2.18025 5.02885   6
  -2   0  13 13.8898 5.24503   5
  -2   0  13 14.9064 4.49069   1
  -2   0  13 3.47202 4.01972   5
  -2   0  13 14.4066 5.04878   6
   1   0 -13 49.9696 5.83298   5
   1   0 -13 34.0586 5.31640   6
   1   0 -13 42.0491 4.49484   2
   1   0 -13 50.6556 5.41984   6
   1   0 -13 45.1334 6.75977   5
   1   0 -13 43.5308 4.53960   4
  -1   0  13 40.7514 6.17820   5
  -1   0  13 49.7485 5.34849   1
  -1   0  13 38.9312 7.19162   6
  -1   0  13 57.4988 5.79868   6
  -1   0  13 43.0205 5.50236   5
   0   0 -13 40.7032 5.51023   5
   0   0 -13 37.1423 4.21721   2
   0   0 -13 40.2591 5.11182   6
   0   0 -13 34.1674 7.07036   5
   0   0  13 36.0808 5.40491   6
   0   0  13 36.7058 6.18373   6
   0   0  13 25.1733 4.52506   5
   0   0  13 27.8763 4.96937   1
   0   0  13 19.6291 4.81465   5
  -1   0 -13 9.83421 2.90118   4
  -1   0 -13 8.96543 3.32678   2
  -1   0 -13 6.93484 4.62947   6
   1   0  13 7.78724 4.91894   6
   1   0  13 8.07855 7.08318   5
   1   0  13 7.16613 5.25149   6
   1   0  13 7.49832 5.24230   5
   1   0  13 7.75350 4.93710   1
  -2   0 -13 13.8433 3.77378   2
  -2   0 -13 15.3238 5.02171   6
   2   0  13 7.46983 5.74056   5
   2   0  13 19.9820 5.96519   1
   4  -1 -13 25.3295 4.38455   2
   4  -1 -13 20.6544 3.95647   4
   4  -1 -13 28.5080 6.06939   5
  -4   1  13 27.1429 6.72745   6
  -4   1  13 17.9714 5.00936   1
  -4   1  13 21.1588 3.83259   3
   3  -1 -13 7.20827 4.19435   6
   3  -1 -13 1.71461 3.24325   2
   3  -1 -13 0.39758 3.26644   4
   3  -1 -13 6.76591 6.52929   6
   3  -1 -13 -1.8567 6.92545   5
   3  -1 -13 0.09819 4.66435   5
  -3   1  13 -0.7185 4.74343   6
  -3   1  13 5.62603 5.71569   5
  -3   1  13 3.51169 4.32898   1
   2  -1 -13 24.7032 6.32406   6
   2  -1 -13 38.9673 5.57501   5
   2  -1 -13 27.1696 4.14215   2
   2  -1 -13 28.6412 7.15827   5
   2  -1 -13 38.8391 4.64251   6
   2  -1 -13 28.9592 3.36244   4
  -2   1  13 28.9359 6.51285   5
  -2   1  13 30.4043 5.31886   6
  -2   1  13 28.6939 4.66482   5
  -2   1  13 19.8885 5.44399   6
  -2   1  13 20.7395 4.68942   1
   1  -1 -13 5.27856 2.56935   4
   1  -1 -13 7.07475 4.14711   6
   1  -1 -13 9.98797 3.46093   2
   1  -1 -13 7.89234 5.06308   6
   1  -1 -13 4.47177 6.19015   5
   1  -1 -13 1.76705 4.39070   5
  -1   1  13 14.2739 4.80491   1
  -1   1  13 10.8040 5.05187   6
  -1   1  13 15.7044 8.78076   6
  -1   1  13 8.81568 6.09505   5
  -1   1  13 12.4324 5.22402   5
   0  -1 -13 42.2671 3.22108   4
   0  -1 -13 44.2094 5.62849   5
   0  -1 -13 39.1821 5.30924   6
   0  -1 -13 41.5322 4.60511   2
   0  -1 -13 41.8744 9.58040   6
   0   1  13 40.0928 6.24277   5
   0   1  13 34.2704 5.45274   6
   0   1  13 26.8932 6.14675   5
   0   1  13 33.3948 5.23686   6
   0   1  13 31.7978 5.42589   1
  -1  -1 -13 29.3768 5.00349   6
  -1  -1 -13 30.3384 4.52771   4
  -1  -1 -13 28.6343 4.20291   2
   1   1  13 25.2885 5.53140   5
   1   1  13 26.7194 5.68837   1
   1   1  13 35.2134 5.76982   6
   1   1  13 22.7617 5.95581   6
  -2  -1 -13 5.05403 4.74840   6
  -2  -1 -13 0.86202 3.64514   2
   2   1  13 0.24073 5.86615   1
   2   1  13 1.37992 5.87591   5
   4  -2 -13 -0.1924 5.82085   5
   4  -2 -13 -0.4226 3.04918   2
   4  -2 -13 4.61153 3.61283   4
  -4   2  13 0.98032 4.61738   1
  -4   2  13 -1.6724 3.15837   3
  -4   2  13 7.40965 5.42792   6
   3  -2 -13 90.9964 6.22201   4
   3  -2 -13 86.0453 7.24821   5
   3  -2 -13 133.220 13.1440   5
   3  -2 -13 75.4320 8.07909   2
   3  -2 -13 104.455 8.12877   6
   3  -2 -13 80.6740 8.05338   6
  -3   2  13 94.2030 10.4068   6
  -3   2  13 105.761 8.79057   1
  -3   2  13 91.9634 5.67732   3
   2  -2 -13 -1.7089 2.99120   4
   2  -2 -13 0.45148 6.22000   6
   2  -2 -13 -6.9984 4.32036   5
   2  -2 -13 -2.4902 3.19403   2
   2  -2 -13 -3.5462 7.30825   5
  -2   2  13 -7.9510 5.07676   5
  -2   2  13 4.37966 6.26552   5
  -2   2  13 -1.0135 5.29030   6
  -2   2  13 4.26166 6.17199   6
  -2   2  13 0.37676 4.24301   1
   1  -2 -13 6.11639 3.41886   2
   1  -2 -13 10.5698 2.55056   4
   1  -2 -13 7.89512 6.31009   6
   1  -2 -13 4.39518 4.32791   6
   1  -2 -13 5.51564 4.90009   5
   1  -2 -13 10.2794 6.94670   5
  -1   2  13 8.25903 5.16268   6
  -1   2  13 1.44064 4.49306   1
  -1   2  13 3.78300 5.17922   5
  -1   2  13 6.68287 5.67961   6
  -1   2  13 9.50066 7.03375   5
   0  -2 -13 12.0200 3.62449   2
   0  -2 -13 17.2712 4.64614   6
   0  -2 -13 14.9618 2.82172   4
   0  -2 -13 6.18547 6.01258   5
   0   2  13 11.1099 4.84974   1
   0   2  13 25.2225 6.18822   6
   0   2  13 11.9345 5.68449   5
   0   2  13 17.1418 6.22143   6
   0   2  13 17.4395 7.72971   5
  -1  -2 -13 23.8724 5.22614   6
  -1  -2 -13 22.2791 3.95543   2
   1   2  13 22.2140 5.81038   1
   1   2  13 27.0054 6.36985   5
   3  -3 -13 35.2797 3.67030   4
   3  -3 -13 30.4222 8.40518   6
   3  -3 -13 20.4475 7.05339   4
   3  -3 -13 45.8743 5.68807   6
   3  -3 -13 25.6487 4.44758   2
   3  -3 -13 30.8154 6.05630   5
  -3   3  13 35.2301 7.24715   6
  -3   3  13 29.1537 5.11467   1
  -3   3  13 36.6641 4.12539   3
   2  -3 -13 4.63430 2.73867   4
   2  -3 -13 16.5194 8.89110   5
   2  -3 -13 -0.5629 3.32333   2
   2  -3 -13 8.15458 4.73098   6
   2  -3 -13 11.7026 5.26805   5
   2  -3 -13 0.78066 8.75806   6
  -2   3  13 -5.0256 5.54479   6
  -2   3  13 -1.3056 3.25026   3
  -2   3  13 5.28138 5.51627   5
  -2   3  13 -4.2098 4.95110   1
   1  -3 -13 33.1810 5.61521   5
   1  -3 -13 28.4496 5.24398   6
  -1   3  13 21.7677 6.05843   6
  -1   3  13 33.7458 7.19539   6
  -1   3  13 20.7654 5.89616   5
  -1   3  13 22.1902 5.37303   1
  -1   3  13 18.3997 7.05557   5
   0  -3 -13 8.31489 4.36438   6
   0  -3 -13 4.57865 5.03563   2
   0   3  13 2.76285 5.75951   6
   0   3  13 -1.6987 5.55324   1
   0   3  13 15.1102 5.52575   5
   0   3  13 8.89275 6.39640   6
  -1  -3 -13 19.3434 5.26928   6
   1   3  13 21.4992 6.06741   1
   2  -4 -13 87.9767 6.80744   2
   2  -4 -13 83.6062 9.96044   5
   2  -4 -13 88.6485 9.25365   6
  -2   4  13 67.0386 6.54544   3
  -2   4  13 56.1554 7.59492   6
  -2   4  13 95.7306 6.90969   1
   1  -4 -13 0.95513 5.02771   6
   1  -4 -13 5.11424 3.77726   2
  -1   4  13 5.84051 7.25832   6
  -1   4  13 3.53221 6.23381   5
  -1   4  13 3.66118 5.67934   1
   1   2 -14 18.8425 3.32635   3
   1   2 -14 19.3192 5.82957   6
   1   2 -14 22.4424 4.47798   4
   1   2 -14 14.5432 7.71720   5
   1   2 -14 10.4082 3.90801   2
   2   1 -14 -0.6263 3.85938   4
   2   1 -14 2.49610 6.33239   5
   2   1 -14 0.35146 5.44460   6
   2   1 -14 2.80561 3.74002   2
  -2  -1  14 2.12391 5.56142   1
   1   1 -14 8.90245 3.05003   3
   1   1 -14 7.23105 4.87951   6
   1   1 -14 10.0330 3.88532   4
   1   1 -14 8.15637 3.94232   2
   1   1 -14 11.6356 6.74570   5
  -1  -1  14 7.50776 5.61958   1
  -1  -1  14 9.86968 7.52048   5
   0   1 -14 6.43169 3.74140   4
   0   1 -14 7.46002 3.76685   2
   0   1 -14 16.9343 5.72738   6
   0  -1  14 11.5511 8.11718   1
   0  -1  14 7.59751 6.40821   5
   2   0 -14 81.1610 7.02596   6
   2   0 -14 100.019 8.52053   5
   2   0 -14 83.4709 6.96674   4
  -2   0  14 73.6168 8.22173   6
  -2   0  14 88.0449 7.27720   1
   1   0 -14 9.68083 9.60087   5
   1   0 -14 -0.5290 3.35421   4
   1   0 -14 0.08111 3.63116   2
   1   0 -14 6.56830 5.40506   6
  -1   0  14 6.61420 5.79207   6
  -1   0  14 11.5398 5.16541   5
  -1   0  14 11.7392 5.53602   1
   0   0 -14 24.0711 5.85089   6
   0   0 -14 28.5019 4.42935   2
   0   0  14 32.1763 6.56075   1
   0   0  14 18.4658 5.07032   5
   0   0  14 18.0212 6.49963   6
   2  -1 -14 9.86992 3.61377   4
   2  -1 -14 20.8762 5.22261   6
   2  -1 -14 17.2901 4.23691   2
   2  -1 -14 22.4582 6.87039   5
  -2   1  14 9.75729 5.50632   1
  -2   1  14 5.51418 6.44994   6
   1  -1 -14 8.21309 5.61374   6
   1  -1 -14 6.77868 3.56699   4
  -1   1  14 1.73137 5.94834   6
  -1   1  14 8.22861 6.60837   5
  -1   1  14 12.5651 5.75304   1
   0   0   0    0.00    0.00   0

 _exptl_absorpt_process_details 'SADABS 2014/4'
 _exptl_absorpt_correction_type   multiscan
 _exptl_absorpt_correction_T_max  0.2118
 _exptl_absorpt_correction_T_min  0.1779
 _exptl_special_details
)
 The following wavelength and cell were deduced by SADABS from the
 direction cosines etc. They are given here for emergency use only:
 CELL 0.71064    6.874    8.042   10.059   92.155   96.714   98.530
)
;
_shelx_hkl_checksum              81590
_shelx_shelxl_version_number     2014/7
_olex2_submission_special_instructions 'No special instructions were received'
loop_
_space_group_symop_operation_xyz
'x, y, z'
'-x, -y, -z'
loop_
_atom_site_label
_atom_site_type_symbol
_atom_site_fract_x
_atom_site_fract_y
_atom_site_fract_z
_atom_site_U_iso_or_equiv
_atom_site_adp_type
_atom_site_occupancy
_atom_site_site_symmetry_order
_atom_site_calc_flag
_atom_site_refinement_flags_posn
Cl1 Cl 1.06757(4) -0.02125(3) 0.79342(3) 0.01491(9) Uani 1 1 d .
O1 O 0.58343(12) 0.26153(11) 0.13528(8) 0.01545(18) Uani 1 1 d .
O2 O 0.36234(13) 0.30070(11) 0.65432(9) 0.01739(19) Uani 1 1 d .
H2 H 0.331(3) 0.327(2) 0.570(2) 0.042(5) Uiso 1 1 d .
N1 N 0.29813(14) 0.36739(12) 0.17666(9) 0.01260(19) Uani 1 1 d .
N2 N 0.30836(14) 0.34875(12) 0.39890(9) 0.01238(19) Uani 1 1 d .
C1 C 0.46999(16) 0.29932(14) 0.21188(11) 0.0120(2) Uani 1 1 d .
C2 C 0.47356(16) 0.28556(13) 0.35873(11) 0.0114(2) Uani 1 1 d .
C3 C 0.21040(16) 0.39394(14) 0.29094(11) 0.0120(2) Uani 1 1 d .
C4 C 0.02395(17) 0.46679(14) 0.28516(12) 0.0147(2) Uani 1 1 d .
H4A H 0.0437 0.5779 0.2477 0.022 Uiso 1 1 calc GR
H4B H -0.0134 0.4781 0.3758 0.022 Uiso 1 1 calc GR
H4C H -0.0817 0.3926 0.2282 0.022 Uiso 1 1 calc GR
C5 C 0.22289(19) 0.39834(16) 0.03993(11) 0.0178(2) Uani 1 1 d .
H5A H 0.3095 0.3606 -0.0220 0.027 Uiso 1 1 calc GR
H5B H 0.2199 0.5191 0.0323 0.027 Uiso 1 1 calc GR
H5C H 0.0885 0.3362 0.0173 0.027 Uiso 1 1 calc GR
C6 C 0.61358(16) 0.21726(14) 0.43378(11) 0.0116(2) Uani 1 1 d .
H6 H 0.714(2) 0.1800(18) 0.3845(15) 0.016(4) Uiso 1 1 d .
C7 C 0.64321(16) 0.18583(14) 0.57590(11) 0.0109(2) Uani 1 1 d .
C8 C 0.52312(17) 0.22356(14) 0.67500(11) 0.0125(2) Uani 1 1 d .
C9 C 0.57268(18) 0.18078(15) 0.80740(11) 0.0150(2) Uani 1 1 d .
H9 H 0.489(2) 0.2080(18) 0.8718(15) 0.016(4) Uiso 1 1 d .
C10 C 0.73739(18) 0.10527(14) 0.84432(11) 0.0142(2) Uani 1 1 d .
H10 H 0.768(2) 0.0783(19) 0.9351(16) 0.018(4) Uiso 1 1 d .
C11 C 0.85681(16) 0.07069(14) 0.74756(11) 0.0127(2) Uani 1 1 d .
C12 C 0.81076(17) 0.10928(14) 0.61644(11) 0.0118(2) Uani 1 1 d .
H12 H 0.894(2) 0.0819(19) 0.5504(15) 0.017(4) Uiso 1 1 d .
loop_
_atom_site_aniso_label
_atom_site_aniso_U_11
_atom_site_aniso_U_22
_atom_site_aniso_U_33
_atom_site_aniso_U_23
_atom_site_aniso_U_13
_atom_site_aniso_U_12
Cl1 0.01405(14) 0.01661(14) 0.01443(14) 0.00291(10) -0.00211(9) 0.00607(10)
O1 0.0145(4) 0.0210(4) 0.0121(4) 0.0017(3) 0.0028(3) 0.0055(3)
O2 0.0167(4) 0.0263(5) 0.0127(4) 0.0055(3) 0.0038(3) 0.0121(3)
N1 0.0121(4) 0.0155(4) 0.0103(4) 0.0022(3) -0.0008(3) 0.0039(4)
N2 0.0116(4) 0.0138(4) 0.0121(4) 0.0016(3) 0.0009(3) 0.0032(3)
C1 0.0117(5) 0.0121(5) 0.0116(5) 0.0025(4) -0.0006(4) 0.0014(4)
C2 0.0114(5) 0.0120(5) 0.0106(5) 0.0011(4) 0.0011(4) 0.0015(4)
C3 0.0116(5) 0.0115(5) 0.0126(5) 0.0011(4) 0.0007(4) 0.0008(4)
C4 0.0126(5) 0.0158(5) 0.0163(5) 0.0014(4) 0.0002(4) 0.0050(4)
C5 0.0200(6) 0.0242(6) 0.0100(5) 0.0028(4) -0.0022(4) 0.0091(5)
C6 0.0117(5) 0.0121(5) 0.0112(5) 0.0012(4) 0.0017(4) 0.0021(4)
C7 0.0117(5) 0.0104(5) 0.0103(5) 0.0021(4) 0.0001(4) 0.0014(4)
C8 0.0125(5) 0.0126(5) 0.0128(5) 0.0011(4) 0.0011(4) 0.0030(4)
C9 0.0170(6) 0.0180(6) 0.0110(5) 0.0019(4) 0.0031(4) 0.0045(4)
C10 0.0161(5) 0.0152(5) 0.0107(5) 0.0024(4) -0.0003(4) 0.0020(4)
C11 0.0126(5) 0.0111(5) 0.0139(5) 0.0019(4) -0.0020(4) 0.0026(4)
C12 0.0128(5) 0.0116(5) 0.0113(5) 0.0008(4) 0.0011(4) 0.0026(4)
loop_
_atom_type_symbol
_atom_type_description
_atom_type_scat_dispersion_real
_atom_type_scat_dispersion_imag
_atom_type_scat_source
C C 0.0033 0.0016 'International Tables Vol C Tables 4.2.6.8 and 6.1.1.4'
H H 0.0000 0.0000 'International Tables Vol C Tables 4.2.6.8 and 6.1.1.4'
Cl Cl 0.1484 0.1585 'International Tables Vol C Tables 4.2.6.8 and 6.1.1.4'
N N 0.0061 0.0033 'International Tables Vol C Tables 4.2.6.8 and 6.1.1.4'
O O 0.0106 0.0060 'International Tables Vol C Tables 4.2.6.8 and 6.1.1.4'
loop_
_geom_angle_atom_site_label_1
_geom_angle_atom_site_label_2
_geom_angle_atom_site_label_3
_geom_angle
C8 O2 H2 115.0(12)
C1 N1 C5 124.34(10)
C3 N1 C1 108.88(9)
C3 N1 C5 126.75(9)
C3 N2 C2 106.69(9)
O1 C1 N1 125.91(10)
O1 C1 C2 131.15(10)
N1 C1 C2 102.94(9)
N2 C2 C1 108.48(9)
C6 C2 N2 128.69(10)
C6 C2 C1 122.80(10)
N1 C3 C4 121.38(10)
N2 C3 N1 113.00(10)
N2 C3 C4 125.62(10)
C3 C4 H4A 109.5
C3 C4 H4B 109.5
C3 C4 H4C 109.5
H4A C4 H4B 109.5
H4A C4 H4C 109.5
H4B C4 H4C 109.5
N1 C5 H5A 109.5
N1 C5 H5B 109.5
N1 C5 H5C 109.5
H5A C5 H5B 109.5
H5A C5 H5C 109.5
H5B C5 H5C 109.5
C2 C6 H6 114.7(9)
C2 C6 C7 132.42(11)
C7 C6 H6 112.9(9)
C8 C7 C6 127.13(10)
C12 C7 C6 115.02(10)
C12 C7 C8 117.86(10)
O2 C8 C7 125.48(10)
O2 C8 C9 115.34(10)
C9 C8 C7 119.18(10)
C8 C9 H9 117.0(9)
C10 C9 C8 121.77(11)
C10 C9 H9 121.2(9)
C9 C10 H10 119.8(9)
C9 C10 C11 119.02(10)
C11 C10 H10 121.1(9)
C10 C11 Cl1 119.49(9)
C12 C11 Cl1 119.93(9)
C12 C11 C10 120.58(10)
C7 C12 H12 119.1(9)
C11 C12 C7 121.57(10)
C11 C12 H12 119.3(9)
loop_
_geom_bond_atom_site_label_1
_geom_bond_atom_site_label_2
_geom_bond_distance
Cl1 C11 1.7454(11)
O1 C1 1.2197(14)
O2 H2 0.89(2)
O2 C8 1.3452(13)
N1 C1 1.3892(14)
N1 C3 1.3830(14)
N1 C5 1.4556(14)
N2 C2 1.4052(14)
N2 C3 1.3024(14)
C1 C2 1.4830(15)
C2 C6 1.3478(15)
C3 C4 1.4825(15)
C4 H4A 0.9800
C4 H4B 0.9800
C4 H4C 0.9800
C5 H5A 0.9800
C5 H5B 0.9800
C5 H5C 0.9800
C6 H6 0.971(15)
C6 C7 1.4572(15)
C7 C8 1.4182(16)
C7 C12 1.4113(15)
C8 C9 1.4041(16)
C9 H9 0.958(15)
C9 C10 1.3827(16)
C10 H10 0.953(16)
C10 C11 1.3903(16)
C11 C12 1.3779(15)
C12 H12 0.964(15)
loop_
_geom_hbond_atom_site_label_D
_geom_hbond_atom_site_label_H
_geom_hbond_atom_site_label_A
_geom_hbond_distance_DH
_geom_hbond_distance_HA
_geom_hbond_distance_DA
_geom_hbond_angle_DHA
O2 H2 N2 0.89(2) 1.73(2) 2.6043(13) 167.0(18)
loop_
_geom_torsion_atom_site_label_1
_geom_torsion_atom_site_label_2
_geom_torsion_atom_site_label_3
_geom_torsion_atom_site_label_4
_geom_torsion
Cl1 C11 C12 C7 -179.10(9)
O1 C1 C2 N2 179.37(12)
O1 C1 C2 C6 -2.52(19)
O2 C8 C9 C10 -178.14(10)
N1 C1 C2 N2 -1.18(11)
N1 C1 C2 C6 176.92(10)
N2 C2 C6 C7 0.0(2)
C1 N1 C3 N2 -0.31(13)
C1 N1 C3 C4 179.69(10)
C1 C2 C6 C7 -177.72(11)
C2 N2 C3 N1 -0.48(13)
C2 N2 C3 C4 179.53(10)
C2 C6 C7 C8 -0.4(2)
C2 C6 C7 C12 179.56(12)
C3 N1 C1 O1 -179.62(11)
C3 N1 C1 C2 0.89(12)
C3 N2 C2 C1 1.03(12)
C3 N2 C2 C6 -176.92(11)
C5 N1 C1 O1 2.45(18)
C5 N1 C1 C2 -177.04(10)
C5 N1 C3 N2 177.56(11)
C5 N1 C3 C4 -2.45(17)
C6 C7 C8 O2 -2.17(19)
C6 C7 C8 C9 178.70(11)
C6 C7 C12 C11 -179.47(10)
C7 C8 C9 C10 1.07(18)
C8 C7 C12 C11 0.48(16)
C8 C9 C10 C11 -0.08(18)
C9 C10 C11 Cl1 178.89(9)
C9 C10 C11 C12 -0.72(17)
C10 C11 C12 C7 0.51(17)
C12 C7 C8 O2 177.88(10)
C12 C7 C8 C9 -1.24(16)
