#------------------------------------------------------------------------------
#$Date: 2019-11-23 13:36:19 +0200 (Sat, 23 Nov 2019) $
#$Revision: 233466 $
#$URL: file:///home/coder/svn-repositories/cod/cif/4/34/88/4348883.cif $
#------------------------------------------------------------------------------
#
# This file is available in the Crystallography Open Database (COD),
# http://www.crystallography.net/
#
# All data on this site have been placed in the public domain by the
# contributors.
#
data_4348883
loop_
_publ_author_name
'Melen, Rebecca L.'
'Less, Robert J.'
'Pask, Christopher M.'
'Rawson, Jeremy M.'
_publ_section_title
;
 Structural Studies of Perfluoroaryldiselenadiazolyl Radicals: Insights
 into Dithiadiazolyl Chemistry.
;
_journal_issue                   22
_journal_name_full               'Inorganic chemistry'
_journal_page_first              11747
_journal_page_last               11759
_journal_paper_doi               10.1021/acs.inorgchem.6b01771
_journal_volume                  55
_journal_year                    2016
_chemical_formula_moiety         'C7 F4 N3 O2 Se2'
_chemical_formula_sum            'C7 F4 N3 O2 Se2'
_chemical_formula_weight         392.02
_space_group_crystal_system      triclinic
_space_group_IT_number           2
_space_group_name_Hall           '-P 1'
_space_group_name_H-M_alt        'P -1'
_atom_sites_solution_hydrogens   none
_atom_sites_solution_primary     direct
_audit_creation_method           SHELXL-2013
_cell_angle_alpha                62.624(7)
_cell_angle_beta                 64.267(9)
_cell_angle_gamma                63.070(9)
_cell_formula_units_Z            4
_cell_length_a                   10.8009(11)
_cell_length_b                   10.8843(16)
_cell_length_c                   11.1355(18)
_cell_measurement_reflns_used    2415
_cell_measurement_temperature    220(2)
_cell_measurement_theta_max      21.96
_cell_measurement_theta_min      3.56
_cell_volume                     993.3(3)
_computing_cell_refinement
;
HKL, DENZO, SCALEPACK
Otwinowski, Z. & Minor, W. (1997). Methods in Enzymology, Vol. 276, Macromolecular
Crystallography, Part A, edited by C. W. Carter Jr & R. M. Sweet, pp. 307-326. 
New York: Academic Press.
;
_computing_data_collection
;
Nonius (1998). COLLECT. Nonius BV, Delft, The Netherlands.
;
_computing_data_reduction
;
HKL, DENZO, SCALEPACK
Otwinowski, Z. & Minor, W. (1997). Methods in Enzymology, Vol. 276, Macromolecular
Crystallography, Part A, edited by C. W. Carter Jr & R. M. Sweet, pp. 307-326. 
New York: Academic Press.
;
_computing_molecular_graphics    SHELXTL
_computing_publication_material  XCIF
_computing_structure_refinement  'SHELXL-2013 (Sheldrick, 2013)'
_computing_structure_solution    SHELXS
_diffrn_ambient_temperature      220(2)
_diffrn_measured_fraction_theta_full 0.981
_diffrn_measured_fraction_theta_max 1.010
_diffrn_measurement_device_type  'Nonius Kappa CCD'
_diffrn_measurement_method       'phi and omega scans'
_diffrn_radiation_type           MoK\a
_diffrn_radiation_wavelength     0.7107
_diffrn_reflns_av_R_equivalents  0.0944
_diffrn_reflns_av_unetI/netI     0.1293
_diffrn_reflns_Laue_measured_fraction_full 0.981
_diffrn_reflns_Laue_measured_fraction_max 1.010
_diffrn_reflns_limit_h_max       12
_diffrn_reflns_limit_h_min       -12
_diffrn_reflns_limit_k_max       12
_diffrn_reflns_limit_k_min       -11
_diffrn_reflns_limit_l_max       13
_diffrn_reflns_limit_l_min       -12
_diffrn_reflns_number            7494
_diffrn_reflns_point_group_measured_fraction_full 0.981
_diffrn_reflns_point_group_measured_fraction_max 1.010
_diffrn_reflns_theta_full        25.241
_diffrn_reflns_theta_max         24.998
_diffrn_reflns_theta_min         3.493
_diffrn_source                   'fine focus sealed tube'
_exptl_absorpt_coefficient_mu    7.503
_exptl_absorpt_correction_T_max  0.466
_exptl_absorpt_correction_T_min  0.466
_exptl_absorpt_correction_type   multi-scan
_exptl_absorpt_process_details   'SORTAV (Blessing, 1995)'
_exptl_crystal_colour            black
_exptl_crystal_density_diffrn    2.622
_exptl_crystal_description       block
_exptl_crystal_F_000             732
_exptl_crystal_size_max          0.120
_exptl_crystal_size_mid          0.120
_exptl_crystal_size_min          0.120
_refine_diff_density_max         3.248
_refine_diff_density_min         -1.535
_refine_diff_density_rms         0.298
_refine_ls_extinction_method     none
_refine_ls_goodness_of_fit_ref   1.106
_refine_ls_hydrogen_treatment    undef
_refine_ls_matrix_type           full
_refine_ls_number_parameters     314
_refine_ls_number_reflns         3404
_refine_ls_number_restraints     0
_refine_ls_restrained_S_all      1.106
_refine_ls_R_factor_all          0.1655
_refine_ls_R_factor_gt           0.1124
_refine_ls_shift/su_max          0.001
_refine_ls_shift/su_mean         0.000
_refine_ls_structure_factor_coef Fsqd
_refine_ls_weighting_details
'w=1/[\s^2^(Fo^2^)+(0.1843P)^2^+33.3056P] where P=(Fo^2^+2Fc^2^)/3'
_refine_ls_weighting_scheme      calc
_refine_ls_wR_factor_gt          0.3156
_refine_ls_wR_factor_ref         0.3642
_reflns_Friedel_coverage         0.000
_reflns_number_gt                2085
_reflns_number_total             3404
_reflns_threshold_expression     'I > 2\s(I)'
_cod_data_source_file            ic6b01771_si_005.cif
_cod_data_source_block           JR0025
_cod_original_cell_volume        993.3(2)
_cod_database_code               4348883
_shelx_space_group_comment
;
The symmetry employed for this shelxl refinement is uniquely defined
by the following loop, which should always be used as a source of
symmetry information in preference to the above space-group names.
They are only intended as comments.
;
_shelx_estimated_absorpt_t_min   0.466
_shelx_estimated_absorpt_t_max   0.466
_shelxl_version_number           2013-3
_shelx_res_file
;
TITL jr0025 in P-1
CELL  0.7107  10.8010  10.8840  11.1350  62.6240  64.2670  63.0700
ZERR    4  0.0011  0.0016  0.0018  0.0065  0.0093  0.0088
LATT  1
SFAC C  N  O  F  Se
UNIT   28  12  8  16   8
TWIN  0.021 0.002 -0.979 0 -1 0 -1.021 -0.002 -0.021
TEMP -53
OMIT -3 50
REM omitted strongly disagreeable reflections with I > 5 sigma
REM OMIT -2 4 0
REM OMIT 0 -5 1
REM OMIT -1 4 1
REM OMIT -1 -4 3
REM OMIT 1 -3 2
REM OMIT 2 -1 1
REM OMIT -3 -5 3
REM OMIT -4 4 3
REM OMIT -4 -4 3
REM OMIT -3 4 3
SIZE 0.12 0.12 0.12
L.S.  10
ACTA
LIST
BOND
FMAP 2
PLAN 10
EADP C10 C20
EADP C26 C22
WGHT    0.184300   33.305599
BASF   0.08545
FVAR       0.27630
MOLE 1
C10   1    0.513618    0.148773    0.736947    11.00000    0.04602    0.01172 =
         0.03011    0.00480    0.00335   -0.01116
SE11  5    0.702316    0.269591    0.520224    11.00000    0.03807    0.03453 =
         0.03821   -0.01523    0.00466   -0.01728
C11   1    0.390719    0.145448    0.872328    11.00000    0.03577    0.04004 =
         0.02777   -0.00843   -0.00234   -0.01796
N11   2    0.551569    0.270184    0.676373    11.00000    0.02531    0.03468 =
         0.04798   -0.02746    0.01002   -0.00895
SE12  5    0.714793    0.041876    0.537422    11.00000    0.03599    0.02791 =
         0.04245   -0.01605    0.00522   -0.00890
N12   2    0.564498    0.034988    0.696949    11.00000    0.05229    0.02672 =
         0.04918   -0.01056    0.00120   -0.02162
F12   4    0.287539    0.027670    0.823483    11.00000    0.04458    0.02693 =
         0.05837   -0.02715    0.00459   -0.00908
C12   1    0.289305    0.077321    0.907734    11.00000    0.05789    0.06200 =
         0.03515   -0.00946    0.00386   -0.04375
F13   4    0.073725    0.026866    1.049812    11.00000    0.04916    0.05315 =
         0.05806   -0.02206   -0.00353   -0.02519
N13   2    0.025772    0.152755    1.247154    11.00000    0.02708    0.03269 =
         0.03996   -0.01357    0.01809   -0.01221
O11   3   -0.026446    0.260859    1.276481    11.00000    0.05838    0.06027 =
         0.04753   -0.02548    0.01919   -0.01899
O12   3   -0.013595    0.044632    1.308636    11.00000    0.07509    0.08890 =
         0.03451   -0.02059    0.02231   -0.05371
C13   1    0.168155    0.081842    1.034321    11.00000    0.03518    0.03789 =
         0.03495   -0.00935    0.00696   -0.02650
C14   1    0.156237    0.147563    1.116902    11.00000    0.05415    0.04105 =
         0.03082   -0.00823   -0.01691   -0.01476
F15   4    0.248257    0.268991    1.172906    11.00000    0.05536    0.04498 =
         0.03947   -0.01781    0.00227   -0.01958
C15   1    0.258094    0.205076    1.092048    11.00000    0.03834    0.01952 =
         0.04224   -0.00698   -0.01764   -0.00018
F16   4    0.472806    0.252995    0.952654    11.00000    0.05697    0.04675 =
         0.04584   -0.01392   -0.00472   -0.02967
C16   1    0.377172    0.205395    0.965249    11.00000    0.02516    0.04330 =
         0.03403   -0.02532    0.00466   -0.00783

MOLE 2
C20   1    0.288921    0.336989    0.494783    11.00000    0.04602    0.01172 =
         0.03011    0.00480    0.00335   -0.01116
SE21  5    0.509311    0.431826    0.307064    11.00000    0.04670    0.02804 =
         0.04004   -0.00870    0.00111   -0.01675
C21   1    0.145272    0.354588    0.610855    11.00000    0.03965    0.02118 =
         0.04813   -0.00487   -0.01405   -0.00926
N21   2    0.339856    0.451387    0.442414    11.00000    0.03369    0.02374 =
         0.04561   -0.01647    0.00241   -0.00539
SE22  5    0.512522    0.210200    0.322741    11.00000    0.04170    0.03543 =
         0.04456   -0.02085    0.00430   -0.01519
F22   4    0.050616    0.269395    0.519683    11.00000    0.05124    0.06415 =
         0.03773   -0.02537   -0.00477   -0.02291
N22   2    0.345034    0.222808    0.457251    11.00000    0.06438    0.04487 =
         0.04611   -0.00546   -0.01431   -0.03256
C22   1    0.040296    0.311297    0.621418    11.00000    0.04000    0.00621 =
         0.03765   -0.01148   -0.00939   -0.00055
F23   4   -0.181195    0.255717    0.748286    11.00000    0.04404    0.05382 =
         0.06727   -0.02931   -0.01586   -0.01570
N23   2   -0.226118    0.338784    0.967401    11.00000    0.05263    0.06430 =
         0.06535   -0.01649   -0.01498   -0.03039
O21   3   -0.345512    0.395451    0.951191    11.00000    0.02629    0.15966 =
         0.05642   -0.03924   -0.00063   -0.01371
O22   3   -0.201221    0.287481    1.082338    11.00000    0.05838    0.09075 =
         0.03653   -0.01812   -0.00236   -0.02541
C23   1   -0.084350    0.307309    0.737622    11.00000    0.05114    0.03444 =
         0.05602   -0.00484   -0.01817   -0.01583
C24   1   -0.107380    0.355371    0.842708    11.00000    0.02437    0.03639 =
         0.02361   -0.00264    0.00260   -0.01399
F25   4   -0.015782    0.449276    0.930797    11.00000    0.04360    0.07244 =
         0.03695   -0.02657    0.00640   -0.02548
C25   1    0.002656    0.395923    0.828866    11.00000    0.04758    0.02635 =
         0.03084   -0.01184   -0.01270    0.00954
F26   4    0.219384    0.445680    0.718022    11.00000    0.04709    0.04373 =
         0.04707   -0.01649   -0.01115   -0.01593
C26   1    0.122837    0.404372    0.713063    11.00000    0.04000    0.00621 =
         0.03765   -0.01148   -0.00939   -0.00055

HKLF 4

REM  jr0025 in P-1
REM R1 =  0.1124 for    2085 Fo > 4sig(Fo)  and  0.1655 for all    3404 data
REM    314 parameters refined using      0 restraints

END

WGHT      0.1875     33.6371

REM Highest difference peak  3.248,  deepest hole -1.535,  1-sigma level  0.298
Q1    1   0.6623  0.0561  0.4543  11.00000  0.05    3.25
Q2    1   0.6399  0.2915  0.4432  11.00000  0.05    3.10
Q3    1   0.4231  0.4615  0.2438  11.00000  0.05    3.03
Q4    1   0.4431  0.2285  0.2605  11.00000  0.05    2.94
Q5    1   0.7579  0.2818  0.5789  11.00000  0.05    2.50
Q6    1   0.5358  0.4391  0.3832  11.00000  0.05    2.27
Q7    1   0.7804  0.0573  0.5753  11.00000  0.05    2.17
Q8    1   0.5584  0.2187  0.3874  11.00000  0.05    2.12
Q9    1   0.3803  0.0411  0.9244  11.00000  0.05    1.60
Q10   1   0.4880  0.2630  0.3013  11.00000  0.05    1.49
;
_shelx_res_checksum              97557
_shelx_hkl_file
;
 -11  -5   1  122.26   18.18
 -11  -4   1    6.52   10.98
 -11  -3   1   41.25   22.00
 -11  -2   1    3.78   11.70
 -10  -7   1    9.30    7.92
 -10  -6   1   49.47   10.65
 -10  -5   1  119.54   18.63
 -10  -5   2   75.23   13.75
 -10  -4   1   42.47   10.37
 -10  -4   2    0.00    9.99
 -10  -3   1   -1.73    9.69
 -10  -3   2   24.50   11.04
 -10  -3   3   49.48   14.44
 -10  -2   1   10.04   11.43
 -10  -2   2   96.72  113.99
 -10  -1   1    6.19   11.34
 -10  -1   1   12.81   11.77
 -10  -1   2   -0.69   13.13
 -10  -1   2   13.87   11.10
 -10   0   1   -0.34   10.55
 -10   0   1    4.84   15.23
 -10   0   2   -1.03    9.94
 -10   0   2  -25.56   12.78
 -10   1   0   11.41   13.83
 -10   1   0   19.26   11.83
 -10   1   1   49.41   13.83
 -10   1   1   63.18   12.55
 -10   1   2  239.14  124.91
 -10   2   0    6.42   12.16
 -10   2   0  112.10  169.70
  -9  -8   1   89.01    9.70
  -9  -7   1    9.52    8.47
  -9  -7   1   17.20    8.60
   9   7  -1    1.39    7.97
  -9  -7   2    6.57    8.99
  -9  -6   1   -5.52    6.56
   9   6  -1   -9.73    6.25
  -9  -6   1   -0.71    9.28
  -9  -6   2   29.62    8.27
   9   6  -2   -1.39    5.55
  -9  -6   3    5.53    9.34
   9   5  -1    5.92    5.92
  -9  -5   1   -6.88    7.25
  -9  -5   1    0.69    7.27
   9   5  -2   -7.99    6.26
  -9  -5   2    9.33    8.98
  -9  -5   3   96.04   10.78
  -9  -4   1  214.54   17.14
   9   4  -1  289.05   17.64
  -9  -4   1  240.27   30.61
   9   4  -2   41.07    9.06
  -9  -4   2   42.94   11.78
   9   4  -3   18.06    9.38
  -9  -4   3   -5.52    7.93
   9   3  -1    2.09    4.19
  -9  -3   1    3.65    4.74
   9   3  -2   16.72    5.92
  -9  -3   2    0.69    8.33
  -9  -3   3   12.44    9.33
   9   2  -1   21.30    3.15
  -9  -2   1   -1.04    4.88
  -9  -2   2   11.12    9.73
  -9  -2   3   23.89   10.73
  -9  -1   1   -4.16    7.97
  -9  -1   1   -8.01    9.41
  -9  -1   2   93.16   17.74
  -9  -1   3  139.97   21.16
  -9   0   1   19.85    9.75
  -9   0   1   10.64    9.27
  -9   0   2    5.21    8.34
  -9   0   2   31.11   10.73
  -9   0   3  -12.21    6.98
  -9   1   0  -14.67    9.89
  -9   1   0   13.22   11.13
  -9   1   1    0.00    7.16
  -9   1   1   23.30   10.78
  -9   1   2  -28.12   11.11
  -9   1   2   -4.79    8.90
  -9   1   3   62.04   13.84
  -9   1   4   89.78   14.44
  -9   2   0   -9.37   11.11
  -9   2   0   -6.14    8.87
  -9   2   1   -1.36    8.83
  -9   2   1   -5.20   11.80
  -9   2   2    0.68    9.85
  -9   2   3   28.31   11.27
  -9   3   0   11.08   12.46
  -9   3   0   20.52   11.63
  -9   3   1   25.26   16.26
  -9   3   1   32.99   11.91
  -9   3   2   24.07   11.53
  -9   4   0   -1.72   12.37
  -9   4   0  484.14  265.54
  -8  -9   1   90.59   13.80
   8   8  -1   39.11    9.70
  -8  -8   1  447.46  246.17
  -8  -8   2   74.66   13.49
   8   7  -1    4.52    7.30
  -8  -7   1    0.35    8.76
  -8  -7   1    8.98    6.91
  -8  -7   2   -0.70   10.52
   8   7  -2   12.50    8.33
  -8  -7   3    0.69   12.47
  -8  -6   1   43.84    9.56
   8   6  -1   39.06    6.98
  -8  -6   1   58.95    7.64
  -8  -6   2   58.42   11.71
   8   6  -2   68.28   12.20
  -8  -6   2   67.13   10.39
   8   6  -3   58.75   11.13
  -8  -6   3   26.88   10.97
  -8  -6   4    5.20    9.01
  -8  -5   1    3.13    7.31
   8   5  -1    2.80    6.29
  -8  -5   1   11.08    6.44
  -8  -5   2   12.17    8.23
  -8  -5   2   10.06   16.31
   8   5  -2    8.03    6.64
  -8  -5   3   30.09    8.30
  -8  -5   3   41.43    8.95
   8   5  -3   54.72    9.42
  -8  -5   4  132.39   18.78
  -8  -4   1   30.83    6.91
   8   4  -1   45.55    6.67
  -8  -4   1   37.33    8.73
  -8  -4   2   -1.09    6.88
   8   4  -2    5.60    6.30
  -8  -4   2    5.92    8.70
  -8  -4   3  118.37   13.51
   8   4  -3  135.50   15.39
  -8  -4   3  102.27   14.22
  -8  -4   4   91.56   15.67
  -8  -4   5    6.93    9.01
   8   3  -1   57.52    5.63
  -8  -3   1   55.59    8.40
  -8  -3   2    2.09    6.63
  -8  -3   2    6.59    6.22
   8   3  -2   -0.70    4.91
  -8  -3   3    1.39    7.64
   8   3  -3   -4.20    4.54
  -8  -3   3  -14.57    7.29
  -8  -3   4   73.87   10.81
  -8  -3   5   99.93   14.24
   8   2  -1   77.89    6.69
   8   2  -1   79.71    6.23
  -8  -2   1   88.21   11.92
  -8  -2   2   18.16    7.68
   8   2  -2    6.31    4.91
  -8  -2   3    6.55    6.92
   8   2  -3    4.55    5.94
  -8  -2   3   22.97   10.09
  -8  -2   4   -6.27    5.92
  -8  -2   5    6.25    7.63
   8   1  -1    0.70    2.80
   8   1  -1    3.86    2.10
  -8  -1   1   -0.35    8.41
   8   1  -2   14.71    5.95
   8   1  -2    5.65    4.59
  -8  -1   2   11.53   14.68
   8   1  -3   50.29    6.29
   8   1  -3   48.73    7.93
  -8  -1   3   48.07   10.11
  -8  -1   4    3.48    7.66
  -8  -1   5   26.68   10.40
  -8   0   1   65.82   10.51
  -8   0   1   79.90    9.72
   8   0  -2  342.53   20.31
   8   0  -2  330.28   25.14
  -8   0   2  268.36   45.46
  -8   0   3  190.57   23.03
   8   0  -3  236.57   20.92
  -8   0   4  150.32   24.66
  -8   1   0    6.65    7.70
  -8   1   0    4.82    7.22
  -8   1   1    9.62    7.90
  -8   1   1   -3.85    5.25
  -8   1   2   -1.38    7.93
   8  -1  -2    0.00    3.83
  -8   1   2  -13.27    9.43
  -8   1   3   84.39   14.29
   8  -1  -3  114.89   11.11
  -8   2   0   -3.49    9.78
  -8   2   0   17.55    8.60
  -8   2   1   -6.28   10.12
  -8   2   1   17.13    8.91
  -8   2   2    2.44   11.15
  -8   2   2   22.94    7.19
  -8   2   3   25.78    9.63
  -8   2   5    7.34   10.14
  -8   3   0   43.14   10.02
  -8   3   0   34.47   11.14
  -8   3   1   44.90   14.27
  -8   3   1   12.35   12.35
  -8   3   2    4.78    9.23
  -8   3   3    0.34    8.54
  -8   3   4   68.24   12.73
  -8   4   0   84.99   17.35
  -8   4   0   87.31   13.55
  -8   4   1  118.18   15.23
  -8   4   2   41.15   10.99
  -8   4   3   21.19   11.63
  -8   5   0    1.39   10.78
  -8   5   1    9.01   10.04
  -7 -10   1    6.17    9.94
  -7  -9   1   53.81   12.08
  -7  -9   2    7.24   11.37
  -7  -8   1   16.58    5.87
   7   8  -1    5.90    7.63
  -7  -8   2   31.18   10.05
  -7  -8   3    4.84   10.03
  -7  -7   1   29.12    7.28
  -7  -7   1   -7.33    6.98
   7   7  -1    4.18    6.97
  -7  -7   2   40.55    6.24
  -7  -7   2   20.25    9.08
   7   7  -2   15.31    8.35
  -7  -7   3    3.13    8.68
  -7  -7   4   20.09   10.39
  -7  -6   1   21.58    6.61
   7   6  -1    7.34    6.30
  -7  -6   1   17.23    7.39
  -7  -6   2   37.52    7.99
  -7  -6   2   26.76   10.21
   7   6  -2   21.31    9.09
  -7  -6   3   60.84   13.03
   7   6  -3   70.09   11.86
  -7  -6   4   22.95    9.74
  -7  -6   5  -10.39   10.74
   7   5  -1  158.21   13.37
  -7  -5   1  139.75   10.72
  -7  -5   1  136.57   14.00
  -7  -5   2   48.44   10.80
  -7  -5   2   36.22    9.60
   7   5  -2   39.60    9.12
   7   5  -3   86.74   12.95
  -7  -5   3   87.94   12.80
  -7  -5   3   93.48    9.40
  -7  -5   4    9.18    9.54
   7   5  -4   21.27   11.51
  -7  -5   5   39.94   11.47
   7   4  -1   48.52    6.69
  -7  -4   1   53.78   11.84
  -7  -4   1   62.01   16.47
   7   4  -2    9.13    6.67
  -7  -4   2    6.99    5.94
  -7  -4   2   13.63    6.10
  -7  -4   3  450.99   38.71
  -7  -4   3  407.93   29.04
   7   4  -3  460.57   43.86
   7   4  -4  303.27   29.39
  -7  -4   4  228.21   25.82
   7   4  -5   70.64   12.54
  -7  -4   5    8.48   12.37
  -7  -4   6   -4.85   10.74
  -7  -3   1  251.53   44.49
  -7  -3   1  240.50   24.27
   7   3  -1  260.56   18.71
  -7  -3   2   14.36    5.25
  -7  -3   2   27.24    5.82
   7   3  -2   36.58    5.28
  -7  -3   3    6.98    4.89
   7   3  -3    5.97    5.26
  -7  -3   4   14.73   10.06
   7   3  -4   26.23    8.39
  -7  -3   5   86.38   11.85
  -7  -3   6   20.45   10.40
  -7  -2   1   32.90    6.59
   7   2  -1   25.72    3.88
  -7  -2   1   30.94   10.20
  -7  -2   2    0.70    5.61
   7   2  -2    3.17    3.52
  -7  -2   2    3.29    4.02
  -7  -2   3   -5.83    4.74
   7   2  -3    4.91    5.97
  -7  -2   3    3.50    5.94
  -7  -2   4    4.55    7.69
   7   2  -5   19.85    8.01
  -7  -2   5   16.17   10.42
  -7  -2   6    1.73    8.32
  -7  -1   1  297.64   46.12
   7   1  -1  305.70   19.42
   7   1  -2  100.53   21.09
   7   1  -2   42.69   11.85
  -7  -1   2  107.78   45.29
   7   1  -3   15.19    7.60
  -7  -1   3   34.29   19.25
   7   1  -3   73.25   15.07
   7   1  -4   34.04    6.54
   7   1  -4   22.70    7.34
   7   1  -5  136.79   15.73
   7   1  -5  179.15   16.73
  -7  -1   6  221.61   24.30
   7   0  -1  188.09   13.03
   7   0  -1  171.59   11.36
  -7   0   1  196.35   16.79
  -7   0   1  143.51   17.96
  -7   0   2  242.60   19.36
   7   0  -2  327.55   31.93
   7   0  -2  320.05   25.42
   7   0  -3  462.33   48.30
   7   0  -3  401.65   34.37
  -7   0   3  436.49   43.13
   7   0  -3  433.48   48.42
   7   0  -4   12.18    7.17
   7   0  -4   67.27   12.55
   7   0  -4   36.03   13.29
   7   0  -5   46.52    8.68
   7   0  -5   26.49   10.81
   7   0  -5   48.93    9.04
   7   0  -6   16.59   10.02
   7   0  -6  -14.92   11.80
  -7   1   0    6.68    7.03
  -7   1   0    6.59    7.28
   7  -1  -1   21.76    7.02
  -7   1   1   28.81    7.38
   7  -1  -1   28.03    3.86
  -7   1   1   32.52    7.61
   7  -1  -1   32.40    3.53
  -7   1   2   26.02    8.33
   7  -1  -2   15.06    4.21
  -7   1   2   14.38   11.23
   7  -1  -2   39.87    5.60
   7  -1  -2   28.42    9.47
   7  -1  -3   14.02   10.16
   7  -1  -3   23.37    5.23
   7  -1  -3   10.14    5.95
   7  -1  -4   12.17    6.60
   7  -1  -4   17.13   11.19
   7  -1  -4   24.00    7.77
   7  -1  -5   25.08   11.50
   7  -1  -5   34.97   10.04
  -7   1   6   78.93   13.45
  -7   2   0   16.31    7.64
  -7   2   0   24.91    8.77
   7  -2   0   24.15    3.15
  -7   2   1    4.21    6.31
  -7   2   1    2.76    6.56
   7  -2  -1   -2.11    3.16
   7  -2  -1   11.56    9.46
   7  -2  -2    2.45    9.45
  -7   2   2   -1.38    7.24
  -7   2   2    8.41    8.06
   7  -2  -2    0.70    3.84
   7  -2  -2    0.00    3.51
   7  -2  -3    9.07    5.58
   7  -2  -3   17.73    4.87
   7  -2  -3    9.79   10.49
  -7   2   3   23.52    7.61
   7  -2  -4   10.05    6.24
   7  -2  -4   -5.58    8.38
  -7   2   4   -2.44    7.67
  -7   2   5    4.83    8.63
  -7   2   6   19.58    9.96
  -7   3   0  156.48   10.08
  -7   3   0  182.02   20.60
   7  -3   0  176.20   12.58
  -7   3   0  120.03   19.61
  -7   3   1   82.65   13.51
   7  -3  -1   87.97   15.36
  -7   3   1  108.11   14.01
   7  -3  -1   79.87    7.66
   7  -3  -1   81.09    6.66
   7  -3  -2   -0.35    4.89
   7  -3  -2   25.83   11.17
  -7   3   2  -16.87    7.23
   7  -3  -2    5.55    4.51
  -7   3   3   26.49    8.95
   7  -3  -3   16.62    4.85
  -7   3   4   40.04    9.68
   7  -3  -4   37.26    7.25
  -7   3   5   38.93   10.10
   7  -3  -5   44.67    8.25
  -7   3   6   51.19   11.27
   7  -4   0   67.40    7.30
  -7   4   0   89.98   16.40
  -7   4   0   88.44   10.29
  -7   4   0   62.50   14.68
  -7   4   1  110.45   27.12
  -7   4   2   26.61    9.68
   7  -4  -3   36.47    6.88
  -7   4   3   31.33   10.34
  -7   4   4   56.42   13.09
  -7   4   5  143.43   23.19
  -7   5   0   73.81   10.53
  -7   5   1   44.30   10.13
  -7   5   2   10.08    8.34
  -7   5   3   17.65    8.31
  -7   5   4   46.59   10.37
  -7   6   2   20.95   11.17
  -6 -10   1   45.26   12.35
  -6  -9   1    0.35    8.28
  -6  -9   2  106.89   15.54
  -6  -9   3  256.07   27.26
   6   8  -1   47.55    8.68
  -6  -8   1   59.22    6.59
  -6  -8   1   36.72   10.05
  -6  -8   2    9.36    9.36
  -6  -8   3    1.73   11.08
  -6  -8   4   55.93   14.51
  -6  -7   1   26.42    4.52
  -6  -7   1    7.32    7.67
   6   7  -1   28.95    7.33
  -6  -7   2   11.49    4.53
  -6  -7   2   10.80    9.41
   6   7  -2    5.93   10.11
  -6  -7   3   30.27   10.09
  -6  -7   4    1.39   10.41
  -6  -7   5   -2.77   12.45
   6   6  -1    4.90    5.96
  -6  -6   1    0.70    6.32
  -6  -6   1   13.96    4.54
   6   6  -2   64.06    9.81
  -6  -6   2   66.26    7.68
  -6  -6   2   61.09   10.55
  -6  -6   3   10.17   10.52
   6   6  -3   19.22    8.04
  -6  -6   4   24.04   10.10
  -6  -6   5    6.25   11.11
  -6  -5   1  850.14   61.86
  -6  -5   1  745.15   80.44
   6   5  -1  819.37   49.05
  -6  -5   2 1716.88  137.33
   6   5  -2 1650.87   89.92
  -6  -5   2 1943.48  171.51
   6   5  -3  119.53   14.38
  -6  -5   3   78.75   12.03
   6   5  -4   16.08    9.44
  -6  -5   4   13.72   10.20
  -6  -5   5   -8.70    9.05
  -6  -5   6  141.39   19.46
  -6  -4   1   42.18    5.28
  -6  -4   1   35.60    5.35
   6   4  -1   34.54    4.94
  -6  -4   2   28.75    7.72
   6   4  -2   18.66    5.99
  -6  -4   2   18.53    6.77
  -6  -4   3  155.26   16.45
  -6  -4   3  183.59   14.69
   6   4  -3  174.97   14.42
   6   4  -4   88.95   14.37
  -6  -4   4  105.22   18.10
  -6  -4   5   41.52   11.62
   6   4  -5   35.93    9.77
  -6  -4   6  117.36   15.32
  -6  -3   1    8.64    3.60
  -6  -3   1    6.34    4.23
   6   3  -1    0.35    4.59
  -6  -3   2  192.62   18.65
  -6  -3   2  192.32   21.68
   6   3  -2  264.87   13.79
   6   3  -3  203.34   13.04
  -6  -3   3  198.66   17.89
  -6  -3   3  174.16   17.68
   6   3  -4   10.87    6.31
  -6  -3   4   10.00    7.50
  -6  -3   5    8.86    8.51
   6   3  -5   10.48    9.78
  -6  -3   6   15.99    9.73
  -6  -3   7   67.08   15.23
  -6  -2   1   65.29   23.29
   6   2  -1   56.54   13.08
  -6  -2   1   41.70   19.39
  -6  -2   2    0.00    4.01
   6   2  -2    7.06    4.23
  -6  -2   2   -2.11    3.87
  -6  -2   3   21.41    5.97
   6   2  -3   35.89    7.04
  -6  -2   3   22.86    5.45
  -6  -2   4   65.24   11.20
   6   2  -4   91.17   11.58
   6   2  -5    4.89    9.08
  -6  -2   5   24.66    8.59
  -6  -2   6   36.85   12.17
  -6  -2   7    3.11   10.03
  -6  -1   1  587.00   45.66
   6   1  -1  593.18   31.21
   6   1  -1  653.19   35.76
   6   1  -2  260.21   49.37
  -6  -1   2  222.39   70.85
  -6  -1   2  229.60   56.37
  -6  -1   3   14.05    4.92
   6   1  -3   17.58    5.63
   6   1  -3   16.91    6.69
  -6  -1   4   14.13    5.44
   6   1  -4   20.03    7.03
   6   1  -4    8.41    5.61
  -6  -1   5   10.80    6.84
   6   1  -5   11.91    7.00
   6   1  -5    9.42    6.63
  -6  -1   6  286.62   27.54
   6   1  -6  279.00   28.23
   6   1  -6  239.88   21.33
  -6  -1   7   33.87   11.41
   6   0  -1  163.82   61.05
  -6   0   1  243.34  110.90
   6   0  -1  396.56   52.24
   6   0  -1  252.12  122.18
   6   0  -2   78.06   22.62
  -6   0   2   36.31   24.32
   6   0  -2   72.01   18.36
   6   0  -2   93.36   11.63
  -6   0   3   27.77    7.73
   6   0  -3   33.38    5.97
   6   0  -3   39.14    8.46
   6   0  -3   34.73    5.03
   6   0  -4  192.91   19.63
   6   0  -4  193.17   22.53
   6   0  -5  447.52   37.22
   6   0  -5  370.98   48.16
   6   0  -6  316.15   35.47
   6   0  -6  331.05   40.55
   6   0  -6  279.97   31.93
   6   0  -7   14.94   12.16
   6   0  -7    0.69   11.39
   6  -1   0   20.57    2.13
  -6   1   0   19.90    6.29
  -6   1   0   22.60    6.36
   6  -1   0   24.33    2.12
  -6   1   1  503.94   32.22
   6  -1  -1  513.53   31.00
   6  -1  -1  449.77   38.27
   6  -1  -1  454.41   76.58
  -6   1   1  402.63   33.93
   6  -1  -2  380.71   50.47
  -6   1   2  352.64   31.05
   6  -1  -2  385.45   27.47
   6  -1  -2  355.24   30.01
   6  -1  -3  161.25   22.18
   6  -1  -3  136.94   22.83
   6  -1  -3  237.60   23.99
   6  -1  -4    6.33    8.09
   6  -1  -4    4.55    6.29
   6  -1  -4    7.10    4.97
   6  -1  -5   19.68    7.88
   6  -1  -5   19.15    6.27
   6  -1  -5    9.47    9.47
   6  -1  -6  391.86   39.16
   6  -1  -6  384.55   45.79
   6  -1  -6  379.27   31.50
   6  -1  -7  173.70   23.64
   6  -1  -7  206.07   18.67
   6  -1  -7  167.19   20.42
  -6   2   0   -3.52    5.99
   6  -2   0   -0.70    2.11
  -6   2   0    0.70    5.60
   6  -2   0   -7.03    6.33
  -6   2   0    0.70    2.46
  -6   2   1    4.23    5.64
   6  -2  -1   13.42    3.18
  -6   2   1   14.94    6.26
   6  -2  -1   30.99    8.10
   6  -2  -1   13.04    3.17
  -6   2   2   25.66    7.63
   6  -2  -2   18.65    4.22
   6  -2  -2   19.73    7.75
   6  -2  -2   23.56    4.58
  -6   2   2   21.46    5.63
   6  -2  -3   23.94    8.45
   6  -2  -3   12.97    3.51
   6  -2  -3    2.45    4.89
  -6   2   3    8.70    6.96
   6  -2  -4    1.40    6.31
   6  -2  -4    8.08    8.43
   6  -2  -4    2.09    3.49
   6  -2  -5    2.08    4.17
   6  -2  -5    6.02    8.14
   6  -2  -5    6.31   10.16
   6  -2  -6   33.88   10.72
   6  -2  -6   20.33   11.06
   6  -2  -6    7.33   11.16
  -6   2   7   10.31   11.00
  -6   3   0  118.18   11.26
   6  -3   0  107.37    8.43
  -6   3   0   84.37   12.66
  -6   3   0  114.66    8.36
   6  -3   0  106.25   14.38
  -6   3   1    7.73    7.73
   6  -3  -1    4.57    7.37
   6  -3  -1    3.52    3.87
  -6   3   1   10.10    5.92
   6  -3  -2   16.51    9.49
  -6   3   2   33.27    7.28
   6  -3  -2   48.51    6.34
   6  -3  -3   48.53   16.41
   6  -3  -3   52.43   14.34
   6  -3  -3  106.75   19.32
  -6   3   3   57.09   17.31
   6  -3  -4    9.42    8.02
   6  -3  -4   33.30   12.62
   6  -3  -4   24.71    6.96
  -6   3   4   24.99    9.72
   6  -3  -5    0.00    6.31
  -6   3   5    9.79    6.65
   6  -3  -5    2.42    5.54
   6  -3  -5    3.49    6.99
  -6   3   6   28.60    8.27
  -6   3   7   22.28   10.97
  -6   4   0  126.86   52.37
   6  -4   0   47.89   14.33
  -6   4   0  223.77   33.07
  -6   4   0  153.46   44.16
   6  -4   0  116.66   33.88
   6  -4  -1   55.70   18.92
   6  -4  -1  230.53   40.59
  -6   4   1  284.88   46.69
  -6   4   1  187.88   63.70
   6  -4  -2   53.59    7.71
   6  -4  -2   65.81   11.21
  -6   4   2   49.07    8.71
   6  -4  -3  167.87   12.53
  -6   4   3  186.10   16.05
   6  -4  -3  162.26   15.76
   6  -4  -3  164.44   22.07
   6  -4  -4  231.92   13.92
  -6   4   4  232.55   16.45
   6  -4  -4  202.04   25.48
  -6   4   5  368.69   34.60
   6  -4  -5  345.56   31.45
  -6   4   6   67.66   12.59
   6  -4  -6   57.66   11.33
  -6   4   7   -2.73    9.56
   6  -5   0  226.48   18.81
   6  -5   0  234.63   23.66
  -6   5   0  230.50   19.47
  -6   5   1  189.30   12.36
  -6   5   1  193.35   21.49
   6  -5  -1  179.16   13.28
   6  -5  -1  153.88   22.64
   6  -5  -2   65.52   12.90
  -6   5   2   72.12   12.03
  -6   5   2   87.47   12.63
   6  -5  -3   -8.94    7.22
   6  -5  -3    6.60    6.60
  -6   5   3    1.39    6.27
  -6   5   4   41.34    8.70
   6  -5  -4   21.65    9.62
  -6   5   5  122.09   12.58
   6  -5  -5  122.02   13.73
  -6   6   0   14.86    6.76
  -6   6   1    1.69    6.44
  -6   6   2   36.37    8.16
  -6   6   3    8.17    6.47
  -6   6   3    3.86    8.41
   6  -6  -4   28.62    8.18
  -6   6   4   42.32   10.15
  -6   7   0   20.41   10.04
  -6   7   1   19.78    8.72
  -5 -10   1  120.25   16.47
  -5 -10   2   88.32   16.79
  -5  -9   1   12.76   10.00
  -5  -9   2  132.38   17.61
  -5  -9   3  120.11   17.92
   5   8  -1   -4.17    6.59
  -5  -8   1   26.35    8.67
  -5  -8   1    9.02    3.47
  -5  -8   2  238.66   30.91
  -5  -8   4   50.77   14.51
  -5  -7   1    4.18    3.48
  -5  -7   1    9.76    7.32
   5   7  -1    5.23    6.28
   5   7  -2    3.49    6.63
  -5  -7   2    8.36    8.01
  -5  -7   3   30.29    9.40
  -5  -7   4  105.90   18.07
  -5  -7   5   10.38   12.11
   5   6  -1  147.95   31.56
  -5  -6   1  231.33   21.73
  -5  -6   1  209.74   28.11
  -5  -6   2   14.00    3.15
   5   6  -2    8.41    7.01
  -5  -6   2   16.13    8.07
   5   6  -3   -1.05    7.34
  -5  -6   3    1.75    8.75
  -5  -6   4   31.38   10.46
  -5  -6   5   26.40   11.81
  -5  -6   6   35.28   13.50
   5   5  -1  473.71   44.05
  -5  -5   1  528.44   40.50
  -5  -5   1  478.34   69.94
  -5  -5   2  478.76   58.25
   5   5  -2  436.84   47.88
  -5  -5   2  423.87   86.54
  -5  -5   3  115.96   14.49
   5   5  -3   87.75   14.40
  -5  -5   4   66.73   10.21
   5   5  -4   55.28   13.30
  -5  -5   5   85.39   15.00
  -5  -5   6   47.88   11.11
   5   4  -1  891.35   61.55
  -5  -4   1 1007.08   67.88
  -5  -4   1 1020.52   67.11
  -5  -4   2  398.47   25.01
  -5  -4   2  408.10   31.76
   5   4  -2  410.93   25.10
   5   4  -3  120.00   10.22
  -5  -4   3   89.74    9.96
  -5  -4   4   25.09    8.13
   5   4  -4   40.34    8.07
  -5  -4   5   22.13    7.38
   5   4  -5   34.59    8.74
  -5  -4   6  476.09   41.99
  -5  -4   7  266.76   39.59
   5   3  -1   15.21    4.25
  -5  -3   1   12.37    4.24
  -5  -3   1   13.58    3.93
   5   3  -2  274.92   16.64
  -5  -3   2  228.80   13.07
  -5  -3   2  233.02   14.43
   5   3  -3  236.51   16.95
  -5  -3   3  222.97   14.45
  -5  -3   3  246.92   20.48
  -5  -3   4   71.15   11.05
   5   3  -4   88.87    9.50
  -5  -3   5    9.54    8.48
   5   3  -5   19.59    9.45
  -5  -3   6   -4.53    7.31
  -5  -3   7   29.45   10.05
  -5  -2   1    7.79    4.96
   5   2  -1    2.13    3.19
  -5  -2   1    0.36    3.26
   5   2  -2    4.60    3.54
  -5  -2   2    9.42    4.35
  -5  -2   2   -1.41    3.18
   5   2  -3    3.17    4.23
  -5  -2   3   -1.44    4.69
  -5  -2   3    1.76    4.23
  -5  -2   4   31.58   11.85
   5   2  -4   39.37    7.39
   5   2  -5   20.66    7.35
   5   2  -5   11.92    5.26
  -5  -2   5   13.89    6.77
   5   2  -6   29.62    8.72
  -5  -2   6   10.93    8.82
  -5  -2   7    2.77   10.40
  -5  -2   8    7.58   12.07
   5   1  -1   76.16    6.03
  -5  -1   1   69.80    7.09
  -5  -1   1   74.50    4.80
   5   1  -2  118.99   20.19
  -5  -1   2  105.37    6.73
  -5  -1   2  113.99    7.38
   5   1  -2  127.70   12.39
  -5  -1   3  680.06   58.23
   5   1  -3  747.05   63.26
   5   1  -3  721.99   66.90
  -5  -1   3  657.53   47.67
   5   1  -4  426.45   34.99
  -5  -1   4  436.85   42.21
   5   1  -4  399.87   33.47
  -5  -1   5   79.37   10.10
   5   1  -5   91.85   12.33
   5   1  -5   59.19   12.61
  -5  -1   6   13.87    9.25
   5   1  -6    4.18    8.02
   5   1  -6    9.81    8.06
   5   1  -7   47.16   12.14
   5   1  -7   47.76   10.81
  -5  -1   7   23.22    9.51
  -5  -1   8   30.68   12.07
   5   0  -1 1139.63  190.39
   5   0  -1 1179.16   82.96
  -5   0   1 1212.60  175.13
   5   0  -1 1058.00  156.28
  -5   0   2  138.65   52.35
   5   0  -2  106.95   40.07
   5   0  -2  189.68   30.50
   5   0  -2  207.70   24.83
   5   0  -3   34.01    8.15
   5   0  -3   31.07    4.35
   5   0  -3   35.33    6.01
  -5   0   3   36.33    5.29
   5   0  -4  236.28   34.32
  -5   0   4  250.48   17.19
   5   0  -4  266.76   28.89
  -5   0   5  534.65   44.39
   5   0  -5  548.07   62.47
   5   0  -5  567.17   61.74
   5   0  -6  317.88   41.53
   5   0  -6  317.19   34.46
  -5   0   6  317.48   28.26
  -5   0   7   33.72   11.02
   5   0  -7    9.36   10.40
   5   0  -7   21.67    8.39
  -5   0   8    5.86   11.37
   5  -1   0  124.92   30.08
  -5   1   0  147.40   25.17
   5  -1   0  115.12    8.87
  -5   1   0  110.69   17.23
   5  -1   0   93.71    6.45
   5  -1  -1  243.68   12.95
   5  -1  -1  233.48   13.53
   5  -1  -1  202.68   24.81
  -5   1   1  213.89   19.85
  -5   1   1  246.98   16.87
  -5   1   2  340.11   25.50
   5  -1  -2  377.39   26.42
   5  -1  -2  362.58   29.94
   5  -1  -2  369.46   45.76
   5  -1  -3   21.22    5.66
   5  -1  -3   17.72    6.38
   5  -1  -3   19.46    3.89
   5  -1  -4  134.53   11.64
   5  -1  -4  117.96   10.42
   5  -1  -4  134.49   12.05
   5  -1  -5   65.65    8.83
   5  -1  -5   67.19    8.65
   5  -1  -5   59.21    9.12
   5  -1  -6    4.92    6.68
   5  -1  -6    4.31    7.18
   5  -1  -6    4.18    7.67
   5  -1  -7   59.58   16.63
   5  -1  -7   72.90   12.93
   5  -1  -7   67.85   11.90
   5  -1  -8   19.12   11.12
   5  -1  -8   17.21   13.43
   5  -2   0   -4.59    4.95
  -5   2   0    7.78    4.95
  -5   2   0    2.46    2.11
   5  -2   0    2.12    2.12
  -5   2   1   62.95    7.01
   5  -2  -1   57.17    4.27
  -5   2   1   28.64    6.72
   5  -2  -1   41.40    9.20
   5  -2  -2    9.92    6.73
  -5   2   2    8.71    6.62
  -5   2   2   18.36    5.30
   5  -2  -2   10.91    4.57
   5  -2  -3   49.14    4.61
   5  -2  -3   54.92    8.41
   5  -2  -3   53.12    7.44
   5  -2  -4    7.43    5.66
   5  -2  -4   -2.11    4.22
   5  -2  -4    2.82    5.63
   5  -2  -5   27.01    6.76
   5  -2  -5   35.27    7.76
   5  -2  -5   17.16    6.30
   5  -2  -6   41.83   10.38
   5  -2  -6   24.24    8.78
   5  -2  -6   29.59    6.62
   5  -2  -7   14.19   10.73
   5  -2  -7   27.27   10.84
   5  -2  -7   28.28   11.11
   5  -2  -8  -17.19    9.28
   5  -2  -8  -10.08   12.51
  -5   3   0   83.32    6.64
   5  -3   0   77.16   11.28
  -5   3   0   72.70   11.65
  -5   3   0   79.77    8.14
   5  -3   0   86.73    6.00
  -5   3   1  102.45   11.25
   5  -3  -1  114.38   13.42
  -5   3   1   94.91   12.71
   5  -3  -1  119.25    8.17
  -5   3   1   99.86    8.07
   5  -3  -2  278.85   25.13
  -5   3   2  302.33   18.27
   5  -3  -2  268.81   19.13
   5  -3  -2  256.66   19.76
   5  -3  -3  532.60   46.72
   5  -3  -3  602.93   36.90
   5  -3  -3  535.42   43.07
  -5   3   3  620.68   59.32
   5  -3  -4   81.75   12.95
   5  -3  -4   78.96    9.84
  -5   3   4   98.33   11.88
   5  -3  -4   84.36   11.66
   5  -3  -5    7.39    7.04
   5  -3  -5    6.99    5.94
   5  -3  -5    3.87    6.68
   5  -3  -6   16.67    9.22
   5  -3  -6   14.03    8.42
   5  -3  -6   19.11    6.26
   5  -3  -7   25.69   12.85
   5  -3  -7   16.23    9.67
  -5   3   8    8.23   12.35
   5  -4   0   47.43    5.62
   5  -4   0   85.36    9.34
   5  -4   0   71.26   11.24
  -5   4   0   96.03   11.33
  -5   4   0   61.83    8.30
  -5   4   0   75.28   14.78
   5  -4  -1   66.84   11.26
   5  -4  -1   63.07    7.05
  -5   4   1   59.15    8.11
  -5   4   1   53.12    5.56
   5  -4  -2   33.11    9.86
  -5   4   2   61.66   12.27
   5  -4  -2   38.02    8.80
  -5   4   2   47.06    8.72
  -5   4   3  178.50   18.19
   5  -4  -3  164.51   14.83
   5  -4  -3  168.04   17.20
   5  -4  -4  142.17   13.65
   5  -4  -4  128.08   14.45
   5  -4  -4  135.07   12.60
  -5   4   4  141.55   13.97
   5  -4  -5   12.57    8.38
   5  -4  -5   33.00    9.48
   5  -4  -5   11.48    6.96
  -5   4   5   29.62    6.98
   5  -4  -6   59.75   11.98
  -5   4   6   64.15    8.80
   5  -4  -6   46.75    8.66
  -5   4   7   77.76   10.34
   5  -4  -7   68.51   12.06
   5  -4  -7   72.66   13.89
  -5   4   8    9.23   10.26
   5  -5   0  222.72   25.38
  -5   5   0  199.92   22.28
   5  -5   0  171.58   18.53
   5  -5   0  121.38   15.75
   5  -5  -1   84.41   12.61
   5  -5  -1   83.11   10.18
  -5   5   1   81.05   11.30
  -5   5   1   93.85    7.92
   5  -5  -2   49.43    8.42
   5  -5  -2   36.82    9.82
  -5   5   2   30.96    7.75
  -5   5   2   49.37    7.94
  -5   5   3  312.65   17.74
   5  -5  -3  315.68   22.89
   5  -5  -3  287.78   23.14
  -5   5   3  294.62   20.50
  -5   5   4  272.62   24.60
   5  -5  -4  255.18   21.68
   5  -5  -4  272.65   23.27
   5  -5  -4  217.94   19.69
   5  -5  -5   75.01   10.80
   5  -5  -5   45.65    9.00
  -5   5   5   55.45    8.04
  -5   5   6    2.09    7.68
   5  -5  -6   12.06    9.99
   5  -5  -6   -2.09    8.72
  -5   5   7  114.81   13.73
  -5   6   0   12.90    6.45
   5  -6   0   36.50   13.21
   5  -6   0   23.78    7.47
   5  -6   0    3.83    6.61
  -5   6   1    2.38    5.79
   5  -6  -1    2.09   10.45
   5  -6  -1   10.11    6.97
  -5   6   2   15.72    6.15
   5  -6  -2    3.14    7.32
   5  -6  -2   -5.23    8.37
  -5   6   3   -0.35    5.63
   5  -6  -3   -4.87    5.56
  -5   6   4   79.98    8.94
  -5   6   4   55.22    8.81
   5  -6  -4   44.33   11.43
  -5   6   5   35.10    8.43
   5  -6  -5   33.52    8.99
  -5   6   6   19.50    9.58
  -5   6   7   -4.09   11.58
   5  -7   0   23.57   10.78
   5  -7   0    5.53    7.61
  -5   7   0   31.97    9.43
   5  -7  -1   10.40   10.05
  -5   7   1   25.61    9.10
  -5   7   2   11.15    7.10
   5  -7  -2    9.70    9.36
  -5   7   3   -8.14    7.46
  -5   7   4    5.44    7.81
  -5   7   6   -5.77    9.16
  -5   8   0   18.68   11.34
  -5   8   1   30.04    9.35
  -5   8   2   81.26   18.06
  -5   8   3   10.06   10.06
  -5   8   4   17.13    9.41
  -4 -11   1   -2.04   13.24
  -4 -10   1  141.29   25.34
  -4 -10   2   58.12   15.73
  -4  -9   1   66.16   13.10
  -4  -9   2   81.63   19.64
  -4  -9   3  114.86   16.87
  -4  -8   1  148.22   16.01
   4   8  -1  177.25   14.96
  -4  -8   2  413.64   33.73
  -4  -8   3  145.04   24.60
  -4  -8   4   37.29   14.50
   4   7  -1    3.49    7.68
  -4  -7   1   15.70    8.03
  -4  -7   2    6.27    7.66
   4   7  -2    4.88    7.67
  -4  -7   3   15.67   11.49
  -4  -7   4   62.15   12.16
  -4  -7   5    6.23   13.84
  -4  -6   1   21.75    7.37
   4   6  -1   20.69    8.07
   4   6  -2   24.54    6.66
  -4  -6   2   15.42    7.36
   4   6  -3   23.79    7.70
  -4  -6   3   45.82    9.45
   4   6  -4   66.98   11.87
  -4  -6   4  385.28  226.67
  -4  -6   5   38.57   11.82
  -4  -6   6   -1.04   10.73
  -4  -5   1   33.84    6.00
   4   5  -1   16.20    5.28
  -4  -5   2   29.62    8.82
   4   5  -2   24.99    7.74
  -4  -5   2   27.46    3.17
   4   5  -3  106.78   11.60
  -4  -5   3   89.43    9.54
  -4  -5   4  641.22   39.75
   4   5  -4  619.74   64.53
  -4  -5   5 1081.29  259.67
   4   5  -5  321.91   20.04
  -4  -5   6   37.15   10.42
  -4  -5   7    2.76   10.36
  -4  -4   1 2136.63  189.44
   4   4  -1 1815.54  203.34
  -4  -4   1 2111.21  125.17
  -4  -4   2  662.56   51.53
  -4  -4   2  661.31   87.71
   4   4  -2  617.22   63.61
  -4  -4   3   19.83    6.73
   4   4  -3   13.74    5.99
  -4  -4   4   21.88    8.12
   4   4  -4   33.36    7.38
  -4  -4   5   92.32   10.57
   4   4  -5   96.87   11.21
  -4  -4   6  178.58   18.19
  -4  -4   7   28.40   11.43
   4   3  -1   70.86    6.38
  -4  -3   1   75.44    6.03
  -4  -3   1   73.03    6.43
  -4  -3   2  100.95    7.88
  -4  -3   2   83.41    6.72
   4   3  -2   98.38    7.79
  -4  -3   3  110.82   10.72
   4   3  -3  103.78   14.83
  -4  -3   4   15.98    6.04
   4   3  -4   -6.33    6.33
  -4  -3   5  105.16   12.40
   4   3  -5  119.13   13.34
  -4  -3   6   52.50   10.87
   4   3  -6   52.31    9.43
  -4  -3   7   17.00    9.37
  -4  -3   8    1.04   11.04
  -4  -2   1   99.57    8.30
  -4  -2   1   84.45    7.46
   4   2  -1   83.75    8.17
  -4  -2   2   59.77   12.61
   4   2  -2   49.25   10.63
  -4  -2   2   58.43   11.33
  -4  -2   3   53.19    7.56
   4   2  -3   49.13    5.66
   4   2  -4    1.76    3.18
  -4  -2   4   -3.58    5.01
   4   2  -4    4.23    6.34
   4   2  -5    1.40    5.97
   4   2  -5    0.00    4.57
  -4  -2   5   16.70    7.46
  -4  -2   6   11.62    7.75
   4   2  -6    1.40    9.08
   4   2  -6    5.96    5.61
   4   2  -7   11.15    5.23
  -4  -2   7  433.73  181.28
   4   2  -7   13.55   10.08
  -4  -2   8   14.51   12.78
   4   1  -1   12.08    3.91
  -4  -1   1   12.81    4.03
  -4  -1   1   13.85    4.26
   4   1  -1   13.15    4.62
   4   1  -2   81.35   10.66
  -4  -1   2   74.09    6.96
   4   1  -2   88.39    6.76
  -4  -1   2   71.27    4.97
  -4  -1   3  919.71   84.65
   4   1  -3  890.74   58.30
   4   1  -3  898.54   64.61
   4   1  -4  551.90   55.69
   4   1  -4  503.68   46.31
  -4  -1   4  564.90   59.09
  -4  -1   5   73.11   15.07
   4   1  -5   50.20   10.61
   4   1  -5   59.75   14.41
   4   1  -6   13.99    6.65
   4   1  -6    8.80    5.99
  -4  -1   6    6.39    6.75
  -4  -1   7   15.45    8.08
   4   1  -7   12.52    9.04
   4   1  -7    3.15    5.60
  -4  -1   8    4.84   11.75
  -4  -1   9   -7.56   11.68
   4   0  -1  253.21   26.33
   4   0  -1  243.01   31.53
   4   0  -1  175.38   43.79
  -4   0   1  258.32   38.39
   4   0  -2  219.59   30.97
  -4   0   2  206.39   16.42
   4   0  -2  235.51   22.17
  -4   0   2  202.56   10.67
   4   0  -3  754.46   32.14
   4   0  -3  649.41   59.83
  -4   0   3  705.88   40.19
   4   0  -4   13.86    4.62
  -4   0   4   20.69    5.45
   4   0  -4   16.99    6.72
   4   0  -5  154.57   17.98
   4   0  -5  128.70   17.38
  -4   0   5  164.57   21.71
   4   0  -6   77.38   21.72
   4   0  -6   51.57   14.84
  -4   0   7  119.39   13.93
   4   0  -7  151.76   15.36
   4   0  -7  110.34   16.18
   4   0  -8  362.11   31.68
   4   0  -8  312.93   37.44
  -4   0   9   37.79   13.75
   4  -1   0  128.52   41.19
  -4   1   0  149.25   29.15
  -4   1   0   45.80    7.82
  -4   1   0   48.77   20.85
   4  -1   0   92.15   25.98
   4  -1  -1  612.96   41.89
  -4   1   1  602.60   45.85
   4  -1  -1  649.15   71.18
   4  -1  -1  623.30   42.92
  -4   1   1  573.24   28.50
   4  -1  -2   40.60    9.26
   4  -1  -2   42.97    9.32
  -4   1   2   60.64    8.87
   4  -1  -2   39.42    7.05
   4  -1  -3  264.71   15.00
   4  -1  -3  239.24   14.42
   4  -1  -3  218.22   21.44
   4  -1  -4  702.25   36.91
   4  -1  -4  707.91   41.05
   4  -1  -4  619.67   53.33
   4  -1  -5  485.01   40.54
   4  -1  -5  480.36   41.36
   4  -1  -6    3.54    6.01
   4  -1  -6   18.23    8.41
   4  -1  -6   11.14    6.83
   4  -1  -7    9.75    8.71
   4  -1  -7    3.57    8.57
   4  -1  -7   -3.17    6.34
   4  -1  -8  415.02  239.82
   4  -1  -8   56.32   10.85
   4  -1  -8   81.99   11.44
  -4   1   9  227.36   44.71
  -4   2   0   10.98    4.25
   4  -2   0    7.81    2.84
  -4   2   0    5.99    2.82
  -4   2   0   -2.48    3.90
   4  -2   0    0.71    4.25
   4  -2  -1   57.34    4.64
   4  -2  -1   44.78    5.33
  -4   2   1   54.87    5.29
  -4   2   1   57.82    5.68
  -4   2   1   60.59    4.62
   4  -2  -2  121.75    9.27
  -4   2   2  142.43   13.33
   4  -2  -2  141.02   10.59
  -4   2   2  136.75    9.94
   4  -2  -3    7.83    4.27
   4  -2  -3   25.29    5.34
   4  -2  -3   15.08    4.91
   4  -2  -4   -0.36    4.98
   4  -2  -4   -6.74    4.61
   4  -2  -4   -4.60    5.31
   4  -2  -5   51.16    7.42
   4  -2  -5   65.68    7.87
   4  -2  -5   58.94    8.53
   4  -2  -6   95.52   11.69
   4  -2  -6   85.92   11.59
   4  -2  -6  100.37   10.81
   4  -2  -7    0.00    6.97
   4  -2  -7   17.19   16.12
   4  -2  -7   20.42    7.04
   4  -2  -8    6.65   11.55
   4  -2  -8    0.00    9.34
   4  -2  -9   -3.09   13.39
   4  -2  -9   -3.47   12.16
   4  -3   0   38.47    9.44
  -4   3   0   65.32   13.98
  -4   3   0   62.75   13.48
   4  -3   0   32.91   10.62
   4  -3   0   62.26   11.32
  -4   3   0   38.95   14.17
  -4   3   1  124.26   26.91
  -4   3   1  128.50   28.61
  -4   3   1  142.75   21.46
   4  -3  -1   99.67   24.83
   4  -3  -1  122.97   26.31
   4  -3  -2  365.16   25.20
  -4   3   2  362.29   18.12
   4  -3  -2  375.99   28.84
  -4   3   2  380.83   23.63
   4  -3  -3   84.03    9.82
  -4   3   3  113.13    9.81
   4  -3  -3   95.90    8.16
   4  -3  -3   93.17    8.19
   4  -3  -4   14.57    6.40
   4  -3  -4   11.55    5.60
   4  -3  -4   12.73    4.95
   4  -3  -5   88.15   10.25
   4  -3  -5  113.78    9.54
   4  -3  -5   99.29   14.55
   4  -3  -6    5.30    7.07
   4  -3  -6    3.85    5.61
   4  -3  -6   -2.84    7.82
   4  -3  -7   13.58   10.36
   4  -3  -7   -5.92    5.92
   4  -3  -7    7.03    7.74
   4  -3  -8    4.89   10.49
   4  -3  -8    6.57    8.64
  -4   3   9    1.37    9.94
   4  -4   0   26.10    8.82
  -4   4   0   51.66   10.27
  -4   4   0   47.79    9.01
   4  -4   0   48.93    7.29
  -4   4   0   36.36   10.59
   4  -4   0   62.41    9.88
  -4   4   1  473.74   31.78
  -4   4   1  483.49   38.38
   4  -4  -1  448.91   26.65
   4  -4  -1  390.40   46.71
   4  -4  -2  510.57   41.18
  -4   4   2  530.54   36.17
   4  -4  -2  494.45   50.62
  -4   4   2  543.13   54.06
   4  -4  -3  576.65   48.91
  -4   4   3  621.80   50.01
   4  -4  -3  620.16   35.98
  -4   4   3  699.73   55.27
   4  -4  -4   15.12    5.27
  -4   4   4   12.22    5.59
   4  -4  -4    7.67    6.28
   4  -4  -4   19.49    7.44
   4  -4  -5   32.28    7.02
   4  -4  -5   33.21    7.35
   4  -4  -5   32.19    6.72
  -4   4   5   39.16    7.00
   4  -4  -6  163.07   17.35
   4  -4  -6  142.42   18.37
   4  -4  -6  130.65   10.87
   4  -4  -7  292.74   24.40
   4  -4  -7  256.89   35.52
   4  -4  -7  216.93   36.35
  -4   4   8   91.72   15.88
  -4   4   9   -0.34   10.26
   4  -5   0   26.70    8.78
   4  -5   0   76.79    8.96
   4  -5   0   51.26    9.13
  -4   5   0   39.17   12.03
   4  -5  -1   11.39    4.49
   4  -5  -1   26.76    7.04
   4  -5  -1   12.33    5.29
  -4   5   1   19.32    5.86
   4  -5  -2  312.80   32.10
  -4   5   2  326.04   18.90
   4  -5  -2  306.98   24.04
  -4   5   2  312.77   16.02
   4  -5  -3  714.75   49.27
  -4   5   3  729.08   33.30
  -4   5   3  737.30   48.98
   4  -5  -3  704.82   76.54
  -4   5   4  624.47   52.95
   4  -5  -4  547.13   40.42
   4  -5  -4  619.44   31.06
  -4   5   5   41.35    8.77
   4  -5  -5   48.35    8.71
   4  -5  -5   30.66    9.87
  -4   5   6    4.90    6.31
   4  -5  -6    2.10    7.69
   4  -5  -6   14.25    7.65
   4  -5  -6    9.49    8.08
  -4   5   7   43.24    7.76
   4  -5  -7   31.35   11.63
   4  -5  -7   57.41   11.42
  -4   5   8  190.72   20.67
   4  -6   0   40.52   11.18
   4  -6   0   48.61    8.04
  -4   6   0   49.45    8.19
   4  -6   0   32.12    7.52
   4  -6  -1    4.44    5.47
   4  -6  -1   15.08    5.96
  -4   6   1    5.13    6.83
   4  -6  -1   12.96    7.36
  -4   6   2   12.01    8.23
   4  -6  -2    5.96    7.01
   4  -6  -2   -7.37    7.02
  -4   6   3   19.64    6.55
   4  -6  -3    2.79    7.34
   4  -6  -3    0.35    7.73
  -4   6   4   64.62    8.99
  -4   6   4   57.92    9.20
   4  -6  -4   60.06   11.25
   4  -6  -4   56.30   10.09
   4  -6  -5   40.45    8.65
   4  -6  -5   26.68    8.32
  -4   6   5   41.63    7.07
  -4   6   6   10.92    6.34
   4  -6  -6    2.78    9.02
   4  -6  -6    9.32    5.87
  -4   6   7   64.30   11.70
  -4   6   8   32.48   11.97
   4  -7   0   26.08    8.00
   4  -7   0   41.32   11.46
  -4   7   0   29.11    8.80
   4  -7   0   45.76    9.16
   4  -7  -1   13.59    7.67
  -4   7   1   17.95    7.45
   4  -7  -1   11.14    9.75
   4  -7  -1    7.11    6.77
   4  -7  -2   -0.35    7.32
  -4   7   2    0.00    6.79
   4  -7  -2   -9.42    7.67
   4  -7  -3    4.52    8.34
  -4   7   3   17.04    7.84
   4  -7  -4   28.72    9.69
  -4   7   4   42.73    9.92
  -4   7   5   89.35   11.31
   4  -7  -5   78.62   12.78
   4  -7  -6    4.11    9.92
   4  -7  -6  -21.73    9.32
   4  -8   0   58.38   12.78
   4  -8   0   89.67   16.21
   4  -8   0   75.95   13.45
  -4   8   0  117.50   13.45
  -4   8   1  108.40   13.78
   4  -8  -1  103.04   12.43
   4  -8  -1   65.78   13.16
   4  -8  -2   73.06   15.24
  -4   8   2   72.60   11.44
  -4   8   3   48.53    9.10
   4  -8  -3   25.91   11.75
  -4   8   4   27.38    7.10
   4  -8  -4    6.54    9.64
  -4   8   5   52.14   11.52
  -4   9   0   14.65   12.65
  -4   9   1  178.28   22.65
  -4   9   2  123.80   15.00
  -4   9   3   22.67   11.67
  -3 -11   1    2.37   12.53
  -3 -10   1   47.46   13.66
  -3 -10   2    6.83   13.31
  -3  -9   1  399.42   51.67
  -3  -9   2   80.14   15.83
  -3  -9   3  -22.67   13.05
  -3  -9   4   34.95   15.42
  -3  -8   1   47.12    5.59
  -3  -8   1   53.18   11.48
   3   8  -1   50.58   11.09
  -3  -8   2  318.65   29.85
  -3  -8   3   38.39   11.42
  -3  -8   4   41.74   14.15
  -3  -8   5   12.72   14.44
  -3  -7   1   28.87    3.17
   3   7  -1   17.78    7.67
  -3  -7   1   24.45    4.89
   3   7  -2    0.35   12.20
  -3  -7   2    4.53    8.01
   3   7  -3   19.49    8.00
  -3  -7   3  318.68  189.56
  -3  -7   4   29.84    9.72
  -3  -7   5    9.34    9.68
  -3  -7   6   11.36   12.05
   3   6  -1   48.01    7.36
  -3  -6   1   41.05    6.67
  -3  -6   2  156.94   17.55
   3   6  -2  144.38   15.09
  -3  -6   3  117.81   12.62
   3   6  -3  117.19    9.81
   3   6  -4   16.39    8.02
  -3  -6   4   -7.67    9.41
  -3  -6   5    1.39    9.73
  -3  -6   6    7.61   11.07
  -3  -6   7   -8.26   12.39
  -3  -5   1  212.88   12.41
   3   5  -1  210.21   14.47
  -3  -5   2   39.11    9.52
   3   5  -2   41.19    8.10
  -3  -5   3  161.14   20.44
   3   5  -3  144.04   14.77
  -3  -5   4  573.55   43.77
   3   5  -4  561.73   54.03
  -3  -5   5  218.36   20.30
  -3  -5   6    5.21    9.38
  -3  -5   7   36.97   11.41
  -3  -4   1  207.82   19.16
   3   4  -1  172.15   29.70
   3   4  -2   27.91    6.01
  -3  -4   2   30.46    6.38
  -3  -4   2   30.13    2.48
  -3  -4   3  517.70   36.29
   3   4  -3  514.29   32.16
  -3  -4   4  857.01   53.37
   3   4  -4  889.91   49.44
   3   4  -5  228.49   17.58
  -3  -4   5  190.63   16.60
   3   4  -6   86.38   17.43
  -3  -4   6  659.21  232.29
  -3  -4   7    2.43    9.01
  -3  -4   8   91.32   19.35
  -3  -3   1  428.60   24.91
   3   3  -1  415.94   32.32
  -3  -3   1  453.84   26.82
   3   3  -2    9.56    4.25
  -3  -3   2   11.34    2.13
  -3  -3   2   17.45    4.63
   3   3  -3    0.35    4.95
  -3  -3   3    1.78    4.27
  -3  -3   4  136.92   11.40
   3   3  -4  125.38   10.59
   3   3  -5  595.63   56.62
  -3  -3   5  563.49   41.25
  -3  -3   6  154.10   14.11
   3   3  -6  157.82   20.99
  -3  -3   7   -2.08    9.73
  -3  -3   8   10.36   10.71
  -3  -2   1  941.75   75.33
  -3  -2   1  943.71   64.44
   3   2  -1  907.28   83.23
   3   2  -2   74.18   11.36
  -3  -2   2   84.50    8.17
  -3  -2   2   89.98   12.20
  -3  -2   3   75.95    8.97
   3   2  -3   92.79    8.16
   3   2  -3   80.83    6.74
  -3  -2   4    1.07    5.00
   3   2  -4    9.56    3.19
   3   2  -4   16.95    5.65
   3   2  -5   43.60    8.79
   3   2  -5   33.88    6.71
  -3  -2   5   24.14    7.81
   3   2  -6    9.80    6.30
   3   2  -6    6.68    3.87
  -3  -2   6   -8.80    7.40
   3   2  -7   -1.75    4.55
   3   2  -7   -3.83   10.79
  -3  -2   8   12.80   10.04
  -3  -2   9    2.41   13.41
  -3  -1   1  209.63   18.52
   3   1  -1  196.18   14.97
   3   1  -1  187.01   19.96
  -3  -1   1  192.93   21.49
   3   1  -2  565.19   49.58
  -3  -1   2  560.65   36.31
  -3  -1   2  570.35   62.27
   3   1  -2  629.75   31.42
   3   1  -3   14.93    4.98
   3   1  -3    6.06    2.49
  -3  -1   3    9.06    3.99
   3   1  -4  150.18   12.47
  -3  -1   4  154.98   18.07
   3   1  -4  148.04   18.43
  -3  -1   5   46.53    6.81
   3   1  -5   33.14    7.05
   3   1  -5   36.57    4.62
   3   1  -6  278.72   19.87
   3   1  -6  236.43   42.13
  -3  -1   6  227.05   19.68
  -3  -1   7   32.65    7.38
   3   1  -7   30.97    5.63
   3   1  -7   40.11    9.42
   3   1  -8    1.39    9.70
   3   1  -8   13.64    8.39
  -3  -1   9   12.74   12.39
   3   0  -1  219.59   17.02
  -3   0   1  211.18   14.97
   3   0  -1  213.26   18.91
  -3   0   2 2909.71  176.37
   3   0  -2 2864.43  137.53
   3   0  -2 2780.19  238.80
  -3   0   2 2972.65  219.63
  -3   0   3 3431.03  285.77
   3   0  -3 3489.25  160.68
   3   0  -3 3197.49  271.35
   3   0  -4  656.68   59.53
   3   0  -4  707.32   45.47
   3   0  -5   14.97    5.35
  -3   0   5   24.55    8.31
   3   0  -5   32.90    7.43
  -3   0   6   26.48    6.80
   3   0  -6   32.32    4.97
   3   0  -6   46.08    8.80
   3   0  -7  365.22   36.11
   3   0  -7  345.94   41.03
  -3   0   7  327.90   44.47
   3   0  -8  263.48   20.98
  -3   0   8 1089.98  303.12
   3   0  -8  215.26   39.35
  -3   0   9   71.69   13.13
  -3   1   0  671.77   56.33
   3  -1   0  695.61   62.34
  -3   1   0  481.69   34.23
  -3   1   0  674.92  117.65
   3  -1   0  633.70   65.02
   3  -1  -1  154.07   26.17
   3  -1  -1  167.77   17.14
  -3   1   1  165.22   17.46
  -3   1   2   88.22    6.06
   3  -1  -2   99.95    8.20
   3  -1  -2   94.67    7.24
   3  -1  -2   92.66    6.81
   3  -1  -3   12.89    3.94
   3  -1  -3    3.23    3.59
   3  -1  -3    8.27    3.24
   3  -1  -4  834.03   70.54
   3  -1  -4  949.02   49.64
   3  -1  -4  956.52   44.98
  -3   1   5  594.99   96.01
   3  -1  -5  713.07   71.55
   3  -1  -5  569.63   76.39
   3  -1  -6   -1.41    5.64
  -3   1   6    7.20    6.84
   3  -1  -6    8.19    5.34
   3  -1  -7  192.60   16.87
  -3   1   7  123.18   12.59
   3  -1  -7  155.15   15.96
   3  -1  -8   13.03    8.80
  -3   1   8    6.71    9.89
   3  -1  -8    3.48    9.39
   3  -1  -9   -5.94    8.74
   3  -1  -9    0.34   10.00
  -3   1  10   23.96   13.69
   3  -2   0  147.60    8.56
   3  -2   0  136.69    7.44
   3  -2   0  143.69    8.90
  -3   2   0  143.90    9.56
  -3   2   0  130.94    8.56
  -3   2   0  129.52    8.23
  -3   2   1  215.34   18.79
   3  -2  -1  224.13   18.96
   3  -2  -1  206.27   18.57
  -3   2   1  202.78   14.25
   3  -2  -2   60.16    7.75
  -3   2   2   75.50    8.79
   3  -2  -2   57.61    6.09
  -3   2   2   61.37    7.86
   3  -2  -3  113.69    8.85
   3  -2  -3  104.44    8.26
   3  -2  -3  107.83    7.18
   3  -2  -4   70.79    6.43
   3  -2  -4   68.40    6.46
   3  -2  -4   67.47    7.87
   3  -2  -5    0.00    4.62
   3  -2  -5    3.22    5.00
   3  -2  -5   -1.43    4.30
   3  -2  -6   18.53    7.13
   3  -2  -6   -3.53    5.65
   3  -2  -7   14.03    7.01
   3  -2  -7   12.55    7.17
   3  -2  -7   21.27    8.16
   3  -2  -8   51.85   10.10
   3  -2  -8   45.23    9.29
   3  -2  -8   61.32   13.40
   3  -2  -9   81.12   14.86
   3  -2  -9   53.19   15.05
  -3   2  10   24.30   14.72
  -3   3   0  378.71   37.14
  -3   3   0  343.45   49.39
   3  -3   0  314.02   51.11
   3  -3   0  407.12   17.99
   3  -3   0  319.16   42.97
  -3   3   0  389.92   32.09
  -3   3   1  154.74   22.57
  -3   3   1  162.48   25.21
   3  -3  -1  148.94   19.25
  -3   3   1  152.71   25.22
   3  -3  -1  126.93   22.83
  -3   3   2   70.87    5.33
  -3   3   2   67.69    6.01
   3  -3  -2   72.17    6.80
   3  -3  -2   67.97    6.03
  -3   3   3    2.84    3.55
  -3   3   3    2.10    4.20
   3  -3  -3    6.44    5.01
   3  -3  -3   -2.45    4.91
   3  -3  -4  155.76    9.66
   3  -3  -4  152.41   11.13
   3  -3  -4  160.33   12.68
   3  -3  -5  183.40   17.78
   3  -3  -5  183.95   22.89
   3  -3  -5  134.45   32.92
   3  -3  -6  163.33   22.16
   3  -3  -6  174.83   20.34
   3  -3  -6  210.02   21.23
   3  -3  -7    0.35    5.96
   3  -3  -7   18.97   10.03
   3  -3  -7   12.76    7.80
   3  -3  -8    1.39    6.61
   3  -3  -8   18.95   23.24
   3  -3  -8    7.05   10.22
   3  -3  -9    5.25   10.50
   3  -3  -9   15.19    9.67
  -3   3  10   19.50   13.35
  -3   4   0  298.29   21.96
   3  -4   0  301.81   15.26
   3  -4   0  323.61   19.57
   3  -4   0  299.12   21.62
  -3   4   0  293.65   14.60
  -3   4   1 1075.54   76.27
   3  -4  -1 1114.97   67.73
   3  -4  -1 1022.63   61.60
  -3   4   1 1069.34   58.92
   3  -4  -1 1043.81   54.00
  -3   4   2 1473.72  102.14
   3  -4  -2 1443.85  103.14
   3  -4  -2 1478.02   73.70
  -3   4   2 1475.28   72.08
  -3   4   3  380.61   38.84
   3  -4  -3  367.06   27.50
   3  -4  -3  340.44   25.76
  -3   4   3  352.58   31.82
  -3   4   4   18.93    5.61
   3  -4  -4   16.06    5.35
  -3   4   4   24.75    5.66
   3  -4  -4   13.97    5.59
   3  -4  -5   32.22    9.11
   3  -4  -5   35.64   11.76
  -3   4   5   30.84   11.92
   3  -4  -5   46.63    8.84
   3  -4  -6  133.43   17.28
   3  -4  -6  127.77   16.28
   3  -4  -6  152.82   18.52
   3  -4  -7  200.62   41.34
   3  -4  -7  192.06   22.17
   3  -4  -7  282.42   38.66
   3  -4  -8    9.85   12.32
   3  -4  -8   11.82    9.73
  -3   4   9   22.76   10.69
  -3   4  10   33.49   11.97
  -3   5   0   34.50    6.90
   3  -5   0   38.08    6.00
   3  -5   0   50.54    5.89
   3  -5   0   36.67    6.35
   3  -5  -1  112.87   14.16
   3  -5  -1  106.66   11.09
   3  -5  -1   92.73   10.98
  -3   5   1  101.01   11.43
   3  -5  -2  357.39   21.00
  -3   5   2  400.10   23.40
  -3   5   2  359.75   28.08
   3  -5  -2  361.42   32.59
  -3   5   3  252.88   15.80
  -3   5   3  249.87   14.27
   3  -5  -3  247.07   20.09
   3  -5  -3  224.66   18.88
  -3   5   4   44.14    8.83
   3  -5  -4   44.66    9.78
   3  -5  -4   55.47    9.25
  -3   5   4   54.38    8.08
   3  -5  -5  152.73   16.03
  -3   5   5  162.91   12.39
   3  -5  -5  158.45   19.90
   3  -5  -5  145.69   11.27
   3  -5  -6  146.80   13.70
   3  -5  -6  164.43   15.83
  -3   5   6  157.76   12.74
   3  -5  -6  164.75   18.48
  -3   5   7   57.47    7.09
   3  -5  -7   56.16    9.43
   3  -5  -7   39.15   10.59
   3  -5  -7   60.70   13.78
  -3   5   8    2.43   10.40
  -3   5   9  -12.73   10.32
  -3   6   0   15.08    5.48
   3  -6   0   36.45    6.54
   3  -6   0   25.26    5.97
   3  -6   0    9.48    7.02
  -3   6   1   68.59    7.90
   3  -6  -1   46.71    6.87
   3  -6  -1   39.44    7.40
   3  -6  -1   34.16    6.69
   3  -6  -2  140.86   14.45
   3  -6  -2  107.69   12.37
  -3   6   2  138.08   10.01
   3  -6  -3  108.35   12.29
   3  -6  -3   97.61   10.27
  -3   6   4    7.30    6.60
  -3   6   4    9.20    4.95
   3  -6  -4   11.32    8.85
   3  -6  -4   13.24    6.27
  -3   6   5    6.37    4.25
   3  -6  -5   15.27    9.37
   3  -6  -5   19.09    9.90
   3  -6  -6   41.01   19.12
   3  -6  -6   27.52   12.35
   3  -6  -6   35.14    8.01
  -3   6   6   24.06    5.66
  -3   6   7  208.47   17.10
   3  -6  -7  246.94   17.79
  -3   6   8  116.62   13.83
  -3   7   0    9.53    7.49
   3  -7   0   22.32    7.67
   3  -7   0   23.40    6.29
   3  -7   0   13.32    7.17
  -3   7   1    3.06    7.48
   3  -7  -1    0.35    7.00
   3  -7  -1    2.10    6.30
   3  -7  -1    2.72    5.45
  -3   7   2   28.98    7.50
   3  -7  -2   26.97    7.71
   3  -7  -2   22.46    8.07
   3  -7  -2   29.66    5.80
   3  -7  -3    5.24    6.28
   3  -7  -3    0.35    8.09
  -3   7   3   13.69    6.85
   3  -7  -4    4.17    9.72
   3  -7  -4    6.33    9.85
  -3   7   4    6.19    7.56
  -3   7   5   25.50    8.27
   3  -7  -5   24.89   12.79
  -3   7   6    6.55    8.62
   3  -7  -6   11.06   10.37
   3  -7  -7    4.82    7.23
   3  -7  -7  851.84  257.74
   3  -8   0  141.95   19.79
   3  -8   0  164.27   20.36
  -3   8   0  166.86   18.61
   3  -8   0  172.23   22.54
  -3   8   1   78.95   11.82
   3  -8  -1   51.67    8.11
   3  -8  -1   65.01   10.43
   3  -8  -1   57.42   11.14
   3  -8  -2    6.27    9.05
   3  -8  -2    1.35    6.75
   3  -8  -2   -1.39    7.67
  -3   8   2   22.29    7.43
  -3   8   3   40.30    9.15
   3  -8  -3   30.90    9.72
   3  -8  -3   13.96    8.03
  -3   8   4  132.86   14.29
   3  -8  -4  105.06   15.56
   3  -8  -5   23.40   13.42
  -3   8   5   86.21   10.92
  -3   8   6   -6.48   10.58
  -3   8   8   35.68   12.58
  -3   9   0   41.21   11.39
   3  -9   0   43.69   15.83
  -3   9   1   66.24   13.72
  -3   9   2   43.83   11.71
  -3   9   3    6.37    8.38
  -3   9   4  200.57   20.53
  -3   9   5  146.84   17.87
  -3   9   6  214.85   25.68
  -2 -10   1  -10.90   10.90
  -2 -10   2    8.85   11.23
   2   9  -1   91.99   13.06
  -2  -9   1  103.24   10.06
  -2  -9   2   11.33   10.64
  -2  -9   3   87.07   15.10
  -2  -9   4  107.73   19.51
  -2  -8   1  107.50   19.49
  -2  -8   1  114.77   13.62
   2   8  -1  147.29   15.93
  -2  -8   2   97.51   12.12
  -2  -8   3    7.60    9.32
  -2  -8   4  110.24   21.37
  -2  -8   5  130.47   28.18
  -2  -7   1   59.43    8.75
  -2  -7   1   51.27    4.57
   2   7  -1   67.87    8.36
  -2  -7   2   -5.92    8.36
   2   7  -2    5.22    6.61
  -2  -7   3    5.90    9.02
   2   7  -3   16.69    8.34
  -2  -7   4    1.39    9.01
  -2  -7   5    4.49    9.67
  -2  -7   6    9.29   11.35
   2   6  -1   59.16    7.01
  -2  -6   1   37.21    6.32
  -2  -6   1   33.59    2.83
   2   6  -2   64.78    8.76
  -2  -6   2   83.00   11.22
  -2  -6   3   93.62   11.89
   2   6  -3  102.43    9.80
  -2  -6   4   -3.13    8.70
   2   6  -4   -5.23    5.23
  -2  -6   5   15.63    7.29
  -2  -6   6    2.77   10.03
  -2  -6   7    4.82    6.88
  -2  -5   1  365.11   24.76
   2   5  -1  374.36   23.30
  -2  -5   2  788.27   73.04
   2   5  -2  732.31   45.18
  -2  -5   3  342.04   28.92
   2   5  -3  306.65   22.18
  -2  -5   4  250.30   21.82
   2   5  -4  139.36   31.17
   2   5  -5   16.74   10.46
  -2  -5   5    6.98    9.42
  -2  -5   6  116.99   14.28
  -2  -5   7   85.32   14.21
  -2  -5   8   42.25   14.45
   2   4  -1   19.08    5.65
  -2  -4   1   11.32    4.25
  -2  -4   2   21.23    4.96
   2   4  -2   21.20    4.59
   2   4  -3 1575.60   94.76
  -2  -4   3 1525.59   84.43
  -2  -4   4  589.29   36.94
   2   4  -4  647.64   35.67
  -2  -4   5   88.48   12.31
   2   4  -5   94.49    9.47
  -2  -4   6   -3.14   10.47
   2   4  -6   52.95    9.42
  -2  -4   7   23.22    9.02
  -2  -4   8   15.85   13.10
   2   3  -1  168.47   23.42
  -2  -3   1  192.18   16.02
  -2  -3   2   28.81    5.34
   2   3  -2   36.15    4.96
  -2  -3   3   60.06    6.05
   2   3  -3   70.01    6.37
  -2  -3   4  208.11   25.57
   2   3  -4  213.58   20.47
  -2  -3   5  115.05   30.01
   2   3  -5  136.21   25.29
   2   3  -6    5.94    7.69
  -2  -3   6   11.57    9.82
  -2  -3   7    1.04    9.04
  -2  -3   8   63.59   14.20
  -2  -3   9   33.32   13.75
   2   2  -1   60.11    4.63
  -2  -2   1   57.81    4.65
  -2  -2   1   50.53    3.56
  -2  -2   2   69.72    7.16
   2   2  -2   71.42    6.76
   2   2  -3   90.19    6.40
  -2  -2   3   93.67    8.60
   2   2  -3   95.39    8.88
   2   2  -4  102.54    7.46
  -2  -2   4   98.79   12.50
   2   2  -4  113.49   12.74
  -2  -2   5   25.20    6.39
   2   2  -5   38.39    7.05
   2   2  -5   19.83    2.83
  -2  -2   6   -6.70    4.93
   2   2  -6   13.05    2.82
   2   2  -6    4.91    5.96
   2   2  -7   -1.05    8.02
  -2  -2   7    5.59    8.03
   2   2  -7   -1.40    2.81
  -2  -2   8   10.39    9.01
  -2  -2   9    8.26   10.67
  -2  -1   1 2418.55  202.40
   2   1  -1 2421.88  147.13
   2   1  -1 2388.43  162.00
  -2  -1   1 2423.68  173.37
   2   1  -2 1159.27   63.34
  -2  -1   2 1159.14  102.25
  -2  -1   2 1068.30   50.47
   2   1  -2 1146.97  106.91
   2   1  -3   70.81    4.66
  -2  -1   3   55.60   10.84
   2   1  -3   64.50    7.85
   2   1  -4   93.69    5.02
  -2  -1   4   67.27    7.93
   2   1  -4   85.95    8.89
  -2  -1   5  272.19   44.77
   2   1  -5  307.98   32.93
   2   1  -5  269.06   30.36
  -2  -1   6  268.29   26.40
   2   1  -6  300.38   35.58
   2   1  -6  333.10   33.47
  -2  -1   7   50.61    9.86
   2   1  -7   74.12   15.05
   2   1  -7   65.77    7.44
   2   1  -8   -5.21    9.03
   2   1  -8    3.51    5.27
  -2  -1   9    0.69   10.69
  -2  -1  10  -12.67   13.36
   2   0  -1   64.01    5.01
  -2   0   1   57.81    4.64
   2   0  -1   64.55    5.46
  -2   0   1   63.62    4.79
   2   0  -2  852.22   83.60
  -2   0   2  908.74   76.55
   2   0  -2  901.23   48.19
   2   0  -3 2680.64  218.08
   2   0  -3 2913.69  123.94
  -2   0   3 2863.88  224.97
  -2   0   4  117.74   30.90
   2   0  -4  122.92   16.19
   2   0  -4  110.43   19.67
  -2   0   5  303.23   22.53
   2   0  -5  355.47   24.84
   2   0  -5  347.52   33.11
   2   0  -6  184.34   15.58
  -2   0   6  157.51   14.40
   2   0  -6  194.76   15.42
  -2   0   7   -7.80    7.44
   2   0  -7   43.01   24.17
   2   0  -7   34.03   19.65
   2   0  -8   24.03   20.55
  -2   0   8   19.26    9.46
   2   0  -8   92.17   25.79
   2   0  -9    1.38   10.03
   2   0  -9    2.10    7.71
  -2   0  10   50.77   18.54
  -2   1   0   92.88    5.72
  -2   1   0  102.37    9.65
  -2   1   0  107.78    6.79
   2  -1   0   96.76    7.87
   2  -1   0  111.77    6.43
   2  -1   0  105.26    9.28
   2  -1  -1  356.90   20.10
  -2   1   1  326.36   17.18
   2  -1  -1  349.05   26.66
   2  -1  -2 1173.29   95.05
   2  -1  -2 1183.22   74.06
   2  -1  -2 1195.57   67.06
   2  -1  -3  622.52   38.87
   2  -1  -3  619.87   31.69
   2  -1  -3  646.95   26.86
  -2   1   4   39.25    9.82
   2  -1  -4   47.03    7.19
   2  -1  -4   34.24    8.29
  -2   1   5   43.52   16.69
   2  -1  -5   41.40   16.42
   2  -1  -5   30.94   11.52
   2  -1  -6  381.42   30.95
  -2   1   6  408.10   27.32
   2  -1  -6  442.08   35.29
   2  -1  -7  373.46   38.98
  -2   1   7  345.97   30.63
   2  -1  -7  369.53   43.37
  -2   1   8  198.69   24.21
   2  -1  -8  251.81   23.50
   2  -1  -8  205.90   49.64
   2  -1  -9   12.31   10.90
   2  -1  -9   13.17   11.43
  -2   1  10  -12.71   11.68
   2  -2   0    9.54    2.47
  -2   2   0   10.22    2.47
  -2   2   0   12.46    2.85
  -2   2   0   11.06    2.85
   2  -2   0   12.10    2.85
   2  -2   0   10.35    2.85
  -2   2   1   13.17    2.49
  -2   2   1    9.59    2.84
  -2   2   1   11.06    3.21
   2  -2  -1   20.02    2.86
   2  -2  -1   15.77    3.59
  -2   2   2   42.88    4.65
   2  -2  -2   49.67    4.59
   2  -2  -2   59.74    4.68
   2  -2  -3  126.95    9.40
   2  -2  -3  142.80   10.81
   2  -2  -3  137.19    9.62
   2  -2  -4  113.35    9.36
   2  -2  -4  102.30    9.70
   2  -2  -4  123.02    7.98
   2  -2  -5   13.69    4.68
   2  -2  -5   14.65    5.72
   2  -2  -5   10.45    3.60
   2  -2  -6    7.18    4.67
   2  -2  -6    4.97    4.97
   2  -2  -6    9.01    5.05
   2  -2  -7   11.29    6.00
   2  -2  -7    6.47    7.18
   2  -2  -7   19.30    6.43
   2  -2  -8   30.80    8.05
   2  -2  -8   36.36    9.64
   2  -2  -8   31.96   10.66
   2  -2  -9   22.21    9.87
   2  -2  -9   46.85   10.07
  -2   2  10    3.44   13.07
  -2   3   0  289.30   17.27
  -2   3   0  289.69   14.67
   2  -3   0  278.56   15.68
   2  -3   0  286.10   13.78
   2  -3   0  265.04   12.14
  -2   3   1  104.85    7.50
  -2   3   1  105.54    9.20
   2  -3  -1  112.21   10.38
   2  -3  -1  104.48    7.78
   2  -3  -1  102.39    7.17
  -2   3   2   22.03    3.56
  -2   3   2   23.39    2.84
   2  -3  -2   24.82    3.90
   2  -3  -2   19.77    3.95
  -2   3   3   23.53    3.92
   2  -3  -3   17.65    4.32
  -2   3   3   20.73    3.52
   2  -3  -3   19.65    4.21
   2  -3  -4   92.15    6.81
   2  -3  -4   58.05    8.46
   2  -3  -4   87.23    8.31
   2  -3  -5  150.17   27.49
   2  -3  -5   62.50   27.70
   2  -3  -5  115.59   33.50
   2  -3  -6   75.77   27.30
   2  -3  -6   69.27   26.29
   2  -3  -6   35.78    8.95
   2  -3  -7   -1.77    5.30
   2  -3  -7    1.79    5.36
   2  -3  -7    4.31    7.18
   2  -3  -8   16.12    7.36
   2  -3  -8   12.53    7.88
   2  -3  -8    3.20    7.46
   2  -3  -9   -2.08    8.34
   2  -3  -9    4.94    9.88
   2  -3 -10    4.82   11.02
   2  -3 -10    0.00   10.85
  -2   4   0  649.72   61.46
   2  -4   0  604.00   81.21
   2  -4   0  610.38   71.08
   2  -4   0  719.88   38.33
  -2   4   1  246.88   19.64
   2  -4  -1  251.62   13.00
   2  -4  -1  253.14   12.88
   2  -4  -1  272.16   15.73
  -2   4   2   20.08    4.23
  -2   4   2   23.77    3.20
   2  -4  -2   23.81    4.62
   2  -4  -2   22.94    4.30
  -2   4   3   42.86    5.32
  -2   4   3   48.87    4.61
   2  -4  -3   36.23    5.28
   2  -4  -3   42.75    4.68
  -2   4   4  737.32   43.92
  -2   4   4  770.93   57.21
   2  -4  -4  769.91   41.29
   2  -4  -4  784.66   50.26
   2  -4  -5  417.05   26.79
   2  -4  -5  391.91   34.17
   2  -4  -5  390.26   50.41
   2  -4  -6   53.77    8.86
   2  -4  -6   70.27    7.91
   2  -4  -7    7.41    7.05
   2  -4  -7   -4.64    5.00
   2  -4  -7   14.26    8.55
   2  -4  -8   83.01   10.53
   2  -4  -8   45.42   11.82
   2  -4  -8   40.13   11.73
   2  -4  -9   97.62   11.85
   2  -4  -9   73.36   23.29
  -2   4  10   82.95   12.08
  -2   5   0  564.05   34.83
   2  -5   0  530.05   36.10
   2  -5   0  547.75   32.91
   2  -5   0  522.05   29.08
  -2   5   1  916.68   71.33
   2  -5  -1  973.06   66.87
   2  -5  -1  933.29   56.82
   2  -5  -1  924.99   41.39
  -2   5   2  645.31   46.52
   2  -5  -2  611.27   40.93
   2  -5  -2  590.74   46.46
   2  -5  -2  604.34   38.99
  -2   5   3   84.97    6.75
   2  -5  -3   79.27    7.42
  -2   5   3   73.36    7.03
   2  -5  -3   62.27    7.52
  -2   5   4   41.82    4.97
   2  -5  -4   44.37    7.00
   2  -5  -4   39.41    7.17
  -2   5   5  664.47   37.67
   2  -5  -5  654.67   55.76
  -2   5   5  671.30   34.94
   2  -5  -5  706.99   40.50
  -2   5   6 1629.63  145.79
   2  -5  -6 1762.14  210.58
   2  -5  -6 1525.56  112.25
   2  -5  -6 1791.55  172.03
   2  -5  -7   87.51   10.57
   2  -5  -7   87.23   14.16
   2  -5  -7   78.01   16.76
   2  -5  -8   20.62    9.44
   2  -5  -8    9.25   10.67
   2  -5  -8   17.01   10.99
  -2   5   9   -5.55    8.32
  -2   5  10   58.44   13.42
   2  -6   0   -3.52    4.93
  -2   6   0    3.44    5.51
   2  -6   0    1.76    4.58
   2  -6   0    8.66    4.51
  -2   6   1   39.24    6.55
   2  -6  -1   41.69    6.36
   2  -6  -1   33.83    6.91
   2  -6  -1   33.62    6.72
  -2   6   2  117.78    9.35
   2  -6  -2  103.56   10.62
   2  -6  -2   89.78    8.99
   2  -6  -2   96.59    7.82
   2  -6  -3  177.31   18.32
  -2   6   3  200.75   13.59
   2  -6  -3  178.72   14.62
  -2   6   4    8.38    5.93
   2  -6  -4   12.12    7.84
   2  -6  -4    9.78    5.94
  -2   6   5   14.87    3.54
  -2   6   5   16.45    7.00
   2  -6  -5   19.46    8.34
   2  -6  -5   22.81    8.56
  -2   6   6   74.25   15.07
  -2   6   6   86.93    6.42
   2  -6  -6   89.70   12.13
   2  -6  -6   75.48   13.93
   2  -6  -7   58.11   11.57
  -2   6   7   60.99    6.41
   2  -6  -7   68.15    9.45
   2  -6  -7   41.88   12.07
  -2   6   8   67.32    6.08
   2  -6  -8   60.88   10.80
   2  -6  -8    6.35   13.77
  -2   6   9    9.33   11.41
  -2   6  10   89.46   17.51
   2  -7   0    0.35    4.55
  -2   7   0    9.92    5.82
   2  -7   0    6.31    6.31
   2  -7   0   14.12    6.20
  -2   7   1   10.93    6.15
   2  -7  -1    8.44    5.98
   2  -7  -1    9.85    5.63
   2  -7  -1   20.22    5.83
  -2   7   2   -5.82    5.82
   2  -7  -2    2.81    5.98
   2  -7  -2    4.45    4.11
   2  -7  -2    2.12    6.35
  -2   7   3    6.53    6.53
   2  -7  -3   14.02    6.66
   2  -7  -3   12.03    7.08
  -2   7   4   -3.11    7.60
   2  -7  -4    3.14    6.27
   2  -7  -4   10.28    8.86
  -2   7   5   -7.28    7.62
   2  -7  -5    2.42    7.62
   2  -7  -5   15.59    9.22
  -2   7   6   22.91    8.68
   2  -7  -6   21.10    9.00
   2  -7  -6   26.55    9.56
   2  -7  -7   21.53   11.12
   2  -7  -7   64.15    9.03
  -2   7   8    7.95   11.06
  -2   7   9   -5.16   12.03
  -2   8   0   72.01   11.90
   2  -8   0   60.61   10.11
   2  -8   0   43.49   11.14
   2  -8   0   75.51    9.25
  -2   8   1   -4.41    6.78
   2  -8  -1  -12.93    7.34
   2  -8  -1    4.76    5.78
   2  -8  -1    5.24    8.03
  -2   8   2  169.95   14.96
   2  -8  -2  145.81   17.50
   2  -8  -2  140.43   11.22
   2  -8  -2  124.76   15.78
  -2   8   3  362.86   26.27
   2  -8  -3  240.97   33.50
   2  -8  -3  289.82   28.84
  -2   8   4  387.10   21.28
   2  -8  -4  200.86   42.34
   2  -8  -4  311.37   29.26
  -2   8   5  233.65   17.53
  -2   8   6    7.55    9.96
   2  -8  -6  -28.56    9.98
  -2   8   7   22.67    9.96
  -2   8   8   33.93   12.68
  -2   8   9   12.62   12.28
  -2   9   0  109.53   16.87
   2  -9   0  115.48   14.26
   2  -9   0  100.19   11.41
   2  -9  -1   53.05   11.10
  -2   9   1   71.66   12.12
   2  -9  -1   50.24    9.79
  -2   9   2   18.50    8.74
   2  -9  -2   -4.71    5.72
   2  -9  -2    0.00    8.00
  -2   9   3   43.10    9.43
   2  -9  -3   33.11    9.41
  -2   9   4  178.93   16.24
  -2   9   5  173.38   18.32
  -2   9   6   27.49   13.24
  -2   9   7   27.52   20.04
  -2   9   8   14.59   12.22
  -2  10   0   26.73   13.70
  -2  10   1   95.41   15.03
  -2  10   2   -1.33   11.00
  -2  10   3   16.01   19.34
  -2  10   4   44.42   17.37
  -2  10   5   95.07   15.41
  -1 -10   1   38.69   10.19
  -1 -10   2   58.72   15.28
  -1  -9   1   36.36    6.58
   1   9  -1   28.75    8.90
  -1  -9   2   83.87   14.05
  -1  -9   3  149.11   19.52
  -1  -9   4  174.39   27.00
  -1  -8   1   48.73    9.40
  -1  -8   1   35.55    5.58
   1   8  -1   46.56   12.42
  -1  -8   3   42.74   12.76
  -1  -8   4   91.82   19.61
  -1  -8   5   62.04   15.44
  -1  -7   1    7.34    6.29
  -1  -7   1    7.36    3.51
   1   7  -1   17.01    6.95
   1   7  -2   -2.08    6.95
  -1  -7   2   13.23    7.66
  -1  -7   3  -20.81    8.67
   1   7  -3    8.33    8.33
  -1  -7   4   25.62    9.70
  -1  -7   5   15.18    8.28
  -1  -7   6    6.87   10.99
  -1  -6   1   93.06   11.60
  -1  -6   1   88.17    5.30
   1   6  -1  111.10   10.50
  -1  -6   2   31.50    7.70
   1   6  -2   35.67    6.65
  -1  -6   3   32.11    9.08
   1   6  -3   40.51    9.08
  -1  -6   4   13.91    9.39
   1   6  -4   21.94    7.66
  -1  -6   5    2.78    9.37
  -1  -6   6   -2.42    9.33
  -1  -6   7   -1.72   11.69
  -1  -5   1 1124.93   79.48
  -1  -5   1 1045.79   41.97
   1   5  -1 1050.02   59.31
  -1  -5   2  919.55   81.05
   1   5  -2  910.55   55.05
  -1  -5   3  161.17   11.98
   1   5  -3  148.13   12.66
   1   5  -4   12.25    7.00
  -1  -5   4   10.16    8.76
  -1  -5   5   29.65   10.47
   1   5  -5   12.20   11.15
  -1  -5   6   35.74   18.74
  -1  -5   7   39.70   12.44
  -1  -5   8   -1.72   13.05
  -1  -4   1  303.39   20.21
  -1  -4   1  259.29   11.07
   1   4  -1  295.45   20.18
  -1  -4   2  243.20   19.84
   1   4  -2  222.50   13.82
  -1  -4   3  755.03   76.77
   1   4  -3  715.53   71.98
  -1  -4   4  410.85   40.62
   1   4  -4  398.41   25.04
  -1  -4   5   35.80   11.24
   1   4  -5    7.00    8.05
   1   4  -6  469.85   33.70
  -1  -4   6  390.22   25.72
  -1  -4   7  293.84   27.24
  -1  -4   8   19.30   11.37
  -1  -4   9   -2.06   11.99
  -1  -3   1    6.74    3.55
   1   3  -1    7.09    3.54
  -1  -3   2  151.30   11.75
   1   3  -2  143.90   10.65
  -1  -3   3  243.89   22.41
   1   3  -3  243.66   17.01
  -1  -3   4  196.63   13.53
   1   3  -4  231.96   16.61
   1   3  -5   73.04   11.95
  -1  -3   5   70.23   14.13
  -1  -3   6   10.88    7.72
   1   3  -6   27.61    7.69
  -1  -3   7  629.90  220.86
   1   3  -7   99.79   15.68
  -1  -3   8  131.71   23.23
  -1  -3   9   63.56   16.87
   1   2  -1    2.85    2.49
  -1  -2   1    2.14    2.85
   1   2  -2    6.04    3.55
  -1  -2   2   12.13    3.57
   1   2  -3  231.35   20.61
  -1  -2   3  253.42   18.27
   1   2  -3  226.30    8.57
  -1  -2   4   42.76    6.42
   1   2  -4   47.41    6.73
   1   2  -4   49.18    3.22
  -1  -2   5   26.97    7.10
   1   2  -5   40.19    8.46
   1   2  -5   43.07    4.28
  -1  -2   6    1.41    5.64
   1   2  -6   -1.75    6.32
   1   2  -6    3.55    2.84
  -1  -2   7   -2.80    9.45
   1   2  -7   19.54    7.33
   1   2  -7   13.40    3.17
   1   2  -8    1.04    9.71
   1   2  -8    2.80    3.50
  -1  -2   9   -3.10   10.68
  -1  -2  10    0.34   11.98
  -1  -1   1 1043.11   75.46
  -1  -1   1  989.92   43.71
   1   1  -1 1058.26   88.30
   1   1  -1  976.10   63.26
  -1  -1   2  311.15   22.76
   1   1  -2  302.29   25.78
   1   1  -2  302.42   12.99
  -1  -1   3  212.03   16.99
   1   1  -3  222.00   20.38
   1   1  -3  223.64   13.78
   1   1  -4  387.16   57.33
  -1  -1   4  343.75   74.40
  -1  -1   5   93.32   25.04
   1   1  -5  115.15   21.98
   1   1  -6  163.99   58.02
  -1  -1   6   60.73   39.43
   1   1  -6  130.41   54.99
  -1  -1   7   14.43   22.18
   1   1  -7    7.01    7.01
   1   1  -7    9.61    4.27
   1   1  -8   10.44    9.05
   1   1  -8   18.37    5.30
  -1  -1   9   72.23   13.86
  -1  -1  10  -21.95   11.33
  -1   0   1 1037.20   84.76
   1   0  -1  963.09   80.41
  -1   0   1  975.56   52.44
   1   0  -1  968.84   57.60
   1   0  -2   43.43    3.27
  -1   0   2   50.86    5.87
   1   0  -2   53.97    5.09
  -1   0   3  127.62   22.01
  -1   0   4  342.46   23.02
   1   0  -4  346.79   24.85
  -1   0   5 1462.74  107.85
   1   0  -5 1449.03  142.56
  -1   0   6  711.48   43.47
   1   0  -6  767.08   74.57
  -1   0   7  105.06   11.41
   1   0  -7  147.45   16.93
   1   0  -8    5.94    8.73
   1   0  -8    6.40    7.47
  -1   0   8   -2.46    9.48
   1   0  -9   14.45    5.99
   1   0  -9    9.36   10.40
  -1   0  10   48.14   17.21
   1  -1   0   78.39    5.36
  -1   1   0   73.38    4.28
  -1   1   0   78.44    4.66
  -1   1   0   70.47    3.94
   1  -1   0   72.13    4.28
   1  -1   0   69.76    4.66
  -1   1   1 1104.27   73.03
   1  -1  -1 1101.30   82.00
   1  -1  -1 1116.17   62.89
  -1   1   2 2583.25  189.15
  -1   1   3  224.41   13.51
   1  -1  -4   23.07    5.05
  -1   1   4   27.34    5.11
  -1   1   5   18.53    8.72
   1  -1  -5    5.38    6.81
  -1   1   6  361.02   55.60
  -1   1   7  314.33   21.01
   1  -1  -7  343.53   33.32
   1  -1  -8  113.26   16.86
  -1   1   8   94.58   13.51
   1  -1  -9    0.00   12.52
   1  -1  -9    9.92    8.50
   1  -1 -10   35.17   11.73
   1  -1 -10   16.14    9.47
  -1   1  11  -15.72   13.67
   1  -2   0  230.19   23.15
  -1   2   0  232.80   12.21
   1  -2   0  261.14   15.63
   1  -2   0  238.10   15.06
  -1   2   0  242.55   17.69
   1  -2  -1   10.38    2.51
  -1   2   1    1.43    2.14
  -1   2   1    1.07    1.42
   1  -2  -1    2.49    1.78
   1  -2  -1    0.36    2.16
  -1   2   2   50.79    3.95
   1  -2  -2   58.59    5.31
   1  -2  -3  996.06   60.81
   1  -2  -3  916.50   74.31
   1  -2  -4   84.57    7.58
   1  -2  -4   67.20    8.29
   1  -2  -5    0.72    5.02
   1  -2  -5    7.23    3.62
   1  -2  -6  159.47   10.95
   1  -2  -6  169.94   15.40
   1  -2  -7   74.52    8.67
   1  -2  -7   75.17    8.88
   1  -2  -8   53.12    7.75
   1  -2  -8   80.36    8.99
   1  -2  -9   28.25   10.12
   1  -2  -9  252.28  199.33
   1  -2 -10   13.82   10.37
   1  -2 -10    7.39    9.15
  -1   2  11   98.23   16.14
  -1   3   0  701.92   43.42
   1  -3   0  780.67   41.00
   1  -3   0  699.52   35.11
   1  -3   0  705.71   49.14
   1  -3  -1    7.20    2.52
  -1   3   1   10.95    3.18
   1  -3  -1   10.38    2.86
   1  -3  -1   10.58    1.76
  -1   3   2  246.81   15.38
  -1   3   2  229.66   13.24
   1  -3  -2  215.97   15.69
   1  -3  -2  206.04   10.95
  -1   3   3  408.08   29.06
  -1   3   3  356.23   45.51
   1  -3  -3  379.27   38.07
   1  -3  -4   55.05    9.19
   1  -3  -4   62.32    8.61
   1  -3  -5    4.30    4.66
   1  -3  -5   -0.71    3.56
   1  -3  -6   18.56    5.00
   1  -3  -6   12.92    4.31
   1  -3  -7  132.06   14.24
   1  -3  -7  102.15   10.48
  -1   3   8    7.40    7.05
  -1   3   9    9.78    8.39
   1  -3 -10   14.54   11.08
   1  -3 -10   -4.94    9.53
  -1   3  11    6.85   12.34
   1  -4   0 1672.15   78.53
  -1   4   0 1580.62   96.31
   1  -4   0 1608.91   91.78
   1  -4   0 1489.04   81.80
  -1   4   1  213.64   14.77
   1  -4  -1  218.68   18.58
   1  -4  -1  211.18   13.37
   1  -4  -1  187.04    8.64
  -1   4   2   34.60    4.24
   1  -4  -2   35.98    4.28
   1  -4  -2   25.03    2.82
   1  -4  -2   19.13    3.97
  -1   4   3  247.25   14.63
  -1   4   3  228.51   17.46
   1  -4  -3  260.77   18.41
  -1   4   4 2119.87  181.86
  -1   4   4 2069.52  165.40
   1  -4  -4 2072.99  176.46
   1  -4  -5  742.83   87.03
   1  -4  -5  801.47  117.83
   1  -4  -6   15.31    6.41
   1  -4  -6   13.47    5.67
  -1   4   7  160.72   15.80
   1  -4  -8    0.70    5.99
   1  -4  -8    5.02    7.52
   1  -4  -9   93.71   15.06
   1  -4  -9  228.22  167.82
   1  -4 -10   42.27    9.71
   1  -4 -10   10.24   12.71
  -1   4  11   -4.12   10.29
   1  -5   0  696.95   37.26
   1  -5   0  730.15   34.10
   1  -5   0  638.39   34.52
  -1   5   0  742.09   39.24
  -1   5   1 1228.30   87.65
   1  -5  -1 1259.25   90.15
   1  -5  -1 1156.63   53.05
   1  -5  -1 1300.56   69.95
  -1   5   2  291.54   17.91
   1  -5  -2  286.68   28.50
   1  -5  -2  277.73   18.89
   1  -5  -2  258.26   26.25
  -1   5   3  147.85    8.49
   1  -5  -3  112.65   20.14
   1  -5  -3  104.55   19.48
   1  -5  -4    4.90    5.60
  -1   5   4    5.66    5.31
  -1   5   5  451.25   35.23
   1  -5  -5  482.00   34.77
  -1   5   5  483.36   52.23
  -1   5   6  290.52   43.08
   1  -5  -6  254.24   30.90
   1  -5  -6  293.23   35.17
   1  -5  -7    0.00    9.90
   1  -5  -7   -5.30    9.20
   1  -5  -8    2.46    6.33
   1  -5  -8   -8.91    8.55
  -1   5   9  235.09   20.74
  -1   5  10   -2.42   10.73
  -1   5  11    4.80   10.97
  -1   6   0   94.80    8.67
   1  -6   0   66.99    7.76
   1  -6   0   82.66    7.05
   1  -6   0   60.80    7.43
  -1   6   1   70.13    8.30
   1  -6  -1   74.36   10.63
   1  -6  -1   69.91    6.97
   1  -6  -1   83.19    7.12
  -1   6   2   43.99    6.93
   1  -6  -2   29.42    7.09
   1  -6  -2   24.65    5.36
   1  -6  -2   33.24    4.16
  -1   6   3   37.27    7.67
   1  -6  -3   31.05    7.41
   1  -6  -3   33.78    3.83
   1  -6  -3   22.94    5.38
  -1   6   4   58.86    6.67
   1  -6  -4   51.44    7.71
   1  -6  -4   52.46    7.20
   1  -6  -5  226.14   24.77
   1  -6  -5  245.26   29.59
  -1   6   5  237.76   15.55
  -1   6   6   26.77    5.64
   1  -6  -6   13.58    9.40
  -1   6   7   64.31    4.29
   1  -6  -7   68.24    8.81
   1  -6  -7   55.35   10.88
  -1   6   8    4.97    2.84
   1  -6  -8    6.01    9.54
  -1   6   9   56.42   13.25
  -1   6  10  144.06   19.07
  -1   6  11   95.47   16.13
   1  -7   0    6.26    5.22
  -1   7   0    9.97    6.19
   1  -7   0   -4.91    5.97
   1  -7   0    2.11    4.22
   1  -7  -1   13.04    7.05
  -1   7   1   10.64    5.83
   1  -7  -1   18.67    5.19
   1  -7  -1   13.78    4.95
  -1   7   2   66.29    8.25
   1  -7  -2   76.22   10.24
   1  -7  -2   54.66    5.51
   1  -7  -2   53.58    8.87
   1  -7  -3   21.37    7.12
  -1   7   3   16.20    7.24
   1  -7  -3   13.37    7.04
   1  -7  -3   23.41    3.79
  -1   7   4    9.36    5.89
   1  -7  -4    1.05    6.29
   1  -7  -4    9.28    6.78
  -1   7   5    8.70    7.66
   1  -7  -5    7.86    8.58
   1  -7  -5    4.16    6.94
  -1   7   6    2.79    7.68
   1  -7  -6    8.22    8.58
   1  -7  -6    6.93    8.66
  -1   7   7   41.19    9.08
   1  -7  -7   82.74   21.78
   1  -7  -7   47.60   12.87
   1  -7  -8   11.14    9.75
   1  -7  -8  675.45  244.60
  -1   7   9  -18.36   10.74
  -1   7  10   -5.85   13.07
  -1   8   0   15.71    7.51
   1  -8   0   -1.75    7.33
   1  -8   0   10.13    6.29
   1  -8   0    8.63    6.21
   1  -8  -1   40.32    8.42
  -1   8   1   41.91    8.86
   1  -8  -1   34.03    7.72
   1  -8  -1   33.97    6.18
  -1   8   2  199.96   16.40
   1  -8  -2  165.31   18.27
   1  -8  -2  194.14   10.98
   1  -8  -2  180.72   19.04
   1  -8  -3   72.46    9.90
  -1   8   3   82.62    9.57
   1  -8  -3   60.92   10.86
   1  -8  -3   74.99    6.49
  -1   8   4  180.28   13.75
   1  -8  -4  108.97   19.16
   1  -8  -4  148.46   18.09
  -1   8   5   -1.72    7.57
   1  -8  -5   -7.26    7.61
   1  -8  -5    0.00    8.87
  -1   8   6   70.09    9.34
   1  -8  -6   44.80   11.04
   1  -8  -6   71.69   11.73
  -1   8   7   -4.49    8.30
  -1   8   8    6.21   10.70
  -1   8   9  -16.17   12.73
  -1   8  10   -9.57   12.65
  -1   9   0   94.87   15.94
   1  -9   0   91.96   16.09
   1  -9   0   79.06   10.41
   1  -9  -1   34.36    7.83
   1  -9  -1   31.34    7.66
  -1   9   1   30.10    9.13
  -1   9   2  116.57   12.52
   1  -9  -2   31.74   13.95
   1  -9  -2   98.48   13.21
   1  -9  -2   73.74   11.89
   1  -9  -3  199.56   27.04
  -1   9   3  279.69   20.71
   1  -9  -3   82.84   27.50
   1  -9  -3  221.56   27.36
  -1   9   4   94.61   12.22
   1  -9  -4  142.02  145.14
   1  -9  -4   75.56   12.31
  -1   9   5   37.09    8.85
  -1   9   6   38.57   11.27
  -1   9   7  198.97   19.21
  -1   9   8   98.09   22.23
  -1   9   9   29.66   13.30
  -1  10   0   67.87   14.79
  -1  10   1   30.52   11.74
   1 -10  -1   22.11   12.09
  -1  10   2    4.69    9.38
   1 -10  -2   -5.54   10.05
  -1  10   3  124.99   16.44
   1 -10  -3  103.20   13.21
  -1  10   4  247.68   21.20
  -1  10   5  132.22   19.87
  -1  10   6   -3.71   14.50
  -1  10   7    3.72   10.81
  -1  11   3   -6.97   12.95
  -1  11   4   -0.66   11.30
   0 -10   1   78.43   15.22
   0 -10   2   58.85   15.23
   0  -9   1   72.96   10.04
   0   9  -1   82.52   11.61
   0  -9   2   56.30   13.66
   0  -9   3   74.34   14.33
   0  -8   1    5.92    5.57
   0   8  -1    8.25    7.91
   0  -8   1    9.39    7.65
   0  -8   2  100.46   12.75
   0  -8   3  178.79   24.44
   0  -8   4   70.69   14.08
   0  -8   5   19.50   14.71
   0  -7   1   -1.40    5.59
   0  -7   1    5.95    4.20
   0   7  -1    9.35    6.23
   0  -7   2    8.70    8.00
   0   7  -2   20.80    7.63
   0   7  -3    3.81    7.62
   0  -7   3  -14.90    8.66
   0  -7   4   53.91   12.79
   0  -7   5   45.81   13.09
   0  -7   6   -4.80    6.86
   0  -6   1   74.79    8.78
   0   6  -1  108.36   10.82
   0  -6   1   85.19    6.70
   0   6  -2    7.33   12.91
   0  -6   2    7.35    6.65
   0  -6   3   30.33    8.37
   0   6  -3   27.19    8.37
   0  -6   4   17.02    6.25
   0   6  -4   14.61    8.69
   0  -6   5   23.22    9.36
   0  -6   6    0.34    8.97
   0  -6   7    3.78   10.30
   0   5  -1  484.99   25.04
   0  -5   1  507.76   27.92
   0  -5   1  489.09   30.81
   0  -5   2  460.04   32.74
   0  -5   2  421.79   23.95
   0   5  -2  453.45   38.69
   0  -5   3   43.83    7.37
   0   5  -3   30.15   15.78
   0   5  -4  108.73   12.60
   0  -5   4   92.32   11.90
   0  -5   5  255.71   25.84
   0   5  -5  209.99   22.34
   0  -5   6   74.53   15.61
   0  -5   7   14.83   11.04
   0  -5   8    1.37    8.58
   0  -4   1 1649.01   67.61
   0   4  -1 1819.28  105.84
   0  -4   1 1778.13   95.72
   0  -4   2  936.96   53.82
   0   4  -2  986.27   58.09
   0  -4   3  223.92   25.06
   0   4  -3  182.80   26.78
   0  -4   4   90.43    8.81
   0   4  -4   98.31    9.14
   0   4  -5  107.01   12.26
   0  -4   5   92.58   11.59
   0  -4   6  358.02   24.60
   0   4  -6  409.37   24.62
   0  -4   7  235.50   22.66
   0  -4   8   13.78   11.37
   0  -4   9  -12.67   12.33
   0  -3   1  634.10   38.02
   0  -3   1  579.91   39.17
   0   3  -1  602.28   38.37
   0  -3   2  246.46   17.06
   0   3  -2  224.22   20.22
   0  -3   3  401.63   28.44
   0   3  -3  451.78   26.26
   0  -3   4  110.77   10.29
   0   3  -4  122.29    9.89
   0  -3   5   47.62    9.18
   0   3  -5   51.96   10.19
   0  -3   6   18.60    8.43
   0   3  -6    2.45   11.53
   0  -3   7    0.70   11.47
   0  -3   8  -10.37   10.03
   0  -3   9   -5.15    9.28
   0  -2   1  231.49   16.39
   0  -2   1  242.84   13.19
   0   2  -1  260.11   17.11
   0  -2   2   10.69    3.56
   0   2  -2    3.91    2.49
   0   2  -2    7.16    1.07
   0  -2   3   82.32   11.77
   0   2  -3   86.21   11.01
   0  -2   4    5.69    4.98
   0   2  -4   -2.48    4.25
   0   2  -5    6.70    5.64
   0  -2   5    8.87    5.32
   0  -2   6    8.82    5.65
   0   2  -6    3.86    6.32
   0  -2   7   40.31    9.12
   0   2  -7   49.92    9.78
   0   2  -8   19.43    9.72
   0   2  -8   33.10    4.94
   0  -2   9    6.21   12.41
   0  -2  10   -5.82   13.01
   0  -1   1   68.21    5.01
   0   1  -1   56.06    3.22
   0   1  -1   51.71    5.00
   0   1  -2   98.92    7.52
   0  -1   2  100.02    8.98
   0   1  -3  743.55   51.95
   0  -1   3  725.66   53.72
   0  -1   4  247.84   22.31
   0   1  -4  282.38   23.56
   0  -1   5  170.85   15.42
   0   1  -5  216.00   14.60
   0  -1   6   -0.36    6.40
   0   1  -6   14.47    6.00
   0  -1   7    1.76    5.29
   0   1  -7    0.35    5.96
   0  -1   8    4.19    7.69
   0   1  -8    7.32    8.02
   0  -1   9   34.95   12.12
   0  -1  10   -3.78   10.65
   0   0   2   73.30    6.59
   0   0  -2   85.23    6.56
   0   0   3   50.23    5.11
   0   0  -3   40.45    5.43
   0   0  -4 1472.11  201.53
   0   0   4 1397.33  383.93
   0   0   5 1547.33  131.20
   0   0  -5 1822.60  157.34
   0   0  -6  351.58   40.90
   0   0   6  249.90   17.34
   0   0  -7   -7.76    4.59
   0   0   7    1.07    6.76
   0   0  -8  162.11   15.12
   0   0   8  132.00   14.86
   0   0   9    7.64   10.07
   0   0  11   -1.02   11.96
   0  -1  -2  653.53   63.14
   0  -1  -2  671.12   54.18
   0   1   3   22.99    6.57
   0  -1  -3   32.29    8.35
   0  -1  -4  219.52   18.52
   0   1   4  211.40   19.43
   0   1   5  524.95   34.09
   0  -1  -5  472.53   49.03
   0  -1  -6   41.44   47.87
   0   1   6   26.03   26.76
   0  -1  -7    9.22   19.86
   0   1   7    9.33    5.02
   0  -1  -8   -0.70    8.09
   0   1   8   -7.46    7.46
   0  -1  -9  428.36   43.46
   0   1   9  601.97  200.24
   0   1  10  266.24   22.71
   0   1  11   60.64   15.44
   0  -2   0  593.24   44.86
   0   2   0  589.65   54.52
   0  -2  -1    1.79    1.79
   0  -2  -1    1.77    1.06
   0   2   1    2.14    2.14
   0  -2  -2   68.97    4.98
   0   2   2   68.71    4.68
   0  -2  -3    2.85    2.85
   0  -2  -3    3.59    2.52
   0   2   3    6.47    2.16
   0   2   4  155.78   10.91
   0  -2  -5   47.50    5.46
   0  -2  -5   52.56    5.77
   0  -2  -6  344.69   28.42
   0   2   6  354.84   24.84
   0  -2  -7  138.82   11.79
   0   2   7  137.46   12.69
   0  -2  -8  109.13   13.10
   0   2   8  179.71   35.50
   0  -2  -9   -2.45    8.40
   0   2   9   -8.86    9.57
   0   2  10   -1.39   10.41
   0   2  11   58.40   15.82
   0  -3   0  264.51   17.80
   0  -3   0  272.16   14.08
   0   3   0  290.89   26.12
   0  -3  -1   55.81    8.59
   0   3   1   58.64    4.96
   0  -3  -2 1493.47  121.44
   0  -3  -2 1011.80   49.42
   0   3   2 1467.94   83.17
   0   3   3  428.30   71.26
   0  -3  -3  458.18   72.28
   0   3   3  262.52   24.21
   0  -3  -4   24.05    3.90
   0   3   4   23.31    3.59
   0  -3  -5   -5.74    3.23
   0  -3  -5    0.71    3.22
   0  -3  -6   31.17    6.81
   0  -3  -6   12.24    5.04
   0   3   7   33.53    6.14
   0  -3  -8    0.71    7.43
   0  -3  -8    1.08    5.03
   0  -3  -9   86.37   11.97
   0  -3  -9   93.90   12.22
   0   3  10   11.13    9.74
   0   3  11    7.57   12.40
   0  -4   0 1399.89   85.01
   0  -4   0 1340.44   58.61
   0   4   0 1431.64  110.83
   0   4   1   68.05    6.33
   0  -4  -1   67.43    6.08
   0  -4  -2  330.12   20.80
   0  -4  -2  253.67   12.36
   0   4   2  312.53   16.01
   0  -4  -3   18.36    4.24
   0   4   3   22.78    3.92
   0  -4  -4  606.41   96.56
   0   4   4  278.50   29.47
   0   4   5  247.21   53.56
   0  -4  -6  112.58    9.33
   0  -4  -6  121.86   11.77
   0   4   7  133.49   11.87
   0   4   8  349.62   26.03
   0  -4  -9    2.81    6.33
   0  -4  -9   -1.43    9.68
   0   4  10    4.53    8.71
   0   4  11   27.59   13.11
   0  -5   0  253.34   14.91
   0  -5   0  210.13    8.94
   0   5   0  248.98   16.48
   0  -5  -1   46.75    4.32
   0  -5  -1   53.36    6.05
   0   5   1   41.49    5.24
   0  -5  -2  155.73   11.44
   0  -5  -2  149.12    8.80
   0   5   2  164.26   10.21
   0   5   3  951.24   54.24
   0  -5  -3  910.84   73.54
   0  -5  -3  765.50   32.68
   0  -5  -4  545.87   37.38
   0   5   4  442.07   22.16
   0  -5  -5  136.64   10.54
   0   5   5  127.37   10.35
   0  -5  -6   -1.40    5.97
   0   5   6   -1.07    6.76
   0  -5  -7   95.96    8.54
   0  -5  -7   94.15    9.27
   0  -5  -8  851.39   49.73
   0  -5  -8  821.38   60.63
   0  -5  -9  365.79   28.35
   0  -5  -9  287.42   38.55
   0   5  10  135.54   15.06
   0   5  11    4.48   11.38
   0  -6   0  508.43   21.71
   0   6   0  526.25   31.42
   0  -6   0  536.24   32.20
   0  -6  -1  137.55   14.55
   0  -6  -1  132.56   10.38
   0   6   1  122.02   10.43
   0  -6  -2   37.30    6.75
   0  -6  -2   29.29    3.84
   0   6   2   39.94    5.91
   0  -6  -3    7.78    5.31
   0   6   3  -10.48    4.89
   0  -6  -4  668.57   43.07
   0   6   4  738.04   46.93
   0  -6  -5  434.48   39.18
   0   6   5  509.75   41.09
   0  -6  -6   72.82    9.08
   0   6   6  107.88   19.12
   0  -6  -7   12.37    6.72
   0  -6  -7    4.56    8.41
   0  -6  -8  117.71    9.93
   0   6   8  121.27    6.87
   0  -6  -8  125.84   15.27
   0   6   9    9.11    6.66
   0   6  10   61.57    9.07
   0   6  11   12.06   12.06
   0  -7   0  125.11   10.21
   0  -7   0  112.84    9.88
   0   7   0  140.19   11.08
   0  -7  -1   14.48    5.65
   0  -7  -1   11.00    4.61
   0   7   1    2.76    5.86
   0  -7  -2   27.59    7.43
   0  -7  -2   22.89    4.51
   0  -7  -2   26.41    5.35
   0   7   2   17.23    5.51
   0  -7  -3    3.53    5.65
   0  -7  -3   20.68    3.10
   0   7   3   12.45    6.23
   0  -7  -4    7.36    6.66
   0   7   4   10.78    6.61
   0  -7  -5   41.04    8.01
   0   7   5   39.49    5.60
   0   7   6   10.05    7.63
   0  -7  -7   -0.35    9.39
   0   7   7    1.40    5.26
   0  -7  -8   15.76    8.76
   0  -7  -8   11.91    8.41
   0   7   9   41.16   11.52
   0   7  10  -10.74   11.78
   0   7  11   -3.44   13.06
   0   8   0  122.44   12.71
   0  -8   0   56.67   13.64
   0  -8   0   84.42    8.76
   0  -8  -1  252.59   35.15
   0  -8  -1  290.87   37.63
   0  -8  -1  295.22   23.63
   0   8   1  305.26   27.45
   0  -8  -2  144.66   22.19
   0  -8  -2  149.11   24.14
   0  -8  -2  129.23   24.44
   0   8   2  179.54   21.92
   0  -8  -3   47.07    9.14
   0  -8  -3   52.67    4.46
   0  -8  -3   66.50    9.61
   0   8   3   76.40    8.92
   0  -8  -4   24.45    6.64
   0  -8  -4   14.63    7.50
   0   8   4    6.19    7.57
   0  -8  -5  108.56   12.51
   0   8   5  154.13   12.82
   0  -8  -6  185.70   17.35
   0   8   6  227.91   26.41
   0  -8  -7   30.04   14.16
   0   8   7  100.79   11.15
   0   8   8   -6.95   10.77
   0   8   9   -0.35   12.12
   0   8  10   11.37   11.37
   0  -9   0   -0.35    7.25
   0  -9   0   -3.13    4.87
   0   9   0    0.00    8.17
   0  -9  -1  246.25  170.11
   0  -9  -1  162.27   14.54
   0  -9  -1  123.74   15.39
   0   9   1  167.49   17.70
   0  -9  -2  262.44   27.33
   0  -9  -2  338.09   35.28
   0  -9  -2  289.32   23.90
   0   9   2  358.70   25.90
   0  -9  -3  433.97   42.71
   0  -9  -3  379.08   53.85
   0  -9  -3  490.60   36.76
   0   9   3  489.33   39.85
   0   9   4    8.85    9.87
   0  -9  -4   18.43    9.39
   0  -9  -4   19.04    3.40
   0  -9  -4   36.79   10.62
   0  -9  -5   -0.71    6.03
   0   9   5    2.39    8.88
   0  -9  -6   44.04   13.15
   0   9   6   79.56   11.33
   0   9   7  259.89   23.81
   0   9   8  166.82   16.24
   0   9   9    5.15   12.36
   0   9  10   -1.37   11.97
   0  10   0  102.30   14.20
   0 -10  -1    1.36   10.89
   0 -10  -1   -5.55    8.32
   0  10   1    8.09    8.43
   0  10   2   19.19    9.76
   0 -10  -2   22.97    9.40
   0 -10  -2   20.97    9.14
   0  10   3   67.66   12.13
   0 -10  -3   58.68   12.58
   0 -10  -4  152.80   25.60
   0  10   4  224.83   22.30
   0  10   5    3.04    9.80
   0  10   6   39.66   12.21
   0  10   7   56.41   13.26
   0  10   8   25.51   11.23
   0  10   9    1.70   13.93
   0  11   1   15.37   12.37
   0 -11  -2    3.10   13.80
   0  11   2  -12.02   12.68
   0  11   3    4.34   12.01
   0  11   4  -21.03   12.02
   0  11   5   -2.34   11.03
   0  11   6   -0.34   12.40
   0  11   7    7.39   12.09
   1 -10   1   40.05   13.46
  -1   9  -1  405.36   41.18
   1  -9   1  354.82   41.68
   1  -9   1  358.19   32.49
   1  -9   2   75.45   19.38
   1  -9   3   36.36   15.29
  -1   8  -1  175.58   17.83
   1  -8   1  123.36   14.26
   1  -8   1  151.10   11.83
   1  -8   1  171.39   23.98
   1  -8   2  230.76   26.51
  -1   8  -2  239.59   37.05
   1  -8   3  144.63   19.56
   1  -8   4   52.35   15.40
   1  -8   5   -7.51   14.33
   1  -7   1   -2.10    6.29
  -1   7  -1    3.79    6.21
   1  -7   1    4.54    6.29
   1  -7   1    5.24    5.24
  -1   7  -2   14.51    8.29
   1  -7   2    8.34    7.65
   1  -7   2   35.80    5.21
  -1   7  -3   10.02    8.29
   1  -7   3  -12.45    8.99
   1  -7   4   10.69    7.93
   1  -7   5   -6.53   10.31
   1  -7   6   -1.71   10.27
  -1   6  -1    6.60    5.55
   1  -6   1   -6.32    5.26
   1  -6   1    1.05    3.86
  -1   6  -2   -0.70    5.91
   1  -6   2    9.78    5.94
   1  -6   2   12.93    4.19
  -1   6  -3   99.13   16.71
   1  -6   3   72.05   11.14
  -1   6  -4   16.66    6.94
   1  -6   4   27.04   12.48
   1  -6   5    7.26    8.65
   1  -6   6   -4.13    9.64
   1  -6   7    0.69   10.63
  -1   5  -1  589.42   32.32
   1  -5   1  576.85   50.05
   1  -5   1  541.73   28.64
  -1   5  -2   10.15    6.30
   1  -5   2    7.37    5.27
   1  -5   2    7.72    3.51
  -1   5  -3   -2.45    5.95
   1  -5   3   13.65    7.00
  -1   5  -4  149.41   17.47
   1  -5   4  178.72   13.99
   1  -5   5  178.07   14.30
  -1   5  -5  156.85   20.55
   1  -5   6   32.20    9.01
   1  -5   7   -2.76    6.55
   1  -5   8    2.74   11.99
  -1   4  -1 1569.56  102.95
   1  -4   1 1496.25   77.90
   1  -4   1 1467.45   85.12
  -1   4  -2  309.39   19.44
   1  -4   2  315.52   16.26
   1  -4   2  304.65   14.84
  -1   4  -3    1.76    5.28
   1  -4   3   -5.63    5.98
  -1   4  -4  174.66   21.42
   1  -4   4  216.72   17.60
  -1   4  -5  100.97   51.01
   1  -4   5  163.17   40.28
   1  -4   6   45.32    9.07
  -1   4  -6   31.99   11.13
   1  -4   7   31.83    9.35
   1  -4   8   46.80   11.03
   1  -4   9  102.96   23.67
  -1   3  -1  237.40   14.18
  -1   3  -1  228.02   11.49
   1  -3   1  206.10   10.30
   1  -3   1  213.79   13.15
  -1   3  -2  460.46   72.90
  -1   3  -2  549.71   60.30
   1  -3   2  533.14   74.73
  -1   3  -3  265.58   36.40
  -1   3  -3  265.82   31.30
   1  -3   3  243.43   36.82
  -1   3  -4   -2.46    5.28
  -1   3  -4    1.77    2.12
   1  -3   4   -0.35    5.65
  -1   3  -5  311.50   21.48
  -1   3  -5  287.02   13.84
   1  -3   5  279.76   17.71
  -1   3  -6  152.61   17.15
  -1   3  -6  153.04    9.18
   1  -3   6  130.16   14.77
  -1   3  -7   93.47   15.66
  -1   3  -7   97.15    6.69
   1  -3   7   89.63   12.93
   1  -3   8   -3.11    8.29
   1  -3   9    3.09   10.99
  -1   2  -1 4599.94  286.89
  -1   2  -1 4994.71  232.32
   1  -2   1 5005.76  292.50
   1  -2   1 5058.19  328.67
  -1   2  -2  410.40   30.62
  -1   2  -2  385.03   18.94
   1  -2   2  435.89   33.12
  -1   2  -3   15.60    4.25
  -1   2  -3    9.23    2.13
   1  -2   3   15.29    4.62
  -1   2  -4    9.90    4.95
   1  -2   4   14.93    5.69
  -1   2  -5   -2.47    5.64
   1  -2   5   14.54    5.32
  -1   2  -6    7.72    6.32
   1  -2   6    9.18    5.65
  -1   2  -7   58.64    8.74
   1  -2   7   37.89    9.48
  -1   2  -8    9.02    9.37
   1  -2   8  643.68  260.13
   1  -2   9   26.89   10.00
   1  -2  10   42.80   12.69
  -1   1  -1   31.33    3.21
  -1   1  -1   34.26    2.50
   1  -1   1   27.44    2.85
   1  -1   1   24.19    2.50
  -1   1  -2  312.61   19.34
   1  -1   2  295.29   30.07
   1  -1   3  721.79   86.45
  -1   1  -3  650.20  104.88
  -1   1  -4  305.67   47.37
   1  -1   4  332.32   32.67
  -1   1  -5    8.87    5.67
   1  -1   5   31.79    5.72
  -1   1  -6  129.18   15.90
   1  -1   6  112.71   12.48
  -1   1  -7    4.56    7.37
   1  -1   7    4.59    7.06
  -1   1  -8   -5.23    7.67
   1  -1   8   -2.80    5.60
   1  -1   9   25.97   10.05
   1  -1  10   -1.03   11.68
  -1   0  -2  104.96    8.73
   1   0   2   99.89    6.94
  -1   0  -3 1118.63   99.68
   1   0   3 1152.05   83.91
  -1   0  -4  413.17   44.33
   1   0   4  385.41   72.86
  -1   0  -5  271.51   90.88
   1   0   5  102.82   74.32
  -1   0  -6   29.51    6.76
   1   0   6   19.73    6.82
   1   0   7  299.86   20.47
  -1   0  -7  316.44   24.82
  -1   0  -8  511.87   34.27
   1   0   8  436.25   39.77
  -1   0  -9  387.88   29.15
   1   0   9  853.23  274.00
   1   0  10  -14.49   10.35
   1   0  11   14.37   11.98
  -1  -1  -2    1.81    1.45
  -1  -1  -2    4.34    1.09
   1   1   2    3.98    1.45
   1   1   2    2.84    1.42
  -1  -1  -3   14.54    3.27
   1   1   3   13.15    3.29
  -1  -1  -4  763.93  121.20
   1   1   4  770.60   86.78
  -1  -1  -5 1226.37  116.06
   1   1   5 1275.66   74.55
  -1  -1  -6  108.11   11.84
   1   1   6  110.39   10.53
  -1  -1  -7   -2.49    3.91
   1   1   7   -4.31    4.67
  -1  -1  -8   -4.23    6.70
   1   1   8   -9.61    7.12
   1   1   9   68.33   10.95
  -1  -1  -9   56.98   11.20
   1   1  10   76.92   12.16
   1   1  11   48.41   14.44
   1   2   0    4.60    2.13
  -1  -2   0    2.13    1.42
   1   2   1 1266.84   95.48
  -1  -2  -1 1152.29   79.08
  -1  -2  -2  173.30   18.12
  -1  -2  -2  116.90    6.42
   1   2   2  167.81   16.50
  -1  -2  -3    0.71    2.50
   1   2   3    2.87    2.87
  -1  -2  -4   84.81    5.82
  -1  -2  -4   80.54    5.82
  -1  -2  -5  193.70   24.94
   1   2   5  151.43   16.39
  -1  -2  -6  145.11   11.55
   1   2   6  137.95   12.03
   1   2   7   25.30    6.15
  -1  -2  -7   35.33    6.79
  -1  -2  -8  102.71    9.60
   1   2   8   97.96   11.16
  -1  -2  -9    7.02    7.73
   1   2   9   -9.24    7.82
   1   2  10   11.48   11.13
   1   2  11    5.17   10.68
   1   2  12   10.57   13.98
   1   3   0   74.14    6.02
  -1  -3   0   74.12    5.69
  -1  -3  -1   -1.43    2.86
   1   3   1    5.30    2.12
  -1  -3  -2   15.70    3.21
   1   3   2   21.78    3.57
  -1  -3  -3  162.29   23.32
   1   3   3   94.86    6.83
  -1  -3  -4   12.04    4.96
   1   3   4   11.84    5.74
   1   3   4    7.79    1.42
  -1  -3  -5   20.84    4.67
  -1  -3  -5   19.68    4.30
   1   3   6  139.27   12.25
  -1  -3  -7   10.11    4.34
  -1  -3  -7    5.72    6.08
   1   3   8    7.46    6.75
  -1  -3  -9   52.50    8.82
  -1  -3  -9   55.12    8.26
   1   3  10   11.17    6.63
   1   3  11    0.69   11.40
   1   3  12  -16.41   12.65
  -1  -4   0   99.19    7.46
   1   4   0   93.92    7.76
  -1  -4  -1 2795.67  188.43
   1   4   1 2376.47  173.12
  -1  -4  -2 2387.96  233.10
   1   4   2 1706.47  123.24
  -1  -4  -3  330.64   59.16
   1   4   3  271.71   22.16
  -1  -4  -4    6.32    4.92
   1   4   4    5.01    4.29
  -1  -4  -5  335.60   24.46
   1   4   5  302.85   17.83
  -1  -4  -6  238.66   18.24
  -1  -4  -6  325.12   34.81
  -1  -4  -7  570.13   37.59
  -1  -4  -7  546.90   37.74
  -1  -4  -8  270.51   27.82
  -1  -4  -8  231.53   20.26
  -1  -4  -9   42.00    9.19
  -1  -4  -9   19.03    8.62
   1   4  10    6.65    7.70
   1   4  11  -13.16    8.66
   1   4  12    6.85    8.91
  -1  -5   0   36.77    5.66
   1   5   0   26.27    5.26
  -1  -5  -1   18.13    4.62
   1   5   1   16.43    4.89
  -1  -5  -2  449.45   32.21
   1   5   2  423.14   27.14
  -1  -5  -3 2806.22  344.02
   1   5   3 2874.76  240.20
  -1  -5  -4  506.62  126.18
   1   5   4  543.28  128.39
  -1  -5  -5   70.67    7.37
   1   5   5   50.63    5.71
  -1  -5  -6  159.88   15.86
   1   5   6  152.00   10.76
   1   5   7   14.86    2.48
  -1  -5  -7    6.77    8.20
  -1  -5  -7    8.15    6.02
  -1  -5  -8  202.74   18.55
  -1  -5  -8  223.46   19.05
   1   5   9   18.27    9.68
   1   5  11   42.31   12.50
   1   5  12   32.59   12.36
  -1  -6   0  175.27   11.67
  -1  -6   0  145.02    6.79
   1   6   0  169.71   11.19
  -1  -6  -1   23.04    5.32
   1   6   1   47.29    8.00
  -1  -6  -2  118.79   18.15
   1   6   2  117.68   17.77
  -1  -6  -3   37.95    5.33
   1   6   3   50.06    6.31
  -1  -6  -4   96.00    9.87
   1   6   4   80.69    7.06
   1   6   5  196.48   26.92
  -1  -6  -6    6.28    6.62
   1   6   6   -2.48    6.39
  -1  -6  -7  190.39   15.17
   1   6   7  164.63   12.85
  -1  -6  -8  295.89   29.15
  -1  -6  -8  295.59   26.34
  -1  -6  -9  118.00   14.84
  -1  -6  -9  122.17   16.82
   1   6   9  123.19    7.55
   1   6  10    6.30    8.04
   1   6  11   -4.16   11.09
   1   6  12   71.00   15.47
  -1  -7   0   14.41    6.33
  -1  -7   0    1.06    3.54
   1   7   0    5.54    6.24
  -1  -7  -1    9.89    5.30
  -1  -7  -1   -3.57    3.92
   1   7   1   34.23   13.14
  -1  -7  -2   15.59    6.02
   1   7   2    2.77   13.14
  -1  -7  -3   -1.41    5.66
  -1  -7  -3    4.52    2.43
   1   7   3    5.55    6.24
  -1  -7  -4   28.11    6.68
  -1  -7  -4   27.16    2.44
   1   7   4   49.52    8.02
  -1  -7  -5   -1.74    6.27
   1   7   5   -9.82    5.61
  -1  -7  -6    0.69    7.29
   1   7   6   -1.06    4.57
   1   7   7   -3.48    7.30
  -1  -7  -8    8.80    7.74
  -1  -7  -8    5.60    8.40
   1   7   9   21.04   10.17
   1   7  10   30.33   10.81
   1   7  11   -0.69   12.10
  -1  -8   0  331.05   40.28
  -1  -8   0  330.54   24.63
   1   8   0  375.22   24.21
  -1  -8  -1 1202.67  141.52
  -1  -8  -1 1260.43   74.80
   1   8   1 1294.03   75.65
  -1  -8  -2  152.35   19.77
   1   8   2  163.37   18.22
  -1  -8  -3    2.07    3.11
   1   8   3    8.25    6.53
  -1  -8  -3    9.16    6.69
  -1  -8  -4   16.47    6.31
  -1  -8  -4    7.89    2.75
   1   8   4   -1.38    6.56
  -1  -8  -5  227.45   23.71
   1   8   5  246.91   19.13
  -1  -8  -6   83.68   11.44
   1   8   6  112.84    9.78
  -1  -8  -7    6.22    9.67
   1   8   7   18.15    9.08
  -1  -8  -8  716.71  230.64
   1   8   8    5.24    8.38
   1   8   9   36.24   12.20
   1   8  10   -0.69   11.10
   1   8  11    6.54   14.46
  -1  -9   0   62.06   15.00
   1   9   0   96.03   13.00
  -1  -9  -1  155.74   12.64
  -1  -9  -1   95.85   15.40
   1   9   1  160.33   14.70
  -1  -9  -2  277.08   31.60
  -1  -9  -2  250.39   22.60
   1   9   2  288.23   21.88
  -1  -9  -3   48.98    5.50
  -1  -9  -3   37.22    8.16
   1   9   3   48.40    6.48
  -1  -9  -3   49.42   10.87
  -1  -9  -4   53.39   10.12
  -1  -9  -4   47.60    4.43
   1   9   4   46.13    9.23
  -1  -9  -5   68.62   11.10
   1   9   5   71.00    8.24
   1   9   6   30.99    9.99
   1   9   8    6.22   10.03
   1   9   9   33.85   11.75
   1   9  10  161.10   19.04
   1   9  11   82.48   17.83
   1  10   0   -6.44    9.83
  -1 -10  -1  114.08   13.92
   1  10   1  123.90   15.26
  -1 -10  -2  118.33   33.20
  -1 -10  -2  203.37   25.87
   1  10   2  172.42   26.06
  -1 -10  -3   28.51   11.54
  -1 -10  -3   28.78   12.99
   1  10   3   40.56   13.52
  -1 -10  -4    2.70    4.05
  -1 -10  -4   -1.76    8.46
   1  10   4   15.57    9.48
   1  10   5   52.26   11.20
   1  10   6  218.22   22.52
   1  10   7  278.95   29.10
   1  10   8   40.70   12.66
   1  10   9    3.08   11.97
   1  11   0    6.05   12.10
   1  11   1    6.38   12.42
  -1 -11  -2   -3.46    9.00
   1  11   2    3.02   11.74
  -1 -11  -3   11.82   12.51
   1  11   3   24.46   11.39
  -1 -11  -4  -16.05   10.82
   1  11   4    1.68   10.06
   1  11   5    7.72   10.08
   1  11   7   -4.05   10.80
   1  11   8   30.76   14.88
   2  -9   1  136.78   17.59
   2  -9   2   66.29   15.90
   2  -9   3   21.99   12.18
  -2   8  -1  159.03   28.28
   2  -8   1   56.52   19.76
   2  -8   1  169.80   23.39
   2  -8   1  153.46   20.10
  -2   8  -2   57.66   13.31
   2  -8   2   47.44   13.07
   2  -8   3   34.14   11.95
   2  -8   4   -0.34   14.32
  -2   7  -1   26.08    7.21
   2  -7   1   32.43    8.02
   2  -7   1   30.09    7.61
   2  -7   1   28.23    6.97
  -2   7  -2    1.72    7.91
   2  -7   2   15.27    9.02
   2  -7   2   33.98    8.33
  -2   7  -3   40.27   11.02
   2  -7   3    6.90   13.12
   2  -7   3   52.72   13.19
   2  -7   4  -12.38    8.59
   2  -7   5   -0.69   11.31
   2  -7   6   26.98   15.03
  -2   6  -1   -6.91    5.53
   2  -6   1    3.15    5.26
   2  -6   1   14.28    5.23
   2  -6   1   10.86    4.91
   2  -6   2    9.77    4.19
  -2   6  -2  -10.39    5.54
   2  -6   2    6.98    5.93
   2  -6   2   -3.14    6.64
  -2   6  -3   -5.20    6.24
   2  -6   3    7.64    8.34
   2  -6   3    5.94    8.04
  -2   6  -4    7.27    7.27
   2  -6   4    4.84   10.03
   2  -6   4    8.72   10.82
   2  -6   5   10.36    8.28
   2  -6   6   11.00   10.31
   2  -6   7  -13.00   10.27
  -2   5  -1   11.47    5.21
   2  -5   1   14.42    4.57
   2  -5   1   12.60    4.90
   2  -5   1   16.90    4.93
  -2   5  -2  132.51   16.76
   2  -5   2  120.91   11.57
   2  -5   2  127.20   11.66
   2  -5   2  125.13   12.97
  -2   5  -3  144.47   64.56
   2  -5   3  239.67   52.41
   2  -5   3  282.11   82.02
  -2   5  -4   39.01   23.34
   2  -5   4   96.47   22.29
  -2   5  -5   54.50    9.38
   2  -5   5   43.38   10.07
   2  -5   6    1.73    8.64
   2  -5   7    7.22    7.22
   2  -5   8   22.58   11.98
  -2   4  -1  251.61   23.47
  -2   4  -1  284.86   23.49
   2  -4   1  265.35   24.72
   2  -4   1  297.73   23.99
   2  -4   1  277.45   21.93
  -2   4  -2  401.28   41.81
  -2   4  -2  399.95   26.69
   2  -4   2  392.77   35.22
   2  -4   2  489.15   42.57
   2  -4   2  382.29   32.76
  -2   4  -3  867.84   63.72
  -2   4  -3  825.20   49.40
   2  -4   3  848.62   54.19
  -2   4  -4  572.48   44.58
  -2   4  -4  592.09   36.15
   2  -4   4  620.70   42.52
  -2   4  -5  211.75   32.12
  -2   4  -5  306.42   43.97
   2  -4   5  295.98   37.08
  -2   4  -6   29.17   10.77
  -2   4  -6   43.76    6.66
   2  -4   6   39.68   11.49
  -2   4  -7    3.46    8.98
  -2   4  -7    2.44    3.14
   2  -4   8   71.83   15.15
   2  -4   9   53.65   18.13
  -2   3  -1  809.73   45.58
  -2   3  -1  728.92   40.01
   2  -3   1  783.23   48.89
   2  -3   1  797.12   36.23
   2  -3   1  758.24   54.64
  -2   3  -2  182.66   16.26
  -2   3  -2  184.37   16.72
   2  -3   2  192.58   16.27
   2  -3   2  200.66   17.76
  -2   3  -3  297.91   39.88
  -2   3  -3  364.93   24.86
   2  -3   3  348.83   34.98
  -2   3  -4   11.25    6.33
  -2   3  -4   19.42    5.65
   2  -3   4   30.67    8.82
  -2   3  -5  118.76   11.93
  -2   3  -5  105.16    9.16
   2  -3   5  125.92   13.74
  -2   3  -6  275.55   16.21
  -2   3  -6  270.32   17.55
   2  -3   6  245.65   22.84
  -2   3  -7   59.00   11.47
  -2   3  -7   51.92    6.63
   2  -3   7   40.09    9.42
   2  -3   8   10.01    9.32
   2  -3   9   -4.80   10.98
  -2   2  -1  321.98   30.40
  -2   2  -1  352.77   28.90
   2  -2   1  354.21   29.46
   2  -2   1  397.85   32.54
   2  -2   1  353.84   33.06
  -2   2  -2   26.21    4.61
  -2   2  -2   30.94    3.20
   2  -2   2   30.87    4.61
   2  -2   2   28.34    4.26
  -2   2  -3   80.69    9.92
  -2   2  -3   63.48    7.45
   2  -2   3   85.18    7.46
  -2   2  -4    2.47    4.59
  -2   2  -4   16.61    3.18
   2  -2   4   17.03    4.97
  -2   2  -5   20.76    5.98
   2  -2   5   16.64    5.67
  -2   2  -6    4.56    5.96
   2  -2   6    3.18    5.29
  -2   2  -7    9.42    7.67
   2  -2   7   -0.70    7.37
   2  -2   8    6.24   11.10
   2  -2   9   -6.55   10.68
   2  -2  10   11.29   13.01
  -2   1  -1  189.68   27.82
  -2   1  -1  110.87   18.79
  -2   1  -1  177.05   27.45
   2  -1   1  158.24   40.19
   2  -1   1  192.55   27.98
   2  -1   1  186.14   44.85
  -2   1  -2 1086.80  132.46
  -2   1  -2 1172.79   94.15
   2  -1   2 1182.52   99.29
   2  -1   2  788.51   48.38
  -2   1  -3  110.94   18.50
   2  -1   3   57.20    4.64
  -2   1  -4   55.05    9.60
   2  -1   4   66.49    9.30
  -2   1  -5    6.73    4.96
   2  -1   5    3.57    3.21
  -2   1  -6  169.98   16.26
   2  -1   6  118.73   13.54
  -2   1  -7   38.23   14.03
   2  -1   7   46.66    8.49
  -2   1  -8   -9.76    7.67
   2  -1   8   -2.11    7.72
   2  -1   9   15.93    9.35
   2  -1  10    6.87   10.31
   2  -1  11    3.41   15.01
  -2   0   0   72.80    5.00
   2   0   0   84.10    5.51
   2   0   0   69.55    5.71
  -2   0  -1   60.27    7.14
  -2   0  -1   23.61    2.15
   2   0   1   31.66    3.21
  -2   0  -2 6793.30  489.83
  -2   0  -2 4702.37  276.51
   2   0   2 6552.28  554.95
   2   0   2 5469.84  372.31
  -2   0  -3 3432.79  209.43
   2   0   3 3369.98  185.82
   2   0   3 3731.79  256.17
   2   0   4  408.99   38.44
  -2   0  -4  449.92   32.14
  -2   0  -5    7.51    8.58
   2   0   5   11.90    7.57
  -2   0  -6   43.37    9.96
   2   0   6   20.45    5.74
   2   0   7  122.23   20.86
  -2   0  -8  351.80   36.23
   2   0   8  291.45   26.67
  -2   0  -9   15.32    9.75
   2   0   9   -1.05    9.81
   2   0  10    1.38   10.70
   2   0  11   15.06   12.67
  -2  -1   0  694.44   41.98
   2   1   0  647.93   55.22
  -2  -1  -1   10.01    1.07
   2   1   1    6.78    1.07
  -2  -1  -2   37.41    4.01
  -2  -1  -2   28.48    3.61
  -2  -1  -2   38.57    2.87
   2   1   2   35.18    2.85
  -2  -1  -3 1415.47  320.06
   2   1   3 1242.09  381.23
   2   1   3  480.18   55.36
  -2  -1  -4  481.09  154.98
   2   1   4  444.04  113.53
   2   1   4  328.63   47.21
  -2  -1  -5   88.02   28.87
   2   1   5   86.95   20.02
  -2  -1  -6    2.51    5.02
   2   1   6    6.52    3.62
  -2  -1  -7   51.59    8.19
   2   1   7   55.39    8.29
  -2  -1  -8   88.25   16.60
   2   1   8   80.28   11.44
  -2  -1  -9   10.85    8.40
   2   1   9    5.30    6.36
   2   1  10   38.86   13.54
   2   1  11   19.94   11.35
  -2  -2   0   46.55    6.40
   2   2   0   33.69    6.39
  -2  -2  -1  144.24    9.30
   2   2   1  164.61   21.04
  -2  -2  -2    2.51    1.79
  -2  -2  -2    4.97    2.13
   2   2   2    3.57    2.14
   2   2   3  423.73   43.20
   2   2   3  392.26   25.67
  -2  -2  -3  412.24   22.08
  -2  -2  -4  133.16    9.09
   2   2   4  150.48    8.91
   2   2   5   24.69    7.99
  -2  -2  -5   34.67   14.81
   2   2   5   12.02    3.89
  -2  -2  -6   25.54   12.95
   2   2   6   14.16    5.81
  -2  -2  -7   78.29    8.60
   2   2   7   84.31    9.07
  -2  -2  -8  163.22   19.56
   2   2   8  196.66   18.77
  -2  -2  -9  132.99   12.72
   2   2   9  133.65   12.20
   2   2  10  170.47   27.95
   2   2  11    6.21   11.39
   2   2  12   16.75   12.99
  -2  -3   0 1553.25   83.71
   2   3   0 1493.09  133.89
  -2  -3  -1   22.77    3.20
   2   3   1   32.19    3.54
  -2  -3  -2   48.59    6.08
   2   3   2   38.24    4.65
  -2  -3  -3   38.84    2.86
  -2  -3  -3   52.66    6.02
   2   3   3   32.91    3.94
   2   3   4  285.40   16.04
  -2  -3  -4  277.90   24.17
  -2  -3  -5   12.22    4.31
   2   3   5    7.07    2.12
  -2  -3  -6    3.24    4.33
   2   3   6    2.47    3.17
  -2  -3  -6   -6.47    5.03
  -2  -3  -7   25.06    6.45
  -2  -3  -7   31.81    5.79
  -2  -3  -8    6.85    5.41
  -2  -3  -8    2.85    6.76
  -2  -3  -9   15.89    8.12
  -2  -3  -9   21.52    7.90
   2   3  10    4.55   10.15
   2   3  11  -18.02    8.67
   2   3  12  -15.09   11.32
  -2  -4   0  299.35   18.82
   2   4   0  282.66   29.99
  -2  -4  -1 2516.77  182.19
   2   4   1 2335.86  241.42
  -2  -4  -2 2297.95  110.24
   2   4   2 2753.02  313.31
  -2  -4  -3  421.26   25.34
   2   4   3  409.77   23.66
   2   4   4   55.79    5.02
  -2  -4  -4   49.24    5.29
  -2  -4  -4   39.07    2.14
   2   4   5  490.49   35.62
  -2  -4  -5  476.27   25.96
   2   4   5  477.24   32.63
  -2  -4  -6  644.81  173.09
  -2  -4  -6  353.50   44.53
   2   4   6  353.79   21.71
  -2  -4  -7   95.34    8.99
   2   4   7  114.15    8.15
  -2  -4  -7  109.81   10.76
  -2  -4  -8   27.78    7.48
   2   4   8   24.20    4.21
  -2  -4  -8   25.90    5.76
  -2  -4  -9   52.38    9.21
  -2  -4  -9   45.30    7.21
   2   4   9   48.18    5.60
   2   4  10  122.48   15.15
  -2  -4 -11    6.26    9.73
   2   4  11   19.34    7.25
   2   4  12    9.28   13.75
  -2  -5   0  137.02   10.97
   2   5   0  123.55   13.71
  -2  -5  -1  408.41   37.68
   2   5   1  350.67   46.28
  -2  -5  -2   12.48    4.28
   2   5   2    4.92    4.22
  -2  -5  -3  776.62   98.63
   2   5   3  709.60   96.74
  -2  -5  -4  101.42   22.90
  -2  -5  -4   74.72    3.72
   2   5   4  105.04   20.66
  -2  -5  -5   46.93    4.91
   2   5   5   47.11    4.65
  -2  -5  -6  722.81   42.49
   2   5   6  683.28   45.64
  -2  -5  -7  251.26   19.37
  -2  -5  -7  247.28   15.70
   2   5   7  290.71   16.79
  -2  -5  -8  -11.03    6.41
  -2  -5  -8   -3.93    5.00
   2   5   8    2.47    3.18
  -2  -5  -9   -4.96    8.14
  -2  -5  -9   10.40    8.25
   2   5   9   -5.27    3.52
  -2  -5 -10   76.95   12.33
   2   5  10   69.26    7.03
   2   5  11  193.57   16.89
   2   5  12  125.39   18.35
  -2  -6   0   51.78    7.40
   2   6   0   39.47    5.94
  -2  -6  -1  178.08   12.08
   2   6   1  174.30   11.20
  -2  -6  -2  143.66   16.38
   2   6   2  121.79    9.45
  -2  -6  -3 1016.50   63.56
   2   6   3 1107.11   99.47
  -2  -6  -4   69.11    7.77
   2   6   4   72.03    9.19
  -2  -6  -5   15.38    5.60
   2   6   5   13.48    4.97
  -2  -6  -6   39.07    6.98
   2   6   6   41.24    7.12
  -2  -6  -7  510.05   33.56
   2   6   7  513.45   31.22
  -2  -6  -8  532.34   35.46
  -2  -6  -8  483.83   44.05
  -2  -6  -9   34.99   10.26
  -2  -6  -9   51.28   10.70
   2   6   9   45.54    4.30
  -2  -6 -10  -11.59    9.48
   2   6  10   -2.13    4.25
   2   6  12   14.82   13.10
  -2  -7   0   11.24    6.32
   2   7   0   23.97    6.60
  -2  -7  -1    3.18    6.00
   2   7   1   19.07    6.24
  -2  -7  -2    7.80    5.32
   2   7   2   -3.47    5.55
  -2  -7  -3   -4.25    5.67
   2   7   3   -2.78    4.87
  -2  -7  -4   77.16    7.77
   2   7   4   55.58    6.65
  -2  -7  -5    1.75    5.94
   2   7   5   -5.98    5.62
   2   7   6   10.42    7.30
  -2  -7  -7   21.21    7.31
   2   7   7   18.73    6.01
  -2  -7  -8    0.70    8.05
   2   7   8   -7.77    7.06
  -2  -7  -9    7.75    6.69
  -2  -7  -9  192.72  153.91
   2   7  10    6.65    8.06
   2   7  11   -2.09   11.12
   2   7  12   22.72   12.74
  -2  -8   0  238.53   25.22
  -2  -8   0  237.39   16.24
   2   8   0  275.52   31.81
  -2  -8  -1  191.26   19.37
   2   8   1  219.18   19.00
  -2  -8  -2   -3.18    7.06
   2   8   2   -0.69    4.13
  -2  -8  -3  101.31   15.54
   2   8   3  137.92   18.64
  -2  -8  -4   88.22   11.26
   2   8   4   80.65    9.36
  -2  -8  -5    5.93    6.63
   2   8   5   -4.52    4.87
  -2  -8  -6   14.20    8.32
   2   8   6   25.50    5.59
  -2  -8  -7    5.53    8.64
   2   8   7  -12.61    7.36
   2   8   8    7.29   12.84
   2   8   9   56.70   12.27
   2   8  10   17.78   11.85
   2   8  11  -12.12   12.12
  -2  -9   0  239.71   22.74
   2   9   0  262.64   27.48
  -2  -9  -1  129.46   34.65
  -2  -9  -1  182.61   34.49
   2   9   1  158.83   31.51
  -2  -9  -2   17.91    8.08
   2   9   2   15.39    7.18
  -2  -9  -3   27.75    8.78
   2   9   3    7.18    6.84
  -2  -9  -4  112.36   20.31
   2   9   4  154.61   19.56
  -2  -9  -5  408.90   33.15
  -2  -9  -5  394.95   17.70
   2   9   5  395.76   32.09
  -2  -9  -6  109.11   16.25
   2   9   6  159.31   17.31
  -2  -9  -7  526.90  210.21
   2   9   7   28.78    9.71
   2   9   8   -5.90    8.34
   2   9   9   81.57   13.57
   2   9  10  172.70   18.13
   2   9  11   77.81   16.56
   2  10   0   41.17   10.89
  -2 -10  -1  259.13   24.79
   2  10   1  278.96   27.24
  -2 -10  -2  306.14   38.96
   2  10   2  346.82   30.96
   2  10   3   62.76   11.54
  -2 -10  -4    6.46    3.40
   2  10   4    0.68    8.49
  -2 -10  -5    1.36    2.71
   2  10   5   -2.38    8.17
   2  10   6  267.24   22.62
   2  10   7  252.33   24.41
   2  10   9   24.74   11.00
   2  11   0   17.54   11.81
   2  11   1    2.70   11.80
  -2 -11  -2   12.16    8.34
   2  11   2   -1.01    8.75
  -2 -11  -3   15.35   11.86
   2  11   3   25.23   10.77
  -2 -11  -4    3.51   11.22
   2  11   4    1.01   10.43
   2  11   5    4.38   10.12
   2  11   6   45.97    8.79
   2  11   7   -6.44   11.52
   2  11   9   -3.06   10.54
   2  12   2   32.04   14.02
   2  12   3   38.36   10.68
   2  12   4   14.34   12.34
   2  12   5  -13.02   12.35
   2  12   6    5.69   12.04
   2  12   7    1.34   13.41
   3  -9   1   40.96   11.42
   3  -9   2  -12.78   10.76
  -3   8  -1   93.10   16.60
   3  -8   1  731.97  253.69
   3  -8   1  120.66   15.67
   3  -8   1   92.53   14.51
   3  -8   2   13.57    9.50
   3  -8   3   20.04   10.87
   3  -8   4   39.39   13.92
  -3   7  -1   55.27    8.20
   3  -7   1   25.03    8.35
   3  -7   1   21.59    8.91
   3  -7   1   18.07    9.38
  -3   7  -2   60.55   11.64
   3  -7   2   59.17   12.81
   3  -7   2   81.11   11.37
  -3   7  -3   -1.03    7.88
   3  -7   3  140.14  163.56
   3  -7   4    1.03    9.25
  -3   6  -1   64.93   12.72
   3  -6   1   45.79    9.09
   3  -6   1   68.32   10.02
   3  -6   1   52.76    8.39
  -3   6  -2    8.27    6.20
   3  -6   2   16.35    6.26
   3  -6   2    2.08    6.58
  -3   6  -3  102.52   14.51
   3  -6   3   81.77   14.56
   3  -6   3   92.92   14.59
  -3   6  -4   24.84    9.32
   3  -6   4   10.35    8.97
   3  -6   5   10.33    8.95
   3  -6   6    9.60   10.29
   3  -6   7    9.56   16.73
  -3   5  -1   33.19    6.92
   3  -5   1   28.43    4.92
   3  -5   1   22.56    5.56
   3  -5   1   19.66    7.37
  -3   5  -2  530.83   43.15
   3  -5   2  479.41   43.04
   3  -5   2  526.81   35.39
  -3   5  -3  416.40   70.60
  -3   5  -3  426.00   40.84
   3  -5   3  417.51   30.01
   3  -5   3  429.08   51.07
  -3   5  -4   64.25   10.77
  -3   5  -4   56.37    8.06
   3  -5   4   58.36    9.73
   3  -5   4   72.21   11.53
  -3   5  -5    4.50    7.27
  -3   5  -5    9.77    5.58
   3  -5   5    5.54    9.34
  -3   5  -6   -2.07    8.62
  -3   5  -6   -6.60    4.86
   3  -5   7   69.01   13.07
   3  -5   8   -4.10   11.27
  -3   4  -1   25.03    4.87
  -3   4  -1   26.90    5.31
   3  -4   1   20.08    4.23
   3  -4   1   15.35    3.84
   3  -4   1   30.32    6.35
  -3   4  -2  506.14  143.15
  -3   4  -2  571.73   92.99
   3  -4   2  461.13  105.72
   3  -4   2  640.78  111.31
  -3   4  -3  219.62   26.61
  -3   4  -3  252.05   22.96
   3  -4   3  219.34   24.54
   3  -4   3  223.98   29.84
  -3   4  -4  357.31   26.28
  -3   4  -4  335.26   36.95
   3  -4   4  377.17   33.25
   3  -4   4  376.90   23.37
  -3   4  -5  136.13   13.95
  -3   4  -5  148.45   15.09
   3  -4   5  158.24   13.62
   3  -4   5  155.37   16.86
  -3   4  -6   -7.28    6.93
  -3   4  -6    5.23    4.88
   3  -4   6    7.29    9.38
   3  -4   6    4.18    4.53
  -3   4  -7   43.81   11.05
  -3   4  -7   31.24    6.25
   3  -4   8   -2.40   10.98
   3  -4   9   -3.41   13.31
  -3   3  -1  361.17   31.17
  -3   3  -1  314.08   17.45
   3  -3   1  359.24   17.70
   3  -3   1  366.04   23.19
   3  -3   1  359.33   31.85
  -3   3  -2  344.67   32.71
  -3   3  -2  369.54   24.16
   3  -3   2  362.83   26.82
   3  -3   2  353.39   28.15
  -3   3  -3   31.29    4.93
  -3   3  -3   28.98    4.95
   3  -3   3   14.09    5.64
   3  -3   3   27.08    5.63
  -3   3  -4  187.03   54.05
  -3   3  -4  316.02   68.72
   3  -3   4  279.59   51.01
   3  -3   4  329.02   95.40
  -3   3  -5   27.97   13.29
  -3   3  -5   25.97   10.53
   3  -3   5   27.37    9.48
   3  -3   5   27.06   16.16
  -3   3  -6    8.01    6.96
  -3   3  -6   12.23    4.19
   3  -3   6   11.89    6.65
   3  -3   6    8.75    8.05
  -3   3  -7    5.20    6.93
  -3   3  -7   15.65    5.56
   3  -3   7   16.02   10.79
  -3   3  -8   57.91   12.77
  -3   3  -8   81.62    9.72
   3  -3   9   80.87   20.93
  -3   2  -1    3.86    2.10
  -3   2  -1    8.18    3.56
  -3   2  -1    6.76    3.56
   3  -2   1    2.83    2.48
   3  -2   1    6.33    3.87
   3  -2   1    3.55    3.19
  -3   2  -2   89.25    7.08
  -3   2  -2   96.20    6.76
   3  -2   2   90.63    7.09
   3  -2   2   96.75    7.05
  -3   2  -3   44.49    5.66
  -3   2  -3   32.22    4.96
   3  -2   3   26.78    4.23
  -3   2  -4   19.38    4.58
  -3   2  -4    9.53    4.59
   3  -2   4   22.30    4.96
   3  -2   4   27.51    4.94
  -3   2  -5    4.21    5.62
   3  -2   5    7.77    6.01
   3  -2   5   14.44    5.64
  -3   2  -6   33.93    8.40
  -3   2  -6   24.85    5.95
   3  -2   6   17.97    6.34
   3  -2   6   36.17    7.38
  -3   2  -7   16.36    7.66
   3  -2   7    7.01    8.07
   3  -2   7   -3.49    4.89
  -3   2  -8   23.89    9.01
   3  -2   8   -1.05    7.32
   3  -2   9   -2.75    9.29
   3  -2  10   43.77   13.35
  -3   1  -1  770.09   49.52
  -3   1  -1  724.79   43.79
  -3   1  -1  821.59   36.82
   3  -1   1  821.72   45.52
   3  -1   1  780.58   38.41
   3  -1   1  817.10   52.64
  -3   1  -2  193.88   11.76
  -3   1  -2  223.08   12.89
  -3   1  -2  218.23   15.67
   3  -1   2  207.41   13.90
   3  -1   2  215.52   12.40
  -3   1  -3  109.89   13.14
  -3   1  -3  112.43    7.48
   3  -1   3  142.97   12.86
   3  -1   3  111.84    9.55
  -3   1  -4   19.12   12.04
   3  -1   4   27.11    9.28
   3  -1   4   17.30    8.47
  -3   1  -5   17.31    5.65
   3  -1   5    1.78    4.63
   3  -1   5   12.70    5.65
  -3   1  -6   21.12    6.69
   3  -1   6   18.47    5.68
   3  -1   6    8.09    6.33
  -3   1  -7   85.81   12.62
   3  -1   7   73.53    8.50
  -3   1  -8    9.40    8.01
   3  -1   8    8.78    8.43
   3  -1   9   26.29   11.07
   3  -1  10    1.37    9.96
   3  -1  11   17.73   13.30
  -3   0   0   16.75    5.35
   3   0   0   25.70    4.71
   3   0   0   25.99    4.63
   3   0   0   18.16    5.34
  -3   0  -1  228.14   17.39
  -3   0  -1  188.47   37.14
  -3   0  -1  870.68  185.65
   3   0   1  693.62   83.86
   3   0   1  599.15  157.10
  -3   0  -2 1746.41  259.07
  -3   0  -2 2926.34  642.17
   3   0   2 2375.46  351.79
   3   0   2 1991.62  280.90
  -3   0  -3 1294.94  137.75
  -3   0  -3  942.91   55.67
   3   0   3 1265.43  109.10
   3   0   3  936.01   47.99
  -3   0  -4   11.09    3.94
   3   0   4    9.02    3.61
   3   0   4    7.77    2.83
  -3   0  -5  187.97   12.92
   3   0   5  182.89   11.95
   3   0   5  208.54   20.16
  -3   0  -6  177.15   25.95
   3   0   6  158.85   11.89
   3   0   6  163.72   12.74
  -3   0  -7   19.76   11.65
   3   0   7    1.78    6.78
   3   0   7    1.40    4.21
  -3   0  -8    6.31    7.71
   3   0   8   -6.73    7.08
  -3   0  -9    3.13    8.70
   3   0   9   -6.67    4.92
   3   0  10   42.12   11.40
   3   0  11  136.96   20.99
  -3  -1   0   66.48    5.44
  -3  -1   0   77.32    6.42
   3   1   0   71.48    4.99
   3   1   1   22.72    1.79
  -3  -1  -2 1918.09  108.94
  -3  -1  -2 2064.85  115.21
   3   1   2 2130.83  148.79
  -3  -1  -3 1074.54  149.41
  -3  -1  -3  988.19   61.53
   3   1   3 1031.37  103.17
   3   1   3  840.66   53.34
  -3  -1  -4   88.50   32.65
   3   1   4   59.34   11.66
   3   1   4   47.69    9.19
  -3  -1  -5   98.09    8.34
   3   1   5   99.90    8.03
   3   1   5   98.78    6.39
  -3  -1  -6  168.05   14.39
   3   1   6  156.31   12.00
   3   1   6  171.81    9.95
  -3  -1  -7  851.36   83.14
   3   1   7  834.79   60.82
   3   1   7  839.58   55.19
  -3  -1  -8  477.67   75.64
   3   1   8  505.91   49.15
   3   1   8  498.86   44.91
  -3  -1  -9   14.71    8.75
   3   1   9    5.67    7.79
   3   1   9   22.20    5.55
  -3  -1 -10    7.29   10.07
   3   1  10    5.17    5.85
   3   1  11    8.26   12.38
   3   1  12   34.42   12.96
  -3  -2   0    9.97    2.49
   3   2   0   12.06    2.13
  -3  -2  -1   -1.42    1.77
   3   2   1    0.36    1.78
  -3  -2  -2  227.27   14.66
  -3  -2  -2  257.85   28.29
   3   2   2  240.86   31.40
  -3  -2  -3  496.50   49.71
  -3  -2  -3  421.24   32.09
  -3  -2  -3  401.14   27.26
   3   2   3  448.62   32.69
  -3  -2  -4  656.89   45.58
  -3  -2  -4  719.94   42.80
  -3  -2  -4  737.75   33.87
   3   2   4  766.70   38.53
  -3  -2  -5    6.15    2.53
   3   2   5    6.52    3.99
   3   2   5    8.12    3.18
  -3  -2  -6   92.53   11.55
   3   2   6  100.85    8.38
  -3  -2  -7   79.79    8.61
   3   2   7  112.89   10.17
   3   2   7   99.33    7.42
  -3  -2  -8  129.97   19.91
   3   2   8  142.51   12.29
   3   2   8  149.21   12.31
  -3  -2  -9   77.82   10.24
   3   2   9   82.50   10.74
   3   2   9   69.84    9.75
  -3  -2 -10    3.84    9.07
   3   2  10   15.53    6.91
  -3  -2 -11   13.48   11.41
   3   2  11    9.25    7.88
   3   2  12   32.85   13.70
  -3  -3   0  537.30   29.60
   3   3   0  549.21   34.42
  -3  -3  -1  218.94   16.70
   3   3   1  196.80   17.02
  -3  -3  -2    7.14    2.50
   3   3   2   14.30    2.86
  -3  -3  -3   11.69    3.54
  -3  -3  -3    7.16    2.51
   3   3   3   15.71    2.86
  -3  -3  -4   46.65    6.72
  -3  -3  -4   53.18    3.91
   3   3   4   57.94    4.32
   3   3   4   67.53    9.55
  -3  -3  -5   42.37   14.73
  -3  -3  -5   13.56    6.42
   3   3   5   17.33    2.83
  -3  -3  -6  117.50   11.54
  -3  -3  -6  112.65    8.68
   3   3   6  125.20    8.16
  -3  -3  -7   -2.87    4.30
  -3  -3  -7   -1.08    3.97
   3   3   7   -2.46    3.16
  -3  -3  -8   -0.71    5.70
  -3  -3  -8    6.86    5.05
   3   3   8    2.45    4.90
  -3  -3  -9    4.60    4.95
  -3  -3  -9    4.31    5.39
   3   3   9   -3.48    4.88
  -3  -3 -10   -3.86    7.01
   3   3  10    5.54    6.23
  -3  -3 -11   -5.55    9.72
   3   3  11   11.70    6.88
   3   3  12    2.75   11.68
  -3  -4   0   13.08    3.89
   3   4   0   19.76    4.59
  -3  -4  -1  370.13   20.31
   3   4   1  396.45   35.30
  -3  -4  -2  140.45   20.34
   3   4   2  211.07   57.48
  -3  -4  -3    2.49    3.20
   3   4   3    3.21    3.57
  -3  -4  -4 1607.49  118.07
  -3  -4  -4 1524.02   67.31
   3   4   4 1584.77  105.89
  -3  -4  -5  776.57   43.98
  -3  -4  -5  830.99   45.23
   3   4   5  811.24   41.20
   3   4   5  821.22   54.81
  -3  -4  -6   29.35   13.25
  -3  -4  -6   23.79    5.68
   3   4   6   24.04    3.89
  -3  -4  -7   17.54    3.94
   3   4   7    4.23    3.53
  -3  -4  -8   28.52    6.78
  -3  -4  -8   16.18    6.47
   3   4   8   43.93    5.28
  -3  -4  -9  223.25   26.65
  -3  -4  -9  200.70   17.37
   3   4   9  240.32   15.90
  -3  -4 -10  196.18   17.69
  -3  -4 -10  121.83   12.63
   3   4  10  175.73   15.43
  -3  -4 -11   36.22   10.46
   3   4  11   24.91    6.93
  -3  -4 -12    3.10   11.37
   3   4  12    2.06    8.25
  -3  -5   0  688.47  148.19
   3   5   0  667.80  106.90
  -3  -5  -1 2399.81  239.62
   3   5   1 2672.19  302.45
  -3  -5  -2  789.99   85.89
   3   5   2  787.14   71.95
  -3  -5  -3   80.82    9.63
   3   5   3   93.61   10.65
  -3  -5  -4   96.73   24.72
  -3  -5  -4   43.04    3.21
   3   5   4   61.99    6.07
  -3  -5  -5  861.91   84.31
  -3  -5  -5  653.01   33.76
   3   5   5  744.72   68.33
  -3  -5  -6  708.19   49.73
   3   5   6  726.57   52.05
  -3  -5  -7  344.22   22.76
   3   5   7  361.70   21.36
  -3  -5  -8   92.23    9.65
  -3  -5  -8   90.93    9.30
   3   5   8  104.01    7.48
  -3  -5  -9   48.57   10.64
  -3  -5  -9   39.78   10.04
   3   5   9   76.50    6.73
  -3  -5 -10   -8.45    8.45
  -3  -5 -10  -19.37   10.40
   3   5  10    6.67    5.26
  -3  -5 -11   37.35   11.53
   3   5  11   64.92    8.77
   3   5  12   16.24    8.99
  -3  -6   0    9.15    4.92
   3   6   0    0.00    4.90
  -3  -6  -1   34.26    7.77
   3   6   1   30.74    4.89
  -3  -6  -2 1021.48  157.40
   3   6   2  636.06   54.66
  -3  -6  -3  227.91   13.94
   3   6   3  221.78   28.50
  -3  -6  -4   13.43    4.95
   3   6   4   20.16    5.31
  -3  -6  -5   89.69    8.78
  -3  -6  -5   80.19    4.20
   3   6   5   91.98    7.83
  -3  -6  -6   80.62    8.05
   3   6   6   88.23    7.14
   3   6   7    1.75    6.65
  -3  -6  -8   26.29    5.33
  -3  -6  -8   19.76    6.00
  -3  -6  -9   -3.54    8.14
  -3  -6  -9   -3.91    7.83
   3   6   9   -1.07    3.20
  -3  -6 -10  326.66   23.15
   3   6  10  294.57   19.86
   3   6  11  199.07   19.37
   3   6  12   71.94   13.53
  -3  -7   0    8.77    3.86
   3   7   0   -1.04    5.92
  -3  -7  -1    2.82    5.64
   3   7   1    3.13    5.21
  -3  -7  -2    4.25    5.66
   3   7   2    0.69    5.21
  -3  -7  -3    1.06    5.32
   3   7   3    5.58    4.88
  -3  -7  -4   -3.53    5.30
   3   7   4   13.66    4.21
  -3  -7  -5   14.01    5.96
  -3  -7  -5    4.53    1.39
   3   7   5    4.93    5.28
  -3  -7  -6   18.79    6.61
   3   7   6   21.56    6.72
  -3  -7  -7   31.99    8.35
   3   7   7   34.69    7.44
  -3  -7  -8   17.83    8.04
   3   7   8   15.57    5.31
  -3  -7  -9    7.76    9.88
  -3  -7  -9    7.40   10.57
   3   7  10   -5.97   10.19
   3   7  11   30.70   11.17
   3   7  12   29.73   10.38
  -3  -8   0   28.64    8.73
   3   8   0   42.91    9.69
  -3  -8  -1    1.05    5.97
   3   8   1    2.07    6.22
  -3  -8  -2  183.77   17.67
   3   8   2  181.95   14.88
  -3  -8  -3  622.61   62.30
   3   8   3  560.45   48.51
  -3  -8  -4  472.80   51.52
   3   8   4  425.83   29.59
  -3  -8  -5   55.97    8.06
   3   8   5   65.22    8.38
  -3  -8  -6    5.21    8.68
   3   8   6   11.91    4.55
  -3  -8  -7   65.05   12.47
   3   8   7   57.95    8.44
  -3  -8  -8   61.03   12.50
   3   8   8   98.07   11.28
  -3  -8  -9   48.79    9.49
   3   8   9   55.46    7.75
   3   8  10   23.78    9.45
   3   8  11    7.30    9.74
   3   8  12   -1.38   12.07
  -3  -9   0  480.00   35.80
   3   9   0  503.61   41.03
  -3  -9  -1   38.45   10.14
   3   9   1   22.66    8.24
  -3  -9  -2   -5.27    6.67
   3   9   2    1.71    7.20
  -3  -9  -3    5.98    8.44
   3   9   3    6.18    7.20
  -3  -9  -4  222.49   32.67
   3   9   4  332.17   42.68
  -3  -9  -5  209.63   17.84
   3   9   5  243.35   22.47
  -3  -9  -6   50.90    9.70
   3   9   6   57.54    8.67
  -3  -9  -7   13.43   10.68
   3   9   7   30.61    8.70
   3   9   8   12.20    8.36
   3   9   9   23.34    6.97
   3   9  10   -9.04    7.99
   3   9  11   24.90    9.00
   3  10   0   18.09   10.58
  -3 -10  -1   93.68   11.90
   3  10   1  153.72   16.05
   3  10   2   67.75   10.22
   3  10   3   34.04   10.55
   3  10   4  189.83   22.18
   3  10   5   80.30   14.02
   3  10   6   -6.86    8.57
   3  10   7    7.22    7.22
   3  10   8  122.76   15.55
   3  10   9  364.05   29.58
   3  10  10  147.49   15.61
   3  10  11   28.84   13.40
   3  11   0   39.26   12.53
   3  11   1   20.63   11.84
  -3 -11  -2   10.10    7.66
   3  11   2   -3.04   10.14
   3  11   3  -11.48    9.12
   3  11   4    8.45   10.13
   3  11   5   52.79   10.83
   3  11   6   66.49   12.56
   3  11   7   22.45   10.89
   3  11   8    4.09   12.62
   3  11   9   14.68   12.63
   3  11  10    7.51    9.21
   3  12   2   84.10   15.09
   3  12   3    0.00   10.71
   3  12   4   10.05   11.72
   3  12   5   11.73   13.74
   3  12   6    2.01    8.73
   3  12   7    7.40   12.45
   3  12   8   -9.10   11.80
  -4   8  -1   80.39   14.14
   4  -8   1   43.32   12.72
   4  -8   2    3.71   10.11
   4  -8   3    0.68   10.13
  -4   7  -1    6.44    9.15
   4  -7   1    2.08   11.08
   4  -7   1   -0.34    8.49
   4  -7   1    2.77    8.65
  -4   7  -2   -3.40    7.14
   4  -7   2    6.90    9.31
   4  -7   2    8.52   11.58
   4  -7   3    1.02    8.17
   4  -7   4   12.95   11.25
   4  -7   5   29.27   12.25
  -4   6  -1   35.17    8.20
   4  -6   1   10.80    5.92
   4  -6   1   35.26    8.22
   4  -6   1   32.03    9.75
  -4   6  -2   11.64    6.51
   4  -6   2   10.41    6.59
   4  -6   2    9.27    5.49
  -4   6  -3    0.34    7.55
   4  -6   3   13.82   12.78
   4  -6   3   -2.41    6.53
  -4   6  -4   32.63    7.90
   4  -6   4   15.13    9.97
   4  -6   5   -0.34    8.92
   4  -6   6   -7.86   16.41
  -4   5  -1   61.18   15.13
   4  -5   1   68.95   13.30
   4  -5   1  155.09   12.10
   4  -5   1   78.03   16.80
  -4   5  -2  260.33   23.84
  -4   5  -2  242.39   20.06
   4  -5   2  230.11   18.50
   4  -5   2  255.56   17.70
  -4   5  -3   23.17    8.64
  -4   5  -3   32.54    9.10
   4  -5   3   37.87    7.65
   4  -5   3   33.91   11.42
  -4   5  -4    2.77    7.96
  -4   5  -4    9.42    6.28
   4  -5   4    5.89    7.96
   4  -5   4    7.62    7.62
  -4   5  -5   31.76    8.98
  -4   5  -5   52.83    8.00
   4  -5   5   31.74    9.66
  -4   5  -6    1.38    8.95
  -4   5  -6    3.11    5.54
   4  -5   7   14.04    9.59
  -4   4  -1   54.29   23.17
  -4   4  -1   81.49   25.76
   4  -4   1   72.03   24.24
   4  -4   1  137.67   13.89
   4  -4   1   96.29   24.60
  -4   4  -2  292.45   93.34
  -4   4  -2  338.48   78.57
   4  -4   2  271.11   52.90
   4  -4   2  307.97   47.60
  -4   4  -3   88.39   38.98
  -4   4  -3  163.04   48.85
   4  -4   3  156.51   35.29
   4  -4   3  224.31   60.88
  -4   4  -4  117.63   14.63
  -4   4  -4  122.60   13.68
   4  -4   4  109.42   15.69
   4  -4   4  113.44   16.73
  -4   4  -5   14.24    6.25
  -4   4  -5   30.71    8.03
   4  -4   5   28.50    7.99
   4  -4   5   24.34    9.04
  -4   4  -6   76.44   11.08
  -4   4  -6   81.31    8.71
   4  -4   6   58.52   13.51
  -4   4  -7  163.53   25.52
  -4   4  -7  148.37   13.89
   4  -4   8   23.29   10.96
  -4   3  -1    2.78    3.48
  -4   3  -1    5.32    4.96
  -4   3  -1    3.54    4.60
   4  -3   1   -1.76    2.47
   4  -3   1    0.00    4.19
   4  -3   1   -2.12    4.23
  -4   3  -2   66.62    6.64
  -4   3  -2   50.52    8.13
   4  -3   2   46.07    5.98
   4  -3   2   49.18    5.94
  -4   3  -3  539.35   43.54
  -4   3  -3  566.78   35.37
   4  -3   3  561.56   43.61
   4  -3   3  580.65   39.26
  -4   3  -4  173.88   15.08
  -4   3  -4  192.91   17.95
   4  -3   4  178.49   26.31
   4  -3   4  187.97   23.44
  -4   3  -5   14.65    5.23
  -4   3  -5   18.90    5.95
   4  -3   5   15.40    6.30
   4  -3   5   26.53    7.68
  -4   3  -6    5.56    7.64
  -4   3  -6   12.90    4.88
   4  -3   6   12.56    7.33
   4  -3   6   18.46    8.01
  -4   3  -7   18.67    8.30
  -4   3  -7    7.28    6.59
   4  -3   7    3.47    8.34
  -4   3  -8   78.10   11.38
  -4   3  -8   47.96    8.64
   4  -3   9   12.32   12.66
  -4   2  -1    7.34    2.45
  -4   2  -1   14.22    4.62
  -4   2  -1    3.19    4.97
   4  -2   1    8.48    2.47
   4  -2   1    4.56    3.86
   4  -2   1    3.18    4.60
  -4   2  -2    4.91    3.51
  -4   2  -2    5.68    4.97
  -4   2  -2   12.04    4.60
   4  -2   2   -0.71    3.18
   4  -2   2    9.81    4.20
  -4   2  -3   -0.35    2.81
  -4   2  -3    7.77    4.59
   4  -2   3    5.65    4.24
   4  -2   3   -1.40    2.80
  -4   2  -4   15.46    5.27
  -4   2  -4   12.68    4.58
   4  -2   4   14.12    4.94
   4  -2   4   16.12    5.96
  -4   2  -5   24.52    5.26
  -4   2  -5   21.75    6.32
   4  -2   5   25.56    7.35
  -4   2  -6    5.23    5.58
  -4   2  -6   10.48    5.59
   4  -2   6   -6.68    5.27
   4  -2   6    0.00    6.29
  -4   2  -7    4.17    5.22
   4  -2   7   12.26    6.66
   4  -2   7   -6.61    8.70
  -4   2  -8    3.46    8.64
  -4   2  -8   -2.77    5.88
   4  -2   8   12.54    8.01
   4  -2   9    0.69    9.97
   4  -2  10   11.61   11.61
  -4   1  -1  316.29   18.06
  -4   1  -1  390.02   29.99
  -4   1  -1  362.64   23.85
   4  -1   1  351.81   25.54
   4  -1   1  374.92   30.41
  -4   1  -2   73.94    5.30
  -4   1  -2   82.34    7.86
  -4   1  -2   72.35    8.87
   4  -1   2   80.22    7.11
   4  -1   2   73.88    4.94
  -4   1  -3  138.83    7.83
  -4   1  -3  142.05    9.99
  -4   1  -3  127.06   10.28
   4  -1   3  125.92   14.24
   4  -1   3  139.45    9.52
  -4   1  -4  237.44   23.69
  -4   1  -4  239.35   27.22
   4  -1   4  214.28   18.91
   4  -1   4  248.22   19.01
  -4   1  -5   80.97    7.77
   4  -1   5   76.81    8.55
   4  -1   5   63.50    6.33
  -4   1  -6   42.46    7.73
   4  -1   6   35.11    7.10
   4  -1   6   29.41    6.66
  -4   1  -7    6.64    6.99
   4  -1   7    0.35    5.65
   4  -1   7   17.09    9.77
  -4   1  -8   24.68    8.34
   4  -1   8   32.31    8.43
   4  -1   8   18.39    8.68
  -4   1  -9   24.87    9.33
   4  -1   9  773.48  258.16
   4  -1  10    5.83   10.64
   4  -1  11    6.81   14.31
  -4   0   0 1978.54  102.03
   4   0   0 1983.96   94.37
   4   0   0 2000.20  105.69
   4   0   0 2082.58  135.18
  -4   0  -1  409.77   32.79
  -4   0  -1  492.73   33.85
  -4   0  -2   54.51   14.87
  -4   0  -2  115.36   86.44
  -4   0  -2  188.62   72.47
   4   0   2  174.34   44.41
   4   0   2   60.06   20.85
  -4   0  -3   24.51    3.20
  -4   0  -3   31.01    4.64
   4   0   3   27.05    2.89
   4   0   3   28.18    4.58
  -4   0  -4  122.35   10.00
   4   0   4  119.57    8.68
   4   0   4  122.05    7.77
  -4   0  -5 1138.73  122.14
   4   0   5 1146.70   61.24
   4   0   5 1227.70   79.43
  -4   0  -6  492.33   49.69
   4   0   6  504.59   32.44
   4   0   6  521.99   29.68
  -4   0  -7  117.97   23.26
   4   0   7  137.58   12.17
   4   0   7  166.32   10.56
  -4   0  -8   17.85    9.80
   4   0   8   -1.42    8.50
   4   0   8   10.08    6.95
  -4   0  -9   14.60    8.34
   4   0   9   -1.41    6.68
   4   0   9    1.04    7.95
   4   0  10   71.41   12.10
   4   0  11    0.34   11.64
  -4  -1   0  100.82   31.18
  -4  -1   0  124.10   23.48
   4   1   0   53.96   23.43
   4   1   1  855.29  106.83
  -4  -1  -2  789.37   53.92
  -4  -1  -2  754.21   36.75
  -4  -1  -2  901.41   61.67
  -4  -1  -3  269.48   19.02
  -4  -1  -3  303.55   17.97
   4   1   3  280.50   18.52
   4   1   3  296.09   16.69
  -4  -1  -4   -1.08    3.25
  -4  -1  -4   -1.42    3.55
   4   1   4    0.73    2.90
   4   1   4    4.23    2.47
  -4  -1  -5  114.07   11.92
   4   1   5  128.97    8.39
   4   1   5  141.75    8.49
  -4  -1  -6   40.06   11.45
   4   1   6   17.70    5.42
   4   1   6   25.27    6.67
  -4  -1  -7   49.75   10.67
   4   1   7   66.15    7.57
   4   1   7   61.92    7.01
  -4  -1  -8   72.66   12.36
   4   1   8   54.32    7.88
   4   1   8   72.80    8.04
  -4  -1  -9    0.00    7.35
   4   1   9    5.32    7.45
   4   1   9   -0.35    6.58
  -4  -1 -10   79.81   16.33
   4   1  10   83.25   13.44
   4   1  11   11.35   13.76
   4   1  12   -4.09   13.29
  -4  -2   0   82.93   18.24
  -4  -2   0   92.41   15.29
   4   2   0   43.96   18.08
  -4  -2  -1   15.60    2.84
   4   2   1   14.62    2.85
  -4  -2  -2   72.87    5.35
  -4  -2  -2   93.43   19.62
   4   2   2   73.06    5.35
  -4  -2  -3  241.95   95.80
  -4  -2  -3   82.02    6.38
  -4  -2  -3  101.31   44.75
  -4  -2  -4    2.90    2.90
  -4  -2  -4    0.36    3.21
   4   2   4    0.35    3.53
  -4  -2  -5    1.45    3.26
  -4  -2  -5    7.21    2.89
  -4  -2  -5   12.00    3.88
   4   2   5   10.92    3.52
  -4  -2  -6   57.98    6.50
   4   2   6   63.30    7.25
   4   2   6   63.62    5.64
  -4  -2  -7  130.24   14.00
   4   2   7  133.30   12.68
   4   2   7  142.95   11.27
  -4  -2  -8    2.84    4.26
   4   2   8    1.44    7.55
   4   2   8    5.93    4.89
  -4  -2  -9   -7.75    7.04
   4   2   9    0.71    7.51
   4   2   9    3.12    6.25
  -4  -2 -10    5.93    9.07
   4   2  10  -14.53    6.74
   4   2  10    6.90    6.56
  -4  -2 -11   50.13   15.92
   4   2  11   31.52    8.92
   4   2  12   74.30   18.52
  -4  -3   0    8.52    2.84
   4   3   0   11.32    3.89
  -4  -3  -1   54.81    4.25
   4   3   1   63.05    4.97
  -4  -3  -2  369.65   23.19
   4   3   2  380.22   21.17
  -4  -3  -3  353.45   22.44
  -4  -3  -3  327.17   22.60
   4   3   3  319.16   24.65
  -4  -3  -4    0.00    2.47
  -4  -3  -4    1.79    2.50
  -4  -3  -5   -0.72    3.95
  -4  -3  -5    5.33    3.20
  -4  -3  -5    2.83    3.18
   4   3   5    5.29    3.18
  -4  -3  -6   19.41    4.68
  -4  -3  -6   12.55    3.59
   4   3   6   14.80    3.88
  -4  -3  -7    6.09    5.73
  -4  -3  -7   -6.84    4.32
   4   3   7    0.35    3.51
  -4  -3  -8   17.11    6.42
  -4  -3  -8   21.26    5.41
   4   3   8   11.55    4.20
  -4  -3  -9   -8.49    7.08
   4   3   9   -5.92    5.22
  -4  -3 -10   -4.21    8.77
  -4  -3 -10    7.85    6.07
   4   3  10    8.66    5.89
  -4  -3 -11  -17.02    9.38
   4   3  11    7.57    7.57
   4   3  12   -7.57   11.69
  -4  -4   0  894.63   57.92
   4   4   0  820.76   53.07
  -4  -4  -1   14.83    2.83
   4   4   1   27.16    3.53
  -4  -4  -2   29.45    3.91
   4   4   2   44.03    6.40
  -4  -4  -3  635.27   43.59
   4   4   3  625.92   43.65
  -4  -4  -4  669.94   50.94
  -4  -4  -4  604.49   38.36
   4   4   4  625.42   42.96
  -4  -4  -5  612.48   40.95
  -4  -4  -5  591.66   28.48
  -4  -4  -6   76.49    6.82
  -4  -4  -6   60.86    4.97
   4   4   6   81.10    6.01
  -4  -4  -7   67.21   11.10
  -4  -4  -7   91.34    8.58
   4   4   7   74.02    7.07
  -4  -4  -8    6.77    6.06
  -4  -4  -8   10.40    5.38
   4   4   8   12.30    3.87
  -4  -4  -9    3.90    7.44
  -4  -4  -9    5.75    6.83
   4   4   9   11.90    4.90
  -4  -4 -10   36.24   10.21
   4   4  10   44.59    7.33
  -4  -4 -11    9.07    6.28
   4   4  11    2.77    7.27
  -4  -4 -12   12.77    9.32
   4   4  12   14.46    8.95
  -4  -5   0  448.89   81.44
   4   5   0  463.52   78.11
  -4  -5  -1  839.61   54.55
   4   5   1  779.95   46.19
  -4  -5  -2  214.14   14.59
   4   5   2  190.72   13.44
  -4  -5  -3  227.02   14.65
   4   5   3  212.96   14.95
  -4  -5  -4  251.56   17.05
   4   5   4  247.18   15.01
  -4  -5  -5   55.44   21.76
  -4  -5  -5   45.29    5.31
   4   5   5   66.63   17.82
  -4  -5  -6  167.23   14.06
  -4  -5  -6  146.17   10.50
   4   5   6  154.69   15.02
  -4  -5  -7   12.48    4.64
  -4  -5  -7   10.23    4.94
   4   5   7   23.26    4.23
  -4  -5  -8  159.82   13.95
  -4  -5  -8  173.89   12.50
   4   5   8  182.91   10.35
  -4  -5  -9  262.37   32.00
  -4  -5  -9  293.96   22.66
   4   5   9  313.77   22.75
  -4  -5 -10  115.57   11.68
  -4  -5 -10   89.58   13.65
   4   5  10  133.83   11.34
  -4  -5 -11  -16.78    9.44
   4   5  11    2.80    5.59
  -4  -5 -12   -1.04    7.96
   4   5  12    8.34    8.00
   4   5  13   24.99    9.93
  -4  -6   0  494.44  124.00
   4   6   0  438.16   83.74
  -4  -6  -1   55.29    7.76
   4   6   1   55.97   10.15
  -4  -6  -2  127.78   12.06
   4   6   2   98.78   10.17
  -4  -6  -3   -1.78    4.62
   4   6   3   -2.11    4.58
  -4  -6  -4  309.87   18.87
   4   6   4  338.13   35.80
  -4  -6  -5  436.48   30.32
  -4  -6  -5  399.68   22.02
   4   6   5  405.97   23.54
  -4  -6  -6  348.11   25.24
  -4  -6  -6  339.79   19.57
   4   6   6  324.28   18.97
  -4  -6  -7   51.06    8.40
   4   6   7   48.72    5.70
  -4  -6  -8   19.18   12.79
  -4  -6  -8   27.11    7.04
  -4  -6  -9  104.31   11.74
   4   6   9   96.98    7.49
  -4  -6 -10  156.30   23.62
   4   6  10  208.74   13.36
  -4  -6 -11  174.89   17.96
   4   6  11  148.88   13.97
   4   6  12   -8.67   11.44
   4   6  13   10.29   13.72
  -4  -7   0   14.35    6.65
   4   7   0   12.55    6.97
  -4  -7  -1   18.27    5.97
   4   7   1   28.89    6.62
  -4  -7  -2   45.20    6.36
   4   7   2   59.89    9.06
  -4  -7  -3   10.99    5.32
   4   7   3   13.97    5.24
  -4  -7  -4    6.01    4.95
   4   7   4   -0.35    5.62
  -4  -7  -5   -3.16    5.27
   4   7   5    2.82    5.29
  -4  -7  -6   36.25    7.67
  -4  -7  -6   43.66    3.47
   4   7   6   44.57    6.73
  -4  -7  -7   39.29    9.74
   4   7   7   51.35    7.09
  -4  -7  -8   -2.09    5.23
   4   7   8    5.31    6.73
   4   7   9   10.55    5.98
   4   7  10   -4.92   10.55
   4   7  11   -4.89    6.99
   4   7  12   -8.66   12.13
   4   7  13    7.20    9.95
  -4  -8   0   21.96    8.02
   4   8   0    6.93    7.28
  -4  -8  -1    0.00    5.60
   4   8   1    3.12    4.15
  -4  -8  -2  101.39   11.28
   4   8   2   99.32   11.09
  -4  -8  -3  478.95   50.94
   4   8   3  384.36   27.46
  -4  -8  -4   86.10    9.19
   4   8   4  111.32   11.49
  -4  -8  -5    4.56    6.31
   4   8   5   12.23    6.64
  -4  -8  -6   43.16   10.10
  -4  -8  -6   62.79    3.47
   4   8   6   87.37    8.79
  -4  -8  -7   14.55    7.62
   4   8   7    5.63    7.04
   4   8   8   -6.24    8.66
  -4  -8  -9   17.77   94.09
   4   8   9   -4.57    8.09
   4   8  10   10.16   10.86
   4   8  11    2.79   10.81
   4   8  12    4.15   13.84
   4   9   0  125.03   29.29
  -4  -9  -1    5.58    9.42
   4   9   1   12.39    7.23
  -4  -9  -2  108.00   13.34
   4   9   2  137.87   23.05
  -4  -9  -3  336.25   25.40
   4   9   3  303.74   21.39
  -4  -9  -4   20.04    8.09
   4   9   4   29.31    7.24
  -4  -9  -5   29.03    8.40
   4   9   5   22.15    8.31
  -4  -9  -6    5.56    7.29
  -4  -9  -6   15.80    2.41
   4   9   6   10.08    5.56
  -4  -9  -7  163.59   29.02
   4   9   7  237.75   22.71
   4   9   8  536.03  176.12
   4   9   9   97.77   12.96
   4   9  10    9.06   11.85
   4   9  11   -1.04   11.45
   4   9  12   33.09   12.07
   4  10   0  126.54   19.86
   4  10   1    1.37    5.81
   4  10   2    3.41    7.85
   4  10   3  128.70   17.08
  -4 -10  -4 1179.24  243.58
   4  10   4 1075.01  122.51
  -4 -10  -5  885.88  234.86
   4  10   5  213.17   18.20
   4  10   6   -9.97    5.16
   4  10   7   -2.42    7.94
   4  10   8    3.80    9.34
   4  10  10  109.59   13.89
   4  11   0  -20.02   11.20
   4  11   1    4.07    7.80
   4  11   2   -0.34   10.17
   4  11   3   -4.40    9.48
   4  11   4    4.07    9.83
   4  11   5  -13.24    8.83
   4  11   6   38.12    9.87
   4  11   7    4.44   10.24
   4  11   8   20.53   11.29
   4  11   9    9.25   11.31
   4  11  10   -3.77   13.36
   4  12   2   23.53   11.77
   4  12   3    7.73   12.09
   4  12   4    9.41   12.10
   4  12   5   63.89   13.79
   4  12   6   20.55   12.13
   4  12   7    3.04    8.10
   4  12   8   -8.46   11.50
   4  12   9   10.50   24.74
   5  -8   1    1.34    8.35
  -5   7  -1    9.43    9.43
   5  -7   1    3.79    8.62
   5  -7   1   -8.77   12.81
   5  -7   1   25.49   11.02
  -5   7  -2   12.49    8.44
   5  -7   2    8.24    9.95
   5  -7   3   17.59    9.81
   5  -7   4   23.03   14.23
  -5   6  -1   13.57    5.77
   5  -6   1    9.02    7.63
   5  -6   1    0.00    7.82
   5  -6   1    3.12   10.40
  -5   6  -2   -9.86    6.12
   5  -6   2    4.15    9.67
   5  -6   2   -1.36    8.85
  -5   6  -3    4.09    6.82
   5  -6   3    1.03    8.60
  -5   6  -4    5.81   10.59
   5  -6   4    6.51    8.22
   5  -6   5    2.39    9.22
  -5   5  -1   70.07   22.22
  -5   5  -1   74.22   19.96
   5  -5   1   33.81    9.41
   5  -5   1   28.08    6.85
   5  -5   1   56.80   20.21
  -5   5  -2   26.03    7.88
  -5   5  -2   30.06    8.74
   5  -5   2   31.26    6.25
   5  -5   2   40.79    9.94
  -5   5  -3    6.18    6.87
  -5   5  -3    1.74    7.32
   5  -5   3   10.73    7.27
   5  -5   3   18.54    9.27
  -5   5  -4   70.87   11.71
  -5   5  -4   70.90    9.74
   5  -5   4   57.61   10.01
  -5   5  -5   71.85   12.73
  -5   5  -5   72.36   10.40
   5  -5   5   55.00   10.66
  -5   5  -6   35.32   10.29
  -5   5  -6   24.82   10.00
   5  -5   7    1.37   10.93
  -5   4  -1  512.13   31.13
  -5   4  -1  414.10   47.52
   5  -4   1  426.80   54.64
   5  -4   1  458.45   38.71
   5  -4   1  395.59   75.98
  -5   4  -2  458.98   36.29
  -5   4  -2  421.87   39.74
   5  -4   2  435.63   35.64
   5  -4   2  455.34   28.75
  -5   4  -3   68.11   14.18
  -5   4  -3   79.48   16.11
   5  -4   3   89.12    9.76
   5  -4   3   98.39   19.00
  -5   4  -4    5.89    5.89
  -5   4  -4    4.19    6.98
   5  -4   4    5.21    6.25
   5  -4   4    8.64    8.98
  -5   4  -5   10.72    6.57
  -5   4  -5   21.91    6.96
   5  -4   5   13.85    7.27
  -5   4  -6  105.17   13.81
  -5   4  -6   94.19   12.49
   5  -4   6   56.26   12.08
  -5   4  -7   97.52   15.82
  -5   4  -7   67.20   12.07
   5  -4   8   -7.18   10.59
  -5   3  -1   99.13   37.79
  -5   3  -1  103.02   29.40
  -5   3  -1   70.54   39.86
   5  -3   1   48.84   21.43
   5  -3   1   33.00    9.03
   5  -3   1   75.91   22.14
  -5   3  -2   88.70   10.41
  -5   3  -2  107.41   13.39
   5  -3   2  107.99   10.53
   5  -3   2   89.17    9.73
  -5   3  -3  187.12   17.08
  -5   3  -3  193.24   20.05
   5  -3   3  194.62   17.52
   5  -3   3  184.93   18.42
  -5   3  -4   75.58    8.72
  -5   3  -4   86.17    8.42
   5  -3   4   80.39    9.44
   5  -3   4   85.02   10.08
  -5   3  -5    6.61    4.52
  -5   3  -5    7.33    5.23
   5  -3   5    7.67    5.93
   5  -3   5   -0.69    5.55
  -5   3  -6   42.27    7.97
  -5   3  -6   42.39    7.30
   5  -3   6  116.53   54.27
  -5   3  -7   29.67    8.63
  -5   3  -7   22.83    8.30
   5  -3   7    8.66    7.97
  -5   3  -8   11.67   10.64
  -5   3  -8    2.06    6.88
   5  -3   9    4.10   12.63
  -5   2  -1    8.73    3.14
  -5   2  -1    7.09    4.96
  -5   2  -1    7.42    5.30
   5  -2   1    1.06    2.47
   5  -2   1    1.40    4.55
  -5   2  -2    3.83    2.79
  -5   2  -2    0.36    5.33
  -5   2  -2   11.30    5.65
   5  -2   2    1.76    3.87
  -5   2  -3    2.10    3.50
  -5   2  -3    0.00    5.64
   5  -2   3    4.58    4.22
   5  -2   3    5.92    4.53
  -5   2  -4    0.70    4.20
  -5   2  -4    2.81    5.97
   5  -2   4   -2.11    5.28
   5  -2   4    2.44    5.22
  -5   2  -5    8.03    4.54
  -5   2  -5   15.05    5.95
   5  -2   5   11.25    4.92
   5  -2   5    1.04    5.57
  -5   2  -6    6.96    5.57
  -5   2  -6   -5.92    4.88
   5  -2   6   -3.16    6.31
   5  -2   6   -1.04    7.64
  -5   2  -7    5.54    6.58
  -5   2  -7    4.16    6.59
   5  -2   7   17.12    6.64
   5  -2   7    5.54    7.27
  -5   2  -8   38.62    9.32
  -5   2  -8    5.52    7.25
   5  -2   8   34.43   19.13
   5  -2   9   24.01   12.01
   5  -2  10   10.23   13.30
  -5   1  -1   21.84    2.47
  -5   1  -1   25.84    6.02
  -5   1  -1   25.50    6.02
   5  -1   1   20.15    2.83
  -5   1  -2    3.15    2.10
  -5   1  -2    2.85    4.62
  -5   1  -2   -1.77    4.95
   5  -1   2    3.90    2.83
   5  -1   2    4.21    2.81
  -5   1  -3   51.30    4.23
  -5   1  -3   59.40   18.50
  -5   1  -3   57.18    7.42
   5  -1   3   51.83    8.88
   5  -1   3   60.89    5.61
  -5   1  -4  183.80   12.72
  -5   1  -4  173.91   17.98
   5  -1   4  159.80   15.65
   5  -1   4  168.78   14.01
  -5   1  -5   36.47    6.32
  -5   1  -5   35.45    8.43
   5  -1   5   33.70    6.74
   5  -1   5   48.51    6.99
  -5   1  -6    9.79    7.34
   5  -1   6    1.77    4.60
   5  -1   6   10.10    6.27
  -5   1  -7   16.72    6.27
   5  -1   7    8.81    6.35
   5  -1   7   29.17    6.60
  -5   1  -8    0.69    7.63
   5  -1   8   14.03    7.02
   5  -1   8    0.00    4.15
  -5   1  -9    5.51    8.62
   5  -1   9  -13.59   88.88
   5  -1  10   22.61   10.28
  -5   0   0 1558.16  246.64
  -5   0   0 1763.59  234.20
   5   0   0 1787.35   90.55
   5   0   0 1361.72   67.60
  -5   0  -1  923.28   68.82
  -5   0  -1  860.47   66.43
  -5   0  -2  155.30    7.44
  -5   0  -2  162.61    9.66
  -5   0  -2  162.22   13.84
   5   0   2  164.58    9.90
  -5   0  -3   12.35    6.35
  -5   0  -3    8.20    5.71
  -5   0  -3   34.66   20.87
   5   0   3   27.34    7.20
   5   0   3   12.65    4.57
  -5   0  -4  115.17   34.99
  -5   0  -4  193.05   64.72
   5   0   4  120.68   15.11
   5   0   4  146.51   39.27
  -5   0  -5  266.28   19.18
   5   0   5  255.19   16.58
   5   0   5  267.30   20.36
  -5   0  -6  303.37   24.78
   5   0   6  292.28   24.03
   5   0   6  286.27   25.56
   5   0   7   -6.76    5.69
   5   0   7    7.66    5.92
  -5   0  -8   64.22   11.18
   5   0   8   51.67    7.80
   5   0   8   49.90    9.37
  -5   0  -9   12.83   10.41
   5   0   9   24.61    7.03
   5   0  10   -8.61    8.96
   5   0  11  -10.60   10.26
  -5  -1   0  229.83   68.82
   5   1   0   70.83   20.19
  -5  -1  -1  462.67  307.51
  -5  -1  -1  717.64  263.24
   5   1   2  293.31   21.41
  -5  -1  -3  122.11    8.27
  -5  -1  -3  127.14    9.67
   5   1   3  132.16    9.54
  -5  -1  -4  159.55   13.34
  -5  -1  -4  176.16   10.04
   5   1   4  163.75   10.51
   5   1   4  179.98   10.25
  -5  -1  -5  847.60   87.31
  -5  -1  -5  862.83   44.61
   5   1   5  860.33   55.91
   5   1   5  966.90   67.98
  -5  -1  -6  227.04   17.93
   5   1   6  229.31   20.95
   5   1   6  228.80   23.84
  -5  -1  -7   42.17    6.39
   5   1   7   33.72    5.39
   5   1   7   39.41    6.63
  -5  -1  -8    7.74    6.34
   5   1   8    1.07    6.42
   5   1   8    3.13    7.64
  -5  -1  -9   40.18   10.14
   5   1   9   20.57    6.39
   5   1   9   24.19    8.30
  -5  -1 -10  282.11   32.70
   5   1  10  734.89  295.60
   5   1  11   63.58   20.29
  -5  -2   0   35.06    5.07
  -5  -2   0   42.54    6.74
   5   2   0   32.21    3.19
  -5  -2  -1  222.36   13.68
  -5  -2  -1  187.04   15.65
   5   2   1  205.92   10.77
  -5  -2  -2  229.42   12.42
  -5  -2  -2  216.68   16.03
  -5  -2  -3    8.00    2.18
  -5  -2  -3   12.02    2.12
  -5  -2  -3   10.00    3.21
  -5  -2  -4    0.00    2.55
  -5  -2  -4    0.35    2.12
  -5  -2  -4   -1.79    2.50
   5   2   4    2.47    3.17
  -5  -2  -5  453.36   25.36
  -5  -2  -5  428.81   25.59
  -5  -2  -5  468.67   22.19
   5   2   5  503.37   26.56
  -5  -2  -6  343.76   25.76
   5   2   6  374.53   27.12
   5   2   6  367.86   21.55
  -5  -2  -7  126.55   11.85
   5   2   7  136.05   13.36
   5   2   7  167.47   10.92
  -5  -2  -8   47.54    7.82
   5   2   8   50.97    6.83
   5   2   8   45.97    6.28
  -5  -2  -9    0.35    7.04
   5   2   9    5.36    5.36
   5   2   9   -4.85    5.89
  -5  -2 -10    2.79    8.02
   5   2  10    8.51    9.22
   5   2  10    5.51    6.55
   5   2  11   48.73   10.73
   5   2  12   -0.68   13.01
  -5  -3   0    3.56    3.20
  -5  -3   0    2.83    4.25
   5   3   0    4.24    3.18
  -5  -3  -1    6.37    2.48
   5   3   1    4.25    2.84
  -5  -3  -2    5.64    2.12
   5   3   2    9.98    2.50
  -5  -3  -3  201.59   11.06
  -5  -3  -3  177.90   15.72
  -5  -3  -4    8.21    2.86
  -5  -3  -4    7.39    2.82
  -5  -3  -4    2.86    3.57
  -5  -3  -5   -8.63    3.60
  -5  -3  -5   -1.06    2.82
  -5  -3  -5    2.85    3.56
   5   3   5   -4.22    3.87
  -5  -3  -6    8.27    4.32
  -5  -3  -6   11.04    3.56
  -5  -3  -6   13.38    4.23
   5   3   6    8.43    3.87
  -5  -3  -7    3.94    4.66
  -5  -3  -7   -0.36    4.30
   5   3   7   -1.05    4.21
  -5  -3  -8    2.49    6.77
  -5  -3  -8    3.95    3.59
   5   3   8    4.89    4.54
  -5  -3  -9    6.01    7.07
  -5  -3  -9   -1.08    5.74
   5   3   9  -11.48    5.57
  -5  -3 -10   -2.81    8.77
  -5  -3 -10    7.49    9.28
   5   3  10    2.42    6.92
  -5  -3 -11   15.98   10.08
   5   3  11   -2.06    8.60
   5   3  12   14.79   12.04
  -5  -4   0  434.91   34.46
   5   4   0  404.54   30.04
  -5  -4  -1  164.36   14.50
   5   4   1  169.76   14.15
  -5  -4  -2  107.64   13.07
   5   4   2   94.17   16.00
  -5  -4  -3   43.32   22.37
   5   4   3   37.03   16.74
  -5  -4  -4  189.80   13.12
  -5  -4  -4  180.93   19.65
   5   4   4  190.63   18.51
  -5  -4  -5   37.56    4.92
  -5  -4  -5   27.40    4.27
  -5  -4  -6   11.07    4.64
  -5  -4  -6   10.57    3.87
  -5  -4  -6    8.45    3.52
   5   4   6    1.76    3.51
  -5  -4  -7  295.79   19.12
  -5  -4  -7  263.72   16.76
   5   4   7  310.76   15.28
  -5  -4  -8  167.11   16.10
  -5  -4  -8  141.80   14.32
   5   4   8  161.09   10.96
  -5  -4  -9    8.86    6.73
   5   4   9   10.49    5.25
  -5  -4 -10   -8.09    8.44
  -5  -4 -10   -1.07    7.51
   5   4  10    3.48    6.62
  -5  -4 -11   -3.49    8.72
   5   4  11   -3.46    7.97
  -5  -4 -12   52.14   13.48
   5   4  12   31.33   10.34
  -5  -5   0   62.34   14.80
   5   5   0   58.37    9.85
  -5  -5  -1    8.09    4.93
   5   5   1    5.27    5.27
  -5  -5  -2   28.58    4.59
   5   5   2   23.30    3.88
  -5  -5  -3 1309.84   75.59
   5   5   3 1252.64   83.67
  -5  -5  -4  966.90   58.03
   5   5   4  872.57   62.73
  -5  -5  -5  271.58   21.48
  -5  -5  -5  224.29   12.51
   5   5   5  237.67   16.06
  -5  -5  -6   15.40    5.25
  -5  -5  -6    6.34    3.87
   5   5   6   11.73    4.98
  -5  -5  -7   29.53    7.12
  -5  -5  -7   25.30    5.98
  -5  -5  -7   28.17    4.18
   5   5   7   24.93    4.22
  -5  -5  -8  268.04   21.46
  -5  -5  -8  269.77   20.96
   5   5   8  292.45   14.26
  -5  -5  -9  263.26   23.24
   5   5   9  265.63   14.30
  -5  -5 -10   96.18   11.66
   5   5  10  104.93   10.25
  -5  -5 -11   17.83    9.79
   5   5  11    5.94    5.94
  -5  -5 -12    6.23   11.43
   5   5  12   16.69    8.00
   5   5  13  -15.76   14.05
  -5  -6   0  364.04   62.13
   5   6   0  277.48   24.92
  -5  -6  -1  431.86   37.32
   5   6   1  400.90   28.44
  -5  -6  -2   29.26    4.59
   5   6   2   36.48    5.97
  -5  -6  -3    1.06    8.86
   5   6   3    6.35    4.58
  -5  -6  -4  112.33    7.82
   5   6   4  130.34   14.53
  -5  -6  -5  810.84   60.02
  -5  -6  -5  711.61   40.24
   5   6   5  709.26   36.73
  -5  -6  -6  372.80   40.94
  -5  -6  -6  372.52   18.06
  -5  -6  -7    0.00    6.63
  -5  -6  -7    2.77    3.81
   5   6   7    3.55    5.68
  -5  -6  -8   76.25    7.12
  -5  -6  -8   72.97   10.19
  -5  -6  -9   -3.54    7.78
  -5  -6  -9   -3.89    7.42
   5   6   9    8.11    3.53
  -5  -6 -10   66.92    9.53
  -5  -6 -10   34.49    9.96
   5   6  10   54.76    6.74
  -5  -6 -11   39.54    9.81
   5   6  11   20.47    6.36
   5   6  12   18.73   12.14
   5   6  13  132.90   18.99
  -5  -7   0   14.32    6.64
   5   7   0   21.62    5.93
  -5  -7  -1    3.15    5.60
   5   7   1    4.53    5.23
  -5  -7  -2    7.04    5.28
   5   7   2   -2.09    5.58
  -5  -7  -3    8.84    6.01
   5   7   3   15.04    5.60
  -5  -7  -4   12.74    6.37
   5   7   4    8.09    5.27
  -5  -7  -5   12.67    4.93
   5   7   5    8.47    3.88
  -5  -7  -6   11.53    7.34
  -5  -7  -6    0.70    2.80
   5   7   6    5.30    5.30
  -5  -7  -7    5.22    6.95
  -5  -7  -7   12.78    3.45
   5   7   7    7.08    4.60
  -5  -7  -8   10.45    8.36
   5   7   8    6.01    6.37
  -5  -7  -9   38.83    9.89
  -5  -7  -9   39.24    8.77
  -5  -7 -10   72.80   11.63
  -5  -7 -10  260.56  204.44
   5   7  12   18.74   12.15
   5   7  13   -7.22   13.40
  -5  -8   0   31.64   11.82
   5   8   0   50.31   16.31
  -5  -8  -1  276.16   24.17
   5   8   1  331.78   29.53
  -5  -8  -2    1.05    5.97
   5   8   2   -2.08    5.55
   5   8   3    9.16    7.05
  -5  -8  -4   -1.41    6.00
   5   8   4    7.67    5.93
  -5  -8  -5  183.50   13.05
   5   8   5  209.32   17.18
  -5  -8  -6  144.82   11.90
  -5  -8  -6  123.17    7.71
   5   8   6  125.74   10.56
  -5  -8  -7   25.66    9.37
  -5  -8  -7   39.18    3.44
   5   8   7   39.76    8.10
  -5  -8  -8    2.77    8.31
   5   8   8   15.14    5.63
  -5  -8  -9   35.11   10.78
   5   8   9   54.15    9.16
   5   8  10   36.12   11.23
   5   8  11    0.35   11.17
   5   8  12  -10.05   11.09
   5   9   0   -1.72    7.59
  -5  -9  -1  110.95   13.59
   5   9   1  129.24   12.09
  -5  -9  -2  433.93   29.17
   5   9   2  434.76   37.97
  -5  -9  -3  353.98   32.03
   5   9   3  420.96   26.98
  -5  -9  -4   19.34    7.38
   5   9   4   29.72    7.26
  -5  -9  -5    7.36    7.01
   5   9   5   -1.04    6.94
  -5  -9  -6    5.57    6.62
  -5  -9  -6   10.41    3.12
   5   9   6    1.74    6.27
  -5  -9  -7  168.10   20.79
  -5  -9  -7  195.05   11.33
   5   9   7  219.58   16.46
  -5  -9  -8  128.56   19.68
   5   9   8  183.55   14.06
   5   9   9   13.63   19.58
   5   9  10   19.19   11.51
   5   9  11   22.93   12.51
   5   9  12   -8.64    8.64
   5  10   0   38.37   10.97
   5  10   1    5.14    9.59
   5  10   2    3.76    8.55
  -5 -10  -3  474.03  132.52
   5  10   3   53.39    8.90
  -5 -10  -4  136.51   24.86
   5  10   4  189.86   19.90
  -5 -10  -5   19.55  109.63
   5  10   5   13.40    8.59
  -5 -10  -6   99.27  140.92
   5  10   6   -5.86   17.58
  -5 -10  -7  152.63    7.52
   5  10   7  128.62   26.29
   5  10   8   38.46   10.40
   5  10   9   -1.73    7.98
   5  10  10    2.08   10.39
   5  10  11   19.69   11.75
   5  11   0    8.50   11.22
   5  11   1    2.38   10.20
   5  11   2    4.08    8.49
   5  11   3   45.85   12.23
   5  11   4   11.21    7.82
   5  11   5    9.19    9.87
   5  11   6    1.71    6.14
   5  11   7   22.24    7.53
   5  11   8   79.23   11.33
   5  11   9   93.07   12.05
   5  11  10    5.84    8.24
   5  12   2   10.79   11.12
   5  12   3   -1.35   11.46
   5  12   4   63.35   18.20
   5  12   5   13.83   14.17
   5  12   6   -4.05   10.47
   5  12   7    2.03   10.16
   5  12   8    1.70   11.54
   5  12   9   14.95    8.84
   6  -7   1   -0.67    9.37
   6  -7   2    1.67    7.37
  -6   6  -1    3.37    7.42
   6  -6   1   13.84   11.14
   6  -6   2    2.36    6.41
   6  -6   3   -2.71    9.81
   6  -6   4    5.09   10.85
  -6   5  -1  173.76   13.30
  -6   5  -1  132.48   15.37
   6  -5   1  130.08   13.89
   6  -5   1  140.24   13.64
  -6   5  -2    4.08    6.80
  -6   5  -2   -5.22    8.35
   6  -5   2   13.14    6.22
   6  -5   2   -0.68    9.19
  -6   5  -3    0.00    5.45
  -6   5  -3    5.90    8.68
   6  -5   3    9.30    7.93
  -6   5  -4   39.64    9.91
  -6   5  -4   29.08   10.39
   6  -5   4   18.89    7.56
  -6   5  -5   50.94   11.29
  -6   5  -5   19.31   10.35
   6  -5   5   24.30    9.24
  -6   5  -6    9.22    9.22
  -6   5  -6   10.30    8.58
  -6   4  -1  175.18   14.09
  -6   4  -1  184.54   14.20
  -6   4  -1  174.35   21.03
   6  -4   1  163.12   14.65
   6  -4   1  143.43   13.06
  -6   4  -2  137.30   13.04
  -6   4  -2  134.58   17.50
   6  -4   2  125.13   11.13
   6  -4   2  118.28   14.42
  -6   4  -3    2.06    5.49
  -6   4  -3   -4.53    8.02
   6  -4   3   -1.39    5.20
   6  -4   3    0.00    8.23
  -6   4  -4   20.64    6.54
  -6   4  -4   21.21    8.69
   6  -4   4   24.55    6.92
  -6   4  -5   46.11    8.61
  -6   4  -5   41.57   11.09
   6  -4   5   33.80    9.66
  -6   4  -6   -4.12   10.30
  -6   4  -6   -3.10    7.93
   6  -4   6   -7.22    6.53
  -6   4  -7   -1.03    8.56
  -6   4  -7   -1.72    8.24
  -6   3  -1  144.17   12.81
  -6   3  -1  150.85   22.24
  -6   3  -1  103.64   17.22
   6  -3   1  124.23   11.56
  -6   3  -2   60.30   10.00
  -6   3  -2   84.42   24.03
  -6   3  -2   76.47   26.66
   6  -3   2   67.40    6.29
   6  -3   2   39.35    7.60
  -6   3  -3   -0.35    4.49
  -6   3  -3    2.80    6.30
   6  -3   3    1.39    5.23
   6  -3   3    0.34    4.48
  -6   3  -4    6.23    5.19
  -6   3  -4    5.23    5.93
   6  -3   4   12.53    7.31
   6  -3   4   19.65    8.27
  -6   3  -5   73.72   10.40
  -6   3  -5   84.84   10.45
   6  -3   5   62.21    7.65
   6  -3   5   80.95   11.73
  -6   3  -6  210.60   16.98
  -6   3  -6  207.07   19.79
   6  -3   6  174.69   17.70
  -6   3  -7   63.62   10.33
  -6   3  -7   66.52   11.73
   6  -3   7   32.46   11.05
  -6   3  -8   -0.34   10.96
  -6   3  -8   15.77    9.26
  -6   2  -1    8.72    2.79
  -6   2  -1   14.79    6.34
  -6   2  -1   14.44    4.93
   6  -2   1    8.08    3.16
  -6   2  -2    4.16    3.47
  -6   2  -2    1.06    5.66
  -6   2  -2   -0.35    4.57
   6  -2   2    3.51    3.86
   6  -2   2   -2.08    6.60
  -6   2  -3    6.25    3.82
  -6   2  -3   -1.77    6.38
  -6   2  -3    3.86    6.67
   6  -2   3    5.97    4.21
   6  -2   3   -1.39    4.85
  -6   2  -4    7.66    4.18
  -6   2  -4    8.05    6.30
   6  -2   4    4.21    4.21
   6  -2   4    9.70    6.93
  -6   2  -5    0.70    4.87
  -6   2  -5  -10.81    6.28
   6  -2   5   -2.45    5.61
   6  -2   5    4.84    5.54
  -6   2  -6   -7.28    5.20
  -6   2  -6   -3.82    5.56
   6  -2   6    3.50    6.64
   6  -2   6    5.52    8.63
  -6   2  -7    1.38    6.91
  -6   2  -7    5.53    6.92
   6  -2   7   10.10    6.97
  -6   2  -8    1.38    7.91
  -6   2  -8    2.06    6.19
   6  -2   8    2.08    7.63
   6  -2   9  -10.26   10.95
  -6   1  -1   36.92   17.93
  -6   1  -1   19.41   17.29
   6  -1   1   30.39    6.01
  -6   1  -2  106.92    5.97
  -6   1  -2  122.82   15.60
  -6   1  -2  128.65   17.28
   6  -1   2  107.65   11.70
  -6   1  -3   28.58    3.49
  -6   1  -3   31.60    6.40
  -6   1  -3   26.73    6.33
   6  -1   3   21.97    3.90
   6  -1   3   42.52    6.97
  -6   1  -4  129.36    7.41
  -6   1  -4  125.91   10.33
  -6   1  -4  113.67   17.90
   6  -1   4   99.16   12.41
   6  -1   4  137.40   12.89
  -6   1  -5    1.40    4.19
  -6   1  -5   -7.34    5.95
   6  -1   5    1.06    3.54
   6  -1   5    5.90    5.90
  -6   1  -6   12.54    4.88
  -6   1  -6    6.27    8.02
   6  -1   6   17.99    5.29
   6  -1   6   13.17    7.28
  -6   1  -7   45.10    9.03
  -6   1  -7   33.32    9.72
   6  -1   7   47.46    7.39
   6  -1   7   44.57   10.37
  -6   1  -8   -8.64    8.98
  -6   1  -8   -7.95    8.64
   6  -1   8    0.35    6.65
  -6   1  -9    8.25    9.97
  -6   1  -9   -4.47    6.19
   6  -1  10   27.68   21.19
  -6   0   0  368.26   33.31
  -6   0   0  362.28   34.69
  -6   0  -1   74.12    6.69
  -6   0  -1   66.43    8.49
  -6   0  -2  139.02    9.59
  -6   0  -2  141.19   19.43
  -6   0  -3  496.46   27.14
  -6   0  -3  498.17   33.24
  -6   0  -3  471.54   50.11
   6   0   3  503.81   31.61
  -6   0  -4  145.35   10.95
  -6   0  -4  155.83   24.93
  -6   0  -4  157.61   21.48
   6   0   4  154.69   13.65
  -6   0  -5   16.14    5.62
  -6   0  -5   16.30   12.05
   6   0   5   19.63    4.29
   6   0   5   12.19    5.92
  -6   0  -6   50.80    7.72
   6   0   6   44.15    6.06
   6   0   6   35.80    6.61
  -6   0  -7   42.61    8.74
   6   0   7   32.99    6.74
   6   0   7   32.23    8.32
  -6   0  -8  163.08   18.48
   6   0   8  138.04   11.70
   6   0   8  165.31   17.32
   6   0   9  108.58   18.01
   6   0  10   18.90    9.62
   6   0  11   -4.09   10.92
  -6  -1   0  554.69   43.59
   6   1   0  595.22   27.43
   6   1   0  586.24   32.57
  -6  -1  -1  162.80   13.40
  -6  -1  -1  180.31   23.00
  -6  -1  -2    7.78    4.60
  -6  -1  -2   15.55    5.30
  -6  -1  -3  152.90    6.77
  -6  -1  -3  145.19    8.11
  -6  -1  -3  165.72   16.04
  -6  -1  -4  301.21   23.49
  -6  -1  -4  277.34   13.67
   6   1   4  334.62   17.26
  -6  -1  -5  589.62   60.53
  -6  -1  -5  659.58   47.47
   6   1   5  617.16   45.67
   6   1   5  637.86   40.74
  -6  -1  -6  109.80   13.14
   6   1   6  128.87   11.14
   6   1   6  131.78   10.85
  -6  -1  -7   -4.23    6.35
   6   1   7    2.86    5.36
   6   1   7   -1.39    4.87
  -6  -1  -8   16.84    8.77
   6   1   8   18.14    6.41
   6   1   8    5.54    6.58
  -6  -1  -9    7.67    7.32
   6   1   9   16.28    7.79
   6   1   9    5.17    8.61
  -6  -1 -10   56.03   12.12
   6   1  10   23.90   15.47
   6   1  11    3.43   11.32
  -6  -2   0  202.31   37.79
  -6  -2   0  279.51   38.19
   6   2   0  150.19   10.63
  -6  -2  -1   61.14    9.17
  -6  -2  -1   76.73   19.10
   6   2   1   35.01    2.13
   6   2   2  241.79   16.67
  -6  -2  -3  144.03    9.53
  -6  -2  -3  157.90    8.16
  -6  -2  -3  159.22   12.48
  -6  -2  -4   17.77    2.91
  -6  -2  -4   20.72    2.81
  -6  -2  -4   22.83    5.00
  -6  -2  -5   33.22    6.15
  -6  -2  -5   26.21    3.90
  -6  -2  -5   36.68    9.97
   6   2   5   38.89   14.02
  -6  -2  -6    8.62    5.39
  -6  -2  -6    9.28    3.57
  -6  -2  -6   14.85    4.95
   6   2   6   13.28    5.24
  -6  -2  -7    7.85    4.99
   6   2   7   -2.50    5.01
   6   2   7    6.27    4.88
  -6  -2  -8    6.02    5.66
   6   2   8    8.22    4.29
   6   2   8   13.55    6.25
  -6  -2  -9   42.50    8.79
   6   2   9   42.37    7.84
   6   2   9   43.56    8.31
  -6  -2 -10   74.53   10.47
   6   2  10   72.23   12.41
   6   2  10   56.73   12.05
   6   2  11    8.63    9.67
   6   2  12   21.89   13.34
  -6  -3   0  103.27    9.00
  -6  -3   0  104.82   12.37
   6   3   0  106.95    8.84
  -6  -3  -1   27.73    4.27
  -6  -3  -1   37.12    8.49
   6   3   1   32.99    3.20
  -6  -3  -2    6.34    2.11
   6   3   2    3.19    2.13
  -6  -3  -3   13.05    2.47
  -6  -3  -3   15.27    4.97
   6   3   3    7.79    2.13
  -6  -3  -4   16.53    2.88
  -6  -3  -4   27.49    3.53
  -6  -3  -4   31.02    6.06
  -6  -3  -5   18.77    3.25
  -6  -3  -5   14.39    3.51
  -6  -3  -5   21.39    3.57
  -6  -3  -6    9.73    4.33
  -6  -3  -6    8.48    4.24
  -6  -3  -6    4.25    4.60
   6   3   6    8.06    4.55
  -6  -3  -7    9.32    6.10
  -6  -3  -7    9.60    3.91
  -6  -3  -7    8.76    4.91
   6   3   7    8.39    5.25
  -6  -3  -8    8.55    4.63
  -6  -3  -8    6.43    3.21
   6   3   8   12.55    5.93
  -6  -3  -9    7.07    8.48
   6   3   9   -1.74    6.95
  -6  -3 -10   -2.45    8.41
  -6  -3 -10   -1.78    7.12
   6   3  10   12.44    7.26
  -6  -3 -11    4.17   11.80
   6   3  11   11.34    8.93
   6   3  12   -3.44   11.69
  -6  -4   0   26.60   13.48
  -6  -4   0   35.93   12.68
   6   4   0    1.41    3.52
  -6  -4  -1  332.07   19.91
   6   4   1  335.04   25.49
  -6  -4  -2 1346.42   63.12
   6   4   2 1302.98   74.61
  -6  -4  -3  287.22   20.18
   6   4   3  274.29   20.96
  -6  -4  -4   12.73    4.24
  -6  -4  -4    3.91    4.27
   6   4   4   -1.06    2.83
  -6  -4  -5   -0.71    3.20
  -6  -4  -5   -0.70    3.51
  -6  -4  -5   -1.42    3.92
  -6  -4  -6  307.80   18.46
  -6  -4  -6  300.64   21.79
  -6  -4  -6  298.64   16.05
  -6  -4  -7  264.06   26.56
  -6  -4  -7  304.89   21.23
  -6  -4  -7  318.67   20.10
   6   4   7  320.51   19.74
  -6  -4  -8  102.96   12.86
  -6  -4  -8  112.83   12.09
   6   4   8  115.47    9.15
  -6  -4  -9   11.69    7.09
  -6  -4  -9   11.40    7.13
   6   4   9    5.24    5.24
  -6  -4 -10    9.85    8.09
  -6  -4 -10    5.35    5.35
   6   4  10   -2.43    6.26
  -6  -4 -11    1.05    9.76
   6   4  11    8.65    7.96
   6   4  12   14.85   11.74
  -6  -5   0   41.23    6.00
  -6  -5   0   48.50    5.63
   6   5   0   48.49    6.33
  -6  -5  -1    4.22    3.51
   6   5   1    1.41    3.87
  -6  -5  -2   28.80    5.27
   6   5   2   28.26    7.42
  -6  -5  -3  600.85   39.66
   6   5   3  587.09   35.60
  -6  -5  -4  689.96   45.14
  -6  -5  -4  644.96   34.93
   6   5   4  632.83   44.41
  -6  -5  -5  140.41   10.24
  -6  -5  -5  126.20   10.34
  -6  -5  -6  167.10   12.97
  -6  -5  -6  169.56   11.38
   6   5   6  170.47    9.69
  -6  -5  -7  110.08    9.64
  -6  -5  -7   97.95   10.16
  -6  -5  -7  100.17   10.18
  -6  -5  -8   10.30    6.04
  -6  -5  -8   15.48    6.34
   6   5   8   15.77    5.26
  -6  -5  -9   40.00    6.38
  -6  -5  -9   56.67    9.93
   6   5   9   62.76    7.74
  -6  -5 -10   -0.35    8.80
  -6  -5 -10   -0.71    7.82
   6   5  10   -3.15    5.60
  -6  -5 -11   70.59   12.95
   6   5  11   86.53   11.57
  -6  -5 -12  150.65   15.34
   6   5  12  106.99   15.38
   6   5  13   16.80   13.71
  -6  -6   0  158.78   17.57
   6   6   0  170.56   13.00
  -6  -6  -1    6.65    4.55
   6   6   1   -7.36    4.55
  -6  -6  -2    9.12    4.91
   6   6   2   13.34    4.57
  -6  -6  -3  104.00    8.13
   6   6   3   80.43    6.72
  -6  -6  -4   20.87    4.95
   6   6   4   31.14    6.02
  -6  -6  -5   66.98    6.71
  -6  -6  -5   70.50    7.10
   6   6   5   88.48    7.45
  -6  -6  -6   29.38    5.95
  -6  -6  -6   18.72    4.95
   6   6   6   15.21    4.95
  -6  -6  -7  271.07   15.77
  -6  -6  -7  243.32   18.60
   6   6   7  223.99   12.18
  -6  -6  -8  517.30   31.50
  -6  -6  -8  530.61   48.34
  -6  -6  -8  527.90   37.50
  -6  -6  -9  144.12   13.14
  -6  -6  -9  118.81   11.64
  -6  -6 -10   59.46    9.52
  -6  -6 -10   39.27   10.97
   6   6  10   56.99    8.47
  -6  -6 -11  -19.58    9.44
   6   6  11    1.06    5.98
   6   6  12   38.85   10.07
   6   6  13   92.42   13.12
  -6  -7   0   21.97    6.63
   6   7   0    8.37    5.58
  -6  -7  -1   17.45    6.63
   6   7   1    0.35    5.58
  -6  -7  -2   -0.70    4.90
   6   7   2   11.52    4.89
  -6  -7  -3   -1.06    4.58
   6   7   3    3.85    4.90
  -6  -7  -4   16.60    7.07
   6   7   4   24.62    5.63
  -6  -7  -5   23.62    6.70
   6   7   5   13.76    5.64
  -6  -7  -6    5.60    6.65
  -6  -7  -6    2.82    3.17
   6   7   6    1.41    3.88
  -6  -7  -7   41.39    8.35
  -6  -7  -7   38.69    4.54
   6   7   7   46.25    6.36
  -6  -7  -8   14.59    7.30
  -6  -7  -8    0.69    3.10
  -6  -7  -9    2.47    8.10
  -6  -7  -9    8.03    8.37
  -6  -7 -10   22.83   10.54
  -6  -7 -10   15.81   10.54
   6   7  11   12.93   11.53
   6   7  12  -12.49    8.33
   6   7  13  -13.41   12.73
  -6  -8   0  144.68   14.96
   6   8   0  218.31   23.30
  -6  -8  -1  226.48   22.33
   6   8   1  297.35   27.13
  -6  -8  -2  104.12   11.55
   6   8   2  134.68   13.21
   6   8   3    2.81    5.27
  -6  -8  -4   -5.99    5.64
   6   8   4   11.52    5.93
  -6  -8  -5   65.80    9.16
   6   8   5   62.36    9.11
  -6  -8  -6  146.21   18.21
  -6  -8  -6  149.82   10.19
   6   8   6  182.97   12.67
  -6  -8  -7  186.87   19.84
  -6  -8  -7  175.61   13.23
   6   8   7  179.31   14.46
  -6  -8  -8   -5.54    9.69
  -6  -8  -8   -3.08    3.08
  -6  -8  -9    0.35    7.97
   6   8   9    9.13    7.38
   6   8  10    9.81    9.46
   6   8  11   -3.49   10.12
   6   8  12    3.12   12.13
   6   8  13    8.94    8.94
   6   9   0   22.43    8.97
  -6  -9  -1   14.21    9.36
   6   9   1   18.63    7.59
  -6  -9  -2  105.87   11.86
   6   9   2   94.88   12.78
  -6  -9  -3   61.26    9.46
   6   9   3   55.61    8.64
  -6  -9  -4   22.47    9.13
   6   9   4   17.31    7.27
  -6  -9  -5   41.75   10.88
   6   9   5   30.92    8.69
  -6  -9  -6  252.75   21.70
   6   9   6  274.24   18.51
  -6  -9  -7   11.79    9.01
  -6  -9  -7   12.77    3.80
   6   9   7   27.59    7.68
  -6  -9  -8    8.97    7.93
  -6  -9  -8    5.45    3.07
   6   9   8    2.45    4.89
   6   9   9    1.75    7.69
   6   9  10   93.83   14.69
   6   9  11  134.16   16.76
   6   9  12   18.32    8.30
   6  10   0    0.00   10.29
   6  10   1  170.74   17.18
   6  10   2  203.95   16.16
  -6 -10  -3  710.83  233.97
   6  10   3   16.80    8.57
  -6 -10  -4  -19.23   10.14
   6  10   4    1.37    7.56
   6  10   5    2.41    6.89
  -6 -10  -6  809.35  206.39
   6  10   6  930.59   80.91
  -6 -10  -7 1021.19  234.82
  -6 -10  -7  400.07   30.28
   6  10   7  381.53   33.64
  -6 -10  -8   78.86    8.14
   6  10   8   75.96   12.15
   6  10   9   -5.55    8.68
   6  10  10    0.00    8.67
   6  10  11   39.06   12.80
   6  10  12   64.00   11.05
   6  11   0   12.60   10.90
   6  11   1  -17.70   10.22
   6  11   2   37.44   10.55
   6  11   3   70.12   11.24
   6  11   4   14.31    8.52
   6  11   5    0.68    9.55
   6  11   6    6.16    9.23
   6  11   7    1.37    8.91
   6  11  10    3.09   10.32
   6  11  11   43.93   15.45
   6  12   2    4.39   11.82
   6  12   3   -5.40   10.13
   6  12   4   20.95    8.78
   6  12   5    0.68    9.81
   6  12   6    4.06   11.18
   6  12   7    9.16    7.47
   6  12   8    8.84    7.48
   6  12   9   -3.41   10.90
   6  12  10   -5.45   12.60
  -7   5  -1   -3.05    5.75
  -7   5  -1    7.98   12.15
   7  -5   2   21.96    7.44
  -7   5  -3   36.19    8.12
  -7   5  -3   44.59    9.34
  -7   5  -4   -1.36    7.12
  -7   5  -4   -4.48    9.99
  -7   5  -5    9.17    8.49
  -7   5  -5  -12.70    9.61
  -7   4  -1    9.22    5.12
  -7   4  -1   10.52   10.17
  -7   4  -1   12.55   10.46
   7  -4   1   11.09    5.89
  -7   4  -2   -2.04    4.77
  -7   4  -2    4.87   10.09
   7  -4   2    1.04    5.53
  -7   4  -3    8.17    6.13
  -7   4  -3   26.73    9.38
   7  -4   3   25.87    7.25
  -7   4  -4  133.82   14.71
  -7   4  -4  133.63   16.99
  -7   4  -5   84.79   11.64
  -7   4  -5   92.10   14.50
  -7   4  -6   -2.05   10.59
  -7   4  -6    2.40    9.62
  -7   3  -1  182.59   12.77
  -7   3  -1  134.82   15.11
  -7   3  -1  143.39   19.60
   7  -3   1  169.89   13.94
  -7   3  -2   16.47    4.46
  -7   3  -2   25.67    7.39
  -7   3  -2   34.57   10.13
   7  -3   2    6.95    4.17
   7  -3   2   11.33    5.84
  -7   3  -3    7.88    4.46
  -7   3  -3   -1.74    7.67
   7  -3   3   13.19    5.55
   7  -3   3    9.94    5.83
  -7   3  -4   -1.37    4.81
  -7   3  -4   24.32    9.73
   7  -3   4    8.32    5.89
  -7   3  -5   19.95    5.85
  -7   3  -5   26.66    9.00
   7  -3   5    6.57    5.54
  -7   3  -6   46.05    8.60
  -7   3  -6   50.35   11.73
   7  -3   6   48.66    8.98
  -7   3  -7   10.62   10.28
  -7   3  -7    3.09   10.30
  -7   3  -8   -8.19    8.53
  -7   3  -8   -7.17   11.27
  -7   2  -1    3.15    7.69
  -7   2  -1   -7.01    8.07
   7  -2   1    3.84    3.15
  -7   2  -2    4.15    3.46
  -7   2  -2    1.76    6.33
  -7   2  -2   -0.70    7.71
   7  -2   2    3.50    3.15
  -7   2  -3   10.69    3.79
  -7   2  -3   10.24    7.41
  -7   2  -3    3.15    7.34
   7  -2   3    4.90    3.15
  -7   2  -4    2.76    4.14
  -7   2  -4    5.23    6.97
   7  -2   4    0.70    4.54
   7  -2   4    0.34    8.27
  -7   2  -5    2.42    4.15
  -7   2  -5    4.17    6.95
   7  -2   5    0.70    5.58
   7  -2   5    3.44    7.22
  -7   2  -6    6.56    6.90
  -7   2  -6    1.04    8.65
   7  -2   6   10.10    5.57
  -7   2  -7   -0.34    6.54
  -7   2  -7   -6.20    8.27
   7  -2   7    7.29    6.94
  -7   2  -8   -3.43    6.85
  -7   2  -8    3.43    9.26
   7  -2   8    1.04   10.02
   7  -2   9    7.84   10.23
  -7   1  -1  148.28   12.61
  -7   1  -1  156.75   14.44
  -7   1  -2  120.56    9.53
  -7   1  -2  113.37   12.65
  -7   1  -3   16.30    3.12
  -7   1  -3   18.03    7.07
  -7   1  -3    4.20    7.36
   7  -1   3   14.48    3.18
   7  -1   3   18.74    6.59
  -7   1  -4    4.51    3.12
  -7   1  -4   -1.42    6.37
  -7   1  -4    3.49    7.34
   7  -1   4    5.29    3.17
   7  -1   4   -3.81    6.23
  -7   1  -5   13.20    4.52
  -7   1  -5   11.15    7.32
   7  -1   5    5.53    4.84
  -7   1  -6   21.49    6.93
  -7   1  -6   26.38    7.64
   7  -1   6   33.72    5.97
   7  -1   6   30.67    7.24
  -7   1  -7    9.33    8.29
  -7   1  -7   20.40    8.30
   7  -1   7    3.15    5.60
  -7   1  -8    5.16    6.88
  -7   1  -8   17.21   11.36
   7  -1   8    1.74    6.62
  -7   1  -9    2.06    7.88
  -7   1  -9    3.08    6.85
   7  -1   9   -9.36   10.06
   7  -1  10    3.75   10.22
  -7   0   0   -3.13    6.60
  -7   0   0    7.04    6.69
  -7   0  -1   37.67    8.72
  -7   0  -1   30.62   13.02
  -7   0  -2  155.92   11.64
  -7   0  -2  155.03   15.85
  -7   0  -3  531.29   24.20
  -7   0  -3  566.03   29.61
  -7   0  -3  525.38   58.35
  -7   0  -4   97.58    5.63
  -7   0  -4   89.07   12.08
  -7   0  -4   84.76   14.02
   7   0   4   89.56    7.46
   7   0   4   77.55    9.05
  -7   0  -5   33.48    4.54
  -7   0  -5   37.58    5.68
  -7   0  -5   30.40    8.74
   7   0   5   26.23    4.61
   7   0   5   35.03    7.63
  -7   0  -6    1.74    4.53
  -7   0  -6    0.35    7.32
   7   0   6    4.60    4.25
   7   0   6    3.46    7.61
  -7   0  -7    1.39    4.51
   7   0   7   -6.35    4.94
   7   0   7   -3.79    8.97
  -7   0  -8   52.25    8.66
   7   0   8   43.24    7.74
   7   0   9   42.02   11.37
   7   0  10   -2.40   11.99
   7   1   0  486.68   38.85
  -7  -1  -1   27.26    7.34
  -7  -1  -1   33.81    6.69
  -7  -1  -2  248.92   17.28
  -7  -1  -2  214.31   25.37
  -7  -1  -3   39.23   12.02
  -7  -1  -3   69.62   33.05
  -7  -1  -4   51.80    3.53
  -7  -1  -4   26.99    7.46
  -7  -1  -4   56.56    9.49
  -7  -1  -5  222.48   16.96
  -7  -1  -5  201.09   14.91
  -7  -1  -5  203.63   17.47
   7   1   5  199.49   16.06
  -7  -1  -6   -1.05    4.92
  -7  -1  -6   10.62    6.72
   7   1   6    7.29    5.90
  -7  -1  -7  233.01   24.27
   7   1   7  230.59   21.71
   7   1   7  236.07   17.40
  -7  -1  -8  245.31   28.35
   7   1   8  237.08   16.37
   7   1   8  237.25   20.45
  -7  -1  -9    3.82    9.37
   7   1   9   -4.93    6.34
  -7  -1 -10   -5.52    8.27
   7   1  10  -13.66    7.01
   7   1  11   -8.90    9.58
  -7  -2   0   29.29    5.44
  -7  -2   0   47.17   16.20
   7   2   0   20.83    2.83
   7   2   1   30.64    8.10
  -7  -2  -2    9.14    5.97
  -7  -2  -2    2.47    6.34
   7   2   3   18.02    6.36
  -7  -2  -4  172.23   12.53
  -7  -2  -4  185.25   11.27
  -7  -2  -4  184.32   12.13
  -7  -2  -5   70.01   10.03
  -7  -2  -5   96.62    7.02
  -7  -2  -5   94.65    7.50
   7   2   5   86.58    9.09
  -7  -2  -6   10.70    4.28
  -7  -2  -6    5.32    4.26
   7   2   6   -3.83    5.57
  -7  -2  -7    1.77    5.68
  -7  -2  -7    1.06    3.90
  -7  -2  -7    3.52    4.22
   7   2   7    3.13    5.56
  -7  -2  -8   50.08    9.89
  -7  -2  -8   44.70    7.81
   7   2   8   78.22   10.40
  -7  -2  -9  101.89   14.04
   7   2   9   94.90   11.71
   7   2   9  120.96   13.15
  -7  -2 -10   27.09    9.04
   7   2  10   27.15    9.17
   7   2  11    3.10   12.40
  -7  -3   0  105.52    8.80
  -7  -3   0  115.68   12.68
   7   3   0  108.54    9.19
  -7  -3  -1   74.23    5.84
  -7  -3  -1   77.43   11.62
   7   3   1   72.31    4.98
  -7  -3  -2   24.26    2.51
   7   3   2   16.51    2.11
  -7  -3  -3   34.69    2.47
  -7  -3  -3   32.49    9.54
  -7  -3  -4    7.28    2.18
  -7  -3  -4    0.70    2.46
  -7  -3  -4    4.97    5.32
  -7  -3  -5    4.35    3.63
  -7  -3  -5   -1.40    3.50
  -7  -3  -5   12.10    5.34
  -7  -3  -6   43.30    5.43
  -7  -3  -6   30.10    4.90
  -7  -3  -6   46.51    7.11
   7   3   6   34.90    5.59
  -7  -3  -7    9.86    4.23
  -7  -3  -7   -1.76    5.64
   7   3   7    1.39    4.88
  -7  -3  -8   -5.34    6.05
  -7  -3  -8    9.56    6.02
   7   3   8    5.21    6.25
  -7  -3  -9   -3.88    6.00
  -7  -3  -9   -3.54    6.03
   7   3   9  -11.77    6.92
  -7  -3 -10  -12.94    8.75
  -7  -3 -10    6.37    7.79
   7   3  10   -9.99    7.93
   7   3  11   -8.67    9.36
   7   3  12   -7.21   11.33
  -7  -4   0    9.28    8.57
  -7  -4   0   11.58    9.83
   7   4   0    9.85    4.57
  -7  -4  -1  289.93   48.97
  -7  -4  -1  394.57   98.15
   7   4   1  200.15   12.77
  -7  -4  -2  389.14   22.72
   7   4   2  396.72   25.61
  -7  -4  -3   85.83    5.63
   7   4   3   63.69    5.29
  -7  -4  -4    3.88    2.82
  -7  -4  -4    2.83    4.25
   7   4   4    3.53    2.47
  -7  -4  -5  107.72    8.99
  -7  -4  -5  109.23    8.45
  -7  -4  -5  110.89    8.21
  -7  -4  -6    8.60    4.66
  -7  -4  -6   27.23    6.63
  -7  -4  -6   12.42    5.68
  -7  -4  -7   24.34    5.02
  -7  -4  -7   15.39    4.90
  -7  -4  -7   25.03    5.99
   7   4   7   24.07    5.24
  -7  -4  -8    0.00    5.70
  -7  -4  -8    5.28    4.57
  -7  -4  -8    7.67    5.58
   7   4   8    0.35    3.83
  -7  -4  -9   44.63    8.16
  -7  -4  -9   25.45    5.66
   7   4   9   24.69    6.61
  -7  -4 -10   67.47    9.86
  -7  -4 -10   47.81    7.45
   7   4  10   42.64    8.68
  -7  -4 -11   21.25   10.45
   7   4  11   25.88    9.32
   7   4  12   16.56   11.73
  -7  -5   0    6.71    6.36
  -7  -5   0    9.45   11.20
   7   5   0    5.26    4.21
  -7  -5  -1  249.66   19.45
   7   5   1  259.80   18.00
  -7  -5  -2  265.10   17.27
   7   5   2  244.74   18.43
  -7  -5  -3    0.00    3.85
   7   5   3   -1.06    3.18
  -7  -5  -4   19.03    3.88
  -7  -5  -4   23.35    5.31
   7   5   4   26.79    4.23
  -7  -5  -5  112.70    7.78
  -7  -5  -5  105.33    8.18
  -7  -5  -6  543.93   39.27
  -7  -5  -6  521.75   31.73
  -7  -5  -7  536.68   45.05
  -7  -5  -7  577.63   42.30
  -7  -5  -7  578.67   46.66
  -7  -5  -8   64.60    7.13
  -7  -5  -8   60.46    9.44
  -7  -5  -8   73.52    7.34
  -7  -5  -9   18.75    7.79
  -7  -5  -9   16.52    7.03
   7   5   9   16.06    4.89
  -7  -5 -10   -1.41    8.44
  -7  -5 -10    9.18    7.77
   7   5  10    1.74    5.93
   7   5  11  106.16   13.32
  -7  -5 -12   48.46   11.44
   7   5  12   21.82   11.09
   7   5  13   42.15   15.09
  -7  -6   0    7.37    5.96
  -7  -6   0   -4.54    5.93
   7   6   0   -3.85    5.25
  -7  -6  -1   23.79    5.25
   7   6   1   15.76    4.90
  -7  -6  -2  256.08   16.86
   7   6   2  273.97   24.99
  -7  -6  -3  227.71   13.73
   7   6   3  232.02   14.16
  -7  -6  -4  146.87   13.76
   7   6   4  143.65    9.56
  -7  -6  -5    9.52    4.58
  -7  -6  -5   -2.83    4.95
   7   6   5    6.34    4.58
  -7  -6  -6   19.62    6.66
  -7  -6  -6   11.66    5.30
   7   6   6   20.79    5.99
  -7  -6  -7   79.71    9.76
  -7  -6  -7   82.60    7.40
  -7  -6  -8  120.40   10.66
  -7  -6  -8  109.91   12.89
  -7  -6  -8  106.06   10.46
  -7  -6  -9   88.17   16.95
  -7  -6  -9  126.43   12.96
  -7  -6 -10    0.35    7.73
  -7  -6 -10  -14.05    7.73
   7   6  10   -5.60    5.60
  -7  -6 -11   26.55   11.53
   7   6  11   21.01    7.01
  -7  -6 -12  -17.33   10.40
   7   6  12   -6.29    9.09
   7   6  13   41.22   21.30
  -7  -7   0    6.62    8.37
  -7  -7   0    9.38    5.56
   7   7   0    0.35    5.92
  -7  -7  -1    4.18    5.92
   7   7   1   12.90    5.93
  -7  -7  -2   38.69    9.76
   7   7   2   31.09    6.29
  -7  -7  -3   25.20    5.95
   7   7   3   31.89    5.26
  -7  -7  -4   26.03    5.63
   7   7   4   28.48    6.33
  -7  -7  -5   20.08    5.64
   7   7   5   29.22    5.99
  -7  -7  -6   96.05   10.18
  -7  -7  -6  101.03    8.47
   7   7   6   89.39    9.52
  -7  -7  -7    3.13    5.57
  -7  -7  -7    2.10    3.85
   7   7   7    0.70    3.52
  -7  -7  -8   -6.24    6.24
  -7  -7  -8   -2.43    4.85
  -7  -7  -9    5.62    7.38
  -7  -7  -9   -2.08    7.29
  -7  -7  -9    6.17    4.80
  -7  -7 -10   15.43    9.47
  -7  -7 -10    6.63    8.73
   7   7  11   13.61    6.98
   7   7  12    8.67   11.44
   7   7  13   20.97   14.10
  -7  -8   0   90.08   12.84
  -7  -8   0  104.81    9.37
   7   8   0  105.81   14.94
  -7  -8  -1  101.95   10.78
   7   8   1   91.95   11.81
  -7  -8  -2   -0.35    6.61
   7   8   2    1.04    6.25
  -7  -8  -3   88.02    9.10
   7   8   3   95.39    9.76
  -7  -8  -4   46.33    8.43
   7   8   4   45.40    7.34
  -7  -8  -5    8.44    6.33
   7   8   5    7.35    5.95
  -7  -8  -6   53.60    7.71
  -7  -8  -6   63.73    7.36
   7   8   6   74.70    8.78
  -7  -8  -7  200.08   20.92
  -7  -8  -7  253.87   19.25
  -7  -8  -8    9.34    6.92
  -7  -8  -8    0.00    4.83
   7   8   8    1.05    6.31
  -7  -8  -9   -0.35    7.61
  -7  -8  -9    4.78    3.75
   7   8  10   17.13    9.79
   7   8  12    0.35   11.78
   7   8  13    9.62   13.06
   7   9   0  253.64   30.78
  -7  -9  -1   91.49   12.80
   7   9   1   96.64   11.75
  -7  -9  -2   -5.89    7.97
   7   9   2    8.29    7.25
  -7  -9  -3   -6.27    7.32
   7   9   3   -5.88    6.22
  -7  -9  -4  128.08   16.46
   7   9   4  160.49   12.51
  -7  -9  -5  428.70   67.34
   7   9   5  457.13   35.52
  -7  -9  -6  262.89   20.68
   7   9   6  241.48   19.89
  -7  -9  -7   -4.17    7.64
  -7  -9  -7   -2.43    3.81
   7   9   7    5.93    6.28
  -7  -9  -8   25.56    9.67
  -7  -9  -8   37.43    4.81
  -7  -9  -9  194.24  194.25
  -7  -9  -9   10.53    4.76
   7   9   9    8.72    7.33
   7   9  10   73.15   12.56
   7   9  11   36.11   11.81
   7   9  12    1.73   13.13
   7  10   0   20.24   10.64
   7  10   1  307.39   23.78
   7  10   2  210.34   22.00
  -7 -10  -3  234.64  175.30
   7  10   3   55.63    9.96
   7  10   4    7.57    7.57
  -7 -10  -5  -10.48   11.87
   7  10   5   -1.03    7.58
  -7 -10  -6   72.13   16.73
   7  10   6   98.50   11.41
  -7 -10  -7   90.80   18.72
  -7 -10  -7  117.41   13.79
   7  10   7  113.95   12.83
  -7 -10  -8   23.20    5.80
   7  10   8   20.46    7.98
  -7 -10  -9   43.22    5.75
   7  10   9   49.25    9.37
   7  10  10   46.42   10.75
   7  10  11   18.31   11.75
   7  11   1   24.54   10.91
   7  11   2   25.56   11.59
   7  11   3    5.11    9.20
   7  11   4  -12.63    8.53
   7  11   5   -3.08    7.86
   7  11   6   42.47    9.94
   7  11   7   21.63    9.27
   7  11   8   -3.09    8.25
   7  11  10   -0.69   10.66
   7  11  11   62.14   15.47
   7  12   3   25.04   10.49
   7  12   4  -10.83   10.49
   7  12   5   -6.44   10.50
   7  12   6    6.11    9.50
   7  12   7    2.04    7.14
   7  12   8   17.03   10.90
   7  12   9  -12.61   10.57
   7  12  10   -1.36   11.59
   8  -5   2   44.12   14.48
   8  -5   3   37.83   13.76
  -8   4  -1    1.74    8.71
  -8   4  -1   -3.12   13.17
   8  -4   2   -6.92   12.81
   8  -4   3   -0.69   11.40
   8  -4   4   60.62   14.47
   8  -4   5   18.19   13.04
  -8   3  -1   50.38    7.66
  -8   3  -1   36.53   10.44
  -8   3  -2   -4.10    4.10
  -8   3  -2   -1.40    8.73
  -8   3  -2  -11.47   10.77
  -8   3  -3   37.82    6.48
  -8   3  -3   36.11    7.37
  -8   3  -3   38.14   11.45
  -8   3  -4   41.24    7.85
  -8   3  -4   29.39   11.07
  -8   3  -5    2.39    6.83
  -8   3  -5   13.78   10.34
  -8   3  -6    4.78    9.22
  -8   3  -6    8.24   10.64
   8  -3   7    9.91   10.59
  -8   2  -1    1.73    8.32
  -8   2  -1   -3.84    9.77
  -8   2  -2   10.47    8.03
  -8   2  -2   -2.09    8.36
   8  -2   2    4.87    2.44
  -8   2  -3   -3.77    3.43
  -8   2  -3    0.70    5.62
  -8   2  -3   -5.56    9.04
  -8   2  -4   13.03    4.46
  -8   2  -4   15.83    9.15
  -8   2  -4   19.77    9.02
   8  -2   4   12.86    3.83
  -8   2  -5   36.39    6.53
  -8   2  -5   41.83   10.38
  -8   2  -6    7.21    7.21
  -8   2  -6   26.52   11.02
  -8   2  -7    2.74    6.51
  -8   2  -7   14.40   10.29
  -8   2  -8   -2.39    7.51
  -8   2  -8   17.41   10.92
  -8   1  -1  127.64   12.16
  -8   1  -1  136.75   14.71
  -8   1  -2   75.63   10.48
  -8   1  -2   90.82   14.68
  -8   1  -3    9.13   10.53
  -8   1  -3    8.02    5.58
  -8   1  -4    1.72    3.45
  -8   1  -4    7.76    8.81
  -8   1  -4   14.26    8.35
   8  -1   4    2.75    8.26
  -8   1  -5   10.00    4.49
  -8   1  -5    1.76    8.11
  -8   1  -5   14.22    9.02
   8  -1   5    0.35    3.85
  -8   1  -6   10.00    6.21
  -8   1  -6   23.15    9.33
   8  -1   6   12.56    4.54
  -8   1  -7    9.63    7.22
  -8   1  -7   -2.41    7.57
   8  -1   7    0.00    6.26
  -8   1  -8   -4.45    8.57
  -8   1  -8    3.77    8.57
   8  -1   9    5.80    8.86
  -8   0   0   25.88    7.60
  -8   0   0   17.17    5.96
  -8   0  -1   -2.77    6.92
  -8   0  -1    5.95   12.26
  -8   0  -2   25.77    7.32
  -8   0  -2   29.39    9.10
  -8   0  -3  106.30   10.56
  -8   0  -3  104.09   11.20
  -8   0  -4   65.15    4.87
  -8   0  -4   53.42    4.17
  -8   0  -4   67.40    9.54
  -8   0  -4   39.73   11.85
  -8   0  -5   61.31    5.57
  -8   0  -5   42.09    9.20
  -8   0  -5   27.82   10.78
   8   0   5   47.98   17.61
  -8   0  -6  141.52   12.88
  -8   0  -6  104.71   25.32
   8   0   6   62.65    6.90
  -8   0  -7    5.87    4.83
  -8   0  -7    9.68   10.37
  -8   0  -8    3.79    5.85
  -8   0  -8   12.74    7.92
   8   0   8   -2.10    5.59
  -8   0  -9    5.48    6.51
  -8   0  -9    9.25    9.94
   8   0   9   -0.70    8.34
  -8   0 -10    3.07    8.87
  -8   0 -10    9.55   10.57
  -8  -1   0   88.54    9.07
  -8  -1   0   73.26   15.78
  -8  -1  -1  138.45   11.16
  -8  -1  -1  130.39   13.00
  -8  -1  -2  382.83   28.71
  -8  -1  -2  355.14   34.07
  -8  -1  -3  219.17   21.45
  -8  -1  -3  236.13   32.93
  -8  -1  -4   91.06   10.61
  -8  -1  -4   93.28   13.64
  -8  -1  -5   -2.09    2.78
  -8  -1  -5   -0.35    4.60
  -8  -1  -5   -4.54    7.33
   8   1   5    0.00    4.85
  -8  -1  -6   29.90    5.92
  -8  -1  -6   32.57    4.91
  -8  -1  -6   32.91    9.21
   8   1   6   31.45    8.64
  -8  -1  -7  146.63   11.56
   8   1   7  138.35   11.98
   8   1   7  129.56   14.50
  -8  -1  -8  181.96   17.43
   8   1   8  144.58   12.33
  -8  -1  -9   16.57    7.94
   8   1   9   14.70    7.35
  -8  -1 -10  -21.63    8.93
   8   1  10    5.92    8.36
   8   2   0   21.73    7.71
  -8  -2  -1   68.33    9.78
  -8  -2  -1   81.67    8.78
  -8  -2  -2   60.73    8.74
  -8  -2  -2   87.61   12.28
  -8  -2  -3   37.87    6.32
  -8  -2  -3   46.25    9.47
  -8  -2  -4  141.49   11.69
  -8  -2  -4  131.04   19.65
  -8  -2  -5   45.55    4.58
  -8  -2  -5   40.71    4.18
  -8  -2  -5   41.11    7.09
  -8  -2  -6   17.60    4.58
  -8  -2  -6    9.75    3.83
  -8  -2  -6   13.11    6.38
   8   2   6   -0.69    7.28
  -8  -2  -7   -2.11    4.92
  -8  -2  -7   -0.35    3.85
  -8  -2  -7    7.06    6.70
   8   2   7    7.95    5.19
  -8  -2  -8    1.75    6.31
  -8  -2  -8   -2.11    5.62
   8   2   8    4.83    5.51
  -8  -2  -9   12.54    8.71
  -8  -2  -9    8.78    7.02
  -8  -2 -10   -5.19    8.30
  -8  -2 -10    7.00    7.36
   8   2  11   16.14   12.37
  -8  -3   0  150.29   11.24
  -8  -3   0  180.99   17.90
   8   3   0  167.06   12.02
  -8  -3  -1   62.49    4.47
  -8  -3  -1   86.88   11.23
   8   3   1   80.05    4.96
  -8  -3  -2    7.00    6.65
  -8  -3  -2    2.80    7.71
   8   3   3   11.23    6.32
  -8  -3  -4    1.43    1.79
  -8  -3  -4   -0.35    1.74
  -8  -3  -4   11.99    6.35
  -8  -3  -5   11.18    3.25
  -8  -3  -5   16.79    3.50
  -8  -3  -5   13.46    6.02
  -8  -3  -6    2.87    3.59
  -8  -3  -6    7.99    3.82
  -8  -3  -6    7.80    6.03
  -8  -3  -7    3.93    5.00
  -8  -3  -7   13.93    4.53
  -8  -3  -7    5.65    4.59
   8   3   7   16.65    6.94
  -8  -3  -8    1.42    6.03
  -8  -3  -8    9.80    5.60
  -8  -3  -8    9.46    7.71
   8   3   8   -5.54    4.84
  -8  -3  -9   18.30    8.45
  -8  -3  -9   13.34    7.02
   8   3   9    6.21    7.24
  -8  -3 -10    2.44    9.07
  -8  -3 -10    5.97    6.32
   8   3  11   26.98   14.18
   8   3  12   17.48   14.05
  -8  -4   0   21.36   15.57
  -8  -4   0    6.64    6.99
   8   4   0    1.75    3.86
  -8  -4  -1    5.75    5.76
  -8  -4  -1   24.49   14.35
   8   4   1    0.70    2.82
  -8  -4  -2   25.57    4.27
  -8  -4  -2   40.32    8.77
   8   4   2   33.74    4.22
  -8  -4  -3    9.80    2.80
  -8  -4  -3   17.21    6.67
  -8  -4  -4   57.95    5.41
  -8  -4  -4   57.61    4.90
  -8  -4  -4   58.85    7.76
  -8  -4  -5  169.87   19.20
  -8  -4  -5  217.93   14.80
  -8  -4  -5  222.90   16.00
  -8  -4  -6   47.95    7.23
  -8  -4  -6   59.97    5.94
  -8  -4  -6   55.28    8.16
  -8  -4  -7   -6.82    5.03
  -8  -4  -7   -6.60    4.17
  -8  -4  -7   -3.53    6.01
  -8  -4  -8   16.05    5.71
  -8  -4  -8   26.99    7.71
   8   4   8   12.14    6.94
  -8  -4  -9    0.35    6.73
  -8  -4  -9   11.90    6.65
   8   4   9    2.77    6.58
  -8  -4 -10   68.46   10.20
  -8  -4 -10   46.68   10.54
   8   4  10   54.55   10.03
  -8  -4 -11    3.48   10.09
  -8  -4 -11  431.86  232.48
   8   4  12   -0.34    9.65
  -8  -5   0  730.27   72.76
  -8  -5   0  669.23   80.66
   8   5   0  773.39   56.30
  -8  -5  -1  784.45   66.61
  -8  -5  -1  837.92   91.01
   8   5   1  829.06   64.51
  -8  -5  -2  523.39   36.12
   8   5   2  547.24   38.59
  -8  -5  -3   13.25    4.19
   8   5   3   23.55    4.22
  -8  -5  -4   24.82    4.55
  -8  -5  -4   31.68    7.40
   8   5   4   29.45    4.56
  -8  -5  -5  150.71   43.92
  -8  -5  -5  123.59   11.68
   8   5   5  112.07    7.49
  -8  -5  -6  386.02   26.94
  -8  -5  -6  410.03   31.25
  -8  -5  -6  376.74   27.36
  -8  -5  -7  101.78   11.44
  -8  -5  -7  104.60   13.22
  -8  -5  -7  100.92   10.96
  -8  -5  -8   20.26   11.38
  -8  -5  -8   19.44    5.90
  -8  -5  -8   14.01    5.95
  -8  -5  -9    4.60    7.08
  -8  -5  -9   14.63    7.32
  -8  -5  -9    3.81    6.58
  -8  -5 -10   -1.41    7.74
  -8  -5 -10   18.20    8.75
   8   5  10    5.90    7.64
  -8  -5 -11    5.24    8.73
  -8  -5 -11  139.68  218.30
   8   5  11   -2.77    8.31
   8   5  12    7.61    7.61
  -8  -6   0    5.99    9.16
  -8  -6   0    3.47    9.38
   8   6   0    0.70    5.24
  -8  -6  -1   21.02    5.96
  -8  -6  -1   17.42    8.02
   8   6   1    7.00    4.55
  -8  -6  -2  130.39   10.18
   8   6   2  134.06    9.17
  -8  -6  -3  118.38    8.40
   8   6   3  110.45    9.87
  -8  -6  -4   27.97    5.60
   8   6   4   27.75    4.57
  -8  -6  -5   38.99    6.33
  -8  -6  -5   41.56    7.05
   8   6   5   44.89    5.97
  -8  -6  -6   36.10    7.01
  -8  -6  -6   33.51    8.12
   8   6   6   36.52    7.38
  -8  -6  -7   16.56    5.99
  -8  -6  -7   16.36    5.92
  -8  -6  -7   13.38    5.63
  -8  -6  -8  224.05   18.50
  -8  -6  -8  212.82   23.27
  -8  -6  -8  220.56   18.95
  -8  -6  -9   82.84   10.26
  -8  -6  -9   92.64   11.48
  -8  -6  -9   74.00    9.70
   8   6  10  102.09   13.28
  -8  -6 -11  108.93   12.97
   8   6  11   88.47   10.86
   8   6  12   38.80   13.52
  -8  -7   0    6.29    8.03
  -8  -7   0    7.61    5.19
   8   7   0   -2.09    5.91
   8   7   1   -9.06    5.57
  -8  -7  -2   -3.13    5.21
   8   7   2    3.14    5.24
  -8  -7  -3    3.48    4.52
   8   7   3    3.15    4.55
  -8  -7  -4   16.07    5.94
   8   7   4   21.05    5.61
  -8  -7  -5    7.72    4.91
  -8  -7  -5    8.07    6.32
   8   7   5    0.35    4.56
  -8  -7  -6   15.78    6.66
  -8  -7  -6    2.11    5.97
   8   7   6    7.36    4.91
  -8  -7  -7   88.17   10.12
  -8  -7  -7   85.24    8.79
   8   7   7   83.08    9.49
  -8  -7  -8   76.91   13.52
  -8  -7  -8   85.02    9.43
  -8  -7  -9   26.31    8.77
  -8  -7  -9   28.36    7.61
  -8  -7  -9   25.51    5.86
  -8  -7 -10   10.85    8.75
  -8  -7 -10    1.04    9.37
   8   7  11    4.53    7.32
   8   7  12   39.14   10.75
  -8  -8   0   -3.12    8.32
  -8  -8   0    6.89    6.55
   8   8   0    0.69    8.31
  -8  -8  -1   -5.19    9.34
   8   8   1    3.47    5.89
  -8  -8  -2   49.50    9.01
   8   8   2   61.81   10.08
  -8  -8  -3   91.63   11.12
   8   8   3  119.76   10.82
  -8  -8  -4  123.13   12.93
   8   8   4  124.96   14.33
  -8  -8  -5   -1.40    6.31
   8   8   5   -4.54    5.94
  -8  -8  -6    3.85    5.60
  -8  -8  -6   -2.80    5.24
   8   8   6   -3.50    5.25
  -8  -8  -7    3.83    6.27
  -8  -8  -7   -7.33    4.54
   8   8   7    2.80    6.29
  -8  -8  -8   14.20    7.27
  -8  -8  -8   14.92    4.86
   8   8   8   12.93    6.99
  -8  -8  -9   48.92    8.05
  -8  -8  -9   53.14   11.74
  -8  -8  -9   63.52    7.91
   8   8  10   -2.09    5.93
   8   8  11   -2.78    9.39
   8   8  12   -5.53    9.69
   8   9   0  291.99   26.31
  -8  -9  -1   55.77   16.19
   8   9   1  121.42   13.83
  -8  -9  -2    8.62   11.04
   8   9   2   16.23    7.25
  -8  -9  -3   97.30   10.76
   8   9   3  110.00   10.74
  -8  -9  -4   32.36    8.01
   8   9   4   21.84    6.94
  -8  -9  -5  179.22   29.01
   8   9   5  188.00   16.36
  -8  -9  -6   20.97   10.83
  -8  -9  -6   35.46    6.96
   8   9   6   23.32    5.92
  -8  -9  -7    3.83    6.61
  -8  -9  -7    4.86    5.90
   8   9   7    6.96    5.92
  -8  -9  -8  102.72   22.15
  -8  -9  -8  160.47   14.88
   8   9   8  128.50   13.97
  -8  -9  -9   17.21   10.33
  -8  -9  -9   43.05    7.52
   8   9  10    6.26    9.04
   8   9  12   23.12   12.42
   8  10   0   -7.88   12.34
   8  10   1   37.73    9.95
   8  10   2   40.50    9.96
  -8 -10  -3  225.39  196.05
   8  10   3    9.96    7.56
   8  10   4   91.21    9.99
  -8 -10  -5  154.58   18.82
   8  10   5  147.62   17.26
  -8 -10  -6   11.14   13.58
   8  10   6    3.11    7.26
  -8 -10  -7    5.86    5.17
   8  10   7    2.42    6.92
  -8 -10  -8   41.15    6.18
   8  10   8   36.36    9.01
   8  10   9  246.86   26.90
   8  10  10  209.24   20.18
   8  10  11   29.33   12.77
   8  10  12   19.59   16.50
   8  11   1    2.73   10.22
   8  11   2   14.32   10.57
   8  11   3   -1.02    8.53
   8  11   4   12.64    8.88
   8  11   5   53.03   10.27
   8  11   6   67.52   11.66
  -8 -11  -7   10.26    6.50
   8  11   7   21.63    6.52
  -8 -11  -8   10.21    6.47
   8  11   8   -2.06    5.50
   8  11  10  -15.46    7.22
  -8 -11 -11   14.75    7.89
   8  11  11    5.49    8.58
   8  12   3    2.03   11.18
   8  12   4   -2.03   10.51
   8  12   5   -0.68   10.52
   8  12   6    4.08   10.19
   8  12   7    3.74    7.15
   8  12   8   -6.47    7.16
   8  12   9   -9.55   11.25
   9  -4   1   -9.67   12.44
   9  -4   2   15.49   13.77
  -9   3  -1    6.20    9.99
  -9   3  -1    3.11   11.76
  -9   3  -2   56.49   13.88
  -9   3  -2   48.02   14.17
  -9   3  -3   83.59   15.36
  -9   3  -3   41.38   15.52
   9  -3   4   77.38   15.83
   9  -3   5    3.09   14.40
  -9   2  -1   20.59    9.96
  -9   2  -1   -2.43   11.45
  -9   2  -2   10.38    9.68
  -9   2  -2   -0.69   11.78
  -9   2  -3    1.74   11.49
  -9   2  -3   31.82   12.80
  -9   2  -4   -1.40   11.89
  -9   2  -4   -0.69    8.97
   9  -2   5    9.29    9.97
   9  -2   6   16.79   10.62
   9  -2   7  -13.99   10.92
  -9   1  -1   56.89   11.67
  -9   1  -1   53.21   15.66
  -9   1  -2   -1.38    5.87
  -9   1  -2    0.69    9.38
  -9   1  -3   10.09   10.09
  -9   1  -3   14.56    9.71
  -9   1  -4   26.26   11.21
  -9   1  -4   18.68    9.34
  -9   1  -5   37.94    8.09
  -9   1  -5   27.25   11.38
   9  -1   6   15.12    8.94
   9  -1   7   22.60    9.93
   9  -1   8   -7.50   10.23
  -9   0   0  137.97   20.95
  -9   0   0  128.23   22.32
  -9   0  -1  193.10   24.43
  -9   0  -1  200.31   25.82
  -9   0  -2  129.02   12.13
  -9   0  -2  105.44   13.94
  -9   0  -3    6.26    8.34
  -9   0  -3   -0.35    8.34
  -9   0  -4    8.75    8.05
  -9   0  -4   -4.51    7.63
  -9   0  -5   86.07    6.23
  -9   0  -5   76.32    7.23
  -9   0  -5   87.60   13.74
  -9   0  -5   73.31   13.50
  -9   0  -6  102.13    9.34
  -9   0  -6   90.85   14.82
  -9   0  -6   72.41   19.66
  -9   0  -7   59.71    7.92
  -9   0  -7   37.80   12.38
  -9   0  -8  -11.29    6.50
  -9   0  -8    5.82    8.90
   9   0   9  -13.98   10.23
  -9  -1   0   99.94   14.87
  -9  -1   0  138.43   16.07
  -9  -1  -1   14.46    5.85
  -9  -1  -1   22.31    9.07
  -9  -1  -2  216.50   22.19
  -9  -1  -2  212.51   20.98
  -9  -1  -3  193.22   15.72
  -9  -1  -3  193.44   23.02
  -9  -1  -4   -0.70    7.35
  -9  -1  -4    6.60    8.34
  -9  -1  -5    3.87    7.75
  -9  -1  -5   15.95   10.06
  -9  -1  -6   19.31    4.49
  -9  -1  -6   21.38    3.80
  -9  -1  -6   24.34    8.82
  -9  -1  -6    5.54    9.34
  -9  -1  -7   36.51    6.56
  -9  -1  -7   50.22    6.94
  -9  -1  -7   91.53   12.35
  -9  -1  -7   20.02   11.39
  -9  -1  -8   10.32    5.50
  -9  -1  -8   -6.54    8.95
   9   1   9   -7.89    6.86
   9   2   0   -5.23    9.07
  -9  -2  -1   29.42    7.27
  -9  -2  -1   46.38    9.42
  -9  -2  -2  -15.93    7.27
  -9  -2  -2   -1.05    7.67
  -9  -2  -3   -1.04    6.95
  -9  -2  -3   -5.92    8.71
  -9  -2  -4   -0.70    6.65
  -9  -2  -4    1.74    8.70
  -9  -2  -5   29.22    6.69
  -9  -2  -5   34.09   10.79
  -9  -2  -6   27.72    3.83
  -9  -2  -6   29.69    4.49
  -9  -2  -6   29.31    9.89
  -9  -2  -7   65.29    7.34
  -9  -2  -7   49.40    6.92
  -9  -2  -7   44.09    9.53
  -9  -2  -8    5.21    6.94
  -9  -2  -8   13.87    5.55
  -9  -2  -9   16.95    8.30
  -9  -2  -9   34.37    7.64
   9   2  10   11.36   10.67
  -9  -3   0   40.06    9.76
   9   3   0   48.36    4.93
   9   3   1   88.87   11.53
  -9  -3  -2    5.56    7.30
  -9  -3  -2   -4.18    8.37
  -9  -3  -3   26.46    8.01
  -9  -3  -3   13.60    8.72
  -9  -3  -4    4.90    4.55
  -9  -3  -4    1.40    8.03
  -9  -3  -5   12.53    2.79
  -9  -3  -5   11.10    2.43
  -9  -3  -5    4.93    6.33
  -9  -3  -6    7.06    3.53
  -9  -3  -6   -1.04    3.47
  -9  -3  -6    6.00    7.42
  -9  -3  -7    3.53    4.24
  -9  -3  -7    4.83    5.18
  -9  -3  -7    2.12    5.65
  -9  -3  -8   13.73    6.34
  -9  -3  -8    0.69    4.84
  -9  -3  -8    7.02    8.43
  -9  -3  -9    1.05    7.70
  -9  -3  -9    4.86    6.94
  -9  -3 -10   12.16    6.95
  -9  -3 -10   13.20   10.77
   9   3  11   13.44   10.69
  -9  -4   0  239.89   17.87
  -9  -4   0  225.34   23.03
   9   4   0  243.45   21.44
  -9  -4  -1   13.25    3.69
  -9  -4  -1   12.88    8.01
   9   4   1   20.68    3.16
  -9  -4  -2    0.37    2.57
  -9  -4  -2   -2.09    7.66
  -9  -4  -3   10.47    5.23
  -9  -4  -3   26.87   12.22
  -9  -4  -4   69.03    5.19
  -9  -4  -4   75.08    4.63
  -9  -4  -4   91.33   10.17
  -9  -4  -5  173.10   18.30
  -9  -4  -5  226.09   16.77
  -9  -4  -5  203.54   17.99
  -9  -4  -6   10.48    4.70
  -9  -4  -6    4.88    3.84
  -9  -4  -6   15.52    6.35
  -9  -4  -7    2.51    5.03
  -9  -4  -7    0.35    5.19
  -9  -4  -7    4.23    7.06
  -9  -4  -8   30.29    6.78
  -9  -4  -8   27.63    6.57
  -9  -4  -8   20.37    7.38
  -9  -4  -9   67.86   13.45
  -9  -4  -9   60.23   11.09
  -9  -4  -9   83.92    9.78
  -9  -4 -10   -8.76    8.76
  -9  -4 -10   -4.51    6.94
   9   4  11    2.43   11.80
  -9  -5   0   54.56    9.80
  -9  -5   0   56.20   10.07
   9   5   0   57.23    7.34
  -9  -5  -1  202.75   18.20
  -9  -5  -1  194.89   21.95
   9   5   1  202.07   16.54
  -9  -5  -2   92.92    8.25
  -9  -5  -2   98.16   10.13
   9   5   2  100.56    9.15
  -9  -5  -3   25.87    4.56
   9   5   3   22.34    4.54
  -9  -5  -4  255.65   14.44
  -9  -5  -4  235.50   21.06
   9   5   4  251.11   13.35
  -9  -5  -5   52.70    6.80
  -9  -5  -5   68.28    6.63
  -9  -5  -5   58.98    7.74
  -9  -5  -6    5.37    3.22
  -9  -5  -6   15.03    4.54
  -9  -5  -6   17.61    6.69
  -9  -5  -7   -3.22    3.58
  -9  -5  -7    4.17    4.86
  -9  -5  -7    0.70    6.34
  -9  -5  -8   80.99    8.96
  -9  -5  -8  102.62    9.70
  -9  -5  -8   71.94   11.59
  -9  -5  -9  279.05   24.98
  -9  -5  -9  283.26   28.08
  -9  -5  -9  341.37   24.88
  -9  -5 -10  111.54   13.77
  -9  -5 -10  107.73   13.21
  -9  -5 -11    7.67   10.81
  -9  -5 -11   -6.25   10.07
   9   5  12   -2.76   12.09
  -9  -6   0   54.39    9.63
  -9  -6   0   77.82    9.36
   9   6   0   54.29    8.02
  -9  -6  -1   48.35    8.14
  -9  -6  -1   46.78    8.32
   9   6   1   55.49    6.99
  -9  -6  -2   11.89    5.95
  -9  -6  -2   10.43    6.95
   9   6   2    6.65    4.20
  -9  -6  -3   14.23    4.86
   9   6   3   10.85    4.20
  -9  -6  -4   58.59    5.57
  -9  -6  -4   44.77    7.35
   9   6   4   61.10    7.35
  -9  -6  -5  268.70   23.07
  -9  -6  -5  230.22   21.09
   9   6   5  250.34   14.19
  -9  -6  -6  299.74   25.60
  -9  -6  -6  255.73   21.16
  -9  -6  -7   83.34    8.18
  -9  -6  -7   66.87    9.07
  -9  -6  -7   58.69    9.15
  -9  -6  -8   12.03    6.37
  -9  -6  -8   18.68    6.58
  -9  -6  -8    2.10    7.00
  -9  -6  -9   20.12    7.06
  -9  -6  -9   -5.87    6.56
  -9  -6  -9    6.25    6.60
  -9  -6 -10   28.82    8.79
  -9  -6 -10   23.50    9.68
   9   6  11   94.97   13.65
   9   6  12    4.85   13.16
  -9  -7   0   16.16   10.19
  -9  -7   0   -4.14    8.27
   9   7   0    2.77    5.55
  -9  -7  -1   -4.89    6.98
  -9  -7  -1    7.60    6.56
   9   7   1    3.82    6.26
  -9  -7  -2   10.41    5.90
   9   7   2    2.44    4.88
  -9  -7  -3    9.69    4.85
   9   7   3  -10.13    4.89
  -9  -7  -4   16.63    6.24
   9   7   4   16.07    5.59
  -9  -7  -5    3.48    5.92
  -9  -7  -5    8.39    6.99
   9   7   5    5.93    4.89
  -9  -7  -6   -0.70    5.24
  -9  -7  -6    3.15    3.85
  -9  -7  -7   50.56    7.68
  -9  -7  -7   46.93    8.06
  -9  -7  -8    5.61    7.01
  -9  -7  -8    0.35    7.62
  -9  -7  -8   16.06    6.63
  -9  -7  -9    8.06    7.01
  -9  -7  -9    4.14    6.55
  -9  -7  -9    9.01    6.58
  -9  -7 -10   36.04    9.46
  -9  -7 -10   22.06    8.97
  -9  -7 -10   18.85    7.88
   9   7  11   27.88   11.50
   9   7  12    1.04   11.77
  -9  -8   0    2.43    8.69
  -9  -8   0    0.00    7.55
   9   8   0   15.89    6.91
  -9  -8  -1    0.69    9.35
  -9  -8  -1   13.76    8.26
   9   8   1   -9.00    7.27
  -9  -8  -2   -1.38    7.60
   9   8   2   -1.04    4.86
  -9  -8  -3   79.02   11.75
   9   8   3   73.71    9.75
  -9  -8  -4   34.96    7.62
   9   8   4   32.39    6.62
  -9  -8  -5   33.75    8.01
   9   8   5   32.05    5.58
  -9  -8  -6   36.66    8.03
  -9  -8  -6   28.24    6.97
   9   8   6   26.82    6.62
  -9  -8  -7    5.93    8.71
  -9  -8  -7   17.43    6.97
  -9  -8  -8   11.78    8.32
  -9  -8  -8   -2.09    5.91
   9   8   8   13.94    7.32
  -9  -8  -9    1.39    7.32
  -9  -8  -9   -3.79    7.58
  -9  -8  -9    4.48    5.18
  -9  -8 -10   -5.22    8.01
  -9  -8 -10   -9.98   11.70
  -9  -8 -10   -2.39    8.19
   9   8  11   13.19    6.95
   9   8  12    5.53   12.09
   9   9   0   52.28   11.02
  -9  -9  -1   -6.19    8.60
  -9  -9  -1    7.19    7.54
   9   9   1   -0.69    6.89
  -9  -9  -2  114.78   13.79
   9   9   2  137.63   16.59
  -9  -9  -3  151.42   17.25
   9   9   3  172.82   14.56
  -9  -9  -4   78.77   11.07
   9   9   4   67.19    9.36
  -9  -9  -5    7.99    7.64
   9   9   5   -1.04    5.90
  -9  -9  -6   18.81   15.68
  -9  -9  -6    4.16    6.24
   9   9   6   -2.43    5.21
  -9  -9  -7   92.91   11.15
  -9  -9  -7   75.93   10.07
   9   9   7   89.90   10.09
  -9  -9  -8  168.29   26.34
  -9  -9  -8  196.69   18.38
   9   9   8  204.43   16.08
  -9  -9  -9   80.92   14.48
  -9  -9  -9   74.14    9.97
  -9  -9 -10    0.00    8.67
  -9  -9 -10    6.12    7.48
   9   9  11    2.77    6.23
   9  10   1    5.14    8.91
   9  10   2    0.69    8.23
  -9 -10  -3  784.52  249.13
   9  10   3  129.82   14.79
  -9 -10  -4  221.23   18.33
   9  10   4  245.32   22.76
  -9 -10  -5  123.26   17.67
   9  10   5   99.61   14.49
  -9 -10  -6   19.10   11.81
   9  10   6   24.16    8.28
  -9 -10  -7   -1.04   10.41
  -9 -10  -7   -1.38    6.20
   9  10   7   -2.42    4.84
  -9 -10  -8  834.84  297.57
  -9 -10  -8    6.87    6.53
   9  10   8   -3.11    6.91
  -9 -10  -9   89.05   10.26
   9  10   9   65.96   11.41
   9  10  10   37.26    9.67
   9  10  11  -10.33   10.67
   9  11   2   -2.39    9.54
   9  11   3   11.60   11.60
   9  11   4   18.79    9.22
   9  11   5    7.53    8.90
   9  11   6   20.90    8.91
  -9 -11  -7    2.39    6.50
   9  11   7    0.00    7.89
  -9 -11  -8   53.20    8.87
   9  11   8   30.21   10.99
   9  11   9   83.42   12.72
   9  11  10    7.55   11.32
   9  11  11    3.77   11.30
   9  12   5    1.36   10.18
   9  12   6    9.86   10.88
   9  12   7   -3.06   10.55
   9  12   8    2.72   11.58
 -10   2  -1    1.70   11.89
 -10   2  -1   -5.86   12.41
 -10   2  -2  -14.04   13.01
 -10   2  -2   -5.51   12.40
 -10   2  -3  -10.00   14.49
 -10   2  -3   -6.19    9.63
 -10   2  -4  -21.52   13.54
 -10   2  -4   19.21   12.35
  10  -2   5    5.81    8.21
 -10   1  -1    8.48   12.22
 -10   1  -1   10.72    8.30
 -10   1  -2   26.31    9.91
 -10   1  -2   38.67   13.82
 -10   1  -3   16.19   11.37
 -10   1  -3    2.76   10.34
 -10   1  -4   49.63   14.59
 -10   1  -4   36.80   12.38
 -10   1  -5   -9.07   13.26
 -10   1  -5    3.43    9.94
  10  -1   6  -17.43   10.94
 -10   0   0  114.01   13.01
 -10   0   0   76.19   18.71
 -10   0  -1   72.02   12.60
 -10   0  -1   82.07   13.52
 -10   0  -2    9.56    9.56
 -10   0  -2   -1.38   11.07
 -10   0  -3   -5.51    6.88
 -10   0  -3    2.42    9.67
 -10   0  -4    5.20   11.10
 -10   0  -4    8.62   40.32
 -10   0  -5    0.35    9.08
 -10   0  -5   -0.69    6.53
 -10   0  -6    5.96   11.56
 -10   0  -6    2.74   10.63
  10   0   7    3.76    9.91
 -10  -1   0    3.76    9.91
 -10  -1   0    1.73    8.32
 -10  -1  -1   19.44    9.90
 -10  -1  -1    4.51   11.09
 -10  -1  -2   89.59   13.03
 -10  -1  -2   98.36   16.31
 -10  -1  -3    7.22    9.29
 -10  -1  -3    8.99    9.68
 -10  -1  -4   70.38   11.11
 -10  -1  -4   78.03   12.46
 -10  -1  -5  162.36   17.87
 -10  -1  -5  151.61   28.65
 -10  -1  -6   76.12   14.05
 -10  -1  -6   46.76   14.79
 -10  -1  -7    4.21    7.72
 -10  -1  -7   -5.14    9.60
  10   1   8    9.57    9.91
 -10  -2   0    2.76    9.30
 -10  -2   0    6.93   10.75
 -10  -2  -1   35.69    9.96
 -10  -2  -1   28.78   11.10
 -10  -2  -2   13.72    9.61
 -10  -2  -2   37.77   10.75
 -10  -2  -3   43.74   12.06
 -10  -2  -3   51.24   11.78
 -10  -2  -4   -6.59    6.24
 -10  -2  -4  -14.87   11.07
 -10  -2  -5   16.06    8.03
 -10  -2  -5   -0.69    9.67
 -10  -2  -6   22.46   10.53
 -10  -2  -6   26.22   10.01
 -10  -2  -7   98.77   11.63
 -10  -2  -7    9.30   12.75
  10   2   8   26.64    9.82
  10   3   0   13.51   10.74
 -10  -3  -1    1.38    8.98
 -10  -3  -1   16.63    9.36
 -10  -3  -2    4.83    5.52
 -10  -3  -2    2.08    9.01
 -10  -3  -3    6.56    9.32
 -10  -3  -3   29.79   10.40
 -10  -3  -4    4.16    8.32
 -10  -3  -4    0.35    9.01
 -10  -3  -5    4.88   10.47
 -10  -3  -5   -3.81    9.35
  10   3   6   -2.81    8.42
 -10  -3  -7    0.00    5.20
 -10  -3  -7    1.05    8.09
 -10  -3  -8    7.29    5.90
 -10  -3  -8   -4.56    9.83
  10   3   9   -5.54    6.58
  10   3  10   -7.93    9.66
  10   4   0  105.14   12.83
  10   4   1    1.04    9.69
 -10  -4  -2   29.44    9.70
 -10  -4  -2   46.40   11.78
 -10  -4  -3   28.73    7.97
 -10  -4  -3   39.15   12.13
 -10  -4  -4    3.12    5.90
 -10  -4  -4    3.47    9.37
  10   4   5   13.95    9.07
 -10  -4  -6    8.13    4.60
 -10  -4  -6    1.73    3.11
 -10  -4  -6   -5.61    6.31
 -10  -4  -7   25.20    5.34
 -10  -4  -7   22.16    5.89
 -10  -4  -7   47.44    9.50
 -10  -4  -8   53.05    8.52
 -10  -4  -8   37.46    7.57
 -10  -4  -8   25.97    9.83
 -10  -4  -9    5.97    7.73
 -10  -4  -9    9.77   10.47
  10   4  10   14.65   10.47
  10   4  11    8.99    8.65
 -10  -5   0   11.39    8.28
  10   5   0   15.63    4.86
 -10  -5  -1    8.29   11.75
  10   5   1    3.83    3.48
 -10  -5  -2   12.44    4.03
 -10  -5  -2   30.78   12.45
  10   5   2   16.00    3.83
 -10  -5  -3  258.03   15.17
 -10  -5  -3  223.52   28.89
 -10  -5  -3  256.74   26.49
 -10  -5  -4  358.33   23.68
 -10  -5  -4  376.79   21.87
 -10  -5  -4  391.48   36.63
 -10  -5  -5  203.08   13.00
 -10  -5  -5  218.16   18.56
 -10  -5  -6    3.26    4.35
 -10  -5  -6    1.39    3.47
 -10  -5  -6    4.20    8.40
 -10  -5  -7   -1.80    4.69
 -10  -5  -7    2.78    5.21
 -10  -5  -7   16.14    8.07
 -10  -5  -8   70.47    8.62
 -10  -5  -8   63.12   10.36
 -10  -5  -8   56.08   11.93
 -10  -5  -9   42.93    7.82
 -10  -5  -9   34.67    8.59
 -10  -5  -9   33.12    8.02
  10   5  10   56.26   12.33
  10   5  11   -4.88   11.15
 -10  -6   0   41.64   10.67
  10   6   0   42.95    7.63
 -10  -6  -1   87.52   13.46
  10   6   1   46.58    8.35
 -10  -6  -2    6.74    6.74
 -10  -6  -2   -0.69    8.63
  10   6   2   10.79    4.18
 -10  -6  -3   16.79    5.60
  10   6   3   11.13    4.52
 -10  -6  -4    4.84    4.49
 -10  -6  -4    5.56    7.65
  10   6   4    0.35    3.49
 -10  -6  -5   56.21    6.92
 -10  -6  -5   46.31    9.41
  10   6   5   58.77    6.39
 -10  -6  -6   13.14    5.68
 -10  -6  -6   14.57    6.25
 -10  -6  -6   18.16    7.33
 -10  -6  -7   18.89    6.77
 -10  -6  -7   10.09    5.22
 -10  -6  -7   19.25    6.65
 -10  -6  -8    8.90    6.41
 -10  -6  -8   11.76    6.57
 -10  -6  -8    6.99    8.39
 -10  -6  -9   61.32   10.30
 -10  -6  -9   51.24    9.98
 -10  -6  -9   60.21   11.50
 -10  -6 -10    6.69    7.75
 -10  -6 -10    0.34    9.60
 -10  -6 -10    4.83    8.62
  10   6  11   12.93   11.18
 -10  -7   0   -4.80    7.55
  10   7   0    3.80    5.87
 -10  -7  -1   14.08    9.62
  10   7   1    9.01    6.93
 -10  -7  -2   -4.54    6.29
 -10  -7  -2   -1.38    7.58
  10   7   2    3.13    4.86
 -10  -7  -3    2.42    5.88
  10   7   3   -3.82    4.52
 -10  -7  -4   14.81    5.51
  10   7   4   14.59    4.17
 -10  -7  -5   -0.34    4.83
 -10  -7  -5    5.21    4.87
  10   7   5    0.70    3.82
 -10  -7  -6    1.39    5.90
 -10  -7  -6   -8.01    7.31
  10   7   6    3.14    4.19
 -10  -7  -7   -3.50    5.61
 -10  -7  -7    3.13    6.26
 -10  -7  -7   -7.67    4.88
 -10  -7  -8    4.57    6.33
 -10  -7  -8   10.40    7.62
 -10  -7  -8    4.88    7.32
 -10  -7  -9   21.09    8.09
 -10  -7  -9   12.40    9.64
 -10  -7  -9   32.27    8.68
 -10  -7 -10   28.75    8.07
 -10  -7 -10   14.07   10.29
 -10  -7 -10   42.32    8.61
  10   7  11   10.81   10.12
  10   7  12    7.62   12.12
  10   8   0   24.78    7.57
 -10  -8  -1   46.20   11.30
  10   8   1   33.46    7.59
 -10  -8  -2    6.57    7.61
 -10  -8  -2   30.90    8.93
  10   8   2   -1.73    6.23
 -10  -8  -3    6.19    5.85
  10   8   3    0.69    5.89
 -10  -8  -4    6.19    6.53
  10   8   4    3.47    5.20
 -10  -8  -5   11.72    6.55
 -10  -8  -5    7.98    7.28
  10   8   5    1.73    4.51
 -10  -8  -6    8.67    7.97
 -10  -8  -6   17.01    6.94
 -10  -8  -7   12.16    7.99
 -10  -8  -7    2.43    7.30
 -10  -8  -8    6.96    6.96
 -10  -8  -8   -3.12    6.93
 -10  -8  -8  -11.11    7.29
 -10  -8  -9    6.62    7.67
 -10  -8  -9   -4.82    8.96
 -10  -8  -9    7.60    7.95
 -10  -8 -10   -3.13    7.66
 -10  -8 -10   10.63   10.63
 -10  -8 -10    4.11    7.88
  10   8  11   -7.64    8.68
  10   9   1   19.57    8.93
 -10  -9  -2  109.10   19.18
  10   9   2  130.08   14.84
 -10  -9  -3  174.05   22.70
  10   9   3  194.51   23.16
 -10  -9  -4   60.01   10.99
  10   9   4   68.40   10.03
 -10  -9  -5   25.48    8.27
  10   9   5   16.94    7.26
 -10  -9  -6   14.53    9.00
 -10  -9  -6    7.60    6.91
  10   9   6   16.94    6.57
 -10  -9  -7    7.98    9.71
 -10  -9  -7   14.52    7.26
  10   9   7    3.11    6.23
 -10  -9  -8   75.13   14.55
 -10  -9  -8   83.22   11.76
  10   9   8   80.28   10.07
 -10  -9  -9   -4.85    7.62
 -10  -9  -9   -3.44    9.30
 -10  -9  -9    5.50    6.53
 -10  -9 -10    5.88    8.65
 -10  -9 -10    4.44    6.82
 -10  -9 -11   49.05   11.41
 -10  -9 -11   37.51    9.47
  10  10   2   10.61    8.21
  10  10   3    2.74    9.60
 -10 -10  -4   18.13   10.26
  10  10   4   44.31    9.97
 -10 -10  -5   11.68    8.59
  10  10   5   13.07    7.91
 -10 -10  -6   37.62   10.01
 -10 -10  -6   17.88    7.91
  10  10   6   36.14    8.95
 -10 -10  -7   45.32    9.00
 -10 -10  -7   77.33   10.67
  10  10   7   65.77    9.31
 -10 -10  -8   -8.98  122.63
 -10 -10  -8   42.90    8.93
  10  10   8   27.21    8.96
 -10 -10  -9   -3.42    6.84
  10  10   9   -8.26    8.27
 -10 -10 -10  -11.36    8.95
 -10 -10 -10  -10.52    7.13
  10  10  11   17.18   11.34
  10  11   4   25.25    9.56
  10  11   5   12.64    8.54
  10  11   6   -2.05    8.21
 -10 -11  -7   -6.83    7.85
  10  11   7   -5.82    7.87
 -10 -11  -8   57.95   10.58
  10  11   8   44.86   10.28
  10  11   9   57.53   10.97
  10  11  10   26.01   11.98
  11   0   0  346.42  248.74
 -11   0  -1   28.24   11.44
 -11   0  -1   24.08   15.83
 -11   0  -2   20.94   12.16
 -11   0  -2    0.69    7.90
 -11   0  -3   20.75   10.21
 -11   0  -3   49.41   11.34
 -11   0  -4  127.99   16.89
 -11   0  -4   77.05   13.73
 -11   0  -5  -10.03    8.65
 -11   0  -5   -4.10   10.59
  11   0   6   -5.22   13.56
 -11  -1   0  125.57   18.12
 -11  -1   0   91.60   19.99
 -11  -1  -1   36.14   11.16
 -11  -1  -1   34.44   13.78
 -11  -1  -2   18.27   10.49
 -11  -1  -2    5.85   10.67
 -11  -1  -3    5.10   10.21
 -11  -1  -3   15.12   12.03
 -11  -1  -4   47.66   11.67
 -11  -1  -4   36.36   10.30
 -11  -1  -5  114.07   16.29
 -11  -1  -5   94.13   18.53
 -11  -1  -6   33.75    9.40
 -11  -1  -6   30.39   12.30
 -11  -1  -7   -2.09   12.22
 -11  -1  -7    1.02    9.54
  11   2   0    7.17    9.22
 -11  -2  -1   19.38    8.17
 -11  -2  -1    9.30   12.06
 -11  -2  -2   20.38    7.14
 -11  -2  -2   19.28   11.71
 -11  -2  -3   -4.77    9.20
 -11  -2  -3   -0.34    9.63
 -11  -2  -4    2.06    9.26
 -11  -2  -4    0.00    9.96
 -11  -2  -5    5.18   10.02
 -11  -2  -5    5.83   10.63
 -11  -2  -6   -4.87   10.78
 -11  -2  -6   -8.22   10.96
 -11  -2  -7    8.38   10.83
 -11  -2  -7   -1.71    9.91
 -11  -2  -8   -4.54    7.34
 -11  -2  -8  -19.78    9.55
 -11  -3   0   20.67   12.41
 -11  -3   0    6.89    7.92
 -11  -3  -1    8.56   11.30
 -11  -3  -1  -14.12    9.30
 -11  -3  -2    5.80    9.90
 -11  -3  -2    2.07   10.67
 -11  -3  -3    4.78   10.25
 -11  -3  -3   15.14   10.32
 -11  -3  -4    2.40    9.27
 -11  -3  -4   14.44   11.35
 -11  -3  -5  -12.09    8.98
 -11  -3  -5    9.97   10.31
 -11  -3  -6   11.82    9.74
 -11  -3  -6   -6.18    8.93
 -11  -3  -7    8.03   10.83
 -11  -3  -7   14.76   10.30
  11   3   8   12.94    6.99
  11   3   9    2.44   13.24
  11   4   0   13.75   10.31
  11   4   1   -3.10    8.94
 -11  -4  -2   80.35   13.45
 -11  -4  -2   88.42   13.12
 -11  -4  -3   58.31   13.06
 -11  -4  -3   67.78   12.42
 -11  -4  -4    7.56    8.94
 -11  -4  -4    9.29    9.29
 -11  -4  -5   14.51    9.67
 -11  -4  -5   11.02   10.33
 -11  -4  -6    7.30   11.12
 -11  -4  -6   -2.07    6.89
  11   4   7   12.56    8.73
  11   4   8   30.06    9.09
  11   4   9   21.61    8.37
  11   5   0   45.97   10.30
 -11  -5  -2    8.63    6.90
 -11  -5  -2   22.33   10.31
 -11  -5  -3   64.03   10.02
 -11  -5  -3   67.40   17.22
 -11  -5  -4  116.40   14.86
 -11  -5  -4  119.50   21.76
  11   5   5    0.35    7.95
  11   5   6    3.12    6.25
  11   5   7   33.46    8.02
  11   5   8    5.93    9.43
  11   5   9    9.06   10.80
  11   5  10    2.08   10.38
  11   6   0   12.32   10.27
  11   6   1   32.88    9.94
  11   6   2   13.03    9.95
 -11  -6  -3   52.47   10.03
 -11  -6  -3   40.88   11.35
 -11  -6  -4   47.60    9.33
 -11  -6  -4   29.97   13.10
  11   6   5   -0.69    6.22
  11   6   6   -6.24    5.89
  11   6   7   53.90    9.40
  11   6   8  112.50   15.36
 -11  -6  -9   82.55   11.44
 -11  -6  -9   96.30   15.32
  11   6  10    2.42    9.68
  11   7   1   10.25    8.88
  11   7   2    2.74   10.26
  11   7   3   23.67    9.95
  11   7   4   35.21   10.36
  11   7   5   -8.29    5.87
  11   7   6   32.52    7.27
 -11  -7  -7    5.67    6.02
 -11  -7  -7   -3.47    8.32
 -11  -7  -8    4.26    6.03
 -11  -7  -8    3.82    9.72
 -11  -7  -9   10.62    8.49
 -11  -7  -9   -4.16    9.36
 -11  -7 -10   11.27    9.51
 -11  -7 -10   35.50   10.00
 -11  -7 -11   10.14    9.79
 -11  -7 -11   -3.42    9.22
  11   8   1   50.71   12.94
  11   8   2   16.03   11.25
  11   8   3   -4.45    9.93
 -11  -8  -5   -7.58    9.65
  11   8   5    7.26    6.22
 -11  -8  -6   30.36   10.35
  11   8   6   32.59    6.95
 -11  -8  -7    4.84    8.64
  11   8   7    2.09    5.92
 -11  -8  -8    0.35    6.29
 -11  -8  -8   14.53    8.99
 -11  -8  -9    5.25    7.35
 -11  -8  -9    8.29    8.63
  11   8  10   -6.52    9.27
  11   8  11    8.35   11.14
  11   9   3   42.26   13.41
  11   9   4    1.03    7.57
  11   9   5   86.77   11.05
  11   9   6   89.07   13.43
 -11  -9  -7   -1.38    8.60
  11   9   7   -1.38    7.59
 -11  -9  -8   -3.79    8.61
  11   9   8   -6.57    7.26
 -11  -9  -9    9.00    8.66
 -11  -9  -9   11.68    8.25
 -11  -9 -10   36.72   10.06
 -11  -9 -10   26.32    9.57
  11  10   4    4.79    7.53
 -11 -10  -6   71.57   12.68
  11  10   6   79.59   10.66
 -11 -10  -7  132.85   16.13
  11  10   7  167.51   17.58
  11  10   8   74.62   13.36
 -11 -10  -9    5.12    9.57
  11  10   9   16.16    8.25
  11  10  10   -5.16   10.31
  11  11   6   -6.81    7.15
  11  11   8   -1.02    9.18
  12   2   2  -10.42    9.75
 -12  -2  -3  -16.17   11.79
 -12  -2  -3   51.93  167.74
  12   2   4   33.89   10.86
 -12  -2  -5   29.03   11.28
 -12  -2  -5  586.72  286.20
  12   2   6   13.43    8.95
 -12  -3  -2   -8.45   11.83
 -12  -3  -2   14.02   13.34
 -12  -3  -3    7.44   10.82
 -12  -3  -3   -3.42   11.28
 -12  -3  -4   11.20    7.81
 -12  -3  -4   15.70   10.93
 -12  -3  -5   -6.49   15.03
 -12  -3  -5    0.68   11.59
  12   3   7   -0.35   12.46
  12   4   1  -15.71   10.94
 -12  -4  -2   77.53   13.69
 -12  -4  -2   38.28   13.34
 -12  -4  -3    2.72   10.52
 -12  -4  -3   -2.73   11.27
 -12  -4  -4   -1.36   10.54
 -12  -4  -4  -15.03    9.57
 -12  -4  -5   20.16    7.18
 -12  -4  -5   10.24   11.27
 -12  -4  -6   -6.53    9.63
 -12  -4  -6   32.78   12.31
 -12  -4  -7   20.76   11.76
 -12  -4  -7  -26.98   11.28
  12   4   8   -1.74   11.81
 -12  -5  -2   46.17   12.01
 -12  -5  -2   43.35   12.98
 -12  -5  -3    5.46   10.57
 -12  -5  -3  -19.46   10.59
 -12  -5  -4   -7.84   10.91
 -12  -5  -4    0.34   10.93
 -12  -5  -5   99.19   21.58
 -12  -5  -5   19.49   12.31
 -12  -5  -6   55.68   14.10
 -12  -5  -6   25.33   11.65
  12   5   7  185.88   21.16
  12   5   8    9.36    7.28
  12   5   9    2.78   12.14
  12   6   2   25.89   18.06
 -12  -6  -3   46.55   13.71
 -12  -6  -3   27.27   14.32
 -12  -6  -4   57.43   13.35
 -12  -6  -4   36.88   15.38
 -12  -6  -5    4.11    7.87
 -12  -6  -5   -8.90   10.61
  12   6   6    6.18   10.65
  12   6   7    6.21   10.69
  12   6   8   34.60   11.42
  12   6   9   18.01   10.74
  12   7   3   -0.34   13.61
 -12  -7  -4   11.30   10.61
 -12  -7  -4    5.46   10.58
  12   7   5   14.04   10.62
  12   7   6    4.80   10.29
  12   7   7   19.96   14.11
  12   7   8    9.66    9.66
  12   7   9  -12.43    9.32
 -12  -8  -4   25.69   11.99
 -12  -8  -4   -1.70   16.69
  12   8   5   -6.16   11.29
  12   8   6   16.10    9.93
  12   8   7    2.06   10.30
  12   8   8   19.94    9.97
  12   8   9    9.98    8.94
  12   9   5   99.44   14.05
  12   9   6   55.69   14.02
  12   9   7    5.81   10.26
  12   9   7    5.81   10.26
;
_shelx_hkl_checksum              69656
loop_
_space_group_symop_operation_xyz
'x, y, z'
'-x, -y, -z'
loop_
_atom_site_label
_atom_site_type_symbol
_atom_site_fract_x
_atom_site_fract_y
_atom_site_fract_z
_atom_site_U_iso_or_equiv
_atom_site_adp_type
_atom_site_occupancy
_atom_site_site_symmetry_order
_atom_site_calc_flag
C10 C 0.514(3) 0.149(2) 0.737(3) 0.039(4) Uani 1 1 d
Se11 Se 0.7023(3) 0.2696(3) 0.5202(3) 0.0393(7) Uani 1 1 d
C11 C 0.391(3) 0.145(3) 0.872(2) 0.036(5) Uani 1 1 d
N11 N 0.552(2) 0.270(2) 0.676(2) 0.038(5) Uani 1 1 d
Se12 Se 0.7148(3) 0.0419(3) 0.5374(3) 0.0406(7) Uani 1 1 d
N12 N 0.564(2) 0.035(2) 0.697(2) 0.046(5) Uani 1 1 d
F12 F 0.2875(15) 0.0277(14) 0.8235(16) 0.046(4) Uani 1 1 d
C12 C 0.289(3) 0.077(3) 0.908(3) 0.051(7) Uani 1 1 d
F13 F 0.0737(16) 0.0269(17) 1.0498(17) 0.053(4) Uani 1 1 d
N13 N 0.026(2) 0.153(2) 1.247(2) 0.042(5) Uani 1 1 d
O11 O -0.026(2) 0.261(2) 1.276(2) 0.066(6) Uani 1 1 d
O12 O -0.014(2) 0.045(3) 1.309(2) 0.069(6) Uani 1 1 d
C13 C 0.168(3) 0.082(3) 1.034(3) 0.038(6) Uani 1 1 d
C14 C 0.156(3) 0.148(3) 1.117(3) 0.042(6) Uani 1 1 d
F15 F 0.2483(16) 0.2690(16) 1.1729(16) 0.050(4) Uani 1 1 d
C15 C 0.258(3) 0.205(2) 1.092(3) 0.036(6) Uani 1 1 d
F16 F 0.4728(17) 0.2530(16) 0.9527(16) 0.049(4) Uani 1 1 d
C16 C 0.377(2) 0.205(3) 0.965(3) 0.035(6) Uani 1 1 d
C20 C 0.289(3) 0.337(2) 0.495(2) 0.039(4) Uani 1 1 d
Se21 Se 0.5093(3) 0.4318(3) 0.3071(3) 0.0426(8) Uani 1 1 d
C21 C 0.145(3) 0.355(3) 0.611(3) 0.039(6) Uani 1 1 d
N21 N 0.340(2) 0.451(2) 0.442(2) 0.039(5) Uani 1 1 d
Se22 Se 0.5125(3) 0.2102(3) 0.3227(3) 0.0426(8) Uani 1 1 d
F22 F 0.0506(16) 0.2694(17) 0.5197(15) 0.049(4) Uani 1 1 d
N22 N 0.345(3) 0.223(2) 0.457(2) 0.050(6) Uani 1 1 d
C22 C 0.040(2) 0.311(2) 0.621(2) 0.030(4) Uani 1 1 d
F23 F -0.1812(16) 0.2557(17) 0.7483(17) 0.051(4) Uani 1 1 d
N23 N -0.226(3) 0.339(3) 0.967(3) 0.059(6) Uani 1 1 d
O21 O -0.346(2) 0.395(3) 0.951(2) 0.090(9) Uani 1 1 d
O22 O -0.201(2) 0.287(3) 1.082(2) 0.067(6) Uani 1 1 d
C23 C -0.084(3) 0.307(3) 0.738(3) 0.049(7) Uani 1 1 d
C24 C -0.107(2) 0.355(3) 0.843(2) 0.033(5) Uani 1 1 d
F25 F -0.0158(15) 0.4493(18) 0.9308(15) 0.051(4) Uani 1 1 d
C25 C 0.003(3) 0.396(3) 0.829(3) 0.042(6) Uani 1 1 d
F26 F 0.2194(16) 0.4457(16) 0.7180(16) 0.046(3) Uani 1 1 d
C26 C 0.123(2) 0.404(2) 0.713(2) 0.030(4) Uani 1 1 d
loop_
_atom_site_aniso_label
_atom_site_aniso_U_11
_atom_site_aniso_U_22
_atom_site_aniso_U_33
_atom_site_aniso_U_23
_atom_site_aniso_U_13
_atom_site_aniso_U_12
C10 0.046(10) 0.012(8) 0.030(10) 0.005(7) 0.003(7) -0.011(7)
Se11 0.0381(14) 0.0345(13) 0.0382(15) -0.0152(11) 0.0047(10) -0.0173(11)
C11 0.036(13) 0.040(14) 0.028(13) -0.008(11) -0.002(10) -0.018(11)
N11 0.025(10) 0.035(11) 0.048(13) -0.027(10) 0.010(9) -0.009(8)
Se12 0.0360(14) 0.0279(13) 0.0425(16) -0.0160(11) 0.0052(11) -0.0089(10)
N12 0.052(13) 0.027(11) 0.049(14) -0.011(10) 0.001(10) -0.022(10)
F12 0.045(8) 0.027(7) 0.058(10) -0.027(7) 0.005(7) -0.009(6)
C12 0.058(18) 0.062(19) 0.035(15) -0.009(14) 0.004(13) -0.044(15)
F13 0.049(9) 0.053(10) 0.058(10) -0.022(8) -0.004(7) -0.025(8)
N13 0.027(11) 0.033(12) 0.040(13) -0.014(10) 0.018(9) -0.012(9)
O11 0.058(13) 0.060(14) 0.048(13) -0.025(11) 0.019(10) -0.019(11)
O12 0.075(15) 0.089(17) 0.035(11) -0.021(11) 0.022(10) -0.054(13)
C13 0.035(13) 0.038(13) 0.035(14) -0.009(11) 0.007(10) -0.026(11)
C14 0.054(16) 0.041(15) 0.031(14) -0.008(12) -0.017(12) -0.015(12)
F15 0.055(9) 0.045(9) 0.039(9) -0.018(7) 0.002(7) -0.020(7)
C15 0.038(14) 0.020(11) 0.042(15) -0.007(11) -0.018(11) 0.000(9)
F16 0.057(9) 0.047(9) 0.046(9) -0.014(7) -0.005(7) -0.030(7)
C16 0.025(12) 0.043(14) 0.034(14) -0.025(12) 0.005(10) -0.008(10)
C20 0.046(10) 0.012(8) 0.030(10) 0.005(7) 0.003(7) -0.011(7)
Se21 0.0467(16) 0.0280(13) 0.0400(16) -0.0087(11) 0.0011(11) -0.0167(11)
C21 0.040(14) 0.021(12) 0.048(16) -0.005(11) -0.014(11) -0.009(10)
N21 0.034(11) 0.024(10) 0.046(13) -0.016(9) 0.002(9) -0.005(8)
Se22 0.0417(15) 0.0354(14) 0.0446(16) -0.0209(12) 0.0043(11) -0.0152(11)
F22 0.051(9) 0.064(10) 0.038(8) -0.025(8) -0.005(7) -0.023(7)
N22 0.064(15) 0.045(13) 0.046(14) -0.005(11) -0.014(11) -0.033(12)
C22 0.040(9) 0.006(7) 0.038(10) -0.011(7) -0.009(7) -0.001(6)
F23 0.044(8) 0.054(10) 0.067(11) -0.029(8) -0.016(7) -0.016(7)
N23 0.053(16) 0.064(16) 0.065(19) -0.016(14) -0.015(13) -0.030(13)
O21 0.026(11) 0.16(3) 0.056(15) -0.039(16) -0.001(10) -0.014(13)
O22 0.058(13) 0.091(17) 0.037(12) -0.018(11) -0.002(10) -0.025(12)
C23 0.051(17) 0.034(14) 0.056(19) -0.005(13) -0.018(14) -0.016(12)
C24 0.024(11) 0.036(13) 0.024(12) -0.003(10) 0.003(9) -0.014(10)
F25 0.044(9) 0.072(11) 0.037(9) -0.027(8) 0.006(7) -0.025(8)
C25 0.048(15) 0.026(12) 0.031(14) -0.012(11) -0.013(11) 0.010(11)
F26 0.047(8) 0.044(8) 0.047(9) -0.016(7) -0.011(7) -0.016(7)
C26 0.040(9) 0.006(7) 0.038(10) -0.011(7) -0.009(7) -0.001(6)
loop_
_atom_type_symbol
_atom_type_description
_atom_type_scat_dispersion_real
_atom_type_scat_dispersion_imag
_atom_type_scat_source
C C 0.0033 0.0016 'International Tables Vol C Tables 4.2.6.8 and 6.1.1.4'
N N 0.0061 0.0033 'International Tables Vol C Tables 4.2.6.8 and 6.1.1.4'
O O 0.0106 0.0060 'International Tables Vol C Tables 4.2.6.8 and 6.1.1.4'
F F 0.0171 0.0103 'International Tables Vol C Tables 4.2.6.8 and 6.1.1.4'
Se Se -0.0929 2.2259 'International Tables Vol C Tables 4.2.6.8 and 6.1.1.4'
loop_
_geom_angle_atom_site_label_1
_geom_angle_atom_site_label_2
_geom_angle_atom_site_label_3
_geom_angle
N12 C10 N11 130(2)
N12 C10 C11 116(2)
N11 C10 C11 114(2)
N11 Se11 Se12 91.2(6)
C16 C11 C12 119(2)
C16 C11 C10 121(2)
C12 C11 C10 120(2)
C10 N11 Se11 113.6(16)
N12 Se12 Se11 90.8(6)
C10 N12 Se12 113.8(16)
F12 C12 C11 123(2)
F12 C12 C13 117(2)
C11 C12 C13 119(2)
O11 N13 O12 128(2)
O11 N13 C14 117(2)
O12 N13 C14 116(2)
F13 C13 C14 126(2)
F13 C13 C12 114(2)
C14 C13 C12 119(2)
C13 C14 C15 123(2)
C13 C14 N13 118(2)
C15 C14 N13 119(2)
F15 C15 C14 124(2)
F15 C15 C16 118(2)
C14 C15 C16 118(2)
F16 C16 C11 124(2)
F16 C16 C15 115(2)
C11 C16 C15 121(2)
N22 C20 N21 129(2)
N22 C20 C21 119(2)
N21 C20 C21 112.7(19)
N21 Se21 Se22 91.1(6)
C22 C21 C26 118(2)
C22 C21 C20 121(2)
C26 C21 C20 121(2)
C20 N21 Se21 113.3(15)
N22 Se22 Se21 91.1(7)
C20 N22 Se22 115.8(18)
F22 C22 C21 121(2)
F22 C22 C23 116(2)
C21 C22 C23 122(2)
O21 N23 O22 125(3)
O21 N23 C24 117(3)
O22 N23 C24 118(2)
F23 C23 C24 119(2)
F23 C23 C22 121(3)
C24 C23 C22 120(2)
C25 C24 C23 115(2)
C25 C24 N23 123(2)
C23 C24 N23 121(2)
C24 C25 C26 124(2)
C24 C25 F25 118(2)
C26 C25 F25 117(2)
F26 C26 C21 124(2)
F26 C26 C25 116(2)
C21 C26 C25 119(2)
loop_
_geom_bond_atom_site_label_1
_geom_bond_atom_site_label_2
_geom_bond_distance
C10 N12 1.31(3)
C10 N11 1.34(3)
C10 C11 1.51(3)
Se11 N11 1.794(19)
Se11 Se12 2.341(3)
C11 C16 1.39(3)
C11 C12 1.41(3)
Se12 N12 1.81(2)
F12 C12 1.29(3)
C12 C13 1.45(4)
F13 C13 1.32(3)
N13 O11 1.18(3)
N13 O12 1.22(3)
N13 C14 1.52(3)
C13 C14 1.34(3)
C14 C15 1.37(4)
F15 C15 1.32(3)
C15 C16 1.44(3)
F16 C16 1.28(3)
C20 N22 1.29(3)
C20 N21 1.37(3)
C20 C21 1.53(3)
Se21 N21 1.793(19)
Se21 Se22 2.322(3)
C21 C22 1.36(3)
C21 C26 1.36(3)
Se22 N22 1.77(2)
F22 C22 1.35(3)
C22 C23 1.41(4)
F23 C23 1.34(3)
N23 O21 1.21(3)
N23 O22 1.24(3)
N23 C24 1.43(3)
C23 C24 1.38(4)
C24 C25 1.37(4)
F25 C25 1.40(3)
C25 C26 1.38(4)
F26 C26 1.34(3)
