#------------------------------------------------------------------------------
#$Date: 2019-11-23 12:43:05 +0200 (Sat, 23 Nov 2019) $
#$Revision: 233323 $
#$URL: file:///home/coder/svn-repositories/cod/cif/4/34/87/4348770.cif $
#------------------------------------------------------------------------------
#
# This file is available in the Crystallography Open Database (COD),
# http://www.crystallography.net/
#
# All data on this site have been placed in the public domain by the
# contributors.
#
data_4348770
loop_
_publ_author_name
'Seo, Sujin'
'Ju, Huiyeong'
'Kim, Seulgi'
'Park, In-Hyeok'
'Lee, Eunji'
'Lee, Shim Sung'
_publ_section_title
;
 Group 12 Metal Complexes of an 18-Membered
 N<sub>2</sub>O<sub>2</sub>S<sub>2</sub> Macrocycle Incorporating Two
 Pyridines: First Examples of an Infinite Mercury(I) Complex and a
 Dumbbell-Shaped Heteronuclear Complex with a Macrocyclic Ligand.
;
_journal_issue                   21
_journal_name_full               'Inorganic chemistry'
_journal_page_first              11028
_journal_page_last               11039
_journal_paper_doi               10.1021/acs.inorgchem.6b01583
_journal_volume                  55
_journal_year                    2016
_chemical_formula_moiety         'C18 H22 Br4 Hg2 N2 O2 S2'
_chemical_formula_sum            'C18 H22 Br4 Hg2 N2 O2 S2'
_chemical_formula_weight         1083.32
_space_group_IT_number           2
_space_group_name_Hall           '-P 1'
_space_group_name_H-M_alt        'P -1'
_symmetry_cell_setting           triclinic
_symmetry_space_group_name_Hall  '-P 1'
_symmetry_space_group_name_H-M   'P -1'
_atom_sites_solution_hydrogens   geom
_atom_sites_solution_primary     direct
_atom_sites_solution_secondary   difmap
_audit_creation_method           SHELXL-97
_cell_angle_alpha                73.2490(10)
_cell_angle_beta                 74.2390(10)
_cell_angle_gamma                70.1680(10)
_cell_formula_units_Z            1
_cell_length_a                   7.83550(10)
_cell_length_b                   8.28250(10)
_cell_length_c                   11.0954(2)
_cell_measurement_reflns_used    7734
_cell_measurement_temperature    173(2)
_cell_measurement_theta_max      28.22
_cell_measurement_theta_min      2.68
_cell_volume                     636.421(17)
_computing_cell_refinement       'Bruker SAINT'
_computing_data_collection       'Bruker APEX2'
_computing_data_reduction        'Bruker SAINT'
_computing_molecular_graphics    'Bruker SHELXTL'
_computing_publication_material  'Bruker SHELXTL'
_computing_structure_refinement  'SHELXL-97 (Sheldrick, 2008)'
_computing_structure_solution    'SHELXS-97 (Sheldrick, 2008)'
_diffrn_ambient_temperature      173(2)
_diffrn_measured_fraction_theta_full 0.994
_diffrn_measured_fraction_theta_max 0.994
_diffrn_measurement_device_type  'Bruker APEX-II CCD'
_diffrn_measurement_method       '\f and \w scans'
_diffrn_radiation_monochromator  graphite
_diffrn_radiation_source         'fine-focus sealed tube'
_diffrn_radiation_type           MoK\a
_diffrn_radiation_wavelength     0.71073
_diffrn_reflns_av_R_equivalents  0.0314
_diffrn_reflns_av_sigmaI/netI    0.0291
_diffrn_reflns_limit_h_max       10
_diffrn_reflns_limit_h_min       -10
_diffrn_reflns_limit_k_max       10
_diffrn_reflns_limit_k_min       -10
_diffrn_reflns_limit_l_max       14
_diffrn_reflns_limit_l_min       -14
_diffrn_reflns_number            11401
_diffrn_reflns_theta_full        28.00
_diffrn_reflns_theta_max         28.00
_diffrn_reflns_theta_min         1.95
_exptl_absorpt_coefficient_mu    18.508
_exptl_absorpt_correction_T_max  0.3574
_exptl_absorpt_correction_T_min  0.1557
_exptl_absorpt_correction_type   multi-scan
_exptl_absorpt_process_details   SADABS
_exptl_crystal_colour            colourless
_exptl_crystal_density_diffrn    2.827
_exptl_crystal_density_method    'not measured'
_exptl_crystal_description       Block
_exptl_crystal_F_000             492
_exptl_crystal_size_max          0.16
_exptl_crystal_size_mid          0.10
_exptl_crystal_size_min          0.07
_refine_diff_density_max         1.743
_refine_diff_density_min         -1.909
_refine_diff_density_rms         0.170
_refine_ls_extinction_method     none
_refine_ls_goodness_of_fit_ref   1.098
_refine_ls_hydrogen_treatment    constr
_refine_ls_matrix_type           full
_refine_ls_number_parameters     155
_refine_ls_number_reflns         3065
_refine_ls_number_restraints     0
_refine_ls_restrained_S_all      1.098
_refine_ls_R_factor_all          0.0316
_refine_ls_R_factor_gt           0.0285
_refine_ls_shift/su_max          0.000
_refine_ls_shift/su_mean         0.000
_refine_ls_structure_factor_coef Fsqd
_refine_ls_weighting_details
'calc w=1/[\s^2^(Fo^2^)+(0.0161P)^2^+3.5829P] where P=(Fo^2^+2Fc^2^)/3'
_refine_ls_weighting_scheme      calc
_refine_ls_wR_factor_gt          0.0602
_refine_ls_wR_factor_ref         0.0612
_reflns_number_gt                2869
_reflns_number_total             3065
_reflns_threshold_expression     >2sigma(I)
_iucr_refine_instructions_details
;
TITL 3 in P-1
CELL 0.71073 7.8355 8.2825 11.0954 73.249 74.239 70.168
ZERR 1.00 0.0001 0.0001 0.0002 0.001 0.001 0.001
LATT 1
SFAC C H Br Hg N O S
UNIT 18 22 4 2 2 2 2
SIZE 0.070 0.100 0.160
TEMP -100.000
acta
omit -4 56
free c5 o2
free c5 s1
free c8 o1
free c8 s2
exyz O1 S1
eadp O1 S1
exyz O2 S2
eadp O2 S2
bind hg1 s1
bind hg1 o1
L.S. 4
BOND
FMAP 2
PLAN 20
WGHT 0.016100 3.582900
FVAR 0.13472 0.53514
HG1 4 -0.206904 0.324551 0.230714 11.00000 0.02552 0.03088 =
0.02329 0.00309 -0.00847 -0.01475
BR1 3 -0.361529 0.194680 0.454058 11.00000 0.03064 0.03307 =
0.02575 0.00131 -0.00058 -0.01164
BR2 3 -0.230347 0.230071 0.040938 11.00000 0.07690 0.03957 =
0.04380 -0.00495 -0.03503 -0.02447
N1 5 -0.061950 0.499506 0.278714 11.00000 0.02375 0.03365 =
0.02154 0.00645 -0.00821 -0.00918
PART 1
O1 6 0.156115 0.145483 0.226451 10.50000 0.02401 0.02981 =
0.02130 -0.00432 -0.00591 -0.00551
S2 7 0.387609 0.327111 -0.140720 10.50000 0.03476 0.03212 =
0.01907 -0.00015 -0.00584 -0.00732
PART 2
O2 6 0.387609 0.327111 -0.140720 10.50000 0.03476 0.03212 =
0.01907 -0.00015 -0.00584 -0.00732
S1 7 0.156115 0.145483 0.226451 10.50000 0.02401 0.02981 =
0.02130 -0.00432 -0.00591 -0.00551
PART 0
C1 1 -0.064531 0.772443 0.306359 11.00000 0.05911 0.03889 =
0.03800 -0.01361 -0.01973 0.00252
AFIX 43
H1A 2 -0.126250 0.893659 0.303188 11.00000 -1.20000
AFIX 0
C2 1 0.104659 0.698695 0.343290 11.00000 0.05874 0.04044 =
0.04284 -0.00082 -0.01980 -0.01690
AFIX 43
H2A 2 0.162310 0.768418 0.364197 11.00000 -1.20000
AFIX 0
C3 1 0.188273 0.522032 0.349238 11.00000 0.03174 0.03606 =
0.05514 0.00638 -0.02320 -0.01088
AFIX 43
H3A 2 0.303900 0.467328 0.375798 11.00000 -1.20000
AFIX 0
C4 1 0.101917 0.424955 0.316062 11.00000 0.02914 0.02832 =
0.04229 0.01153 -0.01666 -0.01181
C5 1 0.187989 0.230706 0.327142 11.00000 0.06089 0.03351 =
0.10530 0.02057 -0.06405 -0.01727
AFIX 23
H5A 2 0.139987 0.170198 0.414384 11.00000 -1.20000
H5B 2 0.322894 0.205979 0.319241 11.00000 -1.20000
AFIX 0
PART 1
C6 1 0.274490 0.140241 0.098045 21.00000 0.02060 0.01783 =
0.03045 -0.00197 -0.00881 0.00057
AFIX 23
H6A 2 0.248965 0.058211 0.060206 21.00000 -1.20000
H6B 2 0.406072 0.096063 0.106101 21.00000 -1.20000
AFIX 0
C7 1 0.238772 0.323674 0.009188 21.00000 0.02191 0.02303 =
0.01661 -0.00101 -0.00644 -0.00386
AFIX 23
H7A 2 0.254514 0.407208 0.050803 21.00000 -1.20000
H7B 2 0.109310 0.363632 -0.003334 21.00000 -1.20000
AFIX 0
PART 2
C6' 1 0.275405 0.274589 0.087372 -21.00000 0.01545 0.03265 =
0.03127 -0.01078 0.00237 -0.01092
AFIX 23
H6'A 2 0.214773 0.401773 0.082598 -21.00000 -1.20000
H6'B 2 0.405853 0.249074 0.093997 -21.00000 -1.20000
AFIX 0
C7' 1 0.266138 0.225342 -0.026865 -21.00000 0.04221 0.03333 =
0.02842 -0.00625 -0.00249 -0.01699
AFIX 23
H7'A 2 0.136966 0.261843 -0.039448 -21.00000 -1.20000
H7'B 2 0.317115 0.096752 -0.019743 -21.00000 -1.20000
AFIX 0
PART 0
C8 1 0.330737 0.248925 -0.236836 11.00000 0.04949 0.09984 =
0.05663 -0.04874 -0.03321 0.03625
AFIX 23
H8A 2 0.424794 0.253891 -0.317051 11.00000 -1.20000
H8B 2 0.342079 0.123047 -0.197834 11.00000 -1.20000
AFIX 0
C9 1 -0.142979 0.670082 0.274321 11.00000 0.03459 0.04358 =
0.01907 -0.00947 -0.00934 0.00559
HKLF 4
REM  3 in P-1
REM R1 = 0.0285 for 2869 Fo > 4sig(Fo) and 0.0316 for all 3065 data
REM 155 parameters refined using 0 restraints
END  
;
_cod_data_source_file            ic6b01583_si_002.cif
_cod_data_source_block           3
_cod_depositor_comments
;
The following automatic conversions were performed:

data item '_symmetry_cell_setting' value 'Triclinic' was changed to
'triclinic' in accordance with the
/home/saulius/struct/COD-crude-data/automatic-downloads/DataCite-retrospective/ACS/depositions/lib/dictionaries/cif_core.dic
dictionary named 'cif_core.dic' version 2.4.2 last updated on
2011-04-26.

Automatic conversion script
Id: cif_fix_values 6909 2019-04-08 15:41:33Z antanas 
;
_cod_original_cell_volume        636.421(16)
_cod_original_sg_symbol_H-M      P-1
_cod_database_code               4348770
loop_
_symmetry_equiv_pos_as_xyz
'x, y, z'
'-x, -y, -z'
loop_
_atom_site_label
_atom_site_type_symbol
_atom_site_fract_x
_atom_site_fract_y
_atom_site_fract_z
_atom_site_U_iso_or_equiv
_atom_site_adp_type
_atom_site_occupancy
_atom_site_symmetry_multiplicity
_atom_site_calc_flag
_atom_site_refinement_flags
_atom_site_disorder_assembly
_atom_site_disorder_group
Hg1 Hg -0.20690(3) 0.32455(3) 0.230714(19) 0.02596(7) Uani 1 1 d . . .
Br1 Br -0.36153(8) 0.19468(8) 0.45406(5) 0.03185(13) Uani 1 1 d . A .
Br2 Br -0.23035(11) 0.23007(9) 0.04094(7) 0.04732(18) Uani 1 1 d . A .
N1 N -0.0620(6) 0.4995(6) 0.2787(4) 0.0280(10) Uani 1 1 d . A .
O1 O 0.1561(3) 0.1455(3) 0.22645(18) 0.0256(4) Uani 0.50 1 d P A 1
S2 S 0.3876(3) 0.3271(3) -0.14072(19) 0.0303(4) Uani 0.50 1 d P . 1
O2 O 0.3876(3) 0.3271(3) -0.14072(19) 0.0303(4) Uani 0.50 1 d P A 2
S1 S 0.1561(3) 0.1455(3) 0.22645(18) 0.0256(4) Uani 0.50 1 d P A 2
C1 C -0.0645(11) 0.7724(9) 0.3064(7) 0.0464(17) Uani 1 1 d . A .
H1A H -0.1263 0.8937 0.3032 0.056 Uiso 1 1 calc R . .
C2 C 0.1047(11) 0.6987(9) 0.3433(7) 0.0463(17) Uani 1 1 d . . .
H2A H 0.1623 0.7684 0.3642 0.056 Uiso 1 1 calc R . .
C3 C 0.1883(9) 0.5220(8) 0.3492(7) 0.0412(16) Uani 1 1 d . A .
H3A H 0.3039 0.4673 0.3758 0.049 Uiso 1 1 calc R . .
C4 C 0.1019(8) 0.4250(8) 0.3161(6) 0.0345(14) Uani 1 1 d . . .
C5 C 0.1880(11) 0.2307(9) 0.3271(9) 0.063(3) Uani 1 1 d . A .
H5A H 0.1400 0.1702 0.4144 0.076 Uiso 1 1 calc R B 1
H5B H 0.3229 0.2060 0.3192 0.076 Uiso 1 1 calc R B 1
C6 C 0.2745(14) 0.1402(13) 0.0980(10) 0.024(3) Uani 0.535(15) 1 d P A 1
H6A H 0.2490 0.0582 0.0602 0.029 Uiso 0.535(15) 1 calc PR A 1
H6B H 0.4061 0.0961 0.1061 0.029 Uiso 0.535(15) 1 calc PR A 1
C7 C 0.2388(14) 0.3237(14) 0.0092(10) 0.021(3) Uani 0.535(15) 1 d P A 1
H7A H 0.2545 0.4072 0.0508 0.026 Uiso 0.535(15) 1 calc PR A 1
H7B H 0.1093 0.3636 -0.0033 0.026 Uiso 0.535(15) 1 calc PR A 1
C6' C 0.2754(16) 0.2746(17) 0.0874(13) 0.026(3) Uani 0.465(15) 1 d P A 2
H6'A H 0.2148 0.4018 0.0826 0.031 Uiso 0.465(15) 1 calc PR A 2
H6'B H 0.4059 0.2491 0.0940 0.031 Uiso 0.465(15) 1 calc PR A 2
C7' C 0.266(2) 0.225(2) -0.0269(13) 0.034(4) Uani 0.465(15) 1 d P A 2
H7'A H 0.1370 0.2618 -0.0394 0.041 Uiso 0.465(15) 1 calc PR A 2
H7'B H 0.3171 0.0968 -0.0197 0.041 Uiso 0.465(15) 1 calc PR A 2
C8 C 0.3307(11) 0.2489(13) -0.2368(8) 0.072(3) Uani 1 1 d . . .
H8A H 0.4248 0.2539 -0.3171 0.087 Uiso 1 1 calc R A 2
H8B H 0.3421 0.1230 -0.1978 0.087 Uiso 1 1 calc R A 2
C9 C -0.1430(9) 0.6701(8) 0.2743(5) 0.0354(14) Uani 1 1 d . . .
loop_
_atom_site_aniso_label
_atom_site_aniso_U_11
_atom_site_aniso_U_22
_atom_site_aniso_U_33
_atom_site_aniso_U_23
_atom_site_aniso_U_13
_atom_site_aniso_U_12
Hg1 0.02552(11) 0.03088(12) 0.02329(11) 0.00309(8) -0.00847(8) -0.01475(8)
Br1 0.0306(3) 0.0331(3) 0.0258(3) 0.0013(2) -0.0006(2) -0.0116(2)
Br2 0.0769(5) 0.0396(4) 0.0438(4) -0.0049(3) -0.0350(4) -0.0245(3)
N1 0.024(2) 0.034(3) 0.022(2) 0.0064(18) -0.0082(18) -0.009(2)
O1 0.0240(10) 0.0298(10) 0.0213(9) -0.0043(8) -0.0059(8) -0.0055(8)
S2 0.0348(11) 0.0321(11) 0.0191(9) -0.0001(8) -0.0058(8) -0.0073(9)
O2 0.0348(11) 0.0321(11) 0.0191(9) -0.0001(8) -0.0058(8) -0.0073(9)
S1 0.0240(10) 0.0298(10) 0.0213(9) -0.0043(8) -0.0059(8) -0.0055(8)
C1 0.059(5) 0.039(4) 0.038(4) -0.014(3) -0.020(3) 0.003(3)
C2 0.059(5) 0.040(4) 0.043(4) -0.001(3) -0.020(3) -0.017(3)
C3 0.032(3) 0.036(3) 0.055(4) 0.006(3) -0.023(3) -0.011(3)
C4 0.029(3) 0.028(3) 0.042(3) 0.012(2) -0.017(3) -0.012(2)
C5 0.061(5) 0.034(4) 0.105(7) 0.021(4) -0.064(5) -0.017(3)
C6 0.021(5) 0.018(5) 0.030(5) -0.002(4) -0.009(4) 0.001(4)
C7 0.022(5) 0.023(6) 0.017(5) -0.001(4) -0.006(4) -0.004(4)
C6' 0.015(5) 0.033(8) 0.031(8) -0.011(6) 0.002(5) -0.011(5)
C7' 0.042(8) 0.033(8) 0.028(7) -0.006(6) -0.002(6) -0.017(6)
C8 0.049(5) 0.100(7) 0.057(5) -0.049(5) -0.033(4) 0.036(5)
C9 0.035(3) 0.044(4) 0.019(3) -0.009(2) -0.009(2) 0.006(3)
loop_
_atom_type_symbol
_atom_type_description
_atom_type_scat_dispersion_real
_atom_type_scat_dispersion_imag
_atom_type_scat_source
C C 0.0033 0.0016 'International Tables Vol C Tables 4.2.6.8 and 6.1.1.4'
H H 0.0000 0.0000 'International Tables Vol C Tables 4.2.6.8 and 6.1.1.4'
Br Br -0.2901 2.4595 'International Tables Vol C Tables 4.2.6.8 and 6.1.1.4'
Hg Hg -2.3894 9.2266 'International Tables Vol C Tables 4.2.6.8 and 6.1.1.4'
N N 0.0061 0.0033 'International Tables Vol C Tables 4.2.6.8 and 6.1.1.4'
O O 0.0106 0.0060 'International Tables Vol C Tables 4.2.6.8 and 6.1.1.4'
S S 0.1246 0.1234 'International Tables Vol C Tables 4.2.6.8 and 6.1.1.4'
loop_
_geom_angle_atom_site_label_1
_geom_angle_atom_site_label_2
_geom_angle_atom_site_label_3
_geom_angle
_geom_angle_site_symmetry_3
N1 Hg1 Br2 139.74(11) .
N1 Hg1 Br1 101.20(11) .
Br2 Hg1 Br1 118.94(2) .
N1 Hg1 O1 71.53(12) .
Br2 Hg1 O1 95.35(5) .
Br1 Hg1 O1 102.60(4) .
N1 Hg1 S2 72.44(12) 2_565
Br2 Hg1 S2 93.00(5) 2_565
Br1 Hg1 S2 113.29(5) 2_565
O1 Hg1 S2 132.94(6) 2_565
C9 N1 C4 119.1(5) .
C9 N1 Hg1 121.1(4) .
C4 N1 Hg1 119.7(4) .
C6 O1 C5 123.3(5) .
C6 O1 Hg1 116.0(4) .
C5 O1 Hg1 97.1(3) .
C7 S2 Hg1 91.8(4) 2_565
C9 C1 C2 119.6(6) .
C3 C2 C1 118.6(7) .
C2 C3 C4 119.2(6) .
N1 C4 C3 121.4(6) .
N1 C4 C5 118.8(5) .
C3 C4 C5 119.7(5) .
C4 C5 O1 117.0(5) .
O1 C6 C7 110.9(8) .
C6 C7 S2 112.6(8) .
N1 C9 C1 122.1(6) .
N1 C9 C8 118.6(6) 2_565
C1 C9 C8 119.3(6) 2_565
loop_
_geom_bond_atom_site_label_1
_geom_bond_atom_site_label_2
_geom_bond_distance
_geom_bond_site_symmetry_2
Hg1 N1 2.359(5) .
Hg1 Br2 2.5174(6) .
Hg1 Br1 2.5461(6) .
Hg1 O1 2.720(2) .
Hg1 S2 2.768(2) 2_565
N1 C9 1.330(8) .
N1 C4 1.344(7) .
O1 C6 1.477(10) .
O1 C5 1.592(9) .
S2 C7 1.752(10) .
S2 Hg1 2.768(2) 2_565
C1 C9 1.367(10) .
C1 C2 1.378(10) .
C2 C3 1.375(9) .
C3 C4 1.384(9) .
C4 C5 1.501(9) .
C6 C7 1.535(14) .
C6' C7' 1.465(19) .
C8 C9 1.513(9) 2_565
C9 C8 1.513(9) 2_565
loop_
_refln_index_h
_refln_index_k
_refln_index_l
_refln_F_squared_calc
_refln_F_squared_meas
_refln_F_squared_sigma
_refln_observed_status
1 0 0 2242.95 2218.72 31.57 o
2 0 0 42412.89 39358.61 488.22 o
3 0 0 5553.00 5474.98 64.79 o
4 0 0 151.40 176.37 11.63 o
5 0 0 12214.65 11950.12 153.47 o
6 0 0 35.97 57.41 8.82 o
7 0 0 6495.41 6297.81 189.08 o
8 0 0 93.59 136.68 31.19 o
9 0 0 346.66 367.84 46.40 o
-9 1 0 17.06 45.70 33.84 o
-8 1 0 4235.63 4276.44 147.05 o
-7 1 0 190.65 162.72 29.14 o
-6 1 0 5907.92 5745.94 132.79 o
-5 1 0 1810.27 1751.40 39.74 o
-4 1 0 2212.95 2436.30 40.66 o
-3 1 0 17734.79 17702.69 229.28 o
-2 1 0 117.25 194.14 8.54 o
-1 1 0 38012.23 34520.71 572.77 o
0 1 0 4861.50 4723.41 50.73 o
1 1 0 13540.08 13425.58 175.91 o
2 1 0 3265.30 3338.72 44.88 o
3 1 0 2650.64 2820.70 36.88 o
4 1 0 12018.77 11730.77 152.33 o
5 1 0 431.89 390.59 11.38 o
6 1 0 12334.92 12372.41 293.38 o
7 1 0 1273.64 1233.98 58.65 o
8 1 0 1806.79 1842.04 81.18 o
9 1 0 870.05 916.03 64.20 o
-8 2 0 254.60 197.10 37.58 o
-7 2 0 3855.44 3520.15 128.94 o
-6 2 0 536.50 521.90 30.71 o
-5 2 0 1296.73 1291.89 41.26 o
-4 2 0 6210.08 6407.60 82.28 o
-3 2 0 1886.99 1935.39 30.90 o
-2 2 0 44305.65 44010.63 542.90 o
-1 2 0 5582.36 5863.21 80.33 o
0 2 0 50858.30 45501.86 594.85 o
1 2 0 4011.07 4037.38 56.31 o
2 2 0 843.42 960.15 16.66 o
3 2 0 13896.47 13306.25 159.74 o
4 2 0 4328.09 4191.64 58.09 o
5 2 0 11588.47 11493.92 162.64 o
6 2 0 1642.00 1655.53 78.74 o
7 2 0 709.90 750.17 40.64 o
8 2 0 490.98 554.41 45.66 o
9 2 0 312.28 206.86 37.54 o
-8 3 0 744.09 823.17 84.30 o
-7 3 0 849.63 671.40 39.18 o
-6 3 0 65.96 60.01 18.70 o
-5 3 0 2488.42 2358.58 67.91 o
-4 3 0 873.67 934.02 34.55 o
-3 3 0 8675.11 8608.26 110.97 o
-2 3 0 3031.52 3289.25 46.60 o
-1 3 0 10206.66 10041.09 118.41 o
0 3 0 2331.17 2401.91 33.28 o
1 3 0 2138.12 2089.31 27.94 o
2 3 0 6741.20 6905.90 88.77 o
3 3 0 4698.89 4928.91 58.48 o
4 3 0 7457.81 7235.25 88.98 o
5 3 0 5857.81 5510.92 82.26 o
6 3 0 1836.39 1749.21 76.06 o
7 3 0 1169.88 1161.78 68.56 o
8 3 0 261.04 241.85 26.48 o
9 3 0 775.85 875.41 46.13 o
-7 4 0 312.11 317.94 64.19 o
-6 4 0 580.65 559.43 43.06 o
-5 4 0 1259.90 1209.18 62.28 o
-4 4 0 3241.11 3338.42 119.45 o
-3 4 0 5428.86 5586.10 94.63 o
-2 4 0 7811.76 7897.91 109.57 o
-1 4 0 2011.99 2039.85 38.08 o
0 4 0 264.19 324.69 12.66 o
1 4 0 1926.71 2062.96 30.60 o
2 4 0 11384.79 11169.61 138.55 o
3 4 0 2152.00 1948.61 26.62 o
4 4 0 4360.51 4414.91 57.81 o
5 4 0 598.42 644.10 17.97 o
6 4 0 479.68 498.31 24.55 o
7 4 0 956.67 964.84 44.15 o
8 4 0 553.32 573.03 39.27 o
9 4 0 2961.51 2810.29 106.34 o
-7 5 0 224.53 222.36 70.80 o
-6 5 0 643.81 683.41 52.31 o
-5 5 0 335.18 440.64 41.64 o
-4 5 0 1655.18 1596.34 78.80 o
-3 5 0 960.65 1014.81 35.32 o
-2 5 0 1574.45 1614.75 44.71 o
-1 5 0 72.24 125.40 11.59 o
0 5 0 599.68 678.24 19.53 o
1 5 0 4259.97 4379.65 62.04 o
2 5 0 167.53 144.53 9.09 o
3 5 0 8246.84 8335.44 107.72 o
4 5 0 95.14 96.54 10.28 o
5 5 0 2186.86 2190.13 49.17 o
6 5 0 1565.96 1493.35 56.70 o
7 5 0 2.99 33.20 22.04 o
8 5 0 5245.48 5101.07 273.01 o
9 5 0 151.42 118.64 29.27 o
-6 6 0 59.65 72.73 41.32 o
-5 6 0 2203.54 2300.32 94.87 o
-4 6 0 143.66 197.43 34.47 o
-3 6 0 1287.84 1354.20 55.63 o
-2 6 0 91.85 175.47 17.87 o
-1 6 0 76.93 156.72 14.53 o
0 6 0 5723.35 6111.23 89.60 o
1 6 0 624.19 674.32 19.77 o
2 6 0 6945.19 6738.64 104.61 o
3 6 0 582.61 644.89 22.81 o
4 6 0 337.16 373.00 37.14 o
5 6 0 2719.76 2733.30 61.81 o
6 6 0 301.73 327.25 21.49 o
7 6 0 4997.74 5141.88 148.79 o
8 6 0 307.61 304.42 34.29 o
9 6 0 1953.90 1916.81 211.85 o
-5 7 0 59.16 70.53 44.08 o
-4 7 0 359.54 360.90 60.06 o
-3 7 0 135.79 166.40 47.94 o
-2 7 0 0.85 47.09 25.52 o
-1 7 0 1816.36 1907.85 80.05 o
0 7 0 1251.44 1328.47 41.22 o
1 7 0 4362.34 4371.22 87.49 o
2 7 0 1877.78 2006.80 49.50 o
3 7 0 1118.13 1099.83 33.50 o
4 7 0 2721.76 2798.00 66.98 o
5 7 0 1168.65 1186.57 57.42 o
6 7 0 4387.27 4327.84 136.75 o
7 7 0 2754.59 2850.50 99.34 o
8 7 0 2193.55 2258.40 134.72 o
-4 8 0 127.33 106.89 50.69 o
-3 8 0 118.16 104.14 48.49 o
-2 8 0 1020.57 1093.31 83.47 o
-1 8 0 1729.28 1804.00 111.85 o
0 8 0 2017.36 2132.80 104.14 o
1 8 0 1770.34 1783.02 66.33 o
2 8 0 121.80 123.75 18.77 o
3 8 0 2163.32 2062.38 51.01 o
4 8 0 1687.30 1832.37 52.19 o
5 8 0 2785.49 2782.49 70.41 o
6 8 0 2148.82 2204.82 59.57 o
7 8 0 1677.01 1702.13 77.35 o
8 8 0 1128.82 1262.39 70.41 o
-2 9 0 759.11 679.31 60.87 o
-1 9 0 774.73 841.04 77.96 o
0 9 0 2061.49 2048.89 93.56 o
1 9 0 317.43 266.46 41.72 o
2 9 0 1808.80 1623.20 121.77 o
3 9 0 863.00 926.25 37.13 o
4 9 0 1490.39 1583.90 52.08 o
5 9 0 3890.19 3820.37 88.11 o
6 9 0 1033.40 1089.38 48.26 o
7 9 0 2324.34 2309.33 95.20 o
0 10 0 23.64 73.12 37.41 o
1 10 0 499.78 434.18 78.79 o
2 10 0 606.26 697.00 89.81 o
3 10 0 643.50 584.99 59.94 o
4 10 0 2172.48 2028.18 138.30 o
5 10 0 436.57 379.53 36.52 o
-4 -10 1 478.61 455.87 45.24 o
-3 -10 1 2367.95 2616.08 158.68 o
-2 -10 1 557.16 548.23 82.10 o
-1 -10 1 610.34 688.73 95.32 o
-6 -9 1 1155.44 1224.51 59.18 o
-5 -9 1 621.02 630.98 34.82 o
-4 -9 1 2025.75 2081.71 60.50 o
-3 -9 1 1242.98 1302.12 47.88 o
-2 -9 1 1015.60 1133.41 73.56 o
-1 -9 1 754.30 829.23 94.77 o
0 -9 1 4.08 70.53 48.49 o
1 -9 1 417.29 386.70 50.32 o
2 -9 1 524.97 506.72 56.07 o
-7 -8 1 1141.37 1198.06 105.51 o
-6 -8 1 2064.00 2134.23 72.37 o
-5 -8 1 2085.95 2157.75 52.62 o
-4 -8 1 4140.35 4032.64 87.74 o
-3 -8 1 603.43 709.16 34.57 o
-2 -8 1 448.02 465.63 29.56 o
-1 -8 1 388.43 357.67 29.41 o
0 -8 1 30.23 24.92 22.64 o
1 -8 1 1552.76 1546.42 79.27 o
2 -8 1 201.84 180.24 37.97 o
3 -8 1 634.72 658.93 58.43 o
-8 -7 1 469.19 459.65 42.98 o
-7 -7 1 1983.08 2053.53 89.54 o
-6 -7 1 276.89 293.13 27.80 o
-5 -7 1 3749.79 3684.87 79.66 o
-4 -7 1 27.98 63.67 13.45 o
-3 -7 1 716.16 784.45 32.31 o
-2 -7 1 114.49 131.53 17.29 o
-1 -7 1 24.06 55.44 14.64 o
0 -7 1 2557.35 2621.89 62.01 o
1 -7 1 2.35 6.74 20.34 o
2 -7 1 2621.56 2755.31 222.87 o
3 -7 1 83.94 171.02 34.26 o
4 -7 1 81.88 94.22 49.59 o
5 -7 1 355.92 323.43 63.91 o
-9 -6 1 272.38 246.64 35.38 o
-8 -6 1 2595.23 2853.04 99.66 o
-7 -6 1 0.26 4.54 18.91 o
-6 -6 1 6098.39 6332.66 164.59 o
-5 -6 1 4.60 32.55 14.00 o
-4 -6 1 749.51 852.64 39.69 o
-3 -6 1 595.64 573.30 28.18 o
-2 -6 1 917.15 889.44 31.51 o
-1 -6 1 5521.52 5599.82 96.27 o
0 -6 1 950.27 1007.99 30.88 o
1 -6 1 2642.88 2822.88 54.77 o
2 -6 1 391.78 445.82 31.70 o
3 -6 1 7.40 46.99 20.97 o
4 -6 1 1018.75 1107.48 89.81 o
5 -6 1 155.63 177.97 48.49 o
6 -6 1 1014.08 1022.08 94.77 o
-9 -5 1 1410.85 1469.14 72.73 o
-8 -5 1 241.58 256.64 29.52 o
-7 -5 1 3496.49 3435.65 195.60 o
-6 -5 1 640.76 669.72 35.72 o
-5 -5 1 1531.15 1451.42 44.37 o
-4 -5 1 1601.17 1546.77 33.29 o
-3 -5 1 783.50 774.23 23.36 o
-2 -5 1 6725.42 6796.19 81.53 o
-1 -5 1 7167.63 7005.82 97.17 o
0 -5 1 6867.94 7144.78 100.36 o
1 -5 1 4355.79 4605.08 67.28 o
2 -5 1 156.52 217.80 15.35 o
3 -5 1 1598.66 1797.01 49.57 o
4 -5 1 1647.66 1782.54 64.44 o
5 -5 1 1981.20 1891.56 99.18 o
6 -5 1 1508.09 1591.31 77.07 o
7 -5 1 611.94 566.96 67.22 o
-9 -4 1 720.33 916.69 52.04 o
-8 -4 1 3656.61 3738.81 113.09 o
-7 -4 1 1636.06 1669.22 84.85 o
-6 -4 1 1094.58 980.39 50.87 o
-5 -4 1 1877.01 1882.49 46.67 o
-4 -4 1 4781.13 4785.97 65.77 o
-3 -4 1 7553.29 7590.50 95.83 o
-2 -4 1 17260.45 16888.39 183.76 o
-1 -4 1 4456.64 4362.76 58.62 o
0 -4 1 4677.69 4595.15 63.56 o
1 -4 1 24.86 26.31 6.67 o
2 -4 1 3628.86 3748.77 59.65 o
3 -4 1 2897.60 2959.25 53.33 o
4 -4 1 6069.17 6251.83 119.44 o
5 -4 1 3745.21 3742.46 101.00 o
6 -4 1 986.42 943.73 49.05 o
7 -4 1 1035.43 982.72 61.58 o
-9 -3 1 1257.04 1349.95 75.34 o
-8 -3 1 1945.83 1899.25 142.71 o
-7 -3 1 1068.69 1035.23 65.93 o
-6 -3 1 3317.67 3329.97 107.69 o
-5 -3 1 1504.76 1640.40 39.64 o
-4 -3 1 6355.70 6187.62 101.72 o
-3 -3 1 26358.65 26936.89 320.85 o
-2 -3 1 5940.72 5897.99 70.20 o
-1 -3 1 30228.64 29506.10 337.10 o
0 -3 1 1074.38 1127.19 18.31 o
1 -3 1 13280.35 14123.24 174.19 o
2 -3 1 12678.17 12869.03 170.70 o
3 -3 1 3556.81 3702.99 57.84 o
4 -3 1 19318.57 19442.71 324.64 o
5 -3 1 485.34 512.63 32.58 o
6 -3 1 2680.04 2557.84 76.98 o
7 -3 1 37.82 60.86 22.12 o
8 -3 1 118.47 127.11 29.32 o
-9 -2 1 2572.64 2753.10 161.44 o
-8 -2 1 234.52 307.62 36.38 o
-7 -2 1 2203.76 2270.26 104.49 o
-6 -2 1 4652.57 4455.36 161.72 o
-5 -2 1 1892.60 1888.89 43.46 o
-4 -2 1 32322.16 31475.91 533.87 o
-3 -2 1 2260.38 2061.11 33.46 o
-2 -2 1 27546.63 27014.96 320.32 o
-1 -2 1 537.36 607.60 12.63 o
0 -2 1 8742.86 8749.21 91.70 o
1 -2 1 19115.15 20109.07 226.55 o
2 -2 1 6380.86 6830.57 90.84 o
3 -2 1 19389.56 20022.61 242.53 o
4 -2 1 2275.48 2478.69 39.94 o
5 -2 1 5723.89 5568.97 120.73 o
6 -2 1 74.10 126.31 20.83 o
7 -2 1 976.39 984.31 46.42 o
8 -2 1 1774.10 1739.14 62.38 o
-9 -1 1 39.65 39.14 29.46 o
-8 -1 1 1537.12 1560.56 73.13 o
-7 -1 1 694.66 661.45 44.03 o
-6 -1 1 1092.95 1165.22 45.49 o
-5 -1 1 15737.88 15732.65 276.45 o
-4 -1 1 299.66 287.78 13.23 o
-3 -1 1 38837.05 37250.08 643.72 o
-2 -1 1 171.30 181.89 7.72 o
-1 -1 1 16439.90 16016.39 237.70 o
0 -1 1 17908.89 17631.10 212.62 o
1 -1 1 202.87 235.79 10.10 o
2 -1 1 57935.20 52264.90 659.68 o
3 -1 1 90.44 141.89 9.82 o
4 -1 1 17635.77 17807.90 232.18 o
5 -1 1 303.86 370.65 22.49 o
6 -1 1 424.88 482.09 29.58 o
7 -1 1 2813.65 2965.35 82.97 o
8 -1 1 136.53 138.39 21.33 o
9 -1 1 1636.28 1851.81 93.68 o
-9 0 1 632.40 687.42 69.98 o
-8 0 1 1190.11 978.73 61.04 o
-7 0 1 7.97 21.73 19.77 o
-6 0 1 12401.58 12168.16 333.59 o
-5 0 1 58.38 97.00 9.68 o
-4 0 1 19238.04 18639.86 289.07 o
-3 0 1 160.93 221.94 13.32 o
-2 0 1 7032.68 6802.70 119.53 o
-1 0 1 17368.72 15743.78 380.95 o
0 0 1 853.28 839.73 15.77 o
1 0 1 32333.39 30590.42 371.24 o
2 0 1 3067.30 3445.60 44.28 o
3 0 1 14104.06 14494.52 175.55 o
4 0 1 52.25 60.39 6.45 o
5 0 1 1614.63 1707.70 25.56 o
6 0 1 4236.10 4312.29 96.57 o
7 0 1 452.77 509.18 31.46 o
8 0 1 2844.51 3009.38 113.04 o
9 0 1 498.49 504.01 51.26 o
-9 1 1 217.30 161.85 42.15 o
-8 1 1 42.40 79.29 30.65 o
-7 1 1 3094.84 2895.34 104.32 o
-6 1 1 411.08 349.07 36.37 o
-5 1 1 12751.56 12545.80 438.34 o
-4 1 1 1431.27 1414.67 22.29 o
-3 1 1 9519.53 9233.69 113.28 o
-2 1 1 6732.79 6824.04 74.88 o
-1 1 1 2220.48 2347.74 27.11 o
0 1 1 24818.85 21655.43 466.53 o
1 1 1 5421.83 5808.37 69.14 o
2 1 1 35836.86 32840.48 456.95 o
3 1 1 1393.44 1401.86 22.55 o
4 1 1 1047.52 1242.13 22.13 o
5 1 1 3459.77 3393.18 42.08 o
6 1 1 2821.00 2662.81 64.52 o
7 1 1 3739.42 3850.91 96.42 o
8 1 1 787.39 780.16 98.08 o
9 1 1 749.55 813.16 73.01 o
-8 2 1 1615.58 1391.24 98.63 o
-7 2 1 1066.47 1035.92 60.36 o
-6 2 1 3633.86 3412.57 114.03 o
-5 2 1 463.04 415.14 24.43 o
-4 2 1 1154.56 1194.02 27.28 o
-3 2 1 1887.02 1981.77 45.35 o
-2 2 1 731.28 648.22 13.15 o
-1 2 1 15430.82 14940.26 181.80 o
0 2 1 562.70 631.32 27.77 o
1 2 1 15955.70 16052.01 184.11 o
2 2 1 102.91 168.29 7.50 o
3 2 1 639.18 646.36 11.92 o
4 2 1 2624.42 2728.08 43.75 o
5 2 1 4364.26 4418.44 62.87 o
6 2 1 2816.63 2847.75 80.25 o
7 2 1 4815.86 4606.13 101.04 o
8 2 1 364.82 451.82 41.77 o
9 2 1 1528.06 1472.07 55.29 o
10 2 1 303.87 224.31 30.37 o
-8 3 1 438.58 375.22 62.81 o
-7 3 1 1382.38 1377.47 96.97 o
-6 3 1 1147.18 1079.18 41.44 o
-5 3 1 2426.24 2130.59 103.36 o
-4 3 1 2329.84 2311.10 58.53 o
-3 3 1 1525.60 1582.50 26.77 o
-2 3 1 3701.99 3775.56 52.74 o
-1 3 1 16010.07 16149.13 217.09 o
0 3 1 4879.49 4816.08 64.17 o
1 3 1 4040.85 4215.51 60.62 o
2 3 1 21.80 52.44 5.98 o
3 3 1 198.19 255.49 16.02 o
4 3 1 12030.56 11692.95 132.74 o
5 3 1 574.93 545.30 11.79 o
6 3 1 7109.61 6797.61 121.73 o
7 3 1 370.02 421.85 34.26 o
8 3 1 977.38 928.90 48.60 o
9 3 1 601.68 569.33 36.26 o
10 3 1 181.59 215.34 29.47 o
-7 4 1 621.14 613.80 74.38 o
-6 4 1 35.24 76.35 23.00 o
-5 4 1 350.22 402.27 58.96 o
-4 4 1 2683.96 2706.54 82.60 o
-3 4 1 229.67 315.63 17.14 o
-2 4 1 5478.00 5424.68 69.94 o
-1 4 1 653.59 581.16 17.61 o
0 4 1 1975.55 2020.84 34.45 o
1 4 1 642.08 658.62 15.94 o
2 4 1 130.68 154.72 7.73 o
3 4 1 11003.36 11389.18 130.51 o
4 4 1 13.35 35.41 4.98 o
5 4 1 12560.79 12790.48 193.55 o
6 4 1 319.20 372.38 23.98 o
7 4 1 3477.77 3350.59 72.83 o
8 4 1 2245.83 1912.65 139.40 o
9 4 1 24.76 49.61 25.69 o
10 4 1 2383.61 2265.44 76.73 o
-6 5 1 376.71 395.85 38.32 o
-5 5 1 600.11 699.37 54.82 o
-4 5 1 20.46 11.23 19.93 o
-3 5 1 5322.82 5324.75 114.44 o
-2 5 1 57.96 73.05 12.39 o
-1 5 1 4090.86 4222.60 64.50 o
0 5 1 1064.30 1094.00 24.60 o
1 5 1 721.63 772.91 21.00 o
2 5 1 11172.44 10748.68 135.91 o
3 5 1 3287.49 3478.58 48.45 o
4 5 1 14008.50 14339.55 185.42 o
5 5 1 1050.47 1157.55 30.91 o
6 5 1 1945.44 2018.14 54.68 o
7 5 1 2128.80 2095.01 56.71 o
8 5 1 76.22 63.25 25.90 o
9 5 1 3344.49 3228.20 223.70 o
-6 6 1 437.28 525.00 47.26 o
-5 6 1 107.96 125.28 32.03 o
-4 6 1 2064.38 2273.78 88.62 o
-3 6 1 151.14 112.31 23.07 o
-2 6 1 2017.26 1994.44 52.21 o
-1 6 1 1575.17 1584.12 40.55 o
0 6 1 12.38 74.91 10.56 o
1 6 1 8445.76 8473.12 111.78 o
2 6 1 3356.49 3311.46 48.49 o
3 6 1 9938.66 9548.85 127.05 o
4 6 1 3949.40 4092.51 84.87 o
5 6 1 3235.72 3213.00 70.84 o
6 6 1 4060.32 4184.36 98.68 o
7 6 1 104.11 133.88 21.82 o
8 6 1 3633.70 3610.56 139.67 o
9 6 1 1223.32 1293.03 134.99 o
-5 7 1 817.47 898.11 85.95 o
-4 7 1 519.45 434.73 61.71 o
-3 7 1 1484.14 1561.58 76.46 o
-2 7 1 1202.46 1217.51 43.61 o
-1 7 1 393.35 445.18 27.23 o
0 7 1 2648.73 2782.79 72.04 o
1 7 1 5578.21 5957.04 111.07 o
2 7 1 5370.37 5151.65 97.07 o
3 7 1 3117.05 3060.96 78.28 o
4 7 1 2797.10 2787.47 66.71 o
5 7 1 2795.70 2927.69 69.17 o
6 7 1 281.79 269.71 24.53 o
7 7 1 4022.19 3918.57 144.42 o
8 7 1 1605.18 1615.83 74.50 o
9 7 1 2236.33 2250.51 133.34 o
-4 8 1 408.64 369.16 63.36 o
-2 8 1 7.24 95.32 42.43 o
-1 8 1 1566.72 1579.03 106.34 o
0 8 1 1443.48 1596.17 76.78 o
1 8 1 3711.37 3774.30 212.68 o
2 8 1 4326.31 4211.63 80.60 o
3 8 1 2071.71 1927.75 48.48 o
4 8 1 4734.17 4503.45 104.20 o
5 8 1 296.53 306.30 25.33 o
6 8 1 2457.55 2433.49 73.16 o
7 8 1 2919.20 2985.55 82.30 o
8 8 1 925.43 975.06 85.13 o
-2 9 1 334.21 382.38 65.57 o
-1 9 1 1545.50 1676.07 88.71 o
0 9 1 920.22 938.88 66.78 o
1 9 1 2905.79 3086.43 125.62 o
2 9 1 777.05 790.46 66.67 o
3 9 1 1527.59 1363.94 79.48 o
4 9 1 211.98 242.50 24.38 o
5 9 1 1110.92 1041.50 47.99 o
6 9 1 2080.08 1961.54 60.88 o
7 9 1 1060.19 981.94 48.98 o
0 10 1 1584.18 1488.78 144.08 o
1 10 1 148.99 177.01 41.81 o
2 10 1 1741.94 1765.36 134.99 o
3 10 1 210.32 273.57 46.97 o
4 10 1 485.38 359.24 72.73 o
5 10 1 1642.44 1749.76 97.46 o
6 10 1 114.70 79.61 30.94 o
-6 -9 2 26.48 55.44 24.23 o
-5 -9 2 460.53 507.07 48.16 o
-4 -9 2 1043.15 1018.52 43.06 o
-3 -9 2 300.26 364.02 29.50 o
-2 -9 2 1733.80 1673.31 61.05 o
-1 -9 2 196.29 251.09 44.97 o
0 -9 2 188.72 260.62 62.81 o
1 -9 2 88.53 93.67 56.20 o
-7 -8 2 17.72 32.68 27.54 o
-6 -8 2 173.87 216.26 32.01 o
-5 -8 2 1494.59 1402.68 45.85 o
-4 -8 2 81.39 100.23 18.47 o
-3 -8 2 2271.60 2263.22 60.66 o
-2 -8 2 11.80 19.36 16.50 o
-1 -8 2 666.34 747.67 41.43 o
0 -8 2 485.68 511.95 52.53 o
1 -8 2 33.71 66.10 31.94 o
2 -8 2 1822.62 1817.94 88.79 o
3 -8 2 58.52 91.50 36.39 o
-8 -7 2 128.85 155.48 31.04 o
-7 -7 2 223.81 254.94 33.46 o
-6 -7 2 2305.87 2270.27 81.25 o
-5 -7 2 295.81 373.36 31.12 o
-4 -7 2 5271.51 5070.21 86.95 o
-3 -7 2 161.10 175.17 18.85 o
-2 -7 2 1506.11 1551.00 46.18 o
-1 -7 2 700.02 704.44 49.94 o
0 -7 2 447.30 476.79 31.95 o
1 -7 2 3622.19 3529.38 102.33 o
2 -7 2 899.15 946.36 54.14 o
3 -7 2 1962.42 2089.10 158.68 o
4 -7 2 76.61 104.19 33.84 o
-8 -6 2 41.41 47.19 23.67 o
-7 -6 2 1987.12 2082.13 75.71 o
-6 -6 2 464.75 449.52 32.62 o
-5 -6 2 5162.91 5146.30 120.78 o
-4 -6 2 1141.64 1121.18 36.58 o
-3 -6 2 2205.79 2110.40 43.97 o
-2 -6 2 4184.86 4064.40 83.19 o
-1 -6 2 454.70 492.99 26.61 o
0 -6 2 7878.63 7997.69 141.89 o
1 -6 2 3897.21 3896.35 86.59 o
2 -6 2 4345.49 4392.54 118.45 o
3 -6 2 2759.67 2689.35 108.16 o
4 -6 2 377.82 373.27 44.34 o
5 -6 2 1119.52 1175.25 100.28 o
6 -6 2 236.48 267.23 59.51 o
-9 -5 2 135.77 122.12 28.12 o
-8 -5 2 2228.23 2162.27 85.40 o
-7 -5 2 2181.48 2290.54 76.88 o
-6 -5 2 5778.71 5695.60 154.34 o
-5 -5 2 5676.54 5790.56 128.54 o
-4 -5 2 2610.07 2461.06 63.55 o
-3 -5 2 3524.82 3441.93 61.67 o
-2 -5 2 2194.68 2208.41 39.77 o
-1 -5 2 6686.68 6776.16 110.95 o
0 -5 2 11357.85 11380.04 155.88 o
1 -5 2 7728.70 7832.77 113.08 o
2 -5 2 3806.41 3911.38 64.84 o
3 -5 2 777.82 919.13 60.43 o
4 -5 2 1220.94 1235.30 81.43 o
5 -5 2 706.17 615.74 54.68 o
6 -5 2 1472.58 1330.63 104.14 o
-9 -4 2 1137.56 1175.57 79.62 o
-8 -4 2 2041.15 1946.17 133.61 o
-7 -4 2 2588.83 2783.03 176.32 o
-6 -4 2 4750.92 4797.44 244.09 o
-5 -4 2 1664.43 1548.91 64.05 o
-4 -4 2 7012.98 7313.82 122.35 o
-3 -4 2 1522.56 1545.16 32.13 o
-2 -4 2 12967.77 12624.24 154.39 o
-1 -4 2 19876.75 19870.65 246.85 o
0 -4 2 8531.96 8742.31 112.67 o
1 -4 2 20598.38 20483.94 268.99 o
2 -4 2 731.15 858.80 22.83 o
3 -4 2 7272.59 7457.64 120.21 o
4 -4 2 2228.61 2353.26 78.57 o
5 -4 2 913.75 909.07 46.95 o
6 -4 2 2945.01 2973.85 91.51 o
7 -4 2 128.61 132.60 37.78 o
-9 -3 2 1817.58 1634.71 157.86 o
-8 -3 2 895.78 933.37 109.10 o
-7 -3 2 6512.54 6820.66 331.69 o
-6 -3 2 1223.87 1231.03 56.73 o
-5 -3 2 5172.91 4934.24 140.73 o
-4 -3 2 2064.82 2285.02 43.08 o
-3 -3 2 2540.29 2480.82 48.35 o
-2 -3 2 26993.46 27521.19 386.63 o
-1 -3 2 7466.89 7619.82 97.31 o
0 -3 2 23053.10 22942.20 261.30 o
1 -3 2 3190.79 3221.61 45.97 o
2 -3 2 4048.77 4385.78 65.30 o
3 -3 2 2971.09 2976.27 51.42 o
4 -3 2 1079.75 1179.51 31.69 o
5 -3 2 5486.97 5392.23 112.61 o
6 -3 2 1089.12 1057.90 49.61 o
7 -3 2 1817.83 1747.94 77.45 o
8 -3 2 2.62 7.22 24.77 o
-9 -2 2 297.08 361.51 43.52 o
-8 -2 2 3590.30 3495.20 124.11 o
-7 -2 2 479.86 559.75 53.75 o
-6 -2 2 5932.34 5996.14 207.70 o
-5 -2 2 1333.13 1346.09 34.02 o
-4 -2 2 5492.85 5447.90 101.22 o
-3 -2 2 20631.25 20573.30 313.28 o
-2 -2 2 3987.54 3819.72 67.69 o
-1 -2 2 38838.11 37237.33 462.67 o
0 -2 2 337.27 362.86 9.04 o
1 -2 2 17502.25 18268.56 220.20 o
2 -2 2 3590.69 3962.86 65.67 o
3 -2 2 903.69 1053.48 29.82 o
4 -2 2 9622.83 9878.56 141.30 o
5 -2 2 2.06 35.04 11.57 o
6 -2 2 4150.19 4136.14 107.27 o
7 -2 2 46.34 131.68 24.28 o
8 -2 2 176.15 206.57 29.54 o
-9 -1 2 2621.53 2438.15 106.62 o
-8 -1 2 2.05 -27.08 22.46 o
-7 -1 2 2852.75 2753.00 121.77 o
-6 -1 2 1120.14 1034.99 43.29 o
-5 -1 2 57.18 69.19 17.50 o
-4 -1 2 13821.92 13538.44 265.45 o
-3 -1 2 14.43 65.89 7.41 o
-2 -1 2 26697.57 25435.86 478.37 o
-1 -1 2 8561.91 8775.36 183.11 o
0 -1 2 15416.97 15371.89 176.53 o
1 -1 2 1373.09 1432.67 18.17 o
2 -1 2 200.43 226.40 8.40 o
3 -1 2 19780.78 20830.95 269.61 o
4 -1 2 28.18 40.45 7.00 o
5 -1 2 7786.45 7802.69 124.34 o
6 -1 2 113.33 103.07 18.32 o
7 -1 2 269.61 343.93 29.75 o
8 -1 2 1531.94 1518.57 60.53 o
9 -1 2 216.79 232.62 29.21 o
-9 0 2 7.73 45.84 31.18 o
-8 0 2 1969.26 1785.25 81.51 o
-7 0 2 727.08 620.61 45.11 o
-6 0 2 457.68 402.67 29.78 o
-5 0 2 5770.86 5490.47 99.30 o
-4 0 2 75.22 100.35 9.14 o
-3 0 2 21606.38 21262.66 362.52 o
-2 0 2 102.40 96.81 16.97 o
-1 0 2 22659.28 22408.60 890.39 o
0 0 2 10437.75 10507.19 144.54 o
1 0 2 1565.13 1700.76 21.09 o
2 0 2 9488.75 9862.44 110.88 o
3 0 2 6366.72 6305.95 79.59 o
4 0 2 5532.83 5288.66 74.31 o
5 0 2 1540.25 1670.38 35.69 o
6 0 2 28.78 74.51 14.52 o
7 0 2 901.90 842.94 39.82 o
8 0 2 1198.16 1223.94 51.51 o
9 0 2 1199.01 1358.93 125.93 o
-8 1 2 430.45 360.76 42.36 o
-7 1 2 257.34 288.67 34.11 o
-6 1 2 2223.23 1995.08 75.54 o
-5 1 2 3035.30 3008.79 86.31 o
-4 1 2 10801.58 10383.91 166.92 o
-3 1 2 1070.08 1054.45 20.85 o
-2 1 2 4272.75 3976.71 59.50 o
-1 1 2 157.98 345.42 25.05 o
0 1 2 4552.23 4673.49 93.18 o
1 1 2 7876.92 8062.20 101.90 o
2 1 2 6281.52 6890.15 82.92 o
3 1 2 11150.94 11568.78 137.98 o
4 1 2 2178.33 2225.35 32.55 o
5 1 2 8.18 14.42 6.17 o
6 1 2 1828.77 1791.24 49.86 o
7 1 2 3580.06 3331.67 88.09 o
8 1 2 1320.91 1384.82 67.75 o
9 1 2 2442.73 2248.47 110.94 o
-8 2 2 2.87 -13.77 34.71 o
-7 2 2 1064.05 1043.76 69.98 o
-6 2 2 1078.87 1133.38 56.13 o
-5 2 2 2972.91 2855.49 84.99 o
-4 2 2 3216.69 3182.52 91.07 o
-3 2 2 1093.69 1168.67 18.07 o
-2 2 2 2224.75 2297.40 31.45 o
-1 2 2 5493.84 5505.26 67.29 o
0 2 2 555.70 507.61 15.64 o
1 2 2 24488.78 24071.88 471.75 o
2 2 2 843.71 877.01 22.24 o
3 2 2 11394.54 11990.78 142.63 o
4 2 2 1097.50 1163.00 19.47 o
5 2 2 619.23 702.96 15.26 o
6 2 2 9041.39 8869.62 176.63 o
7 2 2 145.34 167.51 15.16 o
8 2 2 5397.04 5074.32 102.96 o
9 2 2 203.41 318.38 29.78 o
10 2 2 957.56 741.04 46.04 o
-8 3 2 69.08 87.61 47.38 o
-7 3 2 1711.62 1710.81 107.44 o
-6 3 2 693.89 618.21 63.36 o
-5 3 2 2848.94 2789.16 96.18 o
-4 3 2 242.97 285.22 13.47 o
-3 3 2 84.32 158.24 25.40 o
-2 3 2 5138.55 5324.28 65.75 o
-1 3 2 165.32 326.39 22.06 o
0 3 2 16974.80 16625.45 185.85 o
1 3 2 1052.80 1026.38 20.53 o
2 3 2 13602.37 14114.77 155.33 o
3 3 2 4461.29 4604.40 58.89 o
4 3 2 598.11 598.42 13.26 o
5 3 2 15564.24 15452.52 184.88 o
6 3 2 30.94 96.58 13.10 o
7 3 2 8238.87 7916.48 154.63 o
8 3 2 66.18 73.64 15.19 o
9 3 2 1918.89 1830.64 72.66 o
10 3 2 780.18 692.56 44.94 o
-7 4 2 113.20 179.07 52.89 o
-6 4 2 2218.28 2386.32 129.48 o
-5 4 2 117.82 145.76 21.44 o
-4 4 2 594.89 628.38 47.72 o
-3 4 2 2700.91 2639.29 82.16 o
-2 4 2 379.12 424.68 16.65 o
-1 4 2 13743.26 12811.52 171.49 o
0 4 2 1098.33 1149.51 21.20 o
1 4 2 16056.16 15681.74 208.98 o
2 4 2 4823.87 4872.05 66.18 o
3 4 2 32.25 86.77 12.21 o
4 4 2 10717.44 10569.62 129.35 o
5 4 2 1200.97 1185.81 25.44 o
6 4 2 13672.99 13568.91 248.79 o
7 4 2 177.35 284.79 26.01 o
8 4 2 4313.95 3990.03 96.56 o
9 4 2 684.44 615.44 38.20 o
10 4 2 73.71 17.17 22.59 o
-6 5 2 4.21 7.71 43.53 o
-5 5 2 52.42 77.52 23.65 o
-4 5 2 696.87 773.93 92.26 o
-3 5 2 395.60 514.00 30.18 o
-2 5 2 8797.48 8583.66 162.55 o
-1 5 2 766.64 802.57 21.42 o
0 5 2 11000.83 10689.16 142.39 o
1 5 2 4717.92 4573.68 63.46 o
2 5 2 627.20 637.34 17.21 o
3 5 2 17611.94 17607.07 220.94 o
4 5 2 1191.02 1197.67 22.81 o
5 5 2 18387.93 18702.37 280.78 o
6 5 2 2588.98 2595.13 56.71 o
7 5 2 4297.87 4346.86 101.92 o
8 5 2 2847.38 2727.53 73.99 o
9 5 2 1.41 11.71 24.58 o
10 5 2 1820.13 1839.94 122.32 o
-6 6 2 313.05 332.08 57.30 o
-5 6 2 807.45 827.56 73.01 o
-4 6 2 199.65 156.92 30.42 o
-3 6 2 3612.62 3652.97 114.66 o
-2 6 2 2508.79 2481.22 67.98 o
-1 6 2 5981.36 5753.46 108.93 o
0 6 2 3690.27 3851.43 61.52 o
1 6 2 334.19 355.40 24.33 o
2 6 2 5372.06 5048.76 71.02 o
3 6 2 3040.12 3019.35 49.95 o
4 6 2 11678.89 11104.65 169.18 o
5 6 2 3897.87 4028.16 96.26 o
6 6 2 5864.77 5878.73 132.99 o
7 6 2 2068.24 1982.94 64.92 o
8 6 2 1.94 1.41 15.99 o
9 6 2 1892.03 1952.32 136.37 o
-5 7 2 205.36 204.43 36.59 o
-4 7 2 1129.13 1196.02 92.84 o
-3 7 2 1070.58 1074.59 53.97 o
-2 7 2 2654.78 2818.54 85.23 o
-1 7 2 2027.37 2088.06 55.09 o
0 7 2 246.51 245.69 21.06 o
1 7 2 5858.52 5790.18 86.96 o
2 7 2 1553.13 1653.27 37.51 o
3 7 2 11691.05 11096.63 172.31 o
4 7 2 5857.48 5770.90 104.17 o
5 7 2 3383.50 3463.26 78.38 o
6 7 2 3907.14 3827.79 96.60 o
7 7 2 90.96 84.67 19.69 o
8 7 2 1472.14 1503.45 65.89 o
9 7 2 1195.69 1346.30 179.35 o
-4 8 2 906.64 1032.00 92.57 o
-3 8 2 545.37 620.96 70.53 o
-2 8 2 1256.84 1457.91 104.14 o
-1 8 2 154.53 166.40 46.28 o
0 8 2 971.76 1029.52 62.81 o
1 8 2 1324.46 1368.29 69.62 o
2 8 2 2065.82 1973.35 124.25 o
3 8 2 4885.13 4713.88 87.53 o
4 8 2 1657.74 1462.76 50.26 o
5 8 2 1714.42 1665.85 51.84 o
6 8 2 3.06 30.67 18.34 o
7 8 2 649.84 662.07 39.86 o
8 8 2 1556.60 1750.83 105.79 o
-2 9 2 14.95 72.18 45.73 o
-1 9 2 640.96 698.10 79.34 o
0 9 2 860.17 973.59 67.35 o
1 9 2 1043.80 1102.22 107.44 o
2 9 2 2509.39 2669.78 180.72 o
3 9 2 545.83 540.80 43.06 o
4 9 2 1544.98 1524.95 136.37 o
5 9 2 81.34 85.11 21.90 o
6 9 2 323.29 292.43 31.00 o
7 9 2 1327.23 1373.63 58.71 o
8 9 2 15.07 12.84 21.99 o
0 10 2 4.86 16.68 33.23 o
1 10 2 1059.12 988.30 73.70 o
2 10 2 99.32 93.57 36.40 o
3 10 2 721.79 644.68 63.88 o
4 10 2 6.90 16.53 51.24 o
5 10 2 20.48 13.22 48.49 o
6 10 2 875.71 981.86 100.28 o
-5 -9 3 6.32 35.49 30.15 o
-4 -9 3 132.51 168.58 35.55 o
-3 -9 3 1432.56 1383.67 49.97 o
-2 -9 3 6.89 7.09 19.13 o
-1 -9 3 2425.11 2468.62 112.26 o
0 -9 3 10.65 3.86 45.73 o
1 -9 3 592.98 607.19 84.85 o
-6 -8 3 245.76 238.56 28.44 o
-5 -8 3 435.64 450.12 29.19 o
-4 -8 3 2759.06 2534.82 109.43 o
-3 -8 3 457.67 442.65 28.56 o
-2 -8 3 4144.39 3873.73 84.19 o
-1 -8 3 610.20 654.39 39.38 o
0 -8 3 1451.49 1512.43 84.41 o
1 -8 3 351.86 307.98 50.11 o
2 -8 3 1.44 45.00 33.44 o
3 -8 3 947.18 865.14 67.19 o
-7 -7 3 246.19 172.75 30.42 o
-6 -7 3 149.65 144.16 22.96 o
-5 -7 3 2954.45 2912.05 70.94 o
-4 -7 3 1003.57 1056.96 36.85 o
-3 -7 3 6617.24 6530.81 124.04 o
-2 -7 3 1313.45 1280.01 42.96 o
-1 -7 3 2772.69 2862.55 75.27 o
0 -7 3 2560.21 2560.72 71.62 o
1 -7 3 36.90 62.05 32.30 o
2 -7 3 4005.88 4012.42 117.04 o
3 -7 3 778.06 717.99 58.04 o
4 -7 3 1900.68 1757.37 134.72 o
-8 -6 3 1176.22 1265.64 61.79 o
-7 -6 3 101.39 102.58 22.83 o
-6 -6 3 2820.99 2886.55 78.01 o
-5 -6 3 2466.49 2507.83 69.35 o
-4 -6 3 5628.94 5285.08 106.60 o
-3 -6 3 5809.46 5669.86 92.92 o
-2 -6 3 4637.40 4453.01 86.82 o
-1 -6 3 3611.79 3710.16 86.39 o
0 -6 3 2.28 0.40 14.51 o
1 -6 3 2780.88 2795.65 64.95 o
2 -6 3 2484.01 2415.93 80.18 o
3 -6 3 3288.21 3295.88 103.07 o
4 -6 3 1301.13 1450.64 82.49 o
5 -6 3 768.87 793.94 63.61 o
-8 -5 3 64.26 173.56 75.49 o
-7 -5 3 1420.45 1265.61 129.48 o
-6 -5 3 2157.49 2288.95 62.36 o
-5 -5 3 6006.39 6103.05 134.60 o
-4 -5 3 5799.84 5908.80 130.54 o
-3 -5 3 5980.81 5633.23 100.74 o
-2 -5 3 7432.67 7420.13 115.76 o
-1 -5 3 487.76 519.43 37.59 o
0 -5 3 7372.51 7542.22 123.97 o
1 -5 3 6523.63 6429.99 103.19 o
2 -5 3 4358.38 4401.40 77.40 o
3 -5 3 3491.09 3312.82 150.71 o
4 -5 3 647.94 635.09 44.23 o
5 -5 3 1272.15 1312.87 61.59 o
6 -5 3 258.34 227.07 57.03 o
-9 -4 3 0.51 8.26 72.73 o
-8 -4 3 1103.77 1254.04 138.30 o
-7 -4 3 2277.71 2299.26 161.44 o
-6 -4 3 1906.58 1913.57 136.09 o
-5 -4 3 9960.72 9620.53 274.22 o
-4 -4 3 3659.44 3550.07 116.63 o
-3 -4 3 10160.89 9924.11 186.46 o
-2 -4 3 5.79 76.27 9.02 o
-1 -4 3 1985.62 1893.13 28.31 o
0 -4 3 5467.50 5455.16 73.84 o
1 -4 3 4661.76 4898.66 66.78 o
2 -4 3 8195.93 8240.16 116.94 o
3 -4 3 4631.45 4933.17 97.74 o
4 -4 3 2715.92 2877.48 68.04 o
5 -4 3 158.35 147.05 25.76 o
6 -4 3 258.64 300.06 44.33 o
7 -4 3 1726.77 1706.43 92.83 o
-9 -3 3 265.48 179.78 36.61 o
-8 -3 3 1217.63 1198.39 126.73 o
-7 -3 3 1327.97 1344.41 124.52 o
-6 -3 3 7923.28 8240.00 381.28 o
-5 -3 3 2689.03 2815.48 110.73 o
-4 -3 3 9691.35 9770.17 166.84 o
-3 -3 3 608.73 731.23 20.60 o
-2 -3 3 4387.61 4612.08 90.90 o
-1 -3 3 13734.49 13618.45 158.05 o
0 -3 3 4574.75 4892.09 61.42 o
1 -3 3 17175.34 17737.94 200.58 o
2 -3 3 289.65 349.78 14.18 o
3 -3 3 3401.35 3456.72 63.33 o
4 -3 3 1730.22 1767.20 37.88 o
5 -3 3 11.17 105.72 22.64 o
6 -3 3 2639.67 2589.65 81.60 o
7 -3 3 18.71 42.23 25.71 o
8 -3 3 1095.70 1184.08 80.18 o
-9 -2 3 1014.39 992.97 67.47 o
-8 -2 3 48.74 67.12 26.48 o
-7 -2 3 6340.54 6098.31 306.35 o
-6 -2 3 8.39 16.16 23.22 o
-5 -2 3 7393.34 7058.33 131.18 o
-4 -2 3 61.11 88.73 8.05 o
-3 -2 3 299.21 249.80 19.40 o
-2 -2 3 5148.38 5074.57 88.00 o
-1 -2 3 60.59 126.75 11.95 o
0 -2 3 18806.76 18910.89 215.68 o
1 -2 3 1313.73 1448.89 24.34 o
2 -2 3 5083.39 5434.08 70.25 o
3 -2 3 55.54 74.38 19.12 o
4 -2 3 138.54 220.56 12.94 o
5 -2 3 4604.19 4657.30 92.06 o
6 -2 3 308.46 340.23 29.91 o
7 -2 3 3033.96 3014.16 90.67 o
8 -2 3 338.34 293.06 34.75 o
-9 -1 3 13.27 105.93 33.25 o
-8 -1 3 3381.69 3320.89 230.31 o
-7 -1 3 9.35 34.27 22.04 o
-6 -1 3 4325.45 4187.34 128.35 o
-5 -1 3 657.93 685.64 27.52 o
-4 -1 3 338.50 390.28 16.93 o
-3 -1 3 10720.77 10517.92 201.33 o
-2 -1 3 77.20 64.04 41.87 o
-1 -1 3 26031.49 25405.96 466.50 o
0 -1 3 1596.98 1642.67 36.72 o
1 -1 3 2293.43 2337.29 34.51 o
2 -1 3 3711.90 4042.73 52.53 o
3 -1 3 3647.17 3884.75 54.58 o
4 -1 3 3405.78 3573.27 65.70 o
5 -1 3 3477.12 3406.71 57.16 o
6 -1 3 2623.20 2677.60 76.72 o
7 -1 3 1716.79 1637.82 67.08 o
8 -1 3 41.33 75.56 20.60 o
9 -1 3 529.99 477.66 34.79 o
-8 0 3 628.16 719.48 54.82 o
-7 0 3 1803.80 1648.37 71.20 o
-6 0 3 342.40 358.51 31.40 o
-5 0 3 6.91 40.04 7.93 o
-4 0 3 1107.59 1074.02 46.06 o
-3 0 3 6621.84 6885.69 115.05 o
-2 0 3 9427.69 9030.72 278.11 o
-1 0 3 12385.07 11615.34 471.09 o
0 0 3 169.92 150.12 7.72 o
1 0 3 88.52 49.29 14.74 o
2 0 3 8040.12 8382.46 105.94 o
3 0 3 1977.57 1875.19 29.77 o
4 0 3 10255.64 10246.55 132.24 o
5 0 3 5522.73 5566.71 76.58 o
6 0 3 4526.41 4419.10 87.03 o
7 0 3 46.11 68.85 15.35 o
8 0 3 977.05 1001.38 40.83 o
9 0 3 1512.10 1377.16 51.10 o
-8 1 3 911.62 961.47 79.34 o
-7 1 3 655.83 699.06 50.35 o
-6 1 3 50.96 109.55 49.86 o
-5 1 3 2751.94 2825.34 82.15 o
-4 1 3 5583.27 5503.24 98.28 o
-3 1 3 5295.25 5020.25 75.15 o
-2 1 3 8519.05 8459.61 125.63 o
-1 1 3 25.75 45.99 9.03 o
0 1 3 537.18 503.81 17.42 o
1 1 3 10342.81 10621.10 150.80 o
2 1 3 558.18 673.32 24.54 o
3 1 3 23186.74 23470.91 260.72 o
4 1 3 576.65 743.26 14.28 o
5 1 3 10886.35 10757.01 132.96 o
6 1 3 239.98 329.99 16.60 o
7 1 3 1347.73 1282.02 39.30 o
8 1 3 1868.12 1777.70 61.48 o
9 1 3 357.02 307.77 26.75 o
10 1 3 1892.94 1813.18 85.60 o
-8 2 3 446.25 591.21 66.67 o
-7 2 3 83.44 87.06 34.16 o
-6 2 3 25.90 33.41 20.99 o
-5 2 3 3687.75 3698.58 116.32 o
-4 2 3 295.62 351.83 24.18 o
-3 2 3 9630.95 9534.96 171.54 o
-2 2 3 471.06 427.48 12.69 o
-1 2 3 2998.19 3024.10 52.14 o
0 2 3 10891.11 11119.47 238.56 o
1 2 3 339.96 374.67 20.22 o
2 2 3 45925.69 44520.56 759.98 o
3 2 3 1078.78 1075.77 17.97 o
4 2 3 22816.12 23872.24 281.28 o
5 2 3 816.57 777.28 16.85 o
6 2 3 2195.90 2282.47 44.24 o
7 2 3 6700.95 6602.41 132.45 o
8 2 3 239.07 270.33 22.05 o
9 2 3 4809.34 4559.25 99.77 o
10 2 3 0.64 28.91 18.14 o
-7 3 3 185.33 303.59 52.34 o
-6 3 3 2247.38 2418.83 121.77 o
-5 3 3 515.95 555.39 53.45 o
-4 3 3 8099.40 8244.05 169.04 o
-3 3 3 225.78 235.03 13.08 o
-2 3 3 3758.35 3781.65 49.39 o
-1 3 3 10921.78 11130.39 176.06 o
0 3 3 37.16 80.54 8.97 o
1 3 3 34129.53 33034.04 571.95 o
2 3 3 2011.72 2052.86 34.00 o
3 3 3 25015.38 25377.82 318.92 o
4 3 3 2618.56 2851.40 40.13 o
5 3 3 3556.01 3659.15 50.73 o
6 3 3 4998.20 5037.35 90.85 o
7 3 3 108.79 107.64 15.95 o
8 3 3 8081.82 8062.56 154.43 o
9 3 3 109.76 119.56 19.60 o
10 3 3 2565.55 2498.15 119.21 o
-7 4 3 778.54 876.62 89.26 o
-6 4 3 81.75 76.04 40.22 o
-5 4 3 3851.95 4013.93 177.97 o
-4 4 3 109.34 100.00 22.98 o
-3 4 3 2077.54 2130.53 53.60 o
-2 4 3 2672.81 2745.56 50.01 o
-1 4 3 64.94 144.90 8.43 o
0 4 3 30310.67 29494.83 388.13 o
1 4 3 1436.93 1532.94 27.66 o
2 4 3 32657.85 31017.90 476.91 o
3 4 3 2337.60 2297.19 36.30 o
4 4 3 4752.22 5082.19 71.42 o
5 4 3 12031.04 11750.52 154.28 o
6 4 3 118.97 108.99 14.33 o
7 4 3 14104.50 13942.29 261.33 o
8 4 3 1242.61 1142.91 45.04 o
9 4 3 2129.88 1967.21 55.59 o
10 4 3 863.47 872.14 59.72 o
-6 5 3 1727.92 2038.65 129.48 o
-5 5 3 401.42 374.12 58.40 o
-4 5 3 1142.49 1209.67 47.34 o
-3 5 3 2805.96 2661.87 68.70 o
-2 5 3 134.44 155.57 17.75 o
-1 5 3 11458.81 11394.17 192.05 o
0 5 3 3682.32 3676.28 59.87 o
1 5 3 15831.55 15202.80 194.20 o
2 5 3 5048.79 5010.44 106.16 o
3 5 3 4666.81 4511.58 60.57 o
4 5 3 5831.68 5985.88 83.82 o
5 5 3 238.70 292.18 14.86 o
6 5 3 8024.18 7782.53 145.28 o
7 5 3 2011.44 1975.99 53.36 o
8 5 3 3523.84 3539.69 91.23 o
9 5 3 1084.33 961.38 45.23 o
10 5 3 78.93 63.47 25.69 o
-5 6 3 476.06 511.32 75.49 o
-4 6 3 283.54 301.80 48.86 o
-3 6 3 78.49 84.29 20.50 o
-2 6 3 4462.51 4433.81 102.05 o
-1 6 3 2758.82 2679.46 69.30 o
0 6 3 11398.60 11490.80 270.70 o
1 6 3 3990.66 4165.04 60.49 o
2 6 3 1583.18 1513.04 30.31 o
3 6 3 4638.60 4483.13 67.90 o
4 6 3 1561.82 1593.78 35.97 o
5 6 3 7930.74 7860.28 136.72 o
6 6 3 3441.86 3481.82 102.69 o
7 6 3 2573.23 2530.36 71.55 o
8 6 3 1529.20 1510.03 54.31 o
9 6 3 26.30 46.20 20.30 o
-5 7 3 381.66 301.37 34.68 o
-4 7 3 105.89 113.76 26.13 o
-3 7 3 1203.07 1306.99 57.32 o
-2 7 3 2020.67 1981.03 68.35 o
-1 7 3 1686.32 1841.99 57.69 o
0 7 3 2182.38 2141.03 54.83 o
1 7 3 1038.93 975.33 35.36 o
2 7 3 816.22 813.52 21.24 o
3 7 3 70.13 125.22 26.21 o
4 7 3 1518.28 1447.95 46.32 o
5 7 3 2342.04 2366.92 68.14 o
6 7 3 1591.23 1595.83 55.09 o
7 7 3 1523.59 1427.83 53.60 o
8 7 3 16.83 31.09 19.92 o
9 7 3 491.59 470.89 36.15 o
-3 8 3 879.63 770.66 59.11 o
-2 8 3 892.14 1063.89 55.05 o
-1 8 3 1261.46 1334.37 58.54 o
0 8 3 462.49 525.76 55.65 o
1 8 3 698.19 752.03 54.51 o
2 8 3 1169.74 1161.91 64.16 o
3 8 3 761.95 656.02 50.98 o
4 8 3 3605.98 3447.40 75.24 o
5 8 3 429.63 351.25 29.51 o
6 8 3 1289.06 1370.59 54.06 o
7 8 3 144.09 233.46 28.44 o
8 8 3 161.65 157.21 26.87 o
9 8 3 1322.53 1403.79 82.57 o
-2 9 3 584.65 550.99 70.53 o
-1 9 3 6.92 22.04 42.43 o
0 9 3 109.83 188.44 50.69 o
1 9 3 97.76 139.14 34.42 o
2 9 3 16.13 55.04 28.98 o
3 9 3 1057.17 1125.96 69.03 o
4 9 3 5.35 27.74 27.69 o
5 9 3 822.62 828.79 60.76 o
6 9 3 73.80 94.28 33.17 o
7 9 3 22.24 29.34 23.03 o
8 9 3 1171.03 1269.80 59.22 o
0 10 3 291.58 258.96 60.06 o
1 10 3 37.53 48.18 33.73 o
2 10 3 1483.58 1638.71 87.55 o
3 10 3 198.52 167.97 39.67 o
4 10 3 424.89 373.57 75.49 o
5 10 3 333.38 334.45 70.53 o
6 10 3 22.04 52.89 54.00 o
-3 -9 4 285.72 347.16 52.22 o
-2 -9 4 1608.41 1503.07 58.26 o
-1 -9 4 37.53 50.71 36.27 o
0 -9 4 1999.09 1888.58 196.43 o
-6 -8 4 2973.46 3120.77 99.17 o
-5 -8 4 405.25 372.57 32.64 o
-4 -8 4 398.09 401.39 35.15 o
-3 -8 4 1524.76 1492.83 58.25 o
-2 -8 4 276.63 300.41 28.57 o
-1 -8 4 4613.35 4639.17 110.70 o
0 -8 4 451.62 473.32 43.89 o
1 -8 4 2510.27 2478.40 131.41 o
2 -8 4 725.89 677.78 73.08 o
-7 -7 4 2106.03 2010.33 175.76 o
-6 -7 4 1270.48 1248.98 68.98 o
-5 -7 4 209.61 188.24 20.23 o
-4 -7 4 2078.67 2159.19 71.09 o
-3 -7 4 447.07 492.98 35.06 o
-2 -7 4 4727.03 4756.79 103.57 o
-1 -7 4 1717.73 1739.55 56.83 o
0 -7 4 3834.82 3996.30 97.89 o
1 -7 4 1477.20 1514.68 56.94 o
2 -7 4 302.75 371.98 51.45 o
3 -7 4 699.04 642.78 51.88 o
4 -7 4 106.85 104.87 36.95 o
-7 -6 4 1250.14 1493.17 148.77 o
-6 -6 4 873.74 902.60 39.43 o
-5 -6 4 1823.99 1729.98 54.71 o
-4 -6 4 934.76 968.04 32.63 o
-3 -6 4 7110.82 6942.27 125.94 o
-2 -6 4 4977.87 5039.14 98.65 o
-1 -6 4 6755.86 6654.91 178.35 o
0 -6 4 2970.55 3154.17 79.36 o
1 -6 4 20.52 32.65 18.23 o
2 -6 4 1648.14 1582.28 63.38 o
3 -6 4 1967.78 1828.65 96.61 o
4 -6 4 1326.38 1363.20 70.09 o
5 -6 4 1154.71 1145.19 67.28 o
-8 -5 4 1845.07 1785.19 166.95 o
-7 -5 4 68.60 22.59 62.26 o
-6 -5 4 1903.51 1807.84 82.15 o
-5 -5 4 1885.17 2089.49 88.09 o
-4 -5 4 2314.24 2253.41 76.33 o
-3 -5 4 6591.44 6466.66 114.23 o
-2 -5 4 2792.23 2807.17 58.87 o
-1 -5 4 4629.45 4751.55 93.08 o
0 -5 4 567.00 706.49 32.92 o
1 -5 4 1289.73 1394.33 51.22 o
2 -5 4 805.44 791.11 30.06 o
3 -5 4 1198.08 1189.70 49.50 o
4 -5 4 2926.15 2764.48 185.36 o
5 -5 4 413.51 493.13 43.66 o
6 -5 4 889.42 864.65 73.18 o
-8 -4 4 187.70 203.86 80.99 o
-7 -4 4 965.90 1106.38 121.22 o
-6 -4 4 1323.32 1308.04 119.01 o
-5 -4 4 1524.67 1382.89 63.29 o
-4 -4 4 10450.14 10276.40 331.97 o
-3 -4 4 3700.95 3595.27 119.15 o
-2 -4 4 6622.30 6384.26 109.62 o
-1 -4 4 235.23 261.28 11.83 o
0 -4 4 883.47 941.96 26.28 o
1 -4 4 6084.56 6065.46 95.76 o
2 -4 4 401.35 450.90 20.34 o
3 -4 4 7872.05 7994.52 118.69 o
4 -4 4 61.72 67.70 15.99 o
5 -4 4 352.88 373.88 28.13 o
6 -4 4 553.29 543.28 41.52 o
7 -4 4 39.93 84.14 37.70 o
-8 -3 4 581.15 537.76 101.38 o
-7 -3 4 1563.75 1937.27 155.38 o
-6 -3 4 35.87 21.49 44.08 o
-5 -3 4 7008.66 6826.13 199.47 o
-4 -3 4 6.07 34.08 7.88 o
-3 -3 4 5907.45 5921.91 105.36 o
-2 -3 4 11.67 54.24 12.39 o
-1 -3 4 585.85 659.91 14.56 o
0 -3 4 2766.00 2845.92 41.04 o
1 -3 4 567.64 545.75 14.95 o
2 -3 4 8047.89 8252.61 105.02 o
3 -3 4 515.16 612.29 18.07 o
4 -3 4 1455.45 1511.16 41.31 o
5 -3 4 244.56 293.02 23.57 o
6 -3 4 31.81 111.25 20.24 o
7 -3 4 1596.05 1732.63 69.25 o
8 -3 4 236.36 276.03 57.53 o
-8 -2 4 520.22 518.66 46.84 o
-7 -2 4 30.99 91.46 58.40 o
-6 -2 4 6899.80 7231.84 248.99 o
-5 -2 4 115.42 168.94 13.28 o
-4 -2 4 6903.45 6731.01 116.55 o
-3 -2 4 299.45 323.34 13.27 o
-2 -2 4 488.90 542.61 15.06 o
-1 -2 4 5879.50 5531.11 90.25 o
0 -2 4 6027.22 6035.15 75.03 o
1 -2 4 10868.28 10889.71 135.46 o
2 -2 4 2809.96 2789.98 40.04 o
3 -2 4 636.59 721.36 17.45 o
4 -2 4 1883.75 1948.12 45.14 o
5 -2 4 1408.60 1462.65 36.84 o
6 -2 4 2472.46 2549.17 57.16 o
7 -2 4 1586.55 1634.62 65.95 o
8 -2 4 1075.62 1078.83 58.65 o
-8 -1 4 170.19 235.05 36.37 o
-7 -1 4 2455.69 2662.18 211.58 o
-6 -1 4 1746.98 1880.87 76.67 o
-5 -1 4 2151.84 2089.50 49.69 o
-4 -1 4 914.14 971.61 25.53 o
-3 -1 4 36.05 61.90 18.90 o
-2 -1 4 384.12 345.76 28.82 o
-1 -1 4 4909.24 4724.79 107.27 o
0 -1 4 7290.20 7086.79 119.73 o
1 -1 4 12138.30 12193.06 172.43 o
2 -1 4 3013.48 3170.09 42.98 o
3 -1 4 4636.76 5062.97 69.32 o
4 -1 4 2343.55 2366.24 38.51 o
5 -1 4 3458.06 3692.67 56.40 o
6 -1 4 7145.87 7025.88 121.31 o
7 -1 4 2173.47 2308.54 62.14 o
8 -1 4 2148.81 1965.79 60.77 o
9 -1 4 38.12 54.97 28.56 o
-8 0 4 1361.60 1452.62 74.68 o
-7 0 4 1810.01 2108.07 84.04 o
-6 0 4 2563.44 2689.00 92.86 o
-5 0 4 1298.51 1351.66 38.42 o
-4 0 4 207.04 258.91 13.85 o
-3 0 4 3262.52 3335.94 121.75 o
-2 0 4 19365.78 18280.36 546.87 o
-1 0 4 9452.10 8169.72 242.33 o
0 0 4 26277.63 26370.09 426.13 o
1 0 4 366.09 370.38 8.87 o
2 0 4 7237.25 7269.37 89.09 o
3 0 4 7114.05 7226.30 94.40 o
4 0 4 4106.77 4283.98 62.27 o
5 0 4 13184.33 13491.80 172.79 o
6 0 4 1261.94 1318.33 33.51 o
7 0 4 4761.03 4700.86 99.46 o
8 0 4 40.46 110.77 20.86 o
9 0 4 1323.49 1267.79 51.44 o
-8 1 4 1273.31 1352.12 89.81 o
-7 1 4 277.69 393.44 39.55 o
-6 1 4 1466.65 1646.47 67.88 o
-5 1 4 88.00 85.49 16.61 o
-4 1 4 572.02 681.28 19.59 o
-3 1 4 8384.00 8478.02 137.62 o
-2 1 4 502.48 422.32 17.97 o
-1 1 4 24976.11 22558.97 539.36 o
0 1 4 844.86 874.46 22.39 o
1 1 4 16871.03 17706.38 342.22 o
2 1 4 6494.73 6905.97 88.36 o
3 1 4 4390.80 4661.40 60.24 o
4 1 4 34963.29 35444.54 416.83 o
5 1 4 1226.25 1338.07 26.27 o
6 1 4 17158.52 17082.78 253.38 o
7 1 4 2.68 25.60 13.76 o
8 1 4 1847.78 1713.48 52.03 o
9 1 4 1742.73 1904.51 59.30 o
-8 2 4 229.98 315.16 54.00 o
-7 2 4 1145.26 1560.39 94.77 o
-6 2 4 42.75 52.34 28.10 o
-5 2 4 563.02 759.61 42.47 o
-4 2 4 9706.89 9578.06 190.52 o
-3 2 4 464.30 622.91 27.80 o
-2 2 4 27864.00 26870.37 392.31 o
-1 2 4 100.19 150.73 6.82 o
0 2 4 12683.26 12693.69 222.80 o
1 2 4 9081.11 9036.48 285.59 o
2 2 4 3663.37 3784.34 52.14 o
3 2 4 31088.03 31446.65 393.52 o
4 2 4 269.20 310.03 11.44 o
5 2 4 18735.27 18963.43 228.48 o
6 2 4 447.16 469.06 19.41 o
7 2 4 3066.37 3141.19 70.90 o
8 2 4 1928.66 1849.61 53.02 o
9 2 4 160.02 154.41 22.45 o
10 2 4 2236.77 2190.62 68.31 o
-7 3 4 52.28 74.93 40.77 o
-6 3 4 259.92 433.63 52.34 o
-5 3 4 2911.38 2766.50 126.73 o
-4 3 4 153.62 138.93 25.90 o
-3 3 4 12774.22 12706.83 246.61 o
-2 3 4 449.32 461.02 15.40 o
-1 3 4 11663.26 11791.41 201.18 o
0 3 4 2841.05 2945.45 73.82 o
1 3 4 1958.90 2018.02 45.92 o
2 3 4 39921.36 40777.98 538.72 o
3 3 4 1046.92 1278.26 23.12 o
4 3 4 35576.54 35544.11 445.58 o
5 3 4 1043.83 1072.87 22.91 o
6 3 4 3800.21 4131.45 89.77 o
7 3 4 2593.09 2586.40 57.39 o
8 3 4 144.70 156.96 19.63 o
9 3 4 3768.46 3893.85 103.46 o
10 3 4 419.24 361.62 30.35 o
-7 4 4 43.29 66.12 46.83 o
-6 4 4 1782.71 1644.14 106.89 o
-5 4 4 529.19 396.16 52.89 o
-4 4 4 5765.98 6049.16 170.64 o
-3 4 4 724.52 660.91 36.61 o
-2 4 4 4032.12 4172.61 74.60 o
-1 4 4 3088.13 3041.68 56.86 o
0 4 4 159.69 215.36 10.13 o
1 4 4 15355.75 14978.65 214.70 o
2 4 4 574.34 640.39 17.74 o
3 4 4 15024.75 14940.41 200.76 o
4 4 4 720.87 733.19 17.85 o
5 4 4 4456.06 4391.28 64.54 o
6 4 4 2207.79 2122.69 47.45 o
7 4 4 4.62 24.55 13.74 o
8 4 4 3211.23 3083.31 102.98 o
9 4 4 730.39 793.26 40.96 o
10 4 4 1297.03 1305.50 70.08 o
-6 5 4 189.07 116.26 50.14 o
-5 5 4 1621.45 1628.16 108.54 o
-4 5 4 431.63 411.97 40.71 o
-3 5 4 3841.18 3795.35 97.57 o
-2 5 4 775.16 753.90 35.82 o
-1 5 4 323.24 375.72 22.68 o
0 5 4 6138.30 6325.41 101.79 o
1 5 4 2912.73 2900.51 44.22 o
2 5 4 16313.96 15499.54 275.90 o
3 5 4 2911.70 3112.00 52.07 o
4 5 4 4320.76 4281.27 66.43 o
5 5 4 1485.07 1452.19 29.17 o
6 5 4 1128.28 1121.30 33.02 o
7 5 4 2306.19 2184.41 58.39 o
8 5 4 2721.37 2672.99 77.03 o
9 5 4 941.92 909.86 68.14 o
10 5 4 768.00 730.43 42.18 o
-5 6 4 650.76 602.78 80.44 o
-4 6 4 477.73 626.15 54.35 o
-3 6 4 834.21 784.34 39.43 o
-2 6 4 200.94 162.55 21.02 o
-1 6 4 1788.10 1810.68 53.04 o
0 6 4 1992.46 1908.47 47.54 o
1 6 4 2693.15 2636.13 52.33 o
2 6 4 762.30 792.72 29.90 o
3 6 4 1851.82 1762.27 36.61 o
4 6 4 721.00 701.53 21.69 o
5 6 4 130.58 203.18 16.79 o
6 6 4 1081.41 988.74 32.13 o
7 6 4 2340.38 2521.31 86.75 o
8 6 4 429.14 394.58 33.75 o
9 6 4 1469.84 1500.71 59.34 o
10 6 4 9.68 22.40 23.24 o
-4 7 4 270.54 206.76 25.95 o
-3 7 4 13.19 52.23 21.64 o
-2 7 4 127.13 159.35 24.12 o
-1 7 4 1414.54 1396.14 80.24 o
0 7 4 994.27 1083.13 56.27 o
1 7 4 2107.63 2018.51 54.24 o
2 7 4 1237.49 1191.20 46.24 o
3 7 4 646.98 719.67 22.51 o
4 7 4 1953.31 2012.81 64.32 o
5 7 4 6.20 33.98 13.32 o
6 7 4 5798.75 5890.94 165.63 o
7 7 4 9.76 29.27 18.70 o
8 7 4 1574.01 1447.84 57.25 o
9 7 4 232.55 321.17 32.69 o
-3 8 4 21.81 39.61 24.61 o
-2 8 4 865.72 832.59 47.93 o
-1 8 4 59.05 110.72 24.87 o
0 8 4 1075.34 953.40 98.88 o
1 8 4 3.54 21.70 16.88 o
2 8 4 226.74 282.59 107.72 o
3 8 4 815.37 678.52 51.99 o
4 8 4 121.22 122.67 30.15 o
5 8 4 2207.81 2260.18 74.43 o
6 8 4 261.11 377.64 31.31 o
7 8 4 1481.62 1632.08 61.69 o
8 8 4 495.26 589.62 41.04 o
9 8 4 157.06 163.61 29.59 o
-2 9 4 42.75 35.81 40.77 o
-1 9 4 1092.90 1099.77 92.57 o
0 9 4 70.60 39.67 39.67 o
1 9 4 50.21 67.63 30.36 o
2 9 4 885.90 870.35 63.84 o
3 9 4 942.16 896.50 63.38 o
4 9 4 3066.92 2707.53 108.01 o
5 9 4 1253.66 1245.78 109.10 o
6 9 4 1516.72 1533.98 82.74 o
7 9 4 1068.85 1163.26 60.42 o
8 9 4 4.18 17.53 24.17 o
0 10 4 10.98 8.82 42.98 o
1 10 4 350.90 258.41 58.96 o
2 10 4 338.69 361.96 48.24 o
3 10 4 842.27 738.66 63.55 o
4 10 4 1018.35 977.08 72.48 o
5 10 4 808.80 869.46 103.03 o
6 10 4 1361.89 1435.87 127.28 o
7 10 4 0.55 -1.10 51.24 o
-4 -8 5 674.22 741.42 58.34 o
-3 -8 5 559.85 597.31 52.32 o
-2 -8 5 1164.17 1179.54 68.41 o
-1 -8 5 83.76 86.58 20.60 o
0 -8 5 2085.17 1994.90 68.20 o
1 -8 5 324.60 280.98 73.28 o
2 -8 5 1186.50 1283.21 93.67 o
-6 -7 5 2561.79 2524.02 75.09 o
-5 -7 5 1672.16 1848.14 59.79 o
-4 -7 5 1669.62 1655.75 48.83 o
-3 -7 5 1463.95 1581.46 58.55 o
-2 -7 5 179.76 176.31 28.77 o
-1 -7 5 2537.45 2621.29 83.43 o
0 -7 5 2496.32 2583.24 74.56 o
1 -7 5 2070.60 2031.97 66.86 o
2 -7 5 848.77 859.64 72.56 o
3 -7 5 60.64 33.46 56.20 o
-7 -6 5 1422.95 1591.80 161.99 o
-6 -6 5 1945.38 2023.54 98.55 o
-5 -6 5 347.22 305.44 20.81 o
-4 -6 5 1036.00 953.18 41.99 o
-3 -6 5 746.33 835.81 32.08 o
-2 -6 5 1451.39 1462.75 53.36 o
-1 -6 5 2669.62 2733.48 88.50 o
0 -6 5 1243.61 1311.63 48.22 o
1 -6 5 1264.91 1313.85 50.35 o
2 -6 5 59.80 101.31 22.64 o
3 -6 5 377.44 394.79 55.14 o
4 -6 5 447.73 442.18 46.01 o
5 -6 5 158.76 190.39 38.46 o
-7 -5 5 2800.70 2848.60 211.58 o
-6 -5 5 409.45 309.85 39.76 o
-5 -5 5 1390.58 1345.53 191.74 o
-4 -5 5 517.62 555.72 32.37 o
-3 -5 5 624.60 663.55 25.25 o
-2 -5 5 8693.14 8760.58 151.79 o
-1 -5 5 475.52 500.53 21.65 o
0 -5 5 4333.18 4230.09 94.37 o
1 -5 5 2.69 4.35 14.46 o
2 -5 5 25.04 136.32 34.36 o
3 -5 5 1768.77 1697.85 50.31 o
4 -5 5 89.36 126.82 29.47 o
5 -5 5 2453.84 2572.76 112.16 o
6 -5 5 21.78 21.57 29.92 o
-8 -4 5 1743.72 1964.82 184.58 o
-7 -4 5 6.65 -14.88 63.91 o
-6 -4 5 456.03 429.22 85.40 o
-5 -4 5 1025.35 1165.29 59.99 o
-4 -4 5 6.19 3.55 17.43 o
-3 -4 5 5775.17 5642.65 131.86 o
-2 -4 5 90.00 93.16 10.12 o
-1 -4 5 2253.53 2130.84 47.15 o
0 -4 5 166.61 200.49 17.29 o
1 -4 5 25.70 53.81 12.94 o
2 -4 5 2166.85 2171.13 47.89 o
3 -4 5 328.30 363.60 21.86 o
4 -4 5 3981.20 4131.98 164.51 o
5 -4 5 501.90 549.36 42.38 o
6 -4 5 1121.74 1177.44 60.75 o
7 -4 5 404.22 374.86 57.71 o
-8 -3 5 5.19 -12.12 70.53 o
-7 -3 5 1238.48 1314.10 133.89 o
-6 -3 5 658.55 792.87 101.93 o
-5 -3 5 115.03 136.09 22.00 o
-4 -3 5 8551.74 8238.68 237.24 o
-3 -3 5 1731.86 1701.36 36.56 o
-2 -3 5 9327.39 8932.56 124.45 o
-1 -3 5 1042.27 997.95 23.25 o
0 -3 5 37.26 124.85 11.90 o
1 -3 5 4517.67 4471.59 72.53 o
2 -3 5 6330.32 6316.74 99.04 o
3 -3 5 6714.29 6865.20 115.22 o
4 -3 5 2542.01 2582.06 51.14 o
5 -3 5 1234.79 1331.78 53.28 o
6 -3 5 901.84 927.51 42.01 o
7 -3 5 80.97 70.22 27.58 o
8 -3 5 1071.28 1034.67 62.20 o
-8 -2 5 248.08 247.64 34.88 o
-7 -2 5 1005.07 1300.88 134.44 o
-6 -2 5 772.42 997.84 109.65 o
-5 -2 5 3772.74 3857.67 148.63 o
-4 -2 5 2970.49 3189.26 60.10 o
-3 -2 5 2919.86 2666.95 51.14 o
-2 -2 5 2712.77 2581.37 53.99 o
-1 -2 5 54.20 115.07 11.79 o
0 -2 5 5823.90 5560.11 85.73 o
1 -2 5 7534.32 7424.81 95.27 o
2 -2 5 9098.67 9437.08 128.76 o
3 -2 5 11145.93 11017.19 137.71 o
4 -2 5 3208.34 3374.96 55.48 o
5 -2 5 4954.76 5241.33 101.11 o
6 -2 5 70.59 58.04 16.84 o
7 -2 5 2205.56 2163.02 75.27 o
8 -2 5 1799.60 1833.64 77.41 o
-8 -1 5 371.66 496.97 44.55 o
-7 -1 5 485.32 486.52 40.54 o
-6 -1 5 1917.18 1962.56 72.71 o
-5 -1 5 5573.44 5768.20 155.72 o
-4 -1 5 5272.96 5434.51 190.78 o
-3 -1 5 5462.02 5351.91 184.10 o
-2 -1 5 121.03 162.82 23.83 o
-1 -1 5 8265.66 7988.01 125.46 o
0 -1 5 25603.74 25130.58 409.34 o
1 -1 5 8899.37 8730.38 109.05 o
2 -1 5 27596.58 28657.44 368.04 o
3 -1 5 1551.05 1568.09 32.49 o
4 -1 5 5525.32 5612.47 82.02 o
5 -1 5 946.15 916.86 23.47 o
6 -1 5 2960.92 2990.44 62.80 o
7 -1 5 4117.01 3865.57 89.74 o
8 -1 5 1082.34 1178.02 59.36 o
9 -1 5 1582.22 1458.91 69.43 o
-8 0 5 618.74 535.01 54.00 o
-7 0 5 700.57 838.46 52.16 o
-6 0 5 3001.90 3234.89 107.32 o
-5 0 5 1484.51 1660.39 55.21 o
-4 0 5 4930.57 5008.37 189.11 o
-3 0 5 27.64 21.49 18.50 o
-2 0 5 7280.55 6946.02 291.75 o
-1 0 5 19424.00 17724.33 944.39 o
0 0 5 2998.90 2746.99 49.70 o
1 0 5 35056.18 35825.89 454.69 o
2 0 5 1859.01 1782.26 32.85 o
3 0 5 18910.35 18955.58 236.84 o
4 0 5 573.43 592.09 15.61 o
5 0 5 4370.07 4590.22 71.62 o
6 0 5 9105.23 9168.40 152.41 o
7 0 5 377.76 442.38 24.39 o
8 0 5 5234.91 5347.89 134.15 o
9 0 5 2.27 35.65 26.96 o
-8 1 5 101.30 120.11 39.12 o
-7 1 5 3063.74 3136.76 139.40 o
-6 1 5 384.54 517.44 40.30 o
-5 1 5 6089.63 6286.29 182.15 o
-4 1 5 111.97 94.18 7.90 o
-3 1 5 1833.08 1860.70 36.38 o
-2 1 5 16657.54 15251.90 865.05 o
-1 1 5 499.40 486.73 32.00 o
0 1 5 37983.16 37891.46 769.17 o
1 1 5 1526.69 1617.61 28.58 o
2 1 5 15540.27 15989.86 229.81 o
3 1 5 1497.10 1486.60 23.92 o
4 1 5 2966.52 3057.58 43.64 o
5 1 5 11367.46 11250.60 145.30 o
6 1 5 932.06 997.67 28.51 o
7 1 5 6489.84 6394.62 112.84 o
8 1 5 23.53 25.45 17.42 o
9 1 5 1124.55 1066.91 55.93 o
-7 2 5 13.06 81.55 34.16 o
-6 2 5 1625.97 1688.77 90.91 o
-5 2 5 25.41 17.63 20.39 o
-4 2 5 1109.32 1235.51 62.11 o
-3 2 5 4210.47 4004.35 66.77 o
-2 2 5 391.18 415.06 12.58 o
-1 2 5 23075.65 22248.74 438.65 o
0 2 5 68.92 122.87 21.82 o
1 2 5 29931.08 30528.02 518.80 o
2 2 5 1648.37 1816.56 36.00 o
3 2 5 4446.25 4681.28 60.90 o
4 2 5 12019.63 11971.49 146.84 o
5 2 5 433.76 479.37 15.10 o
6 2 5 10548.81 10550.53 148.88 o
7 2 5 329.52 326.36 22.83 o
8 2 5 1860.85 1895.31 54.91 o
9 2 5 601.45 627.89 36.59 o
10 2 5 32.08 78.44 29.46 o
-7 3 5 1675.46 1827.62 113.50 o
-6 3 5 114.39 84.85 35.26 o
-5 3 5 419.81 527.38 66.67 o
-4 3 5 3151.08 3007.99 92.70 o
-3 3 5 503.01 428.37 27.41 o
-2 3 5 14184.83 13534.69 204.56 o
-1 3 5 79.01 92.43 15.25 o
0 3 5 12074.50 12357.54 209.45 o
1 3 5 700.51 761.04 19.10 o
2 3 5 48.70 67.20 6.62 o
3 3 5 6007.37 5978.57 81.42 o
4 3 5 60.77 90.72 8.01 o
5 3 5 7777.35 7707.83 109.86 o
6 3 5 125.67 161.79 13.53 o
7 3 5 2781.69 2701.95 56.95 o
8 3 5 1073.93 1083.60 40.79 o
9 3 5 16.81 35.60 19.24 o
10 3 5 1740.22 1685.97 68.27 o
-6 4 5 54.57 31.41 38.57 o
-5 4 5 491.91 466.98 41.29 o
-4 4 5 133.69 123.00 24.24 o
-3 4 5 4080.20 4128.57 122.53 o
-2 4 5 649.76 638.24 45.54 o
-1 4 5 9964.14 10108.30 163.24 o
0 4 5 1760.55 1818.02 40.03 o
1 4 5 1320.04 1423.83 25.80 o
2 4 5 2665.92 2722.27 50.57 o
3 4 5 1781.04 1806.48 36.10 o
4 4 5 6931.18 6956.32 95.68 o
5 4 5 3297.58 3261.41 53.39 o
6 4 5 2084.62 2033.29 46.97 o
7 4 5 1642.45 1511.00 41.05 o
8 4 5 1060.81 1081.69 41.43 o
9 4 5 675.85 719.69 37.61 o
10 4 5 1874.31 1820.37 60.69 o
-6 5 5 236.83 215.44 57.30 o
-5 5 5 490.90 435.97 44.61 o
-4 5 5 1563.65 1705.53 76.15 o
-3 5 5 1229.34 1091.06 57.63 o
-2 5 5 2116.33 2192.27 45.21 o
-1 5 5 267.73 288.49 19.18 o
0 5 5 141.51 116.76 13.58 o
1 5 5 587.51 657.41 38.41 o
2 5 5 3357.70 3184.42 84.24 o
3 5 5 2453.78 2412.42 61.32 o
4 5 5 1517.75 1630.58 39.90 o
5 5 5 394.68 389.74 16.46 o
6 5 5 628.98 637.93 26.16 o
7 5 5 1192.83 1234.20 42.49 o
8 5 5 593.68 570.76 36.05 o
9 5 5 2334.80 2300.52 70.22 o
10 5 5 223.21 192.92 26.95 o
-5 6 5 236.42 317.92 67.77 o
-4 6 5 929.02 896.85 64.76 o
-3 6 5 875.24 1051.27 63.33 o
-2 6 5 1361.63 1337.18 47.38 o
-1 6 5 27.06 83.07 16.04 o
0 6 5 335.62 355.80 23.71 o
1 6 5 3507.78 3324.85 73.93 o
2 6 5 26.31 68.33 11.15 o
3 6 5 5777.99 5669.04 93.28 o
4 6 5 29.73 74.09 11.51 o
5 6 5 835.52 809.00 30.54 o
6 6 5 2608.97 2737.34 69.70 o
7 6 5 76.40 94.50 17.74 o
8 6 5 4765.46 5070.69 124.51 o
9 6 5 17.37 26.29 23.16 o
10 6 5 2030.11 2006.81 73.79 o
-4 7 5 38.31 80.99 54.00 o
-3 7 5 157.40 138.09 21.06 o
-2 7 5 300.65 295.04 27.85 o
-1 7 5 179.62 226.29 28.40 o
0 7 5 2795.36 2690.31 71.09 o
1 7 5 78.66 90.10 17.30 o
2 7 5 3179.42 2983.79 73.01 o
3 7 5 350.70 369.85 25.46 o
4 7 5 320.01 352.77 21.99 o
5 7 5 2797.16 2884.39 67.96 o
6 7 5 43.02 67.05 15.99 o
7 7 5 4453.43 4730.30 117.66 o
8 7 5 115.71 156.22 26.05 o
9 7 5 2557.34 2619.15 83.64 o
-3 8 5 20.88 49.68 22.56 o
-2 8 5 43.91 56.29 22.96 o
-1 8 5 1033.77 994.32 109.17 o
0 8 5 364.58 350.31 33.15 o
1 8 5 3102.98 3071.16 80.96 o
2 8 5 1278.51 1071.44 43.43 o
3 8 5 361.79 300.07 38.26 o
4 8 5 2240.56 2184.01 89.47 o
5 8 5 965.65 1048.40 48.87 o
6 8 5 4279.69 4482.77 98.77 o
7 8 5 1496.06 1729.24 65.53 o
8 8 5 2674.32 2901.25 88.21 o
9 8 5 1002.51 1065.10 56.45 o
-2 9 5 550.31 501.95 60.06 o
-1 9 5 467.03 368.06 58.40 o
0 9 5 1110.62 1085.44 91.46 o
1 9 5 566.53 424.26 63.36 o
2 9 5 275.68 237.59 38.91 o
3 9 5 1751.86 1569.81 80.70 o
4 9 5 252.68 336.54 43.85 o
5 9 5 3354.24 3131.80 118.60 o
6 9 5 1030.37 1072.77 105.24 o
7 9 5 2204.82 2203.32 106.64 o
8 9 5 1333.29 1432.66 75.69 o
0 10 5 703.04 555.94 73.28 o
1 10 5 281.51 336.10 62.26 o
2 10 5 1046.16 839.15 89.81 o
3 10 5 520.38 511.42 55.78 o
4 10 5 1344.45 1201.56 78.68 o
5 10 5 1960.30 1981.10 97.95 o
6 10 5 1387.12 1419.34 128.38 o
7 10 5 1466.08 1436.97 127.83 o
-3 -8 6 959.70 1044.72 80.22 o
-2 -8 6 900.66 904.76 75.32 o
-1 -8 6 604.93 644.40 48.76 o
0 -8 6 9.08 27.08 24.17 o
-5 -7 6 884.03 798.07 42.47 o
-4 -7 6 1170.57 1358.01 64.74 o
-3 -7 6 621.51 655.77 41.96 o
-2 -7 6 228.91 279.98 33.87 o
-1 -7 6 284.80 219.29 32.99 o
0 -7 6 326.39 351.11 31.77 o
1 -7 6 1539.94 1507.71 63.70 o
2 -7 6 351.29 310.81 51.57 o
3 -7 6 559.55 590.75 68.83 o
-6 -6 6 429.55 446.20 46.46 o
-5 -6 6 2693.87 2553.73 97.03 o
-4 -6 6 340.51 304.94 21.77 o
-3 -6 6 1652.55 1642.91 46.17 o
-2 -6 6 499.39 489.19 34.53 o
-1 -6 6 57.96 100.17 32.57 o
0 -6 6 4068.09 3943.16 94.29 o
1 -6 6 32.16 13.38 18.79 o
2 -6 6 2329.78 2367.83 72.15 o
3 -6 6 61.46 42.04 37.79 o
4 -6 6 74.27 196.91 80.99 o
-7 -5 6 29.52 9.37 71.08 o
-6 -5 6 3213.57 3377.68 241.61 o
-5 -5 6 48.27 25.70 23.55 o
-4 -5 6 596.41 567.37 34.16 o
-3 -5 6 1075.24 1075.90 32.60 o
-2 -5 6 268.90 293.02 19.75 o
-1 -5 6 4813.28 4746.47 123.24 o
0 -5 6 84.74 87.99 16.83 o
1 -5 6 2640.89 2536.54 79.53 o
2 -5 6 115.53 113.36 22.27 o
3 -5 6 455.63 483.47 33.93 o
4 -5 6 2219.02 1922.10 302.22 o
5 -5 6 27.51 39.97 30.97 o
6 -5 6 2135.75 2093.13 126.64 o
-7 -4 6 2676.14 3282.22 227.01 o
-6 -4 6 134.66 154.59 44.63 o
-5 -4 6 2023.67 1854.57 80.60 o
-4 -4 6 1724.42 1749.35 67.41 o
-3 -4 6 444.96 519.58 28.77 o
-2 -4 6 6535.77 6398.02 136.33 o
-1 -4 6 3229.72 3165.46 68.62 o
0 -4 6 8644.46 8225.01 167.09 o
1 -4 6 2885.03 2913.35 70.37 o
2 -4 6 719.50 816.86 32.83 o
3 -4 6 4650.97 4601.76 96.64 o
4 -4 6 2308.71 2197.81 93.12 o
5 -4 6 3292.16 3420.69 106.82 o
6 -4 6 1182.84 1129.84 63.70 o
-7 -3 6 339.61 407.73 94.77 o
-6 -3 6 754.76 851.82 115.71 o
-5 -3 6 1174.95 1226.63 58.02 o
-4 -3 6 1450.74 1464.93 64.35 o
-3 -3 6 5677.83 5572.33 117.87 o
-2 -3 6 3878.91 4093.48 82.70 o
-1 -3 6 7588.41 7255.95 155.49 o
0 -3 6 4333.55 4252.80 93.46 o
1 -3 6 148.76 148.83 13.22 o
2 -3 6 6889.55 6647.19 114.84 o
3 -3 6 3448.99 3495.10 70.44 o
4 -3 6 5299.05 5225.01 100.92 o
5 -3 6 3501.16 3265.91 141.87 o
6 -3 6 1539.54 1605.69 94.52 o
7 -3 6 1822.28 1685.88 85.29 o
-7 -2 6 918.89 1027.04 129.48 o
-6 -2 6 1636.41 2035.34 159.79 o
-5 -2 6 746.95 911.33 104.14 o
-4 -2 6 3696.87 3680.26 68.86 o
-3 -2 6 11416.28 11102.87 175.15 o
-2 -2 6 6216.55 5936.42 98.54 o
-1 -2 6 13477.75 13136.15 206.33 o
0 -2 6 623.62 510.62 18.68 o
1 -2 6 6772.07 6851.44 102.88 o
2 -2 6 6617.29 6631.97 106.00 o
3 -2 6 6150.29 6191.60 103.85 o
4 -2 6 9029.85 8929.44 155.24 o
5 -2 6 3741.70 3840.05 89.64 o
6 -2 6 2425.08 2393.12 64.13 o
7 -2 6 2.70 19.55 19.56 o
8 -2 6 647.40 639.20 65.64 o
-7 -1 6 520.00 457.81 40.25 o
-6 -1 6 1118.87 994.61 47.12 o
-5 -1 6 1313.87 1469.34 72.17 o
-4 -1 6 6918.88 7137.17 244.73 o
-3 -1 6 4396.67 4421.51 161.94 o
-2 -1 6 8329.83 7905.02 303.59 o
-1 -1 6 412.27 379.24 13.35 o
0 -1 6 8243.75 7831.24 134.16 o
1 -1 6 7768.91 7641.07 104.47 o
2 -1 6 7312.42 7111.03 92.22 o
3 -1 6 15322.80 15397.85 204.48 o
4 -1 6 2698.57 2805.81 50.84 o
5 -1 6 9380.20 9353.92 182.63 o
6 -1 6 293.34 262.71 22.93 o
7 -1 6 1401.42 1485.30 50.10 o
8 -1 6 1714.23 1683.57 70.00 o
-7 0 6 230.27 171.96 28.95 o
-6 0 6 471.01 586.36 38.72 o
-5 0 6 6225.29 5775.16 192.85 o
-4 0 6 786.12 959.95 65.06 o
-3 0 6 14330.93 13376.78 778.54 o
-2 0 6 6.28 37.14 15.52 o
-1 0 6 4026.67 3817.03 66.09 o
0 0 6 5932.91 6051.83 103.88 o
1 0 6 1555.20 1502.07 32.09 o
2 0 6 19603.42 19959.21 290.57 o
3 0 6 4588.37 4764.87 73.04 o
4 0 6 9805.88 9800.28 171.25 o
5 0 6 133.95 148.95 12.89 o
6 0 6 475.90 496.55 26.49 o
7 0 6 1777.39 1848.79 53.95 o
8 0 6 181.80 256.97 32.43 o
9 0 6 2155.31 2094.52 80.24 o
-7 1 6 12.69 61.71 30.86 o
-6 1 6 3125.18 2846.94 121.22 o
-5 1 6 260.33 375.21 31.11 o
-4 1 6 5775.85 5509.17 87.88 o
-3 1 6 154.48 221.77 15.65 o
-2 1 6 3432.02 3267.74 179.83 o
-1 1 6 2969.80 2902.90 86.77 o
0 1 6 2827.55 3027.21 82.21 o
1 1 6 18265.17 18580.66 346.81 o
2 1 6 882.28 893.94 19.61 o
3 1 6 15942.08 16517.81 227.71 o
4 1 6 735.19 832.41 18.88 o
5 1 6 1818.00 1886.31 33.52 o
6 1 6 3605.63 3571.15 62.99 o
7 1 6 78.23 175.14 19.73 o
8 1 6 3145.97 3166.12 91.82 o
9 1 6 412.67 380.16 38.12 o
-7 2 6 1075.83 1106.93 82.10 o
-6 2 6 45.22 42.43 29.20 o
-5 2 6 4680.55 4511.26 124.66 o
-4 2 6 162.63 98.75 14.76 o
-3 2 6 1777.90 1742.96 34.16 o
-2 2 6 2469.51 2215.72 43.52 o
-1 2 6 733.56 731.17 23.40 o
0 2 6 12523.88 12379.58 257.53 o
1 2 6 12.65 32.04 8.88 o
2 2 6 12453.18 13087.34 236.29 o
3 2 6 282.73 316.62 11.78 o
4 2 6 111.79 137.84 8.91 o
5 2 6 1626.08 1596.36 29.58 o
6 2 6 964.95 1026.36 27.97 o
7 2 6 4283.20 4201.42 90.48 o
8 2 6 489.72 396.07 32.96 o
9 2 6 859.31 766.92 47.62 o
10 2 6 691.26 696.37 61.63 o
-6 3 6 1867.87 1767.01 104.14 o
-5 3 6 149.88 181.50 25.71 o
-4 3 6 605.00 581.56 36.62 o
-3 3 6 1096.77 1022.45 61.16 o
-2 3 6 140.44 129.08 11.27 o
-1 3 6 5406.03 4925.16 84.48 o
0 3 6 725.76 800.17 53.16 o
1 3 6 6456.36 6387.73 118.25 o
2 3 6 2389.36 2672.73 53.63 o
3 3 6 5.19 15.60 6.30 o
4 3 6 2326.68 2410.07 40.72 o
5 3 6 3360.39 3574.49 53.59 o
6 3 6 1897.51 1867.47 34.90 o
7 3 6 4139.04 4009.72 77.17 o
8 3 6 116.68 151.98 20.53 o
9 3 6 1244.49 1268.36 57.08 o
10 3 6 423.09 416.46 40.41 o
-6 4 6 568.00 550.43 68.32 o
-5 4 6 103.09 138.71 32.23 o
-4 4 6 228.31 270.84 31.35 o
-3 4 6 1437.77 1374.46 59.22 o
-2 4 6 1243.56 1340.86 49.35 o
-1 4 6 3860.15 3484.42 90.40 o
0 4 6 2600.90 2751.19 67.18 o
1 4 6 223.13 225.55 12.80 o
2 4 6 138.76 114.73 9.25 o
3 4 6 40.29 184.89 14.87 o
4 4 6 6788.04 6936.07 100.04 o
5 4 6 1231.20 1193.04 27.04 o
6 4 6 5552.53 5600.42 102.97 o
7 4 6 100.22 70.92 13.90 o
8 4 6 1204.56 1161.77 43.20 o
9 4 6 889.79 890.57 49.96 o
10 4 6 517.90 526.38 42.25 o
-5 5 6 121.46 246.29 56.75 o
-4 5 6 316.86 326.73 38.52 o
-3 5 6 613.55 723.07 49.76 o
-2 5 6 2326.60 2220.46 130.58 o
-1 5 6 447.80 504.58 32.58 o
0 5 6 2787.12 2691.17 66.89 o
1 5 6 1101.66 1089.67 36.29 o
2 5 6 484.76 480.91 19.60 o
3 5 6 8768.65 8951.67 136.00 o
4 5 6 57.35 92.59 11.35 o
5 5 6 9446.72 9626.15 136.65 o
6 5 6 633.74 746.37 28.33 o
7 5 6 2212.48 2215.06 57.19 o
8 5 6 1981.74 2111.32 68.06 o
9 5 6 79.57 72.88 24.54 o
10 5 6 2435.79 2515.66 84.38 o
-5 6 6 330.89 316.82 69.42 o
-4 6 6 3.48 41.24 30.32 o
-3 6 6 2523.81 2620.23 100.98 o
-2 6 6 7.95 33.89 24.55 o
-1 6 6 963.65 895.57 71.35 o
0 6 6 497.11 427.88 25.53 o
1 6 6 743.96 779.94 34.61 o
2 6 6 5044.23 4804.93 98.28 o
3 6 6 265.15 351.61 17.67 o
4 6 6 9233.80 9133.82 155.32 o
5 6 6 237.07 312.97 17.17 o
6 6 6 2753.21 2660.99 59.12 o
7 6 6 2852.97 3092.02 73.07 o
8 6 6 99.46 99.76 22.98 o
9 6 6 4151.42 4371.76 115.78 o
10 6 6 10.84 33.30 27.10 o
-4 7 6 893.12 1184.62 116.26 o
-3 7 6 36.02 7.71 28.45 o
-2 7 6 1030.68 1093.55 55.68 o
-1 7 6 662.54 637.16 37.40 o
0 7 6 127.22 152.73 21.91 o
1 7 6 3923.10 3746.27 88.01 o
2 7 6 261.59 285.10 25.83 o
3 7 6 8978.08 8532.53 147.22 o
4 7 6 2325.41 2360.09 61.63 o
5 7 6 3139.92 3044.53 89.30 o
6 7 6 3460.22 3552.14 80.67 o
7 7 6 4.66 25.51 16.86 o
8 7 6 3747.99 3855.75 104.52 o
9 7 6 462.61 526.25 41.08 o
-3 8 6 400.27 511.32 79.89 o
-2 8 6 79.46 75.71 22.13 o
-1 8 6 35.29 48.73 21.63 o
0 8 6 1500.31 1555.16 70.58 o
1 8 6 1102.33 1168.15 52.26 o
2 8 6 4992.46 4747.97 108.93 o
3 8 6 1502.45 1374.69 48.71 o
4 8 6 2260.82 2175.54 90.36 o
5 8 6 2729.42 2682.00 141.33 o
6 8 6 0.04 19.87 19.86 o
7 8 6 4793.98 5187.09 129.30 o
8 8 6 587.54 618.95 42.42 o
9 8 6 2590.63 2700.37 88.32 o
-1 9 6 916.95 847.54 80.75 o
0 9 6 398.77 361.21 41.76 o
1 9 6 2010.44 1931.21 117.36 o
2 9 6 1549.36 1416.03 100.83 o
3 9 6 1285.13 1174.24 71.39 o
4 9 6 1692.19 1551.27 67.94 o
5 9 6 0.52 7.12 28.73 o
6 9 6 1884.49 1840.31 89.18 o
7 9 6 964.10 985.71 104.69 o
8 9 6 1519.37 1547.96 88.63 o
0 10 6 644.90 583.49 72.18 o
1 10 6 799.32 671.10 79.34 o
2 10 6 580.56 504.70 72.18 o
3 10 6 785.36 640.80 80.44 o
4 10 6 1.67 -32.59 26.01 o
5 10 6 1692.23 1609.68 108.27 o
6 10 6 911.23 869.70 71.43 o
7 10 6 1205.93 1147.70 121.22 o
-4 -7 7 434.88 415.49 33.40 o
-3 -7 7 2658.57 2959.57 128.27 o
-2 -7 7 31.42 64.93 35.47 o
-1 -7 7 1416.64 1564.22 107.44 o
0 -7 7 814.37 730.37 33.92 o
1 -7 7 66.99 118.46 27.50 o
2 -7 7 1839.67 1753.03 100.09 o
-5 -6 7 13.96 27.87 29.02 o
-4 -6 7 3813.02 3875.43 127.21 o
-3 -6 7 1.88 25.48 15.32 o
-2 -6 7 1062.97 1012.13 53.98 o
-1 -6 7 733.77 772.18 49.61 o
0 -6 7 112.52 106.33 19.62 o
1 -6 7 4000.79 3834.61 95.63 o
2 -6 7 150.97 133.59 26.24 o
3 -6 7 2846.76 2863.98 128.02 o
4 -6 7 192.32 154.29 47.64 o
-6 -5 7 26.42 53.42 28.07 o
-5 -5 7 3722.49 3711.90 120.83 o
-4 -5 7 353.42 420.86 31.46 o
-3 -5 7 2297.40 2234.58 67.59 o
-2 -5 7 2632.90 2543.53 58.63 o
-1 -5 7 58.40 87.04 22.28 o
0 -5 7 5712.94 5439.73 141.01 o
1 -5 7 1755.16 1796.09 56.13 o
2 -5 7 4595.37 4501.42 105.72 o
3 -5 7 1627.73 1612.57 58.26 o
4 -5 7 607.19 532.26 137.47 o
5 -5 7 1024.92 965.47 96.42 o
-6 -4 7 3035.99 3026.16 166.98 o
-5 -4 7 851.99 902.48 60.66 o
-4 -4 7 2231.41 2102.62 61.32 o
-3 -4 7 1324.64 1381.17 47.65 o
-2 -4 7 459.17 539.80 31.54 o
-1 -4 7 6365.93 6246.15 151.23 o
0 -4 7 3355.69 3421.34 94.45 o
1 -4 7 9500.78 9202.01 178.77 o
2 -4 7 2840.88 2809.27 71.48 o
3 -4 7 866.29 963.07 41.93 o
4 -4 7 2228.98 1819.80 282.10 o
5 -4 7 404.20 338.96 82.92 o
6 -4 7 1983.92 1890.04 141.13 o
-7 -3 7 2005.00 2518.56 201.11 o
-6 -3 7 1415.61 1545.52 158.13 o
-5 -3 7 1546.96 1653.66 64.28 o
-4 -3 7 3085.87 2919.79 147.89 o
-3 -3 7 444.79 520.60 27.22 o
-2 -3 7 5260.05 4985.54 109.39 o
-1 -3 7 7464.66 7509.31 171.89 o
0 -3 7 5839.37 5707.61 136.22 o
1 -3 7 8504.42 8528.11 152.18 o
2 -3 7 1211.02 1245.07 39.55 o
3 -3 7 2740.39 2850.96 66.01 o
4 -3 7 385.71 363.40 39.13 o
5 -3 7 1925.84 1835.28 71.71 o
6 -3 7 1939.62 1723.66 71.62 o
7 -3 7 1295.35 1284.27 68.33 o
-7 -2 7 1869.46 2002.83 181.83 o
-6 -2 7 885.74 953.21 123.42 o
-5 -2 7 1108.38 1056.24 121.77 o
-4 -2 7 368.99 346.98 25.61 o
-3 -2 7 1889.07 1860.56 44.85 o
-2 -2 7 6359.13 6122.91 102.94 o
-1 -2 7 9449.60 9038.85 146.65 o
0 -2 7 8192.74 8009.11 159.97 o
1 -2 7 3603.82 3502.91 57.22 o
2 -2 7 4924.01 4926.84 88.35 o
3 -2 7 1518.13 1529.48 50.69 o
4 -2 7 3382.83 3373.22 70.31 o
5 -2 7 4249.58 4060.46 134.69 o
6 -2 7 966.76 913.57 51.00 o
7 -2 7 1695.75 1634.97 69.69 o
8 -2 7 99.78 121.24 32.66 o
-7 -1 7 228.88 358.61 33.93 o
-6 -1 7 1484.01 1393.61 60.88 o
-5 -1 7 271.78 212.13 63.91 o
-4 -1 7 1249.26 1312.37 79.90 o
-3 -1 7 5831.46 5616.12 162.68 o
-2 -1 7 2577.66 2451.23 55.53 o
-1 -1 7 16044.26 15937.55 245.91 o
0 -1 7 479.66 507.58 29.13 o
1 -1 7 5392.48 5336.35 125.40 o
2 -1 7 1126.45 1249.94 30.65 o
3 -1 7 466.61 502.41 22.83 o
4 -1 7 5697.98 5779.99 105.32 o
5 -1 7 842.26 866.25 38.69 o
6 -1 7 4054.62 3956.81 107.88 o
7 -1 7 122.45 197.96 30.19 o
8 -1 7 419.43 363.40 39.03 o
-7 0 7 512.50 506.91 49.59 o
-6 0 7 73.95 37.06 18.20 o
-5 0 7 129.19 127.60 16.24 o
-4 0 7 5039.40 4661.66 178.71 o
-3 0 7 994.04 1026.18 53.39 o
-2 0 7 12243.96 10919.89 420.95 o
-1 0 7 752.81 772.40 18.78 o
0 0 7 2975.08 2933.50 65.74 o
1 0 7 1504.41 1556.89 44.61 o
2 0 7 468.99 491.11 14.26 o
3 0 7 9352.55 9459.63 201.07 o
4 0 7 53.17 88.36 11.41 o
5 0 7 3513.03 3579.93 74.25 o
6 0 7 643.61 666.90 31.42 o
7 0 7 40.76 75.55 19.28 o
8 0 7 1972.17 1927.80 61.09 o
9 0 7 157.53 171.11 46.88 o
-7 1 7 196.64 217.09 39.12 o
-6 1 7 60.52 67.77 25.90 o
-5 1 7 2545.82 2537.84 104.14 o
-4 1 7 207.63 197.12 12.70 o
-3 1 7 6205.53 5378.48 262.02 o
-2 1 7 201.45 205.44 24.57 o
-1 1 7 1919.42 1860.48 45.36 o
0 1 7 360.61 346.48 15.47 o
1 1 7 587.53 569.13 20.90 o
2 1 7 4507.81 4642.33 93.91 o
3 1 7 1458.50 1523.09 31.24 o
4 1 7 5318.38 5288.94 88.75 o
5 1 7 236.71 304.66 29.91 o
6 1 7 126.27 153.50 15.67 o
7 1 7 752.49 763.56 34.72 o
8 1 7 756.11 827.03 40.23 o
9 1 7 1537.79 1647.56 71.36 o
-6 2 7 955.44 923.45 69.98 o
-5 2 7 282.72 286.67 25.52 o
-4 2 7 4144.13 4117.99 113.18 o
-3 2 7 99.17 160.31 14.62 o
-2 2 7 1105.00 1053.83 21.98 o
-1 2 7 846.54 877.53 27.74 o
0 2 7 851.03 840.78 30.91 o
1 2 7 7911.09 8137.57 179.81 o
2 2 7 4118.29 4291.80 74.73 o
3 2 7 2610.82 2761.23 46.68 o
4 2 7 3504.05 3685.42 59.66 o
5 2 7 1663.96 1683.16 33.75 o
6 2 7 1704.64 1809.96 49.90 o
7 2 7 3452.53 3381.93 77.43 o
8 2 7 1197.70 1159.39 44.11 o
9 2 7 1994.43 1964.84 73.47 o
-6 3 7 729.84 738.87 74.38 o
-5 3 7 922.52 1030.05 52.14 o
-4 3 7 1315.09 1263.36 56.48 o
-3 3 7 179.29 200.79 22.74 o
-2 3 7 159.32 174.21 17.60 o
-1 3 7 1809.45 1728.72 45.06 o
0 3 7 425.88 492.90 55.40 o
1 3 7 11122.00 10962.11 271.88 o
2 3 7 401.36 434.14 17.66 o
3 3 7 3234.71 3227.04 54.39 o
4 3 7 243.76 270.17 13.84 o
5 3 7 255.31 265.63 15.49 o
6 3 7 3834.41 3915.99 73.89 o
7 3 7 1328.89 1361.87 43.73 o
8 3 7 5067.52 5032.71 107.68 o
9 3 7 313.15 342.54 34.98 o
10 3 7 1508.54 1379.84 67.52 o
-6 4 7 376.83 430.87 67.22 o
-5 4 7 351.47 474.95 62.81 o
-4 4 7 250.85 287.72 32.94 o
-3 4 7 247.59 445.93 79.07 o
-2 4 7 1431.53 1397.14 55.61 o
-1 4 7 1402.76 1407.49 48.41 o
0 4 7 8472.60 8126.51 210.17 o
1 4 7 487.94 504.93 14.30 o
2 4 7 5332.13 5272.54 101.21 o
3 4 7 2235.85 2259.64 46.07 o
4 4 7 1850.21 1899.94 39.71 o
5 4 7 11163.75 11190.13 156.94 o
6 4 7 403.66 403.10 18.30 o
7 4 7 9076.95 9176.91 172.63 o
8 4 7 60.12 78.28 18.75 o
9 4 7 2245.27 2235.76 75.67 o
10 4 7 572.45 521.41 43.27 o
-5 5 7 3.93 25.35 46.83 o
-4 5 7 268.44 372.19 40.40 o
-3 5 7 712.64 715.30 74.11 o
-2 5 7 29.21 60.84 29.48 o
-1 5 7 6108.06 5872.90 164.10 o
0 5 7 73.67 107.19 21.31 o
1 5 7 6767.54 6769.84 144.67 o
2 5 7 826.04 856.51 32.51 o
3 5 7 806.47 802.11 24.96 o
4 5 7 8122.98 8019.15 136.51 o
5 5 7 5.84 11.84 8.59 o
6 5 7 12917.81 13117.93 220.30 o
7 5 7 40.12 45.67 15.28 o
8 5 7 4071.92 3901.45 88.78 o
9 5 7 853.75 890.44 50.80 o
10 5 7 363.25 385.60 39.33 o
-4 6 7 423.99 506.36 76.59 o
-3 6 7 8.37 108.04 30.84 o
-2 6 7 3945.24 4182.17 211.03 o
-1 6 7 45.59 24.76 21.44 o
0 6 7 4100.24 3979.36 94.79 o
1 6 7 1680.32 1614.87 50.54 o
2 6 7 933.97 839.34 35.65 o
3 6 7 9605.00 9781.76 162.53 o
4 6 7 54.34 83.96 12.76 o
5 6 7 11935.60 12116.26 201.88 o
6 6 7 1020.02 1003.94 36.10 o
7 6 7 3687.72 3587.47 82.00 o
8 6 7 1396.04 1444.36 70.96 o
9 6 7 322.20 338.01 34.13 o
-3 7 7 900.79 947.14 98.08 o
-2 7 7 308.14 192.98 40.77 o
-1 7 7 2235.40 2336.57 112.04 o
0 7 7 285.14 279.35 25.74 o
1 7 7 891.50 942.00 73.03 o
2 7 7 3394.82 3304.80 87.33 o
3 7 7 420.92 477.71 31.73 o
4 7 7 8763.25 9062.89 173.41 o
5 7 7 1030.34 1108.54 47.07 o
6 7 7 4439.32 4562.49 119.41 o
7 7 7 1191.35 1195.20 43.97 o
8 7 7 189.50 138.90 26.48 o
9 7 7 2581.29 2778.51 126.91 o
-2 8 7 1085.57 1224.95 99.45 o
-1 8 7 712.32 550.49 36.57 o
0 8 7 126.50 151.68 24.78 o
1 8 7 2724.32 2671.84 94.52 o
2 8 7 532.53 456.95 34.32 o
3 8 7 3942.77 3974.93 105.14 o
4 8 7 1130.83 1210.24 67.38 o
5 8 7 2242.28 2256.32 92.76 o
6 8 7 1077.63 1043.09 65.56 o
7 8 7 158.87 173.75 28.45 o
8 8 7 1183.31 1233.19 57.21 o
9 8 7 326.43 418.42 39.25 o
-1 9 7 101.11 159.65 28.28 o
0 9 7 166.68 255.39 44.35 o
1 9 7 159.01 128.29 27.32 o
2 9 7 1288.86 1303.63 97.52 o
3 9 7 891.08 846.31 83.75 o
4 9 7 1610.40 1663.80 84.48 o
5 9 7 658.50 617.81 56.40 o
6 9 7 21.35 23.68 31.24 o
7 9 7 722.89 670.80 60.94 o
8 9 7 790.98 911.33 108.54 o
1 10 7 392.02 498.64 69.42 o
2 10 7 586.44 547.13 74.38 o
3 10 7 280.78 264.47 58.40 o
4 10 7 352.74 317.92 64.47 o
5 10 7 7.72 8.93 35.33 o
6 10 7 113.37 88.88 39.30 o
-1 -7 8 12.52 71.23 40.21 o
0 -7 8 1531.39 1692.47 174.94 o
-4 -6 8 31.55 76.14 32.45 o
-3 -6 8 4966.53 4716.73 120.39 o
-2 -6 8 449.37 531.76 57.28 o
-1 -6 8 2098.87 2076.26 79.52 o
0 -6 8 1706.60 1765.01 73.73 o
1 -6 8 7.52 -2.64 19.31 o
2 -6 8 2637.61 2489.57 76.84 o
3 -6 8 155.45 114.55 56.48 o
-5 -5 8 372.40 430.20 45.06 o
-4 -5 8 3547.41 3593.52 121.43 o
-3 -5 8 1365.42 1577.17 57.72 o
-2 -5 8 2964.95 2913.14 90.60 o
-1 -5 8 844.80 905.92 49.77 o
0 -5 8 33.28 33.25 21.35 o
1 -5 8 2310.77 2123.76 60.77 o
2 -5 8 603.96 647.84 38.33 o
3 -5 8 4998.00 4681.72 113.24 o
4 -5 8 944.16 846.03 77.33 o
-6 -4 8 452.94 484.66 42.04 o
-5 -4 8 3890.38 3694.89 162.08 o
-4 -4 8 2087.63 2125.37 63.82 o
-3 -4 8 2383.27 2266.12 68.87 o
-2 -4 8 2143.25 2246.18 65.69 o
-1 -4 8 0.38 1.96 16.73 o
0 -4 8 4039.66 4006.61 108.28 o
1 -4 8 1537.44 1594.33 60.81 o
2 -4 8 4458.99 4398.03 100.31 o
3 -4 8 2440.70 2437.38 69.55 o
4 -4 8 767.78 647.99 98.90 o
5 -4 8 884.44 834.49 74.16 o
6 -4 8 12.63 4.67 86.50 o
-6 -3 8 967.55 1077.47 98.92 o
-5 -3 8 3031.22 2903.26 93.79 o
-4 -3 8 1907.68 1910.09 95.72 o
-3 -3 8 2066.80 2016.81 57.12 o
-2 -3 8 89.25 131.37 26.24 o
-1 -3 8 2177.10 2130.82 64.28 o
0 -3 8 4076.00 4069.76 104.58 o
1 -3 8 4979.60 4708.97 118.93 o
2 -3 8 5308.98 5241.25 103.23 o
3 -3 8 1976.95 1940.23 53.10 o
4 -3 8 1214.67 1127.08 49.55 o
5 -3 8 343.51 323.65 50.14 o
6 -3 8 529.92 563.00 71.90 o
7 -3 8 1712.79 1630.31 89.62 o
-6 -2 8 2632.85 2595.53 138.16 o
-5 -2 8 734.69 756.53 76.72 o
-4 -2 8 2115.81 1823.95 104.45 o
-3 -2 8 119.99 151.14 14.64 o
-2 -2 8 1262.28 1229.16 38.19 o
-1 -2 8 4099.80 4214.75 102.09 o
0 -2 8 1098.78 1009.18 34.56 o
1 -2 8 4991.29 5011.33 109.14 o
2 -2 8 279.07 334.76 21.69 o
3 -2 8 1290.97 1329.68 41.25 o
4 -2 8 151.49 177.38 33.24 o
5 -2 8 229.81 224.02 33.72 o
6 -2 8 1857.16 1880.51 136.36 o
7 -2 8 3.35 -14.88 25.20 o
-6 -1 8 118.38 160.34 76.59 o
-5 -1 8 1731.88 1631.55 101.19 o
-4 -1 8 26.95 59.04 36.21 o
-3 -1 8 407.13 323.12 36.75 o
-2 -1 8 5008.74 4710.82 86.52 o
-1 -1 8 135.83 142.06 10.56 o
0 -1 8 10608.04 10172.13 198.72 o
1 -1 8 439.50 444.30 22.74 o
2 -1 8 1265.60 1364.76 47.55 o
3 -1 8 436.80 440.44 22.87 o
4 -1 8 85.37 136.64 20.66 o
5 -1 8 5560.34 5062.14 109.20 o
6 -1 8 478.90 508.97 41.20 o
7 -1 8 1403.36 1416.54 63.74 o
8 -1 8 380.28 373.04 40.95 o
-5 0 8 333.06 374.57 58.96 o
-4 0 8 37.44 25.81 32.10 o
-3 0 8 3638.50 3430.42 113.47 o
-2 0 8 914.23 940.85 61.95 o
-1 0 8 3165.43 3054.42 61.02 o
0 0 8 466.81 518.67 20.92 o
1 0 8 368.08 415.43 42.98 o
2 0 8 491.44 646.65 32.68 o
3 0 8 430.08 424.27 20.55 o
4 0 8 2641.36 2649.56 63.84 o
5 0 8 2093.96 2031.05 48.86 o
6 0 8 1971.60 2076.02 69.50 o
7 0 8 975.46 963.55 51.65 o
8 0 8 305.84 274.30 36.37 o
-6 1 8 34.64 49.59 26.45 o
-5 1 8 6.08 26.45 19.84 o
-4 1 8 1060.10 1082.69 101.93 o
-3 1 8 1237.13 1251.35 76.04 o
-2 1 8 5920.88 5677.90 125.34 o
-1 1 8 662.48 692.98 43.60 o
0 1 8 1814.38 1901.93 49.35 o
1 1 8 1035.62 1091.54 40.25 o
2 1 8 3384.59 3443.14 61.48 o
3 1 8 5738.32 5670.76 113.10 o
4 1 8 8020.53 8142.80 158.71 o
5 1 8 2779.46 2842.00 59.88 o
6 1 8 3063.96 2989.51 70.95 o
7 1 8 143.54 142.19 25.56 o
8 1 8 1459.00 1564.46 96.70 o
9 1 8 1381.55 1331.11 151.52 o
-6 2 8 0.80 12.12 31.41 o
-5 2 8 888.54 1107.77 47.36 o
-4 2 8 1363.23 1460.33 53.31 o
-3 2 8 1538.25 1620.31 79.62 o
-2 2 8 2872.01 2867.07 52.35 o
-1 2 8 64.99 119.01 22.99 o
0 2 8 1673.25 1676.95 45.07 o
1 2 8 2935.34 2988.12 72.61 o
2 2 8 1439.99 1438.93 39.58 o
3 2 8 10453.66 10600.52 198.42 o
4 2 8 953.66 1013.89 32.32 o
5 2 8 6843.31 6862.94 120.29 o
6 2 8 29.46 52.96 12.96 o
7 2 8 2900.25 2780.49 83.85 o
8 2 8 1465.93 1517.72 63.65 o
9 2 8 1242.42 1300.25 106.89 o
-6 3 8 149.57 249.60 52.89 o
-5 3 8 1384.59 1567.75 66.51 o
-4 3 8 1020.42 1273.44 70.25 o
-3 3 8 2857.84 2993.98 91.14 o
-2 3 8 707.00 662.75 33.62 o
-1 3 8 1542.84 1619.89 55.93 o
0 3 8 4385.29 4281.53 98.43 o
1 3 8 1514.14 1434.62 79.77 o
2 3 8 19025.79 19098.80 323.96 o
3 3 8 1397.62 1425.40 46.68 o
4 3 8 10702.63 10900.85 169.61 o
5 3 8 198.71 254.57 16.68 o
6 3 8 3864.21 3970.67 78.13 o
7 3 8 6085.54 6109.82 149.35 o
8 3 8 725.76 724.06 44.86 o
9 3 8 4336.28 4333.71 157.98 o
-5 4 8 50.45 151.52 49.04 o
-4 4 8 1494.00 1643.41 71.53 o
-3 4 8 6.83 15.64 19.26 o
-2 4 8 1206.19 1296.47 107.17 o
-1 4 8 1882.14 1700.71 83.47 o
0 4 8 212.58 278.69 24.75 o
1 4 8 9039.24 8995.11 230.39 o
2 4 8 72.61 114.38 11.27 o
3 4 8 13294.20 13239.47 240.18 o
4 4 8 281.43 335.41 17.98 o
5 4 8 5542.61 5453.97 93.84 o
6 4 8 5212.76 5410.43 100.24 o
7 4 8 368.52 415.30 33.25 o
8 4 8 6541.24 6455.49 131.77 o
9 4 8 0.36 0.74 23.61 o
-5 5 8 1177.49 1398.40 117.91 o
-4 5 8 105.43 184.58 53.45 o
-3 5 8 907.42 1170.59 142.98 o
-2 5 8 953.07 914.15 52.15 o
-1 5 8 60.15 106.42 23.16 o
0 5 8 11340.61 10892.21 281.18 o
1 5 8 19.75 21.99 8.22 o
2 5 8 11891.17 11989.57 245.07 o
3 5 8 698.77 699.47 25.92 o
4 5 8 2505.13 2469.02 52.72 o
5 5 8 5331.99 5424.98 98.99 o
6 5 8 107.79 155.66 22.08 o
7 5 8 6476.70 6690.27 161.39 o
8 5 8 28.47 38.52 18.26 o
9 5 8 2056.77 1944.91 72.63 o
-4 6 8 279.59 475.50 73.83 o
-3 6 8 574.37 476.01 68.60 o
-2 6 8 4.98 15.51 24.49 o
-1 6 8 2522.42 2501.16 152.62 o
0 6 8 357.99 228.42 30.02 o
1 6 8 4614.65 4604.73 106.43 o
2 6 8 264.93 238.11 21.38 o
3 6 8 3379.08 3430.50 86.49 o
4 6 8 2213.95 2241.95 64.78 o
5 6 8 86.18 80.63 14.00 o
6 6 8 6057.35 6025.24 146.32 o
7 6 8 343.63 349.52 31.94 o
8 6 8 3285.76 3254.42 97.09 o
9 6 8 653.69 562.17 58.04 o
-3 7 8 43.22 2.20 50.69 o
-2 7 8 1239.14 1433.09 109.37 o
-1 7 8 353.02 287.19 38.77 o
0 7 8 3190.93 3362.18 85.22 o
1 7 8 404.65 378.54 27.92 o
2 7 8 884.80 975.16 42.39 o
3 7 8 1563.59 1595.15 55.12 o
4 7 8 97.80 109.84 20.59 o
5 7 8 2971.70 3094.12 107.51 o
6 7 8 289.33 342.23 39.85 o
7 7 8 1557.44 1468.81 60.54 o
8 7 8 419.87 404.83 37.39 o
9 7 8 23.58 -4.11 33.70 o
-2 8 8 209.42 161.44 60.06 o
-1 8 8 812.53 984.18 153.45 o
0 8 8 354.52 303.84 27.59 o
1 8 8 685.72 726.20 41.76 o
2 8 8 302.13 326.83 36.26 o
3 8 8 9.22 70.40 21.43 o
4 8 8 985.36 956.50 60.01 o
5 8 8 702.62 782.68 58.21 o
6 8 8 1162.26 1097.88 86.78 o
7 8 8 602.63 561.45 52.52 o
8 8 8 1.22 18.31 24.72 o
0 9 8 35.53 90.30 27.13 o
1 9 8 134.20 165.81 28.01 o
2 9 8 369.92 325.65 34.05 o
3 9 8 156.94 253.45 53.45 o
4 9 8 539.24 512.97 69.98 o
5 9 8 151.21 190.92 40.07 o
6 9 8 225.10 218.48 41.70 o
7 9 8 30.54 91.46 52.89 o
2 10 8 1.02 -2.75 40.22 o
3 10 8 468.03 321.22 61.71 o
4 10 8 7.22 35.26 46.83 o
5 10 8 431.59 402.77 69.98 o
6 10 8 146.12 151.84 43.12 o
-2 -6 9 2708.97 2788.66 125.08 o
-1 -6 9 499.02 685.25 72.18 o
0 -6 9 2619.49 2670.54 123.78 o
1 -6 9 458.02 528.13 64.39 o
-4 -5 9 623.88 739.90 79.37 o
-3 -5 9 3065.30 3033.61 138.30 o
-2 -5 9 1583.51 1763.11 92.64 o
-1 -5 9 2585.00 2487.07 84.35 o
0 -5 9 870.96 888.90 73.47 o
1 -5 9 60.32 75.03 27.23 o
2 -5 9 1600.62 1525.01 55.34 o
3 -5 9 748.62 685.36 42.94 o
-5 -4 9 333.25 383.35 40.10 o
-4 -4 9 1109.00 1030.67 60.43 o
-3 -4 9 1913.63 1957.67 63.94 o
-2 -4 9 2226.43 2119.13 71.40 o
-1 -4 9 1933.77 1969.84 68.94 o
0 -4 9 370.31 352.38 32.37 o
1 -4 9 1128.38 1140.15 53.72 o
2 -4 9 1854.76 1749.20 54.98 o
3 -4 9 439.02 446.07 32.96 o
4 -4 9 2068.15 1811.34 206.90 o
5 -4 9 177.94 182.71 45.68 o
-5 -3 9 652.58 599.92 49.51 o
-4 -3 9 3903.56 3978.15 155.00 o
-3 -3 9 1019.81 1015.10 48.99 o
-2 -3 9 1842.96 1723.67 78.14 o
-1 -3 9 24.80 36.96 16.65 o
0 -3 9 238.81 249.44 25.39 o
1 -3 9 2394.48 2294.97 72.50 o
2 -3 9 177.37 168.70 19.18 o
3 -3 9 1481.46 1409.23 49.47 o
4 -3 9 104.95 104.29 21.99 o
5 -3 9 399.22 368.01 58.13 o
6 -3 9 202.11 213.95 47.06 o
-5 -2 9 2016.37 1958.84 122.63 o
-4 -2 9 70.38 33.07 43.04 o
-3 -2 9 2060.70 2006.64 54.24 o
-2 -2 9 54.76 68.72 13.74 o
-1 -2 9 287.08 242.38 20.85 o
0 -2 9 2400.19 2389.74 68.29 o
1 -2 9 99.09 123.32 19.13 o
2 -2 9 7102.00 6901.16 127.22 o
3 -2 9 167.29 164.72 19.41 o
4 -2 9 1592.20 1546.86 97.67 o
5 -2 9 837.35 805.70 65.74 o
6 -2 9 140.40 213.22 77.96 o
7 -2 9 2046.48 2095.76 114.61 o
-6 -1 9 2348.58 2592.94 209.93 o
-5 -1 9 1.39 34.31 44.24 o
-4 -1 9 1895.74 1926.62 149.59 o
-3 -1 9 114.99 153.17 63.36 o
-2 -1 9 4.63 16.58 9.49 o
-1 -1 9 3461.71 3456.67 84.38 o
0 -1 9 1000.55 1068.01 37.84 o
1 -1 9 3747.72 3564.48 90.45 o
2 -1 9 809.02 807.01 36.81 o
3 -1 9 315.93 355.72 34.97 o
4 -1 9 1717.88 1714.98 54.28 o
5 -1 9 347.31 340.89 26.30 o
6 -1 9 2437.79 2320.73 107.72 o
7 -1 9 580.43 602.16 46.64 o
-4 0 9 232.85 276.99 49.23 o
-3 0 9 43.79 92.84 36.62 o
-2 0 9 1665.69 1686.93 35.28 o
-1 0 9 3083.99 3248.79 77.70 o
0 0 9 6524.50 6683.45 148.69 o
1 0 9 4883.36 4931.77 115.29 o
2 0 9 3109.80 3125.67 81.69 o
3 0 9 3795.83 3836.47 77.78 o
4 0 9 1477.44 1544.37 75.96 o
5 0 9 3649.17 3485.93 90.42 o
6 0 9 4354.23 4406.12 355.11 o
7 0 9 2385.19 2461.09 83.18 o
8 0 9 1796.91 1739.50 74.90 o
-6 1 9 774.97 1078.83 68.87 o
-3 1 9 1364.22 1467.87 79.20 o
-2 1 9 3162.25 3271.76 75.91 o
-1 1 9 2869.19 3052.50 72.93 o
0 1 9 3891.00 4093.72 95.37 o
1 1 9 431.44 507.09 44.50 o
2 1 9 4268.36 4381.83 117.31 o
3 1 9 2177.36 2234.23 54.11 o
4 1 9 5015.58 4834.42 110.11 o
5 1 9 6345.22 6228.04 137.02 o
6 1 9 2463.38 2435.86 64.47 o
7 1 9 4644.12 4476.29 121.54 o
8 1 9 103.04 143.36 31.02 o
-5 2 9 30.24 53.69 20.39 o
-4 2 9 423.91 542.13 59.78 o
-3 2 9 2669.51 2448.32 71.30 o
-2 2 9 1319.92 1444.57 46.68 o
-1 2 9 8875.89 8844.79 189.82 o
0 2 9 1775.64 1801.76 49.40 o
1 2 9 7808.47 7998.47 175.21 o
2 2 9 2346.49 2462.95 65.82 o
3 2 9 3137.39 3175.06 74.99 o
4 2 9 15214.09 15388.69 280.31 o
5 2 9 1227.30 1214.05 39.76 o
6 2 9 7468.58 7410.54 132.30 o
7 2 9 42.63 15.72 20.69 o
8 2 9 1507.35 1452.71 64.49 o
9 2 9 965.00 947.40 58.39 o
-5 3 9 159.04 298.63 53.45 o
-4 3 9 2008.60 1789.36 69.18 o
-3 3 9 292.54 466.06 58.96 o
-2 3 9 3431.39 3247.13 94.37 o
-1 3 9 186.00 302.60 23.56 o
0 3 9 3240.03 3361.28 111.30 o
1 3 9 2184.09 2066.66 75.08 o
2 3 9 2006.48 1986.38 110.47 o
3 3 9 8637.80 8693.99 162.79 o
4 3 9 1492.01 1474.55 41.25 o
5 3 9 8972.99 9036.59 173.32 o
6 3 9 78.68 114.77 15.73 o
7 3 9 3839.60 3804.08 105.27 o
8 3 9 1132.77 1110.92 55.92 o
9 3 9 433.60 428.33 46.70 o
-5 4 9 410.31 409.93 67.77 o
-4 4 9 7.86 49.04 41.32 o
-3 4 9 3624.03 3528.32 111.47 o
-2 4 9 58.06 116.49 21.79 o
-1 4 9 4207.21 4249.99 121.69 o
0 4 9 761.23 672.09 44.63 o
1 4 9 625.57 696.63 37.26 o
2 4 9 9607.40 9501.14 168.88 o
3 4 9 95.71 98.08 12.85 o
4 4 9 11802.88 11974.16 221.13 o
5 4 9 5.32 6.62 12.11 o
6 4 9 2215.77 2217.30 52.78 o
7 4 9 1098.56 1084.67 50.94 o
8 4 9 66.47 88.70 26.49 o
9 4 9 2128.21 2084.33 79.55 o
-4 5 9 1119.90 1208.31 104.14 o
-3 5 9 2.88 39.56 27.00 o
-2 5 9 860.51 847.74 51.49 o
-1 5 9 452.52 310.51 33.89 o
0 5 9 176.21 257.82 28.20 o
1 5 9 3340.63 3430.19 105.44 o
2 5 9 69.85 134.52 15.06 o
3 5 9 5993.98 6362.56 139.53 o
4 5 9 13.54 29.82 12.15 o
5 5 9 2990.13 2951.14 69.30 o
6 5 9 837.92 847.87 35.86 o
7 5 9 46.56 122.50 24.80 o
8 5 9 1807.18 1832.05 73.64 o
9 5 9 272.80 327.56 37.75 o
-3 6 9 941.30 1228.70 107.44 o
-2 6 9 229.66 197.63 34.15 o
-1 6 9 0.60 20.00 23.33 o
0 6 9 1325.74 1316.35 62.85 o
1 6 9 286.52 246.15 30.05 o
2 6 9 4654.62 4748.79 110.34 o
3 6 9 195.72 184.24 20.47 o
4 6 9 1241.79 1349.27 65.43 o
5 6 9 376.73 379.91 24.39 o
6 6 9 210.27 239.84 26.79 o
7 6 9 974.09 957.44 49.68 o
8 6 9 288.05 249.94 37.61 o
9 6 9 803.84 774.20 52.40 o
-2 7 9 4.20 58.96 50.14 o
-1 7 9 384.31 429.18 45.14 o
0 7 9 115.13 64.17 27.67 o
1 7 9 1646.21 1690.89 52.88 o
2 7 9 506.52 473.86 47.02 o
3 7 9 499.09 580.60 35.11 o
4 7 9 345.54 415.37 31.13 o
5 7 9 209.38 269.46 27.12 o
6 7 9 262.23 276.48 37.19 o
7 7 9 1274.44 1381.19 116.13 o
8 7 9 157.11 205.80 40.06 o
9 7 9 1125.12 1187.52 63.28 o
-1 8 9 646.03 611.04 87.61 o
0 8 9 249.98 304.41 43.12 o
1 8 9 559.42 466.14 31.67 o
2 8 9 13.48 47.19 19.99 o
3 8 9 11.26 85.13 31.36 o
4 8 9 712.42 664.26 41.12 o
5 8 9 7.04 64.47 36.37 o
6 8 9 1310.63 1322.23 74.05 o
7 8 9 3.75 -4.42 29.09 o
8 8 9 540.09 487.63 52.95 o
0 9 9 299.30 305.80 69.98 o
1 9 9 7.24 52.28 27.42 o
2 9 9 137.75 127.43 26.65 o
3 9 9 328.85 288.03 40.64 o
4 9 9 6.40 23.14 39.67 o
5 9 9 1508.57 1439.18 107.44 o
6 9 9 201.07 208.82 55.65 o
7 9 9 1143.62 1077.09 124.80 o
3 10 9 193.41 229.21 55.10 o
4 10 9 1150.00 1058.44 100.83 o
5 10 9 344.38 317.92 64.47 o
-2 -5 10 943.64 1092.96 78.68 o
-1 -5 10 1122.11 1278.40 83.28 o
0 -5 10 942.52 957.66 74.35 o
1 -5 10 907.84 1017.85 79.29 o
2 -5 10 118.77 151.48 45.22 o
-3 -4 10 133.46 119.55 35.23 o
-2 -4 10 3124.73 3372.67 130.87 o
-1 -4 10 386.58 345.76 45.22 o
0 -4 10 1301.43 1411.75 61.09 o
1 -4 10 6.33 20.52 22.41 o
2 -4 10 32.39 30.65 24.58 o
3 -4 10 1519.43 1454.43 54.97 o
4 -4 10 19.30 3.61 51.79 o
-4 -3 10 96.85 98.06 27.28 o
-3 -3 10 2170.74 2225.17 69.57 o
-2 -3 10 78.72 69.14 20.71 o
-1 -3 10 2442.76 2369.06 73.58 o
0 -3 10 121.58 127.31 23.09 o
1 -3 10 336.21 320.33 31.07 o
2 -3 10 1951.98 1840.61 67.65 o
3 -3 10 164.03 204.02 23.92 o
4 -3 10 3243.38 3014.86 198.31 o
5 -3 10 470.55 367.69 133.61 o
-5 -2 10 109.19 168.44 59.70 o
-4 -2 10 3019.49 3419.94 162.23 o
-3 -2 10 131.91 204.39 24.81 o
-2 -2 10 3271.22 3346.50 157.75 o
-1 -2 10 343.18 423.86 43.41 o
0 -2 10 11.61 32.92 16.32 o
1 -2 10 3273.25 3128.92 91.14 o
2 -2 10 1224.38 1335.31 53.58 o
3 -2 10 4693.52 4530.21 100.67 o
4 -2 10 432.00 383.04 28.90 o
5 -2 10 1459.64 1394.90 57.25 o
6 -2 10 1004.46 811.61 228.11 o
-5 -1 10 1311.55 1502.81 110.27 o
-4 -1 10 184.51 184.09 53.97 o
-3 -1 10 2947.44 3015.14 171.91 o
-2 -1 10 1521.26 1597.22 47.31 o
-1 -1 10 95.02 91.83 15.30 o
0 -1 10 3509.98 3448.42 88.41 o
1 -1 10 2814.15 2879.84 79.31 o
2 -1 10 4824.26 4679.33 117.90 o
3 -1 10 5144.19 5221.15 109.78 o
4 -1 10 2599.46 2495.78 70.87 o
5 -1 10 4283.00 3979.64 102.23 o
6 -1 10 100.18 121.63 35.82 o
7 -1 10 1900.79 1847.78 104.69 o
-3 0 10 1251.53 1306.13 132.24 o
-2 0 10 82.72 75.86 11.42 o
-1 0 10 1432.41 1519.77 45.07 o
0 0 10 3912.41 3965.65 96.37 o
1 0 10 4983.75 5091.06 120.91 o
2 0 10 4006.06 4249.16 139.47 o
3 0 10 2855.69 2700.65 63.50 o
4 0 10 2892.89 2773.91 73.74 o
5 0 10 149.89 161.07 20.70 o
6 0 10 2786.47 2707.27 112.68 o
7 0 10 1634.85 1549.93 124.52 o
8 0 10 1510.76 1526.79 74.90 o
-2 1 10 1712.24 1872.97 49.88 o
-1 1 10 2386.29 2343.47 60.16 o
0 1 10 2807.55 2957.41 74.12 o
1 1 10 10578.37 10864.30 235.96 o
2 1 10 1762.52 1827.07 73.37 o
3 1 10 8871.39 8987.95 186.75 o
4 1 10 231.69 268.11 29.43 o
5 1 10 2810.71 2738.82 68.65 o
6 1 10 3447.01 3505.66 108.00 o
7 1 10 1053.95 1096.56 70.25 o
8 1 10 2446.78 2243.00 127.13 o
-5 2 10 820.90 675.51 64.47 o
-4 2 10 1.45 18.75 15.58 o
-3 2 10 270.52 298.53 38.02 o
-2 2 10 2830.41 2590.36 74.05 o
-1 2 10 1133.59 1353.25 65.29 o
0 2 10 7104.81 7319.59 161.85 o
1 2 10 1657.94 1786.02 53.70 o
2 2 10 3845.65 4016.90 111.90 o
3 2 10 131.89 127.91 20.42 o
4 2 10 1643.13 1595.67 51.37 o
5 2 10 2751.17 2808.17 68.65 o
6 2 10 1752.20 1728.00 52.62 o
7 2 10 3728.90 3551.05 128.15 o
8 2 10 79.49 90.77 28.77 o
-4 3 10 401.57 347.67 50.69 o
-3 3 10 750.72 580.87 35.58 o
-2 3 10 243.22 289.14 24.61 o
-1 3 10 5698.89 5351.25 142.58 o
0 3 10 24.68 40.32 15.98 o
1 3 10 5376.05 5276.23 148.57 o
2 3 10 109.67 76.81 24.62 o
3 3 10 1140.28 1240.35 81.12 o
4 3 10 2438.88 2626.19 62.32 o
5 3 10 412.45 429.22 25.69 o
6 3 10 5363.93 5503.12 131.70 o
7 3 10 8.73 15.08 26.68 o
8 3 10 983.86 900.75 53.72 o
9 3 10 296.18 297.08 39.05 o
-4 4 10 522.39 411.04 62.26 o
-3 4 10 12.34 20.70 20.35 o
-2 4 10 3032.65 2820.45 91.55 o
-1 4 10 88.30 166.14 23.16 o
0 4 10 2341.14 2297.20 75.45 o
1 4 10 14.35 47.33 22.87 o
2 4 10 569.86 642.90 37.81 o
3 4 10 2344.32 2475.40 57.00 o
4 4 10 102.77 154.77 17.10 o
5 4 10 4014.97 4136.35 97.74 o
6 4 10 98.92 135.54 26.96 o
7 4 10 746.52 729.81 103.31 o
8 4 10 695.73 689.63 46.57 o
9 4 10 15.86 35.26 28.14 o
-3 5 10 1177.49 1136.68 101.38 o
-2 5 10 260.82 176.92 40.77 o
-1 5 10 1644.85 1659.54 68.01 o
0 5 10 440.35 409.12 34.26 o
1 5 10 2.32 30.04 20.94 o
2 5 10 688.45 699.08 42.72 o
3 5 10 935.43 879.80 34.70 o
4 5 10 1509.85 1623.51 87.59 o
5 5 10 433.19 406.79 25.20 o
6 5 10 272.56 293.93 24.01 o
7 5 10 156.32 134.67 31.10 o
8 5 10 311.54 380.58 37.65 o
9 5 10 582.70 562.95 47.33 o
-3 6 10 175.75 165.30 57.85 o
-2 6 10 408.99 329.49 66.12 o
-1 6 10 28.13 132.96 47.38 o
0 6 10 3.86 7.80 21.28 o
1 6 10 272.86 297.93 33.10 o
2 6 10 405.14 350.09 22.39 o
3 6 10 966.27 1047.38 40.99 o
4 6 10 694.35 766.49 53.39 o
5 6 10 20.65 61.00 18.69 o
6 6 10 517.79 540.22 43.34 o
7 6 10 756.31 745.41 54.56 o
8 6 10 404.71 406.67 38.26 o
-2 7 10 226.74 231.97 66.67 o
-1 7 10 12.15 30.30 47.38 o
0 7 10 86.58 90.47 30.18 o
1 7 10 1567.23 1452.15 71.42 o
2 7 10 14.70 52.98 16.42 o
3 7 10 1621.08 1551.95 54.55 o
4 7 10 53.42 58.65 19.72 o
5 7 10 109.65 119.31 22.78 o
6 7 10 1091.24 1155.97 88.16 o
7 7 10 22.76 25.90 36.37 o
8 7 10 2504.02 2614.76 88.97 o
-1 8 10 11.10 92.01 60.06 o
0 8 10 638.84 541.62 82.65 o
1 8 10 8.37 48.30 30.57 o
2 8 10 931.81 911.39 44.52 o
3 8 10 109.46 88.23 27.42 o
4 8 10 402.82 351.53 35.19 o
5 8 10 1495.31 1459.01 98.08 o
6 8 10 17.73 -1.65 35.26 o
7 8 10 2854.11 2702.04 145.46 o
8 8 10 157.11 177.11 41.30 o
1 9 10 922.55 933.92 106.34 o
2 9 10 188.79 128.85 25.49 o
3 9 10 146.41 127.79 27.27 o
4 9 10 743.35 735.57 75.49 o
5 9 10 68.63 142.71 49.59 o
6 9 10 2213.36 2091.54 130.03 o
-2 -4 11 130.35 61.95 40.77 o
-1 -4 11 3021.32 3096.13 127.56 o
0 -4 11 31.37 26.03 32.36 o
1 -4 11 2963.27 3055.03 127.88 o
2 -4 11 663.92 665.11 63.91 o
-3 -3 11 93.28 107.89 39.40 o
-2 -3 11 2682.59 2938.89 184.58 o
-1 -3 11 636.72 790.16 60.39 o
0 -3 11 3146.95 3163.65 235.82 o
1 -3 11 501.87 583.76 41.40 o
2 -3 11 140.39 155.72 28.65 o
3 -3 11 1337.73 1286.07 62.76 o
4 -3 11 261.53 268.21 29.07 o
-3 -2 11 2495.85 2675.47 157.31 o
-2 -2 11 335.94 427.78 28.89 o
-1 -2 11 3673.13 3632.89 97.33 o
0 -2 11 1475.90 1590.43 57.75 o
1 -2 11 464.37 414.00 32.55 o
2 -2 11 3802.10 3783.84 106.38 o
3 -2 11 438.53 536.69 39.70 o
4 -2 11 4100.79 3909.63 102.42 o
5 -2 11 1712.34 1578.58 172.59 o
-4 -1 11 1082.85 1212.38 107.17 o
-3 -1 11 2118.01 2128.60 142.98 o
-2 -1 11 2558.26 2743.80 72.87 o
-1 -1 11 1973.03 2160.60 117.18 o
0 -1 11 365.31 332.51 26.23 o
1 -1 11 1475.53 1447.00 52.78 o
2 -1 11 1116.42 1241.96 51.00 o
3 -1 11 4465.55 4438.62 132.50 o
4 -1 11 2799.62 2692.93 76.02 o
5 -1 11 2647.83 2475.29 77.46 o
6 -1 11 1100.05 1027.78 152.90 o
-2 0 11 1684.65 1617.62 49.20 o
-1 0 11 238.22 265.18 20.30 o
0 0 11 2732.16 2845.04 76.17 o
1 0 11 1159.74 1215.78 45.14 o
2 0 11 3811.95 3740.27 98.61 o
3 0 11 4623.71 4874.47 124.60 o
4 0 11 1278.93 1153.66 44.51 o
5 0 11 2872.79 2703.26 77.50 o
6 0 11 3.18 -2.70 28.86 o
7 0 11 1087.61 1025.29 74.90 o
-2 1 11 280.63 395.89 23.90 o
-1 1 11 676.38 670.16 29.74 o
0 1 11 879.06 844.66 35.13 o
1 1 11 1408.08 1443.24 48.60 o
2 1 11 5249.17 5432.80 131.10 o
3 1 11 2613.40 2401.60 149.12 o
4 1 11 3165.95 2975.38 78.06 o
5 1 11 121.78 83.03 18.19 o
6 1 11 800.86 748.14 39.17 o
7 1 11 1108.27 1115.26 86.50 o
-3 2 11 2.25 23.32 13.34 o
-2 2 11 875.13 798.98 35.22 o
-1 2 11 1150.61 1094.05 42.44 o
0 2 11 648.65 660.13 34.51 o
1 2 11 4806.28 4984.58 118.82 o
2 2 11 93.38 106.77 18.34 o
3 2 11 3005.56 3108.69 98.07 o
4 2 11 85.56 104.56 16.65 o
5 2 11 301.91 335.36 24.78 o
6 2 11 938.55 951.39 41.30 o
7 2 11 1.72 19.87 42.15 o
8 2 11 1533.85 1491.28 85.91 o
-4 3 11 0.90 38.57 34.71 o
-3 3 11 98.25 74.93 31.41 o
-2 3 11 215.63 195.87 23.42 o
-1 3 11 48.07 59.55 17.07 o
0 3 11 2820.96 2791.05 85.15 o
1 3 11 38.80 32.74 16.94 o
2 3 11 2324.41 2250.71 75.65 o
3 3 11 62.43 89.70 19.08 o
4 3 11 127.23 139.50 16.91 o
5 3 11 1360.41 1506.49 47.13 o
6 3 11 241.10 276.58 24.82 o
7 3 11 1752.77 1718.00 82.18 o
8 3 11 466.26 399.54 91.19 o
-3 4 11 423.42 389.00 57.30 o
-2 4 11 16.80 28.08 19.71 o
-1 4 11 1690.93 1622.51 68.05 o
0 4 11 312.01 304.37 28.59 o
1 4 11 1191.02 1256.29 53.82 o
2 4 11 421.40 357.96 31.30 o
3 4 11 38.77 39.76 19.33 o
4 4 11 470.61 506.33 26.83 o
5 4 11 1731.44 1728.96 50.52 o
6 4 11 424.66 498.04 46.05 o
7 4 11 1212.81 1233.07 69.03 o
8 4 11 103.68 113.09 36.01 o
-3 5 11 249.37 168.05 55.65 o
-2 5 11 491.22 573.58 69.98 o
-1 5 11 697.41 597.57 43.01 o
0 5 11 608.89 681.34 44.54 o
1 5 11 148.19 168.88 34.99 o
2 5 11 89.26 59.13 21.56 o
3 5 11 413.94 440.21 30.77 o
4 5 11 2022.45 1966.40 59.04 o
5 5 11 981.75 1026.78 38.87 o
6 5 11 2318.02 2233.70 62.04 o
7 5 11 1.48 -4.19 25.24 o
8 5 11 1143.01 1127.79 72.27 o
-2 6 11 612.17 508.01 76.59 o
-1 6 11 68.10 156.48 53.45 o
0 6 11 334.67 384.64 38.74 o
1 6 11 83.98 73.58 25.68 o
2 6 11 120.48 166.33 29.09 o
3 6 11 2373.05 2290.66 64.17 o
4 6 11 8.34 83.99 25.77 o
5 6 11 3659.97 3430.86 91.29 o
6 6 11 112.38 183.48 43.53 o
7 6 11 1217.73 1159.19 68.32 o
8 6 11 720.06 837.50 64.94 o
-1 7 11 266.05 194.50 61.16 o
0 7 11 31.19 6.06 44.63 o
1 7 11 184.32 266.37 37.78 o
2 7 11 2351.28 2311.44 109.10 o
3 7 11 98.70 105.75 20.39 o
4 7 11 3652.53 3470.18 92.95 o
5 7 11 79.99 74.39 21.89 o
6 7 11 1630.44 1561.49 103.59 o
7 7 11 1670.09 1722.38 114.05 o
8 7 11 315.99 396.71 65.57 o
0 8 11 17.82 -8.82 52.34 o
1 8 11 906.87 802.79 95.32 o
2 8 11 127.84 108.12 34.01 o
3 8 11 2115.19 2098.36 68.52 o
4 8 11 327.26 338.32 32.55 o
5 8 11 1382.59 1354.32 95.87 o
6 8 11 913.43 914.09 87.61 o
7 8 11 175.36 109.10 48.49 o
3 9 11 104.70 58.39 24.56 o
4 9 11 1043.57 959.27 83.75 o
5 9 11 998.17 842.46 85.40 o
-1 -3 12 2916.70 2963.56 138.85 o
0 -3 12 441.15 548.51 55.29 o
1 -3 12 3748.40 3786.25 152.90 o
2 -3 12 711.66 714.20 108.82 o
-2 -2 12 1250.02 1427.04 73.48 o
-1 -2 12 1118.11 1281.10 72.22 o
0 -2 12 2479.29 2437.79 103.31 o
1 -2 12 1592.01 1611.10 133.89 o
2 -2 12 1056.18 1004.51 77.14 o
3 -2 12 927.70 1073.95 75.17 o
4 -2 12 20.98 24.16 34.21 o
-3 -1 12 1468.13 1244.68 142.15 o
-2 -1 12 1817.50 1785.16 133.06 o
-1 -1 12 2725.56 2720.29 103.12 o
0 -1 12 1911.96 1915.38 63.02 o
1 -1 12 516.53 480.94 33.55 o
2 -1 12 1392.73 1407.75 57.49 o
3 -1 12 457.63 451.59 37.07 o
4 -1 12 1631.52 1476.61 76.59 o
5 -1 12 1373.80 1272.70 83.50 o
-2 0 12 272.96 354.66 27.31 o
-1 0 12 2093.12 2100.05 61.54 o
0 0 12 515.09 588.73 33.97 o
1 0 12 976.71 941.77 47.95 o
2 0 12 95.56 106.73 21.46 o
3 0 12 564.02 507.84 36.42 o
4 0 12 2077.78 2152.00 83.63 o
5 0 12 630.64 527.33 33.74 o
6 0 12 1517.09 1379.45 107.99 o
-2 1 12 1930.62 1809.55 56.61 o
-1 1 12 174.35 188.43 20.82 o
0 1 12 683.66 673.90 34.27 o
1 1 12 910.87 974.13 41.87 o
2 1 12 90.31 83.56 19.59 o
3 1 12 2763.64 2668.00 195.55 o
4 1 12 13.50 4.34 19.63 o
5 1 12 776.12 706.23 36.82 o
6 1 12 199.30 220.67 30.37 o
7 1 12 29.29 50.76 35.43 o
-3 2 12 1132.02 1057.89 61.16 o
-2 2 12 1.25 10.33 14.91 o
-1 2 12 580.92 564.81 32.94 o
0 2 12 210.11 210.57 23.22 o
1 2 12 80.61 81.44 18.21 o
2 2 12 1888.48 1898.56 61.76 o
3 2 12 245.41 216.82 35.26 o
4 2 12 1205.66 1121.75 114.30 o
5 2 12 46.26 42.80 17.63 o
6 2 12 26.20 45.34 19.35 o
7 2 12 948.28 997.97 71.03 o
-3 3 12 17.93 30.86 29.75 o
-2 3 12 195.74 162.54 35.81 o
-1 3 12 627.43 661.70 38.34 o
0 3 12 499.48 525.26 36.47 o
1 3 12 1450.33 1519.04 101.66 o
2 3 12 972.38 913.89 48.14 o
3 3 12 505.21 535.18 65.11 o
4 3 12 811.04 806.57 49.94 o
5 3 12 41.08 89.38 18.42 o
6 3 12 1258.71 1222.09 46.95 o
7 3 12 1013.09 1093.45 71.45 o
-2 4 12 74.74 60.06 36.37 o
-1 4 12 222.47 174.11 41.32 o
0 4 12 543.15 704.58 60.88 o
1 4 12 1493.21 1446.00 102.76 o
2 4 12 1005.31 1072.36 52.87 o
3 4 12 1324.86 1242.00 58.25 o
4 4 12 99.91 111.81 17.49 o
5 4 12 1177.04 1152.65 42.70 o
6 4 12 3052.79 3081.41 78.10 o
7 4 12 1080.35 1046.43 68.70 o
8 4 12 2698.39 2571.03 122.04 o
-2 5 12 451.17 379.63 60.61 o
-1 5 12 437.53 575.23 69.98 o
0 5 12 1841.12 1891.25 103.59 o
1 5 12 109.46 138.59 26.85 o
2 5 12 1576.95 1538.90 66.28 o
3 5 12 351.13 361.85 36.26 o
4 5 12 945.26 950.03 40.00 o
5 5 12 2314.33 2323.57 70.00 o
6 5 12 350.58 313.06 26.83 o
7 5 12 2741.39 2687.64 107.60 o
-1 6 12 869.01 761.46 86.50 o
0 6 12 164.38 336.10 63.36 o
1 6 12 1526.98 1569.21 72.94 o
2 6 12 66.27 10.30 23.56 o
3 6 12 794.16 733.67 50.99 o
4 6 12 3558.46 3460.95 89.81 o
5 6 12 276.51 296.49 28.30 o
6 6 12 5230.72 4992.48 208.82 o
7 6 12 36.31 49.04 40.22 o
0 7 12 978.75 1147.15 113.50 o
1 7 12 304.78 138.85 56.20 o
2 7 12 316.07 415.67 45.66 o
3 7 12 1396.06 1359.94 121.49 o
4 7 12 28.11 30.95 19.60 o
5 7 12 2290.29 2302.26 74.19 o
6 7 12 7.66 40.22 37.47 o
7 7 12 1896.73 1791.26 117.36 o
2 8 12 837.79 670.00 89.81 o
3 8 12 0.11 50.69 52.34 o
4 8 12 2831.38 2912.22 85.51 o
5 8 12 25.39 49.04 37.47 o
6 8 12 1814.25 1825.42 115.16 o
1 -2 13 1520.88 1474.75 84.31 o
-1 -1 13 759.34 839.35 88.43 o
0 -1 13 289.85 285.11 38.89 o
1 -1 13 972.96 939.57 64.99 o
2 -1 13 302.11 329.58 44.37 o
3 -1 13 725.58 740.56 64.32 o
4 -1 13 128.28 90.50 37.62 o
-1 0 13 133.13 105.06 31.68 o
0 0 13 2283.65 2395.10 96.21 o
1 0 13 119.89 80.07 29.36 o
2 0 13 391.26 431.82 46.47 o
3 0 13 558.04 609.26 55.97 o
4 0 13 30.19 34.74 43.80 o
5 0 13 1495.25 1341.57 94.01 o
-2 1 13 12.31 13.22 22.04 o
-1 1 13 1127.60 1121.81 67.77 o
0 1 13 37.50 47.38 28.10 o
1 1 13 557.43 564.94 47.99 o
2 1 13 493.10 403.04 31.82 o
3 1 13 57.46 39.61 27.42 o
4 1 13 1835.66 1808.49 77.21 o
5 1 13 636.64 547.22 34.07 o
6 1 13 1560.80 1473.59 106.82 o
-2 2 13 1675.11 1840.29 90.36 o
-1 2 13 189.16 196.15 34.71 o
0 2 13 253.73 250.70 40.22 o
1 2 13 671.89 779.53 44.79 o
2 2 13 916.45 910.29 89.23 o
3 2 13 1533.42 1600.30 68.41 o
4 2 13 1271.72 1174.55 108.80 o
5 2 13 904.66 858.73 43.74 o
6 2 13 1197.22 1178.29 50.42 o
-1 3 13 206.98 241.33 40.77 o
0 3 13 441.57 444.65 50.14 o
1 3 13 208.41 222.65 27.46 o
2 3 13 1201.90 1319.23 60.25 o
3 3 13 2171.06 2236.50 83.03 o
4 3 13 1953.17 1991.36 70.24 o
5 3 13 3569.96 3400.47 94.72 o
6 3 13 24.04 9.32 18.79 o
-1 4 13 416.22 401.67 53.45 o
0 4 13 804.62 793.97 73.28 o
1 4 13 771.97 824.28 75.49 o
2 4 13 3112.14 3066.97 101.59 o
3 4 13 502.94 633.32 47.02 o
4 4 13 2595.53 2668.39 97.34 o
5 4 13 109.47 106.54 21.90 o
6 4 13 1585.22 1593.48 54.54 o
7 4 13 1126.89 1043.43 70.83 o
0 5 13 141.92 163.09 47.94 o
1 5 13 1636.86 1351.57 97.52 o
2 5 13 307.54 402.22 59.51 o
3 5 13 3207.92 3141.51 107.49 o
4 5 13 17.79 23.09 25.40 o
5 5 13 1848.76 1850.64 61.92 o
6 5 13 1276.73 1334.32 55.86 o
7 5 13 453.93 412.04 46.96 o
1 6 13 102.57 200.01 55.65 o
2 6 13 1697.74 1778.58 118.46 o
3 6 13 25.36 -13.22 40.77 o
4 6 13 926.88 931.41 60.54 o
5 6 13 888.46 975.79 47.26 o
6 6 13 568.75 643.00 67.22 o
2 7 13 25.42 13.22 47.38 o
3 7 13 685.22 708.02 85.40 o
4 7 13 438.01 435.28 73.28 o
5 7 13 38.95 42.62 22.09 o
2 0 14 132.97 150.21 38.16 o
0 1 14 2226.03 2394.03 119.01 o
1 1 14 798.40 905.27 74.93 o
2 1 14 676.81 676.59 58.50 o
3 1 14 1140.65 1190.68 92.57 o
4 1 14 411.89 394.60 120.67 o
0 2 14 722.59 721.79 67.22 o
1 2 14 334.22 333.35 48.49 o
2 2 14 1389.80 1436.42 95.32 o
3 2 14 157.58 101.39 73.56 o
4 2 14 1740.94 1466.78 190.92 o
5 2 14 1266.85 1333.38 83.93 o
0 3 14 320.82 476.05 56.20 o
1 3 14 676.41 721.24 72.18 o
2 3 14 267.47 229.21 46.83 o
3 3 14 1003.04 1105.83 90.36 o
4 3 14 2005.78 2226.53 131.69 o
5 3 14 1311.73 1335.73 80.57 o
1 4 14 99.10 31.41 35.81 o
2 4 14 1034.70 1229.80 94.77 o
3 4 14 1614.37 1663.98 111.30 o
4 4 14 608.58 841.36 87.61 o
5 4 14 2679.43 2556.58 147.66 o
2 5 14 1277.90 1317.96 100.83 o
3 5 14 234.51 290.37 56.20 o
4 5 14 1634.68 1607.23 113.50 o
5 5 14 106.98 116.81 49.59 o
3 6 14 1338.71 1282.70 107.44 o
4 6 14 18.42 20.39 42.43 o
