#------------------------------------------------------------------------------
#$Date: 2019-11-23 09:02:55 +0200 (Sat, 23 Nov 2019) $
#$Revision: 232634 $
#$URL: file:///home/coder/svn-repositories/cod/cif/4/34/80/4348002.cif $
#------------------------------------------------------------------------------
#
# This file is available in the Crystallography Open Database (COD),
# http://www.crystallography.net/
#
# All data on this site have been placed in the public domain by the
# contributors.
#
data_4348002
loop_
_publ_author_name
'Dolgopolova, Ekaterina A.'
'Rice, Allison M.'
'Smith, Mark D.'
'Shustova, Natalia B.'
_publ_section_title
;
 Photophysics, Dynamics, and Energy Transfer in Rigid Mimics of GFP-based
 Systems.
;
_journal_issue                   15
_journal_name_full               'Inorganic chemistry'
_journal_page_first              7257
_journal_page_last               7264
_journal_paper_doi               10.1021/acs.inorgchem.6b00835
_journal_volume                  55
_journal_year                    2016
_chemical_formula_moiety         'C13 H14 N2 O2'
_chemical_formula_sum            'C13 H14 N2 O2'
_chemical_formula_weight         230.26
_space_group_crystal_system      triclinic
_space_group_IT_number           2
_space_group_name_Hall           '-P 1'
_space_group_name_H-M_alt        'P -1'
_atom_sites_solution_hydrogens   mixed
_audit_creation_date             2016-01-27
_audit_creation_method
;
Olex2 1.2
(compiled 2015.09.30 svn.r3233 for OlexSys, GUI svn.r5103)
;
_cell_angle_alpha                86.9930(10)
_cell_angle_beta                 76.7940(10)
_cell_angle_gamma                68.4030(10)
_cell_formula_units_Z            2
_cell_length_a                   7.0394(3)
_cell_length_b                   7.4097(3)
_cell_length_c                   11.9281(5)
_cell_measurement_reflns_used    9897
_cell_measurement_temperature    100(2)
_cell_measurement_theta_max      30.08
_cell_measurement_theta_min      2.96
_cell_volume                     562.85(4)
_computing_cell_refinement       'SAINT v8.34A (Bruker, 2013)'
_computing_data_collection       'Bruker APEXII v2014.9-0 (Bruker, 2014)'
_computing_data_reduction        'SAINT v8.34A (Bruker, 2013)'
_computing_molecular_graphics    'Olex2 (Dolomanov et al., 2009)'
_computing_publication_material  'Olex2 (Dolomanov et al., 2009)'
_computing_structure_refinement  'XL (Sheldrick, 2008)'
_computing_structure_solution    'XT (Sheldrick, 2015)'
_diffrn_ambient_temperature      100(2)
_diffrn_detector                 'Bruker PHOTON-100 area detector'
_diffrn_detector_area_resol_mean 10.4
_diffrn_detector_type            'CMOS area detector'
_diffrn_measured_fraction_theta_full 0.998
_diffrn_measured_fraction_theta_max 0.998
_diffrn_measurement_device       'three-circle diffractometer'
_diffrn_measurement_device_type  'Bruker D8 Quest'
_diffrn_measurement_method       '\w and \f scans'
_diffrn_radiation_monochromator  'mirror optics'
_diffrn_radiation_probe          x-ray
_diffrn_radiation_type           MoK\a
_diffrn_radiation_wavelength     0.71073
_diffrn_reflns_av_R_equivalents  0.0290
_diffrn_reflns_av_unetI/netI     0.0160
_diffrn_reflns_Laue_measured_fraction_full 0.998
_diffrn_reflns_Laue_measured_fraction_max 0.998
_diffrn_reflns_limit_h_max       9
_diffrn_reflns_limit_h_min       -9
_diffrn_reflns_limit_k_max       9
_diffrn_reflns_limit_k_min       -10
_diffrn_reflns_limit_l_max       16
_diffrn_reflns_limit_l_min       -16
_diffrn_reflns_number            29482
_diffrn_reflns_point_group_measured_fraction_full 0.998
_diffrn_reflns_point_group_measured_fraction_max 0.998
_diffrn_reflns_theta_full        30.090
_diffrn_reflns_theta_max         30.092
_diffrn_reflns_theta_min         2.958
_diffrn_source                   'microfocus sealed X-ray tube'
_diffrn_source_type              'Incoatec I\ms'
_exptl_absorpt_coefficient_mu    0.093
_exptl_absorpt_correction_T_max  0.1333
_exptl_absorpt_correction_T_min  0.1046
_exptl_absorpt_correction_type   multi-scan
_exptl_absorpt_process_details
;
SADABS-2014/4 (Bruker,2014/4) was used for absorption correction.
wR2(int) was 0.1189 before and 0.0418 after correction.
The Ratio of minimum to maximum transmission is 0.7847.
The \l/2 correction factor is 0.00150.
;
_exptl_crystal_colour            yellow
_exptl_crystal_colour_primary    yellow
_exptl_crystal_density_diffrn    1.359
_exptl_crystal_description       block
_exptl_crystal_F_000             244
_exptl_crystal_size_max          0.28
_exptl_crystal_size_mid          0.22
_exptl_crystal_size_min          0.14
_refine_diff_density_max         0.494
_refine_diff_density_min         -0.343
_refine_diff_density_rms         0.058
_refine_ls_extinction_coef       0.029(6)
_refine_ls_extinction_expression Fc^*^=kFc[1+0.001xFc^2^\l^3^/sin(2\q)]^-1/4^
_refine_ls_extinction_method     'SHELXL-2014/7 (Sheldrick 2014'
_refine_ls_goodness_of_fit_ref   1.044
_refine_ls_hydrogen_treatment    mixed
_refine_ls_matrix_type           full
_refine_ls_number_parameters     178
_refine_ls_number_reflns         3306
_refine_ls_number_restraints     0
_refine_ls_restrained_S_all      1.044
_refine_ls_R_factor_all          0.0448
_refine_ls_R_factor_gt           0.0376
_refine_ls_shift/su_max          0.001
_refine_ls_shift/su_mean         0.000
_refine_ls_structure_factor_coef Fsqd
_refine_ls_weighting_details
'w=1/[\s^2^(Fo^2^)+(0.0634P)^2^+0.1521P] where P=(Fo^2^+2Fc^2^)/3'
_refine_ls_weighting_scheme      calc
_refine_ls_wR_factor_gt          0.1037
_refine_ls_wR_factor_ref         0.1086
_reflns_Friedel_coverage         0.000
_reflns_number_gt                2866
_reflns_number_total             3306
_reflns_threshold_expression     'I > 2\s(I)'
_cod_data_source_file            ic6b00835_si_004.cif
_cod_data_source_block           ead2ohch3_0m
_cod_database_code               4348002
_shelx_space_group_comment
;
The symmetry employed for this shelxl refinement is uniquely defined
by the following loop, which should always be used as a source of
symmetry information in preference to the above space-group names.
They are only intended as comments.
;
_shelx_estimated_absorpt_t_max   0.987
_shelx_estimated_absorpt_t_min   0.974
_olex2_refinement_description
;
1. Fixed Uiso
 At 1.5 times of:
  All C(H,H,H) groups
2.a Idealised Me refined as rotating group:
 C4(H4A,H4B,H4C), C5(H5A,H5B,H5C), C13(H13A,H13B,H13C)
;
_shelx_res_file
;
    ead2ohch3_0m.res created by SHELXL-2014/7

TITL ead2ohch3_0m_a.res in P-1
REM Old TITL EAD2OHCH3_0m in P-1 #2
REM SHELXT solution in P-1
REM R1 0.103, Rweak 0.004, Alpha 0.028, Orientation as input
REM Formula found by SHELXT: C13 N2 O2
CELL 0.71073 7.0394 7.4097 11.9281 86.993 76.794 68.403
ZERR 2 0.0003 0.0003 0.0005 0.001 0.001 0.001
LATT 1
SFAC C H N O
UNIT 26 28 4 4

L.S. 9
PLAN  9
SIZE 0.14 0.22 0.28
TEMP -173.25
HTAB O2 N2
BOND $H
MORE -1
CONF
fmap 2
acta 60.18
REM <olex2.extras>
REM <HklSrc "%.\\EAD2OHCH3_0m.hkl">
REM </olex2.extras>

WGHT    0.063400    0.152100
EXTI    0.028937
FVAR       0.73654
O1    4    0.269974    0.712181    0.456549    11.00000    0.01617    0.02246 =
         0.01378    0.00267   -0.00155   -0.00610
O2    4    0.929114    0.684166    0.082049    11.00000    0.01341    0.02133 =
         0.01563    0.00679   -0.00344   -0.00492
H2    2    0.783120    0.719876    0.108146    11.00000    0.04580
N1    3    0.203425    0.862062    0.286198    11.00000    0.01002    0.01542 =
         0.01476    0.00161   -0.00257   -0.00315
N2    3    0.527841    0.774893    0.173864    11.00000    0.01259    0.01591 =
         0.01388    0.00304   -0.00398   -0.00478
C1    1    0.330253    0.748959    0.356807    11.00000    0.01188    0.01355 =
         0.01406    0.00037   -0.00285   -0.00393
C2    1    0.544213    0.692748    0.281968    11.00000    0.01172    0.01375 =
         0.01256    0.00122   -0.00184   -0.00445
C3    1    0.328606    0.870133    0.179851    11.00000    0.01332    0.01380 =
         0.01478    0.00167   -0.00347   -0.00552
C4    1    0.235696    0.976493    0.085074    11.00000    0.01655    0.02005 =
         0.01774    0.00615   -0.00707   -0.00648
AFIX 137
H4A   2    0.135868    0.923273    0.068908    11.00000   -1.50000
H4B   2    0.347072    0.962210    0.015823    11.00000   -1.50000
H4C   2    0.162646    1.114399    0.107752    11.00000   -1.50000
AFIX   0
C5    1   -0.023316    0.954056    0.321748    11.00000    0.00977    0.01859 =
         0.02174   -0.00063   -0.00235   -0.00214
AFIX 137
H5A   2   -0.072982    0.901969    0.395075    11.00000   -1.50000
H5B   2   -0.087539    0.927635    0.262881    11.00000   -1.50000
H5C   2   -0.062318    1.094598    0.331261    11.00000   -1.50000
AFIX   0
C6    1    0.718011    0.580641    0.318465    11.00000    0.01233    0.01315 =
         0.01311    0.00111   -0.00244   -0.00456
H6    2    0.688920    0.540471    0.395893    11.00000    0.01122
C7    1    0.940365    0.512567    0.263452    11.00000    0.01108    0.01232 =
         0.01384    0.00021   -0.00296   -0.00398
C8    1    1.033699    0.559426    0.153460    11.00000    0.01333    0.01334 =
         0.01430    0.00040   -0.00352   -0.00485
C9    1    1.252363    0.479147    0.114983    11.00000    0.01312    0.01818 =
         0.01582   -0.00006   -0.00105   -0.00599
H9    2    1.315967    0.512654    0.035926    11.00000    0.02610
C10   1    1.378305    0.360711    0.184010    11.00000    0.01136    0.01680 =
         0.01904   -0.00194   -0.00222   -0.00430
H10   2    1.530093    0.310736    0.155430    11.00000    0.02587
C11   1    1.291367    0.315739    0.294793    11.00000    0.01217    0.01375 =
         0.01794   -0.00025   -0.00489   -0.00356
C12   1    1.075113    0.391427    0.331408    11.00000    0.01220    0.01329 =
         0.01529    0.00076   -0.00345   -0.00395
H12   2    1.005225    0.363195    0.410642    11.00000    0.01661
C13   1    1.428086    0.192599    0.371712    11.00000    0.01395    0.02052 =
         0.02243    0.00256   -0.00775   -0.00288
AFIX 137
H13A  2    1.528431    0.073186    0.329405    11.00000   -1.50000
H13B  2    1.340388    0.159516    0.439683    11.00000   -1.50000
H13C  2    1.504372    0.264996    0.396083    11.00000   -1.50000
AFIX   0
HKLF 4

REM  ead2ohch3_0m_a.res in P-1
REM R1 =  0.0376 for    2866 Fo > 4sig(Fo)  and  0.0448 for all    3306 data
REM    178 parameters refined using      0 restraints

END

WGHT      0.0631      0.1530

REM Highest difference peak  0.494,  deepest hole -0.343,  1-sigma level  0.058
Q1    1   0.4452  0.7106  0.3223  11.00000  0.05    0.49
Q2    1   1.1841  0.3636  0.3123  11.00000  0.05    0.45
Q3    1   1.1431  0.5191  0.1366  11.00000  0.05    0.42
Q4    1   1.3113  0.4207  0.1525  11.00000  0.05    0.42
Q5    1   1.0032  0.4594  0.2978  11.00000  0.05    0.40
Q6    1   0.8271  0.5595  0.2827  11.00000  0.05    0.40
Q7    1   1.3344  0.3312  0.2416  11.00000  0.05    0.39
Q8    1   0.6281  0.6384  0.2952  11.00000  0.05    0.38
Q9    1   0.2825  0.9276  0.1347  11.00000  0.05    0.37
;
_shelx_res_checksum              20646
_shelx_hkl_file
;
  -1   0   0    1.30    0.10
  -1   0   0    0.80    0.10
  -1   0   0    1.10    0.10
  -1   0   0    1.30    0.20
  -1   0   0    1.00    0.10
   1   0   0    1.30    0.10
   1   0   0    1.20    0.10
   1   0   0    0.90    0.10
   1   0   0    1.50    0.20
   1   0   0    0.80    0.10
  -2   0   0    0.40    0.20
  -2   0   0    0.00    0.20
  -2   0   0    0.50    0.10
  -2   0   0    0.50    0.20
  -2   0   0    0.70    0.20
   2   0   0    0.30    0.30
   2   0   0    0.20    0.20
   2   0   0    0.30    0.20
   2   0   0    0.70    0.20
   2   0   0    0.20    0.20
   2   0   0    0.30    0.10
  -3   0   0  334.67    7.00
  -3   0   0  327.87    7.00
  -3   0   0  330.97    7.30
  -3   0   0  315.97    7.00
  -3   0   0  344.27    7.30
  -3   0   0  331.67    6.90
   3   0   0  332.67    7.20
   3   0   0  327.97    7.00
   3   0   0  332.17    7.00
   3   0   0  323.37    7.00
   3   0   0  326.07    6.90
   3   0   0  332.17    7.30
  -4   0   0  295.47    6.30
  -4   0   0  299.87    6.70
  -4   0   0  291.47    6.30
  -4   0   0  302.37    6.50
  -4   0   0  295.97    6.70
  -4   0   0  292.77    6.40
   4   0   0  288.87    6.30
   4   0   0  299.77    6.70
   4   0   0  294.87    6.40
   4   0   0  291.17    6.30
   4   0   0  288.07    6.70
   4   0   0  299.47    6.40
  -5   0   0   48.90    2.00
  -5   0   0   51.29    1.50
  -5   0   0   47.60    1.40
  -5   0   0   49.60    2.00
  -5   0   0   54.29    2.10
  -5   0   0   51.69    1.70
   5   0   0   50.09    2.00
   5   0   0   52.59    1.50
   5   0   0   50.49    2.00
   5   0   0   53.19    1.60
   5   0   0   51.69    1.50
   5   0   0   50.29    1.60
  -6   0   0   36.30    1.60
  -6   0   0   37.30    2.10
  -6   0   0   34.70    1.20
  -6   0   0   37.70    1.50
  -6   0   0   40.10    2.10
  -6   0   0   37.20    1.80
   6   0   0   38.70    2.10
   6   0   0   41.20    2.10
   6   0   0   37.40    1.40
   6   0   0   34.60    2.10
   6   0   0   36.40    1.50
   6   0   0   35.40    1.50
   6   0   0   35.50    1.40
  -7   0   0    7.60    1.40
  -7   0   0    5.40    0.80
  -7   0   0    5.70    0.70
  -7   0   0    4.90    1.40
  -7   0   0    8.50    1.30
   7   0   0    6.70    1.50
   7   0   0    5.50    1.00
   7   0   0    4.70    1.30
   7   0   0    5.40    1.50
   7   0   0    4.50    0.80
   7   0   0    7.20    0.70
   7   0   0    5.70    0.80
  -8   0   0   31.20    3.20
  -8   0   0   27.80    1.80
  -8   0   0   26.20    1.90
  -8   0   0   33.50    3.40
   8   0   0   23.90    2.40
   8   0   0   34.30    3.20
   8   0   0   28.40    2.10
   8   0   0   34.10    2.60
   8   0   0   30.30    1.70
   8   0   0   34.80    3.50
   8  -1   0    0.20    1.10
   8  -1   0    3.50    1.90
   8  -1   0    2.70    1.90
   8  -1   0    3.00    1.30
   8  -1   0    1.50    2.20
  -8   1   0    2.00    0.80
  -8   1   0    2.30    1.20
  -8   1   0    3.10    1.90
   7  -1   0   -0.20    1.50
   7  -1   0    0.70    1.50
   7  -1   0   -2.00    1.00
   7  -1   0    0.40    1.50
   7  -1   0    1.80    0.90
   7  -1   0   -0.50    0.80
  -7   1   0   -0.40    0.50
  -7   1   0    0.00    0.80
  -7   1   0    0.70    1.40
  -7   1   0    0.10    1.30
   6  -1   0    7.20    0.80
   6  -1   0    7.70    0.80
   6  -1   0    7.90    1.30
   6  -1   0    7.10    1.20
   6  -1   0    8.20    1.20
   6  -1   0    6.80    0.70
   6  -1   0    7.50    0.90
  -6   1   0    8.10    0.70
  -6   1   0    8.30    1.10
  -6   1   0    7.40    0.80
  -6   1   0    6.70    1.20
  -6   1   0    6.80    1.10
   5  -1   0  240.78    5.90
   5  -1   0  255.97    5.60
   5  -1   0  251.87    5.50
   5  -1   0  254.57    6.10
   5  -1   0  255.17    6.10
   5  -1   0  256.67    5.80
   5  -1   0  257.47    6.20
  -5   1   0  253.37    5.40
  -5   1   0  258.27    6.20
  -5   1   0  250.77    5.60
  -5   1   0  254.87    6.10
  -5   1   0  256.47    5.80
  -5   1   0  253.87    5.80
   4  -1   0    7.90    0.50
   4  -1   0    7.80    0.70
   4  -1   0    7.70    0.80
   4  -1   0    8.10    0.70
   4  -1   0    5.60    0.70
   4  -1   0    7.40    0.70
  -4   1   0    8.30    0.80
  -4   1   0    7.90    0.40
  -4   1   0    5.00    0.60
  -4   1   0    7.50    0.60
  -4   1   0    7.00    0.60
  -4   1   0    6.70    0.60
   3  -1   0  161.98    3.70
   3  -1   0  160.18    4.00
   3  -1   0  170.38    3.70
   3  -1   0  166.88    3.60
   3  -1   0  163.68    3.70
   3  -1   0  170.88    4.00
  -3   1   0  164.18    3.90
  -3   1   0  163.78    3.50
  -3   1   0  161.28    3.90
  -3   1   0  167.18    3.80
  -3   1   0  166.78    3.80
  -3   1   0  165.68    3.60
   2  -1   0   19.00    0.80
   2  -1   0   19.10    0.60
   2  -1   0   19.00    0.70
   2  -1   0   19.80    0.70
   2  -1   0   19.00    0.50
  -2   1   0   23.80    0.80
  -2   1   0   19.60    0.50
  -2   1   0   19.90    0.70
  -2   1   0   19.70    0.80
  -2   1   0   19.20    0.60
  -2   1   0   19.70    0.70
   1  -1   0   54.69    1.30
   1  -1   0   52.39    1.30
   1  -1   0   54.19    1.30
   1  -1   0   54.39    1.10
   1  -1   0   54.69    1.20
   1  -1   0   52.09    1.30
  -1   1   0   54.19    1.10
  -1   1   0   52.09    1.30
  -1   1   0   54.99    1.20
  -1   1   0   55.19    1.30
  -1   1   0   52.29    1.30
   0  -1   0  327.77    7.00
   0  -1   0  340.77    7.00
   0  -1   0  319.57    6.90
   0  -1   0  334.97    7.00
   0   1   0  338.27    7.00
   0   1   0  340.67    7.10
   0   1   0  349.87    7.00
  -1  -1   0   94.89    2.00
  -1  -1   0   94.19    2.10
  -1  -1   0   96.09    2.00
  -1  -1   0   93.39    2.00
  -1  -1   0   93.79    2.00
   1   1   0   96.09    2.00
   1   1   0   91.29    2.10
   1   1   0   93.79    2.10
   1   1   0   97.79    2.00
   1   1   0   94.99    2.00
  -2  -1   0   10.70    0.40
  -2  -1   0   10.80    0.50
  -2  -1   0   11.10    0.40
  -2  -1   0   10.60    0.50
  -2  -1   0   10.70    0.40
  -2  -1   0   10.80    0.30
   2   1   0   10.80    0.50
   2   1   0   11.20    0.30
   2   1   0   10.50    0.50
   2   1   0   10.60    0.40
   2   1   0   10.60    0.40
  -3  -1   0 1486.45   30.30
  -3  -1   0 1419.56   30.10
  -3  -1   0 1509.95   30.40
  -3  -1   0 1423.86   30.20
  -3  -1   0 1460.45   30.20
  -3  -1   0 1515.55   30.40
   3   1   0 1474.65   30.30
   3   1   0 1481.55   30.30
   3   1   0 1451.35   30.00
   3   1   0 1415.96   30.10
   3   1   0 1378.36   30.20
   3   1   0 1456.35   30.20
  -4  -1   0   -0.10    0.40
  -4  -1   0   -0.10    0.30
  -4  -1   0    0.20    0.40
  -4  -1   0    0.20    0.30
  -4  -1   0    0.20    0.20
  -4  -1   0    0.20    0.30
   4   1   0    0.20    0.20
   4   1   0    0.50    0.40
   4   1   0    0.00    0.20
   4   1   0    0.20    0.50
   4   1   0    0.20    0.30
   4   1   0    0.00    0.30
  -5  -1   0    3.30    0.40
  -5  -1   0    3.90    0.80
  -5  -1   0    2.70    0.40
  -5  -1   0    4.10    0.50
  -5  -1   0    4.50    0.80
  -5  -1   0    4.30    0.60
   5   1   0    4.10    0.80
   5   1   0    2.80    0.50
   5   1   0    4.00    0.40
   5   1   0    4.30    0.80
   5   1   0    3.80    0.50
   5   1   0    2.70    0.40
  -6  -1   0  108.89    3.30
  -6  -1   0  109.89    2.80
  -6  -1   0  106.49    3.40
  -6  -1   0  110.29    2.70
  -6  -1   0  109.09    2.80
  -6  -1   0  107.69    2.90
   6   1   0  108.29    3.30
   6   1   0  109.49    2.90
   6   1   0  111.59    2.90
   6   1   0  109.49    3.40
   6   1   0  108.59    2.80
   6   1   0  105.49    2.60
   6   1   0  108.79    3.30
  -7  -1   0   -0.40    1.10
  -7  -1   0   -1.10    0.70
  -7  -1   0    0.00    1.10
  -7  -1   0    1.50    0.90
  -7  -1   0   -0.40    0.60
  -7  -1   0    0.40    0.80
   7   1   0    0.80    0.50
   7   1   0    0.80    1.00
   7   1   0    1.20    0.70
   7   1   0    0.50    1.10
   7   1   0    0.20    0.90
   7   1   0    1.30    1.20
   7   1   0    0.20    0.60
  -8  -1   0    1.30    1.50
  -8  -1   0    0.60    1.60
  -8  -1   0   -0.60    0.80
  -8  -1   0    1.20    0.80
  -8  -1   0   -0.50    1.40
   8   1   0    0.50    1.30
   8   1   0   -0.70    1.10
   8   1   0    2.90    1.70
   8   1   0   -0.80    1.50
   8   1   0    1.40    0.90
   8   1   0    0.70    1.50
  -9  -1   0   65.09    4.30
  -9  -1   0   59.79    2.60
  -9  -1   0   65.89    2.90
   9   1   0   59.89    4.20
   9   1   0   63.29    4.30
   9   1   0   51.79    2.60
   9   1   0   63.89    2.80
   8  -2   0   50.49    3.10
   8  -2   0   53.59    4.20
  -8   2   0   63.29    4.40
  -8   2   0   54.39    2.90
   7  -2   0    3.60    1.20
   7  -2   0    1.60    1.20
   7  -2   0    2.70    1.50
   7  -2   0    2.60    1.60
   7  -2   0    2.10    1.80
   7  -2   0    1.40    1.00
  -7   2   0    0.40    1.00
  -7   2   0    2.50    1.70
  -7   2   0    1.60    1.40
  -7   2   0    1.50    0.50
   6  -2   0    8.90    0.90
   6  -2   0   11.10    1.10
   6  -2   0    9.70    1.40
   6  -2   0    9.40    1.00
   6  -2   0   11.60    1.50
   6  -2   0    6.10    1.10
  -6   2   0    7.00    1.20
  -6   2   0    9.00    1.30
  -6   2   0    8.80    0.70
  -6   2   0    8.10    0.80
  -6   2   0   10.40    1.40
   5  -2   0   33.90    1.40
   5  -2   0   33.90    1.90
   5  -2   0   32.90    1.50
   5  -2   0   33.40    1.60
   5  -2   0   32.70    2.00
   5  -2   0   34.80    1.10
   5  -2   0   34.20    1.90
  -5   2   0   31.70    1.70
  -5   2   0   32.40    1.30
  -5   2   0   36.00    1.90
  -5   2   0   33.10    1.90
  -5   2   0   32.50    0.90
   4  -2   0    4.90    0.50
   4  -2   0    5.30    0.70
   4  -2   0    4.40    0.80
   4  -2   0    4.20    0.40
   4  -2   0    4.50    0.60
   4  -2   0    2.90    0.60
  -4   2   0    4.50    0.50
  -4   2   0    3.60    0.70
  -4   2   0    4.40    0.30
  -4   2   0    3.20    0.60
  -4   2   0    6.60    0.80
   3  -2   0   38.40    0.90
   3  -2   0   36.00    1.30
   3  -2   0   36.30    1.40
   3  -2   0   34.30    1.40
   3  -2   0   36.60    1.10
   3  -2   0   37.40    1.30
  -3   2   0   37.40    1.30
  -3   2   0   34.80    1.40
  -3   2   0   37.30    1.10
  -3   2   0   37.20    0.90
  -3   2   0   36.10    1.40
   2  -2   0    4.30    0.40
   2  -2   0    5.30    0.50
   2  -2   0    4.40    0.20
   2  -2   0    3.20    0.40
   2  -2   0    3.70    0.50
   2  -2   0    4.70    0.40
  -2   2   0    4.50    0.20
  -2   2   0    5.60    0.60
  -2   2   0    5.00    0.40
  -2   2   0    4.80    0.50
   1  -2   0   13.90    0.50
   1  -2   0   13.90    0.60
   1  -2   0   14.10    0.60
   1  -2   0   14.40    0.70
   1  -2   0   13.50    0.30
   1  -2   0   13.10    0.60
  -1   2   0   12.90    0.50
  -1   2   0   13.50    0.60
  -1   2   0   13.40    0.60
  -1   2   0   14.50    0.60
   0  -2   0   98.79    2.10
   0  -2   0  101.69    2.10
   0  -2   0  101.09    2.20
   0  -2   0   99.49    2.10
   0  -2   0   98.49    2.20
   0   2   0   97.39    2.10
   0   2   0   97.79    2.20
   0   2   0   92.39    2.10
  -1  -2   0 3634.64   72.39
  -1  -2   0 3346.37   72.29
  -1  -2   0 3425.46   72.19
  -1  -2   0 3545.85   72.79
  -1  -2   0 3648.44   72.69
   1   2   0 3567.94   72.79
   1   2   0 3458.65   72.29
  -2  -2   0   10.00    0.50
  -2  -2   0   10.00    0.40
  -2  -2   0   10.40    0.50
  -2  -2   0   10.60    0.30
  -2  -2   0   10.50    0.30
  -2  -2   0    9.90    0.50
   2   2   0   10.40    0.30
   2   2   0   10.50    0.40
   2   2   0   11.00    0.40
  -3  -2   0   66.09    1.80
  -3  -2   0   63.29    1.70
  -3  -2   0   64.49    1.80
  -3  -2   0   66.39    1.60
  -3  -2   0   65.69    1.50
  -3  -2   0   66.59    1.50
   3   2   0   62.19    1.60
   3   2   0   64.39    1.50
   3   2   0   63.29    1.80
   3   2   0   66.19    1.50
  -4  -2   0  131.39    3.80
  -4  -2   0  147.19    3.60
  -4  -2   0  145.39    3.20
  -4  -2   0  145.99    3.30
  -4  -2   0  145.99    3.30
  -4  -2   0  148.09    3.40
   4   2   0  145.09    3.20
   4   2   0  143.59    3.40
   4   2   0  143.89    3.10
   4   2   0  144.39    3.50
   4   2   0  144.49    3.60
   4   2   0  150.08    3.30
  -5  -2   0   61.59    2.20
  -5  -2   0   66.69    1.80
  -5  -2   0   66.59    1.70
  -5  -2   0   66.79    2.20
  -5  -2   0   68.09    1.90
  -5  -2   0   65.49    1.80
   5   2   0   67.69    1.90
   5   2   0   68.79    2.10
   5   2   0   65.19    1.70
   5   2   0   68.19    2.20
   5   2   0   68.39    1.90
   5   2   0   65.99    1.60
  -6  -2   0    0.10    0.50
  -6  -2   0    0.40    0.40
  -6  -2   0    0.30    0.50
  -6  -2   0    0.30    0.90
  -6  -2   0   -0.20    0.50
  -6  -2   0    0.10    0.80
   6   2   0    0.50    0.60
   6   2   0    0.00    0.40
   6   2   0    0.00    0.60
   6   2   0    0.60    0.80
   6   2   0   -0.10    0.60
   6   2   0    0.70    0.30
   6   2   0    0.30    0.70
  -7  -2   0    5.60    0.90
  -7  -2   0    4.10    0.70
  -7  -2   0    4.60    0.80
  -7  -2   0    5.20    1.20
  -7  -2   0    2.30    1.10
  -7  -2   0    3.60    0.70
   7   2   0    3.60    0.60
   7   2   0    4.30    0.50
   7   2   0    4.80    1.00
   7   2   0    3.90    0.80
   7   2   0    3.70    1.20
   7   2   0    3.30    1.10
   7   2   0    5.20    1.30
  -8  -2   0   -0.40    1.30
  -8  -2   0    0.00    0.90
  -8  -2   0   -0.80    1.20
  -8  -2   0    0.30    0.90
  -8  -2   0    0.30    1.50
  -8  -2   0    0.30    0.90
   8   2   0   -0.50    0.50
   8   2   0   -0.40    0.80
   8   2   0    1.40    2.00
   8   2   0    0.80    1.20
   8   2   0   -0.70    1.50
   8   2   0   -1.30    1.30
  -9  -2   0   43.70    4.00
  -9  -2   0   45.10    2.50
  -9  -2   0   42.60    2.50
  -9  -2   0   44.00    4.30
   9   2   0   48.20    4.00
   9   2   0   44.90    3.80
   9   2   0   47.30    2.30
   9   2   0   42.60    1.90
   7  -3   0    7.20    2.00
   7  -3   0   11.00    2.10
   7  -3   0    8.20    1.50
  -7   3   0    9.50    1.30
  -7   3   0    8.60    1.80
   6  -3   0    1.40    1.20
   6  -3   0    5.00    1.40
   6  -3   0    6.30    1.20
   6  -3   0    5.80    1.20
   6  -3   0    3.10    1.10
   6  -3   0    5.80    1.70
  -6   3   0    5.50    1.30
  -6   3   0    2.30    1.30
  -6   3   0    4.70    1.40
  -6   3   0    3.70    0.90
   5  -3   0   20.30    1.60
   5  -3   0   19.10    1.30
   5  -3   0   22.40    2.00
   5  -3   0   20.70    2.00
   5  -3   0   19.00    1.80
   5  -3   0   22.20    1.60
  -5   3   0   20.70    1.80
  -5   3   0   18.50    1.70
  -5   3   0   21.00    1.30
  -5   3   0   19.20    1.80
   4  -3   0   83.39    2.70
   4  -3   0   79.69    2.40
   4  -3   0   82.49    2.50
   4  -3   0   86.09    2.50
   4  -3   0   83.09    2.60
   4  -3   0   83.59    2.70
  -4   3   0   85.79    2.20
  -4   3   0   83.39    2.50
  -4   3   0   82.39    2.70
  -4   3   0   86.29    1.80
   3  -3   0    0.50    0.50
   3  -3   0    0.00    0.60
   3  -3   0    0.00    0.50
   3  -3   0   -0.10    0.40
   3  -3   0    0.10    0.40
   3  -3   0    0.70    0.60
  -3   3   0    0.30    0.60
  -3   3   0    0.50    0.50
  -3   3   0    0.30    0.40
  -3   3   0    0.30    0.50
   2  -3   0    0.20    0.30
   2  -3   0    0.90    0.50
   2  -3   0    0.40    0.30
   2  -3   0    0.20    0.10
   2  -3   0    0.10    0.40
   2  -3   0    1.00    0.40
  -2   3   0    0.30    0.40
  -2   3   0    0.40    0.30
  -2   3   0    0.20    0.30
  -2   3   0    0.20    0.40
   1  -3   0   66.99    1.80
   1  -3   0   65.39    1.50
   1  -3   0   66.99    1.80
   1  -3   0   66.09    1.70
   1  -3   0   69.89    1.90
   1  -3   0   70.39    1.70
  -1   3   0   66.89    1.70
  -1   3   0   69.79    1.80
  -1   3   0   70.19    1.70
  -1   3   0   69.19    1.70
   0  -3   0   50.89    1.20
   0  -3   0   50.59    1.20
   0  -3   0   49.10    1.20
   0  -3   0   51.99    1.20
   0  -3   0   50.39    1.30
   0  -3   0   50.99    1.30
   0   3   0   49.99    1.20
   0   3   0   49.70    1.10
   0   3   0   50.89    1.30
  -1  -3   0   15.90    0.60
  -1  -3   0   15.80    0.40
  -1  -3   0   16.60    0.40
  -1  -3   0   18.50    0.60
  -1  -3   0   15.60    0.60
  -1  -3   0   16.50    0.40
  -2  -3   0   17.40    0.50
  -2  -3   0   17.20    0.60
  -2  -3   0   17.40    0.60
  -2  -3   0   16.70    0.70
  -2  -3   0   17.00    0.60
  -2  -3   0   15.80    0.60
   2   3   0   17.60    0.40
   2   3   0   18.20    0.50
   2   3   0   17.80    0.50
   2   3   0   17.50    0.60
   2   3   0   17.60    0.60
  -3  -3   0  172.78    3.90
  -3  -3   0  173.38    3.70
  -3  -3   0  177.88    3.90
  -3  -3   0  177.68    3.70
  -3  -3   0  178.28    4.00
  -3  -3   0  174.98    3.90
   3   3   0  178.28    3.80
   3   3   0  159.98    4.00
   3   3   0  181.28    3.90
   3   3   0  176.98    4.00
   3   3   0  178.78    3.70
   3   3   0  165.98    4.00
   3   3   0  175.78    3.80
  -4  -3   0  147.89    3.30
  -4  -3   0  143.79    3.20
  -4  -3   0  149.19    3.60
  -4  -3   0  146.99    3.40
  -4  -3   0  146.49    3.60
  -4  -3   0  147.19    3.50
   4   3   0  151.78    3.50
   4   3   0  145.99    3.40
   4   3   0  146.39    3.60
   4   3   0  151.98    3.20
   4   3   0  145.99    3.50
   4   3   0  149.39    3.20
  -5  -3   0    4.80    0.70
  -5  -3   0    6.30    0.80
  -5  -3   0    5.60    0.50
  -5  -3   0    6.30    0.50
  -5  -3   0    5.30    0.60
  -5  -3   0    5.90    0.50
   5   3   0    5.70    0.70
   5   3   0    8.30    0.90
   5   3   0    5.60    0.70
   5   3   0    5.10    0.60
   5   3   0    6.20    0.50
   5   3   0    6.70    0.50
  -6  -3   0   12.90    0.80
  -6  -3   0   13.00    1.00
  -6  -3   0   13.00    1.10
  -6  -3   0   12.90    1.10
  -6  -3   0   10.70    1.00
  -6  -3   0   13.50    1.50
   6   3   0   13.40    0.80
   6   3   0   13.00    1.20
   6   3   0   12.10    0.60
   6   3   0   11.50    1.00
   6   3   0   11.40    1.10
   6   3   0   12.90    1.20
   6   3   0   12.40    1.30
  -7  -3   0   40.00    2.40
  -7  -3   0   36.80    1.80
  -7  -3   0   39.80    1.80
  -7  -3   0   38.10    2.30
  -7  -3   0   38.70    1.40
   7   3   0   40.10    1.90
   7   3   0   38.20    1.90
   7   3   0   41.90    2.30
   7   3   0   36.20    2.20
   7   3   0   38.90    1.40
   7   3   0   39.30    1.20
   7   3   0   39.90    2.10
  -8  -3   0    2.80    0.90
  -8  -3   0    3.10    1.10
  -8  -3   0    3.20    0.80
  -8  -3   0    3.20    1.50
  -8  -3   0    3.30    1.40
  -8  -3   0    5.70    1.20
   8   3   0    3.30    0.70
   8   3   0    2.90    0.60
   8   3   0    3.20    1.40
   8   3   0    4.00    1.30
   8   3   0    3.50    1.30
   8   3   0    3.80    1.30
  -9  -3   0    4.80    1.10
  -9  -3   0    4.30    1.60
  -9  -3   0    3.00    2.20
  -9  -3   0    3.80    1.20
  -9  -3   0    9.30    2.10
   9   3   0    4.60    2.00
   9   3   0   -3.90    2.20
   9   3   0    4.50    1.10
   9   3   0    3.40    0.80
   6  -4   0    6.80    1.60
   6  -4   0    6.10    1.30
   6  -4   0    5.00    1.50
   6  -4   0    6.70    1.40
  -6   4   0    9.80    1.70
  -6   4   0    8.90    1.20
   5  -4   0    9.00    1.40
   5  -4   0    8.80    1.00
   5  -4   0    7.30    1.10
   5  -4   0    6.00    1.20
   5  -4   0    8.00    1.40
   5  -4   0    8.90    1.40
  -5   4   0    7.60    1.30
  -5   4   0   10.70    1.20
  -5   4   0   10.00    1.00
  -5   4   0    8.30    1.20
   4  -4   0  111.39    3.30
   4  -4   0  109.69    2.90
   4  -4   0  118.09    3.50
   4  -4   0  115.19    3.40
   4  -4   0  110.69    3.30
  -4   4   0  115.69    3.00
  -4   4   0  116.59    3.80
  -4   4   0  110.99    3.30
  -4   4   0  115.59    4.10
   3  -4   0   39.50    1.40
   3  -4   0   40.20    1.60
   3  -4   0   38.00    1.70
   3  -4   0   38.20    1.70
   3  -4   0   39.90    1.70
   3  -4   0   41.50    2.20
  -3   4   0   39.60    1.70
  -3   4   0   39.80    1.60
  -3   4   0   36.80    1.60
  -3   4   0   40.10    1.40
   2  -4   0   40.70    1.50
   2  -4   0   36.70    1.50
   2  -4   0   39.70    1.40
   2  -4   0   40.60    1.30
   2  -4   0   39.30    1.40
   2  -4   0   36.20    1.70
  -2   4   0   42.10    1.60
  -2   4   0   39.70    1.40
  -2   4   0   38.10    1.30
  -2   4   0   37.30    1.30
   1  -4   0   46.10    1.40
   1  -4   0   44.50    1.30
   1  -4   0   44.80    1.10
   1  -4   0   45.50    1.60
   1  -4   0   44.90    1.30
   1  -4   0   45.20    1.40
   1  -4   0   45.80    1.40
   1  -4   0   44.80    1.00
  -1   4   0   45.60    1.30
  -1   4   0   45.00    1.30
  -1   4   0   44.10    1.20
   0  -4   0   27.10    1.00
   0  -4   0   27.60    0.80
   0  -4   0   28.90    0.80
   0  -4   0   28.30    1.00
   0  -4   0   28.40    0.90
   0  -4   0   27.50    0.80
   0   4   0   27.30    0.70
   0   4   0   27.20    0.90
   0   4   0   27.60    0.70
  -1  -4   0    0.70    0.20
  -1  -4   0    0.90    0.10
  -1  -4   0    0.80    0.30
  -1  -4   0    1.00    0.10
  -1  -4   0    0.70    0.20
  -1  -4   0    1.20    0.30
  -1  -4   0    1.00    0.30
  -2  -4   0   29.80    0.80
  -2  -4   0   30.10    1.00
  -2  -4   0   29.10    0.80
  -2  -4   0   28.20    0.90
  -2  -4   0   28.60    0.70
  -2  -4   0   29.70    0.80
   2   4   0   29.00    0.70
  -3  -4   0  130.79    2.90
  -3  -4   0  133.39    3.00
  -3  -4   0  130.89    3.10
  -3  -4   0  128.39    3.10
  -3  -4   0  129.99    3.00
  -3  -4   0  130.09    2.80
   3   4   0  130.09    3.00
   3   4   0  135.49    2.90
   3   4   0  129.79    3.20
   3   4   0  133.99    3.00
   3   4   0  132.39    2.80
   3   4   0  131.49    2.90
  -4  -4   0   46.40    1.20
  -4  -4   0   49.80    1.50
  -4  -4   0   46.00    1.20
  -4  -4   0   46.70    1.50
  -4  -4   0   45.60    1.50
  -4  -4   0   47.40    1.50
   4   4   0   46.00    1.50
   4   4   0   46.90    1.30
   4   4   0   48.30    1.40
   4   4   0   48.30    1.40
   4   4   0   47.00    1.20
   4   4   0   47.60    1.20
  -5  -4   0    6.90    0.80
  -5  -4   0    5.00    0.60
  -5  -4   0    5.90    0.50
  -5  -4   0    6.60    0.80
  -5  -4   0    5.90    0.50
  -5  -4   0    5.70    0.70
   5   4   0    6.10    0.70
   5   4   0    6.10    0.50
   5   4   0    6.00    0.70
   5   4   0    6.20    0.60
   5   4   0    6.20    0.70
   5   4   0    6.40    0.70
  -6  -4   0   75.59    2.20
  -6  -4   0   74.09    2.30
  -6  -4   0   75.69    2.50
  -6  -4   0   77.59    2.60
  -6  -4   0   73.59    2.00
  -6  -4   0   74.79    1.80
   6   4   0   65.69    3.00
   6   4   0   75.19    2.50
   6   4   0   76.09    2.40
   6   4   0   72.39    2.40
   6   4   0   74.69    1.90
   6   4   0   75.09    1.90
  -7  -4   0   21.80    1.40
  -7  -4   0   19.10    1.90
  -7  -4   0   19.80    1.00
  -7  -4   0   17.70    1.60
  -7  -4   0   20.90    2.10
  -7  -4   0   19.70    1.30
   7   4   0   21.20    1.00
   7   4   0   20.80    1.70
   7   4   0   14.10    1.60
   7   4   0   18.10    0.90
   7   4   0   20.90    1.70
  -8  -4   0    4.20    1.50
  -8  -4   0    4.80    1.00
  -8  -4   0    7.30    1.20
  -8  -4   0    8.80    1.60
  -8  -4   0    8.40    1.10
  -8  -4   0    6.40    0.80
   8   4   0    6.70    1.40
   8   4   0    4.40    1.20
   8   4   0    4.50    0.70
   8   4   0    5.20    1.40
   8   4   0    4.50    1.30
   8   4   0    5.30    0.60
  -9  -4   0    1.20    0.90
  -9  -4   0   -1.30    1.80
  -9  -4   0   -1.50    1.20
  -9  -4   0   -2.70    1.60
   9   4   0   -1.00    1.00
   9   4   0    2.20    1.90
   6  -5   0    1.90    1.80
   6  -5   0   -1.10    1.70
  -6   5   0   -0.30    1.30
  -6   5   0    2.60    1.70
   5  -5   0   15.70    1.60
   5  -5   0   18.30    1.40
   5  -5   0   20.00    1.90
   5  -5   0   17.40    1.70
  -5   5   0   17.40    1.50
  -5   5   0   18.00    1.80
  -5   5   0   19.70    1.60
   4  -5   0   24.70    1.90
   4  -5   0   20.20    1.60
   4  -5   0   23.40    1.60
   4  -5   0   23.10    2.30
   4  -5   0   19.40    1.80
   4  -5   0   27.80    2.00
  -4   5   0   23.90    1.80
  -4   5   0   24.00    1.80
  -4   5   0   26.00    1.50
  -4   5   0   23.50    2.10
   3  -5   0   29.10    1.70
   3  -5   0   30.90    1.70
   3  -5   0   29.30    1.90
   3  -5   0   29.30    1.80
   3  -5   0   30.50    1.40
  -3   5   0   28.90    1.40
  -3   5   0   31.80    1.80
  -3   5   0   23.50    1.90
  -3   5   0   31.40    1.50
   2  -5   0   44.70    1.70
   2  -5   0   46.10    1.70
   2  -5   0   45.30    1.70
   2  -5   0   45.90    2.00
   2  -5   0   46.20    1.50
   2  -5   0   46.00    1.80
  -2   5   0   43.30    1.60
  -2   5   0   46.40    1.50
  -2   5   0   46.20    1.50
   1  -5   0   21.10    1.00
   1  -5   0   20.60    0.70
   1  -5   0   20.70    0.60
   1  -5   0   20.50    1.00
   1  -5   0   20.30    1.00
   1  -5   0   20.40    1.10
   1  -5   0   23.30    1.10
   1  -5   0   22.10    1.50
  -1   5   0   21.20    1.00
  -1   5   0   21.60    0.90
  -1   5   0   20.90    0.80
   0  -5   0   66.99    1.70
   0  -5   0   66.09    1.80
   0  -5   0   64.69    1.80
   0  -5   0   66.49    1.70
   0  -5   0   63.09    2.10
   0  -5   0   66.79    1.60
   0  -5   0   63.29    1.70
   0  -5   0   65.49    1.60
  -1  -5   0    2.80    0.30
  -1  -5   0    2.70    0.30
  -1  -5   0    2.40    0.40
  -1  -5   0    2.20    0.50
  -1  -5   0    2.20    0.40
  -1  -5   0    2.00    0.50
  -1  -5   0    2.90    0.30
  -2  -5   0    9.00    0.80
  -2  -5   0    9.80    0.50
  -2  -5   0    9.20    0.70
  -2  -5   0   10.00    0.80
  -2  -5   0    9.80    0.60
  -2  -5   0    9.40    0.50
  -2  -5   0    9.00    0.40
  -2  -5   0    9.00    0.40
  -3  -5   0    5.80    0.50
  -3  -5   0    5.00    0.50
  -3  -5   0    5.90    0.60
  -3  -5   0    6.10    0.50
  -3  -5   0    7.30    0.70
  -3  -5   0    7.00    0.40
   3   5   0    5.90    0.40
   3   5   0    6.50    0.30
  -4  -5   0    5.20    0.60
  -4  -5   0    3.70    0.70
  -4  -5   0    5.50    0.50
  -4  -5   0    4.40    0.40
  -4  -5   0    4.60    0.40
  -4  -5   0    3.70    0.50
   4   5   0    5.30    0.50
   4   5   0    4.90    0.40
   4   5   0    4.50    0.50
   4   5   0    5.20    0.50
  -5  -5   0   21.10    1.10
  -5  -5   0   18.80    1.30
  -5  -5   0   19.90    0.70
  -5  -5   0   18.50    0.80
  -5  -5   0   21.00    1.30
  -5  -5   0   20.40    1.20
   5   5   0   19.60    1.00
   5   5   0   21.00    1.00
   5   5   0   20.30    1.20
   5   5   0   19.60    1.30
   5   5   0   19.10    0.90
   5   5   0   20.60    0.80
   5   5   0   19.60    0.80
  -6  -5   0    6.10    0.90
  -6  -5   0    6.80    0.60
  -6  -5   0    5.50    0.90
  -6  -5   0    7.90    0.80
  -6  -5   0    6.90    0.60
  -6  -5   0    7.40    0.90
   6   5   0    7.90    0.80
   6   5   0    6.20    0.60
   6   5   0    6.70    0.90
   6   5   0    5.80    0.80
   6   5   0    6.90    0.80
   6   5   0    5.30    0.90
   6   5   0    6.50    0.50
  -7  -5   0    4.20    1.00
  -7  -5   0    4.20    1.10
  -7  -5   0    5.50    0.90
  -7  -5   0    5.40    0.50
  -7  -5   0    4.90    0.70
  -7  -5   0    5.60    1.20
   7   5   0    3.90    0.80
   7   5   0    6.60    1.00
   7   5   0    4.70    0.60
   7   5   0    4.80    0.60
   7   5   0    6.20    1.10
  -8  -5   0   19.80    1.70
  -8  -5   0   16.70    1.20
  -8  -5   0   17.30    1.90
  -8  -5   0   18.40    1.80
  -8  -5   0   17.60    1.80
  -8  -5   0   13.80    1.70
   8   5   0   17.00    1.20
   8   5   0   17.90    1.60
   8   5   0   16.50    1.60
   8   5   0   16.10    1.40
   8   5   0   16.50    1.20
  -9  -5   0    2.60    1.70
  -9  -5   0    2.40    1.30
  -9  -5   0    2.60    1.00
   9   5   0    1.40    1.60
   9   5   0    1.50    1.60
   5  -6   0    1.80    1.70
   5  -6   0   -0.10    1.70
  -5   6   0    3.50    1.30
  -5   6   0    2.60    1.40
   4  -6   0   -2.40    1.10
   4  -6   0   -0.80    1.30
   4  -6   0    1.00    1.20
   4  -6   0    1.20    1.20
  -4   6   0   -1.40    1.00
  -4   6   0    0.20    1.00
  -4   6   0    0.70    0.90
   3  -6   0    3.60    1.20
   3  -6   0    1.70    0.90
   3  -6   0    2.10    0.90
   3  -6   0    1.80    1.00
   3  -6   0    1.60    0.90
   3  -6   0    1.10    1.20
  -3   6   0    3.10    0.80
  -3   6   0    2.00    0.70
  -3   6   0    2.30    0.80
   2  -6   0   11.00    1.00
   2  -6   0   11.50    1.10
   2  -6   0   11.00    0.90
   2  -6   0   12.80    1.30
   2  -6   0   11.30    1.20
   2  -6   0   12.00    1.50
  -2   6   0   10.90    0.90
  -2   6   0   12.00    1.00
  -2   6   0   12.60    1.20
   1  -6   0   20.00    1.10
   1  -6   0   21.40    1.30
   1  -6   0   21.30    1.30
   1  -6   0   19.40    1.40
   1  -6   0   21.40    1.10
   1  -6   0   19.90    0.60
   1  -6   0   20.10    0.80
   1  -6   0   20.20    1.20
  -1   6   0   21.90    0.80
  -1   6   0   20.30    0.70
  -1   6   0   18.80    1.20
   0  -6   0   15.40    1.00
   0  -6   0   15.50    1.10
   0  -6   0   14.60    0.70
   0  -6   0   12.70    1.10
   0  -6   0   14.60    0.70
   0  -6   0   14.90    0.80
   0  -6   0   14.40    0.80
   0  -6   0   12.80    1.00
  -1  -6   0    9.80    0.90
  -1  -6   0    9.80    0.90
  -1  -6   0   12.00    0.50
  -1  -6   0   11.40    0.50
  -1  -6   0   11.50    1.00
  -1  -6   0   10.80    0.70
  -1  -6   0   11.90    1.10
  -2  -6   0    4.90    0.70
  -2  -6   0    4.50    0.40
  -2  -6   0    4.70    0.60
  -2  -6   0    4.40    0.30
  -2  -6   0    4.10    0.40
  -2  -6   0    4.80    0.40
  -2  -6   0    4.60    0.50
  -2  -6   0    3.90    0.60
  -3  -6   0   33.50    1.00
  -3  -6   0   33.70    1.40
  -3  -6   0   34.90    1.20
  -3  -6   0   34.40    1.10
  -3  -6   0   33.80    1.30
  -3  -6   0   33.40    1.00
  -4  -6   0    0.30    0.30
  -4  -6   0    1.00    0.50
  -4  -6   0    0.60    0.70
  -4  -6   0    0.80    0.40
  -4  -6   0    0.70    0.50
  -4  -6   0    0.30    0.40
   4   6   0    0.30    0.20
   4   6   0    0.30    0.30
  -5  -6   0   17.40    1.30
  -5  -6   0   17.70    1.10
  -5  -6   0   16.40    0.80
  -5  -6   0   15.10    1.20
  -5  -6   0   16.40    0.80
  -5  -6   0   17.90    1.50
   5   6   0   17.50    0.70
   5   6   0   17.30    0.90
   5   6   0   17.70    0.60
   5   6   0   17.90    1.00
  -6  -6   0   98.39    2.90
  -6  -6   0   92.79    3.00
  -6  -6   0  100.79    2.40
  -6  -6   0   97.49    3.00
  -6  -6   0   98.49    2.80
  -6  -6   0   98.99    2.30
   6   6   0   98.39    2.80
   6   6   0   96.29    2.30
   6   6   0  101.49    2.60
   6   6   0   96.69    2.50
   6   6   0  101.29    2.40
  -7  -6   0   39.20    2.20
  -7  -6   0   40.60    1.50
  -7  -6   0   36.90    2.30
  -7  -6   0   36.00    1.90
  -7  -6   0   38.20    2.30
  -7  -6   0   38.60    1.30
   7   6   0   38.00    2.10
   7   6   0   40.70    1.80
   7   6   0   40.60    1.80
   7   6   0   38.80    1.50
   7   6   0   38.00    1.60
   7   6   0   39.40    1.30
  -8  -6   0    5.00    0.70
  -8  -6   0    8.00    1.10
  -8  -6   0    6.00    1.80
  -8  -6   0    6.60    1.20
   8   6   0    5.50    0.90
   8   6   0    6.40    1.40
   8   6   0    5.40    0.70
   8   6   0    6.70    1.20
   8   6   0    5.00    1.30
  -9  -6   0    2.60    1.50
   9   6   0    0.20    0.80
   9   6   0    1.80    1.80
   4  -7   0   25.30    2.00
   4  -7   0   26.50    2.10
  -4   7   0   23.60    1.90
  -4   7   0   27.80    2.10
  -4   7   0   26.70    2.50
   3  -7   0    4.70    1.30
   3  -7   0    5.90    1.20
   3  -7   0    6.30    1.40
   3  -7   0    7.90    1.20
  -3   7   0    7.90    1.30
  -3   7   0    6.20    0.80
  -3   7   0    7.40    0.90
   2  -7   0   96.69    3.10
   2  -7   0   88.39    2.90
   2  -7   0   95.19    3.80
   2  -7   0   98.29    2.80
   2  -7   0   93.19    3.80
   2  -7   0   96.39    2.90
  -2   7   0   93.89    2.30
  -2   7   0   99.59    2.40
  -2   7   0   93.19    2.90
   1  -7   0   34.90    1.40
   1  -7   0   34.10    1.50
   1  -7   0   36.90    1.80
   1  -7   0   32.20    2.10
   1  -7   0   34.20    2.50
   1  -7   0   34.50    1.00
   1  -7   0   35.70    1.80
   1  -7   0   33.20    0.90
   0  -7   0   15.20    1.50
   0  -7   0   15.20    0.80
   0  -7   0   16.10    1.10
   0  -7   0   14.80    1.00
   0  -7   0   13.70    1.30
   0  -7   0   14.30    0.80
   0  -7   0   13.70    1.40
  -1  -7   0   11.20    0.60
  -1  -7   0   10.30    1.00
  -1  -7   0   13.20    1.10
  -1  -7   0   11.80    0.80
  -1  -7   0   13.60    1.40
  -1  -7   0   11.30    0.80
  -1  -7   0   12.80    1.00
  -2  -7   0   28.70    1.40
  -2  -7   0   25.90    1.20
  -2  -7   0   28.30    0.80
  -2  -7   0   28.60    1.20
  -2  -7   0   28.30    2.10
  -2  -7   0   27.30    1.50
  -3  -7   0    0.30    0.40
  -3  -7   0   -0.30    0.30
  -3  -7   0    0.20    0.40
  -3  -7   0   -0.40    0.70
  -3  -7   0   -0.10    0.70
  -3  -7   0    0.40    0.40
  -3  -7   0    0.30    0.50
  -4  -7   0    1.60    0.30
  -4  -7   0    2.00    0.90
  -4  -7   0    1.90    0.60
  -4  -7   0    1.40    0.50
  -4  -7   0    2.00    0.80
  -4  -7   0    1.70    0.50
  -4  -7   0    1.90    0.70
  -4  -7   0    1.50    0.40
  -5  -7   0   10.10    0.80
  -5  -7   0   10.40    1.00
  -5  -7   0   10.70    1.00
  -5  -7   0    7.40    1.10
  -5  -7   0   10.60    0.80
  -5  -7   0    8.30    0.90
   5   7   0   10.00    0.60
   5   7   0   10.00    0.70
  -6  -7   0    6.90    0.90
  -6  -7   0    7.00    0.60
  -6  -7   0    5.70    0.60
  -6  -7   0    6.90    1.20
  -6  -7   0    7.40    1.10
  -6  -7   0    4.50    0.90
   6   7   0    5.40    0.70
   6   7   0    7.90    0.70
  -7  -7   0    4.80    0.70
  -7  -7   0    4.00    0.60
  -7  -7   0    4.30    1.10
  -7  -7   0    3.60    1.40
   7   7   0    4.80    0.70
   7   7   0    3.30    1.00
   7   7   0    3.30    0.50
   7   7   0    5.50    0.80
  -8  -7   0    8.00    0.70
  -8  -7   0    9.40    1.40
  -8  -7   0    7.80    1.20
   8   7   0    8.60    1.40
   8   7   0    7.10    1.20
   8   7   0    5.80    1.10
   8   7   0    8.50    0.80
   3  -8   0    7.10    1.70
  -3   8   0    3.60    0.60
  -3   8   0    4.50    0.70
   2  -8   0    5.00    1.10
   2  -8   0    5.40    1.70
   2  -8   0    7.70    1.30
   2  -8   0    7.10    1.40
   2  -8   0    5.10    1.40
   1  -8   0   26.00    2.50
   1  -8   0   30.40    1.50
   1  -8   0   30.50    1.50
   1  -8   0   29.20    2.20
   1  -8   0   33.70    2.20
   0  -8   0    1.60    0.60
   0  -8   0   -0.10    1.10
   0  -8   0    0.10    0.50
   0  -8   0    0.50    0.70
   0  -8   0    0.10    0.90
   0  -8   0    0.50    0.50
   0  -8   0    0.10    1.00
   0  -8   0   -0.10    1.50
   0  -8   0    0.00    0.40
  -1  -8   0   21.00    0.80
  -1  -8   0   21.80    1.80
  -1  -8   0   19.00    2.10
  -1  -8   0   19.40    1.50
  -1  -8   0   20.50    1.30
  -1  -8   0   22.30    1.20
  -1  -8   0   24.40    1.90
  -2  -8   0   47.90    1.20
  -2  -8   0   44.00    2.70
  -2  -8   0   49.30    1.80
  -2  -8   0   48.00    2.10
  -2  -8   0   49.20    2.00
  -2  -8   0   50.09    1.90
  -2  -8   0   49.00    1.70
  -3  -8   0   12.20    1.10
  -3  -8   0   12.30    1.10
  -3  -8   0    9.40    0.90
  -3  -8   0   10.30    1.20
  -3  -8   0   12.80    1.30
  -4  -8   0   48.80    1.40
  -4  -8   0   49.00    1.50
  -4  -8   0   48.20    1.60
  -4  -8   0   46.70    2.30
  -4  -8   0   52.49    1.70
  -4  -8   0   50.89    2.10
  -4  -8   0   45.50    2.30
  -4  -8   0   52.19    1.60
  -5  -8   0   15.30    1.50
  -5  -8   0   15.70    1.30
  -5  -8   0   14.60    1.60
  -5  -8   0   13.00    1.00
  -5  -8   0   11.30    1.40
  -5  -8   0   12.30    0.90
  -5  -8   0   13.10    1.00
  -5  -8   0   12.30    1.10
  -6  -8   0   12.70    1.00
  -6  -8   0   11.90    1.10
  -6  -8   0   13.80    1.40
  -6  -8   0    8.00    2.00
  -6  -8   0   13.30    1.30
  -7  -8   0  100.19    2.70
  -7  -8   0  100.19    2.50
  -7  -8   0   96.39    3.40
  -7  -8   0   99.99    4.00
   7   8   0  103.99    2.60
   7   8   0   99.29    2.70
  -8  -8   0    3.60    0.80
  -8  -8   0    1.90    1.50
   8   8   0    2.10    1.10
   8   8   0    2.00    1.00
   1  -9   0   62.59    3.60
   1  -9   0   64.39    3.20
   1  -9   0   59.19    2.20
   0  -9   0   -0.40    1.20
   0  -9   0    0.80    0.50
   0  -9   0    0.50    0.60
   0  -9   0   -1.10    0.60
   0  -9   0   -1.50    1.30
  -1  -9   0    6.90    0.70
  -1  -9   0    5.70    1.20
  -1  -9   0    6.90    1.40
  -1  -9   0    3.60    1.50
  -1  -9   0    7.30    0.80
  -1  -9   0    6.50    1.10
  -1  -9   0    8.00    1.10
  -2  -9   0    3.90    0.90
  -2  -9   0    3.20    1.10
  -2  -9   0    4.30    1.00
  -2  -9   0    2.90    0.40
  -2  -9   0    3.10    1.40
  -2  -9   0    3.90    1.00
  -2  -9   0    2.20    1.80
  -2  -9   0    1.20    1.10
  -3  -9   0    4.70    1.00
  -3  -9   0    8.10    1.50
  -3  -9   0    6.20    1.80
  -3  -9   0    7.00    0.80
  -3  -9   0    5.10    0.90
  -3  -9   0    5.10    1.10
  -3  -9   0    5.30    1.40
  -4  -9   0   -0.40    0.70
  -4  -9   0    2.50    1.30
  -4  -9   0    2.20    0.80
  -4  -9   0   -0.10    1.00
  -4  -9   0    0.10    1.10
  -5  -9   0   -0.50    0.70
  -5  -9   0    0.10    1.00
  -5  -9   0    1.10    0.70
  -5  -9   0    0.30    0.90
  -5  -9   0   -0.50    0.60
  -6  -9   0    0.10    0.70
  -6  -9   0    1.60    1.50
  -6  -9   0   -0.40    1.40
  -6  -9   0   -1.20    1.20
  -7  -9   0   21.20    1.90
  -7  -9   0   16.20    1.40
  -1 -10   0    1.00    0.50
  -1 -10   0    3.40    1.70
  -1 -10   0    1.00    1.40
  -2 -10   0    2.60    1.20
  -2 -10   0    2.60    1.10
  -2 -10   0    2.50    1.40
  -2 -10   0    2.70    1.60
  -3 -10   0    2.10    1.70
  -3 -10   0    3.80    1.30
  -3 -10   0    3.60    1.30
  -3 -10   0    3.50    1.10
  -4 -10   0    2.20    1.10
  -4 -10   0   -0.50    1.40
  -4 -10   0    0.60    1.00
  -5 -10   0   25.60    4.50
  -5 -10   0   31.50    2.60
  -5 -10   0   28.80    2.00
  -5 -10   1   -0.10    1.50
  -5 -10   1    0.70    1.10
  -4 -10   1    1.20    1.10
  -4 -10   1    0.80    1.40
  -3 -10   1   23.30    1.90
  -3 -10   1   26.30    2.30
  -3 -10   1   22.80    1.90
  -3 -10   1   24.80    1.90
  -2 -10   1    1.00    1.20
  -2 -10   1    1.40    0.60
  -2 -10   1    1.00    1.40
  -1 -10   1   10.70    1.50
  -1 -10   1   13.40    1.80
  -1 -10   1   10.00    0.70
  -7  -9   1    6.60    1.70
  -7  -9   1    8.10    1.00
  -6  -9   1    2.40    1.30
  -6  -9   1    0.70    0.80
  -6  -9   1   -1.40    1.60
  -5  -9   1    0.90    0.60
  -5  -9   1    2.60    0.80
  -5  -9   1    2.50    1.20
  -5  -9   1    1.00    0.60
  -5  -9   1   -0.30    1.10
  -4  -9   1   32.80    1.30
  -4  -9   1   35.70    2.50
  -4  -9   1   36.10    1.50
  -4  -9   1   37.40    1.80
  -4  -9   1   33.70    1.60
  -4  -9   1   33.20    2.20
  -4  -9   1   38.70    1.70
  -3  -9   1    0.10    0.90
  -3  -9   1    0.00    1.30
  -3  -9   1    0.30    0.70
  -2  -9   1   42.00    1.30
  -2  -9   1   41.10    1.80
  -2  -9   1   41.10    2.20
  -2  -9   1   44.00    4.20
  -2  -9   1   44.80    1.90
  -2  -9   1   41.40    2.00
  -1  -9   1    0.40    0.50
  -1  -9   1    0.00    0.80
  -1  -9   1    2.70    1.00
  -1  -9   1    0.20    0.70
  -1  -9   1   -0.30    1.20
   0  -9   1    4.60    1.20
   0  -9   1    3.70    0.70
   0  -9   1    2.30    1.40
   0  -9   1    2.90    0.50
   0  -9   1    3.50    0.80
   1  -9   1   -0.90    1.30
   1  -9   1    1.30    0.90
   1  -9   1    3.30    1.70
   8   8  -1   42.60    2.20
   8   8  -1   38.70    2.60
  -8  -8   1   43.70    2.90
  -8  -8   1   42.00    1.80
   7   8  -1    0.10    0.70
   7   8  -1    1.30    0.90
  -7  -8   1    1.60    0.70
  -7  -8   1    1.80    1.30
  -7  -8   1    1.50    1.90
   6   8  -1    2.30    0.60
   6   8  -1    2.50    0.50
  -6  -8   1    0.60    1.30
  -6  -8   1    2.50    0.70
  -6  -8   1    1.20    1.10
  -6  -8   1    2.60    0.50
  -6  -8   1    2.40    0.50
  -5  -8   1    6.20    1.00
  -5  -8   1    5.00    0.70
  -5  -8   1    6.20    0.70
  -5  -8   1    5.80    0.50
  -5  -8   1    7.90    1.10
  -5  -8   1    6.20    1.30
  -5  -8   1    5.40    0.60
  -5  -8   1    4.00    1.20
  -4  -8   1   -1.10    0.50
  -4  -8   1    0.50    0.60
  -4  -8   1   -0.10    0.70
  -4  -8   1   -0.20    1.00
  -4  -8   1   -1.50    1.00
  -4  -8   1    0.00    0.40
  -4  -8   1   -0.80    0.80
  -4  -8   1   -0.60    0.50
  -3  -8   1    6.30    1.10
  -3  -8   1    7.10    0.60
  -3  -8   1    8.20    0.70
  -3  -8   1    6.00    0.90
  -3  -8   1    7.50    0.70
  -3  -8   1    7.70    1.10
  -3  -8   1    6.70    0.60
  -2  -8   1    3.50    0.80
  -2  -8   1    3.00    0.70
  -2  -8   1    2.50    0.40
  -2  -8   1    4.10    1.00
  -2  -8   1    3.40    0.50
  -2  -8   1    4.40    0.60
  -2  -8   1    3.40    0.80
  -2  -8   1    3.20    0.60
  -1  -8   1   11.00    0.80
  -1  -8   1    9.40    1.10
  -1  -8   1    9.60    1.20
  -1  -8   1    9.60    0.90
  -1  -8   1   10.40    0.70
  -1  -8   1   11.30    0.90
  -1  -8   1    8.80    1.70
  -1  -8   1   10.10    0.80
   0  -8   1    7.00    0.60
   0  -8   1    5.20    1.20
   0  -8   1    6.50    0.60
   0  -8   1    5.80    1.00
   0  -8   1    7.60    0.70
   0  -8   1    5.50    0.60
   0  -8   1    5.30    1.10
   0  -8   1    4.80    1.80
   0  -8   1    5.40    0.90
   1  -8   1   66.59    2.20
   1  -8   1   70.29    2.70
   1  -8   1   76.79    3.00
   1  -8   1   69.89    2.20
   1  -8   1   67.19    2.80
   2  -8   1   14.90    1.50
   2  -8   1   14.10    1.50
   2  -8   1   13.40    1.20
   2  -8   1   17.20    1.90
  -3   8  -1    3.80    0.70
  -3   8  -1    4.10    0.80
   3  -8   1    3.20    1.70
   8   7  -1   12.60    1.50
   8   7  -1    9.90    1.30
   8   7  -1   13.10    1.60
  -8  -7   1    9.80    1.40
  -8  -7   1   13.20    1.20
   7   7  -1  107.89    3.30
   7   7  -1  109.89    3.00
   7   7  -1  107.79    2.90
  -7  -7   1  111.19    2.70
  -7  -7   1  105.89    2.70
  -7  -7   1  106.99    3.90
  -7  -7   1  110.19    3.40
   6   7  -1   59.69    1.80
   6   7  -1   59.19    2.10
   6   7  -1   56.39    1.40
   6   7  -1   58.29    1.50
  -6  -7   1   58.99    1.60
  -6  -7   1   59.59    2.70
  -6  -7   1   57.99    2.20
  -6  -7   1   64.29    2.50
  -6  -7   1   57.49    2.20
  -6  -7   1   61.39    1.70
   5   7  -1    0.80    0.40
   5   7  -1    0.80    0.50
  -5  -7   1    0.10    0.60
  -5  -7   1    1.20    0.80
  -5  -7   1    1.30    0.30
  -5  -7   1    0.00    1.00
  -5  -7   1    0.70    0.50
  -5  -7   1    2.40    0.80
  -4  -7   1   11.10    1.30
  -4  -7   1   10.40    0.90
  -4  -7   1    9.30    1.00
  -4  -7   1   11.90    1.10
  -4  -7   1   10.90    0.70
  -4  -7   1   10.10    0.60
  -4  -7   1   10.30    0.80
  -4  -7   1   10.80    1.10
  -3  -7   1    0.80    0.40
  -3  -7   1    1.00    0.60
  -3  -7   1    0.90    0.50
  -3  -7   1    0.00    0.50
  -3  -7   1    0.90    0.30
  -3  -7   1    0.90    0.70
  -3  -7   1    0.70    0.40
  -2  -7   1   15.50    1.40
  -2  -7   1   15.00    0.60
  -2  -7   1   14.20    1.40
  -2  -7   1   16.60    1.20
  -2  -7   1   16.70    1.00
  -2  -7   1   14.50    0.80
  -2  -7   1   15.00    0.90
  -2  -7   1   14.40    0.80
  -1  -7   1    3.10    0.40
  -1  -7   1    3.80    0.60
  -1  -7   1    3.30    0.60
  -1  -7   1    4.50    0.90
  -1  -7   1    3.10    0.40
  -1  -7   1    4.40    0.60
  -1  -7   1    2.20    0.70
   0  -7   1    6.40    0.90
   0  -7   1    6.50    0.60
   0  -7   1    7.20    0.80
   0  -7   1    4.90    1.10
   0  -7   1    6.20    0.50
   0  -7   1    6.80    0.60
   0  -7   1    6.90    1.30
   0  -7   1    7.10    0.80
   0  -7   1    6.10    0.80
   1  -7   1   43.50    2.20
   1  -7   1   39.80    1.50
   1  -7   1   41.60    1.90
   1  -7   1   39.70    1.50
   1  -7   1   42.00    2.80
   1  -7   1   40.70    1.00
   1  -7   1   41.70    2.00
   1  -7   1   41.90    1.90
  -2   7  -1   17.70    1.70
  -2   7  -1   19.60    1.20
  -2   7  -1   17.80    1.00
   2  -7   1   20.70    1.60
   2  -7   1   16.30    1.50
   2  -7   1   19.20    1.80
   2  -7   1   17.30    1.90
   2  -7   1   16.20    1.40
   2  -7   1   17.70    1.40
   2  -7   1   17.80    1.50
  -3   7  -1    4.00    1.20
  -3   7  -1    5.00    1.00
  -3   7  -1    4.50    0.80
   3  -7   1    4.30    1.30
   3  -7   1    4.90    1.10
   3  -7   1    3.70    1.30
   3  -7   1    4.00    1.30
  -4   7  -1    2.00    1.00
  -4   7  -1    2.20    1.20
  -4   7  -1    2.60    1.50
   4  -7   1    2.70    1.50
   4  -7   1    0.10    1.70
   9   6  -1    1.70    1.10
   9   6  -1    1.10    1.90
  -9  -6   1   -0.50    1.50
   8   6  -1    2.40    1.40
   8   6  -1    1.20    1.30
   8   6  -1    2.50    0.90
   8   6  -1    3.10    1.20
   8   6  -1    3.00    0.60
  -8  -6   1    2.90    0.70
  -8  -6   1    3.40    1.90
  -8  -6   1    4.80    1.00
  -8  -6   1    4.40    1.20
   7   6  -1  193.28    5.00
   7   6  -1  183.68    4.40
   7   6  -1  195.98    4.20
   7   6  -1  191.28    4.80
   7   6  -1  199.28    4.70
   7   6  -1  191.68    5.10
  -7  -6   1  186.98    5.00
  -7  -6   1  195.08    4.30
  -7  -6   1  195.88    5.00
  -7  -6   1  190.48    4.30
  -7  -6   1  191.98    5.20
  -7  -6   1  188.38    4.80
   6   6  -1   57.49    2.20
   6   6  -1   57.59    1.70
   6   6  -1   58.29    1.90
   6   6  -1   60.99    1.90
   6   6  -1   55.99    2.40
   6   6  -1   62.09    2.00
  -6  -6   1   59.49    2.20
  -6  -6   1   58.89    1.60
  -6  -6   1   57.49    2.40
  -6  -6   1   60.39    1.60
  -6  -6   1   64.89    2.40
  -6  -6   1   58.69    2.10
   5   6  -1   18.20    1.00
   5   6  -1   18.70    1.20
   5   6  -1   19.80    0.70
   5   6  -1   16.30    1.50
   5   6  -1   18.50    0.90
  -5  -6   1   18.60    0.80
  -5  -6   1   19.00    1.20
  -5  -6   1   18.20    1.20
  -5  -6   1   19.70    0.90
  -5  -6   1   18.90    1.60
  -5  -6   1   20.20    1.50
   4   6  -1   75.39    2.00
   4   6  -1   77.09    2.40
   4   6  -1   77.49    1.90
  -4  -6   1   76.79    2.00
  -4  -6   1   76.79    2.30
  -4  -6   1   77.69    2.20
  -4  -6   1   76.29    1.80
  -4  -6   1   76.19    2.00
  -4  -6   1   75.89    2.20
  -3  -6   1   45.30    1.20
  -3  -6   1   41.80    1.90
  -3  -6   1   45.90    1.30
  -3  -6   1   47.00    1.70
  -3  -6   1   46.60    1.30
  -3  -6   1   48.00    1.40
  -3  -6   1   46.00    1.40
  -2  -6   1   17.90    0.60
  -2  -6   1   18.80    0.70
  -2  -6   1   17.40    1.10
  -2  -6   1   18.50    0.70
  -2  -6   1   18.70    0.80
  -2  -6   1   17.80    1.00
  -2  -6   1   16.10    1.10
  -2  -6   1   18.20    0.80
  -1  -6   1  154.18    3.60
  -1  -6   1  152.08    3.70
  -1  -6   1  154.78    3.60
  -1  -6   1  152.28    3.50
  -1  -6   1  155.18    3.40
  -1  -6   1  156.98    3.40
  -1  -6   1  156.28    3.80
   0  -6   1  186.18    4.20
   0  -6   1  177.58    4.00
   0  -6   1  179.58    4.00
   0  -6   1  178.98    4.00
   0  -6   1  181.48    4.20
   0  -6   1  187.18    4.50
   0  -6   1  185.98    4.30
  -1   6  -1   41.80    1.20
  -1   6  -1   43.30    1.30
  -1   6  -1   42.20    1.60
   1  -6   1   43.60    2.20
   1  -6   1   44.00    1.60
   1  -6   1   42.20    1.00
   1  -6   1   42.50    1.10
   1  -6   1   41.70    1.70
   1  -6   1   41.00    1.60
   1  -6   1   44.50    1.50
   1  -6   1   40.90    1.50
  -2   6  -1   -0.20    0.60
  -2   6  -1   -0.10    0.40
  -2   6  -1    0.40    0.70
   2  -6   1    0.80    0.70
   2  -6   1    0.50    0.60
   2  -6   1    1.80    1.20
   2  -6   1   -0.70    0.70
   2  -6   1    0.20    0.80
   2  -6   1   -0.70    0.70
  -3   6  -1  125.29    3.20
  -3   6  -1  133.29    3.40
  -3   6  -1  125.49    3.60
   3  -6   1  126.49    3.60
   3  -6   1  128.39    3.60
   3  -6   1  122.99    4.00
   3  -6   1  121.79    3.80
   3  -6   1  125.49    3.50
   3  -6   1  131.49    3.50
  -4   6  -1    0.80    0.90
  -4   6  -1    0.60    1.00
  -4   6  -1   -0.50    1.00
   4  -6   1    0.60    1.20
   4  -6   1    0.10    1.30
   4  -6   1   -0.10    1.20
   4  -6   1    0.40    1.10
  -5   6  -1   19.60    1.70
  -5   6  -1   18.80    1.60
   5  -6   1   23.50    2.10
   5  -6   1   21.60    2.00
   9   5  -1    5.80    2.00
   9   5  -1    6.80    0.90
  -9  -5   1    5.50    1.40
  -9  -5   1    5.10    1.10
   8   5  -1   -0.20    1.20
   8   5  -1    0.50    1.20
   8   5  -1    0.50    0.70
   8   5  -1    0.70    1.40
   8   5  -1    0.30    0.60
  -8  -5   1   -0.20    1.50
  -8  -5   1   -1.60    0.90
  -8  -5   1    0.40    0.70
  -8  -5   1    0.90    1.10
  -8  -5   1   -0.60    1.40
   7   5  -1    0.60    0.60
   7   5  -1    0.90    0.50
   7   5  -1    1.00    0.80
   7   5  -1    0.80    1.10
   7   5  -1    1.00    1.00
   7   5  -1    0.10    1.00
   7   5  -1    0.70    0.70
  -7  -5   1    1.10    0.50
  -7  -5   1    0.80    0.60
  -7  -5   1    0.90    0.80
  -7  -5   1    1.20    1.00
  -7  -5   1    1.10    1.00
  -7  -5   1    1.30    1.00
   6   5  -1  134.09    3.30
   6   5  -1  138.89    3.50
   6   5  -1  132.19    3.70
   6   5  -1  133.19    3.20
   6   5  -1  137.09    3.70
   6   5  -1  140.29    3.60
   6   5  -1  137.79    3.10
  -6  -5   1  140.29    3.80
  -6  -5   1  130.89    3.50
  -6  -5   1  140.29    3.10
  -6  -5   1  134.49    3.60
  -6  -5   1  138.89    3.70
  -6  -5   1  135.29    3.20
   5   5  -1   78.39    2.10
   5   5  -1   77.79    1.80
   5   5  -1   78.99    2.10
   5   5  -1   74.49    2.40
   5   5  -1   78.19    2.20
   5   5  -1   77.99    2.40
   5   5  -1   79.99    2.00
  -5  -5   1   75.79    2.40
  -5  -5   1   79.49    1.90
  -5  -5   1   79.29    1.90
  -5  -5   1   78.19    2.20
  -5  -5   1   77.69    2.50
  -5  -5   1   78.09    2.30
   4   5  -1    5.20    0.50
   4   5  -1    4.50    0.50
   4   5  -1    5.30    0.50
   4   5  -1    6.30    0.80
   4   5  -1    4.60    0.50
   4   5  -1    4.40    0.50
  -4  -5   1    5.40    0.50
  -4  -5   1    5.30    0.70
  -4  -5   1    4.50    0.60
  -4  -5   1    5.20    0.50
  -4  -5   1    5.10    0.60
  -4  -5   1    5.40    0.40
   3   5  -1   86.89    2.30
   3   5  -1   87.09    2.10
   3   5  -1   87.19    2.00
  -3  -5   1   86.19    2.10
  -3  -5   1   87.09    1.90
  -3  -5   1   85.39    2.20
  -3  -5   1   80.59    2.20
  -3  -5   1   85.99    2.10
  -3  -5   1   84.49    2.30
   2   5  -1   -0.30    0.20
   2   5  -1    0.00    0.20
  -2  -5   1   -0.10    0.30
  -2  -5   1    0.10    0.20
  -2  -5   1    0.10    0.20
  -2  -5   1    0.20    0.20
  -2  -5   1   -0.20    0.20
  -2  -5   1   -0.20    0.40
  -2  -5   1    0.90    0.20
  -2  -5   1    0.80    0.40
  -1  -5   1   81.19    1.90
  -1  -5   1   83.89    2.10
  -1  -5   1   81.89    1.90
  -1  -5   1   79.49    1.90
  -1  -5   1   81.09    2.00
  -1  -5   1   80.79    2.00
  -1  -5   1   81.79    2.20
   0   5  -1  122.69    2.70
   0   5  -1  124.99    2.80
   0  -5   1  127.99    3.00
   0  -5   1  124.89    2.90
   0  -5   1  123.39    2.80
   0  -5   1  126.29    2.90
   0  -5   1  125.29    3.00
   0  -5   1  128.69    2.90
   0  -5   1  123.89    3.20
  -1   5  -1    0.00    0.40
  -1   5  -1    0.40    0.40
  -1   5  -1    0.00    0.30
   1  -5   1    0.00    0.20
   1  -5   1    0.00    0.70
   1  -5   1    0.30    0.40
   1  -5   1    0.00    0.20
   1  -5   1    0.10    0.40
   1  -5   1    0.40    0.50
   1  -5   1    0.20    0.40
   1  -5   1    0.10    0.50
  -2   5  -1  258.27    5.80
  -2   5  -1  258.27    5.90
  -2   5  -1  269.97    5.90
  -2   5  -1  260.07    5.90
   2  -5   1  259.57    5.90
   2  -5   1  257.97    6.00
   2  -5   1  255.37    5.90
   2  -5   1  266.07    5.80
   2  -5   1  259.87    5.90
   2  -5   1  258.37    6.20
  -3   5  -1  382.06    8.50
  -3   5  -1  384.86    8.30
  -3   5  -1  379.06    8.50
   3  -5   1  372.06    8.60
   3  -5   1  382.56    8.50
   3  -5   1  378.76    8.50
   3  -5   1  387.06    8.30
   3  -5   1  375.36    8.60
   3  -5   1  371.16    8.60
  -4   5  -1    3.90    1.40
  -4   5  -1    4.40    1.00
  -4   5  -1    4.10    0.90
  -4   5  -1    3.90    1.20
   4  -5   1    4.10    1.30
   4  -5   1    4.20    1.00
   4  -5   1    3.30    1.00
   4  -5   1    5.90    1.00
   4  -5   1    3.20    0.90
   4  -5   1    4.00    1.30
  -5   5  -1   15.30    1.30
  -5   5  -1   12.90    1.40
  -5   5  -1   12.50    1.40
   5  -5   1   13.10    1.50
   5  -5   1   16.30    1.60
   5  -5   1   15.40    1.40
   5  -5   1   13.40    1.60
  -6   5  -1   36.60    2.70
  -6   5  -1   40.10    3.00
   6  -5   1   33.70    3.30
   6  -5   1   37.90    2.90
   9   4  -1   -0.10    0.90
   9   4  -1   -0.30    2.00
  -9  -4   1   -0.20    1.20
  -9  -4   1    1.10    1.60
  -9  -4   1   -0.70    2.10
  -9  -4   1    2.00    1.00
   8   4  -1    3.70    1.40
   8   4  -1    4.80    0.70
   8   4  -1    3.40    1.20
   8   4  -1    4.10    1.20
   8   4  -1    5.40    1.50
   8   4  -1    4.60    0.70
  -8  -4   1    5.40    0.90
  -8  -4   1    2.30    1.00
  -8  -4   1    3.60    1.00
  -8  -4   1    0.80    1.30
  -8  -4   1    4.50    1.60
  -8  -4   1    2.60    1.10
   7   4  -1   30.50    1.90
   7   4  -1   29.50    1.80
   7   4  -1   27.70    1.20
   7   4  -1   28.40    1.10
   7   4  -1   30.50    2.50
  -7  -4   1   29.20    2.10
  -7  -4   1   27.60    1.20
  -7  -4   1   27.70    1.80
  -7  -4   1   27.00    1.50
  -7  -4   1   25.60    1.60
  -7  -4   1   26.40    2.30
   6   4  -1   23.90    1.70
   6   4  -1   22.50    1.50
   6   4  -1   22.30    0.90
   6   4  -1   23.40    0.90
   6   4  -1   22.20    1.50
  -6  -4   1   23.50    1.60
  -6  -4   1   23.40    0.90
  -6  -4   1   21.10    2.00
  -6  -4   1   22.20    1.30
  -6  -4   1   22.70    1.40
  -6  -4   1   24.00    1.10
   5   4  -1   47.20    1.60
   5   4  -1   46.80    1.20
   5   4  -1   42.40    1.70
   5   4  -1   44.00    1.80
   5   4  -1   45.00    1.40
   5   4  -1   45.90    1.30
  -5  -4   1   44.80    1.30
  -5  -4   1   48.90    1.70
  -5  -4   1   44.50    1.20
  -5  -4   1   46.70    1.70
  -5  -4   1   42.50    1.50
  -5  -4   1   47.30    1.80
   4   4  -1   -0.20    0.30
   4   4  -1   -0.20    0.20
   4   4  -1    0.20    0.30
   4   4  -1   -0.20    0.40
   4   4  -1    0.00    0.40
   4   4  -1    0.40    0.30
  -4  -4   1   -0.10    0.30
  -4  -4   1   -0.10    0.40
  -4  -4   1    0.00    0.20
  -4  -4   1   -0.40    0.20
  -4  -4   1   -0.10    0.40
  -4  -4   1   -0.20    0.40
   3   4  -1  363.86    7.60
   3   4  -1  365.96    7.60
   3   4  -1  360.86    7.80
   3   4  -1  353.76    7.50
   3   4  -1  345.97    7.70
  -3  -4   1  361.26    7.60
  -3  -4   1  353.46    7.70
  -3  -4   1  351.26    7.40
  -3  -4   1  348.07    7.50
  -3  -4   1  364.96    7.70
  -3  -4   1  367.26    7.70
   2   4  -1  131.09    3.00
   2   4  -1  122.19    2.80
   2   4  -1  126.49    2.70
  -2  -4   1  126.59    2.70
  -2  -4   1  122.29    2.70
  -2  -4   1  127.69    2.90
  -2  -4   1  126.39    2.90
  -2  -4   1  124.79    2.80
   1   4  -1   90.29    2.00
   1   4  -1   87.89    2.00
  -1  -4   1   92.09    2.10
  -1  -4   1   92.19    2.00
  -1  -4   1   88.19    2.20
  -1  -4   1   88.09    2.20
  -1  -4   1   88.59    2.00
  -1  -4   1   89.89    2.10
  -1  -4   1   88.49    2.00
   0   4  -1    1.70    0.30
   0   4  -1    1.80    0.20
   0   4  -1    1.50    0.30
   0  -4   1    1.00    0.30
   0  -4   1    1.00    0.30
   0  -4   1    1.10    0.30
   0  -4   1    1.50    0.30
   0  -4   1    1.10    0.20
   0  -4   1    1.30    0.40
   0  -4   1    1.30    0.20
  -1   4  -1   93.49    2.30
  -1   4  -1   91.19    2.20
  -1   4  -1   94.89    2.30
  -1   4  -1   90.79    2.30
   1  -4   1   89.69    2.30
   1  -4   1   90.19    2.30
   1  -4   1   92.59    2.30
   1  -4   1   90.59    2.30
   1  -4   1   90.89    2.00
   1  -4   1   89.49    2.30
   1  -4   1   89.59    2.00
  -2   4  -1    3.60    0.50
  -2   4  -1    4.20    0.50
  -2   4  -1    3.50    0.50
  -2   4  -1    4.60    0.60
   2  -4   1    3.50    0.50
   2  -4   1    4.20    0.60
   2  -4   1    4.90    0.50
   2  -4   1    5.20    0.60
  -3   4  -1   84.29    2.40
  -3   4  -1   85.59    2.50
  -3   4  -1   86.59    2.60
  -3   4  -1   84.19    2.30
   3  -4   1   84.49    2.60
   3  -4   1   87.19    2.70
   3  -4   1   86.49    2.60
   3  -4   1   85.69    2.30
   3  -4   1   84.19    2.50
   3  -4   1   86.79    2.40
  -4   4  -1   67.39    2.40
  -4   4  -1   66.99    2.40
  -4   4  -1   66.69    2.40
  -4   4  -1   66.09    2.10
   4  -4   1   65.49    2.50
   4  -4   1   68.79    2.10
   4  -4   1   64.89    2.30
   4  -4   1   65.99    2.40
   4  -4   1   66.89    2.40
   4  -4   1   67.49    2.60
  -5   4  -1    2.40    1.00
  -5   4  -1    5.00    1.10
  -5   4  -1    2.60    1.10
  -5   4  -1    2.80    1.10
   5  -4   1    2.50    1.10
   5  -4   1    3.80    1.00
   5  -4   1    2.50    1.00
   5  -4   1    2.40    1.00
   5  -4   1    2.90    1.30
  -6   4  -1   14.40    1.30
  -6   4  -1   17.60    1.80
   6  -4   1   14.90    1.40
   6  -4   1   12.90    1.40
   6  -4   1   14.90    1.60
   6  -4   1   11.60    1.60
  -7   4  -1    3.50    2.10
  -7   4  -1    2.60    1.50
   7  -4   1    1.20    2.00
   9   3  -1    2.80    2.30
   9   3  -1    3.40    1.00
   9   3  -1    3.50    1.00
  -9  -3   1    1.80    1.70
  -9  -3   1    2.90    1.40
  -9  -3   1    4.20    2.30
  -9  -3   1    4.00    1.20
  -9  -3   1    2.80    2.50
   8   3  -1    1.60    1.40
   8   3  -1   -0.20    1.60
   8   3  -1    0.40    0.60
   8   3  -1    1.80    0.70
   8   3  -1   -0.90    1.20
   8   3  -1   -0.30    1.30
   8   3  -1   -0.50    1.00
  -8  -3   1    1.70    1.50
  -8  -3   1    1.20    1.10
  -8  -3   1    0.50    1.00
  -8  -3   1    0.70    1.50
  -8  -3   1   -0.20    0.90
  -8  -3   1    1.60    0.90
   7   3  -1   98.49    3.10
   7   3  -1  100.19    2.50
   7   3  -1   96.69    3.30
   7   3  -1   96.59    2.40
   7   3  -1   97.99    3.40
   7   3  -1   95.19    2.90
   7   3  -1   99.99    3.00
  -7  -3   1   97.99    3.40
  -7  -3   1   93.39    2.80
  -7  -3   1   92.29    2.80
  -7  -3   1   99.99    3.50
  -7  -3   1   97.59    2.60
   6   3  -1   36.60    1.60
   6   3  -1   36.30    1.10
   6   3  -1   33.70    1.60
   6   3  -1   35.90    1.90
   6   3  -1   34.70    1.20
   6   3  -1   37.00    1.70
  -6  -3   1   36.80    1.40
  -6  -3   1   35.10    1.40
  -6  -3   1   35.90    2.00
  -6  -3   1   35.00    1.20
  -6  -3   1   37.90    1.80
  -6  -3   1   36.70    1.50
   5   3  -1    1.10    0.70
   5   3  -1    2.00    0.30
   5   3  -1    1.70    0.30
   5   3  -1    1.80    0.50
   5   3  -1    1.20    0.50
  -5  -3   1    1.90    0.80
  -5  -3   1    2.10    0.50
  -5  -3   1    1.70    0.60
  -5  -3   1    1.10    0.40
  -5  -3   1    1.70    0.30
  -5  -3   1    1.40    0.60
   4   3  -1   32.10    1.30
   4   3  -1   32.70    0.90
   4   3  -1   34.90    0.90
  -4  -3   1   34.10    1.30
  -4  -3   1   34.40    1.30
  -4  -3   1   34.40    1.10
  -4  -3   1   33.70    1.00
  -4  -3   1   32.50    0.90
  -4  -3   1   32.10    1.20
   3   3  -1  165.18    3.70
   3   3  -1  169.08    3.60
   3   3  -1  174.38    3.80
   3   3  -1  167.08    3.70
   3   3  -1  165.78    3.90
   3   3  -1  162.18    3.90
  -3  -3   1  170.38    3.80
  -3  -3   1  170.88    3.60
  -3  -3   1  172.08    3.80
  -3  -3   1  167.28    3.90
  -3  -3   1  169.38    3.60
   2   3  -1  122.99    2.80
   2   3  -1  127.99    2.80
   2   3  -1  125.99    2.80
   2   3  -1  126.99    2.70
  -2  -3   1  123.09    2.80
  -2  -3   1  128.19    2.80
  -2  -3   1  126.99    2.90
  -2  -3   1  130.09    2.80
  -2  -3   1  125.29    2.70
   1   3  -1    7.80    0.30
   1   3  -1    8.20    0.30
   1   3  -1    7.60    0.50
   1   3  -1    8.00    0.30
  -1  -3   1    9.30    0.30
  -1  -3   1    9.80    0.40
  -1  -3   1    7.20    0.50
  -1  -3   1    7.60    0.40
  -1  -3   1    7.60    0.40
  -1  -3   1    7.60    0.30
  -1  -3   1    7.60    0.50
   0   3  -1    2.60    0.20
   0   3  -1    2.20    0.20
   0   3  -1    2.70    0.30
   0   3  -1    2.70    0.30
   0  -3   1    2.80    0.30
   0  -3   1    2.60    0.40
   0  -3   1    2.50    0.30
   0  -3   1    2.60    0.20
   0  -3   1    2.30    0.20
   0  -3   1    2.30    0.30
   0  -3   1    2.50    0.30
  -1   3  -1  271.37    5.70
  -1   3  -1  263.07    5.70
  -1   3  -1  265.37    5.80
  -1   3  -1  264.97    5.70
   1  -3   1  266.97    5.80
   1  -3   1  282.07    5.70
   1  -3   1  260.17    5.50
   1  -3   1  264.27    5.70
   1  -3   1  262.57    5.80
   1  -3   1  261.27    5.70
   1  -3   1  262.77    5.50
  -2   3  -1   96.19    2.40
  -2   3  -1   98.69    2.40
  -2   3  -1   95.29    2.50
  -2   3  -1   96.19    2.40
   2  -3   1   97.99    2.60
   2  -3   1   97.49    2.50
   2  -3   1   99.89    2.30
   2  -3   1   94.49    2.50
   2  -3   1   95.99    2.50
   2  -3   1   92.29    2.40
  -3   3  -1   31.60    1.40
  -3   3  -1   27.70    1.50
  -3   3  -1   30.40    1.40
  -3   3  -1   31.40    1.20
   3  -3   1   31.90    1.40
   3  -3   1   31.30    1.40
   3  -3   1   36.10    1.50
   3  -3   1   31.20    1.10
   3  -3   1   32.80    1.30
   3  -3   1   33.80    1.50
  -4   3  -1  392.66    8.80
  -4   3  -1  389.36    8.90
  -4   3  -1  396.46    8.70
  -4   3  -1  389.56    8.50
   4  -3   1  400.06    8.70
   4  -3   1  391.56    8.90
   4  -3   1  406.46    8.70
   4  -3   1  396.56    8.90
   4  -3   1  389.46    8.50
   4  -3   1  372.56    9.20
  -5   3  -1    6.60    1.10
  -5   3  -1    3.90    0.70
  -5   3  -1    3.90    1.00
  -5   3  -1    3.20    0.90
   5  -3   1    3.40    0.90
   5  -3   1    3.40    1.00
   5  -3   1    2.60    0.80
   5  -3   1    4.40    0.70
   5  -3   1    3.40    0.90
   5  -3   1    3.50    1.10
  -6   3  -1    6.20    0.90
  -6   3  -1    2.20    1.20
  -6   3  -1    4.30    1.40
  -6   3  -1    6.30    1.40
   6  -3   1    7.20    1.10
   6  -3   1    8.70    1.50
   6  -3   1    4.40    1.50
   6  -3   1    4.60    1.10
   6  -3   1    6.30    1.00
   6  -3   1    7.20    1.50
  -7   3  -1   30.80    2.20
  -7   3  -1   27.00    2.30
   7  -3   1   32.10    2.50
   7  -3   1   29.50    3.20
   7  -3   1   30.40    3.30
   9   2  -1   22.40    1.80
   9   2  -1   28.80    2.20
   9   2  -1   25.20    3.40
   9   2  -1   24.40    2.80
  -9  -2   1   25.70    2.50
  -9  -2   1   25.10    2.40
  -9  -2   1   23.70    2.80
  -9  -2   1   22.30    2.30
   8   2  -1   11.90    1.00
   8   2  -1   13.20    1.30
   8   2  -1   13.60    2.00
   8   2  -1   11.40    1.50
   8   2  -1   12.20    1.80
   8   2  -1   13.50    1.70
   8   2  -1   11.80    1.10
  -8  -2   1   11.30    1.20
  -8  -2   1   11.20    1.80
  -8  -2   1   11.30    1.10
  -8  -2   1   11.50    1.40
  -8  -2   1   11.20    1.10
  -8  -2   1   11.40    1.80
   7   2  -1   30.00    1.70
   7   2  -1   28.70    2.20
   7   2  -1   27.80    1.40
   7   2  -1   32.00    2.10
   7   2  -1   27.90    2.30
   7   2  -1   28.70    1.20
   7   2  -1   30.30    1.80
  -7  -2   1   26.60    1.50
  -7  -2   1   28.60    1.80
  -7  -2   1   29.10    2.30
  -7  -2   1   31.40    1.50
  -7  -2   1   31.60    2.20
  -7  -2   1   27.10    1.60
   6   2  -1   44.00    1.70
   6   2  -1   43.00    1.70
   6   2  -1   46.00    1.30
   6   2  -1   45.20    1.40
   6   2  -1   43.30    2.10
   6   2  -1   47.20    2.00
  -6  -2   1   45.00    1.60
  -6  -2   1   45.40    2.10
  -6  -2   1   46.10    1.50
  -6  -2   1   50.69    1.60
  -6  -2   1   45.20    1.70
  -6  -2   1   40.50    2.10
   5   2  -1   13.80    0.60
   5   2  -1   14.00    0.70
   5   2  -1   13.50    1.10
   5   2  -1   14.20    0.90
   5   2  -1   14.50    1.00
  -5  -2   1   12.40    0.90
  -5  -2   1   14.00    0.70
  -5  -2   1   13.10    0.90
  -5  -2   1   11.80    1.20
  -5  -2   1   13.10    1.20
  -5  -2   1   12.80    0.90
   4   2  -1    1.70    0.20
   4   2  -1    1.30    0.40
   4   2  -1    1.70    0.40
   4   2  -1    1.10    0.30
   4   2  -1    1.40    0.50
   4   2  -1    1.20    0.40
  -4  -2   1    1.50    0.30
  -4  -2   1    1.10    0.40
  -4  -2   1    1.40    0.30
  -4  -2   1    2.00    0.40
  -4  -2   1    1.70    0.50
  -4  -2   1    1.60    0.30
   3   2  -1   29.20    1.00
   3   2  -1   28.40    1.10
   3   2  -1   28.90    0.90
   3   2  -1   29.90    0.80
   3   2  -1   29.70    1.00
   3   2  -1   30.10    0.80
  -3  -2   1   29.60    1.00
  -3  -2   1   28.70    0.80
  -3  -2   1   30.60    0.80
  -3  -2   1   29.50    1.00
  -3  -2   1   28.50    0.90
  -3  -2   1   30.10    1.10
   2   2  -1  101.29    2.40
   2   2  -1  110.49    2.50
   2   2  -1   95.59    2.30
   2   2  -1  108.69    2.50
   2   2  -1  107.99    2.40
   2   2  -1  109.29    2.30
  -2  -2   1  108.49    2.50
  -2  -2   1  107.59    2.50
  -2  -2   1  109.49    2.30
  -2  -2   1  106.79    2.30
  -2  -2   1  109.59    2.40
  -2  -2   1  111.09    2.40
   1   2  -1   98.49    2.10
   1   2  -1   98.59    2.10
   1   2  -1   96.69    2.20
   1   2  -1   97.59    2.20
   1   2  -1  103.09    2.20
  -1  -2   1   97.79    2.20
  -1  -2   1  102.19    2.10
  -1  -2   1   96.49    2.10
  -1  -2   1   98.79    2.10
  -1  -2   1   94.19    2.10
  -1  -2   1   96.99    2.20
   0   2  -1    3.10    0.30
   0   2  -1    2.70    0.20
   0   2  -1    3.30    0.30
   0   2  -1    2.80    0.20
   0   2  -1    3.20    0.20
   0   2  -1    2.70    0.20
   0  -2   1    3.00    0.30
   0  -2   1    2.50    0.30
   0  -2   1    2.80    0.30
   0  -2   1    2.70    0.20
   0  -2   1    3.10    0.20
   0  -2   1    2.60    0.20
   0  -2   1    2.70    0.20
  -1   2  -1   83.29    2.00
  -1   2  -1   87.99    2.00
  -1   2  -1   85.59    2.00
  -1   2  -1   85.09    2.00
   1  -2   1   85.09    2.00
   1  -2   1   84.99    2.00
   1  -2   1   82.19    2.00
   1  -2   1   88.29    2.00
   1  -2   1   84.89    2.00
  -2   2  -1   86.59    2.20
  -2   2  -1   89.39    2.20
  -2   2  -1   89.19    2.10
   2  -2   1   90.29    2.10
   2  -2   1   86.59    2.20
   2  -2   1   88.69    2.20
   2  -2   1   91.09    2.20
   2  -2   1   89.79    2.30
   2  -2   1   88.09    2.30
  -3   2  -1    4.50    0.50
  -3   2  -1    3.80    0.60
  -3   2  -1    5.00    0.20
  -3   2  -1    4.50    0.50
  -3   2  -1    4.30    0.40
   3  -2   1    5.50    0.60
   3  -2   1    3.80    0.60
   3  -2   1    5.50    0.70
   3  -2   1    5.00    0.50
   3  -2   1    3.40    0.50
   3  -2   1    5.60    0.60
  -4   2  -1  159.78    3.70
  -4   2  -1  160.58    4.10
  -4   2  -1  160.78    4.10
  -4   2  -1  166.68    3.90
  -4   2  -1  159.98    3.40
   4  -2   1  164.88    4.10
   4  -2   1  160.08    4.10
   4  -2   1  167.48    3.90
   4  -2   1  158.78    3.90
   4  -2   1  163.78    3.80
   4  -2   1  159.28    4.20
  -5   2  -1   26.80    1.20
  -5   2  -1   25.00    1.60
  -5   2  -1   25.80    0.70
  -5   2  -1   24.90    1.70
  -5   2  -1   25.50    1.70
   5  -2   1   26.50    1.30
   5  -2   1   25.50    1.30
   5  -2   1   24.30    1.70
   5  -2   1   25.70    1.80
   5  -2   1   26.70    1.80
   5  -2   1   26.70    1.40
  -6   2  -1   23.00    2.10
  -6   2  -1   21.20    1.40
  -6   2  -1   20.40    0.70
  -6   2  -1   19.40    1.80
  -6   2  -1   20.10    1.50
   6  -2   1   21.00    1.50
   6  -2   1   18.90    2.00
   6  -2   1   18.80    1.50
   6  -2   1   20.70    2.30
   6  -2   1   18.20    1.50
   6  -2   1   17.40    1.60
  -7   2  -1   96.79    3.90
  -7   2  -1   94.99    2.20
  -7   2  -1   93.99    3.00
  -7   2  -1  101.89    3.90
   7  -2   1   99.89    3.20
   7  -2   1   95.09    3.20
   7  -2   1   96.49    3.90
   7  -2   1  103.79    4.00
   7  -2   1   92.39    3.00
   7  -2   1   97.09    4.20
  -8   2  -1   27.30    2.50
  -8   2  -1   31.00    2.90
   8  -2   1   33.30    2.80
   8  -2   1   28.40    2.70
   9   1  -1   65.19    5.50
   9   1  -1   62.69    4.60
   9   1  -1   62.99    3.30
   9   1  -1   64.09    3.00
  -9  -1   1   61.99    4.60
  -9  -1   1   67.09    2.80
  -9  -1   1   69.19    3.00
   8   1  -1    0.20    0.70
   8   1  -1    0.10    0.90
   8   1  -1    0.00    1.10
   8   1  -1    0.50    1.40
   8   1  -1   -0.60    1.60
   8   1  -1    0.00    1.60
   8   1  -1   -1.60    1.40
  -8  -1   1    0.10    0.90
  -8  -1   1   -0.40    0.80
  -8  -1   1    0.10    1.70
  -8  -1   1    0.70    1.10
  -8  -1   1   -0.90    1.80
  -8  -1   1   -0.30    1.30
   7   1  -1   25.90    1.20
   7   1  -1   23.40    2.30
   7   1  -1   22.30    1.60
   7   1  -1   27.80    2.30
   7   1  -1   26.80    2.40
   7   1  -1   24.10    1.70
   7   1  -1   24.60    1.40
  -7  -1   1   24.20    1.40
  -7  -1   1   24.70    2.40
  -7  -1   1   28.10    1.90
  -7  -1   1   24.60    1.30
  -7  -1   1   29.90    2.70
  -7  -1   1   22.80    1.70
   6   1  -1   47.20    1.60
   6   1  -1   48.60    1.40
   6   1  -1   46.90    2.30
   6   1  -1   48.20    1.70
   6   1  -1   48.80    2.20
   6   1  -1   48.30    1.70
  -6  -1   1   46.40    1.80
  -6  -1   1   49.00    2.30
  -6  -1   1   46.20    1.70
  -6  -1   1   43.80    2.10
  -6  -1   1   44.80    1.50
  -6  -1   1   46.70    1.60
   5   1  -1   13.60    0.80
   5   1  -1   13.50    0.90
   5   1  -1   13.90    1.20
   5   1  -1   11.20    0.90
   5   1  -1   12.60    0.70
  -5  -1   1   14.00    1.20
  -5  -1   1   13.50    0.90
  -5  -1   1   14.50    1.00
  -5  -1   1   14.20    1.30
  -5  -1   1   13.20    0.80
  -5  -1   1   12.70    0.80
   4   1  -1  270.87    6.10
   4   1  -1  265.37    5.70
   4   1  -1  266.07    5.90
   4   1  -1  270.27    5.80
   4   1  -1  269.37    6.20
   4   1  -1  272.47    5.80
  -4  -1   1  270.07    5.80
  -4  -1   1  265.37    5.80
  -4  -1   1  268.77    6.10
  -4  -1   1  267.77    5.80
  -4  -1   1  265.37    5.80
  -4  -1   1  268.67    6.20
   3   1  -1    0.30    0.30
   3   1  -1    0.70    0.20
   3   1  -1    0.30    0.30
   3   1  -1    0.60    0.20
   3   1  -1    0.40    0.30
   3   1  -1    0.60    0.20
  -3  -1   1    0.70    0.20
  -3  -1   1    0.60    0.20
  -3  -1   1    0.90    0.20
  -3  -1   1    0.30    0.30
  -3  -1   1    0.80    0.20
  -3  -1   1    0.80    0.30
   2   1  -1  272.97    5.70
   2   1  -1  281.07    5.80
   2   1  -1  275.27    5.70
   2   1  -1  262.37    5.60
   2   1  -1  262.87    5.60
   2   1  -1  271.67    5.80
  -2  -1   1  272.87    5.80
  -2  -1   1  262.57    5.80
  -2  -1   1  260.47    5.60
  -2  -1   1  277.27    5.70
  -2  -1   1  265.47    5.70
  -2  -1   1  266.67    5.60
   1   1  -1   59.79    1.40
   1   1  -1   59.69    1.40
   1   1  -1   56.59    1.40
   1   1  -1   60.99    1.30
   1   1  -1   60.69    1.30
  -1  -1   1   61.39    1.30
  -1  -1   1   59.49    1.30
  -1  -1   1   64.39    1.40
  -1  -1   1   59.39    1.40
  -1  -1   1   62.59    1.40
   0   1  -1  661.53   14.00
   0   1  -1  663.53   14.10
   0   1  -1  664.33   14.00
   0   1  -1  648.64   14.10
   0   1  -1  685.83   13.90
   0   1  -1  678.93   13.90
   0  -1   1  663.73   14.10
   0  -1   1  657.03   14.00
   0  -1   1  682.63   13.90
   0  -1   1  666.33   14.10
   0  -1   1  683.73   14.20
   0  -1   1  677.93   14.20
   0  -1   1  686.03   14.00
  -1   1  -1    2.40    0.20
  -1   1  -1    2.30    0.20
  -1   1  -1    1.40    0.20
   1  -1   1    1.80    0.20
   1  -1   1    2.60    0.20
   1  -1   1    2.10    0.20
   1  -1   1    2.40    0.20
   1  -1   1    2.20    0.20
  -2   1  -1   56.09    1.60
  -2   1  -1   57.19    1.40
  -2   1  -1   55.59    1.50
  -2   1  -1   55.89    1.20
  -2   1  -1   56.49    1.40
   2  -1   1   53.99    1.40
   2  -1   1   57.09    1.50
   2  -1   1   54.19    1.50
   2  -1   1   56.49    1.60
   2  -1   1   56.19    1.40
   2  -1   1   58.39    1.40
  -3   1  -1   13.20    0.60
  -3   1  -1   12.60    0.70
  -3   1  -1   12.00    0.90
  -3   1  -1   13.20    0.40
  -3   1  -1   12.50    0.90
   3  -1   1   14.10    0.90
   3  -1   1   12.30    0.70
   3  -1   1   13.20    0.60
   3  -1   1   13.30    0.50
   3  -1   1   12.50    0.70
   3  -1   1   12.00    0.90
  -4   1  -1    0.50    0.50
  -4   1  -1    1.00    0.60
  -4   1  -1    0.70    0.20
  -4   1  -1    0.40    0.30
  -4   1  -1   -0.30    0.50
   4  -1   1    0.50    0.50
   4  -1   1    1.30    0.40
   4  -1   1    0.70    0.30
   4  -1   1    1.00    0.50
   4  -1   1    0.10    0.40
   4  -1   1    0.30    0.30
   4  -1   1   -0.10    0.50
  -5   1  -1    3.10    0.70
  -5   1  -1    2.50    0.50
  -5   1  -1    3.10    0.30
  -5   1  -1    3.50    0.90
  -5   1  -1    2.80    0.80
   5  -1   1    2.70    0.80
   5  -1   1    3.60    0.50
   5  -1   1    3.20    0.60
   5  -1   1    1.50    0.70
   5  -1   1    1.30    0.80
   5  -1   1    3.10    0.60
  -6   1  -1    5.10    0.40
  -6   1  -1    5.40    1.20
  -6   1  -1    5.30    0.70
  -6   1  -1    3.60    1.00
  -6   1  -1    5.10    1.00
   6  -1   1    6.20    1.20
   6  -1   1    6.20    0.70
   6  -1   1    3.70    0.80
   6  -1   1    3.70    0.70
   6  -1   1    5.80    1.40
   6  -1   1    3.10    0.90
  -7   1  -1    0.70    0.80
  -7   1  -1    0.20    0.40
  -7   1  -1    2.20    1.20
  -7   1  -1    0.90    1.30
  -7   1  -1   -0.30    1.30
   7  -1   1   -0.40    1.40
   7  -1   1   -0.10    0.90
   7  -1   1    0.60    1.30
   7  -1   1    0.00    1.00
   7  -1   1    0.40    1.30
   7  -1   1    0.50    0.70
  -8   1  -1   13.00    0.90
  -8   1  -1   10.10    1.30
  -8   1  -1   17.40    2.40
  -8   1  -1   13.50    2.30
   8  -1   1   10.50    2.00
   8  -1   1   12.30    1.30
   8  -1   1   13.40    1.40
   8  -1   1   13.20    2.30
   8  -1   1   11.40    3.00
   8   0  -1    4.50    1.20
   8   0  -1    2.80    1.50
   8   0  -1    4.40    1.50
   8   0  -1    3.30    1.80
   8   0  -1    3.20    1.00
   8   0  -1    4.90    1.00
   8   0  -1    3.80    2.10
  -8   0   1    3.10    1.90
  -8   0   1    4.70    0.90
  -8   0   1    1.50    1.90
  -8   0   1    4.00    1.10
   7   0  -1   94.09    2.50
   7   0  -1   91.09    3.50
   7   0  -1   90.19    2.70
   7   0  -1   91.79    3.50
   7   0  -1   86.79    2.70
   7   0  -1   81.89    2.80
   7   0  -1   86.99    3.60
  -7   0   1   90.49    2.90
  -7   0   1   93.69    3.50
  -7   0   1   94.79    2.40
  -7   0   1   89.79    3.60
  -7   0   1   91.39    3.10
   6   0  -1   15.50    1.00
   6   0  -1   15.60    1.40
   6   0  -1   18.00    1.90
   6   0  -1   16.80    1.20
   6   0  -1   15.80    1.10
   6   0  -1   16.20    1.20
  -6   0   1   16.60    1.40
  -6   0   1   16.10    1.70
  -6   0   1   13.90    1.40
  -6   0   1   15.40    1.50
  -6   0   1   17.10    0.90
  -6   0   1   16.20    1.10
   5   0  -1   34.70    1.20
   5   0  -1   32.50    1.30
   5   0  -1   32.40    1.80
   5   0  -1   33.60    1.70
   5   0  -1   31.90    1.20
   5   0  -1   35.00    1.30
  -5   0   1   35.10    1.10
  -5   0   1   35.10    1.80
  -5   0   1   33.30    1.20
  -5   0   1   34.30    1.40
  -5   0   1   31.50    1.70
   4   0  -1    0.00    0.40
   4   0  -1   -0.40    0.30
   4   0  -1   -0.20    0.30
   4   0  -1   -0.10    0.30
   4   0  -1   -0.30    0.50
   4   0  -1   -0.40    0.30
  -4   0   1   -0.20    0.40
  -4   0   1    0.00    0.50
  -4   0   1   -0.20    0.30
  -4   0   1   -0.20    0.30
  -4   0   1    0.10    0.50
  -4   0   1    0.00    0.40
   3   0  -1  374.66    7.90
   3   0  -1  382.66    8.20
   3   0  -1  368.06    7.90
   3   0  -1  370.26    7.90
   3   0  -1  376.06    8.00
  -3   0   1  385.46    8.20
  -3   0   1  374.06    8.00
  -3   0   1  376.46    8.20
  -3   0   1  378.76    8.00
  -3   0   1  367.86    7.90
  -3   0   1  370.26    7.80
   2   0  -1   47.30    1.10
   2   0  -1   46.20    1.10
   2   0  -1   47.00    1.30
   2   0  -1   45.80    1.20
   2   0  -1   46.10    1.10
   2   0  -1   46.10    1.30
  -2   0   1   46.20    1.10
  -2   0   1   46.10    1.30
  -2   0   1   47.40    1.10
  -2   0   1   46.50    1.20
  -2   0   1   46.30    1.30
  -2   0   1   45.80    1.20
   1   0  -1 1398.86   28.50
   1   0  -1 1367.76   28.50
   1   0  -1 1427.16   29.00
   1   0  -1 1311.77   28.60
   1   0  -1 1359.66   28.60
   1   0  -1 1368.26   28.40
  -1   0   1 1358.36   28.50
  -1   0   1 1411.36   28.50
  -1   0   1 1369.66   28.40
  -1   0   1 1328.87   28.50
  -1   0   1 1399.96   28.90
  -1   0  -1  584.74   12.00
  -1   0  -1  533.55   11.80
  -1   0  -1  605.94   12.00
  -1   0  -1  549.54   11.80
  -1   0  -1  590.24   12.00
   1   0   1  569.84   12.00
   1   0   1  521.85   11.80
   1   0   1  581.24   12.00
   1   0   1  588.24   12.00
   1   0   1  573.44   12.00
  -2   0  -1  285.67    5.90
  -2   0  -1  290.07    6.10
  -2   0  -1  280.47    6.10
  -2   0  -1  276.47    5.90
  -2   0  -1  282.57    6.00
   2   0   1  280.97    5.90
   2   0   1  286.97    6.10
   2   0   1  286.57    5.90
   2   0   1  270.47    6.10
   2   0   1  280.97    5.90
   2   0   1  286.67    6.10
   2   0   1  274.87    5.90
  -3   0  -1  118.79    2.70
  -3   0  -1  122.69    2.60
  -3   0  -1  117.99    2.70
  -3   0  -1  118.59    2.70
  -3   0  -1  117.49    2.90
  -3   0  -1  120.09    3.00
   3   0   1  115.99    2.70
   3   0   1  113.59    2.90
   3   0   1  123.49    3.00
   3   0   1  120.09    2.60
   3   0   1  115.39    2.60
   3   0   1  119.19    2.70
   3   0   1  120.69    2.90
  -4   0  -1    9.50    0.60
  -4   0  -1   10.20    0.80
  -4   0  -1    9.70    1.00
  -4   0  -1   11.60    1.00
  -4   0  -1   10.80    0.70
   4   0   1   10.00    0.90
   4   0   1    9.70    0.60
   4   0   1    9.70    0.90
   4   0   1   11.20    0.70
   4   0   1    9.70    0.60
   4   0   1   11.30    0.70
  -5   0  -1   89.69    2.80
  -5   0  -1   89.59    2.40
  -5   0  -1   93.69    2.20
  -5   0  -1   89.89    2.30
  -5   0  -1   90.09    2.80
   5   0   1   91.59    2.80
   5   0   1   91.19    2.40
   5   0   1   93.59    2.80
   5   0   1   90.59    2.70
   5   0   1   93.49    2.20
   5   0   1   89.99    2.30
   5   0   1   89.49    2.40
  -6   0  -1   31.90    2.00
  -6   0  -1   31.90    1.70
  -6   0  -1   31.20    1.20
  -6   0  -1   31.00    1.30
  -6   0  -1   30.70    1.90
   6   0   1   34.70    1.90
   6   0   1   31.60    1.20
   6   0   1   31.90    1.50
   6   0   1   31.40    1.40
   6   0   1   34.60    2.00
   6   0   1   32.70    2.00
  -7   0  -1    5.70    0.90
  -7   0  -1    5.70    1.20
  -7   0  -1    4.20    1.40
  -7   0  -1    5.10    0.60
  -7   0  -1    6.40    1.40
   7   0   1    4.80    1.40
   7   0   1    4.50    1.00
   7   0   1    5.20    0.70
   7   0   1    4.60    1.10
   7   0   1    3.90    0.80
  -8   0  -1    8.90    1.10
  -8   0  -1    9.90    2.00
  -8   0  -1    5.90    3.60
  -8   0  -1   10.00    0.90
   8   0   1    6.90    1.70
   8   0   1   10.30    1.10
   8   0   1    9.50    1.70
   8   0   1   12.10    2.00
   8   0   1   10.60    1.20
   8   0   1   11.00    1.90
  -9   0  -1   14.00    1.60
  -9   0  -1    9.10    2.50
   9   0   1   13.50    2.60
   9   0   1   20.70    5.00
   9   0   1   14.90    1.70
   8  -1  -1   59.39    4.60
   8  -1  -1   54.59    4.10
   8  -1  -1   52.29    3.90
   8  -1  -1   58.99    2.80
   8  -1  -1   52.29    2.70
  -8   1   1   57.19    4.10
  -8   1   1   55.19    2.60
   7  -1  -1    6.10    1.00
   7  -1  -1    3.90    1.30
   7  -1  -1    5.10    1.10
   7  -1  -1    6.00    1.70
   7  -1  -1    6.90    1.50
   7  -1  -1    4.40    0.80
   7  -1  -1    4.60    0.90
  -7   1   1    5.30    1.40
  -7   1   1    5.70    1.70
  -7   1   1    5.30    1.40
  -7   1   1    4.50    0.90
  -7   1   1    5.40    0.70
   6  -1  -1    5.30    1.10
   6  -1  -1    5.50    0.70
   6  -1  -1    5.80    1.20
   6  -1  -1    5.40    0.80
   6  -1  -1    6.30    0.80
   6  -1  -1    6.70    1.00
  -6   1   1    5.60    0.70
  -6   1   1    4.20    1.10
  -6   1   1    4.30    1.00
  -6   1   1    4.30    0.50
  -6   1   1    6.90    1.00
  -6   1   1    5.20    1.00
   5  -1  -1   19.50    1.20
   5  -1  -1   21.90    1.10
   5  -1  -1   20.20    1.60
   5  -1  -1   20.60    1.10
   5  -1  -1   18.70    1.60
   5  -1  -1   19.70    1.00
  -5   1   1   22.10    1.00
  -5   1   1   22.10    1.60
  -5   1   1   20.70    1.40
  -5   1   1   21.50    1.30
  -5   1   1   20.20    1.50
  -5   1   1   20.80    0.80
   4  -1  -1   56.79    1.70
   4  -1  -1   55.99    2.00
   4  -1  -1   56.59    1.60
   4  -1  -1   57.79    2.00
   4  -1  -1   56.09    1.50
   4  -1  -1   55.19    1.50
  -4   1   1   55.39    2.00
  -4   1   1   55.89    1.90
  -4   1   1   56.19    1.40
  -4   1   1   54.89    1.50
  -4   1   1   54.89    1.80
  -4   1   1   52.79    1.70
   3  -1  -1  156.38    3.80
   3  -1  -1  158.58    3.50
   3  -1  -1  157.98    3.40
   3  -1  -1  153.08    3.60
   3  -1  -1  160.48    3.60
   3  -1  -1  154.38    3.80
  -3   1   1  156.28    3.50
  -3   1   1  158.08    3.40
  -3   1   1  160.98    3.80
  -3   1   1  158.68    3.70
  -3   1   1  156.98    3.80
  -3   1   1  158.28    3.60
   2  -1  -1   47.70    1.40
   2  -1  -1   45.50    1.30
   2  -1  -1   45.40    1.40
   2  -1  -1   45.60    1.10
   2  -1  -1   47.80    1.10
   2  -1  -1   48.40    1.30
  -2   1   1   45.90    1.30
  -2   1   1   46.40    1.30
  -2   1   1   47.30    1.10
  -2   1   1   46.60    1.20
  -2   1   1   47.40    1.40
  -2   1   1   48.70    1.30
   1  -1  -1  116.29    2.50
   1  -1  -1  110.39    2.40
   1  -1  -1  114.49    2.60
   1  -1  -1  111.49    2.40
   1  -1  -1  119.69    2.60
   1  -1  -1  116.49    2.60
  -1   1   1  110.09    2.50
  -1   1   1  114.49    2.60
  -1   1   1  112.69    2.40
  -1   1   1  114.29    2.60
  -1   1   1  114.49    2.40
   0  -1  -1  516.85   10.40
   0  -1  -1  495.45   10.50
   0  -1  -1  447.86   10.30
   0  -1  -1  507.75   10.50
   0  -1  -1  502.75   10.40
   0   1   1  513.85   10.40
   0   1   1  482.75   10.30
   0   1   1  508.05   10.50
   0   1   1  509.15   10.50
   0   1   1  519.45   10.50
  -1  -1  -1  675.73   14.60
  -1  -1  -1  695.43   14.50
  -1  -1  -1  718.43   14.60
  -1  -1  -1  721.33   14.70
  -1  -1  -1  692.23   14.50
   1   1   1  704.73   14.40
   1   1   1  704.83   14.60
   1   1   1  686.13   14.50
   1   1   1  649.43   14.50
   1   1   1  692.53   14.40
  -2  -1  -1  176.08    3.80
  -2  -1  -1  175.18    3.80
  -2  -1  -1  176.98    3.70
  -2  -1  -1  172.78    3.50
  -2  -1  -1  172.58    3.60
  -2  -1  -1  170.78    3.70
   2   1   1  166.18    3.70
   2   1   1  163.98    3.60
   2   1   1  162.48    3.80
   2   1   1  172.08    3.80
   2   1   1  169.18    3.70
   2   1   1  166.88    3.50
  -3  -1  -1   15.10    0.60
  -3  -1  -1   14.90    0.60
  -3  -1  -1   15.80    0.50
  -3  -1  -1   16.00    0.80
  -3  -1  -1   14.30    0.90
  -3  -1  -1   15.50    0.60
   3   1   1   16.70    0.60
   3   1   1   16.50    0.80
   3   1   1   16.10    0.40
   3   1   1   16.10    0.60
   3   1   1   15.50    0.80
   3   1   1   14.30    0.60
   3   1   1   15.50    0.80
  -4  -1  -1   69.69    1.80
  -4  -1  -1   71.59    1.80
  -4  -1  -1   71.49    2.10
  -4  -1  -1   72.29    1.70
  -4  -1  -1   73.39    1.80
  -4  -1  -1   69.79    2.10
   4   1   1   69.89    1.80
   4   1   1   72.19    1.60
   4   1   1   71.39    1.80
   4   1   1   69.69    2.10
   4   1   1   69.69    2.10
   4   1   1   71.69    1.80
   4   1   1   67.99    2.10
  -5  -1  -1   71.39    2.40
  -5  -1  -1   71.89    2.00
  -5  -1  -1   72.49    1.90
  -5  -1  -1   72.09    1.90
  -5  -1  -1   74.29    2.40
  -5  -1  -1   71.09    1.90
   5   1   1   71.69    2.30
   5   1   1   72.29    2.00
   5   1   1   69.89    1.90
   5   1   1   73.69    2.30
   5   1   1   72.59    1.70
   5   1   1   69.99    2.30
   5   1   1   74.39    1.90
  -6  -1  -1   41.50    2.10
  -6  -1  -1   43.50    1.50
  -6  -1  -1   41.50    1.50
  -6  -1  -1   43.60    1.70
  -6  -1  -1   43.00    1.50
  -6  -1  -1   42.20    2.10
   6   1   1   43.70    2.00
   6   1   1   42.60    2.00
   6   1   1   43.60    1.20
   6   1   1   43.40    1.50
   6   1   1   44.60    1.60
   6   1   1   43.30    1.50
   6   1   1   41.90    2.00
  -7  -1  -1   10.00    1.40
  -7  -1  -1   10.10    0.80
  -7  -1  -1   10.20    1.10
  -7  -1  -1   11.60    1.50
   7   1   1    9.80    0.80
   7   1   1   15.80    1.60
   7   1   1    9.10    1.20
   7   1   1    9.30    1.20
   7   1   1   11.10    1.10
   7   1   1   11.10    0.90
  -8  -1  -1    4.30    1.70
  -8  -1  -1    2.60    0.80
  -8  -1  -1    3.60    1.40
  -8  -1  -1    2.30    1.40
  -8  -1  -1    3.30    0.90
   8   1   1    3.00    1.70
   8   1   1    2.90    0.60
   8   1   1    5.00    1.60
   8   1   1    2.80    1.20
   8   1   1    3.10    1.40
   8   1   1    2.10    0.90
  -9  -1  -1   52.89    4.10
  -9  -1  -1   49.90    2.70
  -9  -1  -1   46.10    4.60
  -9  -1  -1   54.69    2.40
   9   1   1   46.10    2.30
   9   1   1   55.29    4.40
   9   1   1   59.79    4.30
   9   1   1   51.49    2.60
   8  -2  -1    3.10    2.20
   8  -2  -1    3.70    1.60
  -8   2   1    6.40    2.50
  -8   2   1    2.50    1.40
   7  -2  -1    2.10    1.10
   7  -2  -1    0.80    1.10
   7  -2  -1   -0.60    1.80
   7  -2  -1    3.60    1.20
   7  -2  -1    1.70    1.70
   7  -2  -1    3.70    1.80
  -7   2   1    2.60    1.00
  -7   2   1    2.70    0.60
  -7   2   1    1.10    1.60
  -7   2   1   -1.00    1.60
   6  -2  -1    4.00    1.30
   6  -2  -1    2.60    0.90
   6  -2  -1    4.50    0.60
   6  -2  -1    5.80    1.40
   6  -2  -1    3.70    0.90
   6  -2  -1    5.20    1.40
   6  -2  -1    3.70    0.90
  -6   2   1    4.80    0.80
  -6   2   1    4.10    1.10
  -6   2   1    3.50    1.30
  -6   2   1    3.80    0.50
  -6   2   1    3.10    1.10
   5  -2  -1   23.80    1.70
   5  -2  -1   25.70    1.40
   5  -2  -1   23.60    1.80
   5  -2  -1   27.50    1.90
   5  -2  -1   25.50    1.00
   5  -2  -1   28.00    1.20
  -5   2   1   26.80    0.90
  -5   2   1   26.50    1.20
  -5   2   1   23.00    1.60
  -5   2   1   27.00    1.70
  -5   2   1   26.00    1.80
   4  -2  -1   40.50    1.30
   4  -2  -1   42.00    1.80
   4  -2  -1   41.30    1.50
   4  -2  -1   39.60    1.20
   4  -2  -1   41.50    1.80
   4  -2  -1   38.20    1.80
  -4   2   1   39.90    1.00
  -4   2   1   39.70    1.80
  -4   2   1   42.10    1.30
  -4   2   1   40.10    1.60
  -4   2   1   40.80    1.70
  -4   2   1   41.10    1.60
   3  -2  -1   23.40    1.20
   3  -2  -1   23.30    1.20
   3  -2  -1   23.70    0.70
   3  -2  -1   24.80    1.00
   3  -2  -1   24.00    1.10
   3  -2  -1   25.30    0.90
  -3   2   1   23.80    1.20
  -3   2   1   25.30    0.90
  -3   2   1   24.10    1.20
  -3   2   1   26.30    1.10
  -3   2   1   25.50    0.70
  -3   2   1   24.50    1.10
   2  -2  -1  277.37    6.10
   2  -2  -1  274.67    6.10
   2  -2  -1  272.57    6.00
   2  -2  -1  275.27    5.90
   2  -2  -1  279.77    6.00
   2  -2  -1  269.57    5.80
  -2   2   1  275.57    5.70
  -2   2   1  279.87    5.90
  -2   2   1  278.37    6.10
  -2   2   1  283.97    6.00
  -2   2   1  275.17    6.10
   1  -2  -1  395.26    8.10
   1  -2  -1  362.96    8.10
   1  -2  -1  370.36    7.80
   1  -2  -1  383.76    7.90
   1  -2  -1  378.56    8.00
   1  -2  -1  391.86    8.10
  -1   2   1  380.66    8.00
  -1   2   1  380.76    8.10
  -1   2   1  374.06    7.90
  -1   2   1  378.76    7.90
  -1   2   1  380.46    8.00
  -1   2   1  386.96    8.00
   0  -2  -1  849.61   18.00
   0  -2  -1  877.01   18.00
   0  -2  -1  881.71   18.10
   0  -2  -1  878.21   18.00
   0  -2  -1  858.31   18.10
   0  -2  -1  863.01   18.00
   0   2   1  852.61   18.00
   0   2   1  874.11   18.00
   0   2   1  885.61   17.90
  -1  -2  -1   71.79    1.60
  -1  -2  -1   73.19    1.70
  -1  -2  -1   73.09    1.60
  -2  -2  -1 1710.83   35.30
  -2  -2  -1 1605.64   34.90
  -2  -2  -1 1686.63   34.90
  -2  -2  -1 1723.53   35.40
  -2  -2  -1 1662.13   34.90
   2   2   1 1724.43   35.00
   2   2   1 1655.63   34.90
   2   2   1 1714.13   35.10
   2   2   1 1722.33   34.80
   2   2   1 1627.34   35.30
  -3  -2  -1   65.39    1.80
  -3  -2  -1   65.69    1.60
  -3  -2  -1   67.19    1.60
  -3  -2  -1   67.89    1.70
  -3  -2  -1   64.99    1.40
  -3  -2  -1   63.89    1.80
   3   2   1   65.29    1.50
   3   2   1   65.39    1.40
   3   2   1   66.29    2.10
   3   2   1   62.89    1.70
   3   2   1   65.19    1.60
   3   2   1   64.49    1.70
  -4  -2  -1  343.67    7.40
  -4  -2  -1  334.97    7.20
  -4  -2  -1  326.27    7.00
  -4  -2  -1  339.37    7.10
  -4  -2  -1  338.47    7.20
  -4  -2  -1  334.87    7.40
   4   2   1  326.77    7.20
   4   2   1  328.07    7.00
   4   2   1  338.27    7.40
   4   2   1  349.37    7.40
   4   2   1  335.87    7.40
   4   2   1  338.27    7.20
   4   2   1  327.17    7.10
  -5  -2  -1    1.00    0.40
  -5  -2  -1    1.60    0.70
  -5  -2  -1    1.60    0.60
  -5  -2  -1    0.90    0.40
  -5  -2  -1    1.20    0.30
  -5  -2  -1    0.80    0.40
   5   2   1    1.50    0.60
   5   2   1    0.80    0.60
   5   2   1    1.30    0.30
   5   2   1    1.60    0.50
   5   2   1    1.20    0.60
   5   2   1    1.10    0.20
   5   2   1    0.90    0.50
  -6  -2  -1   11.60    0.90
  -6  -2  -1   13.40    1.20
  -6  -2  -1   11.30    1.10
  -6  -2  -1   12.20    0.80
  -6  -2  -1    9.90    1.00
   6   2   1   10.00    1.10
   6   2   1   11.60    0.60
   6   2   1   11.90    1.20
   6   2   1   11.50    0.90
   6   2   1   10.20    1.00
   6   2   1   11.40    1.10
   6   2   1   10.90    0.80
  -7  -2  -1   10.20    1.40
  -7  -2  -1    9.90    1.40
  -7  -2  -1   10.80    1.00
  -7  -2  -1   10.80    0.90
  -7  -2  -1    9.60    0.90
  -7  -2  -1   11.10    1.10
   7   2   1   10.80    1.30
   7   2   1   11.20    1.30
   7   2   1    7.80    1.00
   7   2   1    8.40    1.10
   7   2   1    9.30    0.70
   7   2   1    9.20    0.80
  -8  -2  -1   62.39    3.30
  -8  -2  -1   58.69    2.20
  -8  -2  -1   59.19    3.30
  -8  -2  -1   60.99    2.80
  -8  -2  -1   58.79    2.20
   8   2   1   58.59    3.10
   8   2   1   59.19    3.10
   8   2   1   63.49    2.70
   8   2   1   63.09    2.10
   8   2   1   59.59    1.70
  -9  -2  -1    1.40    2.20
  -9  -2  -1    1.80    1.20
  -9  -2  -1    5.20    1.90
  -9  -2  -1    1.10    1.20
   9   2   1    4.50    2.00
   9   2   1    1.30    0.80
   9   2   1    2.90    1.00
   9   2   1    3.20    2.20
   7  -3  -1   17.80    1.70
   7  -3  -1   23.50    2.50
   7  -3  -1   17.40    1.70
  -7   3   1   18.50    2.10
  -7   3   1   18.90    1.50
   6  -3  -1    3.30    1.00
   6  -3  -1    2.50    1.20
   6  -3  -1    1.40    1.10
   6  -3  -1    1.90    1.50
   6  -3  -1    1.10    1.60
   6  -3  -1    0.40    1.00
  -6   3   1    1.80    0.40
  -6   3   1    2.30    1.00
  -6   3   1    2.10    1.40
  -6   3   1    1.00    1.20
   5  -3  -1    1.50    0.80
   5  -3  -1    1.40    0.90
   5  -3  -1    1.60    1.00
   5  -3  -1    1.50    0.40
   5  -3  -1    1.40    0.90
   5  -3  -1    1.30    1.10
   5  -3  -1    1.60    0.70
  -5   3   1    1.30    0.90
  -5   3   1    1.70    0.30
  -5   3   1    1.00    0.60
  -5   3   1    1.80    1.50
  -5   3   1    0.50    0.90
   4  -3  -1    6.40    0.60
   4  -3  -1    6.40    0.80
   4  -3  -1    6.80    0.60
   4  -3  -1    5.60    0.90
   4  -3  -1    7.00    0.80
   4  -3  -1    7.60    1.00
  -4   3   1    5.50    0.80
  -4   3   1    9.00    0.90
  -4   3   1    7.10    1.00
  -4   3   1    6.80    0.50
   3  -3  -1    4.20    0.60
   3  -3  -1    4.30    0.60
   3  -3  -1    5.30    0.50
   3  -3  -1    5.10    0.40
   3  -3  -1    4.80    0.80
  -3   3   1    4.70    0.60
  -3   3   1    5.00    0.40
  -3   3   1    6.40    0.70
  -3   3   1    6.20    0.70
  -3   3   1    5.50    0.50
   2  -3  -1    6.00    0.50
   2  -3  -1    5.40    0.60
   2  -3  -1    7.00    0.70
   2  -3  -1    7.10    0.30
   2  -3  -1    8.00    0.80
   2  -3  -1    7.40    0.60
  -2   3   1    6.90    0.70
  -2   3   1    6.40    0.60
  -2   3   1    6.80    0.40
  -2   3   1    6.70    0.60
   1  -3  -1    5.30    0.40
   1  -3  -1    5.20    0.50
   1  -3  -1    3.80    0.40
   1  -3  -1    5.10    0.50
   1  -3  -1    4.60    0.30
   1  -3  -1    5.20    0.50
  -1   3   1    4.80    0.50
  -1   3   1    4.70    0.40
  -1   3   1    4.70    0.50
   0  -3  -1    1.80    0.20
   0  -3  -1    1.80    0.20
   0  -3  -1    2.50    0.40
   0  -3  -1    2.10    0.20
   0  -3  -1    1.90    0.30
   0  -3  -1    2.40    0.20
   0   3   1    2.10    0.30
   0   3   1    2.20    0.20
   0   3   1    2.30    0.20
  -1  -3  -1  776.22   16.10
  -2  -3  -1    0.30    0.10
  -2  -3  -1    0.30    0.20
  -2  -3  -1    0.10    0.20
  -2  -3  -1    0.10    0.20
  -2  -3  -1    0.30    0.20
  -2  -3  -1    0.10    0.20
   2   3   1    0.10    0.20
   2   3   1    0.10    0.10
   2   3   1    0.10    0.10
  -3  -3  -1   13.90    0.70
  -3  -3  -1   13.80    0.40
  -3  -3  -1   14.00    0.50
  -3  -3  -1   13.50    0.70
  -3  -3  -1   14.60    0.60
  -3  -3  -1   13.80    0.70
   3   3   1   14.00    0.50
   3   3   1   13.20    0.60
   3   3   1   13.70    0.60
   3   3   1   14.40    0.50
   3   3   1   13.80    0.60
  -4  -3  -1    0.20    0.40
  -4  -3  -1    0.20    0.10
  -4  -3  -1    0.10    0.40
  -4  -3  -1    0.20    0.30
  -4  -3  -1    0.40    0.30
  -4  -3  -1    0.50    0.40
   4   3   1   -0.20    0.30
   4   3   1    0.40    0.20
   4   3   1    0.30    0.30
   4   3   1    0.30    0.20
   4   3   1    0.10    0.40
   4   3   1   -0.10    0.30
   4   3   1    0.30    0.30
  -5  -3  -1  254.67    5.80
  -5  -3  -1  245.18    5.60
  -5  -3  -1  251.77    5.50
  -5  -3  -1  250.97    5.40
  -5  -3  -1  253.27    5.80
  -5  -3  -1  239.98    5.20
   5   3   1  245.88    5.70
   5   3   1  248.38    5.20
   5   3   1  245.08    5.60
   5   3   1  250.37    5.30
   5   3   1  232.28    5.60
  -6  -3  -1    3.60    0.40
  -6  -3  -1    4.60    0.70
  -6  -3  -1    2.60    0.50
  -6  -3  -1    4.00    0.60
  -6  -3  -1    4.30    0.90
  -6  -3  -1    3.30    0.90
   6   3   1    3.50    0.70
   6   3   1    3.40    0.30
   6   3   1    3.90    0.70
   6   3   1    4.50    0.70
   6   3   1    2.10    0.60
   6   3   1    3.90    0.50
   6   3   1    3.50    0.80
  -7  -3  -1   46.00    1.90
  -7  -3  -1   47.50    2.40
  -7  -3  -1   48.20    1.90
  -7  -3  -1   44.50    2.40
  -7  -3  -1   45.70    1.50
   7   3   1   46.90    1.30
   7   3   1   43.60    2.30
   7   3   1   47.30    2.30
   7   3   1   47.00    2.20
   7   3   1   46.30    2.00
   7   3   1   47.60    1.60
  -8  -3  -1   25.20    2.60
  -8  -3  -1   23.10    1.70
  -8  -3  -1   27.20    2.60
  -8  -3  -1   23.90    2.10
  -8  -3  -1   22.00    1.30
  -8  -3  -1   21.70    1.80
   8   3   1   23.10    1.50
   8   3   1   25.90    2.40
   8   3   1   22.80    2.50
   8   3   1   24.40    1.00
   8   3   1   20.30    1.60
   8   3   1   21.70    1.80
  -9  -3  -1    2.40    1.10
  -9  -3  -1    5.10    1.70
  -9  -3  -1    1.30    1.30
  -9  -3  -1    2.80    2.20
  -9  -3  -1    0.70    1.60
   9   3   1    4.00    1.90
   9   3   1    3.70    0.70
   9   3   1    2.90    1.00
   9   3   1    7.50    1.90
   6  -4  -1   75.59    2.90
   6  -4  -1   77.49    3.90
   6  -4  -1   73.79    3.70
   6  -4  -1   74.79    3.20
  -6   4   1   75.09    2.70
  -6   4   1   83.39    3.60
   5  -4  -1   11.90    1.30
   5  -4  -1   14.40    1.10
   5  -4  -1   16.10    1.40
   5  -4  -1   12.20    1.40
   5  -4  -1   11.80    1.50
   5  -4  -1   16.50    1.60
  -5   4   1   13.60    1.40
  -5   4   1   12.70    1.40
  -5   4   1   15.10    1.40
  -5   4   1   15.40    1.40
   4  -4  -1   39.20    2.10
   4  -4  -1   37.40    2.00
   4  -4  -1   33.70    2.00
   4  -4  -1   40.10    1.90
   4  -4  -1   38.50    1.50
   4  -4  -1   39.00    2.00
  -4   4   1   36.80    1.50
  -4   4   1   37.60    2.00
  -4   4   1   33.60    2.00
  -4   4   1   37.50    2.20
   3  -4  -1  107.19    3.10
   3  -4  -1  110.89    2.40
   3  -4  -1  110.09    3.10
   3  -4  -1  110.69    2.70
   3  -4  -1  114.89    3.10
   3  -4  -1  109.79    3.00
  -3   4   1  112.99    2.80
  -3   4   1  111.79    3.00
  -3   4   1  112.09    3.00
  -3   4   1  109.99    3.00
   2  -4  -1   14.60    1.00
   2  -4  -1   15.00    1.20
   2  -4  -1   13.90    0.80
   2  -4  -1   14.20    1.00
   2  -4  -1   14.70    0.50
   2  -4  -1   15.00    1.10
  -2   4   1   14.70    0.80
  -2   4   1   14.70    0.90
  -2   4   1   14.90    0.90
   1  -4  -1   19.40    0.90
   1  -4  -1   20.90    0.90
   1  -4  -1   20.30    0.80
   1  -4  -1   21.30    1.20
   1  -4  -1   19.90    0.60
   1  -4  -1   20.60    1.00
  -1   4   1   20.30    0.80
  -1   4   1   19.80    0.80
  -1   4   1   20.60    0.80
   0  -4  -1   -0.40    0.20
   0  -4  -1    0.00    0.20
   0  -4  -1    0.10    0.20
   0  -4  -1    0.00    0.30
   0  -4  -1    0.20    0.30
   0  -4  -1    0.10    0.40
  -1  -4  -1   18.30    0.70
  -1  -4  -1   19.70    0.80
  -1  -4  -1   17.50    0.70
  -2  -4  -1   79.99    2.00
  -2  -4  -1   81.99    1.80
  -2  -4  -1   82.19    1.80
  -2  -4  -1   79.49    2.00
  -2  -4  -1   80.69    1.90
  -3  -4  -1   20.90    0.70
  -3  -4  -1   19.50    0.80
  -3  -4  -1   19.70    1.00
  -3  -4  -1   19.40    0.80
  -3  -4  -1   21.00    0.80
  -3  -4  -1   21.20    0.70
   3   4   1   21.40    0.60
   3   4   1   20.50    0.70
   3   4   1   19.20    0.70
  -4  -4  -1   17.90    0.60
  -4  -4  -1   18.10    0.90
  -4  -4  -1   16.50    1.00
  -4  -4  -1   16.90    0.70
  -4  -4  -1   19.10    1.00
  -4  -4  -1   17.30    1.00
   4   4   1   19.10    0.90
   4   4   1   18.90    0.70
   4   4   1   18.80    0.80
   4   4   1   18.10    0.60
   4   4   1   18.50    0.80
  -5  -4  -1    3.60    0.70
  -5  -4  -1    3.40    0.30
  -5  -4  -1    3.80    0.70
  -5  -4  -1    3.50    0.40
  -5  -4  -1    2.50    0.60
  -5  -4  -1    3.90    0.50
   5   4   1    2.60    0.30
   5   4   1    3.10    0.50
   5   4   1    3.80    0.60
   5   4   1    3.40    0.60
   5   4   1    3.20    0.30
   5   4   1    3.60    0.80
  -6  -4  -1   13.40    1.50
  -6  -4  -1   14.10    1.20
  -6  -4  -1   12.50    0.60
  -6  -4  -1   10.40    0.90
  -6  -4  -1   11.80    1.00
  -6  -4  -1   13.60    1.00
   6   4   1   12.80    0.80
   6   4   1   13.40    1.20
   6   4   1   13.40    1.20
   6   4   1   13.30    0.70
   6   4   1   14.50    1.30
   6   4   1   11.00    0.90
  -7  -4  -1    9.80    0.90
  -7  -4  -1   10.40    0.90
  -7  -4  -1   10.30    1.10
  -7  -4  -1   11.60    1.30
  -7  -4  -1   10.80    0.80
  -7  -4  -1   12.00    1.40
   7   4   1   10.20    1.10
   7   4   1    9.20    1.10
   7   4   1   11.00    0.90
   7   4   1    8.60    1.10
   7   4   1    9.90    1.30
   7   4   1    9.60    0.70
  -8  -4  -1   24.90    2.10
  -8  -4  -1   23.10    1.90
  -8  -4  -1   26.80    2.60
  -8  -4  -1   19.80    1.20
  -8  -4  -1   23.00    1.70
  -8  -4  -1   26.30    2.60
   8   4   1   24.60    2.40
   8   4   1   21.30    2.20
   8   4   1   25.70    2.20
   8   4   1   23.10    1.40
   8   4   1   21.00    1.00
  -9  -4  -1   26.80    1.90
  -9  -4  -1   22.90    2.20
  -9  -4  -1   23.90    2.20
   9   4   1   27.60    1.80
   9   4   1   24.80    2.30
   9   4   1   26.40    1.50
   6  -5  -1    3.20    1.90
  -6   5   1    5.90    1.40
  -6   5   1    5.70    2.10
   5  -5  -1    1.90    1.10
   5  -5  -1   -0.10    1.60
   5  -5  -1    0.80    1.40
   5  -5  -1    0.10    1.40
  -5   5   1    4.60    1.30
  -5   5   1    1.10    1.30
  -5   5   1    4.30    1.10
   4  -5  -1   12.00    1.40
   4  -5  -1   11.40    1.40
   4  -5  -1    8.40    1.20
   4  -5  -1   13.10    1.40
   4  -5  -1   12.20    1.00
   4  -5  -1   11.80    1.20
  -4   5   1   12.30    1.00
  -4   5   1   11.70    1.20
  -4   5   1   12.20    1.20
   3  -5  -1  173.88    4.90
   3  -5  -1  186.08    4.70
   3  -5  -1  192.58    4.40
   3  -5  -1  187.28    4.80
   3  -5  -1  189.58    4.80
   3  -5  -1  187.88    5.00
  -3   5   1  194.58    4.40
  -3   5   1  197.48    4.60
  -3   5   1  184.88    4.50
   2  -5  -1    4.50    0.40
   2  -5  -1    3.50    0.70
   2  -5  -1    4.90    0.40
   2  -5  -1    4.50    0.60
   2  -5  -1    3.40    0.70
   2  -5  -1    3.50    0.80
   2  -5  -1    3.40    0.70
   2  -5  -1    4.50    0.70
  -2   5   1    4.30    0.60
  -2   5   1    3.80    0.60
  -2   5   1    4.20    0.60
   1  -5  -1   25.70    1.10
   1  -5  -1   26.20    0.70
   1  -5  -1   26.80    1.50
   1  -5  -1   25.80    0.90
   1  -5  -1   27.10    1.20
   1  -5  -1   26.10    1.20
   1  -5  -1   25.10    1.10
   1  -5  -1   24.30    1.10
  -1   5   1   24.90    0.90
  -1   5   1   27.10    0.90
  -1   5   1   28.10    1.10
   0  -5  -1   77.09    1.80
   0  -5  -1   75.99    2.10
   0  -5  -1   72.69    1.90
   0  -5  -1   76.89    2.30
   0  -5  -1   74.89    1.90
   0  -5  -1   74.39    1.80
   0  -5  -1   77.19    1.90
   0  -5  -1   76.79    2.00
  -1  -5  -1    0.30    0.40
  -1  -5  -1    0.30    0.60
  -1  -5  -1    0.20    0.40
  -1  -5  -1   -0.10    0.30
  -1  -5  -1    0.50    0.20
  -2  -5  -1    1.80    0.30
  -2  -5  -1    1.20    0.40
  -2  -5  -1    1.30    0.40
  -2  -5  -1    1.20    0.40
  -2  -5  -1    1.60    0.10
  -3  -5  -1   35.00    1.00
  -3  -5  -1   34.20    1.10
  -3  -5  -1   35.90    1.40
  -3  -5  -1   34.50    1.10
  -3  -5  -1   34.30    1.20
  -3  -5  -1   34.90    1.00
  -4  -5  -1   68.39    1.90
  -4  -5  -1   69.99    1.70
  -4  -5  -1   68.59    1.70
  -4  -5  -1   66.99    1.80
  -4  -5  -1   68.09    1.90
  -4  -5  -1   62.89    2.30
   4   5   1   66.29    1.70
   4   5   1   69.29    1.70
  -5  -5  -1   16.30    0.80
  -5  -5  -1   13.90    1.20
  -5  -5  -1   15.20    1.00
  -5  -5  -1   16.30    0.60
  -5  -5  -1   16.60    1.30
  -5  -5  -1   16.90    1.10
   5   5   1   15.30    0.80
   5   5   1   16.90    0.70
   5   5   1   16.90    0.90
   5   5   1   15.00    1.00
   5   5   1   16.40    0.70
  -6  -5  -1    8.80    0.80
  -6  -5  -1    8.30    0.70
  -6  -5  -1    9.50    1.10
  -6  -5  -1    7.00    0.90
  -6  -5  -1    9.60    1.00
  -6  -5  -1    8.60    0.60
   6   5   1    8.80    0.80
   6   5   1    8.90    0.70
   6   5   1    7.40    0.80
   6   5   1    8.70    0.80
   6   5   1    9.40    0.80
   6   5   1    9.20    0.80
  -7  -5  -1    8.40    1.10
  -7  -5  -1    9.60    1.00
  -7  -5  -1   10.70    1.30
  -7  -5  -1    7.50    0.90
  -7  -5  -1    7.60    0.70
  -7  -5  -1   10.00    1.20
   7   5   1   10.00    0.80
   7   5   1    9.60    0.90
   7   5   1    8.40    1.00
   7   5   1    8.50    1.10
   7   5   1    8.30    1.00
  -8  -5  -1   89.09    3.60
  -8  -5  -1   85.49    2.90
  -8  -5  -1   92.29    2.90
  -8  -5  -1   88.39    3.20
  -8  -5  -1   88.49    2.30
   8   5   1   91.49    3.40
   8   5   1   87.99    2.30
   8   5   1   93.79    2.50
   8   5   1   92.39    3.20
   8   5   1   95.89    3.10
  -9  -5  -1    2.20    1.60
  -9  -5  -1    3.30    1.30
  -9  -5  -1    2.30    0.90
   9   5   1    2.40    0.90
   9   5   1    0.40    1.70
   5  -6  -1   37.20    3.30
   5  -6  -1   35.90    3.30
   5  -6  -1   41.40    3.50
  -5   6   1   40.20    2.60
  -5   6   1   38.10    2.70
   4  -6  -1    1.20    1.30
   4  -6  -1    0.00    1.30
   4  -6  -1    1.40    1.10
   4  -6  -1    1.20    1.40
  -4   6   1   -1.10    1.00
  -4   6   1    0.00    1.00
  -4   6   1    0.40    1.00
   3  -6  -1    7.80    1.60
   3  -6  -1    9.20    1.20
   3  -6  -1    7.60    1.30
   3  -6  -1    9.70    1.00
   3  -6  -1    8.20    1.10
   3  -6  -1    9.40    1.20
  -3   6   1    8.40    0.90
  -3   6   1    9.00    1.00
  -3   6   1    8.10    0.90
   2  -6  -1  111.39    3.00
   2  -6  -1  109.39    2.90
   2  -6  -1  105.59    3.40
   2  -6  -1  108.69    3.10
   2  -6  -1  109.99    3.10
   2  -6  -1  111.59    3.40
  -2   6   1  112.19    2.70
  -2   6   1  108.29    2.70
  -2   6   1  112.69    2.90
   1  -6  -1    1.00    0.70
   1  -6  -1    0.40    0.60
   1  -6  -1    0.70    0.50
   1  -6  -1   -0.50    0.90
   1  -6  -1    0.10    0.40
   1  -6  -1   -0.10    0.50
   1  -6  -1    0.30    0.30
   1  -6  -1    1.30    0.60
  -1   6   1   -0.10    0.30
  -1   6   1    0.00    0.20
   0  -6  -1   11.40    0.80
   0  -6  -1   11.20    0.80
   0  -6  -1   11.40    0.70
   0  -6  -1   10.80    1.10
   0  -6  -1   11.20    1.20
   0  -6  -1   10.00    0.80
   0  -6  -1   11.30    0.70
   0  -6  -1   11.00    1.00
  -1  -6  -1    5.90    0.60
  -1  -6  -1    6.70    0.60
  -1  -6  -1    6.00    0.40
  -1  -6  -1    6.20    0.60
  -1  -6  -1    6.10    0.90
  -2  -6  -1    8.90    1.00
  -2  -6  -1    6.90    0.70
  -2  -6  -1    8.10    0.30
  -2  -6  -1    8.50    0.70
  -2  -6  -1    7.50    0.70
  -2  -6  -1    8.70    0.80
  -3  -6  -1   44.80    1.30
  -3  -6  -1   46.00    1.20
  -3  -6  -1   46.10    1.50
  -3  -6  -1   44.70    1.10
  -3  -6  -1   47.40    1.40
  -4  -6  -1  137.19    3.50
  -4  -6  -1  136.89    3.10
  -4  -6  -1  133.39    3.10
  -4  -6  -1  138.69    3.40
  -4  -6  -1  135.49    3.10
  -4  -6  -1  137.69    3.30
  -5  -6  -1    3.00    0.70
  -5  -6  -1    3.30    0.40
  -5  -6  -1    4.50    0.90
  -5  -6  -1    4.30    0.70
  -5  -6  -1    3.90    0.40
  -5  -6  -1    3.20    0.60
   5   6   1    4.10    0.40
   5   6   1    3.70    0.50
  -6  -6  -1   11.20    1.10
  -6  -6  -1   13.30    1.00
  -6  -6  -1   13.60    1.30
  -6  -6  -1   15.10    1.30
  -6  -6  -1   14.00    1.40
  -6  -6  -1   14.30    0.70
   6   6   1   11.20    1.20
   6   6   1   14.30    1.10
   6   6   1   13.20    0.90
   6   6   1   14.00    0.90
   6   6   1   12.30    0.70
  -7  -6  -1    1.30    1.00
  -7  -6  -1    1.70    0.90
  -7  -6  -1    1.00    1.20
  -7  -6  -1    0.80    0.60
  -7  -6  -1    0.80    0.40
  -7  -6  -1   -0.70    1.00
   7   6   1    0.50    0.50
   7   6   1    1.10    0.50
   7   6   1    0.70    0.90
   7   6   1    0.40    0.70
   7   6   1    1.00    0.70
  -8  -6  -1   21.80    1.10
  -8  -6  -1   23.90    1.70
  -8  -6  -1   22.70    2.00
  -8  -6  -1   23.90    2.10
   8   6   1   23.10    2.30
   8   6   1   20.60    1.40
   8   6   1   23.90    1.90
   8   6   1   21.20    1.90
  -9  -6  -1    1.40    1.50
  -9  -6  -1    3.40    1.70
   9   6   1    3.70    1.70
   4  -7  -1    3.80    1.70
   4  -7  -1    7.70    1.90
  -4   7   1    7.20    1.20
  -4   7   1    8.40    1.50
  -4   7   1    6.20    1.10
   3  -7  -1    0.80    1.20
   3  -7  -1    1.90    1.30
   3  -7  -1   -0.80    1.20
   3  -7  -1   -0.80    1.20
  -3   7   1   -0.30    0.70
  -3   7   1    0.10    1.10
  -3   7   1    0.60    0.70
   2  -7  -1  256.57    6.10
   2  -7  -1  272.47    6.40
   2  -7  -1  257.17    6.00
   2  -7  -1  255.47    6.10
  -2   7   1  258.37    5.60
  -2   7   1  273.67    5.60
   1  -7  -1  102.89    2.40
   1  -7  -1   99.39    2.80
   1  -7  -1  102.59    3.00
   1  -7  -1  100.19    2.60
   1  -7  -1   94.09    3.50
   1  -7  -1  101.09    2.20
   1  -7  -1   98.99    2.80
   1  -7  -1   99.19    2.70
   0  -7  -1    2.00    0.60
   0  -7  -1    2.60    0.40
   0  -7  -1    3.20    1.20
   0  -7  -1    2.60    0.50
   0  -7  -1    2.20    0.50
   0  -7  -1    2.30    0.60
   0  -7  -1    2.50    0.80
   0  -7  -1    2.50    0.80
  -1  -7  -1   93.39    3.10
  -1  -7  -1   93.19    2.10
  -1  -7  -1   94.49    2.60
  -1  -7  -1   94.79    2.40
  -1  -7  -1   98.99    2.80
  -1  -7  -1   95.29    2.60
  -1  -7  -1   88.29    2.50
  -2  -7  -1   27.90    1.40
  -2  -7  -1   29.70    1.90
  -2  -7  -1   28.30    0.70
  -2  -7  -1   28.90    1.50
  -2  -7  -1   29.70    1.20
  -2  -7  -1   26.80    1.30
  -3  -7  -1    1.20    0.60
  -3  -7  -1    0.50    0.70
  -3  -7  -1    0.70    0.70
  -3  -7  -1    0.60    0.40
  -3  -7  -1    1.80    0.50
  -3  -7  -1    0.90    0.50
  -4  -7  -1   59.29    1.50
  -4  -7  -1   59.79    1.70
  -4  -7  -1   57.39    1.60
  -4  -7  -1   58.59    1.70
  -4  -7  -1   61.49    2.20
  -4  -7  -1   58.79    2.00
  -5  -7  -1    5.40    0.70
  -5  -7  -1    5.20    1.10
  -5  -7  -1    4.50    0.50
  -5  -7  -1    5.50    0.80
  -5  -7  -1    5.60    0.80
  -5  -7  -1    4.50    0.50
  -6  -7  -1   34.10    1.30
  -6  -7  -1   34.80    1.80
  -6  -7  -1   33.10    2.30
  -6  -7  -1   34.70    2.30
  -6  -7  -1   33.10    1.10
  -6  -7  -1   32.60    1.70
   6   7   1   32.20    1.30
   6   7   1   33.10    1.20
  -7  -7  -1   76.29    3.20
  -7  -7  -1   78.39    2.20
  -7  -7  -1   75.99    2.70
  -7  -7  -1   76.39    1.90
   7   7   1   72.59    1.80
   7   7   1   79.19    2.30
   7   7   1   72.29    2.40
   7   7   1   76.59    1.80
  -8  -7  -1    0.10    0.50
  -8  -7  -1    0.40    1.90
  -8  -7  -1    0.10    1.00
  -8  -7  -1   -0.20    1.20
   8   7   1   -0.10    1.00
   8   7   1    0.60    0.80
   8   7   1   -0.10    1.10
   8   7   1    0.20    0.80
  -9  -7  -1    6.00    1.80
   9   7   1    6.00    1.70
   9   7   1    8.00    1.10
   2  -8  -1   62.19    2.90
   2  -8  -1   65.39    2.90
   2  -8  -1   71.89    3.30
   2  -8  -1   67.69    2.60
   1  -8  -1    6.80    1.20
   1  -8  -1    7.20    1.30
   1  -8  -1    5.10    0.90
   1  -8  -1    5.80    0.80
   1  -8  -1    6.50    0.90
   1  -8  -1    5.40    0.40
   0  -8  -1   18.00    1.10
   0  -8  -1   20.30    1.90
   0  -8  -1   17.60    1.20
   0  -8  -1   19.60    0.90
   0  -8  -1   19.00    1.10
   0  -8  -1   20.00    1.80
   0  -8  -1   20.40    1.00
   0  -8  -1   18.00    1.60
   0  -8  -1   16.70    1.30
  -1  -8  -1   76.99    1.80
  -1  -8  -1   75.99    3.30
  -1  -8  -1   77.59    2.60
  -1  -8  -1   75.19    2.20
  -1  -8  -1   78.59    2.50
  -1  -8  -1   78.49    2.70
  -2  -8  -1   46.90    1.70
  -2  -8  -1   44.70    1.70
  -2  -8  -1   44.60    1.90
  -2  -8  -1   44.00    2.60
  -2  -8  -1   44.30    1.80
  -2  -8  -1   43.00    2.90
  -2  -8  -1   40.90    2.00
  -3  -8  -1    6.60    1.30
  -3  -8  -1    6.00    0.80
  -3  -8  -1    6.80    1.10
  -3  -8  -1    6.30    1.00
  -3  -8  -1    7.50    0.90
  -3  -8  -1    6.60    0.80
  -3  -8  -1    6.80    0.70
  -4  -8  -1   21.30    1.50
  -4  -8  -1   18.40    1.40
  -4  -8  -1   18.30    1.00
  -4  -8  -1   16.00    1.30
  -4  -8  -1   18.60    1.20
  -4  -8  -1   17.50    1.20
  -5  -8  -1   56.69    1.60
  -5  -8  -1   60.09    1.70
  -5  -8  -1   55.59    1.90
  -5  -8  -1   62.09    1.80
  -5  -8  -1   62.49    2.30
  -5  -8  -1   56.49    2.70
  -6  -8  -1    1.20    1.00
  -6  -8  -1   -1.50    1.40
  -6  -8  -1    1.10    0.60
  -6  -8  -1    0.40    0.50
  -6  -8  -1    0.60    1.50
  -7  -8  -1   26.10    2.80
  -7  -8  -1   30.80    1.20
  -7  -8  -1   29.70    1.90
  -7  -8  -1   28.50    2.20
   7   8   1   28.30    1.30
  -8  -8  -1   62.59    3.10
   8   8   1   62.99    2.20
   8   8   1   60.29    2.30
   1  -9  -1   16.70    1.70
   1  -9  -1   19.00    2.20
   1  -9  -1   19.00    1.60
   1  -9  -1   17.40    1.80
   0  -9  -1   32.50    2.60
   0  -9  -1   41.10    1.50
   0  -9  -1   37.60    2.60
   0  -9  -1   42.40    3.00
   0  -9  -1   39.20    1.30
  -1  -9  -1    3.70    1.10
  -1  -9  -1    2.40    1.10
  -1  -9  -1    0.70    1.20
  -1  -9  -1    4.70    1.40
  -1  -9  -1    2.40    0.40
  -1  -9  -1    5.00    1.10
  -1  -9  -1    2.60    0.70
  -2  -9  -1   10.50    1.30
  -2  -9  -1    7.90    1.00
  -2  -9  -1    8.30    1.30
  -2  -9  -1    8.10    1.90
  -2  -9  -1    7.10    1.40
  -2  -9  -1   10.20    1.00
  -3  -9  -1    7.80    1.30
  -3  -9  -1    5.90    1.00
  -3  -9  -1    4.50    1.70
  -3  -9  -1    7.60    1.40
  -3  -9  -1    5.50    0.80
  -3  -9  -1    7.40    1.00
  -3  -9  -1    6.90    1.00
  -4  -9  -1   -1.20    1.30
  -4  -9  -1    0.20    1.00
  -4  -9  -1    1.00    1.30
  -4  -9  -1    0.00    0.80
  -4  -9  -1    2.00    1.50
  -4  -9  -1    0.50    0.80
  -4  -9  -1    0.50    0.70
  -5  -9  -1    0.10    1.00
  -5  -9  -1    1.80    0.80
  -5  -9  -1   -0.70    1.50
  -5  -9  -1    0.50    1.20
  -5  -9  -1   -0.90    0.70
  -5  -9  -1   -1.00    2.20
  -6  -9  -1   -0.70    0.70
  -6  -9  -1   -0.30    0.80
  -6  -9  -1   -0.10    1.20
  -6  -9  -1    2.50    1.30
  -7  -9  -1   29.10    2.60
  -7  -9  -1   31.10    1.50
  -1 -10  -1   14.10    2.00
  -1 -10  -1   14.70    1.80
  -2 -10  -1   10.30    1.60
  -2 -10  -1   12.80    1.20
  -2 -10  -1    8.80    1.50
  -2 -10  -1   11.30    1.40
  -3 -10  -1   12.30    1.50
  -3 -10  -1   12.40    1.80
  -3 -10  -1   16.50    1.50
  -3 -10  -1   12.00    1.40
  -3 -10  -1   10.10    1.40
  -3 -10  -1   11.50    1.40
  -4 -10  -1    5.30    1.10
  -4 -10  -1    7.20    1.50
  -4 -10  -1    7.30    1.20
  -5 -10  -1    0.90    1.00
  -5 -10  -1   -1.70    2.30
  -5 -10  -1    1.20    1.00
  -5 -10  -1   -0.60    1.30
  -6 -10  -1    9.50    1.10
  -6 -10  -1    5.00    1.60
  -5 -10   2    3.70    1.20
  -5 -10   2    2.20    1.80
  -4 -10   2   25.10    2.30
  -4 -10   2   27.50    2.80
  -3 -10   2   34.70    2.90
  -3 -10   2   35.00    2.40
  -2 -10   2   14.00    1.20
  -2 -10   2   14.10    1.20
  -2 -10   2   13.00    1.60
   7   9  -2   37.60    1.50
   7   9  -2   37.50    1.60
  -7  -9   2   40.80    1.90
  -6  -9   2   10.90    1.40
  -6  -9   2   10.00    1.00
  -5  -9   2    4.90    1.30
  -5  -9   2    6.90    1.00
  -5  -9   2    6.70    1.40
  -4  -9   2    1.10    1.20
  -4  -9   2    1.20    0.90
  -4  -9   2    0.60    0.50
  -4  -9   2   -0.90    1.30
  -4  -9   2    1.10    0.50
  -4  -9   2    0.40    1.00
  -3  -9   2   39.20    1.40
  -3  -9   2   36.40    1.60
  -3  -9   2   41.00    1.50
  -3  -9   2   32.10    2.20
  -3  -9   2   42.10    2.00
  -2  -9   2   50.99    1.50
  -2  -9   2   52.29    2.10
  -2  -9   2   49.00    1.70
  -2  -9   2   49.80    1.80
  -2  -9   2   51.69    1.90
  -2  -9   2   52.79    2.40
  -1  -9   2    7.30    1.30
  -1  -9   2    5.20    0.60
  -1  -9   2    5.80    1.00
  -1  -9   2    5.70    0.80
  -1  -9   2    4.70    0.90
  -1  -9   2    5.20    0.70
   0  -9   2    8.50    1.00
   0  -9   2    7.80    0.80
   0  -9   2    8.00    1.20
   0  -9   2    9.10    0.70
   0  -9   2    7.20    1.40
   1  -9   2   39.90    2.60
   1  -9   2   37.60    1.90
   1  -9   2   40.60    3.10
  -8  -8   2    6.70    1.10
   7   8  -2    5.50    1.20
   7   8  -2    7.00    0.90
  -7  -8   2    8.30    1.50
  -7  -8   2    7.50    1.00
   6   8  -2   -0.40    0.80
   6   8  -2    0.20    0.60
  -6  -8   2   -0.10    1.10
  -6  -8   2    0.30    1.30
  -5  -8   2    1.00    0.90
  -5  -8   2    1.40    1.20
  -5  -8   2   -0.20    0.70
  -5  -8   2   -0.10    1.00
  -5  -8   2   -0.20    2.10
  -5  -8   2    0.20    0.70
  -4  -8   2   50.69    1.30
  -4  -8   2   52.59    2.20
  -4  -8   2   52.39    1.90
  -4  -8   2   48.10    2.40
  -4  -8   2   49.80    2.30
  -4  -8   2   48.60    1.70
  -4  -8   2   50.49    1.40
  -3  -8   2   17.60    1.20
  -3  -8   2   15.80    1.10
  -3  -8   2   16.30    1.00
  -3  -8   2   14.60    1.30
  -3  -8   2   13.80    1.20
  -3  -8   2   14.00    1.30
  -3  -8   2   14.30    1.00
  -2  -8   2    1.80    0.70
  -2  -8   2    2.50    0.60
  -2  -8   2    1.30    0.80
  -2  -8   2    2.60    0.70
  -2  -8   2    2.50    1.10
  -2  -8   2    1.70    0.50
  -2  -8   2    1.80    0.40
  -2  -8   2    1.40    0.50
  -1  -8   2    1.50    1.10
  -1  -8   2    0.10    0.80
  -1  -8   2    0.70    0.50
  -1  -8   2    0.20    0.90
  -1  -8   2    1.10    0.60
  -1  -8   2    0.30    0.40
  -1  -8   2    0.40    0.70
   0  -8   2    1.20    0.60
   0  -8   2    0.80    0.50
   0  -8   2    0.80    0.50
   0  -8   2    0.90    0.50
   0  -8   2    1.00    1.00
   0  -8   2    1.30    1.10
   0  -8   2    1.20    0.80
   0  -8   2    0.20    1.80
   0  -8   2    1.00    1.00
   1  -8   2   31.70    2.00
   1  -8   2   31.30    2.40
   1  -8   2   30.20    1.50
   1  -8   2   27.60    2.30
  -2   8  -2   12.60    0.90
  -2   8  -2   13.10    1.00
   2  -8   2   14.10    1.20
   2  -8   2   16.00    1.80
   2  -8   2   14.10    1.70
   2  -8   2   14.50    1.50
  -3   8  -2    0.70    1.60
  -3   8  -2    1.70    0.80
  -3   8  -2    2.20    1.00
   3  -8   2    2.40    2.00
   3  -8   2    1.20    2.20
   3  -8   2    3.70    1.60
   8   7  -2   16.40    1.60
   8   7  -2   17.90    1.80
  -8  -7   2   19.70    1.70
  -8  -7   2   18.20    1.80
   7   7  -2   26.30    2.20
   7   7  -2   27.90    2.00
   7   7  -2   29.20    1.90
   7   7  -2   26.50    2.00
   7   7  -2   26.40    1.70
  -7  -7   2   26.40    2.80
  -7  -7   2   27.20    2.00
  -7  -7   2   26.50    1.40
   6   7  -2   40.40    1.60
   6   7  -2   35.20    2.40
   6   7  -2   40.80    1.50
   6   7  -2   38.70    1.90
   6   7  -2   38.40    1.30
  -6  -7   2   40.10    2.40
  -6  -7   2   40.70    2.00
  -6  -7   2   37.70    2.30
  -6  -7   2   39.00    1.50
  -6  -7   2   39.10    1.90
   5   7  -2    1.70    0.70
   5   7  -2   -1.00    1.00
   5   7  -2    1.70    0.50
  -5  -7   2    1.60    0.80
  -5  -7   2    2.40    0.70
  -5  -7   2    1.90    0.50
  -5  -7   2    2.00    1.00
  -5  -7   2    1.50    0.70
   4   7  -2    1.10    0.40
   4   7  -2    1.40    0.50
  -4  -7   2    0.90    0.70
  -4  -7   2    1.60    0.30
  -4  -7   2    0.90    0.80
  -4  -7   2    0.40    0.80
  -4  -7   2    1.40    0.80
  -4  -7   2    1.20    0.30
  -4  -7   2    0.60    0.50
  -4  -7   2    0.10    0.50
  -3  -7   2    0.60    0.40
  -3  -7   2    1.00    0.80
  -3  -7   2    1.10    0.40
  -3  -7   2    1.20    0.50
  -3  -7   2    0.80    0.50
  -3  -7   2    0.30    0.70
  -3  -7   2    1.30    0.30
  -2  -7   2    2.00    0.40
  -2  -7   2    2.40    0.50
  -2  -7   2    2.20    0.40
  -2  -7   2    2.00    0.50
  -2  -7   2    2.00    0.80
  -2  -7   2    2.30    0.60
  -2  -7   2    1.90    0.50
  -1  -7   2   13.30    0.70
  -1  -7   2   14.20    1.00
  -1  -7   2   11.60    1.10
  -1  -7   2   16.60    1.50
  -1  -7   2   15.00    1.30
  -1  -7   2   13.40    0.80
  -1  -7   2   15.60    1.00
   0  -7   2    2.80    0.90
   0  -7   2    2.00    0.80
   0  -7   2    2.60    0.80
   0  -7   2    2.90    0.70
   0  -7   2    2.50    0.50
   0  -7   2    3.30    0.50
   0  -7   2    2.70    0.50
  -1   7  -2    0.80    0.50
  -1   7  -2    0.30    0.30
   1  -7   2    1.10    0.60
   1  -7   2   -0.10    1.40
   1  -7   2    0.10    0.50
   1  -7   2   -0.10    0.70
   1  -7   2   -0.30    0.90
   1  -7   2   -0.10    0.80
   1  -7   2    2.20    1.00
  -2   7  -2   67.19    1.90
  -2   7  -2   70.49    2.20
  -2   7  -2   68.69    2.50
   2  -7   2   68.69    2.60
   2  -7   2   67.49    2.90
   2  -7   2   71.69    2.40
   2  -7   2   70.79    2.50
   2  -7   2   63.99    3.40
   2  -7   2   73.29    2.90
   2  -7   2   69.29    2.30
  -3   7  -2    1.50    1.20
  -3   7  -2    0.60    0.70
  -3   7  -2   -0.80    0.90
   3  -7   2   -0.20    1.40
   3  -7   2    2.10    1.50
   3  -7   2    0.10    1.20
   3  -7   2   -0.60    0.90
   3  -7   2   -0.10    1.20
  -4   7  -2   -0.40    1.40
  -4   7  -2   -0.30    1.30
  -4   7  -2   -0.50    1.00
   4  -7   2    1.10    1.80
   4  -7   2   -0.50    1.50
   4  -7   2    0.70    1.30
   9   6  -2    8.50    2.30
  -9  -6   2    4.20    1.60
   8   6  -2   47.60    3.10
   8   6  -2   34.00    2.50
   8   6  -2   47.00    1.40
   8   6  -2   43.40    3.10
   8   6  -2   44.10    2.20
   8   6  -2   47.20    2.90
  -8  -6   2   43.00    1.90
  -8  -6   2   48.10    3.70
  -8  -6   2   43.10    2.50
  -8  -6   2   46.50    1.80
   7   6  -2    1.00    1.10
   7   6  -2   -0.30    0.80
   7   6  -2    0.10    1.20
   7   6  -2    0.10    0.90
   7   6  -2    0.00    0.40
   7   6  -2    1.40    1.10
   7   6  -2    0.60    0.80
  -7  -6   2    0.00    0.60
  -7  -6   2    1.10    1.10
  -7  -6   2    0.00    0.90
  -7  -6   2    0.10    1.30
  -7  -6   2    0.80    0.60
  -7  -6   2   -0.60    1.20
   6   6  -2  143.19    3.90
   6   6  -2  147.39    3.60
   6   6  -2  145.89    4.10
   6   6  -2  142.49    3.40
   6   6  -2  145.79    3.70
   6   6  -2  148.19    3.60
  -6  -6   2  151.48    4.10
  -6  -6   2  144.89    3.80
  -6  -6   2  146.09    3.80
  -6  -6   2  144.69    3.20
  -6  -6   2  145.99    3.40
  -6  -6   2  143.49    4.00
   5   6  -2   18.80    1.30
   5   6  -2   17.80    1.30
   5   6  -2   18.10    1.10
   5   6  -2   17.80    0.80
   5   6  -2   18.50    1.60
   5   6  -2   18.70    1.10
  -5  -6   2   18.10    0.90
  -5  -6   2   19.00    1.60
  -5  -6   2   17.90    0.60
  -5  -6   2   19.70    1.30
  -5  -6   2   17.30    1.50
  -5  -6   2   18.50    1.20
   4   6  -2   30.60    1.30
   4   6  -2   32.20    0.90
   4   6  -2   33.60    1.10
   4   6  -2   33.50    1.10
   4   6  -2   32.90    1.60
  -4  -6   2   34.20    1.60
  -4  -6   2   33.30    1.20
  -4  -6   2   32.50    0.80
  -4  -6   2   33.40    1.40
  -4  -6   2   31.60    0.90
  -4  -6   2   31.70    1.40
   3   6  -2  107.89    2.90
   3   6  -2  107.39    2.60
   3   6  -2  114.09    2.50
  -3  -6   2  109.59    2.70
  -3  -6   2  110.39    2.60
  -3  -6   2  110.19    2.40
  -3  -6   2  111.99    2.90
  -3  -6   2  107.49    2.90
  -3  -6   2  109.99    2.50
  -3  -6   2  113.29    2.70
   2   6  -2    7.30    0.50
   2   6  -2    7.40    0.50
  -2  -6   2    6.40    0.70
  -2  -6   2    6.80    0.60
  -2  -6   2    6.80    0.60
  -2  -6   2    7.40    0.60
  -2  -6   2    6.80    0.50
  -2  -6   2    6.80    0.50
  -2  -6   2    7.00    0.60
  -2  -6   2    6.50    0.60
   1   6  -2   94.19    2.10
   1   6  -2   99.99    2.20
  -1  -6   2   98.09    2.40
  -1  -6   2   99.99    2.60
  -1  -6   2   97.69    2.40
  -1  -6   2   97.29    2.40
  -1  -6   2   97.79    2.30
  -1  -6   2   97.49    2.30
  -1  -6   2   99.49    2.60
   0   6  -2   15.00    0.80
   0  -6   2   15.70    1.20
   0  -6   2   15.10    1.10
   0  -6   2   14.80    1.00
   0  -6   2   15.10    0.70
   0  -6   2   15.50    0.80
   0  -6   2   15.90    1.20
   0  -6   2   14.40    0.80
  -1   6  -2    3.70    0.40
  -1   6  -2    2.90    0.70
  -1   6  -2    3.60    0.60
   1  -6   2    3.50    1.10
   1  -6   2    3.10    0.70
   1  -6   2    4.20    0.80
   1  -6   2    2.00    0.80
   1  -6   2    3.50    0.60
   1  -6   2    3.90    0.60
   1  -6   2    3.20    0.20
   1  -6   2    3.50    0.70
   1  -6   2    3.60    0.30
  -2   6  -2   14.90    0.90
  -2   6  -2   16.60    1.30
  -2   6  -2   15.70    1.30
   2  -6   2   13.90    1.20
   2  -6   2   18.30    1.60
   2  -6   2   11.90    1.00
   2  -6   2   11.80    1.10
   2  -6   2   14.70    1.20
   2  -6   2   15.10    1.40
   2  -6   2   13.20    1.20
  -3   6  -2   31.60    2.10
  -3   6  -2   33.10    1.50
  -3   6  -2   31.70    1.90
  -3   6  -2   34.70    1.90
   3  -6   2   32.30    1.80
   3  -6   2   32.90    1.90
   3  -6   2   32.30    2.30
   3  -6   2   31.50    2.60
   3  -6   2   32.00    1.80
   3  -6   2   34.70    1.90
  -4   6  -2    1.40    0.90
  -4   6  -2    0.80    1.10
  -4   6  -2    2.80    1.10
   4  -6   2    2.30    1.10
   4  -6   2    2.20    1.20
   4  -6   2    1.40    1.10
   4  -6   2    1.10    1.20
  -5   6  -2    6.40    1.60
  -5   6  -2    2.40    1.30
   5  -6   2    6.30    1.60
   5  -6   2    4.10    1.50
   9   5  -2    6.70    1.90
   9   5  -2    3.70    2.10
   9   5  -2    8.00    1.00
  -9  -5   2    8.50    1.50
  -9  -5   2    8.60    1.40
   8   5  -2   16.00    1.50
   8   5  -2   13.00    1.40
   8   5  -2   13.30    1.10
   8   5  -2   16.60    1.80
   8   5  -2   17.00    1.90
   8   5  -2   14.80    1.70
  -8  -5   2   15.30    2.00
  -8  -5   2   15.50    1.40
  -8  -5   2   13.50    1.90
  -8  -5   2   14.30    1.40
   7   5  -2    4.60    1.10
   7   5  -2    3.50    0.70
   7   5  -2    3.10    0.80
   7   5  -2    4.90    1.20
   7   5  -2    4.70    1.20
   7   5  -2    4.00    0.50
   7   5  -2    4.00    1.00
  -7  -5   2    2.70    0.60
  -7  -5   2    4.50    0.70
  -7  -5   2    3.70    1.60
  -7  -5   2    5.60    1.20
  -7  -5   2    4.30    1.10
  -7  -5   2    5.50    1.00
   6   5  -2   31.50    1.80
   6   5  -2   32.10    1.30
   6   5  -2   32.60    1.00
   6   5  -2   35.00    2.10
   6   5  -2   32.30    1.30
  -6  -5   2   32.30    1.20
  -6  -5   2   33.80    1.80
  -6  -5   2   30.60    1.20
  -6  -5   2   30.90    1.70
  -6  -5   2   34.80    2.00
  -6  -5   2   30.70    1.80
   5   5  -2   -0.20    0.70
   5   5  -2    0.00    0.50
   5   5  -2    0.30    0.20
   5   5  -2    0.20    0.40
   5   5  -2    0.20    0.60
   5   5  -2    0.70    0.50
  -5  -5   2   -0.10    0.60
  -5  -5   2   -0.50    0.70
  -5  -5   2    0.70    0.40
  -5  -5   2    0.70    0.30
  -5  -5   2    0.70    0.60
  -5  -5   2    0.30    0.50
   4   5  -2   16.80    1.00
   4   5  -2   15.00    1.20
   4   5  -2   16.70    0.70
   4   5  -2   16.80    0.80
   4   5  -2   16.40    1.00
  -4  -5   2   14.80    1.10
  -4  -5   2   17.90    0.80
  -4  -5   2   16.20    1.00
  -4  -5   2   16.40    1.10
  -4  -5   2   17.10    1.00
  -4  -5   2   16.70    0.50
   3   5  -2    4.20    0.60
   3   5  -2    3.90    0.40
   3   5  -2    4.00    0.50
   3   5  -2    4.80    0.70
   3   5  -2    3.80    0.40
  -3  -5   2    3.70    0.30
  -3  -5   2    3.80    0.60
  -3  -5   2    4.30    0.40
  -3  -5   2    3.80    0.40
  -3  -5   2    4.30    0.50
   2   5  -2    6.90    0.60
   2   5  -2    7.30    0.50
   2   5  -2    5.90    0.50
  -2  -5   2    6.20    0.50
  -2  -5   2    7.50    0.40
  -2  -5   2    6.10    0.60
  -2  -5   2    6.90    0.40
  -2  -5   2    7.90    0.50
  -2  -5   2    7.30    0.60
  -2  -5   2    7.10    0.50
  -2  -5   2    5.20    0.50
   1   5  -2   68.69    1.70
   1   5  -2   70.69    1.90
   1   5  -2   73.29    1.70
  -1  -5   2   70.59    1.70
  -1  -5   2   72.89    1.90
  -1  -5   2   72.89    2.00
  -1  -5   2   70.79    1.70
  -1  -5   2   68.59    1.70
  -1  -5   2   68.69    1.80
  -1  -5   2   69.39    1.80
   0   5  -2   10.90    0.90
   0   5  -2   11.50    0.50
   0   5  -2   10.90    0.70
   0  -5   2   12.10    0.60
   0  -5   2   13.80    0.90
   0  -5   2   11.00    0.90
   0  -5   2   12.60    0.70
   0  -5   2   11.80    0.60
   0  -5   2   12.10    0.70
  -1   5  -2   42.30    1.40
  -1   5  -2   42.00    1.50
  -1   5  -2   40.90    1.20
  -1   5  -2   42.20    1.50
   1  -5   2   41.60    1.00
   1  -5   2   41.70    1.40
   1  -5   2   39.90    1.00
   1  -5   2   42.30    1.60
   1  -5   2   40.60    1.30
   1  -5   2   43.60    1.40
   1  -5   2   40.50    1.40
   1  -5   2   38.00    1.60
  -2   5  -2   59.09    1.90
  -2   5  -2   57.99    1.90
  -2   5  -2   58.19    1.70
  -2   5  -2   57.29    1.90
   2  -5   2   59.79    1.90
   2  -5   2   57.69    1.80
   2  -5   2   57.29    1.90
   2  -5   2   58.69    2.10
   2  -5   2   59.09    1.90
   2  -5   2   60.39    2.30
  -3   5  -2  150.88    3.90
  -3   5  -2  147.29    3.90
  -3   5  -2  147.29    3.70
   3  -5   2  151.68    4.10
   3  -5   2  142.99    3.80
   3  -5   2  149.59    4.10
   3  -5   2  148.39    3.80
   3  -5   2  149.69    3.70
   3  -5   2  146.79    3.80
  -4   5  -2   18.10    1.90
  -4   5  -2   16.10    1.50
  -4   5  -2   16.80    1.40
  -4   5  -2   18.40    1.50
   4  -5   2   15.70    1.30
   4  -5   2   13.80    1.50
   4  -5   2   18.70    1.70
   4  -5   2   16.60    1.30
   4  -5   2   17.10    1.60
   4  -5   2   17.60    1.20
  -5   5  -2   24.00    2.00
  -5   5  -2   23.60    2.10
  -5   5  -2   27.00    2.40
   5  -5   2   25.50    2.40
   5  -5   2   20.10    2.10
   5  -5   2   22.50    1.60
   5  -5   2   26.20    2.40
  -6   5  -2   -1.10    1.40
  -6   5  -2   -0.80    1.50
   6  -5   2   -1.30    1.50
   6  -5   2   -1.80    1.80
   9   4  -2   20.20    2.60
   9   4  -2   18.60    2.00
   9   4  -2   19.90    1.70
  -9  -4   2   16.20    1.60
   8   4  -2   15.50    1.40
   8   4  -2   15.30    2.00
   8   4  -2   11.10    1.40
   8   4  -2   14.30    1.30
   8   4  -2   17.50    1.70
  -8  -4   2   14.90    1.10
  -8  -4   2   12.30    1.50
  -8  -4   2   13.90    1.30
  -8  -4   2   14.50    1.20
  -8  -4   2   10.90    1.70
   7   4  -2   -0.80    0.90
   7   4  -2    1.40    1.10
   7   4  -2    1.20    1.20
   7   4  -2    1.00    0.50
   7   4  -2    0.70    0.80
   7   4  -2    1.30    0.60
  -7  -4   2    0.30    0.80
  -7  -4   2   -0.70    1.00
  -7  -4   2    1.50    1.10
  -7  -4   2    0.90    0.60
  -7  -4   2    1.80    0.70
  -7  -4   2    0.90    0.90
   6   4  -2   24.00    1.30
   6   4  -2   26.20    1.80
   6   4  -2   24.30    1.40
   6   4  -2   24.20    1.10
   6   4  -2   24.80    1.60
   6   4  -2   24.90    0.90
  -6  -4   2   22.30    1.50
  -6  -4   2   26.50    1.90
  -6  -4   2   24.60    1.30
  -6  -4   2   25.90    1.60
  -6  -4   2   24.40    1.10
  -6  -4   2   25.50    1.00
   5   4  -2  257.47    5.60
   5   4  -2  255.07    6.00
   5   4  -2  250.87    6.00
   5   4  -2  247.18    5.90
   5   4  -2  252.67    5.60
   5   4  -2  257.47    5.40
  -5  -4   2  254.07    5.80
  -5  -4   2  248.78    5.70
  -5  -4   2  252.67    5.50
  -5  -4   2  257.97    5.50
  -5  -4   2  260.97    5.90
  -5  -4   2  259.67    6.00
   4   4  -2    8.10    0.70
   4   4  -2    8.40    0.70
   4   4  -2    8.60    0.40
   4   4  -2    8.40    0.70
   4   4  -2    8.90    0.80
   4   4  -2    7.80    0.60
  -4  -4   2    9.10    0.80
  -4  -4   2    7.10    0.70
  -4  -4   2    8.10    0.40
  -4  -4   2    9.50    0.90
  -4  -4   2    8.00    0.50
  -4  -4   2    6.90    0.70
   3   4  -2   48.30    1.50
   3   4  -2   49.60    1.30
   3   4  -2   49.50    1.20
   3   4  -2   48.40    1.40
   3   4  -2   47.40    1.50
  -3  -4   2   48.00    1.10
  -3  -4   2   48.20    1.50
  -3  -4   2   49.80    1.50
  -3  -4   2   49.60    1.30
  -3  -4   2   48.20    1.40
  -3  -4   2   47.80    1.40
   2   4  -2   45.70    1.40
   2   4  -2   47.70    1.40
   2   4  -2   46.20    1.10
   2   4  -2   47.80    1.20
   2   4  -2   44.40    1.30
  -2  -4   2   46.50    1.00
  -2  -4   2   45.00    1.20
  -2  -4   2   45.40    1.30
  -2  -4   2   47.40    1.30
  -2  -4   2   46.40    1.10
  -2  -4   2   45.70    1.20
  -2  -4   2   45.80    1.30
  -2  -4   2   46.20    1.40
   1   4  -2    2.30    0.30
   1   4  -2    1.80    0.30
   1   4  -2    2.00    0.20
   1   4  -2    2.20    0.20
  -1  -4   2    2.20    0.40
  -1  -4   2    1.90    0.20
  -1  -4   2    2.10    0.40
  -1  -4   2    1.80    0.20
  -1  -4   2    2.30    0.30
  -1  -4   2    2.20    0.30
  -1  -4   2    2.20    0.30
   0   4  -2  122.39    2.70
   0   4  -2  125.29    2.90
   0   4  -2  127.39    2.80
   0   4  -2  127.39    2.90
   0  -4   2  120.39    2.80
   0  -4   2  124.99    2.90
   0  -4   2  122.39    2.90
   0  -4   2  125.99    2.80
   0  -4   2  120.79    3.00
   0  -4   2  123.29    2.70
   0  -4   2  122.29    2.80
  -1   4  -2  121.79    2.90
  -1   4  -2  122.49    2.90
  -1   4  -2  119.19    2.80
  -1   4  -2  119.99    2.90
   1  -4   2  120.19    2.90
   1  -4   2  119.39    2.60
   1  -4   2  119.89    2.90
   1  -4   2  119.19    2.90
   1  -4   2  123.39    3.00
   1  -4   2  123.19    3.00
   1  -4   2  124.39    2.90
  -2   4  -2   40.70    1.50
  -2   4  -2   42.80    1.40
  -2   4  -2   43.60    1.60
  -2   4  -2   40.30    1.30
   2  -4   2   42.50    1.40
   2  -4   2   42.50    1.40
   2  -4   2   41.70    1.40
   2  -4   2   42.40    1.50
  -3   4  -2   50.89    1.80
  -3   4  -2   49.80    1.70
  -3   4  -2   49.30    1.70
   3  -4   2   48.50    1.70
   3  -4   2   53.09    2.00
   3  -4   2   49.20    1.80
   3  -4   2   48.90    2.00
   3  -4   2   50.09    1.80
   3  -4   2   51.99    1.70
  -4   4  -2    7.50    0.90
  -4   4  -2    6.10    0.90
  -4   4  -2    6.00    0.90
  -4   4  -2    6.90    0.80
   4  -4   2    6.80    1.10
   4  -4   2    8.00    1.10
   4  -4   2    7.50    0.90
   4  -4   2    7.60    0.80
   4  -4   2    6.50    0.90
   4  -4   2    8.40    1.00
  -5   4  -2    3.10    0.90
  -5   4  -2    3.20    1.10
  -5   4  -2    1.70    1.10
   5  -4   2    2.90    0.90
   5  -4   2    4.50    1.00
   5  -4   2    3.30    1.10
   5  -4   2    2.70    1.40
   5  -4   2    4.80    1.40
   5  -4   2    2.50    1.20
  -6   4  -2    1.10    1.40
  -6   4  -2    1.50    1.30
  -6   4  -2    1.70    1.10
   6  -4   2   -0.20    1.40
   6  -4   2    2.00    2.80
   6  -4   2    2.10    1.20
   6  -4   2    3.20    1.40
   6  -4   2    0.80    1.50
   6  -4   2    1.10    1.20
  -7   4  -2   10.40    2.00
  -7   4  -2    7.60    1.60
   7  -4   2    6.80    2.30
   7  -4   2    6.60    2.60
   9   3  -2    7.90    1.10
   9   3  -2    5.70    1.70
   9   3  -2    5.40    1.40
   9   3  -2    5.10    2.40
  -9  -3   2    5.00    1.40
  -9  -3   2    8.00    2.00
  -9  -3   2    6.20    1.30
  -9  -3   2    8.10    2.40
  -9  -3   2    4.40    2.10
   8   3  -2   -0.80    0.70
   8   3  -2    0.50    1.60
   8   3  -2   -1.10    1.40
   8   3  -2    0.10    1.50
   8   3  -2   -0.20    0.70
   8   3  -2    0.70    1.40
   8   3  -2   -0.50    1.20
  -8  -3   2   -0.90    1.00
  -8  -3   2   -0.80    1.40
  -8  -3   2   -0.60    1.50
  -8  -3   2   -0.20    0.90
  -8  -3   2   -0.20    1.00
  -8  -3   2   -0.40    0.90
   7   3  -2   20.80    1.10
   7   3  -2   24.10    2.30
   7   3  -2   20.40    1.90
   7   3  -2   20.50    1.10
   7   3  -2   21.00    1.70
   7   3  -2   21.70    1.70
  -7  -3   2   19.20    1.50
  -7  -3   2   21.50    1.30
  -7  -3   2   21.60    2.10
  -7  -3   2   21.90    2.20
  -7  -3   2   19.10    1.50
  -7  -3   2   18.10    1.60
   6   3  -2    0.90    0.40
   6   3  -2    0.80    0.70
   6   3  -2    0.90    0.70
   6   3  -2    0.90    0.40
   6   3  -2    0.80    0.80
  -6  -3   2    1.20    0.80
  -6  -3   2    0.80    0.60
  -6  -3   2    2.10    0.90
  -6  -3   2    0.50    0.40
  -6  -3   2    0.70    0.60
  -6  -3   2    1.20    0.50
   5   3  -2    4.70    0.40
   5   3  -2    5.10    0.70
   5   3  -2    4.30    0.40
   5   3  -2    5.10    0.70
   5   3  -2    4.10    0.80
  -5  -3   2    4.90    0.80
  -5  -3   2    4.10    0.40
  -5  -3   2    5.40    0.60
  -5  -3   2    5.30    0.70
  -5  -3   2    3.60    0.70
  -5  -3   2    4.80    0.50
   4   3  -2   13.80    0.70
   4   3  -2   13.50    1.00
   4   3  -2   14.30    0.90
   4   3  -2   14.00    0.50
   4   3  -2   13.10    0.90
   4   3  -2   14.00    0.60
  -4  -3   2   12.70    0.80
  -4  -3   2   12.70    0.90
  -4  -3   2   13.30    0.60
  -4  -3   2   11.80    1.00
  -4  -3   2   14.50    0.60
  -4  -3   2   12.80    0.90
   3   3  -2    1.30    0.30
   3   3  -2    1.20    0.40
   3   3  -2    1.30    0.10
   3   3  -2    0.80    0.20
   3   3  -2    0.80    0.20
   3   3  -2    1.20    0.40
  -3  -3   2    1.40    0.20
  -3  -3   2    1.40    0.40
  -3  -3   2    1.50    0.30
  -3  -3   2    0.70    0.30
  -3  -3   2    0.80    0.30
  -3  -3   2    1.10    0.20
   2   3  -2   30.10    1.00
   2   3  -2   29.90    0.90
   2   3  -2   29.20    0.80
   2   3  -2   30.30    0.90
   2   3  -2   31.20    0.90
  -2  -3   2   30.20    0.90
  -2  -3   2   29.10    1.00
  -2  -3   2   29.00    0.80
  -2  -3   2   30.30    0.90
  -2  -3   2   30.60    0.90
   1   3  -2   18.70    0.60
   1   3  -2   19.20    0.60
   1   3  -2   18.60    0.70
   1   3  -2   18.10    0.60
   1   3  -2   18.90    0.70
  -1  -3   2   18.30    0.70
  -1  -3   2   19.50    0.70
  -1  -3   2   18.50    0.60
  -1  -3   2   18.10    0.60
  -1  -3   2   17.40    0.50
  -1  -3   2   18.40    0.60
   0   3  -2  101.49    2.20
   0   3  -2  100.39    2.30
   0   3  -2  102.69    2.30
   0   3  -2   96.89    2.20
   0   3  -2  100.59    2.30
   0   3  -2   99.19    2.30
   0  -3   2   95.89    2.20
   0  -3   2  101.59    2.40
   0  -3   2   99.89    2.30
   0  -3   2   99.89    2.30
   0  -3   2  100.59    2.30
   0  -3   2  100.89    2.30
   0  -3   2  100.19    2.20
  -1   3  -2  147.69    3.30
  -1   3  -2  145.59    3.30
  -1   3  -2  139.49    3.40
  -1   3  -2  149.69    3.30
   1  -3   2  146.09    3.30
   1  -3   2  148.69    3.40
   1  -3   2  141.89    3.00
   1  -3   2  144.79    3.30
   1  -3   2  147.29    3.30
   1  -3   2  143.19    3.30
  -2   3  -2    4.50    0.50
  -2   3  -2    5.30    0.50
  -2   3  -2    4.40    0.40
  -2   3  -2    6.00    0.60
   2  -3   2    3.90    0.50
   2  -3   2    4.60    0.50
   2  -3   2    6.00    0.60
   2  -3   2    4.30    0.50
   2  -3   2    5.20    0.60
  -3   3  -2  148.79    3.50
  -3   3  -2  143.29    3.40
  -3   3  -2  144.09    3.60
   3  -3   2  145.29    3.40
   3  -3   2  142.69    3.60
   3  -3   2  146.99    3.60
   3  -3   2  147.79    3.60
   3  -3   2  142.89    3.70
   3  -3   2  142.19    3.50
  -4   3  -2  142.89    3.60
  -4   3  -2  142.29    3.40
  -4   3  -2  141.89    3.80
  -4   3  -2  139.29    3.70
   4  -3   2  144.29    3.40
   4  -3   2  141.39    3.50
   4  -3   2  138.09    3.90
   4  -3   2  142.39    3.60
   4  -3   2  135.79    3.80
   4  -3   2  139.19    3.70
  -5   3  -2   15.90    1.20
  -5   3  -2   16.30    1.40
  -5   3  -2   12.30    1.10
  -5   3  -2   14.70    1.20
   5  -3   2   15.70    1.50
   5  -3   2   13.70    1.30
   5  -3   2   13.70    1.30
   5  -3   2   15.90    1.40
   5  -3   2   12.10    1.10
   5  -3   2   16.10    1.70
  -6   3  -2   53.89    2.90
  -6   3  -2   54.09    2.70
  -6   3  -2   49.90    2.70
  -6   3  -2   52.59    2.10
   6  -3   2   54.79    2.80
   6  -3   2   51.59    2.30
   6  -3   2   58.59    3.20
   6  -3   2   48.10    2.30
   6  -3   2   56.49    2.90
   6  -3   2   58.89    2.30
  -7   3  -2    3.20    1.70
  -7   3  -2    0.70    1.20
   7  -3   2   -0.80    1.80
   7  -3   2    0.00    1.20
   7  -3   2   -2.80    1.70
   7  -3   2    3.30    1.40
   7  -3   2   -0.90    2.20
   9   2  -2   66.49    2.70
   9   2  -2   73.79    3.30
   9   2  -2   71.49    4.70
   9   2  -2   59.59    2.80
  -9  -2   2   62.39    6.30
  -9  -2   2   61.99    2.90
  -9  -2   2   63.59    4.60
  -9  -2   2   66.09    3.10
   8   2  -2    0.20    0.70
   8   2  -2    0.60    0.90
   8   2  -2    0.90    1.20
   8   2  -2    0.20    1.30
   8   2  -2    1.50    1.60
   8   2  -2   -0.10    1.50
   8   2  -2   -0.70    1.60
  -8  -2   2    0.30    0.90
  -8  -2   2    0.30    1.00
  -8  -2   2   -0.10    1.50
  -8  -2   2   -1.70    1.20
  -8  -2   2   -0.40    0.90
  -8  -2   2    0.00    1.60
   7   2  -2    2.60    0.50
   7   2  -2    5.00    1.00
   7   2  -2    4.10    0.90
   7   2  -2    3.50    0.70
   7   2  -2    3.00    1.30
   7   2  -2    2.30    1.10
  -7  -2   2    3.10    1.00
  -7  -2   2    3.30    0.80
  -7  -2   2    2.30    0.90
  -7  -2   2    3.30    0.80
  -7  -2   2    3.40    1.10
  -7  -2   2    3.70    0.80
   6   2  -2   16.10    1.30
   6   2  -2   13.30    1.40
   6   2  -2   13.20    1.20
   6   2  -2   14.00    0.90
   6   2  -2   14.50    0.90
   6   2  -2   14.20    1.30
  -6  -2   2   15.50    1.20
  -6  -2   2   13.70    1.00
  -6  -2   2   13.10    1.10
  -6  -2   2   14.40    1.50
  -6  -2   2    9.90    1.10
  -6  -2   2   15.60    1.00
   5   2  -2  165.98    4.00
   5   2  -2  173.98    3.80
   5   2  -2  170.08    4.00
   5   2  -2  166.98    4.40
   5   2  -2  170.08    3.80
   5   2  -2  172.48    4.20
  -5  -2   2  171.68    4.40
  -5  -2   2  169.28    3.90
  -5  -2   2  173.38    3.90
  -5  -2   2  175.48    4.30
  -5  -2   2  170.88    3.90
  -5  -2   2  158.98    4.10
   4   2  -2   45.30    1.50
   4   2  -2   47.60    1.70
   4   2  -2   48.00    1.20
   4   2  -2   46.80    1.70
   4   2  -2   45.20    1.40
   4   2  -2   46.80    1.20
  -4  -2   2   47.50    1.40
  -4  -2   2   48.00    1.30
  -4  -2   2   47.00    1.30
  -4  -2   2   47.00    1.60
  -4  -2   2   46.80    1.40
  -4  -2   2   45.80    1.70
   3   2  -2   27.80    1.00
   3   2  -2   28.60    1.10
   3   2  -2   29.40    1.00
   3   2  -2   30.80    0.80
   3   2  -2   29.90    0.80
  -3  -2   2   29.80    1.10
  -3  -2   2   30.50    0.80
  -3  -2   2   29.10    0.90
  -3  -2   2   29.30    1.20
  -3  -2   2   30.20    1.00
  -3  -2   2   30.20    0.80
   2   2  -2  167.88    3.60
   2   2  -2  169.38    3.60
   2   2  -2  166.88    3.40
   2   2  -2  168.58    3.70
   2   2  -2  163.38    3.70
  -2  -2   2  163.68    3.60
  -2  -2   2  168.18    3.60
  -2  -2   2  164.68    3.60
  -2  -2   2  163.48    3.70
  -2  -2   2  162.28    3.50
  -2  -2   2  166.98    3.70
   1   2  -2  345.77    7.20
   1   2  -2  359.56    7.20
   1   2  -2  327.17    7.20
   1   2  -2  342.87    7.20
   1   2  -2  344.87    7.20
  -1  -2   2  335.57    7.20
  -1  -2   2  341.97    7.20
  -1  -2   2  349.67    7.20
  -1  -2   2  340.87    7.20
  -1  -2   2  343.27    7.20
  -1  -2   2  349.67    7.20
   0   2  -2   45.50    1.10
   0   2  -2   47.20    1.10
   0   2  -2   44.90    1.10
   0   2  -2   45.90    1.20
   0   2  -2   49.60    1.10
   0   2  -2   42.10    1.20
   0   2  -2   46.80    1.20
   0  -2   2   47.00    1.10
   0  -2   2   46.60    1.10
   0  -2   2   46.00    1.10
   0  -2   2   45.20    1.10
   0  -2   2   46.50    1.20
   0  -2   2   46.20    1.10
   0  -2   2   44.60    1.20
  -1   2  -2    2.20    0.30
  -1   2  -2    3.20    0.20
  -1   2  -2    2.60    0.30
  -1   2  -2    2.10    0.30
  -1   2  -2    3.20    0.30
  -1   2  -2    2.20    0.20
   1  -2   2    2.70    0.30
   1  -2   2    2.00    0.30
   1  -2   2    2.10    0.30
   1  -2   2    4.30    0.40
   1  -2   2    2.90    0.10
   1  -2   2    2.20    0.30
   1  -2   2    2.80    0.30
  -2   2  -2    1.70    0.30
  -2   2  -2    2.50    0.40
  -2   2  -2    1.90    0.30
   2  -2   2    2.70    0.30
   2  -2   2    2.70    0.40
   2  -2   2    1.40    0.30
   2  -2   2    2.90    0.50
   2  -2   2    2.00    0.40
  -3   2  -2  124.49    3.20
  -3   2  -2  127.89    3.00
  -3   2  -2  130.79    3.30
  -3   2  -2  124.99    3.10
   3  -2   2  128.19    3.20
   3  -2   2  126.59    3.10
   3  -2   2  125.99    3.30
   3  -2   2  132.89    3.00
   3  -2   2  130.49    3.10
  -4   2  -2   31.40    1.50
  -4   2  -2   28.70    1.40
  -4   2  -2   29.40    1.10
  -4   2  -2   27.90    1.50
   4  -2   2   30.60    1.20
   4  -2   2   29.80    1.30
   4  -2   2   28.50    1.50
   4  -2   2   29.20    1.20
   4  -2   2   28.60    1.60
   4  -2   2   29.50    1.50
  -5   2  -2   76.49    2.20
  -5   2  -2   76.89    2.60
  -5   2  -2   74.39    2.40
  -5   2  -2   78.59    2.60
  -5   2  -2   75.59    1.60
   5  -2   2   72.99    2.20
   5  -2   2   74.49    2.20
   5  -2   2   74.69    2.30
   5  -2   2   72.89    2.60
   5  -2   2   73.79    2.70
   5  -2   2   77.79    2.70
  -6   2  -2    3.40    1.10
  -6   2  -2    2.30    0.30
  -6   2  -2    1.10    1.10
  -6   2  -2    2.10    1.20
   6  -2   2    1.00    0.70
   6  -2   2    1.60    0.80
   6  -2   2    2.40    1.10
   6  -2   2    2.00    0.80
   6  -2   2    2.20    1.10
   6  -2   2    2.60    1.30
  -7   2  -2   22.20    2.10
  -7   2  -2   22.20    2.10
  -7   2  -2   18.40    0.70
  -7   2  -2   17.50    0.80
  -7   2  -2   21.30    1.80
   7  -2   2   19.20    2.00
   7  -2   2   17.30    1.80
   7  -2   2   18.00    1.40
   7  -2   2   19.20    1.80
   7  -2   2   19.50    1.60
  -8   2  -2   13.00    2.40
  -8   2  -2   12.50    1.50
   8  -2   2   10.30    3.50
   8  -2   2   12.60    2.60
   8  -2   2   12.00    1.60
   8  -2   2   15.10    1.50
   8  -2   2   12.90    2.40
   8   1  -2    9.10    1.10
   8   1  -2    8.40    1.50
   8   1  -2    6.10    1.30
   8   1  -2    7.00    1.90
   8   1  -2    5.80    0.90
   8   1  -2    7.60    1.90
   8   1  -2   13.50    2.80
  -8  -1   2    5.20    1.40
  -8  -1   2    5.10    1.00
  -8  -1   2    9.30    2.10
  -8  -1   2    5.80    2.00
  -8  -1   2    7.70    1.10
  -8  -1   2    6.50    1.60
   7   1  -2    1.40    1.20
   7   1  -2    0.50    1.00
   7   1  -2    2.50    0.80
   7   1  -2    0.70    0.80
   7   1  -2    2.10    1.40
   7   1  -2    0.90    0.60
  -7  -1   2    1.60    0.70
  -7  -1   2    1.00    1.10
  -7  -1   2    1.60    0.70
  -7  -1   2    1.60    0.90
  -7  -1   2    0.70    1.00
   6   1  -2   43.40    1.70
   6   1  -2   43.30    2.30
   6   1  -2   41.70    2.10
   6   1  -2   42.20    1.50
   6   1  -2   42.30    1.70
   6   1  -2   42.70    1.40
  -6  -1   2   42.60    1.70
  -6  -1   2   43.20    1.50
  -6  -1   2   42.20    1.50
  -6  -1   2   43.80    2.30
  -6  -1   2   46.50    2.20
  -6  -1   2   43.80    1.70
   5   1  -2   35.20    1.40
   5   1  -2   35.30    1.30
   5   1  -2   35.20    1.80
   5   1  -2   36.10    1.10
   5   1  -2   34.00    1.20
   5   1  -2   35.20    1.70
  -5  -1   2   36.80    1.40
  -5  -1   2   36.40    1.70
  -5  -1   2   36.10    1.20
  -5  -1   2   35.70    1.20
  -5  -1   2   34.30    1.80
  -5  -1   2   34.90    1.30
   4   1  -2   15.70    1.00
   4   1  -2   14.20    0.70
   4   1  -2   13.30    0.80
   4   1  -2   14.10    0.60
   4   1  -2   14.40    0.70
   4   1  -2   13.20    1.00
  -4  -1   2   14.40    1.10
  -4  -1   2   15.60    0.90
  -4  -1   2   15.20    1.00
  -4  -1   2   15.20    0.80
  -4  -1   2   13.90    0.70
  -4  -1   2   13.90    0.70
   3   1  -2   97.59    2.30
   3   1  -2   97.79    2.30
   3   1  -2   94.29    2.20
   3   1  -2   96.29    2.20
   3   1  -2   98.99    2.50
   3   1  -2   96.29    2.50
  -3  -1   2   94.09    2.50
  -3  -1   2   97.59    2.20
  -3  -1   2   95.79    2.20
  -3  -1   2  100.69    2.50
  -3  -1   2   96.99    2.30
  -3  -1   2   95.49    2.20
   2   1  -2  335.37    7.30
   2   1  -2  336.67    7.10
   2   1  -2  350.56    7.30
   2   1  -2  343.17    7.20
   2   1  -2  338.67    7.10
   2   1  -2  343.57    7.10
  -2  -1   2  341.87    7.10
  -2  -1   2  351.56    7.20
  -2  -1   2  333.67    7.10
  -2  -1   2  323.87    7.30
  -2  -1   2  337.57    7.30
  -2  -1   2  341.07    7.10
   1   1  -2   11.60    0.40
   1   1  -2   10.80    0.50
   1   1  -2   11.70    0.30
   1   1  -2   11.90    0.40
   1   1  -2   10.90    0.40
   1   1  -2   11.90    0.40
  -1  -1   2   11.10    0.40
  -1  -1   2   11.90    0.40
  -1  -1   2   12.40    0.40
  -1  -1   2   11.60    0.50
   0   1  -2   11.50    0.30
   0   1  -2   11.40    0.30
   0   1  -2   11.70    0.40
   0   1  -2   11.30    0.40
   0   1  -2    9.70    0.40
   0   1  -2   11.30    0.40
   0   1  -2   10.70    0.40
   0  -1   2   11.60    0.40
   0  -1   2   11.40    0.30
   0  -1   2   11.00    0.40
   0  -1   2   11.10    0.30
   0  -1   2   11.00    0.40
   0  -1   2   11.20    0.40
   0  -1   2   11.00    0.40
  -1   1  -2  139.09    3.00
  -1   1  -2  135.89    3.10
  -1   1  -2  137.79    3.00
  -1   1  -2  137.19    3.00
  -1   1  -2  136.79    3.00
  -1   1  -2  135.99    2.80
   1  -1   2  138.29    3.00
   1  -1   2  139.19    3.10
   1  -1   2  132.19    3.00
   1  -1   2  134.29    2.80
   1  -1   2  133.29    3.00
   1  -1   2  141.39    3.00
  -2   1  -2  207.88    4.60
  -2   1  -2  205.68    4.50
  -2   1  -2  204.78    4.30
  -2   1  -2  212.88    4.40
  -2   1  -2  203.98    4.30
  -2   1  -2  211.38    4.60
  -2   1  -2  207.28    4.60
   2  -1   2  186.08    4.70
   2  -1   2  207.58    4.40
   2  -1   2  206.48    4.60
   2  -1   2  204.98    4.60
   2  -1   2  203.68    4.40
  -3   1  -2   20.70    1.00
  -3   1  -2   21.80    1.10
  -3   1  -2   21.10    0.80
  -3   1  -2   21.10    0.60
  -3   1  -2   21.40    0.90
   3  -1   2   20.40    1.00
   3  -1   2   19.20    1.10
   3  -1   2   20.20    0.80
   3  -1   2   20.80    1.00
   3  -1   2   20.80    0.80
   3  -1   2   20.30    0.80
  -4   1  -2   33.50    1.50
  -4   1  -2   35.10    1.30
  -4   1  -2   34.80    0.90
  -4   1  -2   34.40    1.20
  -4   1  -2   36.90    1.50
   4  -1   2   35.20    1.20
   4  -1   2   34.30    1.60
   4  -1   2   33.80    1.20
   4  -1   2   34.10    1.50
   4  -1   2   36.40    1.50
   4  -1   2   34.00    1.20
  -5   1  -2   27.00    1.70
  -5   1  -2   24.50    1.10
  -5   1  -2   23.40    0.80
  -5   1  -2   22.10    1.60
  -5   1  -2   23.70    1.40
   5  -1   2   22.70    1.20
   5  -1   2   23.20    1.50
   5  -1   2   22.60    1.60
   5  -1   2   24.10    1.20
   5  -1   2   24.40    1.10
   5  -1   2   22.30    1.60
  -6   1  -2   32.40    1.00
  -6   1  -2   28.70    1.40
  -6   1  -2   28.50    2.10
  -6   1  -2   34.30    1.90
  -6   1  -2   31.40    2.10
   6  -1   2   31.80    2.00
   6  -1   2   29.80    1.50
   6  -1   2   31.40    1.40
   6  -1   2   28.90    2.10
   6  -1   2   30.20    1.50
  -7   1  -2    1.00    1.30
  -7   1  -2    0.20    0.70
  -7   1  -2    0.00    0.40
  -7   1  -2    1.10    1.40
  -7   1  -2    0.10    1.30
   7  -1   2    0.50    1.30
   7  -1   2    0.10    0.90
   7  -1   2    0.90    0.70
   7  -1   2    0.30    1.10
   7  -1   2    1.20    1.50
   7  -1   2    0.00    0.80
  -8   1  -2    9.60    2.00
  -8   1  -2   11.10    1.30
  -8   1  -2   10.70    0.70
  -8   1  -2   11.30    2.20
   8  -1   2   11.40    1.20
   8  -1   2    8.00    2.10
   8  -1   2    8.50    1.90
   8  -1   2    7.10    1.90
   8  -1   2   10.10    1.30
   8   0  -2   84.29    4.40
   8   0  -2   81.29    3.00
   8   0  -2   80.09    3.30
   8   0  -2   85.39    4.20
   8   0  -2   80.49    4.20
   8   0  -2   80.09    3.00
   8   0  -2   79.39    2.70
  -8   0   2   89.99    4.20
  -8   0   2   80.99    2.60
  -8   0   2   88.79    4.30
  -8   0   2   82.09    3.40
  -8   0   2   81.99    2.80
   7   0  -2    1.00    1.40
   7   0  -2    0.60    0.80
   7   0  -2   -0.40    1.00
   7   0  -2    1.30    1.50
   7   0  -2    1.40    0.70
   7   0  -2    1.40    0.80
  -7   0   2   -0.70    1.70
  -7   0   2    1.90    1.20
  -7   0   2    0.60    1.20
  -7   0   2   -0.40    1.10
  -7   0   2   -0.90    0.60
   6   0  -2    0.30    0.70
   6   0  -2   -0.70    0.90
   6   0  -2    0.40    1.00
   6   0  -2   -0.20    0.60
   6   0  -2    0.60    0.50
   6   0  -2   -1.00    0.60
  -6   0   2   -0.40    0.70
  -6   0   2    1.20    1.00
  -6   0   2   -0.20    0.50
  -6   0   2    0.30    0.70
  -6   0   2    1.70    1.10
  -6   0   2    0.30    0.50
   5   0  -2    1.40    0.50
   5   0  -2    1.60    0.50
   5   0  -2    0.80    0.70
   5   0  -2    2.10    0.40
   5   0  -2    1.40    0.80
   5   0  -2    1.90    0.50
  -5   0   2    1.20    0.40
  -5   0   2    1.70    0.60
  -5   0   2    1.00    0.80
  -5   0   2    2.30    0.80
  -5   0   2    1.80    0.70
  -5   0   2    1.60    0.40
   4   0  -2   -0.10    0.40
   4   0  -2    0.70    0.40
   4   0  -2    0.10    0.30
   4   0  -2    0.10    0.30
   4   0  -2   -0.20    0.50
   4   0  -2   -0.50    0.40
  -4   0   2   -0.30    0.50
  -4   0   2   -0.30    0.40
  -4   0   2   -0.30    0.40
  -4   0   2   -0.40    0.40
  -4   0   2   -0.20    0.30
  -4   0   2    0.10    0.30
   3   0  -2  131.99    2.90
   3   0  -2  131.79    3.00
   3   0  -2  129.69    2.90
   3   0  -2  125.59    3.20
   3   0  -2  126.19    2.90
   3   0  -2  128.29    3.20
  -3   0   2  123.19    2.90
  -3   0   2  125.29    3.10
  -3   0   2  129.09    3.00
  -3   0   2  127.19    3.00
  -3   0   2  132.69    2.90
  -3   0   2  131.29    3.20
   2   0  -2  208.58    4.70
   2   0  -2  209.68    4.50
   2   0  -2  214.28    4.50
   2   0  -2  210.58    4.50
   2   0  -2  208.78    4.50
   2   0  -2  212.98    4.70
  -2   0   2  209.48    4.60
  -2   0   2  212.88    4.50
  -2   0   2  213.48    4.50
  -2   0   2  217.78    4.70
  -2   0   2  205.88    4.70
  -2   0   2  212.48    4.50
   1   0  -2   53.19    1.30
   1   0  -2   53.39    1.20
   1   0  -2   51.69    1.20
   1   0  -2   54.79    1.20
   1   0  -2   54.59    1.30
   1   0  -2   55.89    1.20
  -1   0   2   53.89    1.20
  -1   0   2   53.09    1.20
  -1   0   2   51.79    1.20
  -1   0   2   51.39    1.30
  -1   0   2   52.89    1.30
   0   0  -2 1380.76   28.40
   0   0  -2 1405.36   28.50
   0   0  -2 1375.96   28.10
   0   0  -2 1339.77   28.20
   0   0  -2 1432.26   28.30
   0   0  -2 1361.76   28.20
   0   0  -2 1358.46   28.40
   0   0   2 1381.96   28.50
   0   0   2 1296.87   28.50
   0   0   2 1389.56   28.20
   0   0   2 1354.26   28.30
   0   0   2 1369.86   28.40
   0   0   2 1207.68   28.40
   0   0   2 1395.06   28.00
  -1   0  -2    0.70    0.10
  -1   0  -2    0.50    0.10
  -1   0  -2    0.40    0.10
  -1   0  -2    0.70    0.20
  -1   0  -2    0.50    0.10
  -1   0  -2    0.70    0.10
  -1   0  -2    0.90    0.10
   1   0   2    0.50    0.10
   1   0   2    0.60    0.20
   1   0   2    0.90    0.10
   1   0   2    0.90    0.10
   1   0   2    0.70    0.10
   1   0   2    0.70    0.10
  -2   0  -2  175.18    3.80
  -2   0  -2  172.68    3.70
  -2   0  -2  171.88    3.80
   2   0   2  175.08    3.70
   2   0   2  168.58    3.80
   2   0   2  168.28    3.80
   2   0   2  166.88    3.80
   2   0   2  162.68    3.70
  -3   0  -2   81.39    2.20
  -3   0  -2   82.39    2.00
  -3   0  -2   76.09    1.90
  -3   0  -2   82.39    1.90
  -3   0  -2   81.39    2.20
   3   0   2   77.89    1.90
   3   0   2   82.19    1.90
   3   0   2   83.09    1.90
   3   0   2   78.89    2.20
   3   0   2   81.89    2.20
   3   0   2   84.19    2.10
  -4   0  -2   14.40    0.70
  -4   0  -2   14.80    0.80
  -4   0  -2   15.80    0.70
  -4   0  -2   15.40    1.10
  -4   0  -2   15.60    1.10
   4   0   2   16.30    0.80
   4   0   2   15.40    0.80
   4   0   2   16.10    1.00
   4   0   2   15.50    1.00
   4   0   2   13.80    1.10
   4   0   2   15.80    0.70
  -5   0  -2    0.50    0.40
  -5   0  -2    0.80    0.60
  -5   0  -2    0.20    0.30
  -5   0  -2   -0.10    0.70
   5   0   2    0.00    0.60
   5   0   2    0.20    0.40
   5   0   2    0.30    0.60
   5   0   2    0.10    0.30
   5   0   2    0.30    0.70
  -6   0  -2   85.59    2.20
  -6   0  -2   86.49    3.00
  -6   0  -2   87.09    3.00
  -6   0  -2   85.29    2.40
  -6   0  -2   85.29    2.60
   6   0   2   87.59    2.20
   6   0   2   90.39    3.00
   6   0   2   86.79    2.90
   6   0   2   82.69    2.40
   6   0   2   84.99    2.90
   6   0   2   86.19    2.50
  -7   0  -2   13.90    1.30
  -7   0  -2   13.60    1.50
  -7   0  -2   16.70    1.40
  -7   0  -2    9.70    1.30
  -7   0  -2   14.40    1.10
   7   0   2   12.40    1.10
   7   0   2   13.10    1.10
   7   0   2   13.60    1.60
   7   0   2   15.90    1.40
   7   0   2   11.10    1.30
   7   0   2   17.00    1.80
  -8   0  -2    1.40    0.70
  -8   0  -2    0.30    1.70
  -8   0  -2    1.40    1.00
  -8   0  -2   -0.50    1.80
   8   0   2    2.00    1.60
   8   0   2    1.80    1.50
   8   0   2    0.30    0.70
   8   0   2    0.10    1.70
   8   0   2    0.30    1.00
  -9   0  -2   47.00    4.40
  -9   0  -2   56.69    2.90
   9   0   2   57.19    4.30
   9   0   2   53.49    4.40
   9   0   2   50.89    2.90
   8  -1  -2   73.39    4.40
   8  -1  -2   79.69    2.70
   8  -1  -2   72.59    3.20
   8  -1  -2   76.09    4.70
   8  -1  -2   72.59    4.70
  -8   1   2   72.79    2.90
  -8   1   2   72.39    4.70
   7  -1  -2   -0.70    1.00
   7  -1  -2   -0.30    0.90
   7  -1  -2   -0.50    1.70
   7  -1  -2   -0.40    1.70
   7  -1  -2    0.30    0.80
   7  -1  -2    0.00    1.00
  -7   1   2    0.20    1.20
  -7   1   2    0.80    0.80
  -7   1   2    0.10    0.60
  -7   1   2    1.40    1.40
  -7   1   2   -0.90    1.30
  -7   1   2    0.50    1.40
   6  -1  -2    1.60    1.30
   6  -1  -2    1.40    1.20
   6  -1  -2    2.10    0.70
   6  -1  -2    1.70    0.60
   6  -1  -2    2.70    1.20
   6  -1  -2    2.70    0.80
  -6   1   2    1.50    0.90
  -6   1   2    1.40    0.50
  -6   1   2    1.20    1.10
  -6   1   2    1.30    0.60
  -6   1   2    2.30    1.00
  -6   1   2    1.80    1.00
   5  -1  -2  111.39    2.90
   5  -1  -2  105.49    3.20
   5  -1  -2  109.49    2.70
   5  -1  -2  109.59    2.70
   5  -1  -2  107.09    3.40
   5  -1  -2  107.79    2.80
  -5   1   2  111.79    3.20
  -5   1   2  110.49    2.50
  -5   1   2  109.19    2.70
  -5   1   2  108.59    3.00
  -5   1   2  110.19    3.00
  -5   1   2  107.29    3.30
   4  -1  -2    6.20    0.70
   4  -1  -2    8.90    0.70
   4  -1  -2    8.40    0.70
   4  -1  -2    7.40    0.60
   4  -1  -2    6.20    0.50
   4  -1  -2    7.10    0.80
  -4   1   2    8.80    0.80
  -4   1   2    4.50    0.70
  -4   1   2    7.80    0.50
  -4   1   2    8.60    0.70
  -4   1   2    7.20    0.60
  -4   1   2    6.60    0.70
   3  -1  -2   14.40    0.90
   3  -1  -2   15.10    0.60
   3  -1  -2   15.30    0.60
   3  -1  -2   15.80    0.70
   3  -1  -2   15.40    0.80
   3  -1  -2   16.10    1.00
  -3   1   2   14.50    0.90
  -3   1   2   14.40    0.60
  -3   1   2   14.80    0.60
  -3   1   2   14.80    0.90
  -3   1   2   13.90    1.00
  -3   1   2   14.90    0.80
   2  -1  -2 1308.47   26.80
   2  -1  -2 1316.37   27.00
   2  -1  -2 1320.87   27.00
   2  -1  -2 1380.26   27.20
   2  -1  -2 1230.38   26.70
   2  -1  -2 1270.47   26.90
  -2   1   2 1246.28   26.70
  -2   1   2 1305.67   27.00
  -2   1   2 1369.76   27.00
  -2   1   2 1316.67   26.80
  -2   1   2 1219.58   26.80
  -2   1   2 1251.47   26.80
   1  -1  -2   45.20    1.20
   1  -1  -2   43.80    1.10
   1  -1  -2   44.20    1.00
   1  -1  -2   44.20    1.20
   1  -1  -2   45.40    1.00
  -1   1   2   44.80    1.20
  -1   1   2   38.80    1.00
  -1   1   2   42.70    1.20
  -1   1   2   45.50    1.00
   0  -1  -2  333.87    7.20
   0  -1  -2  342.57    7.30
   0  -1  -2  362.96    7.30
   0  -1  -2  358.66    7.20
   0  -1  -2  359.46    7.20
   0   1   2  354.26    7.20
   0   1   2  339.97    7.30
   0   1   2  364.86    7.40
   0   1   2  330.67    7.30
  -1  -1  -2  281.57    6.00
  -1  -1  -2  282.57    6.00
  -1  -1  -2  285.57    5.90
  -1  -1  -2  285.27    5.90
  -1  -1  -2  289.77    5.90
  -1  -1  -2  276.47    5.90
  -1  -1  -2  284.87    6.00
   1   1   2  284.77    5.90
   1   1   2  292.47    5.90
   1   1   2  286.17    6.00
   1   1   2  279.97    5.90
   1   1   2  295.27    6.00
  -2  -1  -2    3.90    0.30
  -2  -1  -2    4.20    0.40
  -2  -1  -2    4.00    0.40
  -2  -1  -2    3.50    0.30
  -2  -1  -2    4.10    0.40
   2   1   2    4.10    0.40
   2   1   2    3.70    0.30
   2   1   2    4.00    0.30
  -3  -1  -2   50.49    1.30
  -3  -1  -2   52.69    1.30
  -3  -1  -2   52.59    1.40
  -3  -1  -2   52.69    1.50
   3   1   2   51.39    1.30
   3   1   2   54.59    1.50
   3   1   2   50.89    1.50
   3   1   2   52.99    1.30
   3   1   2   50.19    1.50
   3   1   2   52.09    1.10
  -4  -1  -2   38.30    1.50
  -4  -1  -2   37.40    1.20
  -4  -1  -2   39.70    1.50
  -4  -1  -2   40.10    1.20
  -4  -1  -2   38.30    1.20
   4   1   2   38.00    1.10
   4   1   2   39.50    1.00
   4   1   2   40.20    1.50
   4   1   2   40.00    1.20
   4   1   2   38.50    1.40
  -5  -1  -2    1.90    0.70
  -5  -1  -2    2.50    0.50
  -5  -1  -2    1.70    0.40
  -5  -1  -2    1.60    0.70
  -5  -1  -2    1.70    0.40
   5   1   2    2.20    0.60
   5   1   2    2.30    0.70
   5   1   2    1.70    0.60
   5   1   2    2.00    0.40
   5   1   2    1.90    0.30
   5   1   2    1.80    0.40
  -6  -1  -2  262.77    6.40
  -6  -1  -2  264.87    5.80
  -6  -1  -2  268.47    5.90
  -6  -1  -2  261.47    6.00
  -6  -1  -2  265.57    6.40
   6   1   2  264.07    6.40
   6   1   2  255.17    5.90
   6   1   2  263.37    5.60
   6   1   2  267.77    6.40
   6   1   2  259.97    5.90
   6   1   2  262.47    6.30
  -7  -1  -2   16.00    1.30
  -7  -1  -2   11.90    1.30
  -7  -1  -2   10.80    2.10
  -7  -1  -2   16.30    1.20
   7   1   2   13.00    1.50
   7   1   2   13.60    1.20
   7   1   2   13.90    1.50
   7   1   2   14.90    0.80
   7   1   2   14.00    1.10
   7   1   2   17.10    1.60
  -8  -1  -2    0.30    1.60
  -8  -1  -2    2.10    0.80
  -8  -1  -2    1.70    1.50
  -8  -1  -2    1.50    0.80
  -8  -1  -2   -0.40    1.40
   8   1   2    0.40    1.50
   8   1   2    0.80    1.50
   8   1   2    1.60    1.20
   8   1   2    0.40    0.80
   8   1   2    3.30    1.40
  -9  -1  -2    1.30    1.10
  -9  -1  -2    0.20    2.50
  -9  -1  -2    1.10    1.30
  -9  -1  -2   -1.80    2.40
   9   1   2    3.20    2.20
   9   1   2    1.90    2.20
   9   1   2    2.60    1.20
   9   1   2   -0.20    1.30
   7  -2  -2   31.60    1.70
   7  -2  -2   32.30    2.40
   7  -2  -2   29.80    2.40
   7  -2  -2   31.40    2.60
   7  -2  -2   36.20    3.30
   7  -2  -2   32.90    3.30
  -7   2   2   32.10    3.20
  -7   2   2   29.20    3.10
  -7   2   2   30.00    2.00
   6  -2  -2    2.40    1.30
   6  -2  -2    1.70    0.80
   6  -2  -2    0.80    0.80
   6  -2  -2    1.30    0.60
   6  -2  -2    1.80    1.40
   6  -2  -2    1.60    1.00
  -6   2   2    0.50    1.10
  -6   2   2    1.60    1.20
  -6   2   2    1.10    0.50
  -6   2   2    1.80    0.70
  -6   2   2    3.20    1.30
   5  -2  -2   70.09    2.70
   5  -2  -2   74.89    1.90
   5  -2  -2   66.79    2.30
   5  -2  -2   71.69    2.20
   5  -2  -2   68.59    2.00
   5  -2  -2   70.09    2.80
  -5   2   2   70.59    2.00
  -5   2   2   67.49    2.50
  -5   2   2   68.19    2.40
  -5   2   2   75.09    2.70
  -5   2   2   71.59    2.50
  -5   2   2   69.19    1.70
   4  -2  -2   14.10    1.40
   4  -2  -2   11.90    0.70
   4  -2  -2   12.90    1.00
   4  -2  -2   12.10    1.10
   4  -2  -2   13.20    0.80
  -4   2   2   14.10    1.20
  -4   2   2   13.00    1.30
  -4   2   2   13.20    0.60
  -4   2   2   12.10    1.30
  -4   2   2   12.30    1.20
  -4   2   2   14.00    0.80
   3  -2  -2  154.38    3.80
   3  -2  -2  154.08    3.50
   3  -2  -2  157.88    3.50
   3  -2  -2  165.18    3.90
   3  -2  -2  160.48    4.00
   3  -2  -2  164.28    3.70
  -3   2   2  159.08    4.00
  -3   2   2  158.58    3.50
  -3   2   2  164.98    3.80
  -3   2   2  158.88    3.90
  -3   2   2  161.58    3.40
  -3   2   2  157.98    3.80
   2  -2  -2  390.36    8.30
   2  -2  -2  385.86    8.30
   2  -2  -2  385.06    8.30
   2  -2  -2  379.16    8.10
   2  -2  -2  379.86    8.00
   2  -2  -2  393.86    8.40
  -2   2   2  373.06    8.10
  -2   2   2  403.46    8.30
  -2   2   2  384.46    8.30
  -2   2   2  386.46    8.00
  -2   2   2  385.16    8.40
  -2   2   2  393.56    8.40
   1  -2  -2    0.10    0.20
   1  -2  -2    0.10    0.10
   1  -2  -2    0.00    0.20
   1  -2  -2    0.20    0.10
   1  -2  -2    0.30    0.20
   1  -2  -2    0.20    0.20
  -1   2   2    0.10    0.20
  -1   2   2    0.20    0.10
  -1   2   2    0.30    0.30
  -1   2   2    0.00    0.20
  -1   2   2    0.10    0.10
   0  -2  -2    0.10    0.20
   0  -2  -2    0.20    0.10
   0  -2  -2    0.30    0.10
   0  -2  -2    0.20    0.10
   0  -2  -2    0.10    0.10
   0   2   2    0.10    0.10
   0   2   2    0.40    0.10
   0   2   2    0.20    0.10
   0   2   2    0.10    0.20
  -1  -2  -2 9999.00  205.08
  -2  -2  -2    7.00    0.30
  -2  -2  -2    6.90    0.40
  -2  -2  -2    6.80    0.30
  -2  -2  -2    7.60    0.40
  -2  -2  -2    7.20    0.40
  -2  -2  -2    6.90    0.40
  -2  -2  -2    6.80    0.30
   2   2   2    7.30    0.30
   2   2   2    7.40    0.40
   2   2   2    7.20    0.30
   2   2   2    6.90    0.40
   2   2   2    6.60    0.40
  -3  -2  -2    0.20    0.10
  -3  -2  -2   -0.10    0.20
  -3  -2  -2    0.00    0.30
  -3  -2  -2   -0.10    0.30
  -3  -2  -2    0.00    0.30
  -3  -2  -2    0.00    0.20
   3   2   2    0.10    0.30
   3   2   2    0.10    0.20
   3   2   2    0.30    0.20
   3   2   2    0.20    0.20
   3   2   2    0.20    0.30
  -4  -2  -2  137.49    3.20
  -4  -2  -2  133.09    3.30
  -4  -2  -2  136.49    3.40
  -4  -2  -2  132.09    3.10
  -4  -2  -2  136.09    3.10
  -4  -2  -2  124.19    2.90
   4   2   2  135.49    3.30
   4   2   2  133.19    3.00
   4   2   2  135.59    2.80
   4   2   2  137.09    3.10
   4   2   2  136.19    3.20
   4   2   2  136.49    3.30
  -5  -2  -2  186.08    4.60
  -5  -2  -2  184.68    4.30
  -5  -2  -2  187.08    4.20
  -5  -2  -2  192.28    4.20
  -5  -2  -2  180.88    4.00
  -5  -2  -2  190.68    4.60
   5   2   2  185.78    4.50
   5   2   2  175.68    4.60
   5   2   2  189.38    4.30
   5   2   2  185.38    4.50
   5   2   2  188.48    3.90
   5   2   2  186.68    4.10
  -6  -2  -2   49.99    1.70
  -6  -2  -2   49.90    1.40
  -6  -2  -2   52.59    2.20
  -6  -2  -2   50.89    1.60
  -6  -2  -2   46.80    1.90
  -6  -2  -2   49.99    2.10
   6   2   2   50.09    1.50
   6   2   2   49.70    2.00
   6   2   2   51.49    1.20
   6   2   2   48.60    2.00
   6   2   2   51.69    2.10
   6   2   2   51.69    1.70
  -7  -2  -2    1.90    0.80
  -7  -2  -2    0.90    1.10
  -7  -2  -2    2.00    0.70
  -7  -2  -2    3.10    1.00
  -7  -2  -2    2.30    0.80
   7   2   2    1.10    0.60
   7   2   2    1.30    0.80
   7   2   2    2.10    0.90
   7   2   2    2.80    1.10
   7   2   2    3.10    1.00
   7   2   2    2.40    0.30
  -8  -2  -2   11.90    1.10
  -8  -2  -2    8.40    1.30
  -8  -2  -2    9.20    1.40
  -8  -2  -2   10.00    1.70
  -8  -2  -2    8.50    1.00
   8   2   2   11.80    1.50
   8   2   2   11.50    1.40
   8   2   2    9.70    0.90
   8   2   2   12.00    1.70
   8   2   2   11.60    0.80
  -9  -2  -2   30.40    2.20
  -9  -2  -2   30.40    2.90
  -9  -2  -2   21.50    2.10
  -9  -2  -2   34.00    2.30
   9   2   2   24.40    2.50
   9   2   2   26.30    2.00
   9   2   2   37.10    3.50
   9   2   2   27.60    2.40
   9   2   2   27.60    1.40
   7  -3  -2   15.60    2.30
   7  -3  -2   13.20    1.80
   7  -3  -2   14.30    1.80
  -7   3   2   15.50    2.10
  -7   3   2   15.10    1.50
   6  -3  -2    2.50    1.50
   6  -3  -2    1.50    1.10
   6  -3  -2    2.40    1.60
   6  -3  -2    0.20    1.60
   6  -3  -2    1.20    1.00
   6  -3  -2    0.20    1.20
   6  -3  -2    0.90    0.60
  -6   3   2    1.80    0.50
  -6   3   2    2.70    1.20
  -6   3   2    0.90    1.50
  -6   3   2    2.60    0.90
   5  -3  -2    1.90    1.20
   5  -3  -2    2.70    0.90
   5  -3  -2    3.10    0.90
   5  -3  -2    3.10    0.70
   5  -3  -2    4.10    1.50
   5  -3  -2    1.70    0.50
  -5   3   2    2.60    0.70
  -5   3   2    1.90    0.80
  -5   3   2    1.20    1.10
  -5   3   2    1.90    0.40
  -5   3   2    2.60    1.00
   4  -3  -2  196.28    5.00
   4  -3  -2  194.08    4.20
   4  -3  -2  195.18    4.70
   4  -3  -2  197.28    4.90
   4  -3  -2  194.28    4.70
   4  -3  -2  191.68    4.40
  -4   3   2  185.98    4.70
  -4   3   2  192.78    4.20
  -4   3   2  197.58    4.40
  -4   3   2  194.18    4.90
   3  -3  -2    6.60    0.60
   3  -3  -2    6.20    0.80
   3  -3  -2    5.80    0.70
   3  -3  -2    5.40    0.50
   3  -3  -2    6.60    0.70
   3  -3  -2    5.20    0.70
  -3   3   2    5.50    0.80
  -3   3   2    6.50    0.50
  -3   3   2    4.50    0.60
  -3   3   2    4.50    0.70
  -3   3   2    6.00    0.70
  -3   3   2    5.50    0.50
   2  -3  -2  177.38    4.00
   2  -3  -2  170.68    4.00
   2  -3  -2  169.28    3.60
   2  -3  -2  174.48    4.00
   2  -3  -2  174.18    3.70
   2  -3  -2  169.48    3.90
  -2   3   2  172.88    3.60
  -2   3   2  169.48    4.10
  -2   3   2  165.08    4.00
  -2   3   2  172.58    3.70
  -2   3   2  143.29    4.10
   1  -3  -2  126.49    3.00
   1  -3  -2  128.49    2.80
   1  -3  -2  124.59    2.90
   1  -3  -2  127.09    3.00
   1  -3  -2  125.59    2.70
   1  -3  -2  127.09    3.00
  -1   3   2  125.69    2.80
  -1   3   2  128.39    2.90
  -1   3   2  128.59    2.80
  -1   3   2  122.99    2.90
  -1   3   2  120.49    3.10
   0  -3  -2   57.69    1.50
   0  -3  -2   56.39    1.40
   0  -3  -2   60.09    1.60
   0  -3  -2   56.79    1.40
   0  -3  -2   56.29    1.40
   0  -3  -2   58.19    1.40
   0   3   2   59.29    1.30
   0   3   2   56.79    1.30
  -1  -3  -2  420.16    8.50
  -1  -3  -2  387.56    8.30
  -1  -3  -2  404.66    8.50
  -2  -3  -2   24.90    0.70
  -2  -3  -2   25.10    0.70
  -2  -3  -2   26.40    0.70
  -2  -3  -2   26.00    0.80
  -2  -3  -2   25.90    0.70
   2   3   2   25.80    0.60
   2   3   2   26.40    0.60
   2   3   2   24.90    0.80
  -3  -3  -2   75.19    1.90
  -3  -3  -2   76.69    1.80
  -3  -3  -2   75.79    1.60
  -3  -3  -2   74.59    1.90
  -3  -3  -2   77.69    1.90
   3   3   2   75.79    1.70
   3   3   2   76.49    1.90
   3   3   2   75.89    1.80
   3   3   2   77.49    1.90
   3   3   2   70.19    1.80
  -4  -3  -2  565.04   11.70
  -4  -3  -2  544.45   11.50
  -4  -3  -2  557.24   11.80
  -4  -3  -2  526.75   11.30
  -4  -3  -2  546.75   11.80
  -4  -3  -2  546.45   11.60
   4   3   2  561.64   11.60
   4   3   2  561.34   11.60
   4   3   2  555.64   11.30
   4   3   2  534.65   11.50
   4   3   2  540.95   11.70
   4   3   2  563.14   11.70
  -5  -3  -2    4.50    0.50
  -5  -3  -2    4.10    0.60
  -5  -3  -2    5.00    0.70
  -5  -3  -2    4.00    0.40
  -5  -3  -2    3.30    0.60
  -5  -3  -2    4.50    0.50
   5   3   2    5.00    0.70
   5   3   2    5.40    0.60
   5   3   2    3.80    0.40
   5   3   2    5.20    0.60
   5   3   2    5.00    0.30
  -6  -3  -2    2.40    0.90
  -6  -3  -2    2.00    0.30
  -6  -3  -2    2.40    0.60
  -6  -3  -2    1.10    0.50
  -6  -3  -2    2.00    0.60
  -6  -3  -2    1.90    0.70
   6   3   2    2.00    0.70
   6   3   2    1.40    0.70
   6   3   2    1.70    0.40
   6   3   2    2.20    0.20
   6   3   2    1.20    0.60
   6   3   2    2.60    0.70
  -7  -3  -2  110.39    3.10
  -7  -3  -2  111.59    3.60
  -7  -3  -2  110.79    2.60
  -7  -3  -2  109.79    3.00
  -7  -3  -2  109.69    3.60
   7   3   2  110.49    2.80
   7   3   2  107.19    3.40
   7   3   2  112.59    3.50
   7   3   2  111.09    3.10
   7   3   2  110.59    2.50
   7   3   2  115.49    3.40
  -8  -3  -2    3.10    1.50
  -8  -3  -2    3.60    1.00
  -8  -3  -2    1.30    1.20
  -8  -3  -2    3.10    0.90
  -8  -3  -2    2.90    1.20
   8   3   2    1.90    1.30
   8   3   2    3.20    0.40
   8   3   2    1.60    1.30
   8   3   2    2.20    1.20
   8   3   2    4.00    1.20
   8   3   2    2.40    0.90
  -9  -3  -2    0.60    1.60
  -9  -3  -2    0.60    1.60
  -9  -3  -2   -0.10    1.30
  -9  -3  -2   -0.20    1.10
  -9  -3  -2    1.50    2.20
   9   3   2    0.30    0.60
   9   3   2    1.90    1.90
   9   3   2    1.20    1.70
   9   3   2    1.50    1.80
   9   3   2   -0.10    0.90
   6  -4  -2    2.70    1.80
   6  -4  -2    0.50    1.30
   6  -4  -2   -1.40    1.40
  -6   4   2   -1.20    1.20
  -6   4   2    1.30    1.50
   5  -4  -2    0.50    1.20
   5  -4  -2    1.80    1.20
   5  -4  -2    1.60    0.40
   5  -4  -2    1.70    0.80
   5  -4  -2   -0.20    1.10
   5  -4  -2    1.80    1.30
   5  -4  -2    3.30    1.20
  -5   4   2    0.10    0.80
  -5   4   2    0.70    1.10
  -5   4   2    1.50    1.20
   4  -4  -2    0.50    0.40
   4  -4  -2    0.80    0.60
   4  -4  -2   -0.30    1.00
   4  -4  -2   -0.50    0.80
   4  -4  -2    1.60    1.00
   4  -4  -2    0.10    0.90
  -4   4   2    0.10    0.80
  -4   4   2   -0.20    0.60
  -4   4   2    0.40    0.80
   3  -4  -2    2.90    0.70
   3  -4  -2    3.90    0.80
   3  -4  -2    2.70    0.70
   3  -4  -2    4.10    0.50
   3  -4  -2    3.00    0.80
   3  -4  -2    4.40    0.40
  -3   4   2    3.00    0.70
  -3   4   2    3.70    0.70
  -3   4   2    3.10    0.50
   2  -4  -2   40.80    1.70
   2  -4  -2   41.60    1.50
   2  -4  -2   41.80    1.30
   2  -4  -2   41.10    1.60
   2  -4  -2   41.60    1.60
   2  -4  -2   41.70    1.00
  -2   4   2   42.00    1.40
  -2   4   2   39.10    1.40
  -2   4   2   40.90    1.30
   1  -4  -2   31.20    1.30
   1  -4  -2   32.30    0.90
   1  -4  -2   31.00    1.10
   1  -4  -2   32.10    1.20
   1  -4  -2   33.30    1.00
   1  -4  -2   33.10    1.20
  -1   4   2   32.80    1.10
  -1   4   2   33.40    1.00
  -1   4   2   34.10    1.00
   0  -4  -2   21.80    0.80
   0  -4  -2   22.00    0.90
   0  -4  -2   20.30    0.70
   0  -4  -2   20.90    0.70
   0  -4  -2   21.60    0.80
   0  -4  -2   21.80    1.10
  -1  -4  -2  138.39    3.10
  -1  -4  -2  141.29    3.30
  -1  -4  -2  140.59    3.10
  -2  -4  -2 2185.18   45.00
  -2  -4  -2 2172.88   45.80
  -2  -4  -2 2247.48   45.40
  -2  -4  -2 2117.19   45.00
  -2  -4  -2 2167.68   44.90
  -2  -4  -2 2220.38   44.90
  -2  -4  -2 2193.58   45.50
  -3  -4  -2    2.30    0.20
  -3  -4  -2    2.10    0.30
  -3  -4  -2    2.50    0.40
  -3  -4  -2    1.80    0.40
  -3  -4  -2    2.40    0.30
  -3  -4  -2    2.40    0.30
   3   4   2    2.10    0.30
   3   4   2    2.30    0.20
   3   4   2    2.50    0.20
  -4  -4  -2    0.00    0.40
  -4  -4  -2    0.50    0.50
  -4  -4  -2    0.00    0.20
  -4  -4  -2    0.10    0.40
  -4  -4  -2    0.50    0.20
  -4  -4  -2    0.10    0.40
   4   4   2    0.50    0.20
   4   4   2    0.40    0.30
   4   4   2    0.30    0.30
   4   4   2    0.10    0.30
  -5  -4  -2  108.79    2.60
  -5  -4  -2  105.79    2.90
  -5  -4  -2  105.79    2.70
  -5  -4  -2  111.29    2.90
  -5  -4  -2  108.59    2.40
  -5  -4  -2  108.59    2.90
   5   4   2  110.49    2.50
   5   4   2  112.69    2.80
   5   4   2  110.39    2.70
   5   4   2  105.49    2.80
   5   4   2  109.29    2.80
  -6  -4  -2  137.59    3.70
  -6  -4  -2  139.69    3.50
  -6  -4  -2  132.79    2.90
  -6  -4  -2  137.39    3.70
  -6  -4  -2  131.19    3.40
  -6  -4  -2  132.79    3.30
   6   4   2  134.99    3.60
   6   4   2  138.49    3.50
   6   4   2  135.29    3.40
   6   4   2  137.39    3.10
   6   4   2  131.89    3.50
   6   4   2  132.69    2.90
  -7  -4  -2    4.30    1.10
  -7  -4  -2    3.90    0.40
  -7  -4  -2    2.50    0.70
  -7  -4  -2    3.10    0.90
  -7  -4  -2    4.50    0.80
   7   4   2    4.50    0.40
   7   4   2    4.20    0.90
   7   4   2    5.00    1.00
   7   4   2    4.00    0.60
   7   4   2    5.10    1.10
  -8  -4  -2    5.90    1.00
  -8  -4  -2    4.60    1.10
  -8  -4  -2    7.00    1.60
  -8  -4  -2    6.80    1.60
  -8  -4  -2    4.80    1.20
   8   4   2    6.10    1.30
   8   4   2    5.60    1.20
   8   4   2    6.00    0.50
   8   4   2    3.70    1.20
   8   4   2    6.70    0.80
  -9  -4  -2   -0.80    1.50
  -9  -4  -2    0.00    1.20
  -9  -4  -2    6.20    3.20
  -9  -4  -2    0.00    1.70
   9   4   2    1.20    1.70
   9   4   2    0.90    1.00
   9   4   2    1.90    1.70
   9   4   2    1.60    0.60
   9   4   2    0.30    1.50
   5  -5  -2    2.70    1.20
   5  -5  -2    3.30    1.50
   5  -5  -2    2.20    2.50
   5  -5  -2    1.60    1.40
  -5   5   2    4.60    1.20
  -5   5   2    2.20    1.40
  -5   5   2    4.20    1.10
   4  -5  -2   12.70    1.40
   4  -5  -2   12.10    1.40
   4  -5  -2    9.70    1.30
   4  -5  -2   11.70    1.00
   4  -5  -2   13.20    1.50
   4  -5  -2   10.20    1.40
  -4   5   2    9.70    1.10
  -4   5   2   11.00    1.20
  -4   5   2   12.30    1.00
   3  -5  -2   81.29    2.70
   3  -5  -2   82.79    2.90
   3  -5  -2   81.89    1.90
   3  -5  -2   86.79    2.70
   3  -5  -2   80.19    2.30
   3  -5  -2   78.49    2.70
  -3   5   2   83.89    2.40
  -3   5   2   81.59    2.50
  -3   5   2   83.69    2.30
   2  -5  -2   10.50    1.00
   2  -5  -2   11.50    1.20
   2  -5  -2   10.80    1.10
   2  -5  -2   10.00    0.50
   2  -5  -2   11.30    0.90
   2  -5  -2   10.80    0.90
  -2   5   2   11.40    0.90
  -2   5   2   11.20    0.90
  -2   5   2   10.70    1.00
   1  -5  -2   23.10    1.00
   1  -5  -2   23.90    1.30
   1  -5  -2   22.10    1.10
   1  -5  -2   23.50    0.70
   1  -5  -2   23.60    1.40
   1  -5  -2   24.00    1.10
  -1   5   2   24.70    1.00
  -1   5   2   24.60    0.80
  -1   5   2   23.90    0.80
   0  -5  -2   13.80    0.70
   0  -5  -2   13.70    1.20
   0  -5  -2   14.10    0.90
   0  -5  -2   13.50    0.60
   0  -5  -2   13.70    0.80
   0  -5  -2   13.00    0.70
  -1  -5  -2   -0.70    0.40
  -1  -5  -2    0.50    0.40
  -1  -5  -2    0.00    0.30
  -1  -5  -2    0.40    0.40
  -1  -5  -2    0.40    0.50
  -2  -5  -2   60.39    1.60
  -2  -5  -2   62.89    1.90
  -2  -5  -2   65.09    1.80
  -2  -5  -2   63.69    1.70
  -3  -5  -2   47.40    1.60
  -3  -5  -2   45.80    1.40
  -3  -5  -2   45.80    1.20
  -3  -5  -2   46.70    1.30
  -3  -5  -2   46.10    1.20
  -3  -5  -2   47.40    1.30
  -4  -5  -2   29.00    1.20
  -4  -5  -2   29.30    1.10
  -4  -5  -2   28.00    0.90
  -4  -5  -2   28.70    0.90
  -4  -5  -2   30.40    1.20
  -4  -5  -2   28.60    1.50
   4   5   2   28.40    0.90
   4   5   2   30.80    1.00
   4   5   2   28.10    0.90
  -5  -5  -2  151.18    3.80
  -5  -5  -2  158.48    3.90
  -5  -5  -2  153.38    3.70
  -5  -5  -2  157.48    3.50
  -5  -5  -2  155.38    3.30
  -5  -5  -2  156.68    3.80
   5   5   2  162.38    3.60
   5   5   2  154.48    3.50
   5   5   2  156.18    3.40
   5   5   2  155.68    3.40
   5   5   2  150.88    3.60
  -6  -5  -2    0.90    0.30
  -6  -5  -2    1.40    0.80
  -6  -5  -2    0.40    0.90
  -6  -5  -2    1.40    0.80
  -6  -5  -2    0.90    0.60
  -6  -5  -2    0.50    0.50
   6   5   2    0.90    0.40
   6   5   2    0.40    0.50
   6   5   2    0.10    0.60
   6   5   2    0.80    0.60
  -7  -5  -2    0.80    1.00
  -7  -5  -2    1.30    1.00
  -7  -5  -2    0.80    0.30
  -7  -5  -2   -0.30    0.70
  -7  -5  -2    1.20    0.80
  -7  -5  -2    1.10    1.00
   7   5   2    1.10    0.80
   7   5   2   -0.30    0.70
   7   5   2    0.90    0.50
   7   5   2    0.20    0.80
  -8  -5  -2   33.40    2.70
  -8  -5  -2   24.60    1.90
  -8  -5  -2   26.10    1.90
  -8  -5  -2   25.70    1.80
  -8  -5  -2   29.30    1.90
   8   5   2   28.20    1.40
   8   5   2   26.40    2.10
   8   5   2   28.50    2.30
   8   5   2   29.50    2.30
   8   5   2   30.20    2.60
  -9  -5  -2    2.40    1.70
  -9  -5  -2    5.70    2.30
  -9  -5  -2    3.00    1.30
   9   5   2    2.20    1.60
   9   5   2    3.10    1.00
   5  -6  -2    2.60    1.90
  -5   6   2    4.60    1.40
   4  -6  -2    7.70    1.50
   4  -6  -2    7.30    1.90
   4  -6  -2    9.20    1.20
   4  -6  -2    8.50    1.50
  -4   6   2    9.10    1.20
  -4   6   2    5.70    1.30
  -4   6   2    7.40    1.10
   3  -6  -2   70.39    2.70
   3  -6  -2   69.49    2.70
   3  -6  -2   68.49    2.70
   3  -6  -2   71.09    2.30
   3  -6  -2   65.69    3.10
   3  -6  -2   72.19    2.80
  -3   6   2   73.69    2.20
  -3   6   2   69.39    2.30
  -3   6   2   72.49    2.30
   2  -6  -2   31.20    1.70
   2  -6  -2   32.10    1.70
   2  -6  -2   33.90    1.80
   2  -6  -2   32.60    0.90
   2  -6  -2   31.90    2.30
   2  -6  -2   34.60    1.10
   2  -6  -2   34.60    1.70
  -2   6   2   35.40    1.20
  -2   6   2   29.30    1.20
  -2   6   2   34.60    1.50
   1  -6  -2   11.00    0.90
   1  -6  -2   10.90    1.10
   1  -6  -2   10.30    1.10
   1  -6  -2   11.50    1.10
   1  -6  -2   10.50    1.00
   1  -6  -2   11.70    0.60
   1  -6  -2   10.70    0.90
  -1   6   2   12.10    0.50
   0  -6  -2    8.40    0.70
   0  -6  -2    5.80    0.70
   0  -6  -2    6.30    0.60
   0  -6  -2    6.80    0.70
   0  -6  -2    6.70    0.70
   0  -6  -2    5.60    1.00
   0  -6  -2    6.50    0.50
   0  -6  -2    6.40    0.60
  -1  -6  -2   10.60    0.90
  -1  -6  -2   12.20    0.90
  -1  -6  -2   11.10    0.80
  -1  -6  -2   10.40    0.90
  -1  -6  -2   12.00    1.00
  -1  -6  -2   11.30    0.60
  -2  -6  -2    3.80    0.50
  -2  -6  -2    4.80    0.70
  -2  -6  -2    5.90    0.60
  -2  -6  -2    4.40    0.60
  -2  -6  -2    5.30    0.60
  -2  -6  -2    4.90    0.80
  -3  -6  -2   11.40    0.90
  -3  -6  -2   10.40    0.90
  -3  -6  -2   11.50    0.70
  -3  -6  -2   11.90    1.10
  -3  -6  -2   11.30    0.80
  -4  -6  -2   44.30    1.30
  -4  -6  -2   43.60    1.40
  -4  -6  -2   45.00    1.30
  -4  -6  -2   44.10    1.80
  -4  -6  -2   46.20    1.50
  -4  -6  -2   44.60    1.30
  -5  -6  -2    8.90    1.00
  -5  -6  -2    8.90    0.70
  -5  -6  -2    9.20    0.80
  -5  -6  -2    8.20    0.60
  -5  -6  -2    9.40    0.80
  -5  -6  -2    7.80    0.80
   5   6   2    9.40    0.60
   5   6   2    9.00    0.70
  -6  -6  -2    0.00    0.30
  -6  -6  -2    0.20    0.70
  -6  -6  -2   -0.20    0.50
  -6  -6  -2    0.90    1.00
  -6  -6  -2   -0.10    1.10
  -6  -6  -2   -0.90    0.80
   6   6   2   -0.10    0.30
   6   6   2    0.30    0.50
   6   6   2    0.50    0.30
   6   6   2   -0.20    0.70
   6   6   2    0.70    0.50
  -7  -6  -2    8.20    1.00
  -7  -6  -2    6.00    1.10
  -7  -6  -2    8.80    0.90
  -7  -6  -2    7.40    1.10
  -7  -6  -2    9.00    1.40
  -7  -6  -2    8.00    0.60
   7   6   2    7.30    0.70
   7   6   2    7.10    0.70
   7   6   2    8.40    0.90
   7   6   2    7.10    1.00
   7   6   2    7.40    0.70
  -8  -6  -2   17.90    1.90
  -8  -6  -2   16.90    1.30
  -8  -6  -2   18.10    1.50
   8   6   2   17.20    1.90
   8   6   2   16.80    1.70
   8   6   2   17.20    1.50
   8   6   2   14.00    1.30
  -9  -6  -2    3.30    1.40
  -9  -6  -2    0.70    1.60
   9   6   2    3.00    0.90
   9   6   2    4.70    1.50
  -4   7   2    2.20    1.30
   3  -7  -2   30.40    2.80
   3  -7  -2   25.20    2.30
   3  -7  -2   25.10    2.00
   3  -7  -2   26.10    2.30
  -3   7   2   26.70    1.40
  -3   7   2   25.40    1.50
   2  -7  -2    0.80    0.30
   2  -7  -2    1.00    0.90
   2  -7  -2    0.80    0.90
   2  -7  -2    1.00    0.90
   2  -7  -2    0.70    1.10
  -2   7   2    0.70    0.40
   1  -7  -2   10.20    0.90
   1  -7  -2    9.10    0.80
   1  -7  -2    9.90    1.10
   1  -7  -2    7.50    1.40
   1  -7  -2    9.40    0.90
   1  -7  -2    8.90    0.90
   1  -7  -2    9.00    0.70
   1  -7  -2    9.30    0.70
   0  -7  -2    9.20    0.90
   0  -7  -2    8.10    0.90
   0  -7  -2    8.70    1.30
   0  -7  -2    7.60    0.80
   0  -7  -2    8.70    0.80
   0  -7  -2    9.60    0.80
   0  -7  -2    8.30    0.80
   0  -7  -2    8.50    1.20
  -1  -7  -2   11.20    0.90
  -1  -7  -2   11.90    0.90
  -1  -7  -2   14.40    1.20
  -1  -7  -2   11.90    0.90
  -1  -7  -2   13.50    0.60
  -1  -7  -2   12.30    1.30
  -2  -7  -2    0.40    0.50
  -2  -7  -2   -0.10    0.60
  -2  -7  -2    1.10    0.90
  -2  -7  -2   -0.20    0.70
  -2  -7  -2    0.30    0.50
  -2  -7  -2   -0.50    0.60
  -2  -7  -2    1.00    0.60
  -3  -7  -2    1.50    0.70
  -3  -7  -2    0.60    0.50
  -3  -7  -2    0.70    0.60
  -3  -7  -2    0.70    0.70
  -3  -7  -2   -0.50    0.80
  -3  -7  -2    0.10    0.50
  -4  -7  -2    5.00    0.70
  -4  -7  -2    4.20    0.50
  -4  -7  -2    5.40    0.90
  -4  -7  -2    4.60    1.00
  -4  -7  -2    5.60    0.50
  -5  -7  -2    2.40    0.60
  -5  -7  -2    2.60    0.40
  -5  -7  -2    2.10    0.50
  -5  -7  -2    3.10    1.10
  -5  -7  -2    1.10    1.30
  -5  -7  -2    2.40    0.70
  -6  -7  -2    3.50    1.00
  -6  -7  -2    3.10    0.40
  -6  -7  -2    4.70    1.40
  -6  -7  -2    3.90    0.80
  -6  -7  -2    2.20    0.90
   6   7   2    2.30    0.40
   6   7   2    2.20    0.50
  -7  -7  -2    6.40    2.40
  -7  -7  -2    5.20    1.00
  -7  -7  -2    8.20    1.40
  -7  -7  -2    7.20    0.70
  -7  -7  -2    7.00    0.90
  -7  -7  -2    6.50    2.00
   7   7   2    6.30    0.80
   7   7   2    5.80    0.80
  -8  -7  -2    3.20    1.30
  -8  -7  -2    2.90    1.20
  -8  -7  -2    2.10    1.80
   8   7   2    0.80    0.80
   8   7   2    2.10    0.70
   8   7   2    2.10    1.00
   8   7   2    2.00    1.00
  -9  -7  -2    9.00    1.70
   9   7   2    8.90    1.10
   9   7   2    8.60    1.60
   2  -8  -2   11.40    1.30
   2  -8  -2   10.50    1.60
   2  -8  -2    9.20    1.70
   1  -8  -2    1.10    0.90
   1  -8  -2    0.50    0.40
   1  -8  -2   -0.10    0.80
   1  -8  -2   -0.80    1.10
   1  -8  -2    1.70    0.70
   1  -8  -2    0.30    1.20
   0  -8  -2    7.60    0.60
   0  -8  -2    4.30    1.60
   0  -8  -2    8.30    0.70
   0  -8  -2    9.30    0.90
   0  -8  -2    6.40    1.10
   0  -8  -2    7.20    0.50
   0  -8  -2    7.90    1.10
   0  -8  -2    7.40    0.60
  -1  -8  -2    2.00    1.40
  -1  -8  -2    0.50    1.00
  -1  -8  -2    2.40    0.90
  -1  -8  -2    1.50    0.60
  -1  -8  -2    0.80    0.80
  -1  -8  -2   -0.90    0.90
  -1  -8  -2    0.90    0.30
  -2  -8  -2    1.60    0.70
  -2  -8  -2    0.10    0.90
  -2  -8  -2    1.30    0.90
  -2  -8  -2    1.10    1.20
  -2  -8  -2    0.50    0.70
  -2  -8  -2   -0.80    0.70
  -3  -8  -2    5.80    1.20
  -3  -8  -2    3.40    0.70
  -3  -8  -2    4.90    0.80
  -3  -8  -2    4.40    1.30
  -3  -8  -2    4.70    1.00
  -3  -8  -2    6.00    1.10
  -3  -8  -2    4.60    0.80
  -4  -8  -2   19.80    1.20
  -4  -8  -2   19.30    1.30
  -4  -8  -2   18.90    1.20
  -4  -8  -2   20.70    1.70
  -4  -8  -2   18.50    1.40
  -4  -8  -2   20.10    1.40
  -4  -8  -2   17.60    1.40
  -5  -8  -2   11.50    1.10
  -5  -8  -2   10.70    0.80
  -5  -8  -2   11.70    1.10
  -5  -8  -2   11.00    1.40
  -5  -8  -2   12.00    1.00
  -5  -8  -2   11.40    1.20
  -5  -8  -2   11.10    1.00
  -6  -8  -2   10.70    1.00
  -6  -8  -2   11.80    1.20
  -6  -8  -2    9.70    1.70
  -6  -8  -2   11.70    0.80
  -6  -8  -2   11.80    1.10
  -6  -8  -2   13.50    1.30
  -6  -8  -2   11.60    0.90
  -7  -8  -2   30.20    2.30
  -7  -8  -2   29.90    1.10
  -7  -8  -2   33.50    1.90
  -7  -8  -2   31.40    2.00
  -7  -8  -2   32.70    2.70
  -8  -8  -2   27.10    2.50
   8   8   2   25.10    1.70
   1  -9  -2   36.00    2.00
   1  -9  -2   36.80    3.10
   1  -9  -2   37.50    3.70
   0  -9  -2   20.20    1.70
   0  -9  -2   18.50    1.10
   0  -9  -2   16.60    1.70
   0  -9  -2   18.90    1.90
   0  -9  -2   17.90    1.20
  -1  -9  -2    2.50    1.20
  -1  -9  -2    5.80    1.30
  -1  -9  -2    2.20    1.20
  -1  -9  -2    3.00    0.40
  -1  -9  -2    2.40    0.70
  -1  -9  -2    3.00    1.40
  -1  -9  -2    3.50    1.30
  -2  -9  -2    8.00    1.20
  -2  -9  -2   10.00    1.20
  -2  -9  -2    9.40    1.40
  -2  -9  -2    8.80    1.10
  -2  -9  -2    9.60    1.00
  -2  -9  -2    6.80    1.80
  -2  -9  -2    9.10    1.30
  -3  -9  -2    5.00    1.40
  -3  -9  -2    5.90    1.30
  -3  -9  -2    4.80    1.00
  -3  -9  -2    4.60    0.90
  -3  -9  -2    7.30    1.70
  -3  -9  -2    5.70    1.10
  -3  -9  -2    4.50    1.00
  -3  -9  -2    5.50    1.00
  -4  -9  -2    0.60    1.40
  -4  -9  -2    0.70    0.80
  -4  -9  -2    2.70    1.40
  -4  -9  -2    1.20    0.90
  -4  -9  -2    1.00    0.80
  -4  -9  -2    0.80    0.80
  -4  -9  -2    3.40    1.70
  -5  -9  -2    1.20    1.40
  -5  -9  -2    0.70    0.80
  -5  -9  -2    1.60    1.10
  -5  -9  -2    0.60    0.70
  -5  -9  -2    0.10    0.80
  -6  -9  -2    8.40    1.10
  -6  -9  -2    8.20    1.40
  -6  -9  -2    8.70    1.00
  -6  -9  -2    8.40    0.80
  -6  -9  -2    6.40    1.60
  -7  -9  -2   11.30    0.80
  -7  -9  -2   12.30    1.70
  -2 -10  -2    8.20    1.40
  -2 -10  -2   10.20    1.60
  -2 -10  -2   11.50    1.20
  -2 -10  -2   10.40    1.70
  -3 -10  -2   15.20    2.00
  -3 -10  -2   15.20    1.40
  -3 -10  -2   13.70    1.50
  -3 -10  -2   14.20    1.40
  -3 -10  -2   17.30    1.60
  -3 -10  -2   15.50    1.60
  -4 -10  -2    5.70    1.20
  -4 -10  -2    3.60    1.40
  -4 -10  -2    4.30    1.10
  -4 -10  -2    2.70    2.80
  -4 -10  -2    2.90    1.30
  -4 -10  -2    2.10    1.30
  -5 -10  -2   26.80    1.80
  -5 -10  -2   25.10    2.50
  -5 -10  -2   30.20    2.60
  -6 -10  -2    2.10    1.50
  -6 -10  -2    2.10    0.90
  -4 -10   3   58.89    3.50
  -4 -10   3   62.79    2.80
  -3 -10   3    1.30    1.20
  -3 -10   3    4.30    2.70
  -3 -10   3    2.00    1.40
  -2 -10   3   16.90    1.70
  -2 -10   3   17.10    1.30
  -6  -9   3   22.30    1.80
  -6  -9   3   18.10    1.70
  -5  -9   3    1.20    1.30
  -5  -9   3    1.60    1.50
  -5  -9   3   -1.70    0.80
  -4  -9   3   10.20    1.50
  -4  -9   3    8.90    1.10
  -4  -9   3   12.70    1.40
  -4  -9   3   11.60    1.40
  -3  -9   3   -0.20    1.00
  -3  -9   3    1.80    0.50
  -3  -9   3    0.70    1.10
  -3  -9   3    1.10    0.90
  -3  -9   3    1.40    0.50
  -2  -9   3  110.39    3.00
  -2  -9   3  115.99    2.80
  -2  -9   3  112.79    2.90
  -2  -9   3  114.49    3.20
  -2  -9   3  117.59    3.40
  -2  -9   3  110.89    2.90
  -1  -9   3   29.80    1.70
  -1  -9   3   31.40    1.60
  -1  -9   3   30.80    1.70
  -1  -9   3   30.30    1.40
  -1  -9   3   31.40    2.30
   0  -9   3    7.60    1.50
   0  -9   3    8.00    1.20
   0  -9   3    8.00    0.80
   0  -9   3    7.00    1.10
   1  -9   3    1.50    1.30
   1  -9   3    0.20    1.60
   1  -9   3    0.70    0.90
   7   8  -3   17.90    1.60
   7   8  -3   19.90    1.70
   7   8  -3   20.80    1.50
  -7  -8   3   20.30    1.60
  -7  -8   3   19.20    1.70
   6   8  -3   42.50    1.70
   6   8  -3   43.30    2.10
  -6  -8   3   41.30    2.30
  -6  -8   3   39.70    3.10
  -6  -8   3   42.20    1.80
   5   8  -3    0.90    0.70
   5   8  -3    1.60    0.60
  -5  -8   3    1.40    1.20
  -5  -8   3    0.40    1.10
  -5  -8   3   -0.10    0.60
  -5  -8   3   -0.20    0.90
  -4  -8   3    1.10    0.90
  -4  -8   3    0.80    1.00
  -4  -8   3    0.40    0.70
  -4  -8   3    1.00    0.80
  -4  -8   3   -0.70    1.20
  -4  -8   3   -0.40    0.70
  -3  -8   3    1.50    0.70
  -3  -8   3    1.00    0.30
  -3  -8   3    2.00    1.10
  -3  -8   3    1.20    0.50
  -3  -8   3    1.50    0.70
  -3  -8   3    0.20    0.70
  -3  -8   3    1.60    0.90
  -3  -8   3    1.40    0.40
  -2  -8   3   56.79    2.50
  -2  -8   3   52.59    1.70
  -2  -8   3   53.99    1.60
  -2  -8   3   49.00    1.90
  -2  -8   3   54.59    2.10
  -2  -8   3   52.09    1.60
  -2  -8   3   53.89    1.90
  -2  -8   3   54.19    1.50
  -1  -8   3    5.00    1.00
  -1  -8   3    4.20    0.60
  -1  -8   3    5.40    0.70
  -1  -8   3    4.20    0.70
  -1  -8   3    3.90    0.90
  -1  -8   3    4.80    0.70
  -1  -8   3    5.20    1.20
   0  -8   3   25.10    1.30
   0  -8   3   25.80    2.80
   0  -8   3   25.20    2.00
   0  -8   3   26.10    1.10
   0  -8   3   27.20    1.60
   0  -8   3   26.40    1.30
   0  -8   3   23.80    2.20
   0  -8   3   24.60    1.00
   1  -8   3   57.29    2.30
   1  -8   3   53.49    2.10
   1  -8   3   57.49    2.70
   1  -8   3   55.59    1.90
  -2   8  -3    1.80    0.80
  -2   8  -3    1.60    0.60
   2  -8   3    0.00    1.20
   2  -8   3    1.30    1.30
   2  -8   3    2.10    1.00
  -3   8  -3    0.60    1.10
  -3   8  -3   -1.30    1.70
  -3   8  -3   -0.70    0.80
   3  -8   3   -1.30    1.40
   8   7  -3    3.10    1.60
   8   7  -3    3.00    1.70
   8   7  -3    2.50    1.90
  -8  -7   3    2.10    1.40
  -8  -7   3    2.40    0.90
   7   7  -3   36.80    2.50
   7   7  -3   36.10    2.90
   7   7  -3   34.30    2.00
   7   7  -3   28.70    2.20
  -7  -7   3   39.80    2.40
  -7  -7   3   30.30    3.10
  -7  -7   3   28.10    2.60
   6   7  -3    2.70    1.30
   6   7  -3    2.50    1.00
   6   7  -3    4.90    0.80
   6   7  -3    3.30    1.10
   6   7  -3    2.50    1.00
   6   7  -3    3.90    0.70
  -6  -7   3    4.80    1.30
  -6  -7   3    4.00    1.00
  -6  -7   3    4.00    0.70
  -6  -7   3    3.00    1.20
   5   7  -3    0.20    1.00
   5   7  -3   -0.30    0.70
   5   7  -3   -0.10    0.50
   5   7  -3    1.00    0.40
   5   7  -3    0.10    0.60
  -5  -7   3   -0.70    0.60
  -5  -7   3   -0.60    1.00
  -5  -7   3    0.30    0.50
  -5  -7   3    0.00    0.90
  -5  -7   3    0.20    0.80
  -5  -7   3    0.70    1.00
   4   7  -3    0.40    0.60
   4   7  -3   -0.60    0.90
   4   7  -3    0.40    0.50
  -4  -7   3    0.00    0.50
  -4  -7   3   -0.20    0.60
  -4  -7   3   -0.30    0.50
  -4  -7   3   -0.30    0.70
  -4  -7   3   -0.70    0.90
  -4  -7   3    0.00    0.90
   3   7  -3   83.99    2.60
   3   7  -3   92.99    2.10
   3   7  -3   86.19    2.20
  -3  -7   3   88.19    1.90
  -3  -7   3   91.29    2.40
  -3  -7   3   89.09    2.40
  -3  -7   3   89.59    2.00
  -3  -7   3   90.99    2.70
  -3  -7   3   87.99    2.50
  -3  -7   3   85.39    2.30
  -3  -7   3   80.19    2.40
   2   7  -3    1.20    0.30
   2   7  -3    1.30    0.40
  -2  -7   3    2.40    0.80
  -2  -7   3    1.40    0.60
  -2  -7   3    1.00    0.40
  -2  -7   3    1.00    0.40
  -2  -7   3    0.30    0.60
  -2  -7   3    1.20    0.50
  -2  -7   3    0.70    0.50
   1   7  -3   98.19    2.20
  -1  -7   3   93.99    2.60
  -1  -7   3   93.29    3.10
  -1  -7   3  101.79    2.50
  -1  -7   3  102.39    2.90
  -1  -7   3  100.29    2.50
  -1  -7   3   97.89    2.60
  -1  -7   3  103.29    2.50
   0   7  -3    0.40    0.50
   0  -7   3    0.30    0.40
   0  -7   3    0.30    0.60
   0  -7   3    0.60    0.90
   0  -7   3   -0.10    0.40
   0  -7   3    0.40    0.70
   0  -7   3   -0.30    0.80
   0  -7   3    0.30    0.50
  -1   7  -3   23.50    1.30
  -1   7  -3   24.30    1.00
   1  -7   3   24.70    1.80
   1  -7   3   26.40    2.00
   1  -7   3   25.50    2.00
   1  -7   3   25.00    1.30
   1  -7   3   23.20    1.50
   1  -7   3   23.20    1.80
   1  -7   3   25.60    1.70
  -2   7  -3    0.00    0.50
  -2   7  -3   -0.60    1.00
  -2   7  -3    0.40    0.80
   2  -7   3    0.10    0.70
   2  -7   3    0.40    1.10
   2  -7   3    0.50    0.90
   2  -7   3   -0.30    2.20
   2  -7   3    0.40    1.70
   2  -7   3    0.60    1.10
   2  -7   3   -0.40    0.80
  -3   7  -3    2.40    1.20
  -3   7  -3    0.40    0.70
  -3   7  -3    2.10    1.10
   3  -7   3    1.80    1.20
   3  -7   3    1.20    1.10
   3  -7   3    2.40    1.20
   3  -7   3    0.80    1.00
  -4   7  -3    0.30    2.20
  -4   7  -3    1.70    1.00
  -4   7  -3    1.00    1.50
   4  -7   3    0.40    1.70
   4  -7   3   -0.20    1.30
   4  -7   3   -0.30    1.30
   8   6  -3    3.20    1.80
   8   6  -3    4.90    1.20
   8   6  -3    4.00    1.70
   8   6  -3    6.20    0.60
  -8  -6   3    5.60    1.30
  -8  -6   3    6.80    1.10
   7   6  -3   25.10    1.90
   7   6  -3   26.10    2.20
   7   6  -3   23.10    1.80
   7   6  -3   25.00    1.70
   7   6  -3   30.70    2.50
  -7  -6   3   25.50    1.40
  -7  -6   3   26.80    1.90
  -7  -6   3   23.30    2.20
  -7  -6   3   24.50    2.00
   6   6  -3   11.50    1.00
   6   6  -3   10.50    1.10
   6   6  -3   12.30    1.30
   6   6  -3   11.20    1.30
   6   6  -3   12.00    1.00
  -6  -6   3   12.00    1.00
  -6  -6   3   10.00    1.20
  -6  -6   3   10.30    1.00
  -6  -6   3   12.10    1.30
  -6  -6   3   11.10    1.10
   5   6  -3    2.00    0.70
   5   6  -3    2.30    0.50
   5   6  -3    1.30    0.80
   5   6  -3    1.70    0.60
  -5  -6   3    2.00    0.50
  -5  -6   3    1.30    0.90
  -5  -6   3    1.90    0.80
  -5  -6   3    2.00    0.80
  -5  -6   3    0.70    0.70
   4   6  -3    1.40    0.50
   4   6  -3    0.90    0.60
   4   6  -3    1.50    0.40
   4   6  -3    2.00    0.70
   4   6  -3    2.40    0.70
  -4  -6   3    1.20    0.40
  -4  -6   3    3.20    0.70
  -4  -6   3    0.80    0.70
  -4  -6   3    1.70    0.50
  -4  -6   3    1.90    0.60
   3   6  -3    1.50    0.50
   3   6  -3    0.80    0.70
   3   6  -3    1.60    0.40
   3   6  -3    1.40    0.30
  -3  -6   3    2.60    0.70
  -3  -6   3    1.20    0.50
  -3  -6   3    1.70    0.60
  -3  -6   3    1.30    0.40
  -3  -6   3    2.00    0.40
  -3  -6   3    1.70    0.40
   2   6  -3   -0.10    0.50
   2   6  -3    0.10    0.40
   2   6  -3    0.30    0.30
  -2  -6   3   -0.10    0.30
  -2  -6   3   -0.60    0.40
  -2  -6   3   -0.10    0.40
  -2  -6   3    0.20    0.40
  -2  -6   3    0.30    0.40
  -2  -6   3    0.20    0.20
  -2  -6   3    0.00    0.30
  -2  -6   3    0.70    0.60
   1   6  -3    9.50    0.60
   1   6  -3    9.40    0.80
  -1  -6   3    9.70    0.70
  -1  -6   3   10.50    0.80
  -1  -6   3   10.00    0.60
  -1  -6   3    7.60    0.70
  -1  -6   3    8.70    0.80
  -1  -6   3   10.00    0.90
  -1  -6   3    9.60    0.70
   0   6  -3    4.40    0.60
   0  -6   3    4.90    0.60
   0  -6   3    4.90    0.50
   0  -6   3    4.40    0.70
   0  -6   3    4.70    0.50
   0  -6   3    4.10    0.70
   0  -6   3    5.30    0.70
   0  -6   3    4.60    0.40
  -1   6  -3    1.40    0.60
  -1   6  -3    0.00    0.40
  -1   6  -3    1.10    0.70
   1  -6   3    0.70    0.20
   1  -6   3    0.20    0.70
   1  -6   3    0.10    0.40
   1  -6   3    0.00    0.50
   1  -6   3    0.90    0.80
   1  -6   3    0.90    0.80
   1  -6   3    1.10    0.20
   1  -6   3    0.30    0.50
  -2   6  -3  132.69    3.50
  -2   6  -3  132.99    3.50
  -2   6  -3  133.79    3.20
   2  -6   3  133.49    3.40
   2  -6   3  130.19    3.80
   2  -6   3  133.49    4.10
   2  -6   3  135.19    3.50
   2  -6   3  132.09    3.50
   2  -6   3  135.19    3.70
   2  -6   3  135.79    3.40
  -3   6  -3    1.10    0.70
  -3   6  -3   -0.70    0.90
  -3   6  -3    1.80    1.00
  -3   6  -3    0.60    1.10
   3  -6   3    0.80    0.80
   3  -6   3    0.20    1.40
   3  -6   3    1.20    0.90
   3  -6   3    1.40    1.30
   3  -6   3    1.70    0.80
   3  -6   3   -0.90    0.90
   3  -6   3    1.30    1.10
  -4   6  -3    6.10    1.30
  -4   6  -3    5.00    1.20
  -4   6  -3    6.00    1.00
   4  -6   3    2.70    1.40
   4  -6   3    5.70    1.50
   4  -6   3    3.80    1.20
   4  -6   3    3.00    1.20
   4  -6   3    4.80    1.10
  -5   6  -3    3.70    1.50
  -5   6  -3    5.00    1.30
   5  -6   3    4.50    1.60
   5  -6   3    3.50    1.40
   5  -6   3    3.90    1.70
   9   5  -3   83.99    4.20
   9   5  -3   90.39    4.90
  -9  -5   3   88.19    3.50
  -9  -5   3   86.59    3.10
   8   5  -3   39.40    1.40
   8   5  -3   39.00    2.00
   8   5  -3   37.00    3.00
   8   5  -3   44.20    3.30
  -8  -5   3   39.90    2.30
  -8  -5   3   37.40    1.90
  -8  -5   3   40.70    1.90
  -8  -5   3   41.00    3.50
   7   5  -3   14.60    1.50
   7   5  -3   18.20    0.80
   7   5  -3   18.00    1.70
   7   5  -3   15.30    1.50
   7   5  -3   17.80    1.30
  -7  -5   3   19.80    1.50
  -7  -5   3   14.00    1.20
  -7  -5   3   19.20    1.80
  -7  -5   3   16.50    1.20
  -7  -5   3   15.90    1.10
  -7  -5   3   19.50    2.10
   6   5  -3  138.19    3.40
   6   5  -3  143.79    3.10
   6   5  -3  139.89    3.50
   6   5  -3  146.39    3.70
   6   5  -3  137.69    3.90
   6   5  -3  144.99    4.00
  -6  -5   3  144.19    3.70
  -6  -5   3  133.99    3.70
  -6  -5   3  141.69    3.80
  -6  -5   3  139.49    3.10
  -6  -5   3  142.79    4.00
  -6  -5   3  140.79    3.30
   5   5  -3   75.29    2.20
   5   5  -3   76.89    2.40
   5   5  -3   79.49    2.10
   5   5  -3   80.59    2.50
   5   5  -3   81.89    2.60
  -5  -5   3   82.29    2.40
  -5  -5   3   79.99    2.60
  -5  -5   3   82.69    2.40
  -5  -5   3   78.69    2.30
  -5  -5   3   81.09    2.10
   4   5  -3   -0.20    0.30
   4   5  -3   -0.30    0.50
   4   5  -3    0.50    0.50
   4   5  -3    0.20    0.60
   4   5  -3    0.00    0.40
  -4  -5   3    0.30    0.30
  -4  -5   3    0.60    0.50
  -4  -5   3   -0.10    0.40
  -4  -5   3   -0.50    0.50
  -4  -5   3    0.50    0.40
   3   5  -3   49.20    1.70
   3   5  -3   50.39    1.60
   3   5  -3   49.20    1.40
   3   5  -3   45.70    1.50
   3   5  -3   49.70    1.30
  -3  -5   3   47.70    1.40
  -3  -5   3   49.00    1.60
  -3  -5   3   48.00    1.60
  -3  -5   3   49.40    1.50
  -3  -5   3   50.99    1.60
   2   5  -3   22.30    0.80
   2   5  -3   22.60    1.20
   2   5  -3   22.50    0.70
   2   5  -3   21.60    0.90
   2   5  -3   22.40    1.10
  -2  -5   3   22.50    0.60
  -2  -5   3   21.80    0.80
  -2  -5   3   22.40    1.00
  -2  -5   3   22.90    0.90
  -2  -5   3   21.50    0.90
  -2  -5   3   21.50    0.60
   1   5  -3   37.50    1.00
   1   5  -3   37.10    1.30
   1   5  -3   35.40    1.10
   1   5  -3   38.70    1.20
  -1  -5   3   37.80    1.10
  -1  -5   3   35.90    1.30
  -1  -5   3   34.20    1.50
  -1  -5   3   36.90    1.10
  -1  -5   3   36.50    1.10
  -1  -5   3   36.50    1.00
   0   5  -3    1.40    0.30
   0   5  -3    0.80    0.50
   0   5  -3    0.50    0.40
   0  -5   3    0.80    0.30
   0  -5   3    1.70    0.50
   0  -5   3    1.00    0.30
   0  -5   3    1.30    0.40
   0  -5   3    1.00    0.40
   0  -5   3    1.30    0.50
   0  -5   3    0.70    0.30
  -1   5  -3    5.10    0.60
  -1   5  -3    7.90    0.70
  -1   5  -3    6.50    0.60
  -1   5  -3    6.50    0.70
   1  -5   3    6.70    0.30
   1  -5   3    6.90    0.60
   1  -5   3    4.70    0.60
   1  -5   3    6.20    0.70
   1  -5   3    6.70    0.60
   1  -5   3    6.40    0.70
   1  -5   3    6.40    0.70
  -2   5  -3    7.80    0.80
  -2   5  -3    8.30    0.80
  -2   5  -3    7.30    0.80
  -2   5  -3    7.20    0.80
   2  -5   3    9.60    0.80
   2  -5   3    6.70    0.70
   2  -5   3    6.90    0.70
   2  -5   3    7.50    0.90
   2  -5   3    7.10    0.70
   2  -5   3    6.60    0.90
  -3   5  -3   21.30    1.40
  -3   5  -3   20.30    1.60
  -3   5  -3   21.50    1.60
   3  -5   3   21.40    1.40
   3  -5   3   21.30    1.90
   3  -5   3   19.30    1.40
   3  -5   3   21.50    1.40
   3  -5   3   20.50    1.50
   3  -5   3   21.70    1.50
   3  -5   3   21.00    1.60
  -4   5  -3    3.00    0.90
  -4   5  -3    1.30    0.80
  -4   5  -3    2.60    1.10
  -4   5  -3    1.40    1.10
   4  -5   3    2.40    0.90
   4  -5   3    3.20    0.90
   4  -5   3    1.90    0.90
   4  -5   3    3.90    1.30
   4  -5   3    3.30    0.90
   4  -5   3    3.00    1.30
  -5   5  -3   -2.10    1.40
  -5   5  -3   -0.10    1.10
  -5   5  -3    0.80    1.00
   5  -5   3   -0.70    1.30
   5  -5   3    1.70    2.50
   5  -5   3    0.20    1.30
   5  -5   3    0.20    1.20
   5  -5   3   -0.30    1.10
  -6   5  -3   -2.20    1.40
  -6   5  -3   -1.20    1.40
   6  -5   3   -1.30    1.70
   6  -5   3    0.40    1.40
   6  -5   3   -0.20    1.60
   9   4  -3   22.20    2.90
   9   4  -3   20.20    2.20
  -9  -4   3   19.20    1.70
  -9  -4   3   19.90    1.80
   8   4  -3   -0.20    0.90
   8   4  -3    1.20    1.20
   8   4  -3    1.00    1.40
   8   4  -3   -0.80    1.60
   8   4  -3   -0.40    0.60
  -8  -4   3   -0.60    1.00
  -8  -4   3    0.70    1.60
  -8  -4   3    1.20    1.10
  -8  -4   3    0.60    1.70
  -8  -4   3    0.10    1.00
   7   4  -3    0.50    0.90
   7   4  -3    0.30    0.50
   7   4  -3    0.60    0.60
   7   4  -3    0.90    0.90
   7   4  -3    0.90    1.10
   7   4  -3   -0.20    1.20
  -7  -4   3   -0.90    1.00
  -7  -4   3   -0.30    1.20
  -7  -4   3    0.60    0.60
  -7  -4   3    0.00    1.00
  -7  -4   3    1.00    0.70
  -7  -4   3    0.20    0.80
   6   4  -3  324.97    8.50
   6   4  -3  362.86    8.00
   6   4  -3  369.36    7.80
   6   4  -3  366.86    8.50
   6   4  -3  363.66    7.60
   6   4  -3  370.76    8.20
  -6  -4   3  361.76    8.00
  -6  -4   3  365.16    8.30
  -6  -4   3  361.26    7.80
  -6  -4   3  360.56    7.70
  -6  -4   3  363.36    8.00
  -6  -4   3  375.46    8.50
   5   4  -3   83.59    2.60
   5   4  -3   83.09    1.80
   5   4  -3   80.69    2.50
   5   4  -3   80.09    2.20
   5   4  -3   80.29    2.10
  -5  -4   3   83.79    2.40
  -5  -4   3   83.79    2.10
  -5  -4   3   81.79    2.30
  -5  -4   3   79.39    2.50
  -5  -4   3   83.79    2.60
  -5  -4   3   80.89    1.90
   4   4  -3   50.09    1.80
   4   4  -3   50.99    1.50
   4   4  -3   53.39    1.60
   4   4  -3   48.90    1.70
   4   4  -3   50.59    1.40
  -4  -4   3   52.89    1.60
  -4  -4   3   49.40    1.70
  -4  -4   3   50.39    1.40
  -4  -4   3   50.39    1.10
  -4  -4   3   50.49    1.60
   3   4  -3   85.19    2.50
   3   4  -3   95.79    2.50
   3   4  -3  103.09    2.40
   3   4  -3   97.29    2.50
   3   4  -3   99.89    2.30
  -3  -4   3   97.99    2.30
  -3  -4   3   98.09    2.40
  -3  -4   3   95.19    2.50
  -3  -4   3   97.49    2.40
  -3  -4   3   99.09    2.40
   2   4  -3   94.99    2.40
   2   4  -3   99.09    2.30
   2   4  -3   99.39    2.50
   2   4  -3  100.89    2.50
   2   4  -3   96.69    2.40
  -2  -4   3  101.19    2.40
  -2  -4   3   96.89    2.40
  -2  -4   3   95.49    2.30
  -2  -4   3  100.79    2.50
  -2  -4   3  100.19    2.40
  -2  -4   3  101.39    2.30
   1   4  -3   17.60    0.70
   1   4  -3   15.30    0.70
   1   4  -3   17.00    0.90
   1   4  -3   16.90    0.80
   1   4  -3   16.30    0.70
  -1  -4   3   17.20    0.80
  -1  -4   3   16.40    0.80
  -1  -4   3   16.30    0.70
  -1  -4   3   16.80    0.60
  -1  -4   3   16.30    0.70
  -1  -4   3   16.40    0.50
  -1  -4   3   17.30    0.70
   0   4  -3  302.67    6.50
   0   4  -3  315.67    6.60
   0   4  -3  304.97    6.70
   0   4  -3  311.77    6.50
   0   4  -3  310.67    6.60
   0   4  -3  306.87    6.50
   0  -4   3  303.07    6.50
   0  -4   3  302.97    6.60
   0  -4   3  305.07    6.40
   0  -4   3  301.27    6.70
   0  -4   3  303.77    6.60
   0  -4   3  302.67    6.50
   0  -4   3  310.77    6.70
  -1   4  -3  310.67    6.80
  -1   4  -3  308.77    6.70
  -1   4  -3  314.97    6.90
  -1   4  -3  325.17    6.80
   1  -4   3  308.07    6.80
   1  -4   3  314.37    6.90
   1  -4   3  307.47    6.80
   1  -4   3  310.07    6.90
   1  -4   3  320.77    6.80
   1  -4   3  313.97    6.70
   1  -4   3  299.47    6.40
  -2   4  -3   28.90    1.10
  -2   4  -3   28.80    1.20
  -2   4  -3   27.10    1.40
  -2   4  -3   30.60    1.30
   2  -4   3   28.90    1.60
   2  -4   3   29.30    1.20
   2  -4   3   28.40    1.20
   2  -4   3   31.30    1.20
   2  -4   3   29.10    1.30
  -3   4  -3   14.50    1.30
  -3   4  -3   15.70    1.10
  -3   4  -3   13.90    1.20
  -3   4  -3   14.60    1.10
   3  -4   3   14.80    1.20
   3  -4   3   14.00    1.10
   3  -4   3   17.50    1.20
   3  -4   3   16.80    1.10
   3  -4   3   16.40    1.50
   3  -4   3   17.20    1.50
  -4   4  -3  117.99    3.40
  -4   4  -3  118.99    3.30
  -4   4  -3  117.99    3.20
  -4   4  -3  125.89    3.50
   4  -4   3  124.09    3.50
   4  -4   3  121.39    3.20
   4  -4   3  124.99    3.20
   4  -4   3  116.59    3.40
   4  -4   3  119.89    3.70
   4  -4   3  121.99    3.40
  -5   4  -3    2.00    0.90
  -5   4  -3    1.00    0.90
  -5   4  -3    1.20    1.10
   5  -4   3    1.30    1.40
   5  -4   3    0.10    0.90
   5  -4   3    1.40    1.10
   5  -4   3    1.10    1.10
   5  -4   3   -1.20    0.80
   5  -4   3   -0.30    1.00
  -6   4  -3   21.50    2.40
  -6   4  -3   17.10    1.40
  -6   4  -3   20.60    2.00
   6  -4   3   13.60    2.10
   6  -4   3   18.40    1.70
   6  -4   3   19.90    1.50
   6  -4   3   24.30    2.60
   6  -4   3   20.30    1.90
  -7   4  -3    1.40    1.50
  -7   4  -3    5.30    1.90
   7  -4   3    4.70    2.10
   7  -4   3    5.00    1.90
   9   3  -3    4.60    2.60
   9   3  -3    1.70    1.80
   9   3  -3    0.30    1.00
  -9  -3   3   -0.10    1.30
  -9  -3   3   -0.40    1.50
   8   3  -3   17.60    1.50
   8   3  -3   16.40    2.10
   8   3  -3   15.10    1.10
   8   3  -3   19.10    1.90
   8   3  -3   16.50    1.60
  -8  -3   3   15.20    2.10
  -8  -3   3   17.50    1.80
  -8  -3   3   14.40    1.50
  -8  -3   3   15.00    1.80
  -8  -3   3   15.80    1.40
   7   3  -3   28.00    2.60
   7   3  -3   31.70    1.40
   7   3  -3   33.00    2.20
   7   3  -3   31.60    1.30
   7   3  -3   31.50    2.00
  -7  -3   3   33.40    1.60
  -7  -3   3   30.50    1.60
  -7  -3   3   30.60    1.70
  -7  -3   3   29.20    1.60
  -7  -3   3   29.50    2.60
  -7  -3   3   33.70    2.20
   6   3  -3    2.50    0.40
   6   3  -3    2.20    1.00
   6   3  -3    1.70    0.70
   6   3  -3    3.00    0.50
   6   3  -3    2.10    0.80
   6   3  -3    1.90    0.70
  -6  -3   3    2.40    0.80
  -6  -3   3    2.00    0.70
  -6  -3   3    2.60    0.60
  -6  -3   3    2.40    1.10
  -6  -3   3    2.00    0.50
  -6  -3   3    2.00    0.70
   5   3  -3  164.48    3.70
   5   3  -3  164.68    4.00
   5   3  -3  160.28    4.00
   5   3  -3  163.38    4.20
   5   3  -3  157.28    3.90
   5   3  -3  162.28    3.60
  -5  -3   3  163.18    3.80
  -5  -3   3  160.58    4.20
  -5  -3   3  166.78    4.10
  -5  -3   3  164.58    3.90
  -5  -3   3  159.48    3.60
  -5  -3   3  163.98    3.70
   4   3  -3  167.88    3.60
   4   3  -3  161.88    4.10
   4   3  -3  168.18    3.80
   4   3  -3  170.88    4.00
   4   3  -3  174.28    3.70
   4   3  -3  165.68    4.00
  -4  -3   3  167.78    4.00
  -4  -3   3  169.48    3.90
  -4  -3   3  171.18    3.70
  -4  -3   3  165.08    3.60
  -4  -3   3  156.68    4.10
  -4  -3   3  166.58    3.90
   3   3  -3   72.99    1.80
   3   3  -3   72.69    1.50
   3   3  -3   72.79    2.00
   3   3  -3   70.79    1.80
   3   3  -3   71.59    2.00
  -3  -3   3   69.09    1.70
  -3  -3   3   71.49    1.90
  -3  -3   3   71.39    1.90
  -3  -3   3   72.19    2.00
  -3  -3   3   70.69    1.90
   2   3  -3   62.99    1.70
   2   3  -3   64.19    1.60
   2   3  -3   65.79    1.70
   2   3  -3   65.99    1.70
   2   3  -3   64.59    1.60
  -2  -3   3   64.39    1.60
  -2  -3   3   65.89    1.70
  -2  -3   3   65.99    1.70
  -2  -3   3   64.09    1.60
   1   3  -3   18.10    0.70
   1   3  -3   17.80    0.70
   1   3  -3   17.50    0.60
   1   3  -3   16.80    0.60
   1   3  -3   17.80    0.60
  -1  -3   3   16.60    0.70
  -1  -3   3   18.00    0.70
  -1  -3   3   17.30    0.50
  -1  -3   3   18.10    0.70
  -1  -3   3   16.70    0.60
  -1  -3   3   19.20    0.70
  -1  -3   3   17.40    0.70
   0   3  -3  189.28    4.10
   0   3  -3  186.28    4.20
   0   3  -3  191.38    4.10
   0   3  -3  186.18    4.10
   0   3  -3  191.78    4.00
   0   3  -3  189.98    4.10
   0  -3   3  184.48    4.10
   0  -3   3  190.88    4.00
   0  -3   3  190.08    4.00
   0  -3   3  189.68    4.10
   0  -3   3  177.78    4.10
   0  -3   3  193.08    4.20
   0  -3   3  181.78    4.10
  -1   3  -3  141.79    3.20
  -1   3  -3  141.39    3.20
  -1   3  -3  140.79    3.00
  -1   3  -3  136.69    3.20
  -1   3  -3  139.09    3.30
  -1   3  -3  146.99    3.30
   1  -3   3  141.29    3.20
   1  -3   3  143.19    3.30
   1  -3   3  143.59    3.20
   1  -3   3  139.39    3.00
   1  -3   3  140.79    3.30
   1  -3   3  136.79    3.20
   1  -3   3  139.09    3.20
  -2   3  -3    0.80    0.30
  -2   3  -3    0.20    0.40
  -2   3  -3    1.00    0.40
  -2   3  -3    1.00    0.40
   2  -3   3    0.80    0.30
   2  -3   3    1.00    0.40
   2  -3   3    0.80    0.40
   2  -3   3    1.20    0.40
   2  -3   3    1.00    0.40
   2  -3   3    1.60    0.50
  -3   3  -3  428.76    9.30
  -3   3  -3  429.06    9.30
  -3   3  -3  421.46    9.40
   3  -3   3  442.66    9.40
   3  -3   3  426.46    9.30
   3  -3   3  441.86    9.60
   3  -3   3  436.96    9.50
   3  -3   3  425.16    9.30
   3  -3   3  432.06    9.40
  -4   3  -3  435.66    9.60
  -4   3  -3  429.26    9.80
  -4   3  -3  446.06    9.90
  -4   3  -3  441.56    9.70
   4  -3   3  440.76    9.90
   4  -3   3  438.46    9.60
   4  -3   3  449.76    9.50
   4  -3   3  453.35   10.00
   4  -3   3  443.46    9.80
   4  -3   3  443.46    9.70
  -5   3  -3    7.50    1.10
  -5   3  -3   11.90    1.30
  -5   3  -3   10.00    1.20
  -5   3  -3    7.40    0.80
   5  -3   3    9.30    1.00
   5  -3   3    7.40    1.00
   5  -3   3    7.20    1.10
   5  -3   3    9.90    1.20
   5  -3   3    9.10    1.00
   5  -3   3    8.70    1.40
  -6   3  -3   15.30    1.20
  -6   3  -3   14.00    1.60
  -6   3  -3   11.40    1.50
  -6   3  -3   12.60    1.50
   6  -3   3   14.90    1.80
   6  -3   3   11.20    1.30
   6  -3   3   15.00    1.90
   6  -3   3   11.90    1.40
   6  -3   3   15.50    1.30
   6  -3   3   11.70    1.10
  -7   3  -3   32.70    3.10
  -7   3  -3   34.60    2.30
   7  -3   3   30.30    2.60
   7  -3   3   34.20    2.40
   7  -3   3   36.10    3.10
   7  -3   3   29.20    2.50
   7  -3   3   35.60    3.30
   8   2  -3    0.60    0.90
   8   2  -3    0.30    1.30
   8   2  -3    1.50    0.80
   8   2  -3    0.00    1.80
   8   2  -3    1.70    1.70
   8   2  -3    1.10    1.40
  -8  -2   3    2.20    1.40
  -8  -2   3    1.80    1.00
  -8  -2   3    1.60    1.20
  -8  -2   3    1.90    1.10
  -8  -2   3   -1.00    1.70
  -8  -2   3    2.30    1.60
   7   2  -3    6.00    0.70
   7   2  -3    6.50    1.20
   7   2  -3    7.30    0.80
   7   2  -3    8.30    1.60
   7   2  -3    6.70    1.10
   7   2  -3    6.10    1.00
  -7  -2   3    7.10    1.00
  -7  -2   3    6.90    0.90
  -7  -2   3    6.80    1.00
  -7  -2   3    8.50    1.40
  -7  -2   3    5.80    1.70
   6   2  -3    5.50    0.80
   6   2  -3    5.70    1.20
   6   2  -3    5.10    0.80
   6   2  -3    5.90    0.60
   6   2  -3    5.10    0.60
   6   2  -3    7.00    1.00
  -6  -2   3    5.90    0.70
  -6  -2   3    5.80    0.70
  -6  -2   3    4.10    0.90
  -6  -2   3    6.80    0.70
  -6  -2   3    5.20    0.70
  -6  -2   3    5.00    1.00
   5   2  -3  121.79    2.90
   5   2  -3  124.39    2.90
   5   2  -3  122.89    3.00
   5   2  -3  126.99    3.30
   5   2  -3  121.89    3.50
   5   2  -3  119.09    3.10
  -5  -2   3  122.89    3.00
  -5  -2   3  123.29    3.30
  -5  -2   3  122.69    3.50
  -5  -2   3  124.69    3.00
  -5  -2   3  119.19    2.90
  -5  -2   3  120.49    2.90
   4   2  -3  139.69    3.10
   4   2  -3  139.69    3.60
   4   2  -3  136.89    3.40
   4   2  -3  142.09    3.20
   4   2  -3  142.29    3.50
  -4  -2   3  145.29    3.30
  -4  -2   3  139.59    3.20
  -4  -2   3  138.79    3.50
  -4  -2   3  136.39    3.10
  -4  -2   3  140.69    3.20
  -4  -2   3  139.09    3.60
   3   2  -3   11.00    0.60
   3   2  -3    9.80    0.80
   3   2  -3   10.60    0.40
   3   2  -3   11.80    0.70
   3   2  -3   10.50    0.50
   3   2  -3   11.00    0.70
  -3  -2   3   11.30    0.80
  -3  -2   3   10.40    0.50
  -3  -2   3    9.80    0.60
  -3  -2   3   10.60    0.50
  -3  -2   3   10.60    0.70
  -3  -2   3   11.90    0.80
   2   2  -3  592.64   12.00
   2   2  -3  585.54   12.20
   2   2  -3  582.84   12.20
   2   2  -3  578.84   12.20
   2   2  -3  579.24   12.30
   2   2  -3  579.54   12.10
  -2  -2   3  592.24   12.20
  -2  -2   3  573.44   12.10
  -2  -2   3  574.94   12.20
  -2  -2   3  592.34   12.30
  -2  -2   3  585.04   12.20
   1   2  -3  497.65   10.30
   1   2  -3  497.35   10.30
   1   2  -3  478.85   10.30
   1   2  -3  493.35   10.30
  -1  -2   3  509.95   10.30
  -1  -2   3  501.45   10.30
  -1  -2   3  490.45   10.30
  -1  -2   3  472.45   10.30
  -1  -2   3  494.75   10.30
  -1  -2   3  496.15   10.30
   0   2  -3  431.96    8.80
   0   2  -3  406.36    8.80
   0   2  -3  415.66    8.80
   0   2  -3  413.86    8.70
   0   2  -3  429.16    8.70
   0   2  -3  413.46    8.80
   0  -2   3  411.66    8.80
   0  -2   3  429.06    8.80
   0  -2   3  418.36    8.70
   0  -2   3  420.56    8.70
   0  -2   3  420.06    8.80
   0  -2   3  413.66    8.80
   0  -2   3  420.36    8.80
  -1   2  -3  145.79    3.20
  -1   2  -3  141.79    3.20
  -1   2  -3  140.09    3.20
  -1   2  -3  141.79    3.00
  -1   2  -3  143.79    3.30
   1  -2   3  147.09    3.20
   1  -2   3  141.89    3.10
   1  -2   3  144.19    3.20
   1  -2   3  140.39    3.20
   1  -2   3  142.39    3.30
   1  -2   3  142.49    3.00
   1  -2   3  145.89    3.20
  -2   2  -3  437.56    9.10
  -2   2  -3  436.66    9.20
  -2   2  -3  428.56    9.20
  -2   2  -3  416.36    9.10
  -2   2  -3  419.46    9.00
   2  -2   3  419.36    9.20
   2  -2   3  420.06    9.10
   2  -2   3  441.26    9.20
   2  -2   3  420.66    9.10
   2  -2   3  423.76    9.00
   2  -2   3  434.46    9.00
  -3   2  -3   22.20    0.90
  -3   2  -3   22.30    1.20
  -3   2  -3   20.50    1.00
  -3   2  -3   21.70    1.10
   3  -2   3   20.80    0.90
   3  -2   3   21.60    0.90
   3  -2   3   20.30    1.10
   3  -2   3   23.30    1.10
   3  -2   3   22.20    1.10
   3  -2   3   20.40    1.30
  -4   2  -3   30.80    1.40
  -4   2  -3   27.60    1.40
  -4   2  -3   27.00    1.10
  -4   2  -3   28.40    1.60
   4  -2   3   30.70    1.30
   4  -2   3   27.30    1.20
   4  -2   3   28.50    1.40
   4  -2   3   28.70    1.70
   4  -2   3   28.50    1.20
   4  -2   3   26.60    1.40
  -5   2  -3  179.38    4.20
  -5   2  -3  177.18    4.70
  -5   2  -3  174.58    4.40
  -5   2  -3  177.78    4.60
   5  -2   3  174.58    4.30
   5  -2   3  176.78    4.30
   5  -2   3  183.38    4.80
   5  -2   3  179.38    4.60
   5  -2   3  178.98    4.30
   5  -2   3  184.98    4.70
  -6   2  -3   13.60    1.40
  -6   2  -3   13.50    1.30
  -6   2  -3   12.50    1.30
  -6   2  -3   11.50    1.40
   6  -2   3   13.70    1.40
   6  -2   3   10.30    1.00
   6  -2   3   10.90    1.30
   6  -2   3   10.90    1.40
   6  -2   3   12.60    1.00
   6  -2   3   14.30    1.10
  -7   2  -3    2.50    1.00
  -7   2  -3    1.30    1.60
  -7   2  -3    2.00    1.50
   7  -2   3    2.30    1.40
   7  -2   3    2.90    1.00
   7  -2   3    1.20    1.00
   7  -2   3    1.50    1.30
   7  -2   3    1.60    1.20
   7  -2   3    4.30    1.90
  -8   2  -3    2.90    1.90
  -8   2  -3    0.50    1.30
   8  -2   3    0.30    2.00
   8  -2   3    1.10    2.10
   8  -2   3    3.80    1.30
   8  -2   3    0.80    1.40
   8  -2   3   -0.60    2.60
   8   1  -3    5.80    1.10
   8   1  -3    4.20    1.50
   8   1  -3    6.30    1.20
   8   1  -3    6.40    2.20
   8   1  -3    5.10    1.30
   8   1  -3    3.90    1.90
  -8  -1   3    6.80    1.10
  -8  -1   3    4.50    1.70
  -8  -1   3    8.00    1.70
  -8  -1   3    6.40    1.60
  -8  -1   3    3.40    2.20
  -8  -1   3    7.60    1.10
   7   1  -3    0.70    1.00
   7   1  -3    0.30    0.80
   7   1  -3   -1.10    2.20
   7   1  -3    0.50    0.60
   7   1  -3    0.50    1.00
   7   1  -3   -0.10    1.60
  -7  -1   3   -1.80    1.00
  -7  -1   3    1.30    1.30
  -7  -1   3   -0.70    0.70
  -7  -1   3    1.60    0.90
  -7  -1   3    0.00    1.20
  -7  -1   3   -0.60    0.70
   6   1  -3   47.10    1.70
   6   1  -3   45.70    1.90
   6   1  -3   46.20    1.60
   6   1  -3   47.40    2.20
   6   1  -3   43.90    1.50
   6   1  -3   47.70    2.40
  -6  -1   3   46.10    2.10
  -6  -1   3   45.00    1.80
  -6  -1   3   45.20    2.40
  -6  -1   3   45.00    1.80
  -6  -1   3   48.00    1.60
  -6  -1   3   43.90    1.60
   5   1  -3   44.20    1.30
   5   1  -3   44.50    1.90
   5   1  -3   38.70    1.50
   5   1  -3   41.30    1.40
   5   1  -3   42.40    2.00
   5   1  -3   46.50    1.50
  -5  -1   3   43.50    1.50
  -5  -1   3   46.00    1.90
  -5  -1   3   43.80    2.00
  -5  -1   3   43.70    1.40
  -5  -1   3   43.30    1.50
   4   1  -3   19.10    1.10
   4   1  -3   17.60    0.90
   4   1  -3   18.20    0.80
   4   1  -3   19.70    0.80
   4   1  -3   19.10    1.20
   4   1  -3   19.00    0.90
  -4  -1   3   19.10    1.10
  -4  -1   3   19.50    0.80
  -4  -1   3   17.20    1.20
  -4  -1   3   19.60    0.90
  -4  -1   3   19.70    0.90
  -4  -1   3   19.00    0.90
   3   1  -3   35.80    1.00
   3   1  -3   37.00    1.00
   3   1  -3   35.30    1.10
   3   1  -3   38.40    1.30
   3   1  -3   36.00    1.30
   3   1  -3   35.90    1.00
  -3  -1   3   36.60    1.10
  -3  -1   3   36.40    1.00
  -3  -1   3   35.60    1.00
  -3  -1   3   35.60    1.10
  -3  -1   3   36.60    1.30
  -3  -1   3   34.80    1.30
   2   1  -3  143.79    3.10
   2   1  -3  136.29    3.10
   2   1  -3  144.59    3.20
   2   1  -3  144.69    3.00
   2   1  -3  139.39    3.10
  -2  -1   3  136.99    3.20
  -2  -1   3  135.79    3.10
  -2  -1   3  139.69    3.30
  -2  -1   3  135.19    3.10
  -2  -1   3  142.69    3.10
   1   1  -3  229.28    4.70
   1   1  -3  217.68    4.60
   1   1  -3  228.68    4.80
   1   1  -3  222.58    4.80
   1   1  -3  226.18    4.80
   1   1  -3  222.48    4.70
  -1  -1   3  214.58    4.80
  -1  -1   3  225.58    4.70
   0   1  -3    0.60    0.20
   0   1  -3    0.70    0.20
   0   1  -3    0.70    0.20
   0   1  -3    0.80    0.10
   0   1  -3    0.70    0.20
   0   1  -3    0.70    0.10
   0   1  -3    0.80    0.10
   0  -1   3    0.70    0.10
   0  -1   3    0.50    0.10
   0  -1   3    0.60    0.10
   0  -1   3    0.60    0.10
   0  -1   3    0.60    0.10
   0  -1   3    0.80    0.20
   0  -1   3    0.50    0.10
  -1   1  -3   24.80    0.70
  -1   1  -3   25.60    0.70
  -1   1  -3   24.90    0.80
  -1   1  -3   24.10    0.70
  -1   1  -3   25.30    0.80
  -1   1  -3   26.00    0.60
  -1   1  -3   25.90    0.80
   1  -1   3   23.90    0.70
   1  -1   3   26.80    0.80
   1  -1   3   24.90    0.70
   1  -1   3   25.70    0.70
   1  -1   3   23.50    0.80
   1  -1   3   25.30    0.70
   1  -1   3   25.20    0.60
  -2   1  -3  300.97    6.40
  -2   1  -3  288.27    6.30
  -2   1  -3  288.47    6.00
  -2   1  -3  297.17    6.30
  -2   1  -3  291.77    6.20
  -2   1  -3  288.17    6.20
   2  -1   3  286.87    6.20
   2  -1   3  279.87    6.20
   2  -1   3  297.47    6.20
   2  -1   3  286.67    6.30
   2  -1   3  281.47    6.30
   2  -1   3  302.07    6.40
  -3   1  -3  195.08    4.30
  -3   1  -3  188.48    4.40
  -3   1  -3  187.88    4.20
  -3   1  -3  195.98    4.50
  -3   1  -3  187.38    4.00
  -3   1  -3  190.48    4.00
   3  -1   3  187.78    4.40
   3  -1   3  193.48    4.20
   3  -1   3  189.38    4.50
   3  -1   3  195.88    4.30
   3  -1   3  192.78    4.20
   3  -1   3  185.78    4.40
  -4   1  -3  156.88    3.70
  -4   1  -3  156.98    4.00
  -4   1  -3  157.08    3.60
  -4   1  -3  146.69    3.90
  -4   1  -3  158.18    3.40
   4  -1   3  156.08    3.90
   4  -1   3  156.28    4.00
   4  -1   3  155.48    3.60
   4  -1   3  157.28    3.90
   4  -1   3  154.08    3.60
   4  -1   3  157.78    3.60
  -5   1  -3  600.24   13.00
  -5   1  -3  612.84   13.40
  -5   1  -3  608.14   13.40
  -5   1  -3  601.44   12.70
  -5   1  -3  616.54   13.10
   5  -1   3  617.24   13.30
   5  -1   3  624.24   13.50
   5  -1   3  595.84   13.00
   5  -1   3  618.74   13.00
   5  -1   3  620.24   13.40
   5  -1   3  614.34   12.90
  -6   1  -3    0.20    0.90
  -6   1  -3    0.10    0.60
  -6   1  -3    0.00    0.90
  -6   1  -3   -0.30    0.80
  -6   1  -3    0.40    0.40
   6  -1   3    0.90    0.60
   6  -1   3    0.30    0.90
   6  -1   3    0.90    0.70
   6  -1   3    0.70    0.60
   6  -1   3    1.70    1.00
   6  -1   3    0.40    1.20
  -7   1  -3    7.90    1.40
  -7   1  -3    7.90    0.90
  -7   1  -3    8.10    1.40
  -7   1  -3    7.90    0.60
  -7   1  -3    9.70    1.70
   7  -1   3    8.10    1.20
   7  -1   3   10.90    1.10
   7  -1   3    7.00    1.30
   7  -1   3    8.60    1.40
   7  -1   3    7.50    1.50
   7  -1   3    9.90    0.90
  -8   1  -3   72.99    2.80
  -8   1  -3   78.09    4.20
  -8   1  -3   73.39    1.90
  -8   1  -3   71.89    4.00
   8  -1   3   72.19    3.70
   8  -1   3   73.89    2.50
   8  -1   3   69.39    4.30
   8  -1   3   76.59    2.90
   8  -1   3   74.19    3.80
   8   0  -3   30.40    2.40
   8   0  -3   23.30    2.00
   8   0  -3   25.90    1.70
   8   0  -3   27.10    2.80
   8   0  -3   29.90    2.80
  -8   0   3   30.80    2.10
  -8   0   3   29.90    2.00
  -8   0   3   28.90    2.10
  -8   0   3   21.70    2.40
   7   0  -3    1.00    0.80
   7   0  -3    1.20    0.90
   7   0  -3    1.90    1.70
   7   0  -3    1.60    1.50
   7   0  -3    2.00    0.90
   7   0  -3    1.30    1.10
  -7   0   3    1.80    0.70
  -7   0   3    2.00    1.20
  -7   0   3    0.10    1.40
  -7   0   3    1.10    0.90
  -7   0   3    0.80    1.30
  -7   0   3    1.90    1.40
   6   0  -3   24.30    2.70
   6   0  -3   28.80    1.50
   6   0  -3   30.40    1.40
   6   0  -3   27.70    1.50
   6   0  -3   27.70    2.20
   6   0  -3   27.20    1.50
  -6   0   3   26.60    1.70
  -6   0   3   29.00    1.20
  -6   0   3   26.10    1.70
  -6   0   3   29.10    1.90
  -6   0   3   30.30    1.30
  -6   0   3   29.60    2.20
   5   0  -3   55.99    2.20
   5   0  -3   56.99    1.80
   5   0  -3   54.59    1.80
   5   0  -3   55.29    2.30
   5   0  -3   54.59    1.60
   5   0  -3   53.59    1.70
  -5   0   3   52.99    2.10
  -5   0   3   53.59    2.30
  -5   0   3   55.69    1.90
  -5   0   3   54.19    1.60
  -5   0   3   55.39    1.90
  -5   0   3   54.69    1.60
   4   0  -3    7.90    0.70
   4   0  -3    5.60    0.70
   4   0  -3    6.90    0.60
   4   0  -3    6.40    0.80
   4   0  -3    6.50    0.60
   4   0  -3    7.40    0.60
  -4   0   3    8.20    0.70
  -4   0   3    6.30    0.60
  -4   0   3    7.50    0.80
  -4   0   3    6.90    0.60
  -4   0   3    5.90    0.70
  -4   0   3    7.40    0.60
   3   0  -3    5.70    0.50
   3   0  -3    5.60    0.60
   3   0  -3    5.30    0.50
   3   0  -3    5.80    0.60
   3   0  -3    5.70    0.50
  -3   0   3    5.40    0.50
  -3   0   3    4.90    0.60
  -3   0   3    5.40    0.40
  -3   0   3    4.90    0.40
  -3   0   3    6.20    0.60
   2   0  -3   43.30    1.10
   2   0  -3   44.00    1.30
   2   0  -3   43.70    1.10
   2   0  -3   42.90    1.30
   2   0  -3   43.10    1.10
   2   0  -3   43.60    1.20
  -2   0   3   41.20    1.30
  -2   0   3   44.30    1.10
  -2   0   3   43.30    1.10
  -2   0   3   42.50    1.20
  -2   0   3   42.00    1.30
   1   0  -3  486.55   10.50
   1   0  -3  515.05   10.50
   1   0  -3  517.05   10.50
   1   0  -3  512.05   10.60
   1   0  -3  489.05   10.50
  -1   0   3  488.75   10.50
  -1   0   3  505.25   10.60
  -1   0   3  525.05   10.60
  -1   0   3  522.45   10.50
   0   0  -3  125.59    2.70
   0   0  -3  131.19    2.70
   0   0  -3  129.99    2.70
   0   0  -3  129.09    2.80
   0   0  -3  126.19    2.80
   0   0  -3  124.99    2.80
   0   0  -3  131.29    2.70
   0   0   3  126.79    2.80
   0   0   3  128.99    2.80
   0   0   3  128.99    2.70
   0   0   3  124.29    2.70
   0   0   3  130.09    2.70
   0   0   3  130.29    2.70
  -1   0  -3    0.90    0.10
  -1   0  -3    0.90    0.10
  -1   0  -3    1.10    0.10
  -1   0  -3    0.80    0.10
  -1   0  -3    1.00    0.20
  -1   0  -3    0.80    0.20
   1   0   3    1.00    0.10
   1   0   3    0.90    0.20
   1   0   3    0.80    0.10
   1   0   3    0.70    0.10
   1   0   3    0.90    0.10
  -2   0  -3   86.39    2.10
  -2   0  -3   91.29    2.00
  -2   0  -3   85.39    2.00
  -2   0  -3   88.19    1.90
  -2   0  -3   86.29    2.10
   2   0   3   90.09    2.10
   2   0   3   91.59    2.00
   2   0   3   86.09    2.10
   2   0   3   81.19    2.00
   2   0   3   86.79    2.20
   2   0   3   87.79    1.90
  -3   0  -3   49.20    1.50
  -3   0  -3   51.19    1.30
  -3   0  -3   48.60    1.40
  -3   0  -3   50.89    1.60
  -3   0  -3   50.19    1.60
  -3   0  -3   50.39    1.30
   3   0   3   49.70    1.50
   3   0   3   50.89    1.30
   3   0   3   49.70    1.50
   3   0   3   50.59    1.60
   3   0   3   50.89    1.30
  -4   0  -3    2.90    0.40
  -4   0  -3    1.80    0.60
  -4   0  -3    2.70    0.30
  -4   0  -3    2.50    0.60
  -4   0  -3    1.60    0.40
   4   0   3    1.90    0.40
   4   0   3    2.00    0.50
   4   0   3    1.90    0.40
   4   0   3    2.50    0.60
   4   0   3    1.60    0.50
   4   0   3    2.50    0.30
  -5   0  -3   99.39    2.90
  -5   0  -3  101.19    2.60
  -5   0  -3  100.99    3.10
  -5   0  -3   99.49    2.70
  -5   0  -3  101.09    2.40
   5   0   3   99.79    2.60
   5   0   3  103.99    2.40
   5   0   3  102.39    2.90
   5   0   3  100.19    3.00
   5   0   3  101.59    2.60
   5   0   3  104.09    3.00
  -6   0  -3    2.60    0.70
  -6   0  -3    4.40    0.70
  -6   0  -3    3.90    0.50
  -6   0  -3    3.60    1.00
  -6   0  -3    3.10    0.90
   6   0   3    3.60    0.50
   6   0   3    3.20    1.00
   6   0   3    4.00    0.60
   6   0   3    4.30    1.00
   6   0   3    4.00    1.00
   6   0   3    3.40    0.70
  -7   0  -3   11.80    1.30
  -7   0  -3   10.20    1.00
  -7   0  -3    9.40    0.70
  -7   0  -3   10.40    1.50
  -7   0  -3   10.90    1.50
   7   0   3    8.30    1.40
   7   0   3    7.50    1.00
   7   0   3    7.90    0.90
   7   0   3   10.80    1.50
   7   0   3   10.00    0.90
   7   0   3   11.20    1.50
  -8   0  -3   73.59    2.20
  -8   0  -3   72.19    3.70
  -8   0  -3   71.79    3.80
  -8   0  -3   75.29    2.60
   8   0   3   73.09    2.20
   8   0   3   80.39    3.70
   8   0   3   80.09    3.50
   8   0   3   76.69    3.90
   8   0   3   72.79    2.70
  -9   0  -3   16.90    1.70
  -9   0  -3   18.90    2.60
   9   0   3   19.00    1.70
   9   0   3   20.50    2.60
   9   0   3   21.60    2.70
   8  -1  -3   70.39    3.00
   8  -1  -3   73.89    3.40
   8  -1  -3   69.79    4.60
  -8   1   3   70.99    2.80
  -8   1   3   82.79    4.80
   7  -1  -3    5.70    1.00
   7  -1  -3    3.50    1.70
   7  -1  -3    5.60    1.20
   7  -1  -3    3.80    1.00
   7  -1  -3    5.80    1.20
   7  -1  -3    6.00    1.80
  -7   1   3    3.80    1.50
  -7   1   3    4.60    1.80
  -7   1   3    5.00    0.80
  -7   1   3    5.60    1.40
  -7   1   3    4.50    1.90
  -7   1   3    6.10    1.00
   6  -1  -3   25.40    2.20
   6  -1  -3   23.00    2.40
   6  -1  -3   22.30    1.50
   6  -1  -3   22.20    1.40
   6  -1  -3   21.80    1.40
   6  -1  -3   21.70    1.70
  -6   1   3   17.90    1.30
  -6   1   3   21.80    1.90
  -6   1   3   21.10    1.50
  -6   1   3   22.30    1.10
  -6   1   3   16.80    1.80
  -6   1   3   24.10    2.30
   5  -1  -3   47.90    1.60
   5  -1  -3   47.30    1.80
   5  -1  -3   48.30    1.60
   5  -1  -3   47.90    1.60
   5  -1  -3   47.30    2.10
   5  -1  -3   49.80    2.30
  -5   1   3   46.30    1.50
  -5   1   3   47.20    1.90
  -5   1   3   44.20    1.90
  -5   1   3   45.30    2.20
  -5   1   3   47.70    2.10
  -5   1   3   46.80    1.40
   4  -1  -3   59.49    1.60
   4  -1  -3   57.99    2.10
   4  -1  -3   56.49    1.80
   4  -1  -3   52.49    2.00
   4  -1  -3   57.59    1.60
  -4   1   3   53.49    2.00
  -4   1   3   58.89    2.20
  -4   1   3   58.89    1.90
  -4   1   3   56.49    2.00
  -4   1   3   57.49    1.50
  -4   1   3   58.19    1.50
   3  -1  -3  105.29    2.50
   3  -1  -3  102.19    2.40
   3  -1  -3  104.39    2.70
   3  -1  -3  102.39    2.60
   3  -1  -3  103.49    2.40
  -3   1   3  104.09    2.80
  -3   1   3  101.59    2.70
  -3   1   3  108.09    2.60
  -3   1   3  101.19    2.60
  -3   1   3  100.79    2.30
  -3   1   3  104.69    2.40
   2  -1  -3    1.70    0.30
   2  -1  -3    1.80    0.20
   2  -1  -3    1.50    0.40
   2  -1  -3    2.30    0.20
   2  -1  -3    2.50    0.40
   2  -1  -3    2.30    0.30
  -2   1   3    1.40    0.40
  -2   1   3    2.10    0.20
  -2   1   3    1.70    0.30
  -2   1   3    1.30    0.30
  -2   1   3    1.90    0.20
   1  -1  -3  433.56    9.00
   1  -1  -3  435.56    9.10
   1  -1  -3  438.66    9.30
   1  -1  -3  441.56    9.20
   1  -1  -3  440.06    9.30
   1  -1  -3  453.45    9.20
  -1   1   3  437.86    9.10
  -1   1   3  435.86    9.00
  -1   1   3  426.76    9.30
  -1   1   3  447.86    9.20
   0  -1  -3  134.89    2.90
   0  -1  -3  132.39    2.90
   0  -1  -3  133.19    2.90
   0  -1  -3  137.29    2.90
   0  -1  -3  135.59    2.90
   0   1   3  129.29    2.90
   0   1   3  137.59    2.90
   0   1   3  134.59    2.90
  -1  -1  -3  209.48    4.30
  -1  -1  -3  206.78    4.30
  -1  -1  -3  202.38    4.40
  -1  -1  -3  213.28    4.40
  -1  -1  -3  212.78    4.40
  -1  -1  -3  210.68    4.40
  -1  -1  -3  199.98    4.30
   1   1   3  211.08    4.40
   1   1   3  198.88    4.40
   1   1   3  196.68    4.40
   1   1   3  205.78    4.30
   1   1   3  203.18    4.40
   1   1   3  207.68    4.30
  -2  -1  -3    0.10    0.10
  -2  -1  -3   -0.20    0.20
  -2  -1  -3    0.10    0.20
  -2  -1  -3    0.10    0.10
  -2  -1  -3    0.00    0.10
  -2  -1  -3    0.10    0.20
   2   1   3    0.00    0.10
   2   1   3    0.00    0.20
   2   1   3    0.30    0.10
   2   1   3    0.00    0.10
   2   1   3   -0.20    0.30
  -3  -1  -3  182.58    4.10
  -3  -1  -3  182.68    4.10
  -3  -1  -3  152.08    4.20
  -3  -1  -3  178.98    3.90
  -3  -1  -3  177.88    3.90
   3   1   3  173.18    3.80
   3   1   3  178.18    3.70
   3   1   3  181.88    4.10
   3   1   3  180.28    4.00
   3   1   3  177.18    3.70
   3   1   3  174.68    4.00
   3   1   3  174.48    3.90
  -4  -1  -3   20.50    0.80
  -4  -1  -3   21.40    0.90
  -4  -1  -3   21.50    1.20
  -4  -1  -3   21.50    0.90
   4   1   3   22.30    0.80
   4   1   3   22.20    1.00
   4   1   3   22.40    0.60
   4   1   3   22.20    1.10
   4   1   3   23.50    1.20
   4   1   3   22.20    0.90
  -5  -1  -3    1.00    0.70
  -5  -1  -3    0.30    0.40
  -5  -1  -3    0.20    0.60
  -5  -1  -3    1.10    0.50
  -5  -1  -3    0.60    0.40
   5   1   3    0.90    0.70
   5   1   3    1.30    0.40
   5   1   3    0.60    0.40
   5   1   3    0.60    0.60
   5   1   3    0.60    0.60
   5   1   3    1.10    0.20
  -6  -1  -3    6.40    0.80
  -6  -1  -3    6.20    1.00
  -6  -1  -3    9.00    1.10
  -6  -1  -3    5.90    0.60
  -6  -1  -3    7.70    0.70
   6   1   3    9.00    0.60
   6   1   3    9.70    1.10
   6   1   3    7.30    0.90
   6   1   3    9.90    0.90
   6   1   3    9.10    1.10
   6   1   3    7.40    0.70
  -7  -1  -3    2.60    1.20
  -7  -1  -3    2.90    0.90
  -7  -1  -3    4.30    0.70
  -7  -1  -3    2.90    0.70
   7   1   3    1.60    1.10
   7   1   3    3.30    0.80
   7   1   3    3.20    0.40
   7   1   3    2.10    0.80
   7   1   3    4.30    1.10
   7   1   3    4.40    1.30
  -8  -1  -3    1.10    1.70
  -8  -1  -3   -0.50    0.80
  -8  -1  -3   -1.00    1.30
  -8  -1  -3    1.00    0.90
  -8  -1  -3    0.10    1.30
   8   1   3    0.70    0.50
   8   1   3   -0.20    1.20
   8   1   3    0.60    1.40
   8   1   3    1.10    1.40
   8   1   3   -0.50    1.50
   8   1   3    0.30    0.80
  -9  -1  -3   -1.30    2.00
  -9  -1  -3    2.50    1.30
  -9  -1  -3   -2.50    2.50
  -9  -1  -3   -0.10    1.10
   9   1   3   -1.10    1.10
   9   1   3    0.50    3.40
   9   1   3   -1.80    2.00
   9   1   3    2.50    2.00
   7  -2  -3    3.90    1.30
   7  -2  -3    3.30    1.40
   7  -2  -3    0.50    2.10
   7  -2  -3    3.30    1.80
   7  -2  -3    3.10    0.90
  -7   2   3    5.10    1.90
  -7   2   3    4.00    1.40
  -7   2   3    4.00    0.90
   6  -2  -3   62.69    2.40
   6  -2  -3   59.59    2.20
   6  -2  -3   60.79    2.50
   6  -2  -3   62.29    2.00
   6  -2  -3   64.09    3.20
   6  -2  -3   60.49    3.10
  -6   2   3   64.19    2.80
  -6   2   3   62.09    2.10
  -6   2   3   65.09    3.20
  -6   2   3   59.39    2.80
  -6   2   3   66.59    2.90
   5  -2  -3   16.20    1.30
   5  -2  -3   19.80    1.50
   5  -2  -3   18.70    1.90
   5  -2  -3   15.20    1.40
   5  -2  -3   19.30    1.10
   5  -2  -3   18.00    2.00
  -5   2   3   21.30    1.80
  -5   2   3   18.40    1.10
  -5   2   3   17.20    0.90
  -5   2   3   18.10    1.60
  -5   2   3   18.00    1.70
  -5   2   3   18.30    1.80
   4  -2  -3   61.89    1.70
   4  -2  -3   61.59    1.90
   4  -2  -3   58.29    1.70
   4  -2  -3   61.19    2.20
   4  -2  -3   61.79    2.00
   4  -2  -3   60.99    2.30
  -4   2   3   65.49    2.20
  -4   2   3   62.99    2.30
  -4   2   3   61.99    2.10
  -4   2   3   61.99    1.70
  -4   2   3   60.99    1.60
  -4   2   3   60.79    2.10
   3  -2  -3    1.10    0.50
   3  -2  -3    0.80    0.50
   3  -2  -3    0.80    0.30
   3  -2  -3    1.30    0.30
   3  -2  -3    1.20    0.50
   3  -2  -3    1.10    0.50
  -3   2   3    0.90    0.50
  -3   2   3    0.90    0.50
  -3   2   3    1.00    0.30
  -3   2   3    0.50    0.50
  -3   2   3    1.90    0.60
  -3   2   3    0.90    0.30
   2  -2  -3   68.99    2.00
   2  -2  -3   71.09    2.00
   2  -2  -3   68.49    1.90
   2  -2  -3   75.59    1.90
   2  -2  -3   69.79    1.60
   2  -2  -3   71.79    1.70
  -2   2   3   70.19    1.70
  -2   2   3   73.59    2.00
  -2   2   3   73.39    1.70
  -2   2   3   74.69    2.10
  -2   2   3   73.89    2.00
   1  -2  -3    6.60    0.50
   1  -2  -3    5.70    0.50
   1  -2  -3    6.60    0.40
   1  -2  -3    6.20    0.50
   1  -2  -3    6.00    0.30
  -1   2   3    6.30    0.40
  -1   2   3    6.10    0.50
  -1   2   3    4.50    0.40
  -1   2   3    6.20    0.40
  -1   2   3    6.40    0.30
   0  -2  -3  118.69    2.50
   0  -2  -3  114.99    2.60
   0  -2  -3  119.99    2.60
   0  -2  -3  118.99    2.60
   0  -2  -3  126.59    2.70
   0   2   3  123.49    2.60
   0   2   3  124.79    2.80
   0   2   3  108.99    2.70
   0   2   3  119.59    2.70
  -1  -2  -3   18.50    0.60
  -1  -2  -3   19.20    0.50
  -1  -2  -3   18.80    0.60
  -1  -2  -3   19.70    0.50
  -1  -2  -3   20.10    0.60
  -1  -2  -3   19.20    0.50
   1   2   3   19.20    0.50
   1   2   3   20.50    0.60
   1   2   3   19.70    0.60
  -2  -2  -3   39.10    1.10
  -2  -2  -3   39.40    1.00
  -2  -2  -3   41.00    0.90
  -2  -2  -3   40.20    1.10
  -2  -2  -3   38.90    1.00
  -2  -2  -3   39.30    1.00
   2   2   3   38.70    1.00
   2   2   3   40.30    1.10
   2   2   3   39.20    1.00
   2   2   3   40.10    1.00
   2   2   3   39.90    1.00
  -3  -2  -3  110.59    2.60
  -3  -2  -3  109.19    2.60
  -3  -2  -3  110.29    2.50
  -3  -2  -3  110.79    2.50
  -3  -2  -3  110.39    2.70
   3   2   3  110.19    2.70
   3   2   3  111.39    2.50
   3   2   3  105.29    2.60
   3   2   3  109.69    2.50
   3   2   3  108.29    2.50
  -4  -2  -3    1.20    0.40
  -4  -2  -3    0.70    0.40
  -4  -2  -3    0.80    0.30
  -4  -2  -3    1.20    0.30
  -4  -2  -3    0.80    0.50
   4   2   3    1.20    0.50
   4   2   3    0.70    0.20
   4   2   3    0.90    0.40
   4   2   3    0.50    0.40
   4   2   3    0.60    0.30
  -5  -2  -3   -0.40    0.40
  -5  -2  -3   -0.60    0.40
  -5  -2  -3    0.00    0.50
  -5  -2  -3    0.20    0.40
  -5  -2  -3   -0.10    0.60
   5   2   3    0.40    0.50
   5   2   3    0.10    0.50
   5   2   3    0.10    0.10
   5   2   3    0.20    0.30
   5   2   3   -0.30    0.50
   5   2   3    0.20    0.40
  -6  -2  -3   89.49    2.90
  -6  -2  -3   91.79    2.50
  -6  -2  -3   88.49    2.40
  -6  -2  -3   86.99    2.50
  -6  -2  -3   88.99    2.90
   6   2   3   85.49    2.80
   6   2   3   94.79    2.80
   6   2   3   89.49    2.80
   6   2   3   87.69    2.50
   6   2   3   89.19    2.00
   6   2   3   87.89    2.30
  -7  -2  -3   25.50    1.70
  -7  -2  -3   25.70    2.10
  -7  -2  -3   25.70    1.50
  -7  -2  -3   25.30    2.10
   7   2   3   27.20    2.00
   7   2   3   26.40    2.00
   7   2   3   27.70    1.60
   7   2   3   25.60    1.30
   7   2   3   27.50    0.80
   7   2   3   28.80    2.00
  -8  -2  -3   26.20    2.30
  -8  -2  -3   29.00    1.80
  -8  -2  -3   34.10    2.70
  -8  -2  -3   32.30    2.80
  -8  -2  -3   31.50    1.80
   8   2   3   29.60    2.10
   8   2   3   31.40    1.00
   8   2   3   31.40    1.60
   8   2   3   32.10    2.70
   8   2   3   34.70    2.50
  -9  -2  -3   17.50    1.50
  -9  -2  -3   14.20    1.40
  -9  -2  -3   13.70    2.00
  -9  -2  -3   14.50    2.60
   9   2   3   15.30    1.10
   9   2   3   17.30    2.10
   9   2   3   16.00    1.40
   9   2   3   18.50    2.50
   9   2   3   19.50    2.40
   7  -3  -3   53.29    3.30
   7  -3  -3   53.89    4.30
  -7   3   3   49.90    4.00
  -7   3   3   52.69    2.60
   6  -3  -3    2.80    0.80
   6  -3  -3    2.70    1.50
   6  -3  -3    4.20    1.70
   6  -3  -3    2.30    1.20
   6  -3  -3    2.70    1.00
  -6   3   3    4.30    1.20
  -6   3   3    0.30    1.40
  -6   3   3    2.50    0.60
  -6   3   3    2.10    0.90
   5  -3  -3    5.80    0.70
   5  -3  -3    6.40    1.40
   5  -3  -3    4.00    1.10
   5  -3  -3    5.30    0.80
   5  -3  -3    5.70    1.40
   5  -3  -3    5.70    1.10
  -5   3   3    5.60    1.10
  -5   3   3    5.60    0.70
  -5   3   3    5.30    1.30
  -5   3   3    6.80    1.30
  -5   3   3    4.80    0.50
   4  -3  -3    8.70    1.10
   4  -3  -3    9.10    0.90
   4  -3  -3   11.20    1.00
   4  -3  -3   11.40    1.20
   4  -3  -3    7.00    0.90
   4  -3  -3   11.30    0.80
  -4   3   3    6.00    0.90
  -4   3   3   10.80    0.70
  -4   3   3    6.50    1.00
  -4   3   3   10.50    0.90
   3  -3  -3   16.50    0.80
   3  -3  -3   15.40    0.70
   3  -3  -3   18.30    1.20
   3  -3  -3   16.70    1.30
   3  -3  -3   16.60    1.20
   3  -3  -3   15.20    1.20
  -3   3   3   16.90    1.10
  -3   3   3   15.50    1.20
  -3   3   3   16.50    1.40
  -3   3   3   16.40    0.80
  -3   3   3   17.50    0.70
   2  -3  -3   77.59    2.20
   2  -3  -3   78.39    2.20
   2  -3  -3   77.59    1.80
   2  -3  -3   79.09    2.20
   2  -3  -3   79.39    2.20
   2  -3  -3   80.39    1.80
  -2   3   3   77.49    2.20
  -2   3   3   71.69    2.20
  -2   3   3   78.49    2.30
  -2   3   3   78.99    1.90
  -2   3   3   79.79    1.90
   1  -3  -3    0.30    0.30
   1  -3  -3    0.40    0.20
   1  -3  -3   -0.30    0.30
   1  -3  -3    0.50    0.40
   1  -3  -3    0.30    0.20
   1  -3  -3    0.30    0.30
  -1   3   3    0.30    0.40
  -1   3   3    0.20    0.20
  -1   3   3    0.30    0.20
  -1   3   3    0.60    0.30
  -1   3   3    0.00    0.20
   0  -3  -3    4.90    0.30
   0  -3  -3    4.60    0.40
   0  -3  -3    5.10    0.40
   0  -3  -3    4.40    0.40
   0  -3  -3    2.90    0.40
   0   3   3    5.30    0.50
   0   3   3    5.00    0.40
   0   3   3    4.60    0.30
  -1  -3  -3   34.10    1.00
  -1  -3  -3   34.90    1.00
  -1  -3  -3   35.20    0.80
  -1  -3  -3   34.90    0.80
  -1  -3  -3   35.20    1.00
  -1  -3  -3   33.60    0.90
  -1  -3  -3   37.40    0.90
   1   3   3   35.10    0.80
  -2  -3  -3  308.97    6.40
  -2  -3  -3  304.57    6.40
  -2  -3  -3  316.17    6.40
  -2  -3  -3  304.67    6.50
  -2  -3  -3  308.07    6.50
  -2  -3  -3  298.07    6.40
   2   3   3  291.97    6.30
   2   3   3  304.67    6.50
   2   3   3  313.97    6.40
  -3  -3  -3   28.90    1.00
  -3  -3  -3   28.90    1.00
  -3  -3  -3   28.00    1.00
  -3  -3  -3   28.60    0.70
  -3  -3  -3   27.90    0.80
  -3  -3  -3   28.70    0.90
  -3  -3  -3   23.30    1.00
   3   3   3   27.20    0.80
   3   3   3   27.80    0.90
   3   3   3   28.90    0.80
   3   3   3   26.60    0.90
   3   3   3   29.70    1.00
  -4  -3  -3    6.60    0.60
  -4  -3  -3    6.20    0.60
  -4  -3  -3    7.10    0.80
  -4  -3  -3    7.10    0.60
  -4  -3  -3    6.80    0.60
   4   3   3    6.40    0.50
   4   3   3    4.80    0.50
   4   3   3    5.40    0.50
   4   3   3    6.70    0.50
   4   3   3    6.50    0.60
  -5  -3  -3    7.40    0.60
  -5  -3  -3    6.70    0.60
  -5  -3  -3    8.10    0.60
  -5  -3  -3    5.80    0.70
  -5  -3  -3    5.00    0.60
   5   3   3    7.00    0.60
   5   3   3    7.40    0.70
   5   3   3    6.50    0.60
   5   3   3    7.80    0.60
   5   3   3    7.10    0.90
  -6  -3  -3   37.40    1.40
  -6  -3  -3   36.30    1.50
  -6  -3  -3   36.70    1.90
  -6  -3  -3   36.70    1.60
  -6  -3  -3   40.30    1.90
   6   3   3   37.20    1.70
   6   3   3   37.20    1.30
   6   3   3   36.50    1.50
   6   3   3   37.20    1.70
  -7  -3  -3   50.19    2.40
  -7  -3  -3   46.50    2.50
  -7  -3  -3   47.40    1.90
  -7  -3  -3   51.49    2.00
   7   3   3   49.40    1.60
   7   3   3   48.80    2.20
   7   3   3   51.59    2.10
   7   3   3   49.60    2.00
   7   3   3   51.79    2.30
   7   3   3   49.10    1.20
  -8  -3  -3   17.50    1.80
  -8  -3  -3   13.50    1.60
  -8  -3  -3   16.90    1.50
  -8  -3  -3   14.70    1.40
  -8  -3  -3   21.20    1.40
   8   3   3   17.00    1.70
   8   3   3   18.20    1.50
   8   3   3   16.90    0.70
   8   3   3   20.90    1.80
   8   3   3   16.80    1.40
   8   3   3   17.30    1.60
  -9  -3  -3    1.80    2.20
  -9  -3  -3    0.00    1.10
  -9  -3  -3    3.60    1.30
  -9  -3  -3   -0.20    1.80
  -9  -3  -3   -0.50    2.70
   9   3   3   -2.20    1.60
   9   3   3   -0.50    1.70
   9   3   3   -0.40    0.90
   9   3   3    0.10    1.70
   6  -4  -3   -0.40    1.70
   6  -4  -3    0.80    1.50
   6  -4  -3   -0.50    1.40
  -6   4   3    0.90    1.10
  -6   4   3    0.10    1.60
   5  -4  -3   21.00    1.60
   5  -4  -3   22.50    1.90
   5  -4  -3   20.70    1.10
   5  -4  -3   24.30    2.10
   5  -4  -3   21.30    1.60
  -5   4   3   24.10    1.50
  -5   4   3   19.60    1.10
  -5   4   3   21.80    1.80
   4  -4  -3   19.40    1.70
   4  -4  -3   19.90    1.80
   4  -4  -3   18.80    1.70
   4  -4  -3   15.90    0.90
   4  -4  -3   18.60    2.00
  -4   4   3   19.70    1.20
  -4   4   3   20.60    1.60
  -4   4   3   17.50    1.70
  -4   4   3   18.90    0.90
   3  -4  -3   14.70    0.70
   3  -4  -3   14.20    1.30
   3  -4  -3   14.70    0.90
   3  -4  -3   16.40    1.40
   3  -4  -3   14.10    1.40
   3  -4  -3   14.70    1.40
  -3   4   3   14.60    1.40
  -3   4   3   15.70    0.90
  -3   4   3   14.20    0.80
  -3   4   3   13.90    1.20
   2  -4  -3   28.90    0.90
   2  -4  -3   30.20    1.40
   2  -4  -3   30.90    1.00
   2  -4  -3   29.20    1.30
   2  -4  -3   30.30    1.50
   2  -4  -3   27.80    1.40
  -2   4   3   30.00    1.00
  -2   4   3   29.90    1.10
  -2   4   3   27.60    1.30
  -2   4   3   29.20    1.00
   1  -4  -3  134.19    3.30
   1  -4  -3  132.69    3.30
   1  -4  -3  140.49    3.00
   1  -4  -3  134.09    3.00
   1  -4  -3  135.99    3.40
   1  -4  -3  133.09    3.20
  -1   4   3  141.39    3.10
  -1   4   3  132.19    3.20
  -1   4   3  141.59    3.10
   0  -4  -3  137.79    3.00
   0  -4  -3  136.39    3.30
   0  -4  -3  137.39    3.30
   0  -4  -3  134.79    3.00
   0  -4  -3  138.09    3.10
   0  -4  -3  134.09    3.00
   0   4   3  138.49    3.00
   0   4   3  138.69    2.90
  -1  -4  -3  255.77    5.50
  -1  -4  -3  264.47    5.40
  -1  -4  -3  265.07    5.60
  -1  -4  -3  262.37    5.70
  -1  -4  -3  251.17    5.40
  -1  -4  -3  254.97    5.60
  -2  -4  -3   64.09    1.40
  -2  -4  -3   63.99    1.70
  -2  -4  -3   62.89    1.40
  -2  -4  -3   63.89    1.60
  -2  -4  -3   63.89    1.50
  -2  -4  -3   62.19    1.60
  -3  -4  -3  634.34   13.20
  -3  -4  -3  630.04   13.30
  -3  -4  -3  630.84   13.20
  -3  -4  -3  628.24   13.20
  -3  -4  -3  615.84   13.30
  -3  -4  -3  639.44   13.20
  -3  -4  -3  670.33   13.50
  -3  -4  -3  644.34   13.20
   3   4   3  621.34   13.10
   3   4   3  636.04   13.30
   3   4   3  642.04   13.10
  -4  -4  -3   48.80    1.30
  -4  -4  -3   45.30    1.20
  -4  -4  -3   48.60    1.50
  -4  -4  -3   45.10    1.60
  -4  -4  -3   45.00    1.40
  -4  -4  -3   49.70    1.50
  -4  -4  -3   47.90    1.10
   4   4   3   47.70    1.20
   4   4   3   48.40    1.40
   4   4   3   47.80    1.40
   4   4   3   46.20    1.30
   4   4   3   46.80    1.30
  -5  -4  -3  104.19    2.80
  -5  -4  -3  103.99    2.50
  -5  -4  -3  103.49    2.60
  -5  -4  -3   98.79    2.80
  -5  -4  -3  102.19    2.80
   5   4   3  101.29    2.50
   5   4   3  103.69    2.70
   5   4   3  101.89    2.60
   5   4   3  106.99    2.70
   5   4   3   99.59    2.50
  -6  -4  -3    0.40    0.70
  -6  -4  -3   -0.40    0.50
  -6  -4  -3   -0.40    0.70
  -6  -4  -3    0.10    0.70
   6   4   3   -0.10    0.40
   6   4   3    0.00    0.60
   6   4   3    0.20    0.50
   6   4   3    0.40    0.60
   6   4   3    0.80    0.60
  -7  -4  -3    6.60    0.90
  -7  -4  -3    3.40    0.90
  -7  -4  -3    5.90    0.90
  -7  -4  -3    5.90    1.00
  -7  -4  -3    7.00    1.20
   7   4   3    5.90    0.60
   7   4   3    6.50    1.00
   7   4   3    5.20    0.90
   7   4   3    4.70    1.10
   7   4   3    4.80    1.20
  -8  -4  -3    6.00    1.00
  -8  -4  -3    4.80    1.40
  -8  -4  -3    6.90    1.20
  -8  -4  -3    3.10    1.10
  -8  -4  -3    4.20    1.50
   8   4   3    4.60    1.10
   8   4   3    5.50    1.20
   8   4   3    4.40    1.20
   8   4   3    4.90    1.20
  -9  -4  -3   11.00    1.60
  -9  -4  -3   12.20    1.40
  -9  -4  -3   15.70    2.00
   9   4   3    6.60    1.80
   9   4   3   12.70    1.20
   9   4   3    9.10    1.80
   5  -5  -3    2.80    1.20
   5  -5  -3    3.20    1.50
   5  -5  -3    3.80    1.70
  -5   5   3    1.50    1.10
  -5   5   3    1.30    1.30
  -5   5   3    2.40    1.40
   4  -5  -3    0.20    1.10
   4  -5  -3    0.30    0.70
   4  -5  -3    0.60    0.40
   4  -5  -3    1.10    1.30
   4  -5  -3    1.20    1.30
  -4   5   3    0.20    0.80
  -4   5   3    0.00    0.90
  -4   5   3   -0.50    1.00
   3  -5  -3    4.20    0.40
   3  -5  -3    4.60    1.00
   3  -5  -3    4.50    1.00
   3  -5  -3    2.60    1.00
   3  -5  -3    3.20    0.60
   3  -5  -3    3.00    0.90
  -3   5   3    3.60    0.80
  -3   5   3    4.50    0.70
  -3   5   3    4.00    0.70
   2  -5  -3   12.70    1.10
   2  -5  -3   13.50    1.20
   2  -5  -3   11.80    1.10
   2  -5  -3   12.80    0.60
   2  -5  -3   12.90    0.90
   2  -5  -3   11.50    1.30
  -2   5   3   12.90    0.90
  -2   5   3   12.40    1.10
  -2   5   3   12.20    0.90
   1  -5  -3    2.30    0.60
   1  -5  -3    2.00    0.30
   1  -5  -3    1.20    0.50
   1  -5  -3    1.00    0.70
   1  -5  -3    1.80    0.40
   1  -5  -3    1.70    0.60
  -1   5   3    1.70    0.40
   0  -5  -3   20.20    0.80
   0  -5  -3   19.80    1.10
   0  -5  -3   18.30    0.70
   0  -5  -3   18.60    0.80
   0  -5  -3   19.00    0.90
  -1  -5  -3    0.50    0.40
  -1  -5  -3    0.50    0.20
  -1  -5  -3    0.10    0.30
  -1  -5  -3    0.30    0.40
  -1  -5  -3    0.00    0.50
  -1  -5  -3    0.30    0.20
  -2  -5  -3  299.57    6.60
  -2  -5  -3  310.27    6.70
  -2  -5  -3  304.57    6.70
  -2  -5  -3  302.37    6.60
  -3  -5  -3    2.90    0.30
  -3  -5  -3    2.30    0.40
  -3  -5  -3    2.30    0.60
  -3  -5  -3    2.00    0.40
  -3  -5  -3    3.10    0.30
  -3  -5  -3    2.00    0.40
  -3  -5  -3    2.60    0.30
  -3  -5  -3    2.40    0.40
  -4  -5  -3    1.50    0.40
  -4  -5  -3    1.80    0.50
  -4  -5  -3    2.80    0.50
  -4  -5  -3    1.20    0.50
  -4  -5  -3    1.90    0.30
  -4  -5  -3    1.40    0.50
  -4  -5  -3    1.60    0.30
   4   5   3    1.80    0.40
   4   5   3    2.00    0.30
   4   5   3    1.80    0.30
  -5  -5  -3    0.00    0.40
  -5  -5  -3    0.70    0.20
  -5  -5  -3    0.30    0.50
  -5  -5  -3    0.00    0.60
  -5  -5  -3    0.70    0.60
  -5  -5  -3    0.50    0.30
  -5  -5  -3    0.60    0.70
   5   5   3    0.80    0.30
   5   5   3    1.00    0.30
   5   5   3    0.70    0.40
   5   5   3    0.80    0.40
   5   5   3    0.10    0.40
  -6  -5  -3  143.19    3.80
  -6  -5  -3  144.29    3.60
  -6  -5  -3  147.99    3.90
  -6  -5  -3  148.19    3.90
   6   5   3  144.99    3.40
   6   5   3  143.29    3.40
   6   5   3  146.99    3.60
   6   5   3  141.29    3.60
  -7  -5  -3   10.50    1.00
  -7  -5  -3   13.10    1.30
  -7  -5  -3   13.30    1.40
  -7  -5  -3   12.90    1.00
  -7  -5  -3   11.50    1.20
   7   5   3   11.70    1.10
   7   5   3   10.10    1.10
   7   5   3   10.20    1.10
   7   5   3   12.80    1.20
   7   5   3   13.50    1.00
  -8  -5  -3   44.20    2.20
  -8  -5  -3   43.80    3.00
  -8  -5  -3   49.70    2.20
  -8  -5  -3   48.80    2.70
  -8  -5  -3   50.99    2.80
   8   5   3   53.79    2.50
   8   5   3   53.29    2.80
   8   5   3   50.69    1.80
   8   5   3   49.50    2.20
   8   5   3   47.30    2.60
  -9  -5  -3   24.00    2.70
  -9  -5  -3   23.50    2.20
  -9  -5  -3   21.40    1.80
   9   5   3   25.90    2.80
   9   5   3   21.70    1.70
   4  -6  -3    0.90    1.40
   4  -6  -3    1.40    1.60
   4  -6  -3    2.20    1.20
  -4   6   3    1.60    1.00
  -4   6   3    1.90    1.00
  -4   6   3    2.20    1.20
   3  -6  -3   24.80    0.90
   3  -6  -3   23.60    2.30
   3  -6  -3   24.50    2.10
   3  -6  -3   25.60    1.60
  -3   6   3   26.60    1.40
  -3   6   3   23.20    1.60
  -3   6   3   26.80    1.60
   2  -6  -3   55.09    1.80
   2  -6  -3   48.30    2.00
   2  -6  -3   51.19    2.10
   2  -6  -3   53.89    2.30
   2  -6  -3   54.69    2.60
   2  -6  -3   52.19    1.40
  -2   6   3   53.39    1.60
  -2   6   3   52.69    1.70
   1  -6  -3   28.30    0.90
   1  -6  -3   28.00    1.30
   1  -6  -3   30.10    2.00
   1  -6  -3   30.20    1.20
   1  -6  -3   24.90    1.60
   1  -6  -3   27.60    1.40
  -1   6   3   26.20    0.80
   0  -6  -3    0.30    0.60
   0  -6  -3   -0.20    0.70
   0  -6  -3    0.30    0.30
   0  -6  -3    0.40    0.50
   0  -6  -3    0.40    0.40
   0  -6  -3    0.40    0.40
  -1  -6  -3   13.30    1.10
  -1  -6  -3   13.80    0.80
  -1  -6  -3   11.50    1.00
  -1  -6  -3   12.20    1.00
  -1  -6  -3   11.80    0.90
  -2  -6  -3   21.90    1.30
  -2  -6  -3   22.00    1.00
  -2  -6  -3   23.00    1.40
  -2  -6  -3   22.20    1.10
  -2  -6  -3   22.70    1.10
  -2  -6  -3   23.10    1.00
  -3  -6  -3   86.69    2.40
  -3  -6  -3   89.89    2.30
  -3  -6  -3   85.99    2.50
  -3  -6  -3   88.29    2.30
  -3  -6  -3   88.19    2.20
  -4  -6  -3  110.49    2.80
  -4  -6  -3  107.09    2.80
  -4  -6  -3  107.59    2.60
  -4  -6  -3  109.49    2.60
  -4  -6  -3  110.69    3.10
  -4  -6  -3  111.59    2.60
  -4  -6  -3  113.19    2.60
  -5  -6  -3    0.20    0.60
  -5  -6  -3    2.30    0.60
  -5  -6  -3    1.30    0.90
  -5  -6  -3    1.50    0.50
  -5  -6  -3    1.50    0.50
  -5  -6  -3    1.00    0.60
  -5  -6  -3    1.60    0.30
   5   6   3    2.10    0.30
   5   6   3    1.90    0.30
  -6  -6  -3   15.40    0.60
  -6  -6  -3   15.90    1.50
  -6  -6  -3   16.90    1.50
  -6  -6  -3   16.70    1.10
  -6  -6  -3   13.80    1.20
  -6  -6  -3   14.90    0.80
  -6  -6  -3   13.90    1.60
   6   6   3   15.20    1.00
   6   6   3   14.70    0.60
   6   6   3   15.60    0.60
   6   6   3   15.40    1.00
   6   6   3   15.30    1.40
  -7  -6  -3    2.90    1.00
  -7  -6  -3    3.30    1.30
  -7  -6  -3    2.50    1.10
  -7  -6  -3    2.20    0.80
  -7  -6  -3    2.50    0.80
   7   6   3    1.80    0.80
   7   6   3    2.70    0.80
   7   6   3    3.30    0.60
   7   6   3    2.30    0.60
   7   6   3    2.60    0.60
  -8  -6  -3    0.10    1.30
  -8  -6  -3   -1.30    1.10
  -8  -6  -3   -1.70    1.00
   8   6   3    0.60    1.00
   8   6   3    0.40    1.00
   8   6   3   -0.40    0.70
   8   6   3   -0.30    0.80
  -9  -6  -3   13.70    1.80
  -9  -6  -3   13.20    1.60
   9   6   3   13.60    1.20
   9   6   3   11.50    1.60
   3  -7  -3    8.30    1.40
   3  -7  -3    5.50    1.60
   3  -7  -3    3.50    1.40
  -3   7   3    6.60    0.90
   2  -7  -3   74.49    2.70
   2  -7  -3   70.69    2.00
   2  -7  -3   72.79    2.30
   2  -7  -3   73.79    1.80
   2  -7  -3   70.29    2.70
   2  -7  -3   75.39    2.90
   1  -7  -3    2.50    0.70
   1  -7  -3    1.70    0.70
   1  -7  -3    2.20    0.80
   1  -7  -3    1.80    0.70
   1  -7  -3    1.40    0.40
   1  -7  -3   -0.10    1.40
   1  -7  -3    1.60    0.90
   1  -7  -3    0.80    0.80
   0  -7  -3    1.50    1.10
   0  -7  -3    4.00    0.70
   0  -7  -3    2.50    0.50
   0  -7  -3    2.80    0.60
   0  -7  -3    2.90    0.50
   0  -7  -3    3.50    0.80
   0  -7  -3    3.30    0.50
  -1  -7  -3    8.70    0.90
  -1  -7  -3    8.00    0.90
  -1  -7  -3    9.80    0.90
  -1  -7  -3    7.90    1.10
  -1  -7  -3    8.30    0.70
  -1  -7  -3    9.50    0.70
  -2  -7  -3    1.20    0.60
  -2  -7  -3    1.10    0.60
  -2  -7  -3    0.80    0.50
  -2  -7  -3    2.50    0.80
  -2  -7  -3    1.50    0.60
  -2  -7  -3    2.20    0.70
  -2  -7  -3    2.30    0.90
  -3  -7  -3   18.90    1.50
  -3  -7  -3   19.60    1.30
  -3  -7  -3   17.70    1.20
  -3  -7  -3   17.90    1.10
  -3  -7  -3   16.60    1.50
  -3  -7  -3   16.90    1.00
  -4  -7  -3    7.30    0.80
  -4  -7  -3    5.30    0.90
  -4  -7  -3    9.30    0.90
  -4  -7  -3    6.90    0.60
  -4  -7  -3    7.80    0.90
  -5  -7  -3   10.10    0.70
  -5  -7  -3    9.10    0.90
  -5  -7  -3   10.70    1.20
  -5  -7  -3   10.10    1.00
  -5  -7  -3    9.40    0.70
  -5  -7  -3   10.70    0.90
  -5  -7  -3   11.90    1.10
  -6  -7  -3    3.90    0.40
  -6  -7  -3    4.30    1.40
  -6  -7  -3    3.40    0.80
  -6  -7  -3    3.40    0.70
  -6  -7  -3    4.70    0.70
  -6  -7  -3    4.50    0.90
  -6  -7  -3    3.90    0.90
   6   7   3    3.00    0.40
   6   7   3    3.80    0.40
  -7  -7  -3   35.20    1.30
  -7  -7  -3   36.40    1.00
  -7  -7  -3   29.70    2.30
  -7  -7  -3   34.60    1.80
  -7  -7  -3   40.80    2.00
  -7  -7  -3   47.20    3.60
  -7  -7  -3   40.50    3.30
   7   7   3   36.50    1.60
   7   7   3   37.30    1.50
   7   7   3   40.00    1.50
  -8  -7  -3    2.50    1.20
  -8  -7  -3    1.40    1.30
  -8  -7  -3    0.00    1.60
   8   7   3    0.30    0.80
   8   7   3    0.40    0.90
   8   7   3    0.70    0.90
   8   7   3    0.60    0.60
  -9  -7  -3   56.69    3.10
   9   7   3   56.69    2.30
   9   7   3   52.89    2.80
   2  -8  -3   -1.20    1.50
   2  -8  -3    0.40    1.20
   2  -8  -3   -2.50    1.40
   1  -8  -3   82.39    2.80
   1  -8  -3   82.29    2.10
   1  -8  -3   86.99    2.70
   1  -8  -3   86.19    3.30
   1  -8  -3   82.39    2.50
   1  -8  -3   84.09    2.60
   0  -8  -3    0.60    1.00
   0  -8  -3    1.80    1.50
   0  -8  -3    0.90    0.50
   0  -8  -3    0.30    0.70
   0  -8  -3    0.10    0.90
  -1  -8  -3    1.00    1.30
  -1  -8  -3    2.20    0.90
  -1  -8  -3    2.00    0.90
  -1  -8  -3    1.40    1.00
  -1  -8  -3    1.90    0.40
  -1  -8  -3    1.30    0.60
  -1  -8  -3    2.30    0.90
  -2  -8  -3    4.80    0.90
  -2  -8  -3    2.20    0.70
  -2  -8  -3    3.00    1.20
  -2  -8  -3    2.90    0.90
  -2  -8  -3    4.20    0.90
  -2  -8  -3    4.20    0.90
  -2  -8  -3    3.90    0.80
  -3  -8  -3    0.80    1.10
  -3  -8  -3    1.60    0.70
  -3  -8  -3    0.90    0.90
  -3  -8  -3    0.70    0.70
  -3  -8  -3    0.70    0.80
  -3  -8  -3    0.40    0.70
  -3  -8  -3    0.10    0.70
  -3  -8  -3    0.20    1.00
  -4  -8  -3   37.90    1.50
  -4  -8  -3   37.10    2.30
  -4  -8  -3   39.50    2.10
  -4  -8  -3   41.30    1.60
  -4  -8  -3   39.30    2.00
  -4  -8  -3   39.90    1.80
  -5  -8  -3   21.10    1.60
  -5  -8  -3   20.70    1.00
  -5  -8  -3   19.00    1.30
  -5  -8  -3   21.10    1.50
  -5  -8  -3   20.60    1.60
  -5  -8  -3   18.90    1.60
  -6  -8  -3    4.80    0.50
  -6  -8  -3    4.30    0.80
  -6  -8  -3    5.90    0.80
  -6  -8  -3    7.00    1.00
  -6  -8  -3    5.60    0.90
  -6  -8  -3    3.60    1.70
  -6  -8  -3    4.60    1.10
  -7  -8  -3   10.40    1.40
  -7  -8  -3    7.10    0.70
  -7  -8  -3    8.10    1.10
  -7  -8  -3    6.90    0.90
  -8  -8  -3   -1.00    1.40
  -8  -8  -3    0.50    1.50
   8   8   3   -0.30    0.80
   8   8   3   -0.10    0.70
   0  -9  -3   30.10    2.60
   0  -9  -3   31.20    1.30
   0  -9  -3   32.50    2.80
   0  -9  -3   28.70    1.50
  -1  -9  -3    2.90    1.40
  -1  -9  -3    3.10    1.20
  -1  -9  -3    1.10    1.40
  -1  -9  -3    1.80    1.30
  -1  -9  -3    0.00    1.70
  -1  -9  -3    2.40    0.70
  -2  -9  -3   49.99    3.30
  -2  -9  -3   55.49    2.40
  -2  -9  -3   52.39    2.70
  -2  -9  -3   50.59    2.40
  -2  -9  -3   47.90    2.60
  -2  -9  -3   51.29    2.20
  -2  -9  -3   55.79    2.60
  -3  -9  -3    9.80    1.10
  -3  -9  -3   11.70    1.70
  -3  -9  -3    9.20    1.40
  -3  -9  -3   12.50    1.20
  -3  -9  -3   11.00    1.20
  -3  -9  -3   10.90    1.20
  -3  -9  -3   11.60    1.50
  -3  -9  -3    8.70    1.00
  -4  -9  -3    0.60    1.10
  -4  -9  -3   -0.20    1.30
  -4  -9  -3   -0.20    1.40
  -4  -9  -3   -1.00    0.80
  -4  -9  -3   -1.40    1.40
  -4  -9  -3    0.90    1.00
  -4  -9  -3   -0.60    1.40
  -5  -9  -3   31.90    1.70
  -5  -9  -3   33.30    2.60
  -5  -9  -3   33.50    1.60
  -5  -9  -3   31.40    2.10
  -6  -9  -3    5.90    1.50
  -6  -9  -3    7.20    1.10
  -6  -9  -3    6.30    0.70
  -6  -9  -3    7.30    0.70
  -6  -9  -3    5.10    1.30
  -7  -9  -3   13.20    2.00
  -7  -9  -3   12.70    1.60
  -2 -10  -3   30.10    2.40
  -2 -10  -3   28.10    2.00
  -2 -10  -3   30.20    2.80
  -2 -10  -3   32.40    2.20
  -3 -10  -3   10.00    1.40
  -3 -10  -3    8.80    1.50
  -3 -10  -3    9.50    1.50
  -3 -10  -3    6.80    1.40
  -3 -10  -3    6.60    2.00
  -3 -10  -3    8.20    1.40
  -4 -10  -3    0.40    1.30
  -4 -10  -3    3.20    1.40
  -4 -10  -3    1.00    1.30
  -4 -10  -3   -1.30    2.20
  -4 -10  -3    2.20    1.20
  -4 -10  -3    2.20    1.10
  -5 -10  -3    5.40    1.70
  -5 -10  -3    8.30    1.30
  -5 -10  -3    5.40    1.00
  -5 -10  -3    7.50    1.50
  -5 -10  -3    8.60    3.10
  -6 -10  -3   26.10    2.30
  -6 -10  -3   27.60    1.90
  -6 -10  -3   33.40    2.90
  -3 -10   4   67.59    3.00
   6   9  -4    7.20    0.90
   6   9  -4    8.50    1.10
  -6  -9   4    6.50    1.60
  -6  -9   4    7.40    1.20
  -5  -9   4    1.60    1.40
  -5  -9   4    3.10    1.00
  -4  -9   4   45.50    2.60
  -4  -9   4   38.60    2.70
  -4  -9   4   52.49    2.20
  -4  -9   4   48.70    2.60
  -3  -9   4   34.50    2.30
  -3  -9   4   42.90    2.20
  -3  -9   4   35.20    2.20
  -2  -9   4    1.20    1.00
  -2  -9   4    0.50    0.60
  -2  -9   4    1.10    1.10
  -2  -9   4   -0.20    0.60
  -2  -9   4    0.60    1.00
  -2  -9   4    0.00    0.60
  -1  -9   4    8.20    1.00
  -1  -9   4    7.90    0.90
  -1  -9   4    7.30    1.40
  -1  -9   4    6.20    0.80
  -1  -9   4    8.60    1.20
  -1  -9   4    6.40    0.90
   0  -9   4   11.90    1.30
   0  -9   4   12.30    1.50
   0  -9   4    9.90    0.90
   1  -9   4    4.70    2.50
   1  -9   4    3.30    1.30
   1  -9   4    3.40    1.50
   7   8  -4    1.60    1.60
   7   8  -4    0.30    1.40
   7   8  -4    2.70    1.90
  -7  -8   4    1.60    0.90
  -7  -8   4    1.60    1.40
   6   8  -4    0.40    0.80
   6   8  -4    1.60    1.10
   6   8  -4    3.10    1.60
  -6  -8   4    1.70    1.20
  -6  -8   4    0.70    0.80
   5   8  -4   71.39    3.10
   5   8  -4   67.99    2.40
   5   8  -4   68.89    2.10
  -5  -8   4   84.69    4.30
  -5  -8   4   69.69    2.30
  -5  -8   4   71.69    2.70
  -5  -8   4   69.59    3.00
   4   8  -4    7.40    0.80
   4   8  -4    6.90    1.20
   4   8  -4    7.40    0.70
  -4  -8   4    8.10    1.20
  -4  -8   4    6.60    0.90
  -4  -8   4    6.90    1.20
  -4  -8   4    6.00    1.10
   3   8  -4   23.50    1.00
   3   8  -4   24.10    1.00
  -3  -8   4   26.20    2.20
  -3  -8   4   23.10    1.20
  -3  -8   4   25.60    1.50
  -3  -8   4   26.80    1.50
  -3  -8   4   21.60    1.70
  -3  -8   4   22.30    1.50
  -2  -8   4  106.79    2.70
  -2  -8   4  105.09    2.40
  -2  -8   4  103.59    2.80
  -2  -8   4   99.59    2.90
  -2  -8   4  113.39    3.10
  -2  -8   4  102.69    2.80
  -2  -8   4  107.29    2.50
  -2  -8   4  104.59    3.40
  -1  -8   4   53.69    1.70
  -1  -8   4   49.90    1.80
  -1  -8   4   51.69    1.60
  -1  -8   4   56.49    2.20
  -1  -8   4   48.10    2.20
  -1  -8   4   47.70    2.50
   0  -8   4    4.70    0.70
   0  -8   4    6.20    0.90
   0  -8   4    4.70    0.80
   0  -8   4    4.20    0.50
   0  -8   4    5.40    1.00
  -1   8  -4   11.30    1.10
  -1   8  -4    8.40    0.90
   1  -8   4   12.00    1.20
   1  -8   4   10.50    0.90
   1  -8   4    9.80    1.40
   1  -8   4   11.10    1.10
  -2   8  -4    2.80    0.70
   2  -8   4    5.10    1.20
   2  -8   4    3.50    1.00
   2  -8   4    3.90    1.50
   3  -8   4    1.70    1.50
  -8  -7   4    3.10    1.10
  -8  -7   4    3.90    1.70
   7   7  -4    7.00    1.70
   7   7  -4    6.80    1.40
   7   7  -4    6.30    1.60
   7   7  -4    6.90    1.20
   7   7  -4    6.80    1.50
  -7  -7   4    5.00    1.30
  -7  -7   4    6.30    1.00
   6   7  -4   56.79    2.30
   6   7  -4   51.39    2.90
   6   7  -4   61.09    2.60
   6   7  -4   59.19    2.50
   6   7  -4   57.79    2.10
  -6  -7   4   58.69    2.50
  -6  -7   4   55.49    2.90
  -6  -7   4   59.79    2.00
   5   7  -4   18.10    1.10
   5   7  -4   21.50    1.30
   5   7  -4   21.10    1.60
   5   7  -4   19.90    1.90
   5   7  -4   18.60    1.50
  -5  -7   4   21.20    1.90
  -5  -7   4   20.60    1.80
  -5  -7   4   18.30    1.40
  -5  -7   4   19.90    1.60
  -5  -7   4   21.80    1.50
   4   7  -4    2.20    0.50
   4   7  -4    2.40    0.70
   4   7  -4    2.40    1.20
   4   7  -4    3.30    0.60
  -4  -7   4    1.50    0.90
  -4  -7   4    2.90    0.70
  -4  -7   4    2.20    0.60
  -4  -7   4    2.40    0.80
  -4  -7   4    3.20    1.00
  -4  -7   4    2.30    0.90
   3   7  -4    2.40    0.50
   3   7  -4    2.60    0.60
   3   7  -4    1.70    0.80
  -3  -7   4    2.10    0.70
  -3  -7   4    2.10    0.60
  -3  -7   4    3.70    1.00
  -3  -7   4    2.40    0.50
  -3  -7   4    2.00    0.60
  -3  -7   4    2.90    0.80
   2   7  -4   86.79    2.60
   2   7  -4   92.29    2.30
  -2  -7   4   87.19    2.00
  -2  -7   4   86.39    2.30
  -2  -7   4   81.99    2.40
  -2  -7   4   85.79    2.40
  -2  -7   4   89.19    2.00
  -2  -7   4   83.49    3.10
  -2  -7   4   88.59    2.20
  -2  -7   4   82.59    2.70
   1   7  -4   67.29    2.10
   1   7  -4   80.19    2.10
  -1  -7   4   73.69    2.30
  -1  -7   4   81.09    2.10
  -1  -7   4   81.99    2.40
  -1  -7   4   79.29    2.10
  -1  -7   4   81.59    2.00
  -1  -7   4   81.79    2.70
  -1  -7   4   80.19    2.20
   0   7  -4    7.70    0.80
   0   7  -4    7.50    0.80
   0  -7   4    7.10    0.90
   0  -7   4    6.50    0.60
   0  -7   4    8.50    0.70
   0  -7   4    7.50    0.50
   0  -7   4    7.20    0.70
   0  -7   4    8.60    1.10
   0  -7   4    7.80    1.00
  -1   7  -4   33.00    1.20
  -1   7  -4   31.70    1.60
   1  -7   4   34.30    2.20
   1  -7   4   34.30    1.60
   1  -7   4   35.60    1.90
   1  -7   4   32.30    2.00
   1  -7   4   36.20    1.60
   1  -7   4   33.60    1.40
  -2   7  -4   49.70    2.30
  -2   7  -4   46.70    1.60
  -2   7  -4   47.80    2.10
   2  -7   4   46.60    2.00
   2  -7   4   42.80    2.40
   2  -7   4   48.20    1.90
   2  -7   4   47.00    2.10
   2  -7   4   48.50    2.40
  -3   7  -4    3.80    0.90
  -3   7  -4    5.00    1.30
  -3   7  -4    3.70    1.60
  -3   7  -4    3.80    1.30
   3  -7   4    2.40    1.00
   3  -7   4    3.60    1.10
   3  -7   4    2.10    1.30
   3  -7   4    4.40    1.30
  -4   7  -4   10.30    1.80
  -4   7  -4    8.20    1.20
   4  -7   4    7.80    1.50
   4  -7   4    9.30    1.50
   4  -7   4    7.80    1.70
   8   6  -4    7.60    2.00
   8   6  -4    4.30    1.40
   8   6  -4    5.30    1.90
  -8  -6   4    7.20    1.40
  -8  -6   4    3.40    1.00
   7   6  -4    6.30    1.60
   7   6  -4    7.50    1.60
   7   6  -4    8.60    1.30
   7   6  -4    7.60    1.10
  -7  -6   4   10.00    1.80
  -7  -6   4    6.50    1.20
  -7  -6   4    6.90    0.90
   6   6  -4    1.00    0.70
   6   6  -4   -0.20    1.00
   6   6  -4    0.40    1.00
   6   6  -4    0.30    0.80
   6   6  -4    0.10    0.80
  -6  -6   4    1.40    1.10
  -6  -6   4    0.70    0.60
  -6  -6   4    0.40    0.80
  -6  -6   4   -0.10    1.00
  -6  -6   4   -1.60    1.10
   5   6  -4    2.40    0.70
   5   6  -4    2.20    0.60
   5   6  -4    1.50    0.90
   5   6  -4    1.60    0.80
   5   6  -4    3.10    0.80
  -5  -6   4    1.80    0.80
  -5  -6   4    1.90    0.70
  -5  -6   4    1.50    0.50
  -5  -6   4    1.70    0.80
   4   6  -4    3.40    0.70
   4   6  -4    3.20    0.70
   4   6  -4    3.30    0.60
   4   6  -4    3.20    0.50
   4   6  -4    3.10    0.80
  -4  -6   4    4.10    0.50
  -4  -6   4    4.10    0.80
  -4  -6   4    2.50    0.60
  -4  -6   4    5.10    0.80
  -4  -6   4    2.30    0.70
  -4  -6   4    3.10    0.80
   3   6  -4   81.69    2.00
   3   6  -4   80.49    2.50
   3   6  -4   78.79    2.30
   3   6  -4   83.19    2.50
   3   6  -4   82.59    2.20
  -3  -6   4   83.99    2.20
  -3  -6   4   85.59    2.50
  -3  -6   4   80.59    2.30
  -3  -6   4   81.09    2.20
  -3  -6   4   82.49    2.20
  -3  -6   4   82.49    2.30
   2   6  -4   42.90    1.80
   2   6  -4   40.30    1.30
   2   6  -4   38.00    1.30
   2   6  -4   38.10    1.20
  -2  -6   4   37.30    1.40
  -2  -6   4   40.40    1.60
  -2  -6   4   37.50    1.40
  -2  -6   4   37.90    1.30
  -2  -6   4   39.40    1.40
  -2  -6   4   38.60    0.90
  -2  -6   4   39.10    1.00
  -2  -6   4   38.40    1.20
   1   6  -4    1.00    0.50
   1   6  -4    1.30    0.50
   1   6  -4    0.40    0.30
  -1  -6   4    1.20    0.50
  -1  -6   4    0.80    0.30
  -1  -6   4    0.90    0.40
  -1  -6   4    1.10    0.40
  -1  -6   4    1.40    0.70
  -1  -6   4    0.10    0.50
  -1  -6   4    1.50    0.40
   0   6  -4    0.70    0.50
   0  -6   4    1.20    0.40
   0  -6   4    1.00    0.60
   0  -6   4    0.20    0.30
   0  -6   4    1.10    0.50
   0  -6   4    0.70    0.40
   0  -6   4    1.70    0.60
   0  -6   4    0.80    0.70
  -1   6  -4    0.80    0.70
  -1   6  -4   -0.10    0.60
  -1   6  -4   -0.60    0.60
  -1   6  -4   -0.20    0.40
   1  -6   4    0.50    0.50
   1  -6   4    0.60    0.50
   1  -6   4   -0.40    0.60
   1  -6   4    0.70    0.80
   1  -6   4    1.60    0.80
   1  -6   4   -0.50    0.40
   1  -6   4    0.30    0.20
  -2   6  -4   89.09    2.70
  -2   6  -4   88.89    2.40
  -2   6  -4   92.89    2.80
  -2   6  -4   90.59    2.70
   2  -6   4   90.39    2.60
   2  -6   4   86.99    2.70
   2  -6   4   82.39    3.00
   2  -6   4   90.69    2.80
   2  -6   4   92.59    2.60
   2  -6   4   89.59    2.60
  -3   6  -4   22.00    1.40
  -3   6  -4   18.30    1.70
  -3   6  -4   20.80    2.00
  -3   6  -4   22.80    1.90
   3  -6   4   23.30    1.90
   3  -6   4   23.60    1.80
   3  -6   4   25.90    1.70
   3  -6   4   20.10    1.80
   3  -6   4   17.90    1.80
   3  -6   4   24.60    1.70
   3  -6   4   22.60    1.60
  -4   6  -4    2.50    1.20
  -4   6  -4    2.20    1.00
  -4   6  -4    2.10    1.30
   4  -6   4    2.60    1.30
   4  -6   4    3.40    1.20
   4  -6   4    3.40    1.30
   4  -6   4    1.80    1.00
  -5   6  -4   30.40    2.70
  -5   6  -4   28.40    2.40
   5  -6   4   31.50    2.60
   5  -6   4   24.20    2.00
   5  -6   4   30.90    2.60
   8   5  -4   -0.30    1.10
   8   5  -4    2.30    2.00
   8   5  -4   -0.40    1.70
   8   5  -4    0.00    0.60
  -8  -5   4   -2.90    2.20
  -8  -5   4   -0.80    1.10
  -8  -5   4    1.20    1.20
   7   5  -4   31.40    1.70
   7   5  -4   33.90    2.60
   7   5  -4   32.20    2.50
   7   5  -4   28.10    2.00
   7   5  -4   33.60    2.40
   7   5  -4   30.80    1.00
  -7  -5   4   28.90    2.70
  -7  -5   4   31.60    1.50
  -7  -5   4   32.10    2.00
  -7  -5   4   31.50    2.50
   6   5  -4   21.30    2.00
   6   5  -4   24.10    2.00
   6   5  -4   23.80    1.40
   6   5  -4   23.10    1.90
   6   5  -4   23.00    1.40
  -6  -5   4   25.30    1.20
  -6  -5   4   23.00    1.80
  -6  -5   4   26.20    1.80
  -6  -5   4   22.60    1.50
   5   5  -4   91.99    2.40
   5   5  -4   94.39    2.50
   5   5  -4   94.09    2.60
   5   5  -4   85.09    2.80
   5   5  -4   91.59    2.90
  -5  -5   4   93.79    2.60
  -5  -5   4   97.29    2.90
  -5  -5   4   95.29    2.70
  -5  -5   4   94.19    2.40
  -5  -5   4   91.19    2.70
   4   5  -4    7.30    0.80
   4   5  -4    8.60    0.90
   4   5  -4    9.00    0.90
   4   5  -4    7.00    0.70
   4   5  -4    9.10    0.80
  -4  -5   4    8.80    0.70
  -4  -5   4    7.00    0.70
  -4  -5   4    8.00    0.80
   3   5  -4    5.20    0.70
   3   5  -4    5.00    0.60
   3   5  -4    6.60    0.70
   3   5  -4    5.70    0.60
   3   5  -4    4.30    0.60
  -3  -5   4    4.70    0.50
  -3  -5   4    5.50    0.70
  -3  -5   4    5.40    0.50
  -3  -5   4    7.30    0.70
  -3  -5   4    6.20    0.70
   2   5  -4    1.30    0.40
   2   5  -4    1.80    0.40
   2   5  -4    2.40    0.60
   2   5  -4    2.10    0.40
   2   5  -4    2.00    0.70
  -2  -5   4    2.10    0.40
  -2  -5   4    1.80    0.40
  -2  -5   4    1.30    0.50
  -2  -5   4    2.00    0.30
  -2  -5   4    0.90    0.40
  -2  -5   4    1.50    0.40
   1   5  -4    1.20    0.40
   1   5  -4    1.20    0.40
   1   5  -4    1.10    0.30
   1   5  -4    1.50    0.50
  -1  -5   4    0.80    0.40
  -1  -5   4    1.10    0.40
  -1  -5   4    0.50    0.40
  -1  -5   4    1.50    0.40
  -1  -5   4    1.60    0.30
  -1  -5   4    1.00    0.50
  -1  -5   4    1.00    0.30
   0   5  -4   48.30    1.60
   0   5  -4   48.70    1.50
   0   5  -4   49.20    1.60
   0   5  -4   48.10    1.40
   0   5  -4   49.80    1.40
   0   5  -4   50.59    1.40
   0  -5   4   49.40    1.40
   0  -5   4   47.80    1.30
   0  -5   4   49.10    1.60
   0  -5   4   48.50    1.60
   0  -5   4   47.70    1.40
   0  -5   4   49.80    1.50
   0  -5   4   49.90    1.60
  -1   5  -4   -0.10    0.50
  -1   5  -4   -0.20    0.50
  -1   5  -4   -0.20    0.40
  -1   5  -4    0.30    0.30
   1  -5   4    0.20    0.40
   1  -5   4   -0.40    0.50
   1  -5   4    0.30    0.20
   1  -5   4    0.00    0.40
   1  -5   4    0.00    0.40
   1  -5   4    0.30    0.60
   1  -5   4   -0.50    0.60
  -2   5  -4    0.40    0.70
  -2   5  -4    0.10    0.60
  -2   5  -4   -0.40    0.60
  -2   5  -4    0.60    0.50
   2  -5   4    0.30    0.60
   2  -5   4   -0.10    0.50
   2  -5   4   -0.20    0.60
   2  -5   4    0.30    0.50
   2  -5   4   -0.80    0.50
   2  -5   4   -0.60    0.80
  -3   5  -4   53.29    2.30
  -3   5  -4   48.80    2.00
  -3   5  -4   46.30    2.30
  -3   5  -4   49.70    1.80
   3  -5   4   47.10    2.20
   3  -5   4   47.80    1.90
   3  -5   4   50.39    1.80
   3  -5   4   49.99    2.50
   3  -5   4   49.90    2.40
   3  -5   4   49.99    1.90
   3  -5   4   51.69    2.00
  -4   5  -4    1.50    1.10
  -4   5  -4    4.30    1.00
  -4   5  -4    3.90    0.90
  -4   5  -4    5.20    1.20
   4  -5   4    2.90    0.90
   4  -5   4    5.00    1.50
   4  -5   4    4.00    1.00
   4  -5   4    3.90    0.90
   4  -5   4    3.30    1.00
   4  -5   4    3.70    1.40
   4  -5   4    4.50    1.10
  -5   5  -4    2.50    1.10
  -5   5  -4    2.40    1.10
   5  -5   4    3.10    1.20
   5  -5   4    4.20    1.40
   5  -5   4    3.10    1.10
   5  -5   4    2.80    1.40
   5  -5   4    3.20    2.70
  -6   5  -4   14.80    1.80
  -6   5  -4   16.70    1.80
   6  -5   4   16.00    1.90
   6  -5   4   13.30    1.60
   6  -5   4   15.80    2.00
   8   4  -4    3.10    2.00
   8   4  -4    2.60    0.70
   8   4  -4    2.20    1.10
   8   4  -4    2.40    2.60
   8   4  -4    3.60    1.50
  -8  -4   4    1.20    1.60
  -8  -4   4    1.60    1.10
  -8  -4   4    2.10    1.10
  -8  -4   4    4.00    1.90
   7   4  -4   40.90    2.80
   7   4  -4   42.00    1.30
   7   4  -4   43.80    2.30
   7   4  -4   39.80    2.40
   7   4  -4   38.80    1.70
   7   4  -4   34.90    2.00
  -7  -4   4   37.20    2.10
  -7  -4   4   39.70    1.50
  -7  -4   4   41.70    2.00
  -7  -4   4   40.50    1.80
  -7  -4   4   42.10    2.50
  -7  -4   4   42.80    2.90
   6   4  -4    0.20    0.60
   6   4  -4    0.90    0.70
   6   4  -4    0.80    0.30
   6   4  -4    0.60    0.90
   6   4  -4    0.30    0.60
   6   4  -4    1.00    0.90
  -6  -4   4    0.70    0.80
  -6  -4   4    0.60    1.10
  -6  -4   4    0.30    0.70
  -6  -4   4    0.90    0.80
  -6  -4   4    0.20    0.50
  -6  -4   4    0.30    0.40
   5   4  -4  127.39    3.40
   5   4  -4  116.99    3.50
   5   4  -4  127.49    3.00
   5   4  -4  125.59    2.70
   5   4  -4  127.29    3.30
   5   4  -4  120.79    3.10
  -5  -4   4  124.69    3.00
  -5  -4   4  118.99    3.20
  -5  -4   4  129.79    3.40
  -5  -4   4  125.09    3.10
  -5  -4   4  124.99    3.60
   4   4  -4   36.30    1.50
   4   4  -4   34.40    1.30
   4   4  -4   34.00    1.60
   4   4  -4   34.40    1.20
  -4  -4   4   36.20    1.40
  -4  -4   4   34.80    1.20
  -4  -4   4   35.50    1.40
  -4  -4   4   35.60    1.30
  -4  -4   4   35.60    1.60
   3   4  -4   33.50    1.30
   3   4  -4   34.90    1.10
   3   4  -4   36.00    1.20
   3   4  -4   35.20    1.20
   3   4  -4   37.10    1.40
  -3  -4   4   34.60    1.30
  -3  -4   4   37.10    1.10
  -3  -4   4   35.00    1.30
  -3  -4   4   36.80    1.30
   2   4  -4  268.47    5.70
   2   4  -4  273.37    5.90
   2   4  -4  273.57    5.90
   2   4  -4  256.47    5.90
   2   4  -4  260.57    5.90
  -2  -4   4  272.57    5.90
  -2  -4   4  259.87    5.80
  -2  -4   4  270.07    5.80
  -2  -4   4  276.37    5.80
  -2  -4   4  260.07    5.90
  -2  -4   4  269.07    5.80
   1   4  -4    0.10    0.40
   1   4  -4    0.30    0.30
   1   4  -4   -0.10    0.30
   1   4  -4    0.30    0.30
   1   4  -4    0.20    0.30
  -1  -4   4    0.20    0.30
  -1  -4   4    0.60    0.40
  -1  -4   4    0.20    0.20
  -1  -4   4    0.40    0.20
  -1  -4   4    0.40    0.30
  -1  -4   4    0.20    0.30
  -1  -4   4    0.20    0.30
   0   4  -4  139.99    3.20
   0   4  -4  139.69    3.10
   0   4  -4  135.79    3.10
   0   4  -4  139.69    3.10
   0   4  -4  135.89    3.30
   0   4  -4  140.49    3.30
   0  -4   4  131.59    3.20
   0  -4   4  140.89    3.30
   0  -4   4  138.19    3.00
   0  -4   4  139.09    3.20
   0  -4   4  135.69    3.10
   0  -4   4  135.29    3.20
   0  -4   4  134.19    3.00
  -1   4  -4    0.50    0.30
  -1   4  -4   -0.10    0.40
  -1   4  -4    0.70    0.40
  -1   4  -4    0.20    0.20
  -1   4  -4    0.10    0.40
  -1   4  -4    0.20    0.80
   1  -4   4    0.00    0.30
   1  -4   4    0.10    0.40
   1  -4   4    0.20    0.20
   1  -4   4    0.60    0.30
   1  -4   4    0.30    0.40
   1  -4   4   -0.20    0.40
   1  -4   4    0.80    0.30
  -2   4  -4   25.40    1.10
  -2   4  -4   25.10    1.30
  -2   4  -4   23.30    1.10
  -2   4  -4   23.40    1.20
   2  -4   4   24.60    1.10
   2  -4   4   25.70    1.40
   2  -4   4   24.50    1.10
   2  -4   4   24.40    1.20
   2  -4   4   24.10    1.10
   2  -4   4   25.30    1.20
  -3   4  -4    2.50    0.70
  -3   4  -4    2.40    0.60
  -3   4  -4    2.40    0.70
  -3   4  -4    3.60    0.60
   3  -4   4    2.40    0.90
   3  -4   4    4.30    0.60
   3  -4   4    2.50    0.70
   3  -4   4    2.50    0.80
   3  -4   4    3.40    0.90
   3  -4   4    1.80    0.60
   3  -4   4    2.20    0.60
  -4   4  -4   61.59    2.10
  -4   4  -4   66.29    2.40
  -4   4  -4   63.99    2.20
   4  -4   4   65.89    2.50
   4  -4   4   60.89    2.70
   4  -4   4   64.19    2.80
   4  -4   4   63.59    2.10
   4  -4   4   63.09    2.30
   4  -4   4   67.49    2.20
   4  -4   4   63.69    2.30
  -5   4  -4    1.30    0.90
  -5   4  -4    0.90    1.20
  -5   4  -4   -0.60    1.20
  -5   4  -4    1.10    0.90
   5  -4   4   -0.10    1.40
   5  -4   4   -0.40    1.20
   5  -4   4    1.30    1.00
   5  -4   4    0.80    1.20
   5  -4   4   -1.60    1.00
   5  -4   4   -0.40    1.00
   5  -4   4    0.20    0.80
  -6   4  -4   16.50    1.90
  -6   4  -4   14.30    1.40
  -6   4  -4   17.30    1.70
   6  -4   4   16.40    1.50
   6  -4   4   14.50    1.70
   6  -4   4   16.50    1.60
   6  -4   4   14.50    1.70
   6  -4   4   15.20    1.70
   6  -4   4   13.20    2.30
  -7   4  -4   11.10    1.70
  -7   4  -4    7.80    1.90
   7  -4   4   12.40    2.30
   7  -4   4    7.50    1.90
   7  -4   4    9.20    1.90
   8   3  -4   17.60    1.50
   8   3  -4   16.00    2.30
   8   3  -4   13.00    1.20
   8   3  -4   16.80    1.80
   8   3  -4   17.20    2.00
  -8  -3   4   12.70    2.10
  -8  -3   4   13.70    1.30
  -8  -3   4   14.10    1.50
  -8  -3   4   16.20    1.40
  -8  -3   4   14.00    2.10
   7   3  -4   14.00    1.10
   7   3  -4   14.80    1.50
   7   3  -4   14.80    1.80
   7   3  -4   14.30    1.00
   7   3  -4   12.80    1.30
   7   3  -4   10.50    1.20
  -7  -3   4   12.80    1.10
  -7  -3   4   12.70    1.00
  -7  -3   4   13.20    1.60
  -7  -3   4   15.30    1.20
  -7  -3   4   13.80    1.70
  -7  -3   4   11.90    1.00
   6   3  -4    4.60    0.60
   6   3  -4    5.10    1.20
   6   3  -4    4.40    0.50
   6   3  -4    4.40    1.10
   6   3  -4    4.80    0.90
   6   3  -4    3.80    0.70
  -6  -3   4    5.30    0.80
  -6  -3   4    4.90    1.00
  -6  -3   4    3.20    1.10
  -6  -3   4    4.20    0.70
  -6  -3   4    2.90    0.70
  -6  -3   4    4.90    0.60
   5   3  -4   97.59    2.40
   5   3  -4   91.49    2.70
   5   3  -4   94.69    2.20
   5   3  -4   95.39    2.70
   5   3  -4   91.89    2.50
   5   3  -4   90.29    2.90
  -5  -3   4   91.99    2.20
  -5  -3   4   91.09    2.50
  -5  -3   4   90.39    2.90
  -5  -3   4   93.79    2.40
  -5  -3   4   95.39    2.50
   4   3  -4    0.00    0.50
   4   3  -4   -0.30    0.50
   4   3  -4   -0.50    0.40
   4   3  -4    0.00    0.20
   4   3  -4    0.40    0.50
   4   3  -4    0.70    0.30
  -4  -3   4    0.00    0.60
  -4  -3   4    0.50    0.40
  -4  -3   4    0.10    0.40
  -4  -3   4    0.30    0.40
  -4  -3   4    0.60    0.30
   3   3  -4   30.60    1.00
   3   3  -4   29.30    1.20
   3   3  -4   29.20    1.20
   3   3  -4   29.30    1.10
   3   3  -4   31.50    1.00
  -3  -3   4   29.20    1.20
  -3  -3   4   31.00    1.10
  -3  -3   4   30.60    1.00
  -3  -3   4   32.00    1.10
  -3  -3   4   30.80    1.20
   2   3  -4    3.90    0.40
   2   3  -4    3.70    0.40
   2   3  -4    3.50    0.40
   2   3  -4    3.60    0.40
  -2  -3   4    2.60    0.40
  -2  -3   4    3.10    0.30
  -2  -3   4    3.50    0.40
  -2  -3   4    3.80    0.40
  -2  -3   4    2.60    0.30
  -2  -3   4    2.90    0.40
   1   3  -4   57.19    1.50
   1   3  -4   58.09    1.50
   1   3  -4   58.69    1.50
   1   3  -4   58.09    1.30
   1   3  -4   59.69    1.50
   1   3  -4   58.59    1.60
  -1  -3   4   57.89    1.50
  -1  -3   4   58.39    1.60
  -1  -3   4   60.89    1.50
  -1  -3   4   58.99    1.20
  -1  -3   4   58.99    1.60
  -1  -3   4   56.39    1.50
  -1  -3   4   57.69    1.50
   0   3  -4   33.50    1.00
   0   3  -4   33.00    1.00
   0   3  -4   33.60    1.10
   0   3  -4   33.30    1.10
   0   3  -4   32.50    0.90
   0   3  -4   34.00    1.10
   0   3  -4   33.50    0.90
   0  -3   4   30.70    1.00
   0  -3   4   33.20    0.90
   0  -3   4   31.60    0.90
   0  -3   4   32.70    1.10
   0  -3   4   31.80    1.00
   0  -3   4   32.50    1.00
   0  -3   4   32.20    1.10
  -1   3  -4   39.00    1.20
  -1   3  -4   40.70    1.00
  -1   3  -4   40.80    1.30
  -1   3  -4   40.10    1.30
  -1   3  -4   40.70    1.20
  -1   3  -4   40.20    1.30
   1  -3   4   41.10    1.20
   1  -3   4   40.70    1.00
   1  -3   4   40.90    1.20
   1  -3   4   40.70    1.20
   1  -3   4   39.90    1.10
   1  -3   4   39.50    1.20
   1  -3   4   41.80    1.30
  -2   3  -4   53.89    1.60
  -2   3  -4   57.29    1.60
  -2   3  -4   54.79    1.80
  -2   3  -4   57.99    1.60
   2  -3   4   58.49    1.60
   2  -3   4   53.89    1.80
   2  -3   4   54.59    1.50
   2  -3   4   54.59    1.60
   2  -3   4   57.99    1.70
   2  -3   4   55.99    1.70
  -3   3  -4   76.09    2.40
  -3   3  -4   75.19    2.20
  -3   3  -4   76.59    2.20
  -3   3  -4   78.79    2.10
   3  -3   4   63.29    2.40
   3  -3   4   76.39    2.10
   3  -3   4   75.29    2.10
   3  -3   4   77.89    2.20
   3  -3   4   77.79    2.50
   3  -3   4   75.19    2.20
  -4   3  -4   89.79    2.90
  -4   3  -4   89.79    2.60
  -4   3  -4   89.29    2.70
  -4   3  -4   90.79    2.50
   4  -3   4   89.09    3.00
   4  -3   4   91.99    2.80
   4  -3   4   90.19    2.70
   4  -3   4   89.19    2.70
   4  -3   4   86.49    2.50
   4  -3   4   90.09    2.80
   4  -3   4   90.79    2.60
  -5   3  -4   14.70    1.50
  -5   3  -4   13.70    1.20
  -5   3  -4   16.50    1.80
   5  -3   4   15.00    1.50
   5  -3   4   14.50    1.20
   5  -3   4   14.20    1.30
   5  -3   4   18.60    1.80
   5  -3   4   14.70    1.30
   5  -3   4   13.60    1.00
  -6   3  -4    7.00    1.20
  -6   3  -4    8.60    1.10
  -6   3  -4    8.00    1.40
  -6   3  -4    9.00    1.60
   6  -3   4    5.30    1.60
   6  -3   4    6.30    1.20
   6  -3   4    7.70    1.30
   6  -3   4    5.50    2.10
   6  -3   4    7.90    1.20
   6  -3   4    7.80    1.00
  -7   3  -4    3.70    1.60
  -7   3  -4    6.20    1.30
   7  -3   4    4.60    1.40
   7  -3   4    5.00    1.40
   7  -3   4    4.80    1.70
   7  -3   4    4.10    1.30
   7  -3   4    3.80    1.80
   7  -3   4    2.30    1.80
   8   2  -4   37.30    2.90
   8   2  -4   37.80    3.40
   8   2  -4   36.10    2.70
   8   2  -4   38.80    2.20
   8   2  -4   37.30    2.10
  -8  -2   4   33.50    2.10
  -8  -2   4   38.00    3.50
  -8  -2   4   38.00    2.50
  -8  -2   4   27.60    2.80
  -8  -2   4   35.60    3.40
   7   2  -4   38.20    1.70
   7   2  -4   42.30    3.00
   7   2  -4   40.00    2.20
   7   2  -4   39.60    2.50
   7   2  -4   41.80    1.70
  -7  -2   4   43.70    1.90
  -7  -2   4   41.60    2.90
  -7  -2   4   38.60    1.90
  -7  -2   4   43.30    2.60
   6   2  -4   20.30    1.50
   6   2  -4   19.20    1.10
   6   2  -4   18.90    1.10
   6   2  -4   18.10    1.70
   6   2  -4   18.90    1.90
  -6  -2   4   18.40    1.70
  -6  -2   4   20.90    2.10
  -6  -2   4   17.80    1.30
  -6  -2   4   16.20    1.30
  -6  -2   4   17.30    1.20
  -6  -2   4   18.20    1.30
   5   2  -4    2.50    0.70
   5   2  -4    3.70    0.70
   5   2  -4    4.00    0.50
   5   2  -4    4.20    0.70
   5   2  -4    3.90    0.50
  -5  -2   4    5.20    0.60
  -5  -2   4    3.20    0.50
  -5  -2   4    5.50    0.80
  -5  -2   4    4.70    0.90
  -5  -2   4    3.60    0.70
  -5  -2   4    3.40    0.50
   4   2  -4  450.05    9.60
   4   2  -4  447.96    9.40
   4   2  -4  447.86    9.60
   4   2  -4  442.86    9.30
   4   2  -4  430.76    9.80
   4   2  -4  455.55    9.70
  -4  -2   4  435.66    9.50
  -4  -2   4  451.45    9.80
  -4  -2   4  437.26    9.40
  -4  -2   4  451.05    9.70
  -4  -2   4  448.36    9.40
  -4  -2   4  435.06    9.30
   3   2  -4    3.50    0.50
   3   2  -4    4.90    0.50
   3   2  -4    3.70    0.30
   3   2  -4    3.80    0.60
   3   2  -4    5.00    0.40
   3   2  -4    2.60    0.30
  -3  -2   4    4.00    0.40
  -3  -2   4    3.10    0.50
  -3  -2   4    3.20    0.40
  -3  -2   4    2.30    0.40
  -3  -2   4    3.30    0.40
   2   2  -4  307.17    6.60
   2   2  -4  307.27    6.30
   2   2  -4  305.17    6.50
   2   2  -4  302.67    6.50
   2   2  -4  301.07    6.30
   2   2  -4  296.67    6.60
   2   2  -4  302.07    6.50
  -2  -2   4  306.57    6.50
  -2  -2   4  308.57    6.60
  -2  -2   4  301.07    6.50
  -2  -2   4  303.37    6.60
   1   2  -4   94.19    2.20
   1   2  -4   96.49    2.20
   1   2  -4   97.79    2.30
   1   2  -4   97.49    2.20
   1   2  -4   94.89    2.00
   1   2  -4   91.89    2.30
  -1  -2   4   94.19    2.30
  -1  -2   4   97.09    2.20
  -1  -2   4   96.69    2.30
  -1  -2   4   95.49    2.20
  -1  -2   4   96.99    2.20
  -1  -2   4   95.49    2.20
   0   2  -4    3.20    0.30
   0   2  -4    2.60    0.30
   0   2  -4    2.90    0.40
   0   2  -4    3.80    0.40
   0   2  -4    3.50    0.40
   0   2  -4    3.70    0.40
   0   2  -4    3.30    0.30
   0  -2   4    2.40    0.30
   0  -2   4    3.00    0.30
   0  -2   4    2.50    0.30
   0  -2   4    2.80    0.30
   0  -2   4    3.20    0.40
   0  -2   4    3.00    0.20
   0  -2   4    2.10    0.30
  -1   2  -4  470.45    9.60
  -1   2  -4  444.86    9.30
  -1   2  -4  440.16    9.50
  -1   2  -4  453.45    9.50
  -1   2  -4  443.66    9.50
  -1   2  -4  449.36    9.40
  -1   2  -4  458.05    9.50
   1  -2   4  465.65    9.50
   1  -2   4  451.05    9.30
   1  -2   4  444.76    9.40
   1  -2   4  447.16    9.50
   1  -2   4  442.46    9.50
   1  -2   4  435.36    9.50
   1  -2   4  460.65    9.60
  -2   2  -4  236.68    5.30
  -2   2  -4  229.38    4.90
  -2   2  -4  233.18    5.20
  -2   2  -4  238.48    5.20
  -2   2  -4  233.18    5.30
  -2   2  -4  237.28    5.30
   2  -2   4  239.58    5.40
   2  -2   4  233.18    5.10
   2  -2   4  232.98    4.90
   2  -2   4  233.58    5.20
   2  -2   4  242.68    5.20
   2  -2   4  238.08    5.20
  -3   2  -4   26.00    1.00
  -3   2  -4   26.00    1.30
  -3   2  -4   27.80    1.20
  -3   2  -4   26.30    1.10
  -3   2  -4   26.70    0.70
  -3   2  -4   26.30    1.30
  -3   2  -4   22.20    0.60
   3  -2   4   27.60    1.40
   3  -2   4   24.70    1.00
   3  -2   4   25.90    1.20
   3  -2   4   26.80    1.00
   3  -2   4   25.90    1.20
   3  -2   4   27.20    1.10
  -4   2  -4   42.30    1.40
  -4   2  -4   40.70    1.70
  -4   2  -4   44.70    1.60
  -4   2  -4   44.50    1.90
   4  -2   4   41.40    1.50
   4  -2   4   42.90    1.70
   4  -2   4   41.80    1.40
   4  -2   4   40.20    1.60
   4  -2   4   44.80    1.70
   4  -2   4   42.20    1.90
  -5   2  -4   46.00    2.20
  -5   2  -4   47.60    1.70
  -5   2  -4   46.70    2.00
  -5   2  -4   48.30    2.00
   5  -2   4   47.70    1.70
   5  -2   4   46.90    2.40
   5  -2   4   44.70    2.00
   5  -2   4   47.60    1.70
   5  -2   4   47.80    2.10
  -6   2  -4    4.10    1.20
  -6   2  -4    5.70    1.20
  -6   2  -4    3.10    0.80
  -6   2  -4    4.40    1.20
   6  -2   4    5.30    0.90
   6  -2   4    3.70    0.80
   6  -2   4    4.50    1.20
   6  -2   4    2.90    0.90
   6  -2   4    4.30    1.20
   6  -2   4    4.40    1.20
  -7   2  -4   -0.50    0.90
  -7   2  -4   -0.30    1.50
  -7   2  -4   -1.50    1.30
   7  -2   4   -0.40    1.40
   7  -2   4   -0.80    1.50
   7  -2   4    0.80    1.00
   7  -2   4    0.00    1.80
   7  -2   4    0.10    1.00
  -8   2  -4    7.80    2.10
  -8   2  -4    6.10    1.50
   8  -2   4    7.20    1.40
   8  -2   4   10.20    2.20
   8  -2   4    5.30    1.90
   8  -2   4    7.50    1.50
   8  -2   4    3.50    2.20
   8   1  -4   12.70    1.30
   8   1  -4    9.70    2.30
   8   1  -4   13.70    1.70
   8   1  -4   12.60    2.30
   8   1  -4   10.80    1.60
  -8  -1   4   11.40    1.80
  -8  -1   4   10.00    1.30
  -8  -1   4   10.00    2.10
  -8  -1   4   13.90    2.30
  -8  -1   4   12.60    1.30
  -8  -1   4   10.70    1.80
   7   1  -4    4.00    1.10
   7   1  -4    3.80    1.60
   7   1  -4    3.50    1.10
   7   1  -4    6.30    1.10
   7   1  -4    3.90    1.40
   7   1  -4    5.10    0.90
  -7  -1   4    5.70    1.30
  -7  -1   4    5.70    1.10
  -7  -1   4    5.10    0.90
  -7  -1   4    4.50    1.20
  -7  -1   4    3.20    0.80
  -7  -1   4    5.00    1.60
   6   1  -4   13.50    1.40
   6   1  -4   13.50    1.10
   6   1  -4   13.10    1.10
   6   1  -4   12.10    0.90
   6   1  -4   15.60    1.20
   6   1  -4   11.10    1.20
  -6  -1   4   13.60    1.00
  -6  -1   4   17.10    1.60
  -6  -1   4   19.10    1.80
  -6  -1   4   14.30    1.40
  -6  -1   4   13.10    1.10
  -6  -1   4   13.40    1.20
   5   1  -4    4.10    0.80
   5   1  -4    5.20    0.60
   5   1  -4    5.10    0.70
   5   1  -4    5.80    0.60
   5   1  -4    4.50    0.50
   5   1  -4    4.30    0.80
  -5  -1   4    5.20    0.70
  -5  -1   4    3.60    0.50
  -5  -1   4    4.70    0.70
  -5  -1   4    4.00    0.90
  -5  -1   4    5.60    0.60
  -5  -1   4    5.80    0.60
   4   1  -4    0.60    0.40
   4   1  -4   -0.10    0.60
   4   1  -4    0.50    0.40
   4   1  -4    0.20    0.30
   4   1  -4    0.10    0.50
   4   1  -4   -0.60    0.40
  -4  -1   4    0.20    0.40
  -4  -1   4   -0.30    0.30
  -4  -1   4    0.00    0.40
  -4  -1   4   -0.30    0.40
  -4  -1   4    0.10    0.50
  -4  -1   4    0.30    0.50
   3   1  -4    0.20    0.30
   3   1  -4    0.10    0.30
   3   1  -4    0.20    0.30
   3   1  -4   -0.10    0.20
   3   1  -4    0.00    0.30
   3   1  -4   -0.20    0.30
  -3  -1   4   -0.10    0.20
  -3  -1   4    0.00    0.20
  -3  -1   4   -0.20    0.30
  -3  -1   4   -0.10    0.30
  -3  -1   4    0.10    0.30
   2   1  -4    2.30    0.20
   2   1  -4    3.00    0.50
   2   1  -4    2.10    0.30
   2   1  -4    1.70    0.30
   2   1  -4    2.10    0.30
   2   1  -4    2.60    0.30
  -2  -1   4    2.30    0.20
  -2  -1   4    2.20    0.30
  -2  -1   4    2.40    0.40
  -2  -1   4    2.60    0.30
   1   1  -4  153.08    3.20
   1   1  -4  153.88    3.40
   1   1  -4  155.28    3.50
   1   1  -4  152.38    3.40
   1   1  -4  155.58    3.40
  -1  -1   4  158.98    3.50
  -1  -1   4  156.48    3.30
  -1  -1   4  154.48    3.40
  -1  -1   4  148.59    3.50
  -1  -1   4  155.38    3.30
  -1  -1   4  152.18    3.40
   0   1  -4    0.20    0.20
   0   1  -4    0.60    0.20
   0   1  -4    0.00    0.10
   0   1  -4    0.00    0.20
   0   1  -4    0.00    0.10
   0   1  -4    0.10    0.20
   0   1  -4    0.00    0.10
   0  -1   4    0.00    0.10
   0  -1   4    0.00    0.20
   0  -1   4    0.10    0.20
   0  -1   4    0.10    0.10
   0  -1   4    0.10    0.20
   0  -1   4    0.00    0.10
   0  -1   4    0.00    0.10
  -1   1  -4  305.87    6.50
  -1   1  -4  315.37    6.40
  -1   1  -4  299.37    6.50
  -1   1  -4  312.87    6.60
  -1   1  -4  307.07    6.50
  -1   1  -4  307.47    6.50
  -1   1  -4  300.27    6.40
   1  -1   4  301.67    6.40
   1  -1   4  303.57    6.40
   1  -1   4  300.47    6.50
   1  -1   4  310.37    6.40
   1  -1   4  296.17    6.50
   1  -1   4  310.47    6.60
   1  -1   4  312.57    6.50
  -2   1  -4  298.57    6.40
  -2   1  -4  298.67    6.40
  -2   1  -4  293.87    6.10
  -2   1  -4  292.17    6.40
  -2   1  -4  292.07    6.30
  -2   1  -4  295.77    6.30
   2  -1   4  289.57    6.30
   2  -1   4  287.47    6.20
   2  -1   4  286.07    6.10
   2  -1   4  300.77    6.50
   2  -1   4  296.87    6.20
   2  -1   4  285.67    6.20
   2  -1   4  288.97    6.40
  -3   1  -4    4.40    0.50
  -3   1  -4    5.70    0.50
  -3   1  -4    5.30    0.50
  -3   1  -4    6.00    0.70
  -3   1  -4    4.60    0.50
  -3   1  -4    5.80    0.30
   3  -1   4    6.00    0.70
   3  -1   4    4.60    0.40
   3  -1   4    4.50    0.40
   3  -1   4    4.90    0.50
   3  -1   4    6.00    0.60
   3  -1   4    6.00    0.50
  -4   1  -4  218.08    4.70
  -4   1  -4  214.68    5.10
  -4   1  -4  215.48    4.90
  -4   1  -4  224.68    5.30
  -4   1  -4  213.68    4.90
  -4   1  -4  217.88    4.60
   4  -1   4  211.78    5.10
   4  -1   4  207.28    5.10
   4  -1   4  214.88    4.90
   4  -1   4  222.08    5.30
   4  -1   4  228.18    4.90
   4  -1   4  218.38    4.90
  -5   1  -4  224.18    4.80
  -5   1  -4  220.78    4.80
  -5   1  -4  223.78    5.50
  -5   1  -4  230.78    5.70
  -5   1  -4  227.18    5.10
  -5   1  -4  225.78    5.30
   5  -1   4  228.98    5.60
   5  -1   4  227.18    5.10
   5  -1   4  223.58    5.50
   5  -1   4  215.68    5.10
   5  -1   4  223.28    5.10
   5  -1   4  226.88    5.40
  -6   1  -4    6.40    1.20
  -6   1  -4    5.70    0.70
  -6   1  -4    6.20    1.20
  -6   1  -4    5.60    0.50
  -6   1  -4    5.60    0.50
  -6   1  -4    5.90    1.00
   6  -1   4    4.60    1.00
   6  -1   4    6.00    1.10
   6  -1   4    7.70    1.30
   6  -1   4    4.80    0.80
   6  -1   4    7.40    0.70
   6  -1   4    4.70    1.00
  -7   1  -4   71.29    3.20
  -7   1  -4   70.69    2.40
  -7   1  -4   71.69    1.80
  -7   1  -4   71.59    1.80
  -7   1  -4   70.79    3.40
  -7   1  -4   72.59    3.10
   7  -1   4   72.29    2.40
   7  -1   4   67.29    2.60
   7  -1   4   71.29    3.40
   7  -1   4   74.59    2.20
   7  -1   4   66.59    3.10
   7  -1   4   73.79    3.10
  -8   1  -4    2.00    2.20
  -8   1  -4    0.60    0.60
  -8   1  -4    0.70    0.60
  -8   1  -4    0.30    1.10
  -8   1  -4    1.60    1.80
   8  -1   4    1.30    1.10
   8  -1   4   -0.10    0.90
   8  -1   4    1.40    1.80
   8  -1   4    1.80    1.70
   8  -1   4    1.70    1.80
   8   0  -4   41.30    3.20
   8   0  -4   42.60    2.70
   8   0  -4   49.60    4.50
   8   0  -4   50.99    2.80
  -8   0   4   49.80    3.50
  -8   0   4   45.30    4.30
  -8   0   4   46.30    2.40
  -8   0   4   50.19    2.50
   7   0  -4    0.60    1.00
   7   0  -4    0.40    1.00
   7   0  -4    1.10    1.50
   7   0  -4    1.00    0.90
   7   0  -4   -0.80    1.50
   7   0  -4    2.00    1.10
  -7   0   4    0.00    1.40
  -7   0   4    3.00    1.40
  -7   0   4    1.60    0.80
  -7   0   4    0.20    0.80
  -7   0   4   -0.10    1.40
  -7   0   4   -0.70    1.30
   6   0  -4    1.30    0.70
   6   0  -4    3.40    1.10
   6   0  -4    0.20    0.70
   6   0  -4    0.00    1.20
   6   0  -4    1.50    0.80
   6   0  -4    1.70    0.80
  -6   0   4    0.90    0.60
  -6   0   4    1.10    1.00
  -6   0   4    0.90    0.90
  -6   0   4    2.80    1.40
  -6   0   4   -0.20    0.90
  -6   0   4    0.70    0.60
   5   0  -4    4.10    0.60
   5   0  -4    3.30    0.80
   5   0  -4    3.90    1.00
   5   0  -4    3.30    0.60
   5   0  -4    3.40    0.60
   5   0  -4    3.80    0.60
  -5   0   4    3.50    0.70
  -5   0   4    3.80    0.50
  -5   0   4    3.10    0.90
  -5   0   4    3.10    0.50
  -5   0   4    3.90    0.70
  -5   0   4    4.00    0.70
   4   0  -4  130.39    3.00
   4   0  -4  133.19    3.40
   4   0  -4  124.99    3.50
   4   0  -4  125.49    3.30
   4   0  -4  128.89    3.10
   4   0  -4  126.29    3.10
  -4   0   4  124.59    3.50
  -4   0   4  132.39    3.00
  -4   0   4  131.29    3.40
  -4   0   4  122.99    3.20
  -4   0   4  125.89    2.90
  -4   0   4  130.39    3.10
   3   0  -4  142.59    3.20
   3   0  -4  141.99    3.30
   3   0  -4  148.19    3.50
   3   0  -4  140.19    3.60
   3   0  -4  143.49    3.30
   3   0  -4  148.59    3.30
  -3   0   4  140.99    3.20
  -3   0   4  146.19    3.50
  -3   0   4  138.49    3.60
  -3   0   4  142.39    3.40
  -3   0   4  142.89    3.20
   2   0  -4    0.70    0.30
   2   0  -4    0.10    0.30
   2   0  -4   -0.10    0.20
   2   0  -4    0.00    0.20
   2   0  -4   -0.10    0.20
  -2   0   4    0.30    0.40
  -2   0   4   -0.20    0.20
  -2   0   4   -0.10    0.20
  -2   0   4    0.10    0.20
  -2   0   4    0.20    0.20
   1   0  -4   21.40    0.70
   1   0  -4   21.90    0.70
   1   0  -4   20.50    0.70
   1   0  -4   22.70    0.70
   1   0  -4   19.60    0.80
  -1   0   4   21.60    0.70
  -1   0   4   21.10    0.60
  -1   0   4   22.00    0.70
  -1   0   4   20.50    0.80
   0   0  -4  340.17    7.10
   0   0  -4  351.56    7.10
   0   0  -4  339.77    7.10
   0   0  -4  344.47    7.10
   0   0  -4  339.57    7.20
   0   0   4  338.57    7.10
   0   0   4  346.27    7.20
   0   0   4  331.77    7.10
   0   0   4  341.87    7.20
   0   0   4  355.46    7.10
   0   0   4  309.17    7.20
   0   0   4  343.97    7.00
  -1   0  -4   35.70    0.90
  -1   0  -4   35.60    0.90
  -1   0  -4   32.50    1.00
  -1   0  -4   36.40    0.90
  -1   0  -4   36.50    1.00
  -1   0  -4   36.40    1.00
  -1   0  -4   36.40    0.90
   1   0   4   34.80    1.00
   1   0   4   35.50    0.90
   1   0   4   36.10    0.90
   1   0   4   36.90    0.90
   1   0   4   34.80    1.00
   1   0   4   34.50    0.90
  -2   0  -4  148.39    3.50
  -2   0  -4  147.39    3.40
  -2   0  -4  149.49    3.40
  -2   0  -4  149.99    3.30
  -2   0  -4  156.38    3.30
  -2   0  -4  150.48    3.20
  -2   0  -4  149.09    3.20
   2   0   4  148.39    3.20
   2   0   4  152.68    3.40
   2   0   4  148.29    3.30
   2   0   4  144.59    3.40
   2   0   4  155.48    3.30
   2   0   4  153.08    3.50
  -3   0  -4   23.80    0.70
  -3   0  -4   23.70    1.00
  -3   0  -4   24.60    1.10
  -3   0  -4   24.00    1.10
  -3   0  -4   23.20    0.80
  -3   0  -4   22.60    0.90
   3   0   4   24.40    1.10
   3   0   4   23.80    0.80
   3   0   4   25.50    0.80
   3   0   4   23.50    0.70
   3   0   4   22.20    1.00
  -4   0  -4  178.28    4.10
  -4   0  -4  180.78    3.90
  -4   0  -4  175.98    4.30
  -4   0  -4  172.08    4.30
  -4   0  -4  179.18    4.00
  -4   0  -4  180.38    4.40
   4   0   4  179.98    3.90
   4   0   4  177.38    3.90
   4   0   4  167.78    4.00
   4   0   4  178.28    4.40
   4   0   4  172.68    4.20
   4   0   4  180.98    4.20
   4   0   4  170.88    4.00
  -5   0  -4    6.80    0.60
  -5   0  -4    6.00    0.90
  -5   0  -4    6.90    0.60
  -5   0  -4    7.20    1.00
  -5   0  -4    6.90    0.70
   5   0   4    6.40    0.60
   5   0   4    5.70    0.50
   5   0   4    4.70    0.70
   5   0   4    7.50    1.00
   5   0   4    6.40    0.60
   5   0   4    5.50    0.80
  -6   0  -4   13.50    1.20
  -6   0  -4   14.70    0.90
  -6   0  -4   13.70    1.10
  -6   0  -4   12.10    1.20
  -6   0  -4   11.10    1.00
   6   0   4    9.30    1.10
   6   0   4   12.40    1.10
   6   0   4   15.60    0.90
   6   0   4   14.40    1.10
   6   0   4   14.00    1.20
   6   0   4   12.70    1.20
  -7   0  -4    0.50    1.10
  -7   0  -4    0.50    0.70
  -7   0  -4    1.30    1.30
  -7   0  -4    1.00    1.40
  -7   0  -4    1.60    0.60
   7   0   4    0.40    1.00
   7   0   4    0.60    1.20
   7   0   4    1.30    0.50
   7   0   4    1.90    1.00
   7   0   4    1.90    1.10
   7   0   4    1.10    0.70
  -8   0  -4   27.50    1.80
  -8   0  -4   30.70    3.00
  -8   0  -4   21.70    2.10
  -8   0  -4   25.90    2.00
   8   0   4   30.30    3.20
   8   0   4   25.70    1.90
   8   0   4   29.00    1.30
   8   0   4   28.70    2.90
   8   0   4   26.30    2.80
  -9   0  -4    1.20    1.20
  -9   0  -4    0.20    1.40
  -9   0  -4   -1.60    2.20
   9   0   4   -0.60    2.20
   9   0   4    1.30    2.30
   9   0   4    1.00    1.30
   7  -1  -4    3.90    1.80
   7  -1  -4    3.20    1.20
   7  -1  -4    5.10    1.30
   7  -1  -4    6.20    2.00
   7  -1  -4    6.70    1.30
  -7   1   4    4.80    1.60
  -7   1   4    4.20    1.50
  -7   1   4    4.70    0.90
  -7   1   4    4.90    2.00
  -7   1   4    3.90    1.60
   6  -1  -4    1.40    0.80
   6  -1  -4    1.40    0.80
   6  -1  -4    0.80    0.80
   6  -1  -4    0.00    1.30
   6  -1  -4   -0.40    1.20
   6  -1  -4    1.00    0.90
  -6   1   4    1.70    1.00
  -6   1   4    1.00    1.10
  -6   1   4    0.80    0.60
  -6   1   4    1.40    0.60
   5  -1  -4   27.80    1.50
   5  -1  -4   26.60    1.30
   5  -1  -4   29.20    2.00
   5  -1  -4   29.90    1.90
   5  -1  -4   29.90    1.30
   5  -1  -4   28.90    1.40
  -5   1   4   27.10    1.70
  -5   1   4   29.20    1.10
  -5   1   4   28.80    1.70
  -5   1   4   32.00    2.10
  -5   1   4   29.30    1.10
  -5   1   4   29.20    1.70
   4  -1  -4   16.90    1.40
   4  -1  -4   15.40    0.90
   4  -1  -4   15.50    1.10
   4  -1  -4   17.30    0.80
   4  -1  -4   15.60    1.00
   4  -1  -4   16.50    1.40
  -4   1   4   16.90    0.80
  -4   1   4   15.30    1.20
  -4   1   4   19.30    1.40
  -4   1   4   15.40    1.20
  -4   1   4   17.30    0.80
   3  -1  -4   15.80    0.60
   3  -1  -4   13.60    0.90
   3  -1  -4   13.60    1.10
   3  -1  -4   16.60    1.10
   3  -1  -4   15.80    0.80
   3  -1  -4   15.80    0.80
  -3   1   4   14.50    1.00
  -3   1   4   15.80    0.70
  -3   1   4   13.60    1.10
  -3   1   4   15.90    0.60
  -3   1   4   15.40    1.00
   2  -1  -4   14.20    0.70
   2  -1  -4   14.40    0.80
   2  -1  -4   13.60    0.50
   2  -1  -4   13.70    0.60
   2  -1  -4   13.20    0.70
  -2   1   4   13.70    0.70
  -2   1   4   13.00    0.80
  -2   1   4   13.40    0.40
  -2   1   4   13.00    0.80
  -2   1   4   12.80    0.60
   1  -1  -4  185.48    4.00
   1  -1  -4  186.58    4.00
   1  -1  -4  184.78    4.10
   1  -1  -4  176.18    4.00
   1  -1  -4  187.88    4.10
   1  -1  -4  186.78    4.10
  -1   1   4  186.18    4.10
  -1   1   4  178.28    4.10
  -1   1   4  184.08    4.00
  -1   1   4  182.08    3.80
  -1   1   4  187.38    4.10
   0  -1  -4    5.70    0.30
   0  -1  -4    5.50    0.40
   0  -1  -4    5.70    0.30
   0  -1  -4    5.50    0.40
   0  -1  -4    5.90    0.30
   0   1   4    5.30    0.40
   0   1   4    6.70    0.40
   0   1   4    5.60    0.40
  -1  -1  -4   36.20    1.00
  -1  -1  -4   37.70    1.00
  -1  -1  -4   38.60    0.90
  -1  -1  -4   37.00    0.90
  -1  -1  -4   36.90    1.00
  -1  -1  -4   37.10    1.00
  -1  -1  -4   38.30    1.00
   1   1   4   37.40    0.90
   1   1   4   37.90    1.00
   1   1   4   39.10    0.90
   1   1   4   35.20    1.00
  -2  -1  -4   24.90    0.60
  -2  -1  -4   24.00    0.80
  -2  -1  -4   25.70    0.70
  -2  -1  -4   25.20    0.70
  -2  -1  -4   24.20    0.70
  -2  -1  -4   24.90    0.80
   2   1   4   23.90    0.80
   2   1   4   24.00    0.90
   2   1   4   24.60    0.60
   2   1   4   24.40    0.70
   2   1   4   20.90    0.70
   2   1   4   25.00    0.70
  -3  -1  -4   23.30    1.00
  -3  -1  -4   22.80    0.80
  -3  -1  -4   24.50    0.80
  -3  -1  -4   23.20    1.00
  -3  -1  -4   23.80    0.80
   3   1   4   23.10    0.90
   3   1   4   22.90    0.80
   3   1   4   23.00    0.90
   3   1   4   24.10    0.60
   3   1   4   23.90    0.80
   3   1   4   24.10    1.00
  -4  -1  -4   23.50    1.20
  -4  -1  -4   22.00    1.10
  -4  -1  -4   22.90    0.90
  -4  -1  -4   24.10    1.20
  -4  -1  -4   24.70    1.00
  -4  -1  -4   23.30    0.90
   4   1   4   22.20    1.20
   4   1   4   23.60    0.60
   4   1   4   22.70    0.90
   4   1   4   23.80    0.90
   4   1   4   24.00    1.10
   4   1   4   23.10    0.60
   4   1   4   23.50    1.10
  -5  -1  -4   97.59    2.90
  -5  -1  -4  100.19    2.50
  -5  -1  -4   90.59    2.60
  -5  -1  -4   99.99    3.00
  -5  -1  -4   98.19    2.50
   5   1   4   96.49    2.80
   5   1   4   99.79    2.20
   5   1   4   99.49    2.70
   5   1   4  100.89    2.20
   5   1   4   98.69    2.40
   5   1   4  102.49    2.90
  -6  -1  -4    1.10    0.80
  -6  -1  -4    1.30    0.70
  -6  -1  -4    1.90    0.60
  -6  -1  -4    2.00    1.00
  -6  -1  -4    1.60    0.50
   6   1   4    0.80    0.50
   6   1   4    0.50    0.70
   6   1   4    1.10    0.80
   6   1   4    2.30    0.30
   6   1   4    2.40    0.70
   6   1   4    1.80    0.80
  -7  -1  -4   36.50    1.50
  -7  -1  -4   34.60    2.40
  -7  -1  -4   34.30    1.50
  -7  -1  -4   36.60    2.30
  -7  -1  -4   33.20    2.00
   7   1   4   26.30    1.70
   7   1   4   32.30    2.10
   7   1   4   33.70    1.80
   7   1   4   37.20    2.30
   7   1   4   35.00    1.10
   7   1   4   37.60    2.20
  -8  -1  -4    4.50    1.60
  -8  -1  -4    7.10    1.70
  -8  -1  -4    4.50    1.40
  -8  -1  -4    5.60    0.90
  -8  -1  -4    6.20    1.00
   8   1   4    6.40    1.50
   8   1   4    5.60    1.30
   8   1   4    4.00    1.60
   8   1   4    5.60    0.90
   8   1   4    6.80    1.60
   8   1   4    6.00    0.60
  -9  -1  -4    2.00    1.80
  -9  -1  -4    6.30    1.30
  -9  -1  -4    5.70    2.30
  -9  -1  -4    5.10    1.20
   9   1   4    5.20    2.10
   9   1   4    7.30    2.00
   9   1   4    3.40    1.00
   9   1   4    4.90    1.20
   7  -2  -4  107.89    3.20
   7  -2  -4  101.69    3.70
   7  -2  -4  104.39    3.80
  -7   2   4  113.89    4.40
  -7   2   4  109.19    4.70
  -7   2   4  103.59    3.10
   6  -2  -4    0.50    0.90
   6  -2  -4    2.50    0.90
   6  -2  -4    1.80    1.10
   6  -2  -4    1.40    1.40
   6  -2  -4    0.30    1.40
   6  -2  -4   -0.30    1.10
  -6   2   4   -0.50    0.60
  -6   2   4    1.40    1.20
  -6   2   4    2.40    1.30
  -6   2   4    0.00    1.50
  -6   2   4    0.40    0.80
   5  -2  -4    0.80    0.70
   5  -2  -4    0.80    0.60
   5  -2  -4    1.70    1.10
   5  -2  -4    2.10    1.10
   5  -2  -4    0.80    0.60
   5  -2  -4    1.20    0.80
  -5   2   4    0.80    0.50
  -5   2   4   -0.90    0.80
  -5   2   4    2.00    1.20
  -5   2   4    1.70    0.80
  -5   2   4    1.40    1.00
   4  -2  -4    3.90    0.80
   4  -2  -4    4.30    0.60
   4  -2  -4    3.10    0.50
   4  -2  -4    3.30    0.70
   4  -2  -4    3.80    0.90
   4  -2  -4    3.80    0.50
  -4   2   4    3.40    1.10
  -4   2   4    3.80    0.50
  -4   2   4    2.30    0.60
  -4   2   4    3.00    0.80
  -4   2   4    3.90    0.50
   3  -2  -4   30.80    1.30
   3  -2  -4   32.30    1.20
   3  -2  -4   34.20    1.10
   3  -2  -4   31.10    1.50
   3  -2  -4   30.40    1.40
   3  -2  -4   30.70    0.90
  -3   2   4   32.10    1.50
  -3   2   4   31.90    1.00
  -3   2   4   30.70    0.90
  -3   2   4   29.50    1.50
  -3   2   4   31.50    1.30
   2  -2  -4   64.19    1.70
   2  -2  -4   61.09    1.50
   2  -2  -4   63.19    1.80
   2  -2  -4   63.99    1.80
   2  -2  -4   60.79    1.90
   2  -2  -4   63.39    1.50
  -2   2   4   63.89    1.60
  -2   2   4   63.49    1.90
  -2   2   4   62.69    1.90
  -2   2   4   62.09    1.50
   1  -2  -4  168.68    3.60
   1  -2  -4  169.78    3.70
   1  -2  -4  169.38    3.90
   1  -2  -4  174.78    3.80
   1  -2  -4  168.48    3.80
   1  -2  -4  168.08    3.90
  -1   2   4  168.98    3.90
  -1   2   4  176.38    3.80
  -1   2   4  173.98    3.70
  -1   2   4  171.08    3.60
  -1   2   4  171.28    3.90
   0  -2  -4    7.80    0.20
   0  -2  -4    7.20    0.20
   0  -2  -4    8.10    0.40
   0  -2  -4    7.70    0.40
   0  -2  -4    7.40    0.40
   0  -2  -4    7.30    0.40
   0  -2  -4    7.70    0.50
   0   2   4    7.30    0.40
   0   2   4    7.50    0.40
   0   2   4    7.00    0.50
   0   2   4    7.50    0.50
  -1  -2  -4   55.09    1.30
  -1  -2  -4   56.59    1.40
  -1  -2  -4   54.59    1.40
  -1  -2  -4   55.49    1.30
  -1  -2  -4   57.39    1.30
  -1  -2  -4   54.69    1.30
  -1  -2  -4   53.79    1.30
   1   2   4   55.69    1.40
   1   2   4   55.99    1.30
   1   2   4   56.19    1.30
   1   2   4   53.39    1.30
   1   2   4   55.79    1.40
  -2  -2  -4    0.00    0.20
  -2  -2  -4   -0.20    0.20
  -2  -2  -4    0.00    0.20
  -2  -2  -4   -0.10    0.20
  -2  -2  -4   -0.20    0.10
  -2  -2  -4    0.10    0.20
  -2  -2  -4   -0.30    0.20
   2   2   4   -0.10    0.10
   2   2   4   -0.30    0.20
   2   2   4    0.00    0.20
   2   2   4   -0.20    0.20
   2   2   4   -0.30    0.20
   2   2   4    0.10    0.20
  -3  -2  -4   31.90    1.10
  -3  -2  -4   31.20    1.10
  -3  -2  -4   33.70    1.00
  -3  -2  -4   31.90    1.10
  -3  -2  -4   32.40    1.00
   3   2   4   32.00    1.10
   3   2   4   32.40    1.00
   3   2   4   31.60    0.90
   3   2   4   31.00    1.00
   3   2   4   32.40    0.90
  -4  -2  -4  112.29    2.70
  -4  -2  -4  113.09    2.90
  -4  -2  -4  112.19    2.90
  -4  -2  -4  113.29    2.60
  -4  -2  -4  109.99    2.80
  -4  -2  -4  102.69    2.60
   4   2   4  114.69    2.60
   4   2   4  113.09    2.80
   4   2   4  112.89    2.70
   4   2   4  109.89    2.90
  -5  -2  -4    3.80    0.50
  -5  -2  -4    4.00    0.50
  -5  -2  -4    3.00    0.70
  -5  -2  -4    2.70    0.60
  -5  -2  -4    4.30    0.60
   5   2   4    3.50    0.40
   5   2   4    4.20    0.70
   5   2   4    3.40    0.50
   5   2   4    4.10    0.70
   5   2   4    4.30    0.60
  -6  -2  -4    0.00    0.50
  -6  -2  -4    0.10    0.60
  -6  -2  -4   -0.20    0.60
  -6  -2  -4   -0.90    0.90
  -6  -2  -4    0.20    0.60
   6   2   4   -0.20    0.70
   6   2   4    0.10    0.40
   6   2   4    0.20    0.50
   6   2   4    0.40    0.10
   6   2   4    0.00    0.60
   6   2   4    0.40    0.80
  -7  -2  -4   79.29    2.60
  -7  -2  -4   82.89    3.00
  -7  -2  -4   79.69    3.10
  -7  -2  -4   77.59    2.40
  -7  -2  -4   71.29    2.40
   7   2   4   73.09    2.90
   7   2   4   74.99    2.50
   7   2   4   83.19    2.80
   7   2   4   77.79    2.80
   7   2   4   79.59    2.30
   7   2   4   76.79    1.70
  -8  -2  -4    8.40    1.70
  -8  -2  -4    6.70    1.40
  -8  -2  -4    6.60    1.40
  -8  -2  -4    5.80    1.00
  -8  -2  -4    7.60    1.00
   8   2   4    6.70    0.60
   8   2   4    7.70    1.40
   8   2   4    7.10    1.50
   8   2   4    3.60    1.30
   8   2   4    8.50    1.00
   8   2   4    6.00    1.30
  -9  -2  -4    2.30    1.20
  -9  -2  -4    1.70    1.10
  -9  -2  -4    2.20    2.40
  -9  -2  -4    2.60    1.90
   9   2   4    2.20    0.60
   9   2   4    4.30    1.20
   9   2   4    3.20    1.90
   9   2   4    0.30    2.20
   9   2   4    1.60    1.80
   6  -3  -4    2.90    1.40
   6  -3  -4    3.70    1.20
   6  -3  -4    2.20    1.80
   6  -3  -4    3.10    0.90
  -6   3   4    1.20    1.30
  -6   3   4    3.90    1.70
  -6   3   4    4.40    0.80
  -6   3   4    2.50    0.90
   5  -3  -4    2.00    1.10
   5  -3  -4    0.10    0.60
   5  -3  -4    0.40    1.30
   5  -3  -4   -0.70    1.00
   5  -3  -4    0.20    1.30
   5  -3  -4   -0.40    0.70
  -5   3   4    0.10    0.60
  -5   3   4    0.30    0.50
  -5   3   4   -1.00    1.20
  -5   3   4   -0.80    0.90
  -5   3   4    0.40    1.20
   4  -3  -4  101.19    2.50
   4  -3  -4  105.19    2.60
   4  -3  -4   94.59    4.00
   4  -3  -4  105.29    3.30
   4  -3  -4  102.89    3.10
   4  -3  -4  106.09    2.90
  -4   3   4  105.79    3.30
  -4   3   4  105.69    2.50
  -4   3   4  102.29    2.50
   3  -3  -4    9.30    0.90
   3  -3  -4    9.40    0.70
   3  -3  -4    6.90    0.80
   3  -3  -4   10.40    0.70
   3  -3  -4    8.50    0.80
   3  -3  -4   10.00    0.90
  -3   3   4   10.00    1.00
  -3   3   4    8.80    0.70
  -3   3   4    9.10    0.90
  -3   3   4    7.60    0.80
  -3   3   4    8.50    0.70
   2  -3  -4   44.90    1.60
   2  -3  -4   43.50    1.50
   2  -3  -4   45.40    1.20
   2  -3  -4   46.90    1.20
   2  -3  -4   48.10    1.70
  -2   3   4   41.80    1.70
  -2   3   4   45.60    1.60
  -2   3   4   47.30    1.20
  -2   3   4   46.70    1.70
  -2   3   4   46.60    1.30
   1  -3  -4  419.06    8.90
   1  -3  -4  416.26    9.00
   1  -3  -4  432.46    9.00
   1  -3  -4  402.66    8.70
   1  -3  -4  407.06    8.60
   1  -3  -4  421.86    9.00
  -1   3   4  412.66    8.70
  -1   3   4  411.06    9.00
  -1   3   4  422.36    8.80
  -1   3   4  428.46    9.10
  -1   3   4  420.66    8.80
   0  -3  -4   99.19    2.30
   0  -3  -4   98.19    2.10
   0  -3  -4   95.79    2.40
   0  -3  -4   98.19    2.30
   0  -3  -4   95.29    2.20
   0   3   4   97.19    2.50
   0   3   4   97.19    2.30
   0   3   4   98.99    2.30
   0   3   4   98.09    2.20
  -1  -3  -4  157.38    3.40
  -1  -3  -4  160.78    3.60
  -1  -3  -4  162.48    3.50
  -1  -3  -4  163.48    3.50
  -1  -3  -4  164.08    3.60
  -1  -3  -4  162.48    3.40
  -1  -3  -4  160.28    3.50
   1   3   4  151.88    3.40
   1   3   4  162.48    3.60
   1   3   4  158.48    3.40
  -2  -3  -4  183.48    3.90
  -2  -3  -4  179.28    3.90
  -2  -3  -4  178.28    3.90
  -2  -3  -4  181.18    3.90
  -2  -3  -4  180.88    3.90
  -2  -3  -4  176.38    3.90
  -2  -3  -4  180.58    4.00
   2   3   4  175.88    3.80
   2   3   4  183.28    3.80
   2   3   4  178.98    4.00
   2   3   4  179.58    3.90
  -3  -3  -4    0.90    0.30
  -3  -3  -4    1.00    0.10
  -3  -3  -4    0.80    0.30
  -3  -3  -4    0.70    0.30
  -3  -3  -4    0.80    0.20
   3   3   4    0.90    0.30
   3   3   4    2.10    0.30
   3   3   4    0.90    0.30
   3   3   4    0.90    0.20
   3   3   4    1.00    0.20
  -4  -3  -4   55.29    1.70
  -4  -3  -4   54.49    1.60
  -4  -3  -4   58.59    1.50
  -4  -3  -4   57.59    1.80
  -4  -3  -4   56.39    1.70
  -4  -3  -4   56.69    1.70
   4   3   4   55.59    1.70
   4   3   4   54.69    1.50
   4   3   4   57.59    1.60
   4   3   4   54.89    1.50
   4   3   4   53.79    1.60
  -5  -3  -4    0.00    0.60
  -5  -3  -4   -0.70    0.50
  -5  -3  -4   -0.30    0.40
  -5  -3  -4   -0.40    0.40
  -5  -3  -4   -0.50    0.40
   5   3   4   -0.30    0.40
   5   3   4   -0.10    0.70
   5   3   4   -0.20    0.30
   5   3   4    0.50    0.50
   5   3   4    0.00    0.40
  -6  -3  -4    0.70    0.70
  -6  -3  -4    0.10    0.50
  -6  -3  -4   -0.70    0.50
  -6  -3  -4    0.30    0.80
   6   3   4    0.30    0.60
   6   3   4   -0.10    0.40
   6   3   4    0.00    0.60
   6   3   4    0.00    0.60
  -7  -3  -4  167.08    4.20
  -7  -3  -4  169.08    4.70
  -7  -3  -4  166.98    4.60
  -7  -3  -4  162.78    4.30
  -7  -3  -4  166.78    4.20
   7   3   4  171.28    4.50
   7   3   4  169.38    4.30
   7   3   4  169.48    4.00
   7   3   4  170.58    4.50
   7   3   4  163.98    4.20
  -8  -3  -4   13.00    1.10
  -8  -3  -4    9.80    1.30
  -8  -3  -4   10.40    1.20
  -8  -3  -4    9.40    1.30
  -8  -3  -4    8.60    1.50
   8   3   4    6.90    1.40
   8   3   4   11.70    1.40
   8   3   4   10.90    1.60
   8   3   4   11.40    1.40
   8   3   4   10.20    0.90
  -9  -3  -4    1.60    1.10
  -9  -3  -4    2.50    1.30
  -9  -3  -4   -1.10    2.00
  -9  -3  -4   -2.50    1.80
   9   3   4    0.00    1.60
   9   3   4   -0.80    0.90
   9   3   4    1.60    1.60
   9   3   4   -3.50    1.80
   6  -4  -4   43.30    3.30
  -6   4   4   34.10    3.20
  -6   4   4   38.70    3.50
   5  -4  -4    2.20    1.60
   5  -4  -4    1.30    0.90
   5  -4  -4    2.00    1.30
   5  -4  -4    0.60    0.70
  -5   4   4    0.10    0.80
  -5   4   4   -1.00    1.30
  -5   4   4   -0.60    0.70
  -5   4   4    0.00    1.10
   4  -4  -4   53.29    2.30
   4  -4  -4   51.29    1.60
   4  -4  -4   49.50    2.50
   4  -4  -4   51.49    1.60
   4  -4  -4   49.20    2.20
   4  -4  -4   50.29    2.40
  -4   4   4   50.39    1.60
  -4   4   4   53.79    2.40
  -4   4   4   51.19    2.10
  -4   4   4   51.49    1.70
   3  -4  -4    0.40    0.70
   3  -4  -4   -0.20    0.70
   3  -4  -4    0.40    0.40
   3  -4  -4    1.20    0.60
   3  -4  -4   -0.10    0.80
   3  -4  -4    2.10    0.80
  -3   4   4    1.20    0.50
  -3   4   4    0.60    0.60
  -3   4   4    0.70    0.80
  -3   4   4    0.20    1.00
  -3   4   4    0.80    0.50
   2  -4  -4   25.10    0.90
   2  -4  -4   27.80    1.40
   2  -4  -4   26.00    0.90
   2  -4  -4   24.20    1.30
   2  -4  -4   26.20    1.40
   2  -4  -4   25.60    1.30
  -2   4   4   22.80    1.60
  -2   4   4   24.30    1.30
  -2   4   4   25.40    1.10
  -2   4   4   23.50    1.00
  -2   4   4   26.80    0.90
   1  -4  -4  217.38    5.00
   1  -4  -4  210.78    5.00
   1  -4  -4  221.38    4.90
   1  -4  -4  213.08    4.80
   1  -4  -4  217.38    4.60
   1  -4  -4  212.48    4.60
  -1   4   4  221.48    5.10
  -1   4   4  214.38    4.70
  -1   4   4  211.38    4.80
   0  -4  -4   12.60    0.60
   0  -4  -4   12.90    0.90
   0  -4  -4   13.30    0.70
   0  -4  -4   13.00    0.60
   0  -4  -4   13.40    0.60
   0  -4  -4   12.40    0.90
   0   4   4   12.80    0.60
   0   4   4   13.10    1.00
   0   4   4   13.40    0.50
  -1  -4  -4   10.20    0.40
  -1  -4  -4   10.40    0.60
  -1  -4  -4   11.00    0.70
  -1  -4  -4   10.80    0.80
  -1  -4  -4   10.20    0.40
  -1  -4  -4   10.30    0.50
  -1  -4  -4   11.00    0.50
  -1  -4  -4    9.80    0.60
  -2  -4  -4 1973.30   41.60
  -2  -4  -4 1937.21   41.10
  -2  -4  -4 2023.80   41.30
  -2  -4  -4 2024.40   41.50
  -2  -4  -4 2050.99   41.50
  -2  -4  -4 2001.80   41.30
  -2  -4  -4 2000.50   41.50
  -3  -4  -4    4.00    0.30
  -3  -4  -4    3.20    0.40
  -3  -4  -4    3.90    0.40
  -3  -4  -4    4.90    0.50
  -3  -4  -4    4.00    0.40
  -3  -4  -4    3.80    0.40
   3   4   4    4.70    0.40
   3   4   4    4.10    0.40
   3   4   4    4.40    0.30
  -4  -4  -4    9.20    0.60
  -4  -4  -4    8.40    0.80
  -4  -4  -4    7.60    0.70
  -4  -4  -4    7.40    0.70
  -4  -4  -4    7.70    0.30
  -4  -4  -4    8.30    0.80
   4   4   4    8.00    0.80
   4   4   4    7.70    0.70
   4   4   4    8.20    0.60
   4   4   4    7.90    0.60
   4   4   4    7.70    0.40
  -5  -4  -4   19.00    0.90
  -5  -4  -4   18.70    1.00
  -5  -4  -4   20.80    1.30
  -5  -4  -4   18.80    1.20
  -5  -4  -4   20.70    1.30
   5   4   4   18.50    1.10
   5   4   4   19.40    1.00
   5   4   4   19.90    0.90
   5   4   4   19.10    1.10
   5   4   4   19.70    0.80
  -6  -4  -4   48.30    1.90
  -6  -4  -4   46.50    2.00
  -6  -4  -4   44.50    1.60
  -6  -4  -4   45.00    1.60
  -6  -4  -4   48.00    1.90
   6   4   4   44.40    1.70
   6   4   4   46.60    1.40
   6   4   4   44.00    1.70
   6   4   4   45.40    1.60
  -7  -4  -4   30.90    2.20
  -7  -4  -4   30.90    1.50
  -7  -4  -4   29.20    1.60
  -7  -4  -4   33.10    2.00
  -7  -4  -4   29.30    1.90
   7   4   4   30.90    1.60
   7   4   4   31.40    1.80
   7   4   4   31.70    1.80
   7   4   4   33.40    1.30
  -8  -4  -4    4.20    1.20
  -8  -4  -4    3.90    0.90
  -8  -4  -4    5.60    1.40
  -8  -4  -4    3.90    1.60
  -8  -4  -4    5.20    1.10
   8   4   4    3.70    1.20
   8   4   4    4.80    1.10
   8   4   4    4.60    0.80
   8   4   4    5.40    1.20
   8   4   4    5.80    1.10
  -9  -4  -4    8.40    1.60
  -9  -4  -4   12.20    2.00
  -9  -4  -4    6.20    1.20
   9   4   4    9.90    1.10
   9   4   4    3.30    1.70
   9   4   4    9.90    1.70
   5  -5  -4    0.60    1.60
  -5   5   4    0.50    1.50
  -5   5   4    0.10    1.00
   4  -5  -4    2.10    0.60
   4  -5  -4    1.50    1.20
   4  -5  -4    1.10    0.70
   4  -5  -4    0.70    1.30
  -4   5   4    2.30    0.80
  -4   5   4    2.90    1.20
  -4   5   4    1.50    0.90
   3  -5  -4  127.69    3.10
   3  -5  -4  135.59    3.80
   3  -5  -4  124.59    3.60
   3  -5  -4  130.99    3.70
   3  -5  -4  131.29    3.00
   3  -5  -4  127.39    3.80
  -3   5   4  134.89    3.30
  -3   5   4  125.69    3.60
  -3   5   4  134.19    3.20
   2  -5  -4    3.30    0.70
   2  -5  -4    4.70    0.90
   2  -5  -4    4.10    0.90
   2  -5  -4    4.00    0.50
   2  -5  -4    4.70    0.40
   2  -5  -4    3.50    1.10
  -2   5   4    4.10    0.60
  -2   5   4    4.10    0.80
  -2   5   4    4.40    0.60
   1  -5  -4   51.59    1.90
   1  -5  -4   51.19    1.40
   1  -5  -4   52.69    1.90
   1  -5  -4   52.59    1.60
   1  -5  -4   51.49    1.40
   1  -5  -4   50.59    1.80
  -1   5   4   51.49    1.50
  -1   5   4   54.39    1.40
   0  -5  -4   92.49    2.60
   0  -5  -4   97.39    2.30
   0  -5  -4   99.79    2.30
   0  -5  -4   96.59    2.40
   0  -5  -4   97.29    2.30
   0  -5  -4   96.39    2.70
  -1  -5  -4    1.90    0.20
  -1  -5  -4    1.50    0.40
  -1  -5  -4    2.10    0.20
  -1  -5  -4    2.30    0.40
  -1  -5  -4    1.50    0.50
  -1  -5  -4    2.40    0.30
  -1  -5  -4    1.40    0.40
  -2  -5  -4  189.88    4.20
  -2  -5  -4  195.58    4.40
  -2  -5  -4  196.78    4.40
  -2  -5  -4  203.38    4.10
  -2  -5  -4  197.18    4.10
  -2  -5  -4  197.18    4.40
  -2  -5  -4  199.08    4.50
  -3  -5  -4   26.00    1.30
  -3  -5  -4   22.20    0.70
  -3  -5  -4   21.60    0.80
  -3  -5  -4   21.60    0.90
  -3  -5  -4   22.60    0.90
  -3  -5  -4   22.60    0.80
  -3  -5  -4   23.40    0.90
  -4  -5  -4   30.50    0.90
  -4  -5  -4   30.90    1.20
  -4  -5  -4   29.40    1.20
  -4  -5  -4   31.40    1.10
  -4  -5  -4   31.80    1.20
  -4  -5  -4   33.10    1.00
  -4  -5  -4   34.40    1.50
  -4  -5  -4   31.00    1.20
   4   5   4   32.80    1.10
   4   5   4   31.60    0.90
   4   5   4   32.10    0.90
  -5  -5  -4  117.19    3.00
  -5  -5  -4  115.39    2.40
  -5  -5  -4  113.89    2.80
  -5  -5  -4  116.29    2.90
  -5  -5  -4  116.69    3.00
  -5  -5  -4  115.69    2.50
  -5  -5  -4  112.59    3.20
   5   5   4  113.89    2.80
   5   5   4  118.49    2.50
   5   5   4  114.39    2.70
   5   5   4  119.39    2.80
  -6  -5  -4   -0.20    0.70
  -6  -5  -4    0.00    0.50
  -6  -5  -4    0.40    0.60
  -6  -5  -4   -0.50    0.80
  -6  -5  -4    0.40    0.70
   6   5   4    0.60    0.70
   6   5   4    0.40    0.50
   6   5   4   -0.40    0.40
   6   5   4    0.00    0.40
   6   5   4    0.80    0.60
  -7  -5  -4    4.50    0.90
  -7  -5  -4    2.00    1.00
  -7  -5  -4    3.60    0.80
  -7  -5  -4    4.60    1.00
  -7  -5  -4    4.80    1.20
   7   5   4    2.60    1.00
   7   5   4    4.10    0.90
   7   5   4    3.40    0.80
   7   5   4    4.20    0.70
   7   5   4    3.20    0.60
  -8  -5  -4   87.59    3.40
  -8  -5  -4   97.59    3.00
  -8  -5  -4   90.19    3.00
  -8  -5  -4   95.09    3.50
  -8  -5  -4   89.99    3.70
   8   5   4   90.69    2.60
   8   5   4   93.29    3.40
   8   5   4   93.49    3.20
   8   5   4   97.59    3.30
   8   5   4   90.89    2.90
  -9  -5  -4   16.50    1.60
  -9  -5  -4   11.30    1.70
  -9  -5  -4   14.40    3.00
   9   5   4   15.10    1.20
   9   5   4   14.50    1.70
   4  -6  -4   -1.70    1.50
  -4   6   4   -0.10    1.00
  -4   6   4    1.10    0.90
  -4   6   4   -1.00    1.20
   3  -6  -4   10.60    0.90
   3  -6  -4   10.80    1.40
   3  -6  -4   10.30    1.60
   3  -6  -4   11.50    0.90
  -3   6   4    9.00    1.10
  -3   6   4   11.30    0.90
   2  -6  -4    1.80    0.80
   2  -6  -4    2.10    0.60
   2  -6  -4    2.30    0.40
   2  -6  -4    1.40    0.90
   2  -6  -4    0.70    0.90
   2  -6  -4    2.20    1.20
  -2   6   4    1.80    0.60
  -2   6   4    1.60    0.60
   1  -6  -4   22.00    1.60
   1  -6  -4   22.90    1.10
   1  -6  -4   18.80    1.90
   1  -6  -4   22.10    1.30
   1  -6  -4   22.40    1.40
   1  -6  -4   22.10    0.90
  -1   6   4   23.70    0.70
  -1   6   4   21.80    0.80
   0  -6  -4   56.79    2.20
   0  -6  -4   53.29    1.70
   0  -6  -4   57.69    1.50
   0  -6  -4   56.09    1.60
   0  -6  -4   59.39    2.00
   0  -6  -4   57.59    1.50
  -1  -6  -4   10.70    0.50
  -1  -6  -4    9.70    0.90
  -1  -6  -4   12.00    1.10
  -1  -6  -4   10.80    0.90
  -1  -6  -4   10.30    0.80
  -1  -6  -4    8.30    0.70
  -1  -6  -4   10.50    0.60
  -2  -6  -4   42.10    1.60
  -2  -6  -4   40.50    1.50
  -2  -6  -4   44.30    1.40
  -2  -6  -4   44.30    1.40
  -2  -6  -4   40.90    1.40
  -3  -6  -4 1011.40   21.80
  -3  -6  -4 1029.30   21.50
  -3  -6  -4 1040.20   21.80
  -3  -6  -4 1057.59   21.80
  -3  -6  -4 1024.20   21.80
  -3  -6  -4 1091.79   22.00
  -3  -6  -4 1067.29   21.80
  -4  -6  -4    7.80    0.70
  -4  -6  -4    6.80    0.60
  -4  -6  -4    8.60    0.70
  -4  -6  -4    8.20    0.70
  -4  -6  -4    8.30    1.00
  -4  -6  -4    8.00    0.70
  -4  -6  -4    8.40    0.80
  -5  -6  -4    0.10    0.20
  -5  -6  -4   -0.10    0.60
  -5  -6  -4    1.40    0.60
  -5  -6  -4    0.90    0.60
  -5  -6  -4    0.60    0.40
  -5  -6  -4    0.60    0.50
  -5  -6  -4    0.20    0.80
   5   6   4    0.10    0.30
   5   6   4    0.30    0.30
  -6  -6  -4   45.40    2.00
  -6  -6  -4   46.10    1.90
  -6  -6  -4   44.20    2.30
  -6  -6  -4   43.50    1.60
  -6  -6  -4   42.90    2.00
   6   6   4   46.80    1.50
   6   6   4   43.40    1.60
   6   6   4   40.30    1.40
  -7  -6  -4   91.49    3.20
  -7  -6  -4   93.49    2.70
  -7  -6  -4   96.39    2.90
  -7  -6  -4   99.19    3.40
  -7  -6  -4   94.09    3.10
   7   6   4   92.29    2.60
   7   6   4   97.59    2.50
   7   6   4   92.59    2.30
   7   6   4   97.79    2.80
   7   6   4   95.39    2.60
  -8  -6  -4   10.80    1.30
  -8  -6  -4    9.00    1.20
  -8  -6  -4    6.60    1.50
   8   6   4    9.30    1.10
   8   6   4    9.50    0.90
   8   6   4    8.50    1.20
   8   6   4   10.40    1.00
  -9  -6  -4   -0.10    1.50
  -9  -6  -4    2.50    1.40
   9   6   4    1.80    1.00
   9   6   4    0.80    1.30
   3  -7  -4    2.50    1.50
   3  -7  -4    4.30    1.50
  -3   7   4    4.40    0.80
  -3   7   4    3.40    0.90
   2  -7  -4   48.20    1.40
   2  -7  -4   42.30    2.60
   2  -7  -4   49.20    2.50
   2  -7  -4   45.70    2.00
   2  -7  -4   46.60    1.90
   1  -7  -4   12.20    1.60
   1  -7  -4   15.70    1.30
   1  -7  -4   14.80    1.40
   1  -7  -4   15.00    1.70
   1  -7  -4   13.60    0.90
   1  -7  -4   13.60    1.30
   0  -7  -4   31.50    2.30
   0  -7  -4   33.30    1.80
   0  -7  -4   31.90    1.30
   0  -7  -4   30.90    1.20
   0  -7  -4   30.30    1.10
  -1  -7  -4    4.10    0.80
  -1  -7  -4    2.60    0.60
  -1  -7  -4    3.70    1.00
  -1  -7  -4    2.00    0.80
  -1  -7  -4    3.40    0.90
  -2  -7  -4    0.80    0.60
  -2  -7  -4    1.30    0.80
  -2  -7  -4    1.10    0.80
  -2  -7  -4    1.20    0.50
  -2  -7  -4    1.30    0.70
  -2  -7  -4    0.70    0.60
  -2  -7  -4    0.70    0.60
  -3  -7  -4   52.49    2.20
  -3  -7  -4   51.89    1.70
  -3  -7  -4   52.89    1.90
  -3  -7  -4   55.79    1.90
  -3  -7  -4   51.69    1.70
  -3  -7  -4   54.49    1.90
  -3  -7  -4   51.79    2.00
  -4  -7  -4   37.80    2.10
  -4  -7  -4   41.40    1.40
  -4  -7  -4   38.80    1.50
  -4  -7  -4   36.10    1.50
  -4  -7  -4   37.20    1.60
  -5  -7  -4    4.00    0.50
  -5  -7  -4    2.70    0.60
  -5  -7  -4    3.10    1.10
  -5  -7  -4    5.50    0.70
  -5  -7  -4    3.10    0.80
  -5  -7  -4    4.40    0.60
  -5  -7  -4    3.90    0.60
  -6  -7  -4  116.69    2.60
  -6  -7  -4  118.69    3.00
  -6  -7  -4  113.19    3.10
  -6  -7  -4  115.29    2.70
  -6  -7  -4  120.69    3.20
  -6  -7  -4  112.79    3.20
  -6  -7  -4  112.89    3.70
  -7  -7  -4    1.90    1.00
  -7  -7  -4    0.10    0.80
  -7  -7  -4   -0.60    1.00
   7   7   4    0.90    0.70
   7   7   4    0.50    0.60
   7   7   4    0.40    0.60
  -8  -7  -4   -2.20    1.50
  -8  -7  -4   -2.90    1.10
  -8  -7  -4   -0.80    1.10
   8   7   4    0.60    0.90
   8   7   4    1.60    0.90
   8   7   4   -1.20    0.90
  -9  -7  -4   17.60    1.80
  -9  -7  -4   15.50    2.00
   9   7   4   12.50    1.40
   9   7   4   16.50    1.40
   2  -8  -4   19.90    1.70
   2  -8  -4   19.50    2.10
   1  -8  -4   17.10    1.30
   1  -8  -4   18.80    1.10
   1  -8  -4   17.70    1.40
   1  -8  -4   18.90    1.40
   1  -8  -4   16.30    1.80
   1  -8  -4   15.40    1.70
   0  -8  -4    4.60    0.60
   0  -8  -4    6.60    0.60
   0  -8  -4    5.50    0.50
   0  -8  -4    4.20    0.90
   0  -8  -4    6.70    0.90
   0  -8  -4    4.50    1.20
   0  -8  -4    5.00    1.10
  -1  -8  -4    1.20    0.50
  -1  -8  -4    1.70    1.00
  -1  -8  -4    1.40    0.80
  -1  -8  -4    1.00    1.30
  -1  -8  -4    1.40    1.00
  -1  -8  -4    0.80    0.60
  -1  -8  -4    1.40    0.90
  -1  -8  -4    1.50    0.30
  -2  -8  -4    1.70    0.70
  -2  -8  -4    2.70    0.90
  -2  -8  -4    2.60    0.80
  -2  -8  -4    2.00    0.90
  -2  -8  -4    3.60    1.20
  -2  -8  -4    3.00    1.00
  -2  -8  -4    1.90    0.90
  -3  -8  -4   11.70    1.50
  -3  -8  -4    9.40    0.90
  -3  -8  -4    8.90    1.10
  -3  -8  -4   10.60    1.00
  -3  -8  -4   11.90    1.00
  -3  -8  -4   10.00    1.00
  -3  -8  -4   10.40    1.20
  -3  -8  -4    9.10    1.20
  -4  -8  -4   65.89    2.30
  -4  -8  -4   62.89    2.00
  -4  -8  -4   60.29    2.40
  -4  -8  -4   60.49    2.00
  -4  -8  -4   58.19    2.30
  -4  -8  -4   58.39    2.60
  -5  -8  -4    5.50    0.90
  -5  -8  -4    7.90    1.50
  -5  -8  -4    6.20    0.60
  -5  -8  -4    4.80    0.90
  -5  -8  -4    5.60    0.80
  -6  -8  -4    0.70    0.90
  -6  -8  -4    0.70    0.80
  -6  -8  -4   -0.10    0.80
  -6  -8  -4    1.00    0.90
  -6  -8  -4   -0.30    0.40
  -6  -8  -4    1.40    0.80
  -7  -8  -4    0.00    0.30
  -7  -8  -4    0.40    0.50
  -7  -8  -4    1.20    1.00
  -7  -8  -4    0.60    1.30
  -7  -8  -4   -0.20    1.10
  -8  -8  -4   -0.30    1.40
  -8  -8  -4    1.00    1.40
   8   8   4    1.30    0.70
   8   8   4    1.40    0.70
   0  -9  -4   -0.60    0.80
   0  -9  -4   -1.20    2.10
   0  -9  -4    0.30    1.50
   0  -9  -4    0.30    0.70
  -1  -9  -4    1.10    0.80
  -1  -9  -4    0.50    1.00
  -1  -9  -4   -0.70    1.40
  -1  -9  -4   -1.00    1.30
  -1  -9  -4    1.20    1.30
  -2  -9  -4    3.40    1.40
  -2  -9  -4   -0.80    1.30
  -2  -9  -4    0.60    1.10
  -2  -9  -4    2.20    1.20
  -2  -9  -4    2.90    1.00
  -2  -9  -4    1.80    1.70
  -2  -9  -4    1.70    1.20
  -2  -9  -4    1.60    0.90
  -3  -9  -4    1.60    1.10
  -3  -9  -4   -2.00    1.30
  -3  -9  -4   -0.40    1.20
  -3  -9  -4   -0.10    1.40
  -3  -9  -4    0.40    1.00
  -3  -9  -4   -1.30    1.00
  -3  -9  -4   -0.50    0.90
  -3  -9  -4    1.30    1.00
  -4  -9  -4    1.10    1.30
  -4  -9  -4    1.00    0.90
  -4  -9  -4    3.20    1.60
  -4  -9  -4    1.40    1.00
  -4  -9  -4    1.40    1.00
  -4  -9  -4    2.40    1.40
  -4  -9  -4    1.40    1.10
  -5  -9  -4   13.00    1.60
  -5  -9  -4   13.90    1.50
  -5  -9  -4   12.70    1.30
  -5  -9  -4   14.00    1.30
  -5  -9  -4    9.80    1.60
  -5  -9  -4   12.50    1.10
  -6  -9  -4    2.20    1.30
  -6  -9  -4    1.80    1.20
  -6  -9  -4    3.00    1.20
  -6  -9  -4    1.60    0.60
  -7  -9  -4    2.60    1.40
  -7  -9  -4   -1.10    1.40
  -7  -9  -4    0.10    1.30
  -2 -10  -4   -1.20    1.50
  -2 -10  -4    2.40    1.30
  -2 -10  -4   -1.20    1.10
  -2 -10  -4   -0.70    1.70
  -3 -10  -4    1.30    1.50
  -3 -10  -4    2.60    1.50
  -3 -10  -4    1.90    1.20
  -3 -10  -4    1.30    1.30
  -4 -10  -4    0.50    2.10
  -4 -10  -4    0.00    1.30
  -4 -10  -4    0.50    1.20
  -4 -10  -4    0.50    1.60
  -4 -10  -4    2.60    1.30
  -5 -10  -4    4.00    1.30
  -5 -10  -4    2.30    1.60
  -5 -10  -4    1.10    1.00
  -5 -10  -4    3.20    1.40
  -5 -10  -4    2.50    1.40
   5   9  -5   13.30    1.10
   5   9  -5   15.20    1.50
  -5  -9   5   13.60    1.30
  -5  -9   5   11.70    1.60
  -4  -9   5   -0.40    1.10
  -4  -9   5    0.00    1.40
  -3  -9   5   13.10    1.50
  -3  -9   5   12.20    1.00
  -3  -9   5   12.20    1.30
  -3  -9   5   12.20    1.30
  -2  -9   5   17.80    1.40
  -2  -9   5   19.50    1.40
  -2  -9   5   15.60    1.10
  -2  -9   5   17.70    1.30
  -2  -9   5   17.00    1.40
  -1  -9   5   29.60    2.40
  -1  -9   5   29.20    1.40
  -1  -9   5   29.50    1.50
   0  -9   5   14.70    1.70
   0  -9   5   10.50    1.10
   0  -9   5   11.80    1.00
  -7  -8   5   24.30    2.40
  -7  -8   5   28.20    2.00
   6   8  -5    1.40    1.00
   6   8  -5    3.00    1.80
   6   8  -5   -0.10    1.10
   6   8  -5    0.30    1.30
  -6  -8   5    1.80    1.30
  -6  -8   5    0.30    0.90
   5   8  -5    1.10    0.80
   5   8  -5    2.00    1.40
   5   8  -5    0.90    1.00
  -5  -8   5   -2.20    1.40
  -5  -8   5    1.60    0.90
  -5  -8   5    2.60    1.20
   4   8  -5   44.00    2.60
   4   8  -5   39.70    1.90
   4   8  -5   45.30    1.70
  -4  -8   5   43.00    2.30
  -4  -8   5   46.70    2.50
  -4  -8   5   43.80    1.90
  -4  -8   5   43.20    2.20
   3   8  -5  166.68    4.40
   3   8  -5  162.98    3.90
   3   8  -5  165.88    3.90
  -3  -8   5  159.68    4.10
  -3  -8   5  168.58    4.10
  -3  -8   5  162.28    4.00
  -3  -8   5  155.28    4.50
   2   8  -5    1.00    0.60
   2   8  -5    0.50    0.70
  -2  -8   5    1.10    0.80
  -2  -8   5    0.30    0.60
  -2  -8   5    0.50    0.80
  -2  -8   5    1.10    0.80
  -2  -8   5    0.20    0.30
  -2  -8   5    0.80    0.30
   1   8  -5   24.90    1.40
   1   8  -5   25.90    1.20
  -1  -8   5   28.10    1.20
  -1  -8   5   28.30    1.30
  -1  -8   5   27.50    1.80
  -1  -8   5   27.20    1.30
  -1  -8   5   27.10    1.60
   0   8  -5    8.20    0.90
   0   8  -5    8.10    0.70
   0  -8   5    7.90    1.10
   0  -8   5    8.50    0.80
   0  -8   5    8.40    0.80
   0  -8   5    9.90    1.10
   0  -8   5    8.60    0.60
  -1   8  -5    5.40    0.70
  -1   8  -5    4.50    1.00
   1  -8   5    5.50    0.90
   1  -8   5    5.60    1.30
   1  -8   5    5.10    1.20
  -2   8  -5    4.70    1.20
  -2   8  -5    3.80    0.80
   2  -8   5    2.90    1.00
   2  -8   5    4.40    1.10
   2  -8   5    1.90    1.50
   7   7  -5    7.30    1.90
   7   7  -5    5.40    1.70
   7   7  -5    6.80    1.50
  -7  -7   5    5.60    1.10
  -7  -7   5    7.80    1.50
   6   7  -5    1.90    1.50
   6   7  -5    3.00    0.90
   6   7  -5    3.20    1.20
   6   7  -5    3.60    1.30
  -6  -7   5    2.30    1.60
  -6  -7   5    2.80    1.10
  -6  -7   5    2.70    0.80
   5   7  -5   41.90    2.30
   5   7  -5   40.10    1.60
   5   7  -5   42.90    1.80
   5   7  -5   47.90    2.50
   5   7  -5   43.70    2.20
  -5  -7   5   45.20    2.40
  -5  -7   5   43.50    1.70
  -5  -7   5   36.00    2.40
  -5  -7   5   39.00    1.90
  -5  -7   5   44.50    2.30
  -5  -7   5   45.70    2.10
   4   7  -5   -0.20    0.60
   4   7  -5    0.70    0.80
   4   7  -5    0.70    1.10
   4   7  -5    0.10    0.60
   4   7  -5    1.90    1.00
  -4  -7   5   -0.20    0.90
  -4  -7   5   -0.30    0.80
  -4  -7   5    0.00    1.00
  -4  -7   5    0.90    0.60
  -4  -7   5   -0.20    0.80
  -4  -7   5    0.00    0.70
   3   7  -5    1.00    0.70
   3   7  -5    1.10    0.60
   3   7  -5    1.20    0.50
   3   7  -5    1.80    0.90
  -3  -7   5    1.70    0.70
  -3  -7   5    1.30    0.90
  -3  -7   5    1.40    0.50
  -3  -7   5    1.00    0.70
  -3  -7   5    1.70    0.60
  -3  -7   5    3.10    0.70
   2   7  -5   17.10    1.50
   2   7  -5   18.10    1.20
   2   7  -5   17.30    1.10
  -2  -7   5   17.40    1.30
  -2  -7   5   15.40    1.20
  -2  -7   5   17.30    1.00
  -2  -7   5   16.70    1.30
  -2  -7   5   16.90    1.20
  -2  -7   5   18.80    1.70
   1   7  -5  183.78    4.20
   1   7  -5  181.58    4.30
   1   7  -5  172.08    4.10
  -1  -7   5  174.38    4.50
  -1  -7   5  178.88    4.00
  -1  -7   5  179.18    3.90
  -1  -7   5  176.78    4.40
  -1  -7   5  179.98    4.40
  -1  -7   5  182.88    4.10
  -1  -7   5  170.88    4.20
   0   7  -5  104.89    2.80
   0   7  -5   98.39    2.50
   0  -7   5  102.29    2.60
   0  -7   5  102.19    2.60
   0  -7   5   97.89    3.00
   0  -7   5  101.29    2.90
   0  -7   5   95.89    3.10
   0  -7   5  103.59    2.70
   0  -7   5   98.79    2.40
  -1   7  -5    9.50    1.00
  -1   7  -5    9.80    1.10
   1  -7   5    7.80    0.80
   1  -7   5    9.30    0.80
   1  -7   5    8.90    1.10
   1  -7   5    9.90    1.30
   1  -7   5   10.00    1.40
   1  -7   5    9.30    1.20
  -2   7  -5    2.90    1.00
  -2   7  -5    2.40    1.10
  -2   7  -5    2.50    1.20
  -2   7  -5    3.40    0.70
   2  -7   5    2.20    0.90
   2  -7   5    2.90    1.00
   2  -7   5    4.00    1.20
   2  -7   5    2.10    0.80
  -3   7  -5   17.70    1.50
  -3   7  -5   21.40    2.30
  -3   7  -5   18.10    1.80
  -3   7  -5   19.40    1.70
   3  -7   5   17.30    1.90
   3  -7   5   16.60    1.40
   3  -7   5   17.80    1.70
  -4   7  -5    6.50    1.80
  -4   7  -5    4.30    1.30
   4  -7   5    3.50    1.40
   4  -7   5    3.70    1.60
   4  -7   5    6.10    1.40
   8   6  -5    8.10    2.20
   8   6  -5    6.80    2.20
  -8  -6   5    3.50    1.20
  -8  -6   5    7.50    1.60
   7   6  -5   21.70    1.50
   7   6  -5   21.20    2.00
   7   6  -5   16.30    1.50
   7   6  -5   22.80    2.00
  -7  -6   5   22.10    2.20
  -7  -6   5   22.50    1.70
  -7  -6   5   24.20    2.10
   6   6  -5   33.80    2.40
   6   6  -5   36.80    2.40
   6   6  -5   34.60    2.20
   6   6  -5   34.10    2.00
  -6  -6   5   34.20    1.50
  -6  -6   5   36.50    1.90
  -6  -6   5   35.10    2.50
  -6  -6   5   39.50    3.30
   5   6  -5   50.79    2.20
   5   6  -5   55.99    2.40
   5   6  -5   50.99    1.80
   5   6  -5   55.79    2.00
   5   6  -5   54.29    2.20
  -5  -6   5   51.09    2.20
  -5  -6   5   51.99    2.10
  -5  -6   5   54.59    1.80
  -5  -6   5   56.59    2.30
  -5  -6   5   52.69    2.10
  -5  -6   5   57.19    2.30
   4   6  -5    3.60    0.80
   4   6  -5    5.10    0.60
   4   6  -5    4.80    0.90
   4   6  -5    3.90    0.80
   4   6  -5    4.50    0.70
  -4  -6   5    4.80    0.70
  -4  -6   5    5.10    0.60
  -4  -6   5    3.90    0.80
  -4  -6   5    6.10    0.90
  -4  -6   5    4.50    0.90
   3   6  -5   22.50    1.50
   3   6  -5   21.50    1.30
   3   6  -5   21.70    1.10
   3   6  -5   22.90    1.60
   3   6  -5   22.00    1.20
  -3  -6   5   22.70    1.50
  -3  -6   5   23.30    1.20
  -3  -6   5   22.50    1.10
  -3  -6   5   22.50    1.30
  -3  -6   5   22.50    1.20
  -3  -6   5   23.50    1.30
   2   6  -5   20.80    1.10
   2   6  -5   20.10    1.10
   2   6  -5   21.50    1.00
   2   6  -5   19.60    1.30
  -2  -6   5   21.00    1.10
  -2  -6   5   21.40    1.10
  -2  -6   5   22.10    1.40
  -2  -6   5   22.60    1.20
  -2  -6   5   19.70    1.00
  -2  -6   5   22.30    1.20
   1   6  -5   51.89    1.60
   1   6  -5   50.59    1.60
   1   6  -5   53.59    1.70
   1   6  -5   51.59    1.70
  -1  -6   5   52.69    1.50
  -1  -6   5   52.09    1.70
  -1  -6   5   49.70    1.90
  -1  -6   5   49.90    1.50
  -1  -6   5   51.49    1.60
  -1  -6   5   51.69    1.30
  -1  -6   5   49.60    1.70
   0   6  -5   10.60    1.20
   0   6  -5    8.80    0.70
   0  -6   5    9.40    0.70
   0  -6   5    8.40    0.90
   0  -6   5    9.90    0.80
   0  -6   5   11.30    1.00
   0  -6   5    9.30    0.80
   0  -6   5    9.20    0.80
   0  -6   5    8.60    0.80
  -1   6  -5   12.40    1.20
  -1   6  -5   19.50    1.40
  -1   6  -5   17.80    1.00
   1  -6   5   17.50    1.40
   1  -6   5   20.50    1.20
   1  -6   5   17.40    1.70
   1  -6   5   16.90    1.10
   1  -6   5   17.50    0.60
   1  -6   5   16.90    1.60
   1  -6   5   19.80    1.50
  -2   6  -5   25.40    1.70
  -2   6  -5   27.00    1.80
  -2   6  -5   24.90    1.60
  -2   6  -5   24.20    1.30
   2  -6   5   23.40    1.40
   2  -6   5   24.80    1.70
   2  -6   5   26.40    1.70
   2  -6   5   23.90    2.10
   2  -6   5   25.70    1.50
   2  -6   5   25.10    1.40
  -3   6  -5    8.00    0.90
  -3   6  -5    7.30    1.10
  -3   6  -5    7.70    1.20
  -3   6  -5    6.40    1.20
   3  -6   5    7.10    1.00
   3  -6   5    6.70    1.50
   3  -6   5    5.10    1.20
   3  -6   5    7.00    0.90
   3  -6   5    3.50    1.60
   3  -6   5    7.60    1.20
   3  -6   5    7.90    1.00
  -4   6  -5   -0.20    1.30
  -4   6  -5    1.40    1.20
  -4   6  -5    1.00    0.90
   4  -6   5    0.50    1.00
   4  -6   5    0.10    1.00
   4  -6   5   -0.90    1.20
   4  -6   5    0.10    1.30
  -5   6  -5   26.30    2.40
  -5   6  -5   24.50    1.90
   5  -6   5   26.30    2.60
   5  -6   5   24.50    1.80
   5  -6   5   26.00    2.00
   8   5  -5    7.20    2.20
   8   5  -5    8.50    2.00
   8   5  -5    5.00    1.30
  -8  -5   5    6.90    1.30
  -8  -5   5    7.30    1.40
   7   5  -5    0.40    1.50
   7   5  -5    1.40    1.50
   7   5  -5   -0.90    0.90
   7   5  -5   -0.60    1.10
  -7  -5   5    0.70    1.00
  -7  -5   5    1.60    1.30
  -7  -5   5    0.80    0.80
  -7  -5   5    0.80    1.60
   6   5  -5   22.80    2.10
   6   5  -5   25.40    1.60
   6   5  -5   21.00    1.70
   6   5  -5   23.30    2.20
   6   5  -5   22.60    1.50
  -6  -5   5   22.00    2.00
  -6  -5   5   22.70    1.60
  -6  -5   5   22.10    1.80
  -6  -5   5   23.80    1.30
  -6  -5   5   22.30    2.30
   5   5  -5    2.30    0.90
   5   5  -5    3.20    0.70
   5   5  -5    1.90    0.60
   5   5  -5    3.00    0.70
  -5  -5   5    2.80    0.80
  -5  -5   5    3.70    0.90
  -5  -5   5    2.20    0.70
  -5  -5   5    3.20    0.60
  -5  -5   5    2.50    0.80
   4   5  -5    1.50    0.60
   4   5  -5    1.60    0.80
   4   5  -5    1.50    0.50
   4   5  -5    1.20    0.70
   4   5  -5    1.40    0.50
  -4  -5   5    0.70    0.60
  -4  -5   5    1.90    0.50
  -4  -5   5    2.10    0.70
  -4  -5   5    1.70    0.70
  -4  -5   5    1.00    0.60
  -4  -5   5    1.10    0.60
   3   5  -5   -0.50    0.50
   3   5  -5    0.70    0.60
   3   5  -5    0.10    0.40
   3   5  -5    0.10    0.60
   3   5  -5    0.00    0.50
  -3  -5   5   -0.30    0.40
  -3  -5   5    0.00    0.50
  -3  -5   5   -0.60    0.60
  -3  -5   5   -0.30    0.40
  -3  -5   5   -0.30    0.50
   2   5  -5  122.19    3.10
   2   5  -5  121.19    3.00
   2   5  -5  126.19    3.00
   2   5  -5  124.69    2.90
   2   5  -5  124.89    3.20
  -2  -5   5  120.19    2.90
  -2  -5   5  120.89    2.90
  -2  -5   5  123.99    3.00
  -2  -5   5  123.59    3.10
  -2  -5   5  126.29    3.10
  -2  -5   5  123.09    3.00
   1   5  -5    0.00    0.40
   1   5  -5    0.40    0.40
   1   5  -5   -0.40    0.40
   1   5  -5    0.50    0.60
   1   5  -5    0.10    0.40
  -1  -5   5    0.30    0.20
  -1  -5   5    0.30    0.50
  -1  -5   5   -0.10    0.40
  -1  -5   5    0.30    0.30
  -1  -5   5   -0.10    0.40
  -1  -5   5   -0.10    0.30
  -1  -5   5   -0.10    0.40
   0   5  -5  245.18    5.30
   0   5  -5  248.28    5.30
   0   5  -5  240.08    5.40
   0   5  -5  234.28    5.40
   0   5  -5  250.47    5.50
   0   5  -5  238.28    5.50
   0  -5   5  236.58    5.50
   0  -5   5  242.28    5.20
   0  -5   5  239.18    5.40
   0  -5   5  247.28    5.50
   0  -5   5  241.58    5.40
   0  -5   5  248.18    5.50
   0  -5   5  244.48    5.20
  -1   5  -5    4.80    0.70
  -1   5  -5    5.30    0.50
  -1   5  -5    5.20    0.60
  -1   5  -5    5.20    0.80
  -1   5  -5    5.80    0.70
  -1   5  -5    4.50    0.50
   1  -5   5    4.60    0.50
   1  -5   5    4.90    0.50
   1  -5   5    5.70    0.40
   1  -5   5    5.50    0.70
   1  -5   5    4.80    0.60
   1  -5   5    4.30    0.60
   1  -5   5    5.30    0.80
  -2   5  -5   56.69    1.90
  -2   5  -5   54.49    2.00
  -2   5  -5   57.19    1.80
  -2   5  -5   57.89    2.20
   2  -5   5   57.49    1.90
   2  -5   5   55.39    1.90
   2  -5   5   53.99    1.80
   2  -5   5   54.09    2.30
   2  -5   5   58.09    2.00
   2  -5   5   57.79    1.70
  -3   5  -5    0.00    0.70
  -3   5  -5   -0.60    0.80
  -3   5  -5   -0.20    0.60
  -3   5  -5    0.40    0.90
   3  -5   5    0.80    0.70
   3  -5   5    0.10    0.60
   3  -5   5    0.70    1.10
   3  -5   5    0.50    0.80
  -4   5  -5    6.20    1.20
  -4   5  -5    5.40    1.00
  -4   5  -5    5.30    1.00
   4  -5   5    5.30    1.60
   4  -5   5    3.80    1.50
   4  -5   5    3.90    1.10
   4  -5   5    4.80    1.10
   4  -5   5    5.20    0.90
   4  -5   5    5.30    1.00
   4  -5   5    6.80    1.10
  -5   5  -5    0.60    1.10
  -5   5  -5    0.30    1.00
  -5   5  -5   -0.90    1.30
   5  -5   5   -0.20    1.10
   5  -5   5    0.20    1.10
   5  -5   5   -0.30    1.40
   5  -5   5    0.20    1.20
  -6   5  -5    8.90    1.70
  -6   5  -5   11.10    1.70
   6  -5   5    6.10    1.40
   6  -5   5   10.90    1.80
   6  -5   5    6.10    1.60
   8   4  -5   31.80    2.40
   8   4  -5   34.70    3.10
   8   4  -5   32.90    2.90
   8   4  -5   34.90    1.50
  -8  -4   5   35.20    2.40
  -8  -4   5   38.10    4.00
  -8  -4   5   36.00    2.30
   7   4  -5    9.20    1.50
   7   4  -5   10.80    1.30
   7   4  -5    7.40    1.70
   7   4  -5   10.10    1.40
   7   4  -5    9.60    0.80
   7   4  -5    8.30    1.00
  -7  -4   5   10.40    1.00
  -7  -4   5    9.90    1.10
  -7  -4   5   12.00    1.60
  -7  -4   5   11.20    1.80
   6   4  -5   -0.40    0.80
   6   4  -5    1.20    1.10
   6   4  -5    1.00    0.30
   6   4  -5    0.70    1.00
   6   4  -5    0.80    0.80
   6   4  -5   -0.20    0.70
  -6  -4   5   -0.10    0.80
  -6  -4   5    0.20    0.60
  -6  -4   5    0.00    1.10
  -6  -4   5    0.30    1.00
  -6  -4   5    0.70    0.80
   5   4  -5   40.20    1.60
   5   4  -5   38.90    1.50
   5   4  -5   40.80    1.90
   5   4  -5   38.60    2.00
   5   4  -5   41.00    1.70
  -5  -4   5   40.50    1.60
  -5  -4   5   40.40    1.50
  -5  -4   5   40.70    2.00
  -5  -4   5   39.90    1.80
  -5  -4   5   39.10    1.40
   4   4  -5   31.00    1.30
   4   4  -5   31.10    1.30
   4   4  -5   29.70    1.20
   4   4  -5   28.70    1.50
   4   4  -5   30.70    1.50
  -4  -4   5   28.90    1.40
  -4  -4   5   28.50    1.90
  -4  -4   5   30.60    1.30
  -4  -4   5   29.20    1.20
  -4  -4   5   31.40    1.10
   3   4  -5    1.30    0.50
   3   4  -5    1.30    0.40
   3   4  -5    1.10    0.50
  -3  -4   5    1.50    0.90
  -3  -4   5    1.30    0.80
  -3  -4   5    1.10    0.50
  -3  -4   5    1.10    0.40
  -3  -4   5    0.80    0.40
   2   4  -5    3.50    0.50
   2   4  -5    3.10    0.40
   2   4  -5    3.00    0.40
   2   4  -5    2.70    0.50
   2   4  -5    4.20    0.50
  -2  -4   5    4.30    0.50
  -2  -4   5    3.90    0.40
  -2  -4   5    2.60    0.40
  -2  -4   5    5.30    0.60
  -2  -4   5    4.70    0.50
  -2  -4   5    3.90    0.50
   1   4  -5    7.10    0.60
   1   4  -5    7.00    0.60
   1   4  -5    6.90    0.70
   1   4  -5    6.50    0.60
   1   4  -5    5.90    0.60
  -1  -4   5    6.50    0.60
  -1  -4   5    7.10    0.60
  -1  -4   5    6.30    0.30
  -1  -4   5    6.60    0.70
  -1  -4   5    6.60    0.60
  -1  -4   5    6.20    0.50
  -1  -4   5    6.00    0.50
   0   4  -5  104.49    2.60
   0   4  -5  101.39    2.50
   0   4  -5   99.29    2.60
   0   4  -5  103.69    2.40
   0   4  -5  103.69    2.70
   0   4  -5  104.59    2.60
   0   4  -5  103.49    2.40
   0  -4   5  105.09    2.30
   0  -4   5  102.49    2.50
   0  -4   5  103.49    2.60
   0  -4   5  104.59    2.60
   0  -4   5  102.59    2.60
   0  -4   5  102.29    2.30
   0  -4   5  101.59    2.50
  -1   4  -5    0.20    0.50
  -1   4  -5    0.60    0.40
  -1   4  -5    0.40    0.40
  -1   4  -5   -0.30    0.40
  -1   4  -5    0.70    0.30
  -1   4  -5    0.40    0.60
   1  -4   5    0.60    0.30
   1  -4   5    0.20    0.50
   1  -4   5    0.20    0.40
   1  -4   5    0.50    0.20
   1  -4   5    0.50    0.40
   1  -4   5    0.40    0.30
   1  -4   5    0.70    0.50
  -2   4  -5   14.70    1.20
  -2   4  -5   14.40    0.90
  -2   4  -5   13.40    1.20
  -2   4  -5   13.30    1.00
  -2   4  -5   13.30    1.00
   2  -4   5   13.00    0.40
   2  -4   5   14.50    1.00
   2  -4   5   14.60    0.80
   2  -4   5   13.20    1.00
   2  -4   5   15.00    1.00
   2  -4   5   12.00    0.90
   2  -4   5   11.20    1.20
  -3   4  -5  154.08    3.90
  -3   4  -5  154.38    3.90
  -3   4  -5  160.68    3.90
   3  -4   5  157.18    3.90
   3  -4   5  159.08    3.90
   3  -4   5  154.38    3.90
   3  -4   5  159.18    3.80
   3  -4   5  151.68    3.70
   3  -4   5  156.58    4.20
  -4   4  -5    3.90    1.00
  -4   4  -5    3.20    0.80
  -4   4  -5    2.20    0.90
  -4   4  -5    2.80    1.20
   4  -4   5    3.40    0.90
   4  -4   5    3.00    1.20
   4  -4   5    3.40    0.80
   4  -4   5    2.40    0.90
   4  -4   5    3.30    1.10
   4  -4   5    2.50    0.80
   4  -4   5    2.60    0.80
  -5   4  -5    5.70    1.30
  -5   4  -5    4.50    1.00
  -5   4  -5    5.30    1.10
  -5   4  -5    4.30    1.20
   5  -4   5    6.80    1.30
   5  -4   5    6.60    1.10
   5  -4   5    5.70    1.20
   5  -4   5    6.10    1.10
   5  -4   5    5.00    1.00
   5  -4   5    4.80    0.90
   5  -4   5    7.00    1.70
  -6   4  -5   16.60    1.60
  -6   4  -5   10.90    1.70
  -6   4  -5   16.10    1.70
   6  -4   5   14.20    1.70
   6  -4   5    8.60    2.10
   6  -4   5   17.50    1.50
   6  -4   5   18.00    1.80
   6  -4   5   13.20    1.50
   6  -4   5   15.20    1.40
  -7   4  -5    9.30    1.90
  -7   4  -5    8.00    1.70
   7  -4   5    7.20    1.70
   7  -4   5    9.20    2.10
   8   3  -5  104.29    5.10
   8   3  -5  110.69    3.00
   8   3  -5  109.99    4.00
   8   3  -5  105.79    3.30
  -8  -3   5  106.89    4.80
  -8  -3   5  109.69    3.40
  -8  -3   5  106.79    4.60
  -8  -3   5  108.89    3.60
   7   3  -5   19.90    1.50
   7   3  -5   19.30    2.00
   7   3  -5   20.40    1.80
   7   3  -5   20.80    1.60
   7   3  -5   20.00    1.20
   7   3  -5   18.30    1.90
  -7  -3   5   19.70    1.60
  -7  -3   5   20.30    1.90
  -7  -3   5   18.60    1.80
  -7  -3   5   19.30    1.60
  -7  -3   5   14.90    1.70
   6   3  -5    8.90    1.40
   6   3  -5    9.30    0.80
   6   3  -5    9.70    1.00
   6   3  -5   10.10    0.80
   6   3  -5    9.10    1.10
   6   3  -5    9.50    1.00
  -6  -3   5    9.90    0.90
  -6  -3   5    8.30    0.80
  -6  -3   5    8.60    0.90
  -6  -3   5   10.80    1.50
  -6  -3   5    9.30    1.20
   5   3  -5  188.08    4.40
   5   3  -5  188.18    4.60
   5   3  -5  187.08    4.60
   5   3  -5  179.48    4.30
   5   3  -5  187.18    4.00
  -5  -3   5  187.78    4.90
  -5  -3   5  191.68    4.40
  -5  -3   5  187.78    4.70
  -5  -3   5  186.08    4.40
  -5  -3   5  182.98    4.30
   4   3  -5   89.19    2.20
   4   3  -5   89.19    2.40
   4   3  -5   80.79    2.40
   4   3  -5   84.39    1.90
   4   3  -5   83.99    2.60
   4   3  -5   83.69    2.30
  -4  -3   5   86.49    2.20
  -4  -3   5   85.19    2.50
  -4  -3   5   88.09    2.20
  -4  -3   5   89.29    2.60
  -4  -3   5   87.99    2.30
   3   3  -5    5.30    0.50
   3   3  -5    5.40    0.70
   3   3  -5    6.90    0.50
   3   3  -5    4.40    0.50
   3   3  -5    4.00    0.60
  -3  -3   5    5.40    0.50
  -3  -3   5    6.10    0.60
  -3  -3   5    5.50    0.70
  -3  -3   5    5.70    0.60
   2   3  -5   90.69    2.30
   2   3  -5   90.89    2.20
   2   3  -5   87.89    2.40
   2   3  -5   89.89    2.30
   2   3  -5   91.79    2.20
  -2  -3   5   90.39    2.20
  -2  -3   5   88.39    2.30
  -2  -3   5   87.79    2.30
  -2  -3   5   90.39    2.30
  -2  -3   5   91.59    2.30
  -2  -3   5   91.39    2.20
   1   3  -5  128.69    3.00
   1   3  -5  116.09    3.20
   1   3  -5  128.89    2.70
   1   3  -5  126.79    3.00
   1   3  -5  134.49    3.00
   1   3  -5  130.29    3.00
  -1  -3   5  130.39    3.00
  -1  -3   5  128.29    2.70
  -1  -3   5  129.99    3.00
  -1  -3   5  130.59    3.00
  -1  -3   5  130.29    3.00
  -1  -3   5  131.79    2.90
  -1  -3   5  127.79    3.00
   0   3  -5  103.49    2.40
   0   3  -5  105.39    2.50
   0   3  -5  105.19    2.50
   0   3  -5  101.19    2.50
   0   3  -5  101.79    2.60
   0   3  -5  104.79    2.30
   0  -3   5  105.09    2.50
   0  -3   5  103.49    2.50
   0  -3   5  103.79    2.30
   0  -3   5  102.39    2.50
   0  -3   5  103.39    2.50
   0  -3   5  101.89    2.50
   0  -3   5  102.09    2.30
  -1   3  -5    0.70    0.40
  -1   3  -5    1.10    0.30
  -1   3  -5    1.00    0.40
  -1   3  -5    1.30    0.30
  -1   3  -5    1.30    0.30
   1  -3   5    1.30    0.30
   1  -3   5    1.60    0.40
   1  -3   5    1.40    0.40
   1  -3   5    0.70    0.30
   1  -3   5    1.00    0.20
   1  -3   5    1.20    0.40
   1  -3   5    1.10    0.30
  -2   3  -5    8.90    0.90
  -2   3  -5    6.00    0.70
  -2   3  -5    7.40    0.40
  -2   3  -5    6.40    0.60
  -2   3  -5    7.60    0.70
  -2   3  -5    7.60    0.70
   2  -3   5    7.20    0.80
   2  -3   5    9.40    0.80
   2  -3   5    7.30    0.70
   2  -3   5    6.80    0.40
   2  -3   5    7.00    0.60
   2  -3   5    7.10    0.60
   2  -3   5    7.80    0.60
  -3   3  -5   22.90    1.40
  -3   3  -5   22.50    1.40
  -3   3  -5   23.00    1.80
  -3   3  -5   21.00    1.10
  -3   3  -5   21.30    1.20
   3  -3   5   22.90    1.10
   3  -3   5   22.10    1.10
   3  -3   5   24.40    1.60
   3  -3   5   21.40    1.30
   3  -3   5   22.10    1.20
   3  -3   5   23.80    1.10
  -4   3  -5   22.90    1.50
  -4   3  -5   20.30    1.20
  -4   3  -5   21.90    1.70
  -4   3  -5   21.00    1.40
   4  -3   5   20.90    1.30
   4  -3   5   22.40    1.30
   4  -3   5   22.90    1.90
   4  -3   5   21.40    1.60
   4  -3   5   21.20    1.40
   4  -3   5   20.70    1.20
   4  -3   5   21.30    1.50
  -5   3  -5   -0.60    0.70
  -5   3  -5    0.60    1.00
  -5   3  -5    0.90    0.90
  -5   3  -5   -0.20    0.90
   5  -3   5    0.60    0.80
   5  -3   5    0.30    1.20
   5  -3   5    0.90    0.70
   5  -3   5    0.50    0.80
   5  -3   5    0.50    0.70
   5  -3   5    1.30    0.90
   5  -3   5    0.40    0.90
  -6   3  -5    4.00    1.40
  -6   3  -5    4.40    1.30
  -6   3  -5    3.10    1.20
  -6   3  -5    5.30    1.00
   6  -3   5    3.70    1.20
   6  -3   5    3.40    1.70
   6  -3   5    2.60    1.10
   6  -3   5    4.60    1.10
   6  -3   5    5.00    1.10
  -7   3  -5    3.20    1.70
  -7   3  -5    3.40    1.30
   7  -3   5    3.30    1.30
   7  -3   5    2.50    1.50
   7  -3   5    2.80    1.60
   7  -3   5    4.90    2.40
   7  -3   5    2.90    1.30
   7  -3   5    1.90    1.40
   8   2  -5   21.70    1.90
   8   2  -5   22.30    2.70
   8   2  -5   20.20    1.80
  -8  -2   5   12.70    3.10
  -8  -2   5   22.50    1.90
  -8  -2   5   17.70    1.40
  -8  -2   5   23.60    2.60
   7   2  -5    7.30    1.30
   7   2  -5    5.60    0.90
   7   2  -5    5.60    1.40
   7   2  -5    3.30    1.10
   7   2  -5    8.20    2.10
   7   2  -5    6.50    0.90
  -7  -2   5    6.80    1.20
  -7  -2   5    7.10    1.10
  -7  -2   5    6.60    1.00
  -7  -2   5    3.70    1.40
  -7  -2   5    5.50    1.40
   6   2  -5    4.20    0.70
   6   2  -5    5.00    1.00
   6   2  -5    4.80    1.20
   6   2  -5    3.50    1.00
   6   2  -5    3.70    0.60
   6   2  -5    3.30    0.80
  -6  -2   5    3.60    1.30
  -6  -2   5    4.40    0.70
  -6  -2   5    4.30    0.80
  -6  -2   5    3.60    1.00
  -6  -2   5    5.20    1.20
   5   2  -5  390.96    8.80
   5   2  -5  411.66    9.00
   5   2  -5  389.06    8.80
   5   2  -5  404.86    9.20
   5   2  -5  390.96    8.60
   5   2  -5  405.06    8.50
  -5  -2   5  404.76    9.00
  -5  -2   5  402.36    8.60
  -5  -2   5  404.26    9.20
  -5  -2   5  395.36    8.70
  -5  -2   5  402.76    8.70
   4   2  -5   52.99    2.00
   4   2  -5   55.49    1.80
   4   2  -5   54.09    1.40
   4   2  -5   53.39    1.70
   4   2  -5   49.90    1.70
  -4  -2   5   52.79    1.80
  -4  -2   5   51.69    2.00
  -4  -2   5   50.49    1.60
  -4  -2   5   53.69    1.50
  -4  -2   5   51.29    1.60
   3   2  -5   54.59    1.70
   3   2  -5   57.69    1.70
   3   2  -5   55.39    1.80
   3   2  -5   55.59    1.50
   3   2  -5   55.59    1.40
  -3  -2   5   58.79    1.90
  -3  -2   5   53.09    1.50
  -3  -2   5   53.59    1.70
  -3  -2   5   58.19    1.50
  -3  -2   5   56.09    1.60
   2   2  -5   97.29    2.00
   2   2  -5   93.59    2.50
   2   2  -5   93.99    2.10
   2   2  -5   94.89    2.30
   2   2  -5   96.69    2.30
   2   2  -5   95.19    2.30
   2   2  -5   91.29    2.40
  -2  -2   5   97.09    2.30
  -2  -2   5   93.59    2.40
  -2  -2   5   96.49    2.30
  -2  -2   5   95.59    2.30
   1   2  -5   97.79    2.30
   1   2  -5   98.89    2.30
   1   2  -5  100.39    2.40
   1   2  -5  102.99    2.10
   1   2  -5  101.29    2.40
   1   2  -5   98.79    2.40
  -1  -2   5  100.09    2.30
  -1  -2   5   99.99    2.30
  -1  -2   5   97.49    2.40
  -1  -2   5  100.39    2.30
  -1  -2   5   99.79    2.40
   0   2  -5    0.10    0.20
   0   2  -5    1.10    0.30
   0   2  -5    0.30    0.20
   0   2  -5    0.30    0.30
   0   2  -5    0.20    0.30
   0   2  -5    0.20    0.20
   0   2  -5    0.80    0.30
   0  -2   5    0.10    0.20
   0  -2   5    0.10    0.10
   0  -2   5    0.30    0.20
   0  -2   5    0.10    0.30
   0  -2   5    0.10    0.20
   0  -2   5    0.20    0.20
  -1   2  -5  183.68    4.10
  -1   2  -5  185.78    4.00
  -1   2  -5  181.68    4.20
  -1   2  -5  181.48    4.10
  -1   2  -5  179.88    3.90
  -1   2  -5  186.68    4.10
  -1   2  -5  182.18    4.10
   1  -2   5  181.98    4.10
   1  -2   5  180.18    3.90
   1  -2   5  189.18    4.00
   1  -2   5  173.58    4.20
   1  -2   5  185.38    3.90
   1  -2   5  182.38    4.20
   1  -2   5  182.68    4.00
  -2   2  -5  241.78    5.50
  -2   2  -5  236.08    5.00
  -2   2  -5  243.68    5.30
  -2   2  -5  237.88    5.40
  -2   2  -5  239.78    5.40
  -2   2  -5  240.48    5.30
   2  -2   5  243.08    5.20
   2  -2   5  239.78    5.50
   2  -2   5  241.28    5.00
   2  -2   5  237.68    5.30
   2  -2   5  232.28    5.20
   2  -2   5  238.68    5.40
   2  -2   5  247.18    5.30
  -3   2  -5    0.20    0.20
  -3   2  -5    0.00    0.40
  -3   2  -5   -0.10    0.50
  -3   2  -5    0.30    0.60
  -3   2  -5   -0.30    0.40
  -3   2  -5    0.20    0.40
   3  -2   5    0.20    0.60
   3  -2   5    0.00    0.40
   3  -2   5   -0.10    0.40
   3  -2   5    0.00    0.40
   3  -2   5    0.20    0.30
   3  -2   5    0.10    0.30
  -4   2  -5   32.80    1.30
  -4   2  -5   33.40    1.70
  -4   2  -5   30.50    1.40
  -4   2  -5   31.60    0.80
  -4   2  -5   32.70    0.90
  -4   2  -5   31.90    1.50
   4  -2   5   33.80    1.50
   4  -2   5   30.50    1.20
   4  -2   5   29.90    1.50
   4  -2   5   32.00    1.30
   4  -2   5   30.50    1.50
   4  -2   5   33.70    1.30
   4  -2   5   32.50    1.80
  -5   2  -5   45.90    2.30
  -5   2  -5   49.20    2.00
  -5   2  -5   51.19    2.20
  -5   2  -5   49.00    1.70
   5  -2   5   49.30    2.40
   5  -2   5   47.70    2.10
   5  -2   5   48.20    1.80
   5  -2   5   48.90    1.80
   5  -2   5   51.49    1.70
   5  -2   5   51.99    2.00
  -6   2  -5    3.20    1.00
  -6   2  -5    4.60    1.20
  -6   2  -5    3.40    1.30
  -6   2  -5    5.00    0.90
   6  -2   5    2.30    1.50
   6  -2   5    4.30    1.20
   6  -2   5    4.30    0.90
   6  -2   5    5.20    1.00
   6  -2   5    3.20    1.20
   6  -2   5    4.80    1.00
   6  -2   5    4.20    0.80
  -7   2  -5    7.80    1.50
  -7   2  -5    3.60    1.60
  -7   2  -5    6.80    1.20
   7  -2   5    5.70    1.50
   7  -2   5    5.80    1.10
   7  -2   5    8.40    1.10
   7  -2   5    4.50    1.60
   7  -2   5    6.40    1.60
   7  -2   5    7.60    1.20
  -8   2  -5    6.60    2.10
  -8   2  -5    4.70    1.50
   8  -2   5    2.30    1.50
   8  -2   5    4.30    1.40
   8  -2   5    3.40    1.40
   8  -2   5    5.60    2.10
   8  -2   5    3.60    2.00
   8  -2   5    2.50    2.20
   8   1  -5    3.00    1.50
   8   1  -5    4.20    2.50
   8   1  -5    2.00    1.30
  -8  -1   5    5.20    2.10
  -8  -1   5    3.10    1.70
  -8  -1   5    3.70    1.20
   7   1  -5   33.50    3.20
   7   1  -5   33.70    1.90
   7   1  -5   32.70    2.80
   7   1  -5   30.50    2.20
   7   1  -5   28.00    2.00
  -7  -1   5   36.70    2.80
  -7  -1   5   27.50    2.00
  -7  -1   5   32.70    3.10
  -7  -1   5   31.10    2.30
  -7  -1   5   34.90    1.80
   6   1  -5   71.59    2.80
   6   1  -5   76.49    2.30
   6   1  -5   77.59    3.10
   6   1  -5   77.09    2.90
   6   1  -5   71.69    2.70
  -6  -1   5   78.49    2.30
  -6  -1   5   76.39    3.20
  -6  -1   5   79.79    2.90
  -6  -1   5   75.79    2.20
   5   1  -5    1.50    0.50
   5   1  -5    0.70    0.80
   5   1  -5    0.60    0.60
   5   1  -5    1.80    0.80
   5   1  -5    2.10    0.60
  -5  -1   5    1.60    0.90
  -5  -1   5    1.90    0.70
  -5  -1   5    1.70    0.50
  -5  -1   5    1.40    0.50
  -5  -1   5    1.50    0.60
   4   1  -5  172.78    3.90
   4   1  -5  169.08    4.10
   4   1  -5  169.18    3.90
   4   1  -5  175.08    4.10
   4   1  -5  170.28    4.50
   4   1  -5  170.68    4.20
  -4  -1   5  179.88    4.30
  -4  -1   5  175.38    4.40
  -4  -1   5  169.38    3.90
  -4  -1   5  172.78    4.00
  -4  -1   5  172.18    3.90
   3   1  -5  254.07    5.60
   3   1  -5  261.47    6.00
   3   1  -5  264.87    5.90
   3   1  -5  254.27    5.60
   3   1  -5  257.77    5.70
   3   1  -5  257.97    5.80
  -3  -1   5  270.17    5.90
  -3  -1   5  259.07    5.60
  -3  -1   5  260.87    5.60
  -3  -1   5  261.67    6.00
  -3  -1   5  258.07    5.70
   2   1  -5  156.78    3.60
   2   1  -5  154.18    3.50
   2   1  -5  154.98    3.40
   2   1  -5  160.88    3.60
   2   1  -5  159.68    3.80
   2   1  -5  155.78    3.70
  -2  -1   5  160.88    3.50
  -2  -1   5  160.78    3.70
  -2  -1   5  157.78    3.50
  -2  -1   5  159.98    3.80
  -2  -1   5  159.98    3.50
   1   1  -5    8.50    0.50
   1   1  -5    8.70    0.50
   1   1  -5    8.90    0.60
   1   1  -5    8.10    0.40
   1   1  -5    8.90    0.60
  -1  -1   5    8.80    0.60
  -1  -1   5    8.80    0.50
  -1  -1   5    8.50    0.40
  -1  -1   5    8.10    0.50
  -1  -1   5    7.80    0.50
   0   1  -5    6.40    0.40
   0   1  -5    7.40    0.50
   0   1  -5    6.90    0.40
   0   1  -5    6.70    0.50
   0   1  -5    7.10    0.40
   0   1  -5    6.50    0.50
   0   1  -5    6.80    0.30
   0  -1   5    7.70    0.30
   0  -1   5    6.90    0.50
   0  -1   5    6.70    0.50
   0  -1   5    6.70    0.40
   0  -1   5    6.70    0.40
   0  -1   5    5.90    0.40
   0  -1   5    7.00    0.40
  -1   1  -5  310.87    6.60
  -1   1  -5  314.07    6.70
  -1   1  -5  307.67    6.50
  -1   1  -5  303.77    6.50
  -1   1  -5  304.87    6.50
  -1   1  -5  315.17    6.60
  -1   1  -5  305.67    6.40
   1  -1   5  302.57    6.50
   1  -1   5  310.07    6.50
   1  -1   5  300.07    6.60
   1  -1   5  297.97    6.40
   1  -1   5  314.67    6.70
   1  -1   5  301.37    6.60
   1  -1   5  309.77    6.40
  -2   1  -5  170.68    3.90
  -2   1  -5  165.48    3.80
  -2   1  -5  164.68    3.90
  -2   1  -5  171.68    3.80
  -2   1  -5  168.48    3.60
  -2   1  -5  173.18    4.00
  -2   1  -5  172.98    3.80
   2  -1   5  167.48    3.90
   2  -1   5  174.68    3.70
   2  -1   5  170.58    3.90
   2  -1   5  172.18    4.00
   2  -1   5  168.48    3.70
   2  -1   5  176.18    3.80
   2  -1   5  168.48    3.70
  -3   1  -5    6.60    0.60
  -3   1  -5    7.50    0.70
  -3   1  -5    6.90    0.40
  -3   1  -5    7.20    0.60
  -3   1  -5    8.30    0.80
  -3   1  -5    5.00    0.50
   3  -1   5    5.70    0.50
   3  -1   5    4.50    0.50
   3  -1   5    7.30    0.80
   3  -1   5    6.40    0.70
   3  -1   5    6.40    0.50
   3  -1   5    6.60    0.50
  -4   1  -5  277.77    5.90
  -4   1  -5  278.87    6.50
  -4   1  -5  269.77    6.20
  -4   1  -5  270.57    6.30
  -4   1  -5  275.97    6.10
  -4   1  -5  280.37    5.80
  -4   1  -5  276.27    6.40
   4  -1   5  275.07    6.20
   4  -1   5  275.27    6.00
   4  -1   5  279.17    6.50
   4  -1   5  270.77    6.30
   4  -1   5  268.57    6.00
   4  -1   5  276.47    6.10
  -5   1  -5  404.76    8.80
  -5   1  -5  400.46    9.30
  -5   1  -5  402.26    8.40
  -5   1  -5  409.36    8.90
  -5   1  -5  407.96    9.10
  -5   1  -5  400.06    8.50
   5  -1   5  421.96    8.80
   5  -1   5  405.06    9.10
   5  -1   5  403.36    9.30
   5  -1   5  402.96    8.70
   5  -1   5  399.66    8.80
   5  -1   5  401.16    9.00
   5  -1   5  401.06    8.70
  -6   1  -5    3.00    0.90
  -6   1  -5    3.50    0.40
  -6   1  -5    3.00    0.50
  -6   1  -5    3.60    1.10
  -6   1  -5    2.70    1.10
   6  -1   5    2.60    1.20
   6  -1   5    2.60    0.70
   6  -1   5    2.40    1.00
   6  -1   5    1.70    0.80
   6  -1   5    3.20    1.00
   6  -1   5    3.70    0.80
   6  -1   5    3.10    0.70
  -7   1  -5    6.50    0.50
  -7   1  -5   10.10    1.70
  -7   1  -5    7.30    0.60
  -7   1  -5    8.10    1.00
  -7   1  -5    9.80    1.70
  -7   1  -5    7.40    1.40
   7  -1   5    8.40    1.40
   7  -1   5    8.60    1.70
   7  -1   5    8.10    1.40
   7  -1   5    7.80    1.00
   7  -1   5    8.10    1.00
   7  -1   5    7.20    0.90
   7  -1   5    8.40    1.20
  -8   1  -5   10.70    0.80
  -8   1  -5   10.90    0.90
  -8   1  -5   12.60    2.10
  -8   1  -5   13.50    2.50
  -8   1  -5   11.00    1.40
   8  -1   5   11.50    2.00
   8  -1   5    8.70    1.90
   8  -1   5    9.70    1.30
   8  -1   5   10.30    1.20
   8  -1   5    8.70    2.00
   8  -1   5   10.70    1.10
   7   0  -5    9.20    1.20
   7   0  -5    9.40    1.40
   7   0  -5    7.80    1.70
   7   0  -5   10.50    1.30
   7   0  -5    7.90    1.90
  -7   0   5   10.40    1.10
  -7   0   5   13.00    1.80
  -7   0   5   12.00    2.10
  -7   0   5   10.20    1.10
  -7   0   5    9.80    1.60
   6   0  -5    7.20    1.00
   6   0  -5    4.90    0.80
   6   0  -5    5.10    1.30
   6   0  -5    4.60    0.90
   6   0  -5    4.20    1.20
   6   0  -5    4.00    0.80
  -6   0   5    5.00    1.50
  -6   0   5    6.00    0.80
  -6   0   5    6.00    0.80
  -6   0   5    6.90    1.30
  -6   0   5    6.00    1.10
   5   0  -5    3.90    0.70
   5   0  -5    3.60    0.60
   5   0  -5    3.20    0.90
   5   0  -5    5.40    0.70
   5   0  -5    3.60    0.70
   5   0  -5    3.40    1.00
  -5   0   5    3.00    0.70
  -5   0   5    4.10    0.60
  -5   0   5    3.90    0.50
  -5   0   5    3.40    0.80
  -5   0   5    4.30    1.10
   4   0  -5  291.87    6.50
   4   0  -5  296.67    6.50
   4   0  -5  294.27    6.70
   4   0  -5  288.77    6.90
   4   0  -5  300.17    6.40
   4   0  -5  289.07    6.30
  -4   0   5  297.97    6.70
  -4   0   5  287.97    6.30
  -4   0   5  294.77    6.60
  -4   0   5  294.67    6.90
   3   0  -5  231.48    5.00
   3   0  -5  231.78    5.00
   3   0  -5  223.68    5.20
   3   0  -5  225.68    5.40
   3   0  -5  225.18    5.00
  -3   0   5  228.48    5.00
  -3   0   5  225.48    5.10
  -3   0   5  225.68    4.90
  -3   0   5  229.98    5.20
  -3   0   5  225.38    5.40
   2   0  -5   63.09    1.80
   2   0  -5   58.59    1.60
   2   0  -5   62.09    1.60
   2   0  -5   62.39    1.60
   2   0  -5   57.49    1.80
   2   0  -5   62.49    1.60
  -2   0   5   62.49    1.40
  -2   0   5   63.59    1.70
  -2   0   5   59.99    1.80
  -2   0   5   62.39    1.50
  -2   0   5   58.49    1.60
   1   0  -5  367.86    7.70
   1   0  -5  380.16    7.90
   1   0  -5  357.96    7.80
   1   0  -5  369.66    7.80
   1   0  -5  364.26    7.90
   1   0  -5  376.86    7.80
  -1   0   5  375.46    7.80
  -1   0   5  367.76    7.90
  -1   0   5  360.96    7.80
  -1   0   5  365.86    7.60
  -1   0   5  375.06    7.90
  -1   0   5  368.96    7.60
   0   0  -5  600.14   12.50
   0   0  -5  607.84   12.70
   0   0  -5  600.64   12.70
   0   0  -5  610.34   12.60
   0   0  -5  621.04   12.70
   0   0  -5  611.84   12.60
   0   0  -5  616.84   12.60
   0   0   5  584.24   12.70
   0   0   5  609.24   12.60
   0   0   5  607.34   12.70
   0   0   5  612.44   12.50
   0   0   5  607.04   12.60
   0   0   5  613.44   12.70
  -1   0  -5  472.25    9.60
  -1   0  -5  459.85    9.50
  -1   0  -5  462.05    9.60
  -1   0  -5  447.76    9.60
  -1   0  -5  450.95    9.50
  -1   0  -5  445.06    9.50
  -1   0  -5  455.25    9.50
   1   0   5  437.96    9.50
   1   0   5  453.15    9.50
   1   0   5  464.35    9.50
   1   0   5  454.95    9.60
   1   0   5  457.05    9.50
   1   0   5  446.16    9.60
   1   0   5  473.85    9.70
  -2   0  -5  204.88    4.50
  -2   0  -5  211.58    4.70
  -2   0  -5  211.88    4.50
  -2   0  -5  216.28    4.60
  -2   0  -5  208.08    4.70
  -2   0  -5  211.38    4.60
  -2   0  -5  211.08    4.70
   2   0   5  205.08    4.50
   2   0   5  208.58    4.70
   2   0   5  216.78    4.60
   2   0   5  214.08    4.60
   2   0   5  212.18    4.50
   2   0   5  213.98    4.80
   2   0   5  208.88    4.50
  -3   0  -5  570.94   11.80
  -3   0  -5  558.74   11.80
  -3   0  -5  574.14   12.00
  -3   0  -5  562.94   11.70
  -3   0  -5  578.14   12.10
  -3   0  -5  564.74   12.00
   3   0   5  536.95   11.80
   3   0   5  549.35   11.90
   3   0   5  566.14   12.10
   3   0   5  564.74   11.80
   3   0   5  563.44   11.60
   3   0   5  559.44   12.00
  -4   0  -5   20.20    0.70
  -4   0  -5   20.30    1.00
  -4   0  -5   20.30    1.30
  -4   0  -5   18.20    1.10
  -4   0  -5   20.60    1.30
  -4   0  -5   21.70    0.90
   4   0   5   22.40    0.90
   4   0   5   19.20    1.10
   4   0   5   20.50    1.30
   4   0   5   17.50    0.80
   4   0   5   20.60    1.00
   4   0   5   19.80    0.70
   4   0   5   18.90    0.80
  -5   0  -5    4.50    0.50
  -5   0  -5    5.50    0.90
  -5   0  -5    5.70    0.70
  -5   0  -5    5.10    0.80
  -5   0  -5    5.30    0.40
  -5   0  -5    5.10    0.50
   5   0   5    5.30    0.60
   5   0   5    4.80    0.80
   5   0   5    5.00    0.70
   5   0   5    5.30    0.50
   5   0   5    4.10    0.50
   5   0   5    4.70    0.40
   5   0   5    5.70    0.90
  -6   0  -5  200.88    5.40
  -6   0  -5  200.08    5.20
  -6   0  -5  206.98    4.80
  -6   0  -5  202.48    4.60
  -6   0  -5  204.08    4.50
  -6   0  -5  201.48    4.90
   6   0   5  202.48    4.50
   6   0   5  200.58    4.80
   6   0   5  196.28    4.70
   6   0   5  201.28    5.10
   6   0   5  209.08    5.30
   6   0   5  203.08    5.40
   6   0   5  209.18    4.50
  -7   0  -5   12.20    1.10
  -7   0  -5   14.40    1.50
  -7   0  -5   18.30    1.40
  -7   0  -5   15.60    1.10
  -7   0  -5   18.50    1.70
  -7   0  -5   17.50    1.50
   7   0   5   17.70    1.60
   7   0   5   10.90    1.30
   7   0   5   15.80    1.20
   7   0   5   17.10    1.40
   7   0   5   16.30    1.50
   7   0   5   12.60    1.20
   7   0   5   15.00    1.00
  -8   0  -5    0.00    0.70
  -8   0  -5   -0.20    1.00
  -8   0  -5    0.10    1.70
  -8   0  -5   -0.60    1.70
   8   0   5   -0.30    1.30
   8   0   5   -0.30    1.00
   8   0   5   -1.10    1.50
   8   0   5    0.40    0.70
   8   0   5    1.70    1.60
   8   0   5    0.60    0.80
  -9   0  -5   -4.40    2.10
  -9   0  -5    0.70    1.40
   9   0   5    0.50    2.20
   9   0   5    0.30    2.10
   9   0   5    1.70    1.30
   7  -1  -5    1.30    1.30
   7  -1  -5    3.40    1.90
   7  -1  -5   -0.30    1.30
   7  -1  -5   -2.90    1.90
   7  -1  -5   -0.10    1.20
  -7   1   5    4.00    1.80
  -7   1   5    0.30    1.00
  -7   1   5    1.40    1.00
  -7   1   5    1.70    1.70
   6  -1  -5    1.60    1.30
   6  -1  -5    1.40    1.50
   6  -1  -5    1.80    0.80
   6  -1  -5    2.00    1.00
   6  -1  -5    1.90    0.90
   6  -1  -5    0.60    0.90
  -6   1   5   -0.40    1.30
  -6   1   5    1.40    1.10
  -6   1   5    0.90    0.70
  -6   1   5    0.30    1.10
  -6   1   5    0.60    0.70
   5  -1  -5    3.40    0.60
   5  -1  -5    2.60    0.90
   5  -1  -5    3.50    0.70
   5  -1  -5    2.60    0.70
   5  -1  -5    1.40    0.90
   5  -1  -5    1.70    0.70
  -5   1   5    3.50    0.50
  -5   1   5    2.80    0.80
  -5   1   5    2.00    1.00
  -5   1   5    2.90    0.60
   4  -1  -5   30.50    1.30
   4  -1  -5   27.50    1.00
   4  -1  -5   30.30    1.40
   4  -1  -5   30.30    1.80
   4  -1  -5   28.80    1.20
  -4   1   5   26.00    1.60
  -4   1   5   27.80    1.70
  -4   1   5   30.30    1.50
  -4   1   5   29.00    1.50
  -4   1   5   27.80    1.00
   3  -1  -5   20.60    0.70
   3  -1  -5   22.60    1.30
   3  -1  -5   17.70    1.10
   3  -1  -5   21.00    1.00
   3  -1  -5   20.50    1.20
   3  -1  -5   20.50    1.10
  -3   1   5   19.50    1.30
  -3   1   5   20.40    1.10
  -3   1   5   21.10    0.70
  -3   1   5   21.30    1.10
  -3   1   5   20.40    0.90
   2  -1  -5   23.20    0.80
   2  -1  -5   21.10    0.90
   2  -1  -5   21.50    1.10
   2  -1  -5   22.50    0.90
   2  -1  -5   21.10    1.00
  -2   1   5   22.10    1.10
  -2   1   5   22.10    1.00
  -2   1   5   21.90    0.60
  -2   1   5   22.20    0.80
  -2   1   5   20.60    0.90
   1  -1  -5    2.20    0.30
   1  -1  -5    2.60    0.30
   1  -1  -5    3.10    0.40
   1  -1  -5    1.40    0.20
   1  -1  -5    1.20    0.30
  -1   1   5    1.80    0.20
  -1   1   5    1.80    0.30
  -1   1   5    2.60    0.40
  -1   1   5    1.80    0.30
   0  -1  -5  200.48    4.40
   0  -1  -5  203.58    4.30
   0  -1  -5  190.98    4.30
   0  -1  -5  200.88    4.30
   0  -1  -5  207.78    4.30
   0   1   5  187.68    4.40
   0   1   5  209.18    4.30
   0   1   5  198.78    4.40
   0   1   5  202.48    4.30
  -1  -1  -5    0.20    0.20
  -1  -1  -5    0.20    0.20
  -1  -1  -5    0.20    0.20
  -1  -1  -5    0.20    0.20
  -1  -1  -5    0.20    0.20
  -1  -1  -5    0.40    0.10
  -1  -1  -5    0.30    0.10
   1   1   5    0.70    0.20
   1   1   5    0.50    0.20
   1   1   5    0.20    0.10
   1   1   5    0.10    0.20
   1   1   5    0.00    0.20
   1   1   5    0.50    0.10
  -2  -1  -5  123.09    2.90
  -2  -1  -5  118.59    2.80
  -2  -1  -5  119.59    2.80
  -2  -1  -5  121.79    2.70
  -2  -1  -5  119.69    2.60
  -2  -1  -5  124.19    2.70
  -2  -1  -5  119.09    2.70
   2   1   5  121.69    2.90
   2   1   5  120.89    2.70
   2   1   5  123.29    2.80
   2   1   5  120.59    2.80
   2   1   5  123.89    2.70
   2   1   5  118.69    2.60
   2   1   5  119.79    2.70
  -3  -1  -5   91.39    2.10
  -3  -1  -5   88.69    2.10
  -3  -1  -5   90.09    2.30
  -3  -1  -5   85.09    2.10
  -3  -1  -5   87.79    2.30
  -3  -1  -5   80.59    2.30
   3   1   5   89.09    2.10
   3   1   5   91.89    2.10
   3   1   5   87.69    2.20
   3   1   5   89.29    2.40
   3   1   5   89.49    1.90
   3   1   5   88.49    2.20
  -4  -1  -5  117.99    2.80
  -4  -1  -5  115.99    3.10
  -4  -1  -5  116.39    3.00
  -4  -1  -5  115.59    3.10
  -4  -1  -5  115.89    2.70
  -4  -1  -5  119.79    2.80
   4   1   5  117.89    3.00
   4   1   5  120.49    2.80
   4   1   5  119.39    2.60
   4   1   5  114.19    2.90
   4   1   5  119.29    3.10
   4   1   5  118.59    2.80
   4   1   5  117.39    2.50
  -5  -1  -5  212.38    5.20
  -5  -1  -5  223.08    5.00
  -5  -1  -5  224.78    5.40
  -5  -1  -5  212.28    4.90
  -5  -1  -5  211.88    4.90
   5   1   5  221.88    5.30
   5   1   5  213.38    5.10
   5   1   5  211.18    4.80
   5   1   5  218.78    4.60
   5   1   5  210.48    5.10
   5   1   5  218.38    4.60
   5   1   5  219.28    4.90
  -6  -1  -5  669.63   14.60
  -6  -1  -5  664.33   14.30
  -6  -1  -5  674.63   14.10
  -6  -1  -5  687.83   14.70
  -6  -1  -5  659.83   14.20
   6   1   5  679.53   14.40
   6   1   5  655.83   13.80
   6   1   5  651.93   14.10
   6   1   5  667.33   14.50
   6   1   5  673.53   14.70
   6   1   5  661.93   13.80
   6   1   5  662.03   14.20
  -7  -1  -5   10.40    1.00
  -7  -1  -5   11.00    1.40
  -7  -1  -5   11.20    0.90
  -7  -1  -5    7.60    1.10
  -7  -1  -5    8.50    1.20
   7   1   5    9.00    1.20
   7   1   5   11.20    1.30
   7   1   5   10.00    0.60
   7   1   5    7.30    0.80
   7   1   5    9.40    1.10
   7   1   5   10.80    0.80
   7   1   5    7.30    1.20
  -8  -1  -5    8.80    1.60
  -8  -1  -5    7.20    1.70
  -8  -1  -5    9.70    1.00
  -8  -1  -5   10.40    2.00
  -8  -1  -5    9.20    1.10
   8   1   5    9.20    1.60
   8   1   5    8.70    0.80
   8   1   5    7.10    1.00
   8   1   5    8.80    1.70
   8   1   5   10.60    1.00
   8   1   5    8.20    1.70
  -9  -1  -5   86.69    3.20
  -9  -1  -5   87.29    5.10
  -9  -1  -5   94.29    4.40
  -9  -1  -5   87.09    2.80
  -9  -1  -5   87.89    3.00
   9   1   5   84.39    4.20
   9   1   5   83.89    2.70
   9   1   5   92.99    4.40
   9   1   5   91.89    3.30
   7  -2  -5   19.80    1.90
   7  -2  -5   16.70    1.50
  -7   2   5   17.20    1.50
  -7   2   5   14.30    2.20
  -7   2   5   23.30    2.80
   6  -2  -5    1.90    1.80
   6  -2  -5    0.30    1.10
   6  -2  -5    1.50    1.60
   6  -2  -5    0.20    0.90
   6  -2  -5    1.30    1.00
  -6   2   5    1.20    0.70
  -6   2   5    0.40    1.30
  -6   2   5   -0.40    0.80
  -6   2   5   -1.20    1.40
  -6   2   5   -0.20    1.60
   5  -2  -5   18.90    1.10
   5  -2  -5   19.50    1.40
   5  -2  -5   18.10    1.70
   5  -2  -5   21.10    1.80
   5  -2  -5   14.20    1.40
   5  -2  -5   17.90    1.70
  -5   2   5   18.40    1.70
  -5   2   5   17.40    1.10
  -5   2   5   15.70    1.50
  -5   2   5   15.50    1.10
  -5   2   5   17.60    1.70
   4  -2  -5   22.60    1.00
   4  -2  -5   19.30    1.80
   4  -2  -5   22.20    1.60
   4  -2  -5   21.20    1.10
   4  -2  -5   21.20    1.30
   4  -2  -5   22.60    1.40
  -4   2   5   22.10    0.90
  -4   2   5   20.20    1.70
  -4   2   5   21.90    1.40
  -4   2   5   19.60    1.70
   3  -2  -5    1.30    0.30
   3  -2  -5    1.80    0.60
   3  -2  -5    1.50    0.40
   3  -2  -5    1.90    0.50
   3  -2  -5    1.40    0.50
  -3   2   5    1.80    0.60
  -3   2   5    2.20    0.40
  -3   2   5    1.80    0.30
  -3   2   5    0.80    0.60
  -3   2   5    1.90    0.50
   2  -2  -5    1.00    0.40
   2  -2  -5    1.30    0.20
   2  -2  -5    1.50    0.50
   2  -2  -5    1.00    0.30
   2  -2  -5    0.90    0.50
   2  -2  -5    1.30    0.40
  -2   2   5    0.90    0.30
  -2   2   5    1.10    0.20
  -2   2   5    0.90    0.50
  -2   2   5    1.00    0.50
   1  -2  -5   81.39    2.10
   1  -2  -5   79.99    2.00
   1  -2  -5   83.39    2.10
   1  -2  -5   81.39    2.20
   1  -2  -5   83.49    1.90
   1  -2  -5   83.19    2.10
  -1   2   5   82.69    2.00
  -1   2   5   79.89    2.10
  -1   2   5   82.59    2.00
  -1   2   5   83.79    2.20
   0  -2  -5  236.98    5.20
   0  -2  -5  238.38    5.20
   0  -2  -5  241.68    5.20
   0  -2  -5  237.18    5.10
   0  -2  -5  248.98    5.20
   0  -2  -5  233.88    5.20
   0   2   5  247.88    5.30
   0   2   5  246.28    5.20
   0   2   5  235.18    5.20
   0   2   5  244.58    5.20
  -1  -2  -5   44.40    1.20
  -1  -2  -5   48.00    1.20
  -1  -2  -5   46.30    1.10
  -1  -2  -5   45.10    1.20
  -1  -2  -5   47.40    1.20
  -1  -2  -5   46.80    1.20
  -1  -2  -5   45.80    1.20
   1   2   5   48.20    1.20
   1   2   5   46.80    1.20
   1   2   5   47.00    1.30
   1   2   5   47.60    1.10
   1   2   5   45.70    1.20
   1   2   5   46.50    1.20
  -2  -2  -5   35.00    0.90
  -2  -2  -5   34.70    1.10
  -2  -2  -5   34.80    0.90
  -2  -2  -5   35.10    1.00
  -2  -2  -5   34.80    1.00
  -2  -2  -5   35.00    1.00
  -2  -2  -5   35.70    1.00
   2   2   5   35.60    0.90
   2   2   5   34.40    1.00
   2   2   5   35.40    0.90
   2   2   5   36.40    0.90
   2   2   5   33.90    1.00
   2   2   5   35.60    1.10
  -3  -2  -5   22.90    0.90
  -3  -2  -5   22.90    0.80
  -3  -2  -5   21.40    0.90
  -3  -2  -5   22.40    1.00
  -3  -2  -5   22.60    0.50
  -3  -2  -5   23.90    0.80
  -3  -2  -5   21.30    0.80
   3   2   5   22.60    1.00
   3   2   5   21.80    0.80
   3   2   5   22.70    0.80
   3   2   5   22.30    0.90
   3   2   5   22.90    0.60
   3   2   5   23.10    0.80
  -4  -2  -5    0.10    0.30
  -4  -2  -5   -0.10    0.40
  -4  -2  -5    0.30    0.40
  -4  -2  -5    0.60    0.50
  -4  -2  -5   -0.10    0.30
   4   2   5   -0.10    0.30
   4   2   5   -0.40    0.40
   4   2   5    0.80    0.30
   4   2   5   -0.10    0.50
  -5  -2  -5    4.20    0.60
  -5  -2  -5    3.00    0.50
  -5  -2  -5    4.30    0.80
  -5  -2  -5    2.90    0.70
  -5  -2  -5    3.30    0.60
   5   2   5    3.10    0.50
   5   2   5    2.70    0.70
   5   2   5    3.10    0.60
   5   2   5    3.70    0.50
  -6  -2  -5   30.00    1.80
  -6  -2  -5   31.40    1.90
  -6  -2  -5   30.40    1.50
  -6  -2  -5   30.30    1.30
   6   2   5   32.40    1.60
   6   2   5   31.90    1.80
   6   2   5   30.90    1.30
   6   2   5   32.50    1.60
   6   2   5   31.30    1.40
  -7  -2  -5    4.30    0.90
  -7  -2  -5    3.60    0.90
  -7  -2  -5    3.10    0.70
  -7  -2  -5    4.60    0.90
  -7  -2  -5    4.30    1.20
   7   2   5    4.30    1.20
   7   2   5    4.40    1.10
   7   2   5    4.70    0.90
   7   2   5    5.30    0.80
   7   2   5    4.40    1.00
  -8  -2  -5    0.20    0.90
  -8  -2  -5   -1.50    1.40
  -8  -2  -5   -0.30    1.10
  -8  -2  -5   -0.90    0.90
  -8  -2  -5    0.20    1.30
   8   2   5   -1.20    1.10
   8   2   5    0.50    0.80
   8   2   5    0.80    1.20
   8   2   5   -1.90    1.10
   8   2   5   -0.70    1.40
  -9  -2  -5   38.70    2.30
  -9  -2  -5   37.90    2.50
  -9  -2  -5   35.90    3.40
  -9  -2  -5   39.60    4.30
   9   2   5   45.00    3.80
   9   2   5   35.70    3.00
   9   2   5   41.40    3.30
   9   2   5   36.70    2.30
   6  -3  -5    8.70    1.10
   6  -3  -5   10.30    1.60
   6  -3  -5    9.10    1.70
  -6   3   5    7.30    1.90
  -6   3   5    8.90    1.10
  -6   3   5   11.60    2.10
  -6   3   5   10.20    1.00
   5  -3  -5   11.60    1.60
   5  -3  -5   10.20    0.90
   5  -3  -5   11.00    1.70
   5  -3  -5    8.40    1.20
   5  -3  -5   11.70    0.80
   5  -3  -5    9.90    1.30
  -5   3   5   11.00    0.80
  -5   3   5   10.50    1.20
  -5   3   5   11.80    1.60
  -5   3   5   13.00    1.60
  -5   3   5   11.30    1.10
   4  -3  -5   28.50    1.30
   4  -3  -5   29.00    1.80
   4  -3  -5   30.80    1.70
   4  -3  -5   29.90    1.10
   4  -3  -5   27.80    1.90
  -4   3   5   28.90    2.10
  -4   3   5   29.80    1.10
  -4   3   5   31.20    2.00
  -4   3   5   30.90    2.10
   3  -3  -5   74.89    1.80
   3  -3  -5   75.69    2.40
   3  -3  -5   72.49    2.30
   3  -3  -5   73.09    2.50
   3  -3  -5   71.19    2.20
   3  -3  -5   74.19    1.90
  -3   3   5   74.29    2.60
  -3   3   5   71.79    1.90
  -3   3   5   73.79    2.50
  -3   3   5   76.49    2.20
  -3   3   5   74.59    1.80
   2  -3  -5   21.00    1.20
   2  -3  -5   18.90    0.80
   2  -3  -5   19.90    1.10
   2  -3  -5   19.90    1.30
   2  -3  -5   19.30    1.10
   2  -3  -5   20.40    0.60
  -2   3   5   19.80    0.70
  -2   3   5   19.40    1.20
  -2   3   5   19.40    1.30
  -2   3   5   18.80    0.80
   1  -3  -5    2.40    0.40
   1  -3  -5    2.90    0.50
   1  -3  -5    2.80    0.30
   1  -3  -5    2.50    0.50
   1  -3  -5    1.90    0.40
   1  -3  -5    2.00    0.20
  -1   3   5    2.50    0.50
  -1   3   5    2.70    0.40
  -1   3   5    2.20    0.40
  -1   3   5    2.30    0.50
   0  -3  -5  124.09    2.70
   0  -3  -5  104.39    2.60
   0  -3  -5  123.99    2.80
   0  -3  -5  119.59    2.70
   0  -3  -5  122.69    2.80
   0  -3  -5  121.09    2.60
   0  -3  -5  124.09    2.90
   0   3   5  120.19    2.80
   0   3   5  124.09    2.80
   0   3   5  121.99    3.00
   0   3   5  124.69    2.70
  -1  -3  -5   32.60    1.00
  -1  -3  -5   32.50    0.90
  -1  -3  -5   31.90    0.80
  -1  -3  -5   32.50    1.00
  -1  -3  -5   32.60    0.90
  -1  -3  -5   34.40    1.00
  -1  -3  -5   32.30    0.90
   1   3   5   31.60    0.90
   1   3   5   32.50    1.10
   1   3   5   32.80    0.90
  -2  -3  -5   24.10    0.80
  -2  -3  -5   23.50    0.90
  -2  -3  -5   24.50    0.70
  -2  -3  -5   24.40    0.80
  -2  -3  -5   24.40    0.70
  -2  -3  -5   23.30    0.70
  -2  -3  -5   24.10    0.90
   2   3   5   25.50    0.80
   2   3   5   24.10    0.70
   2   3   5   23.40    0.80
   2   3   5   23.20    0.90
   2   3   5   24.30    0.70
   2   3   5   23.90    0.80
  -3  -3  -5   12.90    0.70
  -3  -3  -5   12.70    0.70
  -3  -3  -5   12.80    0.40
  -3  -3  -5   12.00    0.70
  -3  -3  -5   13.20    0.70
  -3  -3  -5   12.70    0.60
  -3  -3  -5   12.00    0.60
   3   3   5   13.30    0.60
   3   3   5   12.60    0.80
   3   3   5   12.60    0.60
   3   3   5   12.60    0.50
   3   3   5   12.60    0.60
  -4  -3  -5   94.49    2.50
  -4  -3  -5   95.99    2.50
  -4  -3  -5   92.59    2.50
  -4  -3  -5   93.99    2.30
  -4  -3  -5   98.89    2.30
   4   3   5   96.69    2.40
   4   3   5   91.79    2.30
   4   3   5   91.09    2.70
   4   3   5   92.29    2.30
   4   3   5   94.49    2.20
  -5  -3  -5   19.40    1.30
  -5  -3  -5   21.00    1.30
  -5  -3  -5   19.70    1.30
  -5  -3  -5   18.00    0.90
   5   3   5   20.60    0.90
   5   3   5   19.50    0.90
   5   3   5   20.60    1.30
   5   3   5   19.50    1.10
  -6  -3  -5    1.30    0.50
  -6  -3  -5    0.90    0.60
  -6  -3  -5    1.40    0.90
  -6  -3  -5    1.10    0.60
   6   3   5   -0.60    0.50
   6   3   5    0.60    0.60
   6   3   5    0.90    0.60
   6   3   5    0.90    0.40
   6   3   5    1.30    0.70
  -7  -3  -5   66.09    2.30
  -7  -3  -5   61.49    2.60
  -7  -3  -5   61.79    2.80
  -7  -3  -5   66.79    2.10
  -7  -3  -5   65.19    2.30
   7   3   5   64.09    2.20
   7   3   5   61.19    2.50
   7   3   5   60.59    2.40
   7   3   5   61.09    2.20
   7   3   5   65.39    2.00
  -8  -3  -5    1.70    1.60
  -8  -3  -5   -0.60    1.30
  -8  -3  -5    0.90    1.00
  -8  -3  -5    0.00    1.00
  -8  -3  -5    0.40    0.80
   8   3   5    1.10    1.20
   8   3   5    0.40    1.20
   8   3   5    0.70    0.80
   8   3   5   -0.40    1.10
   8   3   5    1.40    1.10
  -9  -3  -5   -0.80    2.00
  -9  -3  -5    0.10    1.00
  -9  -3  -5   -0.10    1.40
  -9  -3  -5    1.00    1.70
   9   3   5    0.20    1.60
   9   3   5    2.00    2.10
   9   3   5    2.10    1.60
   9   3   5    1.10    1.00
   5  -4  -5   24.40    1.80
   5  -4  -5   27.50    2.60
   5  -4  -5   25.40    2.50
   5  -4  -5   22.40    1.60
  -5   4   5   21.50    2.30
  -5   4   5   25.50    1.50
  -5   4   5   27.20    2.80
  -5   4   5   24.10    1.60
   4  -4  -5   13.10    1.00
   4  -4  -5   14.60    1.60
   4  -4  -5   14.60    1.40
   4  -4  -5   13.10    1.30
   4  -4  -5   16.60    1.10
   4  -4  -5   13.00    1.40
  -4   4   5   14.30    1.10
  -4   4   5   14.00    1.40
  -4   4   5   11.70    1.10
  -4   4   5   11.90    1.20
  -4   4   5   16.40    1.70
   3  -4  -5   66.69    1.70
   3  -4  -5   59.79    2.30
   3  -4  -5   62.89    2.40
   3  -4  -5   67.99    2.50
   3  -4  -5   66.29    2.30
   3  -4  -5   67.19    1.80
  -3   4   5   66.29    2.10
  -3   4   5   65.99    1.90
  -3   4   5   67.69    1.80
  -3   4   5   63.89    2.70
  -3   4   5   65.79    2.40
   2  -4  -5    0.30    0.60
   2  -4  -5   -0.30    0.60
   2  -4  -5    0.40    0.30
   2  -4  -5    0.60    0.60
   2  -4  -5    0.00    0.30
   2  -4  -5   -0.40    0.60
  -2   4   5    0.40    0.50
  -2   4   5    0.30    0.60
  -2   4   5   -0.20    0.40
  -2   4   5    0.20    0.30
  -2   4   5    1.10    0.80
   1  -4  -5    0.30    0.30
   1  -4  -5    0.50    0.20
   1  -4  -5   -0.10    0.50
   1  -4  -5    0.60    0.40
   1  -4  -5    0.40    0.60
   1  -4  -5   -0.20    0.40
  -1   4   5    0.20    0.50
  -1   4   5    0.30    0.70
  -1   4   5    0.20    0.30
  -1   4   5    0.20    0.40
   0  -4  -5   30.60    1.30
   0  -4  -5   31.30    0.80
   0  -4  -5   31.60    1.20
   0  -4  -5   31.90    1.00
   0  -4  -5   33.10    1.00
   0  -4  -5   31.60    1.10
   0  -4  -5   25.60    1.30
   0   4   5   31.70    0.90
   0   4   5   30.20    1.40
   0   4   5   31.90    1.10
  -1  -4  -5   -0.20    0.20
  -1  -4  -5    0.10    0.20
  -1  -4  -5   -0.30    0.30
  -1  -4  -5    0.10    0.30
  -1  -4  -5   -0.30    0.20
  -1  -4  -5    0.00    0.20
  -1  -4  -5    0.20    0.20
  -1  -4  -5    0.50    0.40
   1   4   5    0.00    0.40
   1   4   5    0.10    0.20
   1   4   5    0.10    0.20
  -2  -4  -5   15.10    0.80
  -2  -4  -5   16.10    0.60
  -2  -4  -5   15.80    0.70
  -2  -4  -5   18.20    0.80
  -2  -4  -5   16.00    0.60
  -2  -4  -5   16.40    0.60
  -2  -4  -5   15.80    0.70
   2   4   5   15.70    0.50
   2   4   5   15.50    0.60
  -3  -4  -5    0.50    0.30
  -3  -4  -5    0.50    0.30
  -3  -4  -5    0.60    0.20
  -3  -4  -5    0.70    0.30
  -3  -4  -5    0.60    0.40
  -3  -4  -5    0.90    0.30
  -3  -4  -5    0.40    0.30
   3   4   5    0.40    0.20
   3   4   5    0.40    0.30
   3   4   5    0.40    0.30
  -4  -4  -5   21.50    0.90
  -4  -4  -5   19.00    1.00
  -4  -4  -5   21.10    1.00
  -4  -4  -5   20.60    0.50
  -4  -4  -5   20.20    0.90
   4   4   5   20.90    0.90
   4   4   5   20.50    0.80
   4   4   5   21.50    0.70
   4   4   5   20.80    1.00
   4   4   5   20.40    1.00
  -5  -4  -5   18.90    1.20
  -5  -4  -5   18.90    1.40
  -5  -4  -5   20.20    1.30
  -5  -4  -5   19.30    1.00
  -5  -4  -5   20.30    1.30
  -5  -4  -5   20.20    1.10
   5   4   5   19.00    1.00
   5   4   5   21.00    1.10
   5   4   5   19.70    0.90
   5   4   5   19.10    1.20
   5   4   5   20.50    0.80
  -6  -4  -5    1.40    0.60
  -6  -4  -5    0.50    0.80
  -6  -4  -5    1.60    0.70
  -6  -4  -5    1.40    0.80
  -6  -4  -5    1.10    0.60
   6   4   5    1.80    0.50
   6   4   5    2.00    0.50
   6   4   5    1.80    0.80
   6   4   5    2.40    0.60
   6   4   5    1.60    0.60
  -7  -4  -5   57.29    2.10
  -7  -4  -5   57.09    2.00
  -7  -4  -5   60.39    2.40
  -7  -4  -5   61.79    2.70
  -7  -4  -5   57.89    2.40
   7   4   5   53.99    2.20
   7   4   5   61.19    2.30
   7   4   5   57.79    1.80
   7   4   5   57.39    2.20
   7   4   5   57.69    2.00
  -8  -4  -5   11.80    1.60
  -8  -4  -5   11.90    1.30
  -8  -4  -5   10.20    1.60
  -8  -4  -5   11.00    1.20
  -8  -4  -5    9.00    1.40
   8   4   5   11.10    1.00
   8   4   5   10.30    1.30
   8   4   5   11.80    1.20
   8   4   5   12.20    1.40
  -9  -4  -5   34.10    3.20
  -9  -4  -5   30.80    2.10
   9   4   5   31.30    2.90
   9   4   5   30.60    2.00
   5  -5  -5    1.60    1.80
  -5   5   5    0.30    1.60
   4  -5  -5    6.40    0.90
   4  -5  -5    5.40    1.60
   4  -5  -5    5.20    0.80
   4  -5  -5    7.30    1.40
  -4   5   5    7.10    0.80
  -4   5   5    4.90    1.30
  -4   5   5    7.00    1.10
   3  -5  -5    6.30    0.60
   3  -5  -5    4.60    1.00
   3  -5  -5    5.10    1.10
   3  -5  -5    6.40    1.20
   3  -5  -5    6.00    1.20
   3  -5  -5    4.60    0.60
  -3   5   5    4.80    1.00
  -3   5   5    6.60    0.70
  -3   5   5    4.90    0.80
   2  -5  -5    1.60    0.40
   2  -5  -5    1.10    0.80
   2  -5  -5    0.90    0.80
   2  -5  -5    1.60    0.90
   2  -5  -5    1.00    0.40
   2  -5  -5    1.20    0.80
  -2   5   5    1.10    0.70
   1  -5  -5   25.90    1.20
   1  -5  -5   27.40    1.50
   1  -5  -5   25.10    0.90
   1  -5  -5   26.70    1.60
   1  -5  -5   26.80    1.40
   1  -5  -5   25.60    0.90
  -1   5   5   27.50    1.00
  -1   5   5   26.70    1.20
   0  -5  -5    1.20    0.40
   0  -5  -5    1.50    0.50
   0  -5  -5    1.20    0.40
   0  -5  -5    1.20    0.30
   0  -5  -5    1.00    0.50
   0  -5  -5    1.70    0.70
   0   5   5    1.60    0.30
   0   5   5    1.60    0.30
  -1  -5  -5    0.60    0.30
  -1  -5  -5    0.30    0.40
  -1  -5  -5    0.60    0.30
  -1  -5  -5    0.70    0.50
  -1  -5  -5    0.60    0.50
  -1  -5  -5    0.60    0.30
  -1  -5  -5    0.70    0.20
  -1  -5  -5    0.90    0.30
  -2  -5  -5    8.40    0.60
  -2  -5  -5    8.00    0.80
  -2  -5  -5    8.40    0.50
  -2  -5  -5    8.70    0.80
  -2  -5  -5    7.50    0.40
  -3  -5  -5   60.69    1.50
  -3  -5  -5   61.59    1.80
  -3  -5  -5   61.59    1.60
  -3  -5  -5   61.79    1.70
  -3  -5  -5   64.99    1.60
  -3  -5  -5   62.29    1.60
  -3  -5  -5   59.29    1.80
  -4  -5  -5    2.20    0.50
  -4  -5  -5    2.90    0.70
  -4  -5  -5    2.20    0.30
  -4  -5  -5    1.70    0.40
  -4  -5  -5    1.70    0.50
  -4  -5  -5    1.90    0.50
  -4  -5  -5    2.70    0.30
   4   5   5    2.20    0.30
   4   5   5    2.00    0.40
   4   5   5    2.10    0.50
  -5  -5  -5   20.80    1.30
  -5  -5  -5   20.00    1.50
  -5  -5  -5   20.80    1.10
  -5  -5  -5   19.90    1.20
  -5  -5  -5   20.40    1.00
   5   5   5   20.70    1.00
   5   5   5   19.60    0.90
   5   5   5   20.30    1.10
   5   5   5   20.10    0.60
  -6  -5  -5    1.00    0.60
  -6  -5  -5   -0.20    0.50
  -6  -5  -5    0.10    0.80
  -6  -5  -5    0.20    0.80
  -6  -5  -5    0.20    0.80
   6   5   5    0.20    0.40
   6   5   5    0.30    0.70
   6   5   5   -0.20    0.70
   6   5   5    0.00    0.50
   6   5   5   -0.20    0.50
  -7  -5  -5    6.30    0.90
  -7  -5  -5    5.70    0.90
  -7  -5  -5    7.80    1.20
  -7  -5  -5    5.40    1.00
  -7  -5  -5    8.70    1.30
   7   5   5    7.90    0.70
   7   5   5    7.10    1.00
   7   5   5    8.30    0.90
   7   5   5    8.10    0.70
   7   5   5    7.50    1.10
  -8  -5  -5   22.70    1.60
  -8  -5  -5   26.10    1.80
  -8  -5  -5   24.90    2.80
  -8  -5  -5   26.60    2.40
  -8  -5  -5   27.10    2.50
   8   5   5   27.10    2.30
   8   5   5   28.90    2.00
   8   5   5   28.30    1.50
   8   5   5   28.80    2.90
   8   5   5   27.80    1.70
  -9  -5  -5    7.70    1.50
   9   5   5    8.70    1.10
   9   5   5    8.90    1.60
   4  -6  -5   16.90    2.00
  -4   6   5   17.20    1.70
   3  -6  -5   11.20    0.90
   3  -6  -5    9.90    1.40
   3  -6  -5   11.10    0.80
   3  -6  -5    9.90    1.60
  -3   6   5   12.10    1.20
  -3   6   5   13.00    1.00
   2  -6  -5   12.50    1.10
   2  -6  -5   13.50    0.90
   2  -6  -5   10.60    1.40
   2  -6  -5   12.80    1.30
   2  -6  -5   12.10    1.00
   2  -6  -5   12.10    1.30
  -2   6   5   13.00    1.00
  -2   6   5   14.20    1.30
   1  -6  -5   10.70    1.20
   1  -6  -5   11.00    1.00
   1  -6  -5   11.10    1.20
   1  -6  -5   11.20    0.90
   1  -6  -5   10.40    0.80
   1  -6  -5   10.60    1.10
  -1   6   5   10.60    0.60
  -1   6   5    9.80    0.80
   0  -6  -5   37.90    1.70
   0  -6  -5   35.70    1.20
   0  -6  -5   35.00    1.20
   0  -6  -5   35.90    1.20
   0  -6  -5   38.40    1.90
   0  -6  -5   34.60    1.40
  -1  -6  -5   28.10    1.10
  -1  -6  -5   27.90    0.90
  -1  -6  -5   29.00    1.10
  -1  -6  -5   28.20    1.10
  -1  -6  -5   28.00    0.90
  -1  -6  -5   29.20    1.40
  -1  -6  -5   28.70    1.50
  -1  -6  -5   28.00    1.00
  -1  -6  -5   26.60    1.40
  -2  -6  -5   49.80    1.60
  -2  -6  -5   52.19    1.50
  -2  -6  -5   50.79    1.20
  -2  -6  -5   50.39    1.60
  -2  -6  -5   47.90    1.20
  -2  -6  -5   51.29    1.70
  -2  -6  -5   53.09    1.80
  -3  -6  -5   33.70    1.40
  -3  -6  -5   33.60    1.00
  -3  -6  -5   34.50    0.90
  -3  -6  -5   34.00    1.40
  -3  -6  -5   34.70    1.30
  -3  -6  -5   34.90    1.30
  -3  -6  -5   33.40    1.00
  -4  -6  -5  143.09    3.50
  -4  -6  -5  148.59    3.30
  -4  -6  -5  147.29    3.40
  -4  -6  -5  149.79    3.40
  -4  -6  -5  146.39    3.40
  -4  -6  -5  146.49    3.50
  -4  -6  -5  147.49    3.40
  -4  -6  -5  152.18    3.70
  -4  -6  -5  150.58    3.90
  -5  -6  -5   25.70    0.80
  -5  -6  -5   23.50    1.40
  -5  -6  -5   22.10    1.80
  -5  -6  -5   26.40    1.20
  -5  -6  -5   24.30    0.90
  -5  -6  -5   26.40    1.30
  -5  -6  -5   25.70    1.20
   5   6   5   24.20    0.70
   5   6   5   25.90    0.80
  -6  -6  -5   12.60    1.10
  -6  -6  -5   13.00    1.20
  -6  -6  -5   11.10    1.30
  -6  -6  -5   14.30    1.40
  -6  -6  -5   11.90    1.00
   6   6   5   12.60    1.10
   6   6   5   12.80    0.90
   6   6   5   12.60    1.10
  -7  -6  -5    0.80    0.80
  -7  -6  -5    0.30    1.20
  -7  -6  -5    2.00    1.00
  -7  -6  -5    0.40    0.80
  -7  -6  -5   -0.90    1.10
   7   6   5    0.40    0.70
   7   6   5   -0.40    0.60
   7   6   5   -0.30    0.80
   7   6   5    0.50    0.50
  -8  -6  -5    9.70    1.30
  -8  -6  -5    9.90    1.60
  -8  -6  -5    8.20    1.30
   8   6   5    9.50    1.30
   8   6   5    8.30    0.90
   8   6   5    8.00    1.00
   8   6   5    8.10    1.10
  -9  -6  -5    1.90    1.40
   9   6   5   -1.60    1.20
   9   6   5    1.50    1.10
   3  -7  -5    0.30    1.70
  -3   7   5    1.40    1.00
  -3   7   5    0.50    0.80
   2  -7  -5    1.10    1.50
   2  -7  -5    2.20    0.60
   2  -7  -5    4.00    1.40
   2  -7  -5    1.40    1.50
  -2   7   5    1.60    0.50
   1  -7  -5    2.70    1.60
   1  -7  -5    1.90    0.70
   1  -7  -5    0.70    1.10
   1  -7  -5    3.60    0.60
   0  -7  -5    1.60    0.70
   0  -7  -5    1.40    0.50
   0  -7  -5    2.50    1.30
   0  -7  -5    1.40    0.50
   0  -7  -5    0.30    0.60
   0  -7  -5    1.10    1.00
  -1  -7  -5   12.50    1.20
  -1  -7  -5   14.00    0.70
  -1  -7  -5   13.50    1.20
  -1  -7  -5   13.20    1.10
  -1  -7  -5   14.90    1.10
  -1  -7  -5   14.70    1.00
  -1  -7  -5   15.70    1.50
  -2  -7  -5   -0.20    0.50
  -2  -7  -5    0.50    0.20
  -2  -7  -5    0.20    0.60
  -2  -7  -5    0.30    0.60
  -2  -7  -5    1.30    0.90
  -2  -7  -5    0.30    0.70
  -2  -7  -5    1.20    0.70
  -2  -7  -5    0.50    0.90
  -3  -7  -5   60.79    2.00
  -3  -7  -5   61.79    2.20
  -3  -7  -5   61.69    2.40
  -3  -7  -5   65.59    1.90
  -3  -7  -5   62.99    1.50
  -3  -7  -5   62.99    2.00
  -3  -7  -5   64.99    2.00
  -4  -7  -5    1.20    1.00
  -4  -7  -5    1.30    0.60
  -4  -7  -5   -0.70    0.70
  -4  -7  -5    1.10    0.50
  -4  -7  -5    0.90    0.60
  -4  -7  -5    0.10    0.90
  -5  -7  -5    3.00    0.70
  -5  -7  -5    3.30    0.60
  -5  -7  -5    2.00    0.60
  -5  -7  -5    2.50    1.00
  -5  -7  -5    1.60    0.40
  -5  -7  -5    4.20    1.20
  -5  -7  -5    2.60    0.70
  -6  -7  -5   -0.80    0.70
  -6  -7  -5   -0.20    0.70
  -6  -7  -5    0.00    0.20
  -6  -7  -5   -1.10    0.70
  -6  -7  -5    0.00    0.30
  -6  -7  -5    0.40    0.90
  -6  -7  -5   -1.30    1.10
  -7  -7  -5   50.89    2.20
  -7  -7  -5   45.30    2.10
  -7  -7  -5   48.50    2.70
   7   7   5   49.80    2.10
   7   7   5   46.80    1.60
   7   7   5   48.10    1.50
  -8  -7  -5    8.90    1.40
  -8  -7  -5    6.30    1.80
  -8  -7  -5    6.40    1.30
   8   7   5    7.00    0.90
   8   7   5    7.10    1.10
   8   7   5    8.10    1.10
  -9  -7  -5   47.70    2.90
   9   7   5   42.40    2.40
   9   7   5   44.70    2.40
   1  -8  -5   20.30    1.60
   1  -8  -5   22.70    1.20
   1  -8  -5   22.00    1.90
   1  -8  -5   19.10    2.10
   0  -8  -5   24.30    1.20
   0  -8  -5   21.20    1.30
   0  -8  -5   20.50    1.70
   0  -8  -5   22.60    1.30
   0  -8  -5   22.40    1.60
   0  -8  -5   25.30    2.30
  -1  -8  -5    3.10    1.20
  -1  -8  -5    2.80    0.80
  -1  -8  -5    2.60    0.70
  -1  -8  -5    2.80    0.40
  -1  -8  -5    2.60    0.70
  -1  -8  -5    1.30    1.00
  -1  -8  -5    2.40    1.10
  -1  -8  -5    3.50    1.40
  -2  -8  -5   13.30    1.00
  -2  -8  -5   14.00    1.30
  -2  -8  -5   13.60    1.00
  -2  -8  -5   14.90    1.20
  -2  -8  -5   15.10    1.30
  -2  -8  -5   13.70    1.40
  -2  -8  -5   11.00    1.40
  -3  -8  -5   17.20    1.70
  -3  -8  -5   17.10    1.60
  -3  -8  -5   15.60    1.40
  -3  -8  -5   17.40    1.60
  -3  -8  -5   17.90    1.70
  -3  -8  -5   16.90    1.60
  -3  -8  -5   18.50    1.60
  -3  -8  -5   16.70    1.40
  -4  -8  -5   71.09    2.20
  -4  -8  -5   71.49    2.30
  -4  -8  -5   75.89    2.60
  -4  -8  -5   74.39    2.50
  -4  -8  -5   73.49    2.30
  -4  -8  -5   68.19    2.40
  -4  -8  -5   69.69    3.00
  -5  -8  -5   97.59    2.70
  -5  -8  -5  101.59    2.90
  -5  -8  -5   98.09    3.60
  -5  -8  -5   96.39    3.10
  -5  -8  -5   91.09    2.70
  -5  -8  -5   99.09    2.50
  -6  -8  -5    1.10    1.00
  -6  -8  -5   -0.40    0.70
  -6  -8  -5    0.00    0.40
  -6  -8  -5   -0.80    0.80
  -6  -8  -5    0.20    0.70
  -7  -8  -5    9.70    1.30
  -7  -8  -5   11.50    1.30
  -7  -8  -5   12.70    1.30
  -8  -8  -5    0.00    1.40
  -8  -8  -5    0.70    1.50
   8   8   5    0.60    0.60
   8   8   5    0.40    0.60
   0  -9  -5    3.50    1.60
   0  -9  -5    2.00    0.60
   0  -9  -5    0.00    0.80
   0  -9  -5    1.20    1.00
  -1  -9  -5    2.10    1.60
  -1  -9  -5   -1.30    1.30
  -1  -9  -5    1.00    1.40
  -1  -9  -5   -0.40    0.80
  -2  -9  -5   -1.20    1.40
  -2  -9  -5    0.60    0.90
  -2  -9  -5    1.10    1.20
  -2  -9  -5   -0.50    0.90
  -2  -9  -5   -0.40    1.90
  -2  -9  -5   -1.00    1.50
  -2  -9  -5   -1.10    1.30
  -3  -9  -5    0.90    1.10
  -3  -9  -5    2.50    1.10
  -3  -9  -5    2.00    1.20
  -3  -9  -5    1.60    0.90
  -3  -9  -5   -0.20    1.40
  -3  -9  -5    1.00    1.20
  -3  -9  -5    0.70    1.10
  -3  -9  -5    3.20    1.50
  -4  -9  -5   21.30    2.00
  -4  -9  -5   21.70    1.50
  -4  -9  -5   18.20    1.30
  -4  -9  -5   20.30    1.80
  -4  -9  -5   18.70    1.60
  -4  -9  -5   17.10    1.60
  -4  -9  -5   21.70    2.10
  -5  -9  -5   -2.80    1.20
  -5  -9  -5    0.20    1.40
  -5  -9  -5    0.80    1.00
  -5  -9  -5    0.70    0.70
  -5  -9  -5   -0.50    1.30
  -5  -9  -5    1.10    1.10
  -6  -9  -5    0.40    0.60
  -6  -9  -5   -2.20    1.40
  -6  -9  -5    0.00    1.10
  -6  -9  -5   -0.90    1.10
  -7  -9  -5    3.20    1.50
  -7  -9  -5    0.90    1.30
  -7  -9  -5    0.50    1.20
  -3 -10  -5    1.30    1.50
  -3 -10  -5    0.10    1.50
  -3 -10  -5   -0.40    1.20
  -3 -10  -5    1.00    1.30
  -4 -10  -5    4.00    1.50
  -4 -10  -5   -1.00    1.20
  -4 -10  -5   -0.30    1.40
  -4 -10  -5   -0.60    1.30
  -4 -10  -5    1.90    2.30
  -5 -10  -5   40.80    2.10
  -5 -10  -5   36.30    3.00
  -5 -10  -5   39.50    2.70
  -5 -10  -5   37.20    2.80
   5   9  -6    0.10    1.30
   5   9  -6   -0.70    1.00
   5   9  -6    0.80    1.90
  -5  -9   6    0.20    1.20
   4   9  -6    9.00    1.10
   4   9  -6    9.40    1.00
   4   9  -6    8.60    1.80
  -4  -9   6    6.10    1.60
  -4  -9   6   10.30    1.30
   3   9  -6   23.70    1.50
   3   9  -6   22.90    1.50
  -3  -9   6   24.60    1.70
  -3  -9   6   27.10    2.20
  -3  -9   6   23.50    1.70
  -2  -9   6    6.50    1.20
  -2  -9   6    5.20    0.90
  -2  -9   6    4.50    1.20
  -1  -9   6    6.90    1.30
  -1  -9   6    6.60    0.90
   0  -9   6    1.50    1.00
   0  -9   6    3.40    1.70
   0  -9   6    2.50    1.50
   6   8  -6    1.80    1.90
   6   8  -6    1.30    1.50
  -6  -8   6    4.60    1.10
  -6  -8   6    4.90    1.50
   5   8  -6  117.99    3.80
   5   8  -6  125.69    3.40
   5   8  -6  124.79    4.30
  -5  -8   6  123.79    3.80
  -5  -8   6  124.59    3.40
   4   8  -6   11.60    1.10
   4   8  -6   11.90    1.60
   4   8  -6    9.60    1.20
  -4  -8   6   12.50    1.60
  -4  -8   6   10.80    1.10
  -4  -8   6   10.80    1.30
  -4  -8   6    9.90    1.30
   3   8  -6    0.80    0.80
   3   8  -6    0.50    0.80
   3   8  -6    2.50    1.20
  -3  -8   6   -0.10    0.70
  -3  -8   6    1.30    1.00
  -3  -8   6   -0.50    0.80
  -3  -8   6    0.60    1.10
   2   8  -6   63.49    2.60
   2   8  -6   66.59    2.30
   2   8  -6   62.79    2.10
  -2  -8   6   63.19    2.40
  -2  -8   6   64.69    2.20
  -2  -8   6   66.89    2.10
  -2  -8   6   66.09    2.40
   1   8  -6   27.90    1.70
   1   8  -6   27.70    1.40
  -1  -8   6   26.70    1.00
  -1  -8   6   26.00    1.40
  -1  -8   6   27.80    1.40
  -1  -8   6   27.70    1.80
  -1  -8   6   30.30    1.90
   0   8  -6   25.00    1.80
   0   8  -6   25.40    1.40
   0  -8   6   24.50    1.20
   0  -8   6   24.90    1.50
   0  -8   6   28.30    2.10
   0  -8   6   28.00    1.30
   0  -8   6   25.40    2.00
  -1   8  -6    0.20    1.10
  -1   8  -6    2.30    0.70
   1  -8   6    1.60    0.80
   1  -8   6    0.20    0.80
   1  -8   6    1.00    1.30
  -2   8  -6    4.20    1.40
  -2   8  -6    1.10    0.90
   2  -8   6    1.30    1.10
   2  -8   6    2.00    1.00
   2  -8   6    2.20    1.40
   7   7  -6    0.90    2.00
   7   7  -6    3.60    1.90
  -7  -7   6    3.80    1.50
  -7  -7   6    1.50    1.10
   6   7  -6    0.60    1.50
   6   7  -6    0.80    1.50
   6   7  -6    3.50    1.50
   6   7  -6    3.70    1.10
  -6  -7   6    3.50    1.20
  -6  -7   6    0.80    0.90
   5   7  -6    5.40    1.20
   5   7  -6    6.50    1.30
   5   7  -6    3.10    1.40
   5   7  -6    5.70    1.00
  -5  -7   6    6.30    1.20
  -5  -7   6    5.60    1.30
  -5  -7   6    5.30    0.90
   4   7  -6    0.60    0.90
   4   7  -6    1.00    0.70
   4   7  -6    0.00    1.20
   4   7  -6    1.60    0.70
   4   7  -6    0.60    1.10
  -4  -7   6   -0.20    0.90
  -4  -7   6    0.00    0.70
  -4  -7   6    0.80    0.90
  -4  -7   6    0.90    0.90
  -4  -7   6    0.50    1.10
  -4  -7   6    1.00    0.80
   3   7  -6  103.89    2.80
   3   7  -6   99.39    2.90
   3   7  -6   97.99    2.60
  -3  -7   6  107.19    2.80
  -3  -7   6  101.19    3.20
  -3  -7   6   97.49    2.90
  -3  -7   6  102.19    2.90
  -3  -7   6  100.29    2.80
  -3  -7   6   99.99    2.90
   2   7  -6   41.00    1.70
   2   7  -6   37.70    1.60
   2   7  -6   35.50    1.50
   2   7  -6   42.50    1.90
  -2  -7   6   39.00    1.50
  -2  -7   6   36.80    2.10
  -2  -7   6   37.70    1.60
  -2  -7   6   36.00    1.80
  -2  -7   6   39.40    1.70
  -2  -7   6   41.30    1.70
   1   7  -6    0.80    0.60
   1   7  -6    0.60    0.50
   1   7  -6    0.70    0.80
   1   7  -6    0.70    0.80
  -1  -7   6    1.10    0.40
  -1  -7   6    1.70    0.80
  -1  -7   6    0.20    0.50
  -1  -7   6    1.40    1.10
  -1  -7   6    0.30    0.60
  -1  -7   6    1.00    0.90
  -1  -7   6    0.40    0.60
   0   7  -6    3.70    0.60
   0   7  -6    5.80    1.00
   0  -7   6    6.20    0.60
   0  -7   6    4.40    0.70
   0  -7   6    6.10    1.10
   0  -7   6    5.10    0.90
   0  -7   6    6.10    0.80
   0  -7   6    4.20    1.10
   0  -7   6    5.20    0.50
  -1   7  -6   17.90    1.80
  -1   7  -6   14.40    1.20
   1  -7   6   14.80    1.40
   1  -7   6   18.70    1.70
   1  -7   6   12.90    1.50
   1  -7   6   18.30    1.60
   1  -7   6   16.10    1.20
   1  -7   6   15.80    1.30
   1  -7   6   15.80    0.70
  -2   7  -6    0.00    1.10
  -2   7  -6    0.20    1.10
  -2   7  -6    0.30    1.20
  -2   7  -6    1.20    0.80
   2  -7   6    1.20    1.00
   2  -7   6   -0.10    0.80
   2  -7   6   -0.30    1.00
   2  -7   6   -0.10    0.80
  -3   7  -6    0.60    1.30
  -3   7  -6   -1.50    1.40
  -3   7  -6   -4.90    1.40
  -3   7  -6    0.50    0.90
   3  -7   6    0.50    0.90
   3  -7   6    0.40    1.30
   3  -7   6    0.50    1.00
  -4   7  -6    9.70    1.90
   4  -7   6   10.80    1.80
   4  -7   6    7.10    1.40
   4  -7   6    7.70    1.50
   7   6  -6    1.50    2.60
   7   6  -6    0.80    1.70
  -7  -6   6    3.20    1.00
  -7  -6   6    2.50    1.30
   6   6  -6    1.30    1.60
   6   6  -6    2.20    1.00
   6   6  -6    1.00    1.30
   6   6  -6    3.60    1.30
  -6  -6   6    1.80    0.90
  -6  -6   6    0.50    0.80
  -6  -6   6    0.20    1.60
  -6  -6   6    1.70    1.50
   5   6  -6    0.40    1.00
   5   6  -6    0.80    0.90
   5   6  -6   -1.30    0.80
   5   6  -6   -0.30    0.70
   5   6  -6   -0.80    1.10
  -5  -6   6    0.00    0.90
  -5  -6   6   -0.50    0.90
  -5  -6   6    1.10    0.60
  -5  -6   6    0.70    0.90
  -5  -6   6   -1.80    1.00
  -5  -6   6    0.40    0.80
   4   6  -6  190.88    4.40
   4   6  -6  188.88    4.80
   4   6  -6  205.38    4.60
   4   6  -6  188.18    4.80
   4   6  -6  188.88    4.80
  -4  -6   6  185.68    4.70
  -4  -6   6  175.48    4.60
  -4  -6   6  184.08    4.60
  -4  -6   6  194.88    4.80
  -4  -6   6  185.48    4.60
  -4  -6   6  195.78    4.70
   3   6  -6    5.20    0.80
   3   6  -6    7.70    1.00
   3   6  -6    6.80    0.80
   3   6  -6    7.50    1.00
   3   6  -6    6.60    0.70
  -3  -6   6    6.10    0.80
  -3  -6   6    7.80    0.80
  -3  -6   6    6.20    0.70
  -3  -6   6    6.30    0.90
  -3  -6   6    5.60    0.80
   2   6  -6    3.90    0.90
   2   6  -6    4.00    0.80
   2   6  -6    5.20    0.70
   2   6  -6    4.60    0.60
   2   6  -6    4.50    0.80
  -2  -6   6    4.80    0.70
  -2  -6   6    4.20    0.90
  -2  -6   6    4.00    0.60
  -2  -6   6    3.00    0.60
  -2  -6   6    5.40    0.70
  -2  -6   6    3.70    0.50
   1   6  -6  239.08    5.50
   1   6  -6  227.38    5.40
   1   6  -6  248.98    5.50
   1   6  -6  236.08    5.40
  -1  -6   6  243.88    5.60
  -1  -6   6  249.18    5.50
  -1  -6   6  240.08    5.40
  -1  -6   6  239.58    5.10
  -1  -6   6  241.58    5.50
  -1  -6   6  236.78    5.30
  -1  -6   6  236.88    5.50
   0   6  -6  143.89    3.40
   0   6  -6  143.19    3.60
   0   6  -6  147.79    3.70
   0  -6   6  142.09    3.70
   0  -6   6  139.39    3.70
   0  -6   6  139.19    4.20
   0  -6   6  146.09    3.60
   0  -6   6  139.89    3.20
   0  -6   6  133.59    3.60
   0  -6   6  149.09    3.30
  -1   6  -6   19.00    1.50
  -1   6  -6   19.50    1.50
  -1   6  -6   19.70    1.60
  -1   6  -6   19.10    1.20
   1  -6   6   19.90    0.70
   1  -6   6   22.70    1.70
   1  -6   6   18.40    1.70
   1  -6   6   21.40    1.40
   1  -6   6   22.20    1.20
   1  -6   6   19.90    1.10
   1  -6   6   20.30    1.30
  -2   6  -6    2.00    0.80
  -2   6  -6    2.10    0.90
  -2   6  -6    1.00    1.00
  -2   6  -6    1.60    0.70
   2  -6   6    2.30    0.70
   2  -6   6    2.00    0.80
   2  -6   6    1.20    0.70
   2  -6   6    2.80    1.30
   2  -6   6    2.30    0.90
   2  -6   6    0.70    1.00
  -3   6  -6    1.70    1.10
  -3   6  -6    2.20    1.10
  -3   6  -6    1.80    0.80
  -3   6  -6    1.30    1.20
   3  -6   6    0.90    1.00
   3  -6   6    2.10    2.00
   3  -6   6    0.90    1.50
   3  -6   6    0.90    0.90
   3  -6   6    2.60    1.80
   3  -6   6    1.90    0.80
   3  -6   6    1.20    0.90
  -4   6  -6   -0.10    1.40
  -4   6  -6   -0.80    1.00
  -4   6  -6   -0.40    1.30
   4  -6   6   -0.10    1.10
   4  -6   6    0.60    1.00
   4  -6   6    0.30    1.20
   4  -6   6    0.00    1.40
  -5   6  -6   35.80    3.10
  -5   6  -6   37.40    2.50
   5  -6   6   32.10    3.00
   5  -6   6   30.70    2.70
   5  -6   6   37.80    2.80
   8   5  -6    7.70    2.50
   8   5  -6    6.40    2.80
  -8  -5   6    5.00    1.40
  -8  -5   6    6.40    1.60
   7   5  -6   19.90    1.90
   7   5  -6   21.10    2.10
   7   5  -6   16.50    1.40
  -7  -5   6   21.00    2.00
  -7  -5   6   21.50    1.80
  -7  -5   6   23.30    2.30
   6   5  -6    6.90    1.00
   6   5  -6    9.40    1.40
   6   5  -6    8.30    1.00
   6   5  -6    7.20    1.00
   6   5  -6    8.40    1.40
  -6  -5   6    9.30    1.30
  -6  -5   6    5.90    1.30
  -6  -5   6    9.90    0.90
  -6  -5   6    9.30    1.40
  -6  -5   6    7.20    1.00
   5   5  -6   48.50    2.30
   5   5  -6   45.90    1.80
   5   5  -6   50.29    2.30
   5   5  -6   48.60    1.90
  -5  -5   6   47.40    1.90
  -5  -5   6   47.00    2.00
  -5  -5   6   48.60    2.00
   4   5  -6   21.40    1.50
   4   5  -6   23.50    1.40
   4   5  -6   22.10    1.60
   4   5  -6   21.60    1.30
   4   5  -6   22.30    1.20
  -4  -5   6   22.10    1.30
  -4  -5   6   21.70    1.40
  -4  -5   6   21.50    1.60
  -4  -5   6   22.40    1.50
  -4  -5   6   20.90    1.40
  -4  -5   6   22.30    1.10
   3   5  -6    1.80    0.50
   3   5  -6    1.40    0.50
   3   5  -6    1.20    0.60
   3   5  -6    0.90    0.60
   3   5  -6    0.70    0.70
  -3  -5   6    1.40    0.70
  -3  -5   6    1.90    0.60
  -3  -5   6    1.20    0.60
  -3  -5   6    1.80    0.50
  -3  -5   6    1.00    0.50
   2   5  -6   32.50    1.60
   2   5  -6   37.60    1.70
   2   5  -6   38.00    1.50
   2   5  -6   36.50    1.30
   2   5  -6   38.00    1.50
  -2  -5   6   37.00    1.40
  -2  -5   6   39.30    1.40
  -2  -5   6   37.80    1.30
  -2  -5   6   36.80    1.30
  -2  -5   6   36.30    1.50
  -2  -5   6   37.40    1.30
   1   5  -6  201.78    4.70
   1   5  -6  197.38    4.80
   1   5  -6  201.08    4.60
   1   5  -6  196.58    4.60
   1   5  -6  197.98    4.60
  -1  -5   6  198.18    4.20
  -1  -5   6  201.38    4.40
  -1  -5   6  207.18    4.70
  -1  -5   6  202.58    4.60
  -1  -5   6  204.58    4.60
  -1  -5   6  199.98    4.70
  -1  -5   6  200.78    4.70
   0   5  -6   73.09    2.10
   0   5  -6   76.49    2.20
   0   5  -6   75.39    2.10
   0   5  -6   78.29    1.90
   0   5  -6   78.59    2.30
   0  -5   6   76.59    2.20
   0  -5   6   80.79    2.30
   0  -5   6   78.29    2.20
   0  -5   6   80.39    2.30
   0  -5   6   75.79    1.90
   0  -5   6   76.69    2.10
   0  -5   6   77.59    1.80
  -1   5  -6    2.10    0.80
  -1   5  -6    2.70    0.50
  -1   5  -6    1.80    0.50
  -1   5  -6    3.00    0.70
  -1   5  -6    1.70    0.70
  -1   5  -6    2.00    0.60
   1  -5   6    2.10    0.70
   1  -5   6    2.60    0.70
   1  -5   6    1.70    0.30
   1  -5   6    1.50    0.50
   1  -5   6    1.60    0.40
   1  -5   6    2.10    0.60
   1  -5   6    1.70    0.50
  -2   5  -6   94.79    2.90
  -2   5  -6   97.39    3.10
  -2   5  -6   98.79    2.70
  -2   5  -6  102.09    2.70
   2  -5   6   96.79    2.80
   2  -5   6   99.09    2.70
   2  -5   6  101.09    2.80
   2  -5   6   96.29    2.70
   2  -5   6   99.79    2.60
   2  -5   6   99.89    3.20
  -3   5  -6   58.49    3.10
  -3   5  -6   53.79    2.10
  -3   5  -6   52.89    2.00
  -3   5  -6   54.99    2.20
   3  -5   6   55.19    2.80
   3  -5   6   55.09    1.90
   3  -5   6   52.59    2.00
   3  -5   6   53.49    2.10
   3  -5   6   52.69    2.10
   3  -5   6   54.49    2.10
  -4   5  -6    3.40    1.10
  -4   5  -6    2.30    1.20
  -4   5  -6    2.90    1.20
  -4   5  -6    1.40    0.90
   4  -5   6    3.20    1.00
   4  -5   6    1.80    1.00
   4  -5   6    2.20    0.80
   4  -5   6    2.80    1.10
   4  -5   6    0.80    1.50
   4  -5   6    1.50    1.50
   4  -5   6    2.00    0.90
  -5   5  -6   24.40    2.20
  -5   5  -6   29.30    2.20
  -5   5  -6   26.20    2.30
   5  -5   6   25.60    2.30
   5  -5   6   26.40    2.10
   5  -5   6   27.50    2.30
   5  -5   6   26.80    2.40
  -6   5  -6   28.40    2.90
  -6   5  -6   21.80    2.00
   6  -5   6   18.20    1.70
   6  -5   6   19.40    1.70
   6  -5   6   20.90    1.90
   8   4  -6   -1.30    1.80
   8   4  -6    2.90    2.30
  -8  -4   6    3.50    1.50
  -8  -4   6    2.40    1.30
   7   4  -6   31.40    2.50
   7   4  -6   29.90    2.60
   7   4  -6   31.30    3.00
   7   4  -6   30.90    2.10
   7   4  -6   32.40    1.10
  -7  -4   6   35.70    2.80
  -7  -4   6   33.60    2.50
  -7  -4   6   30.90    2.00
  -7  -4   6   30.80    2.00
   6   4  -6    8.40    1.40
   6   4  -6    7.30    1.30
   6   4  -6    6.90    0.90
   6   4  -6    7.90    0.50
   6   4  -6    9.10    1.10
   6   4  -6    9.60    1.20
  -6  -4   6    5.80    1.00
  -6  -4   6    7.90    1.50
  -6  -4   6    7.30    1.20
  -6  -4   6    6.60    0.90
  -6  -4   6    6.50    0.80
   5   4  -6    1.10    0.70
   5   4  -6    0.70    0.80
   5   4  -6   -1.20    0.60
   5   4  -6   -0.20    0.60
   5   4  -6   -0.40    0.70
  -5  -4   6    0.20    0.70
  -5  -4   6    0.10    0.50
  -5  -4   6   -0.40    0.80
  -5  -4   6    0.40    0.60
  -5  -4   6   -0.30    0.70
   4   4  -6    3.60    0.70
   4   4  -6    5.60    0.70
   4   4  -6    5.40    0.60
   4   4  -6    4.60    0.80
   4   4  -6    6.20    0.70
  -4  -4   6    5.50    0.70
  -4  -4   6    5.20    0.60
  -4  -4   6    5.70    0.60
  -4  -4   6    4.80    0.70
  -4  -4   6    6.60    1.00
   3   4  -6    2.40    0.50
   3   4  -6    1.30    0.60
   3   4  -6    3.70    0.70
   3   4  -6    1.60    0.50
   3   4  -6    1.60    0.50
  -3  -4   6    2.00    0.60
  -3  -4   6    2.30    0.50
  -3  -4   6    1.70    0.60
  -3  -4   6    2.70    0.50
   2   4  -6   73.89    2.20
   2   4  -6   78.79    2.00
   2   4  -6   79.49    2.20
   2   4  -6   76.49    2.10
  -2  -4   6   75.29    2.20
  -2  -4   6   77.39    2.10
  -2  -4   6   81.29    2.10
  -2  -4   6   77.79    2.00
   1   4  -6   24.70    0.60
   1   4  -6   24.10    1.10
   1   4  -6   20.30    1.20
   1   4  -6   23.00    1.20
   1   4  -6   25.30    1.00
   1   4  -6   25.00    1.10
  -1  -4   6   24.20    0.90
  -1  -4   6   23.80    1.10
  -1  -4   6   24.40    0.60
  -1  -4   6   24.00    1.10
  -1  -4   6   24.40    1.10
  -1  -4   6   24.00    1.00
  -1  -4   6   24.20    1.00
   0   4  -6   34.20    1.30
   0   4  -6   32.20    1.00
   0   4  -6   33.50    1.10
   0   4  -6   31.70    1.20
   0   4  -6   32.90    1.30
   0   4  -6   32.20    1.40
   0   4  -6   34.90    1.30
   0  -4   6   31.30    1.00
   0  -4   6   32.90    0.90
   0  -4   6   30.00    1.50
   0  -4   6   31.30    1.20
   0  -4   6   32.00    1.10
   0  -4   6   32.50    1.10
   0  -4   6   33.90    1.30
  -1   4  -6   19.40    0.80
  -1   4  -6   21.30    1.10
  -1   4  -6   21.50    1.20
  -1   4  -6   18.60    1.20
  -1   4  -6   20.10    1.00
  -1   4  -6   20.00    1.00
   1  -4   6   21.30    1.30
   1  -4   6   20.30    1.00
   1  -4   6   20.00    1.00
   1  -4   6   20.80    1.10
   1  -4   6   21.30    1.00
   1  -4   6   20.60    0.70
   1  -4   6   20.10    1.00
  -2   4  -6   -0.20    0.50
  -2   4  -6   -0.10    0.50
  -2   4  -6   -0.20    0.40
  -2   4  -6    0.10    0.30
  -2   4  -6   -0.30    0.70
   2  -4   6    0.20    0.40
   2  -4   6   -0.10    0.50
   2  -4   6    0.30    0.50
   2  -4   6    0.50    0.60
   2  -4   6    0.70    0.60
   2  -4   6    0.60    0.20
   2  -4   6   -0.10    0.40
  -3   4  -6   92.49    2.60
  -3   4  -6   82.99    3.50
  -3   4  -6   88.39    2.60
  -3   4  -6   92.89    2.60
   3  -4   6   92.29    2.60
   3  -4   6   90.59    3.00
   3  -4   6   90.29    2.60
   3  -4   6   89.39    2.40
   3  -4   6   92.29    2.60
  -4   4  -6   19.60    1.80
  -4   4  -6   16.10    1.40
  -4   4  -6   15.70    1.30
  -4   4  -6   14.40    1.40
   4  -4   6   15.50    1.60
   4  -4   6   15.50    1.40
   4  -4   6   16.20    1.50
   4  -4   6   18.80    1.50
   4  -4   6   16.90    1.40
   4  -4   6   18.20    1.60
   4  -4   6   16.90    1.40
  -5   4  -6    0.40    1.00
  -5   4  -6   -0.10    1.00
  -5   4  -6    0.30    1.20
  -5   4  -6   -1.60    1.20
   5  -4   6    1.20    1.00
   5  -4   6   -0.50    1.00
   5  -4   6    0.80    1.50
   5  -4   6    1.00    0.80
   5  -4   6    1.30    1.20
   5  -4   6    1.00    1.10
   5  -4   6    1.40    0.90
  -6   4  -6   46.10    2.60
  -6   4  -6   45.50    2.90
   6  -4   6   51.69    3.10
   6  -4   6   48.30    2.50
   6  -4   6   41.50    2.80
   6  -4   6   48.80    2.50
   6  -4   6   44.70    2.80
   8   3  -6   12.20    1.10
   8   3  -6   13.50    1.90
   8   3  -6   11.90    2.60
  -8  -3   6   10.00    1.30
  -8  -3   6    9.10    1.60
  -8  -3   6   10.00    2.30
  -8  -3   6    6.50    2.20
   7   3  -6    0.60    1.00
   7   3  -6    1.80    0.90
   7   3  -6    1.80    1.40
   7   3  -6    1.70    0.70
   7   3  -6    3.00    1.50
   7   3  -6    2.80    1.30
  -7  -3   6    3.20    1.10
  -7  -3   6    2.70    1.40
  -7  -3   6    1.10    1.60
  -7  -3   6    1.10    0.90
   6   3  -6   41.50    2.50
   6   3  -6   40.50    2.20
   6   3  -6   41.40    2.20
   6   3  -6   41.50    1.30
   6   3  -6   39.60    1.90
   6   3  -6   40.00    1.70
  -6  -3   6   40.00    1.80
  -6  -3   6   39.50    2.20
  -6  -3   6   39.80    1.70
  -6  -3   6   42.10    2.60
  -6  -3   6   39.00    1.90
   5   3  -6   15.50    1.70
   5   3  -6   12.30    1.10
   5   3  -6   12.10    0.90
   5   3  -6   14.60    1.60
   5   3  -6    9.90    0.70
   5   3  -6    8.80    0.80
  -5  -3   6   13.00    1.10
  -5  -3   6   11.60    1.00
  -5  -3   6    9.10    0.80
  -5  -3   6   14.30    1.40
  -5  -3   6   12.80    1.20
   4   3  -6  154.38    3.20
   4   3  -6  150.68    3.80
   4   3  -6  148.59    3.60
   4   3  -6  142.69    3.90
   4   3  -6  153.98    3.80
   4   3  -6  150.48    3.20
   4   3  -6  150.48    3.60
  -4  -3   6  150.68    4.00
  -4  -3   6  153.38    3.60
  -4  -3   6  151.98    3.60
  -4  -3   6  150.58    3.60
  -4  -3   6  141.39    4.00
   3   3  -6   31.70    1.50
   3   3  -6   33.40    1.20
   3   3  -6   33.80    1.40
   3   3  -6   34.00    1.40
   3   3  -6   34.10    1.20
  -3  -3   6   31.10    1.40
  -3  -3   6   30.80    1.10
  -3  -3   6   33.50    1.20
  -3  -3   6   34.70    1.20
  -3  -3   6   32.70    1.20
   2   3  -6    2.30    0.40
   2   3  -6    2.90    0.40
   2   3  -6    1.90    0.40
   2   3  -6    2.70    0.50
   2   3  -6    2.00    0.40
  -2  -3   6    2.50    0.50
  -2  -3   6    3.10    0.40
  -2  -3   6    3.30    0.50
  -2  -3   6    2.70    0.50
  -2  -3   6    2.90    0.50
  -2  -3   6    2.80    0.60
   1   3  -6    1.20    0.20
   1   3  -6    0.80    0.30
   1   3  -6    0.80    0.40
   1   3  -6    1.10    0.30
   1   3  -6    1.00    0.40
   1   3  -6    0.90    0.30
  -1  -3   6    1.20    0.40
  -1  -3   6    1.40    0.30
  -1  -3   6    0.90    0.40
  -1  -3   6    1.20    0.30
  -1  -3   6    1.30    0.30
   0   3  -6    6.60    0.50
   0   3  -6    7.10    0.60
   0   3  -6    4.70    0.50
   0   3  -6    4.40    0.50
   0   3  -6    5.40    0.50
   0   3  -6    6.30    0.50
   0   3  -6    5.70    0.50
   0  -3   6    6.30    0.40
   0  -3   6    6.80    0.60
   0  -3   6    6.90    0.70
   0  -3   6    6.50    0.60
   0  -3   6    6.20    0.60
   0  -3   6    6.60    0.70
   0  -3   6    6.60    0.50
  -1   3  -6   90.59    2.40
  -1   3  -6   83.89    2.30
  -1   3  -6   87.29    2.00
  -1   3  -6   85.79    2.30
  -1   3  -6   87.39    2.10
  -1   3  -6   86.49    2.30
  -1   3  -6   87.29    2.40
   1  -3   6   89.39    2.20
   1  -3   6   86.89    2.00
   1  -3   6   85.39    2.20
   1  -3   6   89.69    2.20
   1  -3   6   88.99    2.40
   1  -3   6   86.39    2.00
  -2   3  -6    0.20    0.60
  -2   3  -6   -0.50    0.50
  -2   3  -6   -0.40    0.40
  -2   3  -6    0.10    0.50
  -2   3  -6    0.00    0.20
  -2   3  -6   -0.10    0.40
   2  -3   6   -0.10    0.50
   2  -3   6    0.20    0.40
   2  -3   6    0.00    0.30
   2  -3   6    0.40    0.50
   2  -3   6    0.40    0.20
   2  -3   6    0.50    0.60
   2  -3   6    0.20    0.30
  -3   3  -6   13.10    1.40
  -3   3  -6   11.40    0.50
  -3   3  -6   12.50    1.10
  -3   3  -6   13.50    1.30
  -3   3  -6   11.20    1.00
  -3   3  -6   10.10    1.00
   3  -3   6   11.10    0.90
   3  -3   6   12.80    1.00
   3  -3   6   12.20    1.10
   3  -3   6   11.30    0.80
  -4   3  -6   35.40    1.50
  -4   3  -6   37.40    1.70
  -4   3  -6   36.00    1.80
  -4   3  -6   37.10    2.00
   4  -3   6   34.60    1.40
   4  -3   6   34.50    1.60
   4  -3   6   34.10    1.60
   4  -3   6   35.20    1.50
   4  -3   6   36.80    2.20
   4  -3   6   36.20    1.80
  -5   3  -6   15.50    1.70
  -5   3  -6   12.00    1.30
  -5   3  -6   15.20    1.30
  -5   3  -6   15.40    1.40
   5  -3   6   16.00    1.30
   5  -3   6   17.50    1.30
   5  -3   6   15.60    1.30
   5  -3   6   15.40    1.30
   5  -3   6   12.80    1.50
   5  -3   6   11.30    1.10
   5  -3   6   14.50    1.30
  -6   3  -6    0.60    1.60
  -6   3  -6    1.20    1.00
  -6   3  -6    2.20    1.00
  -6   3  -6    1.10    1.60
   6  -3   6   -0.20    0.90
   6  -3   6    1.20    1.10
   6  -3   6    0.00    1.10
   6  -3   6    0.80    1.60
   6  -3   6    0.90    1.10
  -7   3  -6   16.90    1.90
  -7   3  -6   16.10    1.60
   7  -3   6   18.10    1.50
   7  -3   6   11.70    2.40
   7  -3   6   19.30    1.80
   7  -3   6   22.20    2.10
   7  -3   6   19.80    1.50
   7  -3   6   19.30    2.00
   8   2  -6   -1.10    1.00
   8   2  -6   -0.10    2.50
   8   2  -6   -0.40    1.70
  -8  -2   6   -2.80    1.60
  -8  -2   6    1.10    1.20
  -8  -2   6    5.00    2.60
   7   2  -6   -0.40    0.90
   7   2  -6    0.40    0.80
   7   2  -6    2.40    1.10
   7   2  -6    1.80    1.60
   7   2  -6   -0.20    1.20
   7   2  -6    0.50    1.50
  -7  -2   6    1.10    1.60
  -7  -2   6   -0.10    1.50
  -7  -2   6    0.10    1.10
  -7  -2   6   -0.40    0.80
   6   2  -6    9.80    1.20
   6   2  -6    6.10    1.20
   6   2  -6   10.20    1.20
   6   2  -6    8.30    0.80
   6   2  -6    8.10    0.80
   6   2  -6    7.80    1.10
  -6  -2   6   12.40    1.60
  -6  -2   6    8.50    1.00
  -6  -2   6   10.20    1.30
  -6  -2   6    6.10    0.90
  -6  -2   6   10.70    0.90
   5   2  -6   -0.10    0.90
   5   2  -6    0.60    0.50
   5   2  -6    0.80    0.70
   5   2  -6   -0.30    0.70
   5   2  -6   -0.10    0.80
   5   2  -6    0.40    0.60
  -5  -2   6   -0.10    0.50
  -5  -2   6    1.50    1.10
  -5  -2   6    0.20    0.60
  -5  -2   6    0.50    0.60
  -5  -2   6   -0.70    0.80
   4   2  -6   59.89    1.70
   4   2  -6   55.99    2.20
   4   2  -6   57.09    1.90
   4   2  -6   59.29    1.60
   4   2  -6   58.89    2.00
  -4  -2   6   56.29    1.80
  -4  -2   6   58.79    1.80
  -4  -2   6   57.89    1.70
  -4  -2   6   58.19    2.20
  -4  -2   6   60.69    2.00
   3   2  -6   43.90    1.20
   3   2  -6   37.00    1.80
   3   2  -6   46.30    1.60
   3   2  -6   44.40    1.40
   3   2  -6   45.10    1.10
   3   2  -6   44.70    1.70
   3   2  -6   41.30    1.50
  -3  -2   6   44.50    1.30
  -3  -2   6   42.60    1.70
  -3  -2   6   44.70    1.40
  -3  -2   6   46.00    1.40
   2   2  -6    1.90    0.30
   2   2  -6    2.50    0.20
   2   2  -6    2.20    0.40
   2   2  -6    2.30    0.40
   2   2  -6    2.90    0.50
   2   2  -6    3.00    0.40
   2   2  -6    1.30    0.40
  -2  -2   6    2.00    0.40
  -2  -2   6    2.50    0.40
  -2  -2   6    2.20    0.30
  -2  -2   6    1.70    0.30
  -2  -2   6    2.60    0.50
   1   2  -6  343.37    7.50
   1   2  -6  354.86    7.40
   1   2  -6  354.66    7.40
   1   2  -6  335.67    7.50
   1   2  -6  349.47    7.40
   1   2  -6  342.37    7.20
  -1  -2   6  344.27    7.50
  -1  -2   6  350.56    7.30
  -1  -2   6  333.27    7.50
  -1  -2   6  347.37    7.40
  -1  -2   6  345.87    7.40
  -1  -2   6  344.17    7.30
   0   2  -6   18.20    0.70
   0   2  -6   19.30    0.90
   0   2  -6   17.70    0.80
   0   2  -6   17.70    0.80
   0   2  -6   17.70    0.80
   0   2  -6   18.00    0.80
   0   2  -6   18.50    0.60
   0  -2   6   18.60    0.80
   0  -2   6   19.20    0.60
   0  -2   6   19.10    0.70
   0  -2   6   18.20    0.90
   0  -2   6   18.70    0.90
   0  -2   6   19.30    0.70
  -1   2  -6   55.29    1.50
  -1   2  -6   56.19    1.50
  -1   2  -6   59.69    1.70
  -1   2  -6   56.59    1.40
  -1   2  -6   54.89    1.60
  -1   2  -6   54.49    1.60
  -1   2  -6   57.69    1.70
   1  -2   6   56.79    1.40
   1  -2   6   56.39    1.50
   1  -2   6   58.29    1.50
   1  -2   6   54.89    1.60
   1  -2   6   57.89    1.70
   1  -2   6   57.19    1.40
   1  -2   6   57.09    1.60
  -2   2  -6   37.00    1.20
  -2   2  -6   36.40    1.00
  -2   2  -6   37.20    1.40
  -2   2  -6   36.50    1.30
  -2   2  -6   36.20    1.40
  -2   2  -6   36.30    1.20
   2  -2   6   34.90    1.40
   2  -2   6   37.30    1.00
   2  -2   6   35.60    1.10
   2  -2   6   36.20    1.20
   2  -2   6   37.70    1.10
   2  -2   6   35.80    1.30
   2  -2   6   37.30    1.20
  -3   2  -6   59.19    1.90
  -3   2  -6   65.59    2.10
  -3   2  -6   58.29    1.80
  -3   2  -6   61.09    1.40
  -3   2  -6   63.09    2.10
  -3   2  -6   62.29    1.80
   3  -2   6   60.59    1.70
   3  -2   6   61.49    2.10
   3  -2   6   60.09    1.90
   3  -2   6   59.49    1.70
  -4   2  -6   45.60    1.70
  -4   2  -6   49.10    1.30
  -4   2  -6   50.99    2.10
  -4   2  -6   48.50    1.10
  -4   2  -6   49.99    1.80
  -4   2  -6   46.70    1.60
   4  -2   6   48.00    1.90
   4  -2   6   50.99    1.70
   4  -2   6   49.40    2.20
   4  -2   6   47.70    1.50
   4  -2   6   45.90    1.80
   4  -2   6   48.80    1.60
  -5   2  -6   72.79    1.70
  -5   2  -6   78.39    2.90
  -5   2  -6   70.29    2.40
  -5   2  -6   69.99    2.20
  -5   2  -6   73.09    1.60
  -5   2  -6   74.49    2.50
   5  -2   6   72.39    2.10
   5  -2   6   73.69    2.20
   5  -2   6   74.09    2.90
   5  -2   6   66.99    2.60
   5  -2   6   77.59    2.60
   5  -2   6   72.49    2.50
   5  -2   6   75.99    2.30
  -6   2  -6    3.40    1.40
  -6   2  -6    5.90    1.30
  -6   2  -6    4.70    1.00
  -6   2  -6    2.50    0.90
   6  -2   6    4.20    1.40
   6  -2   6    6.90    1.00
   6  -2   6    4.50    1.10
   6  -2   6    4.30    0.80
   6  -2   6    4.50    1.20
   6  -2   6    4.60    0.90
   6  -2   6    5.40    0.80
  -7   2  -6   27.00    2.60
  -7   2  -6   29.70    2.10
  -7   2  -6   32.70    2.60
   7  -2   6   32.60    1.90
   7  -2   6   36.10    2.80
   7  -2   6   30.40    2.10
   7  -2   6   30.80    3.40
   7  -2   6   31.10    2.40
   7  -2   6   28.50    2.60
  -8   2  -6   35.30    2.70
  -8   2  -6   29.20    2.60
   8  -2   6   29.70    2.70
   8  -2   6   32.20    2.50
   8  -2   6   34.20    3.40
   8  -2   6   37.70    4.00
   8  -2   6   35.70    3.10
   8  -2   6   27.30    2.30
   7   1  -6    6.60    1.80
   7   1  -6    5.10    1.60
   7   1  -6    5.60    1.10
   7   1  -6    9.40    1.50
   7   1  -6    6.30    1.90
  -7  -1   6    8.80    1.80
  -7  -1   6    4.70    1.10
  -7  -1   6    5.50    1.40
  -7  -1   6    4.50    1.90
  -7  -1   6    7.00    1.20
   6   1  -6    7.20    0.90
   6   1  -6    4.90    1.20
   6   1  -6    7.90    1.20
   6   1  -6    9.50    1.40
   6   1  -6    7.80    1.10
   6   1  -6    7.80    0.90
  -6  -1   6    8.70    1.10
  -6  -1   6    7.60    1.30
  -6  -1   6    8.10    1.50
  -6  -1   6    6.20    0.80
  -6  -1   6    8.40    0.90
   5   1  -6   22.30    1.40
   5   1  -6   17.20    1.30
   5   1  -6   20.40    1.60
   5   1  -6   19.70    1.80
   5   1  -6   18.70    1.20
  -5  -1   6   17.80    1.00
  -5  -1   6   19.00    1.60
  -5  -1   6   17.50    1.30
  -5  -1   6   17.40    1.20
  -5  -1   6   21.10    1.90
   4   1  -6  127.99    3.40
   4   1  -6  132.99    3.10
   4   1  -6  130.69    3.30
   4   1  -6  131.99    3.10
   4   1  -6  126.79    3.30
   4   1  -6  127.59    3.60
  -4  -1   6  128.99    3.60
  -4  -1   6  127.69    3.10
  -4  -1   6  129.59    3.20
  -4  -1   6  132.29    3.50
  -4  -1   6  134.79    3.00
   3   1  -6    4.70    0.60
   3   1  -6    4.70    0.50
   3   1  -6    5.30    0.50
   3   1  -6    3.30    0.60
  -3  -1   6    6.50    0.80
  -3  -1   6    5.40    0.60
  -3  -1   6    5.60    0.50
  -3  -1   6    6.20    0.70
   2   1  -6   50.69    1.70
   2   1  -6   54.79    1.30
   2   1  -6   51.69    1.40
   2   1  -6   50.79    1.50
   2   1  -6   52.39    1.40
   2   1  -6   51.89    1.60
   2   1  -6   53.59    1.50
  -2  -1   6   53.29    1.40
  -2  -1   6   51.19    1.70
  -2  -1   6   52.79    1.60
  -2  -1   6   52.59    1.30
  -2  -1   6   51.59    1.30
  -2  -1   6   52.19    1.50
   1   1  -6    0.20    0.30
   1   1  -6    0.60    0.30
   1   1  -6    0.60    0.30
   1   1  -6    0.80    0.20
   1   1  -6    0.90    0.30
   1   1  -6    0.40    0.20
  -1  -1   6    0.50    0.30
  -1  -1   6    0.80    0.30
  -1  -1   6    0.40    0.20
  -1  -1   6    0.60    0.30
  -1  -1   6    0.60    0.30
  -1  -1   6    0.90    0.30
   0   1  -6   89.09    2.10
   0   1  -6   92.99    2.00
   0   1  -6   89.89    2.20
   0   1  -6   89.39    2.10
   0   1  -6   90.19    2.20
   0   1  -6   89.09    2.20
   0  -1   6   85.79    2.20
   0  -1   6   90.89    2.10
   0  -1   6   88.89    2.20
   0  -1   6   91.09    2.10
   0  -1   6   91.69    2.30
   0  -1   6   90.09    2.10
   0  -1   6   87.69    2.00
  -1   1  -6   18.80    0.70
  -1   1  -6   17.60    0.80
  -1   1  -6   18.50    0.80
  -1   1  -6   18.50    0.90
  -1   1  -6   17.30    0.60
  -1   1  -6   19.00    0.70
  -1   1  -6   18.80    0.60
   1  -1   6   18.20    0.70
   1  -1   6   18.10    0.90
   1  -1   6   18.30    0.80
   1  -1   6   18.30    0.70
   1  -1   6   17.80    0.60
   1  -1   6   17.70    0.70
   1  -1   6   18.40    0.70
  -2   1  -6   62.69    1.60
  -2   1  -6   60.59    1.80
  -2   1  -6   60.69    1.70
  -2   1  -6   61.79    1.60
  -2   1  -6   59.89    1.40
  -2   1  -6   61.29    1.60
  -2   1  -6   59.99    1.80
   2  -1   6   60.29    1.50
   2  -1   6   61.69    1.50
   2  -1   6   62.09    1.50
   2  -1   6   60.99    1.70
   2  -1   6   62.19    1.80
   2  -1   6   59.49    1.70
   2  -1   6   63.29    1.60
  -3   1  -6   14.70    0.80
  -3   1  -6   14.70    1.10
  -3   1  -6   15.00    0.80
  -3   1  -6   14.00    1.10
  -3   1  -6   16.10    0.90
  -3   1  -6   15.40    0.60
   3  -1   6   14.50    1.10
   3  -1   6   15.40    0.80
   3  -1   6   14.40    0.70
   3  -1   6   15.20    0.90
   3  -1   6   14.70    0.90
   3  -1   6   16.30    0.70
  -4   1  -6   43.10    1.40
  -4   1  -6   42.60    1.10
  -4   1  -6   41.20    1.50
  -4   1  -6   44.70    1.90
  -4   1  -6   41.80    1.90
  -4   1  -6   43.00    1.70
   4  -1   6   42.90    1.40
   4  -1   6   43.10    1.30
   4  -1   6   42.70    1.60
   4  -1   6   42.90    1.90
   4  -1   6   44.80    1.70
   4  -1   6   42.40    1.40
  -5   1  -6   17.10    1.70
  -5   1  -6   16.70    1.10
  -5   1  -6   16.30    0.80
  -5   1  -6   16.70    1.30
  -5   1  -6   16.60    0.70
  -5   1  -6   16.00    1.40
   5  -1   6   15.70    0.90
   5  -1   6   17.40    1.40
   5  -1   6   15.80    1.10
   5  -1   6   16.80    1.20
   5  -1   6   16.40    1.80
   5  -1   6   15.90    1.00
   5  -1   6   17.30    1.40
  -6   1  -6    3.50    0.80
  -6   1  -6    6.00    1.30
  -6   1  -6    2.30    0.90
  -6   1  -6    4.70    0.40
  -6   1  -6    4.60    0.50
  -6   1  -6    5.30    1.10
   6  -1   6    3.80    0.90
   6  -1   6    5.40    0.70
   6  -1   6    4.00    1.00
   6  -1   6    5.40    1.40
   6  -1   6    4.80    0.80
   6  -1   6    3.90    0.70
   6  -1   6    4.20    0.80
  -7   1  -6   -2.30    1.30
  -7   1  -6   -0.30    1.30
  -7   1  -6   -0.10    0.80
  -7   1  -6    0.00    0.50
  -7   1  -6   -0.80    1.60
  -7   1  -6    0.00    0.40
   7  -1   6   -1.10    0.70
   7  -1   6    0.20    0.80
   7  -1   6    0.50    0.80
   7  -1   6    1.00    1.70
   7  -1   6   -0.10    1.10
   7  -1   6   -0.90    1.00
   7  -1   6    0.40    1.20
  -8   1  -6   12.70    2.10
  -8   1  -6   13.10    2.60
  -8   1  -6    9.20    1.30
  -8   1  -6   10.40    0.60
   8  -1   6    9.70    1.10
   8  -1   6   10.50    1.30
   8  -1   6    7.30    2.10
   8  -1   6   13.00    1.90
   8  -1   6   11.00    1.10
   8  -1   6   12.00    2.00
   7   0  -6   33.40    2.30
   7   0  -6   32.70    2.60
   7   0  -6   30.90    3.50
   7   0  -6   30.40    2.60
  -7   0   6   35.30    3.60
  -7   0   6   40.60    3.80
  -7   0   6   32.40    2.20
  -7   0   6   32.20    2.90
  -7   0   6   31.80    1.80
   6   0  -6   43.90    2.00
   6   0  -6   44.00    2.20
   6   0  -6   45.80    3.00
   6   0  -6   46.20    2.70
  -6   0   6   41.60    1.80
  -6   0   6   40.80    3.60
  -6   0   6   46.40    1.60
  -6   0   6   48.60    2.40
  -6   0   6   45.90    2.60
   5   0  -6   25.90    1.50
   5   0  -6   23.00    1.40
   5   0  -6   27.00    2.10
   5   0  -6   24.20    1.80
   5   0  -6   27.70    1.50
  -5   0   6   24.50    2.10
  -5   0   6   24.90    1.80
  -5   0   6   26.30    1.10
  -5   0   6   26.70    1.30
   4   0  -6    1.60    0.60
   4   0  -6    1.20    0.70
   4   0  -6    1.40    0.70
   4   0  -6    1.00    0.60
   4   0  -6    1.00    0.70
   4   0  -6    1.40    0.50
  -4   0   6    1.10    0.50
  -4   0   6    1.80    0.40
  -4   0   6    0.90    0.60
  -4   0   6    1.10    0.70
  -4   0   6    1.30    0.60
   3   0  -6  451.35    9.90
   3   0  -6  442.86    9.60
   3   0  -6  454.45    9.60
   3   0  -6  459.25    9.80
   3   0  -6  457.25    9.60
   3   0  -6  440.46    9.70
  -3   0   6  443.26    9.50
  -3   0   6  444.76    9.40
  -3   0   6  443.16    9.90
  -3   0   6  459.15    9.80
  -3   0   6  441.46    9.70
   2   0  -6   11.70    0.70
   2   0  -6   12.50    0.70
   2   0  -6   12.30    0.90
   2   0  -6   12.60    0.90
   2   0  -6   12.20    0.70
   2   0  -6   12.10    0.70
  -2   0   6   12.40    0.70
  -2   0   6   11.30    0.70
  -2   0   6   12.10    1.00
  -2   0   6   12.20    0.50
   1   0  -6  295.57    6.30
   1   0  -6  302.47    6.40
   1   0  -6  298.37    6.30
   1   0  -6  289.37    6.30
   1   0  -6  295.47    6.50
   1   0  -6  299.47    6.50
  -1   0   6  306.27    6.50
  -1   0   6  294.87    6.20
  -1   0   6  290.47    6.20
  -1   0   6  299.77    6.40
  -1   0   6  293.67    6.50
  -1   0   6  289.87    6.30
   0   0  -6  104.59    2.40
   0   0  -6  102.69    2.40
   0   0  -6  104.79    2.40
   0   0  -6  104.69    2.30
   0   0  -6  103.19    2.50
   0   0  -6   97.49    2.50
   0   0  -6  100.19    2.30
   0   0   6  101.59    2.20
   0   0   6  101.19    2.40
   0   0   6  105.29    2.40
   0   0   6  106.59    2.40
   0   0   6  101.19    2.50
   0   0   6  103.89    2.50
  -1   0  -6   11.70    0.50
  -1   0  -6   11.40    0.50
  -1   0  -6   11.60    0.50
  -1   0  -6   11.70    0.60
  -1   0  -6   11.80    0.50
  -1   0  -6   11.60    0.70
  -1   0  -6   11.80    0.60
   1   0   6   11.80    0.60
   1   0   6   11.70    0.60
   1   0   6   11.60    0.50
   1   0   6   11.70    0.70
   1   0   6   12.00    0.50
   1   0   6   11.40    0.50
  -2   0  -6  271.57    6.10
  -2   0  -6  278.87    6.20
  -2   0  -6  279.97    5.90
  -2   0  -6  280.37    6.00
  -2   0  -6  278.47    6.00
  -2   0  -6  274.27    5.90
  -2   0  -6  282.57    6.10
   2   0   6  279.17    5.90
   2   0   6  283.67    6.00
   2   0   6  274.27    6.10
   2   0   6  274.17    5.90
   2   0   6  282.07    6.00
   2   0   6  291.47    6.20
   2   0   6  267.97    5.90
  -3   0  -6   75.99    1.90
  -3   0  -6   75.69    1.80
  -3   0  -6   75.39    2.20
  -3   0  -6   74.49    2.10
  -3   0  -6   74.59    1.90
  -3   0  -6   75.09    2.10
   3   0   6   72.49    1.90
   3   0   6   72.99    1.70
   3   0   6   77.69    2.20
   3   0   6   76.99    2.00
   3   0   6   80.39    1.90
   3   0   6   73.09    2.10
  -4   0  -6    0.70    0.30
  -4   0  -6    0.90    0.50
  -4   0  -6    0.10    0.50
  -4   0  -6    1.40    0.60
  -4   0  -6    0.10    0.50
  -4   0  -6    0.20    0.40
   4   0   6    0.50    0.40
   4   0   6    0.70    0.40
   4   0   6    0.00    0.20
   4   0   6    0.50    0.50
   4   0   6    0.50    0.30
   4   0   6    0.20    0.60
  -5   0  -6    8.90    0.90
  -5   0  -6    5.70    0.80
  -5   0  -6    7.40    0.70
  -5   0  -6    8.80    1.00
  -5   0  -6    8.80    0.60
  -5   0  -6    7.10    0.60
  -5   0  -6    7.30    1.00
   5   0   6    7.60    0.60
   5   0   6    6.30    0.90
   5   0   6    8.30    0.60
   5   0   6    6.80    0.80
   5   0   6    8.20    0.70
   5   0   6    8.10    0.90
   5   0   6    7.80    0.70
  -6   0  -6   76.89    2.80
  -6   0  -6   76.99    2.30
  -6   0  -6   80.19    2.00
  -6   0  -6   81.29    3.00
  -6   0  -6   78.59    2.50
  -6   0  -6   82.19    2.20
   6   0   6   76.09    3.00
   6   0   6   78.29    2.40
   6   0   6   79.89    2.60
   6   0   6   80.99    2.00
   6   0   6   81.49    2.70
   6   0   6   76.39    2.00
   6   0   6   74.79    2.20
  -7   0  -6   -0.40    0.50
  -7   0  -6   -1.30    1.20
  -7   0  -6   -0.40    0.60
  -7   0  -6    0.40    0.70
  -7   0  -6    1.60    1.30
  -7   0  -6    1.00    2.40
   7   0   6    1.10    1.10
   7   0   6    0.00    1.10
   7   0   6    1.00    0.50
   7   0   6    0.30    0.50
   7   0   6   -0.30    0.70
   7   0   6   -2.20    1.40
   7   0   6    1.60    1.00
  -8   0  -6    7.00    1.20
  -8   0  -6    6.70    1.90
  -8   0  -6    6.90    1.90
  -8   0  -6    6.60    0.80
   8   0   6    8.10    0.80
   8   0   6    3.50    1.60
   8   0   6    6.70    1.40
   8   0   6    5.50    1.60
   8   0   6    8.90    1.20
   8   0   6    6.70    0.70
  -9   0  -6    4.20    2.20
  -9   0  -6   -1.70    1.50
   9   0   6   -2.30    1.40
   9   0   6    1.60    2.20
   9   0   6    1.50    2.30
   7  -1  -6   12.00    2.70
   7  -1  -6   15.90    1.70
   7  -1  -6   16.30    1.60
  -7   1   6   12.80    2.30
  -7   1   6   15.70    2.20
  -7   1   6   15.10    1.20
  -7   1   6   15.40    1.40
   6  -1  -6   15.90    1.70
   6  -1  -6   14.40    1.30
   6  -1  -6   14.20    1.70
   6  -1  -6   14.40    1.30
   6  -1  -6   15.50    1.50
  -6   1   6   17.40    1.50
  -6   1   6   19.70    1.80
  -6   1   6   17.90    2.00
  -6   1   6   15.60    1.70
  -6   1   6   16.20    1.30
   5  -1  -6    5.30    1.00
   5  -1  -6    5.40    0.80
   5  -1  -6    7.00    0.90
   5  -1  -6    5.50    1.20
   5  -1  -6    3.40    1.10
   5  -1  -6    6.70    0.70
  -5   1   6    6.20    0.70
  -5   1   6    7.70    1.10
  -5   1   6    5.30    0.60
  -5   1   6    4.50    0.90
  -5   1   6    6.20    1.20
   4  -1  -6   22.10    1.70
   4  -1  -6   21.50    1.60
   4  -1  -6   20.40    1.20
   4  -1  -6   21.50    1.20
   4  -1  -6   21.10    1.30
  -4   1   6   22.10    1.10
  -4   1   6   21.90    1.70
  -4   1   6   20.50    0.80
  -4   1   6   22.10    1.60
  -4   1   6   22.00    1.40
   3  -1  -6    3.90    0.60
   3  -1  -6    4.10    0.70
   3  -1  -6    3.80    0.70
   3  -1  -6    3.30    0.50
   3  -1  -6    3.70    0.50
   3  -1  -6    4.50    0.60
  -3   1   6    5.00    0.60
  -3   1   6    5.30    0.70
  -3   1   6    3.50    0.70
  -3   1   6    3.20    0.50
  -3   1   6    5.30    0.40
   2  -1  -6    5.60    0.50
   2  -1  -6    4.40    0.40
   2  -1  -6    5.80    0.60
   2  -1  -6    5.50    0.50
   2  -1  -6    5.30    0.60
   2  -1  -6    5.20    0.70
  -2   1   6    5.00    0.40
  -2   1   6    5.00    0.30
  -2   1   6    6.30    0.70
  -2   1   6    4.40    0.50
   1  -1  -6   11.70    0.60
   1  -1  -6   10.70    0.60
   1  -1  -6   11.60    0.60
   1  -1  -6   11.00    0.70
  -1   1   6   12.00    0.70
  -1   1   6   11.00    0.80
  -1   1   6   11.80    0.70
  -1   1   6   10.70    0.60
   0  -1  -6  124.89    2.80
   0  -1  -6  126.59    3.00
   0  -1  -6  126.09    2.90
   0  -1  -6  128.39    2.90
   0  -1  -6  126.09    2.90
   0   1   6  130.79    3.00
   0   1   6  129.09    2.60
   0   1   6  118.39    3.00
   0   1   6  130.89    2.90
   0   1   6  131.59    2.90
   0   1   6  124.59    2.90
  -1  -1  -6    8.30    0.50
  -1  -1  -6    8.60    0.50
  -1  -1  -6    8.10    0.50
  -1  -1  -6    8.60    0.40
  -1  -1  -6    8.90    0.40
  -1  -1  -6    9.60    0.60
   1   1   6    8.80    0.40
   1   1   6    8.70    0.60
   1   1   6    8.10    0.60
   1   1   6    8.30    0.50
   1   1   6    8.50    0.50
   1   1   6    9.00    0.50
   1   1   6    8.70    0.50
  -2  -1  -6  132.39    3.00
  -2  -1  -6  130.59    2.90
  -2  -1  -6  132.99    2.90
  -2  -1  -6  125.19    2.90
  -2  -1  -6  134.29    3.10
  -2  -1  -6  132.69    3.10
  -2  -1  -6  130.89    3.10
   2   1   6  134.39    3.00
   2   1   6  133.09    3.00
   2   1   6  130.39    3.10
   2   1   6  129.69    3.00
   2   1   6  128.39    3.10
   2   1   6  131.49    2.90
   2   1   6  135.19    2.90
  -3  -1  -6  192.08    4.30
  -3  -1  -6  193.28    4.50
  -3  -1  -6  192.88    4.30
  -3  -1  -6  192.48    4.20
  -3  -1  -6  193.28    4.40
  -3  -1  -6  192.28    4.10
  -3  -1  -6  198.78    4.50
   3   1   6  189.38    4.10
   3   1   6  197.58    4.30
   3   1   6  195.58    4.50
   3   1   6  192.98    4.40
   3   1   6  191.98    4.30
   3   1   6  194.98    4.30
  -4  -1  -6    3.60    0.60
  -4  -1  -6    3.30    0.50
  -4  -1  -6    2.60    0.40
  -4  -1  -6    3.40    0.70
  -4  -1  -6    3.60    0.60
  -4  -1  -6    2.50    0.40
   4   1   6    2.90    0.50
   4   1   6    3.10    0.50
   4   1   6    4.00    0.40
   4   1   6    3.70    0.40
   4   1   6    3.40    0.70
   4   1   6    3.60    0.30
  -5  -1  -6  155.68    3.80
  -5  -1  -6  157.48    3.70
  -5  -1  -6  158.18    3.70
  -5  -1  -6  151.48    4.10
  -5  -1  -6  155.48    3.60
  -5  -1  -6  156.88    4.10
  -5  -1  -6  156.38    4.00
   5   1   6  155.88    3.40
   5   1   6  163.48    4.20
   5   1   6  155.28    3.70
   5   1   6  155.68    3.90
   5   1   6  159.58    3.30
   5   1   6  155.58    3.70
   5   1   6  156.58    3.80
  -6  -1  -6  160.28    4.50
  -6  -1  -6  158.48    3.70
  -6  -1  -6  157.58    3.90
  -6  -1  -6  157.28    4.30
  -6  -1  -6  158.58    3.80
  -6  -1  -6  155.78    3.80
   6   1   6  150.38    3.90
   6   1   6  156.68    4.00
   6   1   6  155.98    3.40
   6   1   6  157.28    3.80
   6   1   6  157.28    4.20
   6   1   6  159.08    3.40
   6   1   6  158.98    4.40
  -7  -1  -6    0.90    1.10
  -7  -1  -6    1.30    1.10
  -7  -1  -6    1.70    0.60
  -7  -1  -6    2.00    0.70
  -7  -1  -6    1.80    0.80
  -7  -1  -6    0.70    1.20
   7   1   6    1.60    0.70
   7   1   6    1.40    1.00
   7   1   6    1.70    0.30
   7   1   6    2.20    1.00
   7   1   6    2.50    1.00
   7   1   6    2.00    0.40
   7   1   6    1.40    1.20
  -8  -1  -6   45.40    2.00
  -8  -1  -6   43.20    2.10
  -8  -1  -6   40.90    2.90
  -8  -1  -6   47.70    3.40
  -8  -1  -6   43.00    1.80
   8   1   6   41.10    2.10
   8   1   6   42.50    1.30
   8   1   6   44.40    1.20
   8   1   6   42.60    2.90
   8   1   6   43.50    2.60
   8   1   6   45.90    3.30
  -9  -1  -6    3.70    1.30
  -9  -1  -6    3.80    1.00
  -9  -1  -6    4.00    2.20
  -9  -1  -6    5.10    1.40
  -9  -1  -6    5.30    2.50
   9   1   6    5.30    1.80
   9   1   6    3.90    2.00
   9   1   6    7.60    1.40
   6  -2  -6    5.60    1.40
   6  -2  -6    4.90    1.80
   6  -2  -6    3.00    1.00
   6  -2  -6    3.10    1.10
   6  -2  -6    3.70    1.80
  -6   2   6    3.50    1.70
  -6   2   6    2.30    1.70
  -6   2   6    4.90    0.80
  -6   2   6    3.20    1.60
  -6   2   6    3.60    1.00
   5  -2  -6   17.50    1.10
   5  -2  -6   16.00    1.50
   5  -2  -6   15.90    1.30
   5  -2  -6   11.70    1.10
   5  -2  -6   16.10    1.60
   5  -2  -6   15.30    1.70
  -5   2   6   16.30    1.30
  -5   2   6   19.50    1.70
  -5   2   6   17.00    1.80
  -5   2   6   16.00    1.00
  -5   2   6   14.70    1.70
   4  -2  -6   -0.60    0.90
   4  -2  -6    0.50    0.70
   4  -2  -6    0.20    0.40
   4  -2  -6   -0.20    0.90
   4  -2  -6    0.40    0.50
   4  -2  -6    0.10    0.70
  -4   2   6    0.20    0.50
  -4   2   6    0.30    0.40
  -4   2   6   -0.40    0.90
  -4   2   6   -0.10    0.70
  -4   2   6    0.40    0.90
   3  -2  -6   20.20    1.30
   3  -2  -6   19.00    0.70
   3  -2  -6   19.40    1.20
   3  -2  -6   19.30    1.40
   3  -2  -6   19.10    1.00
   3  -2  -6   20.50    1.70
  -3   2   6   18.10    0.70
  -3   2   6   18.10    1.50
  -3   2   6   19.90    1.40
  -3   2   6   19.90    1.20
   2  -2  -6  227.38    5.10
   2  -2  -6  218.78    5.00
   2  -2  -6  225.08    5.00
   2  -2  -6  221.48    5.30
   2  -2  -6  225.08    5.10
   2  -2  -6  221.98    4.90
  -2   2   6  227.08    5.20
  -2   2   6  217.88    5.20
  -2   2   6  226.78    4.90
   1  -2  -6    9.40    0.80
   1  -2  -6    9.80    0.70
   1  -2  -6    9.10    0.60
   1  -2  -6    9.20    0.70
   1  -2  -6   10.20    0.60
   1  -2  -6   10.00    0.80
  -1   2   6    9.40    0.60
  -1   2   6    9.10    0.80
  -1   2   6   10.40    0.80
  -1   2   6    9.60    0.70
   0  -2  -6    1.10    0.30
   0  -2  -6    1.90    0.40
   0  -2  -6    1.80    0.30
   0  -2  -6    1.90    0.40
   0  -2  -6    1.40    0.30
   0  -2  -6    1.80    0.30
   0   2   6    1.40    0.30
   0   2   6    1.00    0.30
   0   2   6    0.60    0.30
   0   2   6    1.20    0.30
  -1  -2  -6   73.39    1.80
  -1  -2  -6   75.49    1.80
  -1  -2  -6   70.79    1.60
  -1  -2  -6   75.59    1.80
  -1  -2  -6   73.39    1.70
  -1  -2  -6   74.49    1.80
  -1  -2  -6   73.59    1.90
   1   2   6   73.09    1.80
   1   2   6   73.19    1.80
   1   2   6   74.29    1.90
   1   2   6   74.49    1.80
   1   2   6   74.69    1.90
   1   2   6   74.89    1.60
  -2  -2  -6   10.90    0.60
  -2  -2  -6   10.10    0.60
  -2  -2  -6   10.50    0.40
  -2  -2  -6    9.80    0.50
  -2  -2  -6    9.60    0.60
  -2  -2  -6   10.00    0.60
  -2  -2  -6   10.00    0.60
   2   2   6    9.70    0.60
   2   2   6   10.70    0.50
   2   2   6   10.20    0.50
   2   2   6   10.60    0.60
   2   2   6   10.60    0.70
   2   2   6   10.00    0.50
  -3  -2  -6  178.68    4.10
  -3  -2  -6  173.78    4.00
  -3  -2  -6  175.18    4.00
  -3  -2  -6  178.88    3.90
  -3  -2  -6  177.48    3.70
  -3  -2  -6  176.58    3.90
  -3  -2  -6  171.58    3.90
   3   2   6  170.98    3.90
   3   2   6  174.58    4.00
   3   2   6  182.38    3.70
   3   2   6  175.18    3.90
   3   2   6  177.68    3.90
  -4  -2  -6   20.80    0.90
  -4  -2  -6   22.90    0.90
  -4  -2  -6   23.60    1.10
  -4  -2  -6   22.60    1.10
  -4  -2  -6   23.20    1.00
  -4  -2  -6   22.30    1.20
   4   2   6   22.50    1.10
   4   2   6   23.00    1.20
   4   2   6   22.70    0.90
  -5  -2  -6  104.89    3.10
  -5  -2  -6  107.29    3.00
  -5  -2  -6  106.49    2.60
  -5  -2  -6  104.69    2.70
  -5  -2  -6  107.79    2.80
  -5  -2  -6  109.49    3.00
  -5  -2  -6  104.59    2.60
   5   2   6  107.79    2.60
   5   2   6  104.19    2.70
   5   2   6  104.09    3.00
   5   2   6  105.99    2.80
   5   2   6  102.89    2.70
  -6  -2  -6   -0.60    0.50
  -6  -2  -6   -0.20    0.70
  -6  -2  -6   -0.10    0.50
  -6  -2  -6   -0.30    0.60
  -6  -2  -6   -0.40    0.70
  -6  -2  -6   -0.20    0.80
   6   2   6    0.10    0.60
   6   2   6    0.10    0.70
   6   2   6   -0.20    0.70
   6   2   6    0.30    0.50
   6   2   6    0.00    0.60
  -7  -2  -6    0.90    1.10
  -7  -2  -6    1.80    0.90
  -7  -2  -6    0.30    0.60
  -7  -2  -6    2.70    0.80
  -7  -2  -6    0.20    1.30
   7   2   6    1.30    0.90
   7   2   6    2.00    1.00
   7   2   6   -0.30    0.90
   7   2   6    0.90    0.80
   7   2   6    2.10    0.70
  -8  -2  -6    6.20    1.10
  -8  -2  -6    4.90    1.60
  -8  -2  -6    7.30    1.50
  -8  -2  -6    3.50    0.90
  -8  -2  -6    4.20    1.40
   8   2   6    6.20    1.70
   8   2   6    6.00    0.90
   8   2   6    4.60    1.20
   8   2   6    5.50    1.40
   8   2   6    6.20    1.30
  -9  -2  -6   23.50    2.20
  -9  -2  -6   17.20    2.20
  -9  -2  -6   20.80    1.70
  -9  -2  -6   18.80    1.50
  -9  -2  -6   17.70    2.60
   9   2   6   21.40    2.10
   9   2   6   20.70    2.10
   9   2   6   23.50    2.10
   6  -3  -6   -0.60    1.10
   6  -3  -6    0.80    1.60
  -6   3   6   -0.80    1.30
  -6   3   6   -2.10    2.00
  -6   3   6    0.50    1.90
   5  -3  -6    3.10    1.20
   5  -3  -6    2.20    1.40
   5  -3  -6    2.10    0.90
   5  -3  -6    4.30    0.80
   5  -3  -6    5.70    1.60
  -5   3   6    4.40    1.20
  -5   3   6    2.60    1.40
  -5   3   6    3.90    1.60
  -5   3   6    3.50    0.70
  -5   3   6    3.50    0.80
   4  -3  -6    8.70    1.20
   4  -3  -6    9.10    0.80
   4  -3  -6    9.90    0.80
   4  -3  -6   11.80    1.20
   4  -3  -6    9.30    1.40
   4  -3  -6    5.80    1.00
  -4   3   6    7.70    0.70
  -4   3   6    9.90    0.80
  -4   3   6    7.20    1.20
  -4   3   6    6.60    1.20
  -4   3   6    8.90    1.40
   3  -3  -6    0.50    0.80
   3  -3  -6    0.50    0.50
   3  -3  -6    0.30    0.30
   3  -3  -6    0.60    0.70
   3  -3  -6   -0.50    0.70
   3  -3  -6    0.20    0.80
  -3   3   6    0.40    0.50
  -3   3   6    0.30    0.30
  -3   3   6    0.70    0.50
  -3   3   6    0.40    0.90
  -3   3   6    0.00    0.80
   2  -3  -6    6.00    0.30
   2  -3  -6    6.60    0.70
   2  -3  -6    5.80    0.50
   2  -3  -6    5.50    0.70
   2  -3  -6    6.20    0.70
   2  -3  -6    6.40    0.80
  -2   3   6    6.20    0.60
  -2   3   6    5.00    0.80
  -2   3   6    6.20    0.80
   1  -3  -6    7.00    0.60
   1  -3  -6    6.10    0.60
   1  -3  -6    7.20    0.70
   1  -3  -6    7.20    0.70
   1  -3  -6    7.40    0.70
  -1   3   6    7.20    0.60
  -1   3   6    6.70    0.70
  -1   3   6    7.80    0.80
  -1   3   6    8.20    0.70
   0  -3  -6   24.80    1.00
   0  -3  -6   26.40    1.00
   0  -3  -6   26.40    1.00
   0  -3  -6   25.30    1.00
   0  -3  -6   24.80    0.90
   0  -3  -6   25.90    0.90
   0   3   6   24.30    1.00
   0   3   6   25.10    1.20
   0   3   6   25.50    1.00
   0   3   6   26.90    0.90
  -1  -3  -6   37.70    1.10
  -1  -3  -6   40.30    0.90
  -1  -3  -6   38.10    1.20
  -1  -3  -6   37.90    1.10
  -1  -3  -6   37.90    1.10
  -1  -3  -6   37.50    1.10
   1   3   6   38.80    1.10
   1   3   6   38.00    1.10
   1   3   6   38.20    1.30
   1   3   6   36.80    1.30
  -2  -3  -6   38.90    1.00
  -2  -3  -6   40.10    1.20
  -2  -3  -6   38.80    1.20
  -2  -3  -6   38.50    1.00
  -2  -3  -6   38.50    1.20
  -2  -3  -6   38.10    1.10
  -2  -3  -6   34.70    1.20
   2   3   6   39.10    1.20
   2   3   6   39.80    1.00
   2   3   6   40.30    1.00
   2   3   6   38.90    1.20
   2   3   6   38.10    1.10
  -3  -3  -6    0.80    0.30
  -3  -3  -6    0.70    0.40
  -3  -3  -6    0.40    0.30
  -3  -3  -6    1.20    0.30
  -3  -3  -6    0.30    0.30
  -3  -3  -6    0.90    0.30
  -3  -3  -6    0.50    0.20
   3   3   6    0.80    0.30
   3   3   6    0.60    0.30
   3   3   6    0.60    0.30
   3   3   6    0.80    0.40
   3   3   6    0.40    0.20
   3   3   6    1.10    0.30
  -4  -3  -6    2.50    0.50
  -4  -3  -6    2.20    0.50
  -4  -3  -6    2.90    0.50
  -4  -3  -6    2.90    0.40
  -4  -3  -6    2.00    0.40
  -4  -3  -6    3.10    0.50
   4   3   6    2.30    0.30
   4   3   6    2.70    0.40
   4   3   6    3.40    0.50
   4   3   6    2.60    0.40
   4   3   6    2.40    0.60
  -5  -3  -6    3.50    0.50
  -5  -3  -6    4.00    0.50
  -5  -3  -6    4.40    0.70
  -5  -3  -6    4.50    0.60
  -5  -3  -6    5.40    0.80
  -5  -3  -6    4.90    0.80
  -5  -3  -6    3.60    0.70
   5   3   6    4.30    0.50
   5   3   6    3.90    0.50
   5   3   6    4.20    0.70
   5   3   6    3.50    0.50
   5   3   6    3.60    0.60
  -6  -3  -6  125.59    3.60
  -6  -3  -6  122.39    3.20
  -6  -3  -6  124.99    3.30
  -6  -3  -6  123.49    3.10
   6   3   6  125.19    4.00
   6   3   6  123.89    3.20
   6   3   6  120.59    3.10
   6   3   6  119.79    3.30
   6   3   6  123.89    3.00
  -7  -3  -6   32.40    1.80
  -7  -3  -6   33.10    1.90
  -7  -3  -6   33.70    2.10
  -7  -3  -6   31.70    1.50
  -7  -3  -6   30.50    2.40
   7   3   6   32.70    2.10
   7   3   6   31.30    1.90
   7   3   6   31.00    2.00
   7   3   6   35.80    1.70
  -8  -3  -6   33.70    2.40
  -8  -3  -6   31.70    2.20
  -8  -3  -6   34.40    3.00
  -8  -3  -6   37.20    1.90
  -8  -3  -6   33.80    2.60
   8   3   6   32.60    2.20
   8   3   6   36.20    1.70
   8   3   6   35.40    2.10
   8   3   6   29.30    2.30
   8   3   6   33.60    2.60
  -9  -3  -6   18.00    1.70
  -9  -3  -6   13.80    1.40
  -9  -3  -6   17.00    2.00
  -9  -3  -6   14.70    2.30
   9   3   6   17.50    1.90
   9   3   6   18.40    1.40
   5  -4  -6    0.40    0.90
   5  -4  -6    1.50    1.60
  -5   4   6    0.70    1.00
  -5   4   6    1.60    2.10
  -5   4   6    1.00    0.80
  -5   4   6    0.20    1.60
   4  -4  -6   -1.00    1.20
   4  -4  -6   -2.30    1.10
   4  -4  -6    0.20    0.60
   4  -4  -6   -0.80    1.30
   4  -4  -6   -0.40    0.70
  -4   4   6    1.10    0.50
  -4   4   6   -0.30    1.20
  -4   4   6    0.20    0.70
  -4   4   6   -0.10    1.50
  -4   4   6    0.40    0.90
   3  -4  -6    3.00    0.40
   3  -4  -6    0.70    0.90
   3  -4  -6    2.60    1.00
   3  -4  -6    2.60    1.00
   3  -4  -6    2.90    0.60
   3  -4  -6    2.10    0.90
  -3   4   6    2.10    0.90
  -3   4   6    2.30    0.60
  -3   4   6    3.00    0.80
  -3   4   6    3.10    0.40
  -3   4   6    1.10    1.20
   2  -4  -6   24.40    1.00
   2  -4  -6   23.40    0.70
   2  -4  -6   24.90    1.50
   2  -4  -6   24.90    1.60
   2  -4  -6   22.20    1.50
   2  -4  -6   24.70    1.40
  -2   4   6   23.90    1.80
  -2   4   6   23.20    1.50
  -2   4   6   24.30    1.20
   1  -4  -6    9.30    0.80
   1  -4  -6    6.60    0.70
   1  -4  -6    9.10    0.50
   1  -4  -6    7.80    0.70
   1  -4  -6    7.10    0.70
   1  -4  -6    8.90    0.90
  -1   4   6    7.80    0.90
  -1   4   6    9.00    1.00
  -1   4   6    8.90    0.70
  -1   4   6    7.60    0.60
   0  -4  -6   40.70    1.00
   0  -4  -6   41.50    1.20
   0  -4  -6   41.00    1.00
   0  -4  -6   41.70    1.30
   0  -4  -6   37.70    1.60
   0  -4  -6   40.10    1.40
   0  -4  -6   41.20    1.20
   0   4   6   42.00    1.20
   0   4   6   41.20    1.30
   0   4   6   42.20    1.40
   0   4   6   42.60    1.60
  -1  -4  -6    1.20    0.30
  -1  -4  -6    0.60    0.20
  -1  -4  -6    0.50    0.20
  -1  -4  -6    1.10    0.20
  -1  -4  -6    0.40    0.40
  -1  -4  -6    1.40    0.60
  -1  -4  -6    1.30    0.30
   1   4   6    0.10    0.50
   1   4   6    0.50    0.30
   1   4   6    1.10    0.30
  -2  -4  -6    0.00    0.30
  -2  -4  -6    0.40    0.30
  -2  -4  -6    0.00    0.40
  -2  -4  -6    0.20    0.30
  -2  -4  -6    0.10    0.30
  -2  -4  -6    0.10    0.20
  -2  -4  -6   -0.10    0.20
   2   4   6    0.00    0.30
   2   4   6    0.30    0.40
  -3  -4  -6    3.10    0.40
  -3  -4  -6    3.60    0.40
  -3  -4  -6    3.50    0.40
  -3  -4  -6    3.80    0.40
  -3  -4  -6    3.10    0.50
  -3  -4  -6    3.20    0.50
  -3  -4  -6    3.90    0.30
   3   4   6    3.40    0.30
   3   4   6    3.90    0.30
   3   4   6    2.70    0.40
   3   4   6    3.40    0.50
  -4  -4  -6   -0.10    0.40
  -4  -4  -6    0.10    0.20
  -4  -4  -6    0.60    0.50
  -4  -4  -6   -0.10    0.40
  -4  -4  -6    0.00    0.40
  -4  -4  -6   -0.40    0.40
  -4  -4  -6    0.10    0.10
  -4  -4  -6    0.20    0.30
   4   4   6    0.50    0.30
   4   4   6    0.20    0.50
   4   4   6    0.30    0.40
   4   4   6    0.50    0.40
   4   4   6    0.20    0.20
  -5  -4  -6   37.10    1.50
  -5  -4  -6   36.90    1.60
  -5  -4  -6   36.10    1.40
  -5  -4  -6   35.60    1.70
  -5  -4  -6   37.60    1.70
  -5  -4  -6   38.00    1.30
   5   4   6   37.60    1.30
   5   4   6   37.40    1.30
   5   4   6   38.50    1.40
   5   4   6   37.20    1.60
   5   4   6   38.10    1.20
  -6  -4  -6    7.00    0.90
  -6  -4  -6    7.70    1.10
  -6  -4  -6    8.50    0.80
  -6  -4  -6    6.10    0.90
  -6  -4  -6    8.10    0.80
   6   4   6    7.40    0.80
   6   4   6    9.00    0.80
   6   4   6    7.10    1.00
   6   4   6    7.60    0.80
   6   4   6    8.90    0.70
  -7  -4  -6    0.60    1.00
  -7  -4  -6   -0.20    0.80
  -7  -4  -6   -0.40    0.90
  -7  -4  -6   -1.30    1.10
  -7  -4  -6   -0.20    0.70
   7   4   6    0.60    0.80
   7   4   6    0.70    0.90
   7   4   6   -0.10    0.90
   7   4   6    0.70    0.60
   7   4   6   -0.90    0.90
  -8  -4  -6   23.30    2.20
  -8  -4  -6   28.20    2.90
  -8  -4  -6   25.10    2.50
  -8  -4  -6   22.70    1.60
  -8  -4  -6   23.80    1.70
   8   4   6   25.70    2.10
   8   4   6   23.20    1.70
   8   4   6   23.10    1.50
   8   4   6   19.40    2.00
  -9  -4  -6    1.90    1.80
  -9  -4  -6   -0.60    1.10
   9   4   6    2.20    1.10
   9   4   6    2.00    1.50
   4  -5  -6    0.00    0.70
   4  -5  -6    1.40    1.30
  -4   5   6   -1.10    1.30
   3  -5  -6   70.69    1.90
   3  -5  -6   69.19    2.10
   3  -5  -6   82.39    3.80
   3  -5  -6   73.19    3.20
   3  -5  -6   75.59    2.90
  -3   5   6   72.69    2.70
  -3   5   6   72.79    2.30
  -3   5   6   76.59    2.40
   2  -5  -6    3.50    0.90
   2  -5  -6    3.40    1.00
   2  -5  -6    3.50    0.40
   2  -5  -6    3.20    0.90
   2  -5  -6    3.10    0.90
   2  -5  -6    3.20    0.50
  -2   5   6    3.80    0.70
  -2   5   6    3.90    0.80
  -2   5   6    2.50    1.20
   1  -5  -6   40.00    1.80
   1  -5  -6   41.40    1.10
   1  -5  -6   42.00    2.00
   1  -5  -6   41.80    1.30
   1  -5  -6   40.80    1.80
   1  -5  -6   43.80    1.60
  -1   5   6   43.20    2.10
  -1   5   6   43.20    1.60
  -1   5   6   42.10    1.30
   0  -5  -6  130.69    3.00
   0  -5  -6  129.99    3.00
   0  -5  -6  133.89    2.90
   0  -5  -6  130.09    2.80
   0  -5  -6  128.49    3.00
   0  -5  -6  125.49    3.30
   0  -5  -6  129.79    3.20
   0  -5  -6  128.89    3.40
   0   5   6  128.39    3.00
   0   5   6  130.39    2.90
   0   5   6  126.69    3.50
  -1  -5  -6   58.59    1.50
  -1  -5  -6   59.59    1.70
  -1  -5  -6   59.69    1.50
  -1  -5  -6   61.49    1.90
  -1  -5  -6   57.79    1.50
  -1  -5  -6   59.59    1.70
  -1  -5  -6   59.39    1.50
  -2  -5  -6   51.19    1.40
  -2  -5  -6   53.59    1.40
  -2  -5  -6   53.99    1.60
  -2  -5  -6   53.89    1.60
  -2  -5  -6   52.89    1.50
  -2  -5  -6   53.69    1.30
  -2  -5  -6   54.39    1.40
  -2  -5  -6   54.29    1.70
  -3  -5  -6   41.30    1.40
  -3  -5  -6   40.40    1.20
  -3  -5  -6   39.80    1.30
  -3  -5  -6   38.90    1.20
  -3  -5  -6   40.60    1.20
  -3  -5  -6   39.20    1.40
  -3  -5  -6   41.60    1.20
   3   5   6   38.60    1.00
  -4  -5  -6    3.50    0.50
  -4  -5  -6    2.80    0.50
  -4  -5  -6    3.20    0.60
  -4  -5  -6    3.00    0.30
  -4  -5  -6    3.50    0.50
  -4  -5  -6    3.00    0.40
  -4  -5  -6    4.30    0.60
  -4  -5  -6    3.50    0.60
   4   5   6    3.20    0.50
   4   5   6    2.60    0.50
   4   5   6    3.20    0.30
  -5  -5  -6   35.70    1.90
  -5  -5  -6   36.60    1.60
  -5  -5  -6   38.00    1.50
  -5  -5  -6   38.40    1.40
  -5  -5  -6   37.80    1.70
  -5  -5  -6   37.80    1.60
  -5  -5  -6   38.50    1.40
   5   5   6   37.20    1.20
   5   5   6   38.30    1.00
   5   5   6   37.70    1.50
   5   5   6   38.10    1.40
   5   5   6   37.30    1.40
  -6  -5  -6    2.70    0.80
  -6  -5  -6    2.40    0.90
  -6  -5  -6    3.10    0.70
  -6  -5  -6    2.20    0.60
  -6  -5  -6    4.20    1.10
   6   5   6    2.90    0.80
   6   5   6    2.50    0.40
   6   5   6    2.20    0.70
   6   5   6    2.60    0.60
  -7  -5  -6    6.60    1.20
  -7  -5  -6    6.30    0.90
  -7  -5  -6    9.50    1.40
  -7  -5  -6    8.50    1.00
  -7  -5  -6    7.80    1.10
   7   5   6    9.10    1.10
   7   5   6    6.30    1.30
   7   5   6    8.60    0.90
   7   5   6    7.80    0.90
   7   5   6    8.50    1.10
  -8  -5  -6   53.49    2.30
  -8  -5  -6   57.89    2.70
  -8  -5  -6   51.09    2.80
  -8  -5  -6   53.69    3.00
  -8  -5  -6   57.09    3.30
   8   5   6   50.39    2.30
   8   5   6   49.10    2.60
   8   5   6   50.09    2.00
   8   5   6   51.49    2.00
  -9  -5  -6    0.50    1.20
   9   5   6    2.00    1.00
   9   5   6    1.90    1.40
   3  -6  -6   21.20    1.80
   3  -6  -6   22.40    1.40
  -3   6   6   26.50    2.10
  -3   6   6   25.10    1.60
   2  -6  -6    2.70    1.30
   2  -6  -6    0.40    0.60
   2  -6  -6    0.90    1.10
   2  -6  -6    0.30    0.50
  -2   6   6    0.10    0.80
  -2   6   6    0.60    0.60
   1  -6  -6    0.80    1.00
   1  -6  -6    0.50    0.80
   1  -6  -6    0.10    0.40
   1  -6  -6   -0.50    0.50
   1  -6  -6    0.10    0.90
   1  -6  -6    0.70    0.70
  -1   6   6    0.30    0.40
  -1   6   6   -0.50    0.50
   0  -6  -6   84.29    2.20
   0  -6  -6   87.49    2.20
   0  -6  -6   86.19    2.50
   0  -6  -6   86.79    2.10
   0  -6  -6   89.29    2.80
   0  -6  -6   86.79    2.70
   0  -6  -6   89.79    2.30
   0  -6  -6   88.09    2.10
  -1  -6  -6   19.50    1.40
  -1  -6  -6   21.30    1.10
  -1  -6  -6   19.60    0.90
  -1  -6  -6   19.50    0.90
  -1  -6  -6   20.60    1.40
  -1  -6  -6   21.50    1.00
  -1  -6  -6   20.10    1.10
  -1  -6  -6   21.40    1.40
  -1  -6  -6   19.50    0.80
  -2  -6  -6    8.00    0.80
  -2  -6  -6    9.40    0.80
  -2  -6  -6    7.60    0.80
  -2  -6  -6    9.00    0.60
  -2  -6  -6    8.00    0.70
  -2  -6  -6    8.20    0.70
  -2  -6  -6    8.70    0.90
  -2  -6  -6    9.20    0.50
  -3  -6  -6  425.16    9.00
  -3  -6  -6  416.06    8.80
  -3  -6  -6  416.56    8.90
  -3  -6  -6  408.76    8.80
  -3  -6  -6  421.66    8.90
  -3  -6  -6  415.96    9.10
  -4  -6  -6    8.70    0.70
  -4  -6  -6    7.10    0.70
  -4  -6  -6    9.00    1.10
  -4  -6  -6    7.20    0.60
  -4  -6  -6    6.60    0.60
  -4  -6  -6    6.90    0.70
  -4  -6  -6    8.00    0.80
  -4  -6  -6    8.10    0.70
  -4  -6  -6    7.40    0.60
  -5  -6  -6   18.60    1.20
  -5  -6  -6   17.20    0.60
  -5  -6  -6   16.60    1.40
  -5  -6  -6   18.50    1.40
  -5  -6  -6   18.00    1.10
  -5  -6  -6   16.90    1.20
  -5  -6  -6   16.80    0.60
  -5  -6  -6   19.00    1.30
   5   6   6   19.30    0.80
   5   6   6   16.70    0.70
  -6  -6  -6    2.80    0.70
  -6  -6  -6    1.80    0.70
  -6  -6  -6    4.20    1.00
  -6  -6  -6    2.20    1.20
  -6  -6  -6    2.90    0.80
   6   6   6    2.90    0.50
   6   6   6    3.20    0.70
   6   6   6    2.60    0.70
  -7  -6  -6    7.10    1.40
  -7  -6  -6    8.00    1.10
  -7  -6  -6   10.00    1.40
  -7  -6  -6    7.30    1.10
  -7  -6  -6   10.60    1.10
   7   6   6    7.30    0.90
   7   6   6    8.60    0.80
   7   6   6    8.60    1.00
   7   6   6    8.60    0.70
  -8  -6  -6   15.80    2.40
  -8  -6  -6   14.30    1.50
  -8  -6  -6   19.60    2.00
   8   6   6   15.80    1.20
   8   6   6   16.20    1.70
   8   6   6   13.50    1.10
   8   6   6   17.00    1.40
  -9  -6  -6    7.60    1.50
   9   6   6   10.90    1.50
   9   6   6    8.80    1.30
   2  -7  -6   89.09    2.40
   2  -7  -6   86.89    3.70
  -2   7   6   88.39    2.10
  -2   7   6   84.09    2.20
   1  -7  -6    1.50    0.70
   1  -7  -6    2.20    1.20
   1  -7  -6    0.60    0.60
   1  -7  -6    2.00    1.30
   0  -7  -6    5.80    1.20
   0  -7  -6    4.30    0.80
   0  -7  -6    5.20    0.60
   0  -7  -6    3.50    1.10
   0  -7  -6    4.20    0.60
   0  -7  -6    4.50    0.70
   0  -7  -6    4.00    0.60
   0  -7  -6    4.10    1.10
   0  -7  -6    5.20    0.60
  -1  -7  -6   59.79    1.80
  -1  -7  -6   58.19    2.30
  -1  -7  -6   58.89    1.70
  -1  -7  -6   56.09    2.30
  -1  -7  -6   58.69    1.50
  -1  -7  -6   56.79    1.70
  -1  -7  -6   57.59    1.70
  -1  -7  -6   55.79    1.50
  -1  -7  -6   59.19    2.40
  -2  -7  -6    4.80    0.90
  -2  -7  -6    4.90    0.50
  -2  -7  -6    5.10    0.70
  -2  -7  -6    5.50    0.70
  -2  -7  -6    6.10    1.00
  -2  -7  -6    6.30    0.70
  -3  -7  -6  103.09    2.60
  -3  -7  -6   99.79    3.20
  -3  -7  -6  102.79    2.80
  -3  -7  -6  101.59    2.40
  -3  -7  -6   98.89    2.70
  -3  -7  -6  105.39    2.80
  -3  -7  -6  102.39    2.80
  -4  -7  -6   18.40    1.40
  -4  -7  -6   19.90    1.20
  -4  -7  -6   19.90    1.50
  -4  -7  -6   18.50    1.40
  -4  -7  -6   20.10    0.80
  -4  -7  -6   20.90    1.30
  -4  -7  -6   22.30    1.10
  -4  -7  -6   19.90    1.20
  -4  -7  -6   18.00    1.00
  -5  -7  -6    6.20    0.60
  -5  -7  -6    6.30    0.80
  -5  -7  -6    6.80    0.50
  -5  -7  -6    7.00    0.80
  -5  -7  -6    5.60    1.00
  -5  -7  -6    7.50    0.90
  -5  -7  -6    7.90    1.50
  -6  -7  -6    8.70    1.60
  -6  -7  -6    8.30    1.10
  -6  -7  -6    8.60    0.90
  -6  -7  -6    7.80    1.00
  -6  -7  -6    7.90    1.00
  -7  -7  -6    2.80    1.10
  -7  -7  -6    1.50    1.00
  -7  -7  -6    2.20    1.00
   7   7   6    2.40    0.90
   7   7   6    3.00    0.70
   7   7   6    2.60    0.60
  -8  -7  -6    0.10    1.30
  -8  -7  -6    4.50    1.20
   8   7   6    3.30    1.00
   8   7   6    3.90    1.10
   8   7   6    3.20    0.80
  -9  -7  -6   44.20    3.00
   9   7   6   54.09    2.60
   9   7   6   58.29    3.50
   1  -8  -6   -0.40    1.40
   1  -8  -6    0.50    0.80
   1  -8  -6    1.80    0.80
   0  -8  -6    6.40    0.70
   0  -8  -6    6.20    0.80
   0  -8  -6    7.90    1.40
   0  -8  -6    5.30    0.80
   0  -8  -6    6.60    1.50
   0  -8  -6    6.30    1.00
  -1  -8  -6   46.50    2.50
  -1  -8  -6   44.60    1.30
  -1  -8  -6   44.70    1.70
  -1  -8  -6   40.80    2.80
  -1  -8  -6   42.60    1.90
  -1  -8  -6   44.70    2.50
  -2  -8  -6   -0.10    1.30
  -2  -8  -6    3.00    1.20
  -2  -8  -6    0.70    0.80
  -2  -8  -6    0.90    0.80
  -2  -8  -6    1.90    0.30
  -2  -8  -6    1.10    1.00
  -2  -8  -6    1.50    0.70
  -2  -8  -6    1.50    1.10
  -3  -8  -6    8.70    1.00
  -3  -8  -6    7.50    1.10
  -3  -8  -6    8.80    0.90
  -3  -8  -6    8.90    1.20
  -3  -8  -6    6.50    1.00
  -3  -8  -6    9.90    1.50
  -4  -8  -6  436.16    9.80
  -4  -8  -6  464.15   10.00
  -4  -8  -6  443.16    9.90
  -4  -8  -6  442.06   10.30
  -4  -8  -6  466.55    9.80
  -4  -8  -6  442.46    9.80
  -4  -8  -6  465.25    9.80
  -5  -8  -6    8.10    0.80
  -5  -8  -6    4.20    1.60
  -5  -8  -6    8.20    1.00
  -5  -8  -6    8.50    1.00
  -5  -8  -6    8.20    0.70
  -5  -8  -6    6.90    1.10
  -6  -8  -6    0.90    0.90
  -6  -8  -6    0.70    0.40
  -6  -8  -6    0.70    0.70
  -6  -8  -6    3.00    1.20
  -6  -8  -6    0.50    0.60
  -6  -8  -6    0.30    1.00
  -7  -8  -6   22.10    2.20
  -7  -8  -6   21.60    2.00
  -7  -8  -6   22.40    1.60
  -8  -8  -6   41.10    2.80
  -1  -9  -6   17.70    2.10
  -1  -9  -6   22.30    1.70
  -1  -9  -6   18.40    1.40
  -1  -9  -6   20.00    1.70
  -1  -9  -6   21.40    0.90
  -1  -9  -6   19.50    1.80
  -2  -9  -6    1.80    1.40
  -2  -9  -6    0.20    1.00
  -2  -9  -6    0.90    0.90
  -2  -9  -6   -1.00    1.30
  -2  -9  -6    1.00    1.80
  -3  -9  -6   -0.50    1.40
  -3  -9  -6    2.20    1.30
  -3  -9  -6   -1.20    1.10
  -3  -9  -6   -0.20    0.90
  -3  -9  -6   -2.30    1.60
  -3  -9  -6   -0.20    1.30
  -3  -9  -6    2.00    1.30
  -4  -9  -6   49.10    2.20
  -4  -9  -6   40.50    2.70
  -4  -9  -6   42.30    3.90
  -4  -9  -6   45.50    3.60
  -4  -9  -6   50.19    2.50
  -5  -9  -6   17.10    1.70
  -5  -9  -6   17.90    1.40
  -5  -9  -6   16.10    1.60
  -5  -9  -6   13.40    1.30
  -5  -9  -6   16.30    1.50
  -5  -9  -6   16.00    1.50
  -6  -9  -6    0.70    1.60
  -6  -9  -6   -0.10    1.10
  -6  -9  -6   -0.10    1.30
  -6  -9  -6   -0.50    0.60
  -7  -9  -6   51.09    2.80
  -7  -9  -6   46.80    3.40
   4   9  -7    6.80    1.50
   4   9  -7    7.30    1.30
   4   9  -7   10.00    2.00
  -4  -9   7    7.20    1.40
   3   9  -7    3.40    1.10
   3   9  -7    2.70    1.10
   3   9  -7    2.10    1.60
  -3  -9   7    3.50    1.40
  -3  -9   7    2.60    1.10
   2   9  -7    2.00    0.90
   2   9  -7    1.20    1.00
  -2  -9   7   -0.20    1.00
  -2  -9   7    0.20    1.30
   1   9  -7    6.80    1.10
   1   9  -7    6.10    1.00
  -1  -9   7    4.40    1.50
  -1  -9   7    6.10    1.10
   5   8  -7   -0.40    1.10
   5   8  -7    0.60    1.80
   5   8  -7   -0.10    1.40
  -5  -8   7   -0.60    2.10
  -5  -8   7   -0.10    1.10
   4   8  -7    6.10    1.10
   4   8  -7    5.90    1.60
   4   8  -7    4.00    1.20
  -4  -8   7    2.90    1.00
  -4  -8   7    3.60    1.30
   3   8  -7   26.90    1.90
   3   8  -7   25.50    1.80
   3   8  -7   30.90    2.00
  -3  -8   7   30.10    1.90
  -3  -8   7   27.60    2.10
  -3  -8   7   26.40    1.70
  -3  -8   7   26.50    2.50
   2   8  -7    6.20    1.30
   2   8  -7    4.00    0.90
   2   8  -7    5.10    1.10
  -2  -8   7    4.10    0.90
  -2  -8   7    3.80    1.10
  -2  -8   7    4.00    1.20
  -2  -8   7    3.00    0.90
   1   8  -7   10.70    1.20
   1   8  -7    9.00    1.00
   1   8  -7   12.20    1.30
  -1  -8   7   10.40    0.70
  -1  -8   7   11.10    1.30
  -1  -8   7    8.70    1.30
  -1  -8   7   10.70    1.00
  -1  -8   7   11.30    1.00
   0   8  -7    8.70    0.90
   0   8  -7    9.00    1.30
   0  -8   7    8.10    1.00
   0  -8   7   10.30    0.80
   0  -8   7   10.40    1.90
   0  -8   7    6.20    1.20
   0  -8   7    9.20    0.70
  -1   8  -7    0.00    0.80
  -1   8  -7    1.80    1.30
   1  -8   7    2.00    1.30
   1  -8   7   -1.00    0.80
   1  -8   7    1.00    0.90
  -2   8  -7    7.10    1.30
   2  -8   7    5.70    1.20
   2  -8   7    7.10    1.70
   2  -8   7    6.60    1.10
   6   7  -7    0.10    1.60
   6   7  -7    2.50    1.70
  -6  -7   7    0.30    1.00
  -6  -7   7    0.60    1.30
   5   7  -7    1.40    1.00
   5   7  -7    0.00    1.40
   5   7  -7   -0.20    1.20
  -5  -7   7    0.30    0.90
  -5  -7   7   -0.10    1.10
  -5  -7   7   -1.60    1.40
   4   7  -7   10.30    1.20
   4   7  -7    6.00    1.30
   4   7  -7    8.90    1.50
   4   7  -7   10.00    1.10
  -4  -7   7    8.10    0.90
  -4  -7   7    8.90    1.20
  -4  -7   7    7.80    1.20
  -4  -7   7    9.20    1.40
   3   7  -7    1.50    0.90
   3   7  -7    0.60    0.80
   3   7  -7    0.40    1.30
   3   7  -7    0.80    0.70
   3   7  -7    1.50    1.10
  -3  -7   7    0.60    0.90
  -3  -7   7    2.50    1.20
  -3  -7   7    0.10    0.90
  -3  -7   7    0.40    0.80
  -3  -7   7    1.10    0.90
  -3  -7   7    1.00    0.70
   2   7  -7   11.40    1.00
   2   7  -7   13.60    1.10
   2   7  -7   12.30    1.00
   2   7  -7   11.70    1.20
  -2  -7   7   11.70    1.10
  -2  -7   7   14.60    1.40
  -2  -7   7   15.00    1.40
  -2  -7   7   11.90    1.30
  -2  -7   7   11.10    1.20
  -2  -7   7   11.20    0.90
   1   7  -7   10.00    1.10
   1   7  -7    8.80    0.90
   1   7  -7    8.70    1.00
   1   7  -7   10.70    1.00
  -1  -7   7    9.50    1.00
  -1  -7   7    9.40    0.80
  -1  -7   7    6.00    1.20
  -1  -7   7    8.30    0.70
  -1  -7   7    8.90    0.50
  -1  -7   7    6.80    1.10
  -1  -7   7    7.40    0.90
   0   7  -7   15.00    1.40
   0   7  -7   13.80    1.30
   0   7  -7   13.90    1.20
   0  -7   7   11.80    1.30
   0  -7   7   13.90    1.30
   0  -7   7   12.90    1.40
   0  -7   7   14.80    0.90
   0  -7   7   15.90    1.20
   0  -7   7   14.20    1.50
   0  -7   7   14.50    1.00
  -1   7  -7   13.30    1.30
  -1   7  -7   11.10    1.00
   1  -7   7   11.50    0.90
   1  -7   7   10.20    0.80
   1  -7   7   12.70    1.20
   1  -7   7   11.40    1.00
   1  -7   7   11.10    1.20
  -2   7  -7   -0.50    1.30
  -2   7  -7    0.90    0.80
  -2   7  -7   -0.70    1.10
  -2   7  -7   -0.70    1.20
   2  -7   7   -0.60    1.00
   2  -7   7    0.10    0.80
   2  -7   7   -0.30    0.80
   2  -7   7    1.20    1.10
  -3   7  -7   11.10    1.70
  -3   7  -7    9.80    1.20
  -3   7  -7    8.50    1.80
   3  -7   7   10.10    1.40
   3  -7   7    9.40    1.30
   3  -7   7   10.90    1.20
   7   6  -7    1.00    2.10
   7   6  -7    2.20    1.80
  -7  -6   7    1.60    1.40
  -7  -6   7    1.20    1.20
   6   6  -7   33.00    2.70
   6   6  -7   33.60    2.90
   6   6  -7   26.20    2.20
  -6  -6   7   31.40    2.10
  -6  -6   7   32.60    1.90
  -6  -6   7   24.20    2.00
   5   6  -7    7.30    1.20
   5   6  -7    9.90    1.80
   5   6  -7    8.20    1.30
   5   6  -7    8.50    1.20
  -5  -6   7   10.60    1.00
  -5  -6   7    9.90    1.40
  -5  -6   7    7.10    1.70
  -5  -6   7    9.90    1.20
  -5  -6   7   10.90    1.50
  -5  -6   7    9.60    1.10
   4   6  -7    1.00    0.70
   4   6  -7   -0.10    1.00
   4   6  -7    0.50    0.90
   4   6  -7    1.20    0.80
   4   6  -7    0.00    1.00
  -4  -6   7    1.20    0.60
  -4  -6   7    0.80    0.90
  -4  -6   7    1.40    1.00
  -4  -6   7    0.00    0.90
  -4  -6   7    1.00    0.90
  -4  -6   7    0.40    0.80
   3   6  -7   73.19    2.70
   3   6  -7   71.19    2.40
   3   6  -7   69.79    2.20
   3   6  -7   74.49    2.30
   3   6  -7   73.19    2.60
  -3  -6   7   73.89    2.40
  -3  -6   7   72.89    2.40
  -3  -6   7   75.79    2.20
  -3  -6   7   74.99    2.50
  -3  -6   7   73.49    2.30
  -3  -6   7   71.59    2.30
   2   6  -7  266.47    6.40
   2   6  -7  267.47    6.10
   2   6  -7  257.67    6.10
   2   6  -7  274.27    6.20
   2   6  -7  262.07    6.00
  -2  -6   7  268.47    6.20
  -2  -6   7  268.57    6.10
  -2  -6   7  267.67    6.20
  -2  -6   7  267.37    6.20
  -2  -6   7  270.17    6.00
  -2  -6   7  265.57    5.90
   1   6  -7    3.80    0.60
   1   6  -7    5.30    0.80
   1   6  -7    6.30    0.90
   1   6  -7    5.70    0.80
  -1  -6   7    6.30    0.40
  -1  -6   7    7.40    0.70
  -1  -6   7    6.00    0.80
  -1  -6   7    7.30    0.80
  -1  -6   7    6.20    0.90
  -1  -6   7    6.20    1.00
  -1  -6   7    7.60    0.80
   0   6  -7   24.60    1.30
   0   6  -7   22.20    1.10
   0   6  -7   23.30    1.60
   0   6  -7   24.80    1.70
   0  -6   7   23.10    1.40
   0  -6   7   23.10    1.70
   0  -6   7   22.20    1.20
   0  -6   7   22.70    0.90
   0  -6   7   19.10    1.60
   0  -6   7   22.60    1.00
   0  -6   7   24.20    1.40
  -1   6  -7    6.80    1.00
  -1   6  -7    6.50    1.10
  -1   6  -7    7.00    1.10
  -1   6  -7    6.80    0.70
  -1   6  -7    6.30    0.80
  -1   6  -7    5.60    0.70
   1  -6   7    7.20    0.90
   1  -6   7    8.00    0.90
   1  -6   7    5.20    0.90
   1  -6   7    5.90    0.50
   1  -6   7    6.70    0.60
   1  -6   7    5.40    0.70
   1  -6   7    5.40    1.10
  -2   6  -7   17.70    1.60
  -2   6  -7   16.50    1.30
  -2   6  -7   18.10    1.80
  -2   6  -7   18.60    1.90
   2  -6   7   17.10    1.60
   2  -6   7   18.60    1.90
   2  -6   7   18.30    1.70
   2  -6   7   18.80    1.50
   2  -6   7   16.00    1.40
   2  -6   7   16.90    1.20
  -3   6  -7    0.30    1.10
  -3   6  -7   -0.10    1.10
  -3   6  -7   -0.10    0.80
  -3   6  -7   -0.20    1.30
   3  -6   7    0.40    0.90
   3  -6   7    0.00    0.80
   3  -6   7    1.20    1.00
   3  -6   7    0.70    1.00
  -4   6  -7    8.00    1.50
  -4   6  -7    8.70    1.30
  -4   6  -7    2.00    1.90
   4  -6   7   11.20    1.30
   4  -6   7    8.90    1.30
   4  -6   7    9.50    1.40
   5  -6   7    7.20    1.70
   5  -6   7    9.00    1.70
   5  -6   7    6.00    1.40
   7   5  -7   29.20    2.30
   7   5  -7   29.30    2.50
  -7  -5   7   31.50    2.40
  -7  -5   7   28.10    2.10
   6   5  -7   26.90    2.00
   6   5  -7   26.50    2.10
   6   5  -7   29.40    2.50
   6   5  -7   28.70    2.60
  -6  -5   7   28.60    1.70
  -6  -5   7   31.10    2.80
  -6  -5   7   26.40    1.90
  -6  -5   7   25.30    2.30
   5   5  -7   12.50    1.30
   5   5  -7   10.80    1.30
   5   5  -7   16.00    1.60
   5   5  -7   13.90    1.50
   5   5  -7   13.10    1.20
  -5  -5   7   13.30    1.20
  -5  -5   7   15.40    1.20
  -5  -5   7   16.10    1.70
  -5  -5   7   13.90    1.50
  -5  -5   7   15.40    1.40
  -5  -5   7   12.90    1.20
   4   5  -7   64.59    2.50
   4   5  -7   68.29    2.50
   4   5  -7   64.59    2.30
   4   5  -7   66.49    2.10
  -4  -5   7   64.79    2.20
  -4  -5   7   65.49    2.20
  -4  -5   7   65.89    2.20
  -4  -5   7   69.79    2.60
  -4  -5   7   65.19    2.40
  -4  -5   7   69.09    2.40
   3   5  -7    4.50    0.80
   3   5  -7    3.00    0.80
   3   5  -7    4.40    0.70
   3   5  -7    4.50    0.70
   3   5  -7    4.20    0.80
  -3  -5   7    5.60    0.80
  -3  -5   7    2.90    0.60
  -3  -5   7    4.20    0.70
  -3  -5   7    4.20    0.60
  -3  -5   7    4.50    0.80
   2   5  -7    5.70    0.70
   2   5  -7    6.60    0.90
   2   5  -7    6.10    0.70
   2   5  -7    5.70    0.80
   2   5  -7    4.30    0.70
  -2  -5   7    6.50    0.70
  -2  -5   7    5.50    0.70
  -2  -5   7    5.40    0.70
  -2  -5   7    6.30    0.70
  -2  -5   7    5.60    0.70
  -2  -5   7    5.00    0.60
   1   5  -7   56.39    1.80
   1   5  -7   58.09    1.90
   1   5  -7   53.29    1.80
   1   5  -7   53.89    1.80
   1   5  -7   52.79    2.00
  -1  -5   7   56.79    1.90
  -1  -5   7   58.29    1.80
  -1  -5   7   55.69    1.80
  -1  -5   7   57.49    1.90
  -1  -5   7   57.39    1.30
  -1  -5   7   57.09    1.70
   0   5  -7  200.48    4.60
   0   5  -7  199.88    4.80
   0   5  -7  199.58    4.90
   0   5  -7  197.28    4.70
   0   5  -7  201.58    4.40
   0  -5   7  201.78    4.40
   0  -5   7  204.38    4.80
   0  -5   7  206.68    4.90
   0  -5   7  202.58    4.40
   0  -5   7  203.28    4.70
   0  -5   7  207.98    4.80
   0  -5   7  201.58    4.70
  -1   5  -7  193.18    4.60
  -1   5  -7  187.48    4.50
  -1   5  -7  187.58    4.60
  -1   5  -7  192.78    4.30
  -1   5  -7  188.58    4.70
  -1   5  -7  189.38    4.30
   1  -5   7  189.08    4.20
   1  -5   7  186.98    4.40
   1  -5   7  189.48    4.60
   1  -5   7  193.38    4.80
   1  -5   7  187.28    4.50
   1  -5   7  185.58    4.10
   1  -5   7  194.38    4.50
  -2   5  -7    4.40    0.90
  -2   5  -7    4.50    0.90
  -2   5  -7    4.80    0.50
  -2   5  -7    5.40    1.10
  -2   5  -7    5.20    0.90
  -2   5  -7    5.00    0.80
   2  -5   7    6.90    1.20
   2  -5   7    4.90    0.70
   2  -5   7    4.10    0.70
   2  -5   7    5.40    0.50
   2  -5   7    5.00    0.90
   2  -5   7    4.50    0.60
  -3   5  -7    3.40    1.00
  -3   5  -7    1.60    1.00
  -3   5  -7    2.90    0.90
  -3   5  -7    3.30    0.80
   3  -5   7    2.60    0.60
   3  -5   7    3.10    0.80
   3  -5   7    2.50    1.00
   3  -5   7    2.10    0.90
   3  -5   7    2.60    0.80
   3  -5   7    4.10    1.30
  -4   5  -7   28.80    2.30
  -4   5  -7   29.30    2.00
  -4   5  -7   29.10    1.90
  -4   5  -7   30.90    2.40
   4  -5   7   28.50    3.10
   4  -5   7   27.30    2.00
   4  -5   7   27.80    1.90
   4  -5   7   26.90    2.00
   4  -5   7   30.10    1.70
   4  -5   7   27.50    1.90
  -5   5  -7    8.40    1.50
  -5   5  -7    5.70    1.20
   5  -5   7    3.90    1.20
   5  -5   7    5.90    1.20
   5  -5   7    5.80    1.50
   5  -5   7    5.30    1.30
   6  -5   7    4.10    1.60
   7   4  -7    4.00    1.70
   7   4  -7    3.40    1.70
   7   4  -7    4.90    0.50
  -7  -4   7    4.70    1.20
  -7  -4   7    3.60    1.90
  -7  -4   7    4.40    1.80
  -7  -4   7    2.40    1.20
   6   4  -7   16.50    1.60
   6   4  -7   18.70    1.80
   6   4  -7   13.80    1.20
   6   4  -7   11.90    1.20
   6   4  -7   18.20    2.00
  -6  -4   7   16.70    1.50
  -6  -4   7   18.30    1.80
  -6  -4   7   20.10    1.70
  -6  -4   7   18.40    1.60
   5   4  -7   35.60    1.70
   5   4  -7   37.60    2.10
   5   4  -7   36.90    1.90
   5   4  -7   35.50    1.80
  -5  -4   7   36.90    1.60
  -5  -4   7   34.20    2.30
  -5  -4   7   37.60    1.80
  -5  -4   7   38.50    1.60
   4   4  -7   27.30    1.80
   4   4  -7   26.80    1.70
   4   4  -7   27.70    1.50
   4   4  -7   28.80    1.40
   4   4  -7   28.60    1.40
  -4  -4   7   30.60    1.30
  -4  -4   7   26.30    1.80
  -4  -4   7   27.70    1.50
  -4  -4   7   29.30    1.60
  -4  -4   7   28.30    1.30
  -4  -4   7   29.50    1.50
   3   4  -7   12.80    1.10
   3   4  -7   13.30    1.10
   3   4  -7   12.00    1.10
   3   4  -7   12.20    1.00
   3   4  -7   12.80    1.10
  -3  -4   7   13.30    1.10
  -3  -4   7   13.10    1.20
  -3  -4   7   13.30    1.10
  -3  -4   7   12.60    0.90
  -3  -4   7   13.80    1.30
   2   4  -7  135.69    3.30
   2   4  -7  130.29    3.30
   2   4  -7  129.79    3.30
   2   4  -7  133.19    3.20
   2   4  -7  129.99    3.40
  -2  -4   7  135.59    3.20
  -2  -4   7  127.99    3.40
  -2  -4   7  134.09    3.20
  -2  -4   7  133.19    3.30
  -2  -4   7  131.79    3.30
  -2  -4   7  134.69    3.30
   1   4  -7   80.99    2.30
   1   4  -7   82.89    2.20
   1   4  -7   81.99    1.80
   1   4  -7   82.29    2.20
   1   4  -7   81.59    2.30
   1   4  -7   81.59    2.30
  -1  -4   7   79.49    1.80
  -1  -4   7   83.79    2.10
  -1  -4   7   82.89    2.20
  -1  -4   7   83.29    2.20
  -1  -4   7   81.29    2.30
  -1  -4   7   79.39    2.30
  -1  -4   7   83.39    2.30
   0   4  -7   15.40    0.70
   0   4  -7   13.70    1.00
   0   4  -7   14.70    1.20
   0   4  -7   13.80    1.10
   0   4  -7   15.30    0.90
   0   4  -7   14.60    1.00
   0  -4   7   14.30    1.00
   0  -4   7   14.80    0.70
   0  -4   7   13.70    0.90
   0  -4   7   14.60    1.00
   0  -4   7   15.00    1.10
   0  -4   7   14.40    0.60
   0  -4   7   13.90    0.90
  -1   4  -7    9.50    0.80
  -1   4  -7    8.50    0.90
  -1   4  -7    7.40    0.60
  -1   4  -7    9.40    0.80
  -1   4  -7    7.10    0.80
   1  -4   7    8.20    0.60
   1  -4   7    8.70    0.70
   1  -4   7   11.50    1.00
   1  -4   7   10.90    1.00
   1  -4   7    8.70    1.00
   1  -4   7    8.70    0.60
   1  -4   7    7.60    0.80
  -2   4  -7   -0.10    0.50
  -2   4  -7   -0.10    0.60
  -2   4  -7    0.70    0.60
  -2   4  -7    0.40    0.50
  -2   4  -7    0.10    0.30
  -2   4  -7    0.70    0.80
   2  -4   7    0.20    0.40
   2  -4   7   -0.70    0.60
   2  -4   7   -0.50    0.70
   2  -4   7   -0.10    0.30
   2  -4   7    0.10    0.60
   2  -4   7   -0.10    0.50
   2  -4   7   -0.20    0.50
  -3   4  -7    1.90    0.80
  -3   4  -7    1.40    0.70
  -3   4  -7    0.60    1.00
  -3   4  -7    1.40    0.80
  -3   4  -7    0.60    0.80
   3  -4   7    1.50    0.60
   3  -4   7    1.10    0.70
   3  -4   7    0.60    0.70
   3  -4   7    1.30    0.60
   3  -4   7    0.60    0.50
   3  -4   7    1.40    1.00
  -4   4  -7   15.30    1.20
  -4   4  -7   16.60    1.50
  -4   4  -7   16.70    1.50
  -4   4  -7   18.70    2.00
   4  -4   7   15.00    1.60
   4  -4   7   17.00    1.50
   4  -4   7   14.00    1.50
   4  -4   7   15.20    1.70
   4  -4   7   15.50    1.60
  -5   4  -7    0.30    1.00
  -5   4  -7   -0.40    1.30
  -5   4  -7    1.40    1.40
  -5   4  -7    1.10    1.00
   5  -4   7    0.70    1.10
   5  -4   7   -0.10    1.50
   5  -4   7    2.10    0.90
   5  -4   7    1.10    0.90
   5  -4   7    2.90    1.40
   5  -4   7    1.10    0.90
  -6   4  -7   21.30    1.90
  -6   4  -7   18.80    1.70
   6  -4   7   17.70    2.10
   6  -4   7   17.90    2.00
   6  -4   7   20.40    1.60
   6  -4   7   17.60    1.40
   6  -4   7   19.20    1.80
   7   3  -7   15.30    1.70
   7   3  -7   12.30    1.90
   7   3  -7   21.20    2.00
   7   3  -7   19.00    1.30
  -7  -3   7   17.70    1.80
  -7  -3   7   19.80    2.20
  -7  -3   7   18.20    1.50
  -7  -3   7   19.00    2.30
   6   3  -7    5.60    1.10
   6   3  -7    9.00    1.00
   6   3  -7    9.40    0.70
   6   3  -7   10.60    1.30
   6   3  -7   10.50    1.40
   6   3  -7   11.10    1.70
  -6  -3   7   11.10    1.40
  -6  -3   7    9.70    1.10
  -6  -3   7    5.50    1.40
  -6  -3   7   11.50    1.10
  -6  -3   7   10.20    1.00
   5   3  -7    1.10    1.00
   5   3  -7    0.50    1.00
   5   3  -7    2.10    0.40
   5   3  -7    1.70    0.80
   5   3  -7    2.40    0.90
   5   3  -7    1.40    0.70
  -5  -3   7    1.40    1.10
  -5  -3   7    1.60    0.90
  -5  -3   7    0.70    0.90
  -5  -3   7    0.90    0.80
  -5  -3   7    1.70    0.60
   4   3  -7    5.50    0.50
   4   3  -7    4.40    0.60
   4   3  -7    6.00    0.80
   4   3  -7    5.10    0.60
   4   3  -7    4.10    0.80
   4   3  -7    6.40    0.40
   4   3  -7    4.60    0.80
  -4  -3   7    5.10    0.80
  -4  -3   7    5.60    0.70
  -4  -3   7    7.20    1.10
  -4  -3   7    5.60    0.60
  -4  -3   7    5.20    0.60
   3   3  -7   13.10    1.10
   3   3  -7   12.10    1.20
   3   3  -7   12.90    0.90
   3   3  -7   13.80    1.00
   3   3  -7   12.80    1.10
  -3  -3   7   12.10    0.80
  -3  -3   7   12.90    0.90
  -3  -3   7   12.60    1.00
  -3  -3   7   13.20    1.10
  -3  -3   7   12.40    1.20
  -3  -3   7   12.40    0.90
   2   3  -7    0.20    0.40
   2   3  -7    0.30    0.40
   2   3  -7    0.30    0.40
   2   3  -7   -0.10    0.50
   2   3  -7   -0.50    0.40
  -2  -3   7    0.00    0.40
  -2  -3   7    0.30    0.40
  -2  -3   7    0.10    0.40
  -2  -3   7    0.00    0.40
  -2  -3   7    0.20    0.40
  -2  -3   7   -0.20    0.40
   1   3  -7   73.79    1.70
   1   3  -7   69.79    2.10
   1   3  -7   76.59    2.10
   1   3  -7   71.89    2.00
   1   3  -7   75.59    2.00
  -1  -3   7   74.99    2.00
  -1  -3   7   75.49    2.10
  -1  -3   7   73.59    2.00
  -1  -3   7   73.79    2.10
  -1  -3   7   75.69    1.90
  -1  -3   7   73.39    1.90
   0   3  -7   13.10    0.80
   0   3  -7   12.10    0.80
   0   3  -7   14.00    0.90
   0   3  -7   10.90    0.90
   0   3  -7   11.90    0.80
   0   3  -7   13.10    0.60
   0   3  -7   13.00    0.90
   0  -3   7   12.40    0.90
   0  -3   7   12.70    0.50
   0  -3   7   12.60    0.70
   0  -3   7   12.40    0.80
   0  -3   7   13.00    0.90
   0  -3   7   13.30    1.00
   0  -3   7   14.10    0.80
  -1   3  -7  480.25   10.00
  -1   3  -7  474.85   10.30
  -1   3  -7  478.65   10.20
  -1   3  -7  475.85   10.10
  -1   3  -7  469.75    9.90
  -1   3  -7  470.95   10.20
  -1   3  -7  483.55   10.20
   1  -3   7  470.35   10.20
   1  -3   7  449.66    9.90
   1  -3   7  468.65   10.00
   1  -3   7  468.25    9.80
   1  -3   7  469.45   10.30
   1  -3   7  466.25   10.10
   1  -3   7  479.15   10.10
  -2   3  -7   53.79    1.70
  -2   3  -7   47.10    2.20
  -2   3  -7   54.19    1.60
  -2   3  -7   54.09    1.90
  -2   3  -7   53.49    1.40
  -2   3  -7   55.09    1.70
   2  -3   7   52.79    1.60
   2  -3   7   54.09    1.70
   2  -3   7   54.69    1.50
   2  -3   7   53.79    1.40
   2  -3   7   55.39    2.00
   2  -3   7   54.99    1.70
   2  -3   7   52.79    1.80
  -3   3  -7   43.90    1.10
  -3   3  -7   45.70    1.70
  -3   3  -7   42.60    2.00
  -3   3  -7   44.80    1.60
  -3   3  -7   47.00    2.00
  -3   3  -7   45.00    1.70
   3  -3   7   43.80    1.70
   3  -3   7   45.20    2.10
   3  -3   7   43.60    1.60
   3  -3   7   45.20    1.40
   3  -3   7   42.40    1.50
   3  -3   7   43.30    1.60
  -4   3  -7    0.90    0.90
  -4   3  -7    0.50    0.70
  -4   3  -7   -0.30    0.80
  -4   3  -7   -0.30    0.70
  -4   3  -7    0.60    0.80
   4  -3   7   -0.60    0.60
   4  -3   7    0.70    0.50
   4  -3   7   -1.30    1.00
   4  -3   7   -0.60    0.60
   4  -3   7    0.30    0.60
   4  -3   7    0.60    0.70
  -5   3  -7   24.00    1.60
  -5   3  -7   21.10    2.00
  -5   3  -7   21.20    2.30
  -5   3  -7   18.90    1.90
   5  -3   7   25.30    1.50
   5  -3   7   24.20    1.90
   5  -3   7   23.00    1.70
   5  -3   7   21.90    1.70
   5  -3   7   24.20    2.60
   5  -3   7   25.40    1.90
   5  -3   7   23.80    1.50
  -6   3  -7    2.30    1.10
  -6   3  -7    0.20    1.20
  -6   3  -7    2.60    1.80
   6  -3   7    1.10    1.30
   6  -3   7    1.80    0.90
   6  -3   7    1.20    1.10
   6  -3   7    0.80    1.20
   6  -3   7    0.00    1.20
   6  -3   7    0.30    2.00
  -7   3  -7   16.90    1.80
  -7   3  -7   14.00    2.00
   7  -3   7   16.40    2.10
   7  -3   7   17.30    1.90
   7  -3   7   22.80    3.40
   7  -3   7   15.60    1.40
   7  -3   7   13.50    1.50
   7  -3   7   12.70    1.70
   7   2  -7   62.39    3.90
   7   2  -7   58.19    3.50
   7   2  -7   53.49    3.00
   7   2  -7   61.49    2.20
   7   2  -7   58.79    3.10
  -7  -2   7   54.69    3.70
  -7  -2   7   52.29    3.50
  -7  -2   7   57.49    2.80
  -7  -2   7   55.19    2.20
   6   2  -7    6.80    0.90
   6   2  -7    9.30    0.80
   6   2  -7    5.30    1.10
   6   2  -7    7.10    1.40
   6   2  -7    8.60    1.30
   6   2  -7    7.50    1.20
  -6  -2   7    8.00    1.60
  -6  -2   7    9.00    1.40
  -6  -2   7    8.80    1.10
  -6  -2   7    6.70    0.80
  -6  -2   7    5.60    1.00
   5   2  -7   10.00    1.10
   5   2  -7   11.90    1.20
   5   2  -7    9.30    0.70
   5   2  -7   11.40    1.10
   5   2  -7   10.30    1.10
   5   2  -7   11.80    1.40
  -5  -2   7    7.80    1.20
  -5  -2   7   10.50    1.00
  -5  -2   7   11.10    1.00
  -5  -2   7   11.50    1.20
   4   2  -7   56.59    1.90
   4   2  -7   59.59    1.80
   4   2  -7   60.79    2.10
   4   2  -7   59.79    2.00
   4   2  -7   60.19    1.60
   4   2  -7   62.19    2.40
  -4  -2   7   62.29    1.70
  -4  -2   7   60.59    2.40
  -4  -2   7   61.59    1.90
  -4  -2   7   60.79    1.90
  -4  -2   7   62.79    2.20
   3   2  -7   79.69    2.20
   3   2  -7   78.99    2.50
   3   2  -7   78.59    2.20
   3   2  -7   79.99    2.10
   3   2  -7   79.79    1.90
   3   2  -7   80.99    1.80
   3   2  -7   82.99    2.40
  -3  -2   7   80.59    2.50
  -3  -2   7   79.09    2.00
  -3  -2   7   81.29    2.10
  -3  -2   7   80.59    2.10
  -3  -2   7   75.09    2.30
  -3  -2   7   80.09    2.10
   2   2  -7   29.80    1.20
   2   2  -7   27.20    1.10
   2   2  -7   27.40    0.70
   2   2  -7   26.30    0.80
   2   2  -7   27.70    1.10
   2   2  -7   25.40    1.30
  -2  -2   7   26.60    1.00
  -2  -2   7   28.40    1.30
  -2  -2   7   25.20    1.00
  -2  -2   7   26.80    1.20
   1   2  -7    0.10    0.40
   1   2  -7    0.20    0.40
   1   2  -7    0.20    0.20
   1   2  -7    0.10    0.30
   1   2  -7    0.10    0.40
   1   2  -7    0.50    0.40
  -1  -2   7    0.10    0.30
  -1  -2   7    0.10    0.40
  -1  -2   7   -0.20    0.30
  -1  -2   7    0.50    0.40
  -1  -2   7    0.10    0.30
  -1  -2   7   -0.10    0.30
   0   2  -7   31.70    1.20
   0   2  -7   28.60    1.10
   0   2  -7   32.20    1.10
   0   2  -7   31.20    1.20
   0   2  -7   28.30    1.00
   0   2  -7   28.90    0.90
   0   2  -7   30.10    1.00
   0  -2   7   30.00    1.20
   0  -2   7   30.40    1.20
   0  -2   7   30.60    1.00
   0  -2   7   30.40    1.00
   0  -2   7   30.00    1.10
   0  -2   7   30.00    0.80
   0  -2   7   30.80    1.00
  -1   2  -7  164.08    3.80
  -1   2  -7  163.48    3.90
  -1   2  -7  163.58    3.60
  -1   2  -7  170.38    4.00
  -1   2  -7  164.08    3.80
  -1   2  -7  165.28    3.70
  -1   2  -7  169.28    3.90
   1  -2   7  170.88    3.60
   1  -2   7  168.38    3.70
   1  -2   7  165.68    4.00
   1  -2   7  160.58    3.80
   1  -2   7  163.38    3.60
   1  -2   7  158.08    3.90
   1  -2   7  164.68    3.80
  -2   2  -7    3.40    0.50
  -2   2  -7    3.70    0.50
  -2   2  -7    2.80    0.40
  -2   2  -7    3.40    0.60
  -2   2  -7    2.70    0.30
  -2   2  -7    3.60    0.60
  -2   2  -7    3.50    0.60
   2  -2   7    4.30    0.40
   2  -2   7    3.00    0.50
   2  -2   7    3.00    0.60
   2  -2   7    2.80    0.40
   2  -2   7    3.40    0.40
   2  -2   7    3.30    0.40
   2  -2   7    3.00    0.40
  -3   2  -7    2.60    0.30
  -3   2  -7    2.40    0.60
  -3   2  -7    2.10    0.70
  -3   2  -7    3.00    0.70
  -3   2  -7    1.80    0.50
  -3   2  -7    1.80    0.50
   3  -2   7    2.70    0.60
   3  -2   7    2.90    0.40
   3  -2   7    2.70    0.80
   3  -2   7    2.20    0.50
   3  -2   7    2.00    0.40
   3  -2   7    3.20    0.40
  -4   2  -7  120.79    2.60
  -4   2  -7  116.19    3.50
  -4   2  -7  116.99    3.10
  -4   2  -7  118.89    3.50
  -4   2  -7  119.39    3.30
  -4   2  -7  122.89    3.10
   4  -2   7  118.69    3.00
   4  -2   7  122.49    2.90
   4  -2   7  121.69    3.20
   4  -2   7  124.79    3.60
   4  -2   7  121.19    3.10
   4  -2   7  117.39    3.30
  -5   2  -7    5.00    0.30
  -5   2  -7    4.70    1.00
  -5   2  -7    4.40    1.00
  -5   2  -7    5.60    1.20
  -5   2  -7    5.20    0.90
  -5   2  -7    4.60    0.50
   5  -2   7    7.90    1.10
   5  -2   7    4.90    0.90
   5  -2   7    6.60    0.90
   5  -2   7    2.80    1.20
   5  -2   7    5.70    0.80
   5  -2   7    4.90    0.60
   5  -2   7    5.70    0.90
  -6   2  -7    2.70    0.90
  -6   2  -7    3.10    1.20
  -6   2  -7    2.30    1.30
  -6   2  -7    3.10    1.00
  -6   2  -7    3.00    0.30
  -6   2  -7    3.20    0.40
   6  -2   7    3.50    0.80
   6  -2   7    2.10    0.80
   6  -2   7    3.00    1.10
   6  -2   7    3.80    1.00
   6  -2   7    4.80    1.10
   6  -2   7    2.90    1.00
   6  -2   7    2.30    1.40
  -7   2  -7   16.30    1.50
  -7   2  -7   16.50    2.40
  -7   2  -7   15.90    1.80
   7  -2   7   16.80    1.50
   7  -2   7   19.50    1.90
   7  -2   7   19.30    1.20
   7  -2   7   14.40    1.60
   7  -2   7   16.80    2.70
   7  -2   7   14.10    1.20
  -8   2  -7   10.40    1.70
  -8   2  -7   10.10    2.20
   8  -2   7   14.80    2.20
   8  -2   7    9.40    1.60
   8  -2   7   12.70    2.50
   8  -2   7   12.90    1.30
   8  -2   7    8.60    3.10
   7   1  -7  107.49    5.00
   7   1  -7  106.79    4.40
   7   1  -7  111.59    3.80
   7   1  -7  115.79    3.30
   7   1  -7   98.19    4.00
  -7  -1   7  103.29    4.60
  -7  -1   7  101.99    3.80
  -7  -1   7  106.79    4.90
  -7  -1   7   98.49    3.30
   6   1  -7   -1.00    1.00
   6   1  -7   -0.20    1.10
   6   1  -7    0.60    1.30
   6   1  -7    0.00    0.80
   6   1  -7    0.70    0.90
   6   1  -7    0.20    0.80
  -6  -1   7   -1.00    1.30
  -6  -1   7    0.40    1.00
  -6  -1   7    0.80    0.70
  -6  -1   7   -0.10    0.90
   5   1  -7    1.30    1.10
   5   1  -7    2.10    0.70
   5   1  -7    0.90    0.90
   5   1  -7    1.10    0.70
   5   1  -7    0.60    0.80
   5   1  -7    0.80    0.70
  -5  -1   7    1.20    0.50
  -5  -1   7    1.00    1.00
  -5  -1   7    2.50    1.00
  -5  -1   7    1.20    0.70
  -5  -1   7    0.90    0.80
   4   1  -7  177.78    4.10
   4   1  -7  181.08    4.50
   4   1  -7  178.58    4.10
   4   1  -7  176.08    4.70
   4   1  -7  171.58    4.30
   4   1  -7  174.88    4.30
  -4  -1   7  174.08    4.40
  -4  -1   7  177.98    4.70
  -4  -1   7  174.88    4.20
  -4  -1   7  179.58    4.00
  -4  -1   7  181.18    4.10
   3   1  -7   61.19    2.10
   3   1  -7   59.99    1.70
   3   1  -7   58.09    1.80
   3   1  -7   64.49    2.00
   3   1  -7   60.99    1.70
  -3  -1   7   61.29    1.60
  -3  -1   7   61.59    2.20
  -3  -1   7   58.49    1.70
  -3  -1   7   60.99    1.80
   2   1  -7   28.40    1.10
   2   1  -7   30.00    0.90
   2   1  -7   28.20    1.30
   2   1  -7   28.50    1.00
   2   1  -7   27.90    1.10
   2   1  -7   30.20    1.20
   2   1  -7   31.00    1.10
  -2  -1   7   28.90    0.90
  -2  -1   7   28.70    1.30
  -2  -1   7   29.40    1.10
  -2  -1   7   29.20    1.20
  -2  -1   7   29.50    1.10
  -2  -1   7   29.40    0.90
   1   1  -7   56.59    1.70
   1   1  -7   56.59    1.60
   1   1  -7   55.59    1.40
   1   1  -7   55.99    1.70
   1   1  -7   56.29    1.50
   1   1  -7   53.09    1.50
  -1  -1   7   57.49    1.70
  -1  -1   7   55.09    1.50
  -1  -1   7   56.39    1.60
  -1  -1   7   56.19    1.50
  -1  -1   7   57.69    1.70
  -1  -1   7   55.99    1.40
   0   1  -7  216.48    4.80
   0   1  -7  220.78    4.80
   0   1  -7  219.78    4.60
   0   1  -7  216.38    4.70
   0   1  -7  211.78    4.70
   0   1  -7  216.18    4.90
   0   1  -7  219.18    4.90
   0  -1   7  214.58    4.70
   0  -1   7  218.98    4.70
   0  -1   7  220.38    4.70
   0  -1   7  218.58    4.80
   0  -1   7  219.78    4.90
   0  -1   7  215.48    4.70
   0  -1   7  217.18    4.90
  -1   1  -7   73.39    1.80
  -1   1  -7   73.39    2.00
  -1   1  -7   75.09    1.90
  -1   1  -7   72.89    2.00
  -1   1  -7   72.39    1.80
  -1   1  -7   73.79    1.80
  -1   1  -7   74.89    2.00
   1  -1   7   74.29    1.90
   1  -1   7   74.59    1.80
   1  -1   7   71.79    1.80
   1  -1   7   75.09    2.10
   1  -1   7   75.19    1.80
   1  -1   7   71.29    1.80
  -2   1  -7    1.40    0.40
  -2   1  -7    2.70    0.40
  -2   1  -7    1.60    0.40
  -2   1  -7    1.70    0.40
  -2   1  -7    1.60    0.50
  -2   1  -7    1.30    0.40
  -2   1  -7    2.20    0.30
   2  -1   7    1.70    0.30
   2  -1   7    1.40    0.40
   2  -1   7    1.80    0.40
   2  -1   7    2.00    0.30
   2  -1   7    1.60    0.30
   2  -1   7    1.30    0.40
   2  -1   7    1.80    0.30
  -3   1  -7   13.40    0.80
  -3   1  -7   15.10    0.60
  -3   1  -7   13.50    0.90
  -3   1  -7   15.40    1.20
  -3   1  -7   14.70    1.00
  -3   1  -7   16.40    1.20
   3  -1   7   13.90    0.70
   3  -1   7   14.10    0.80
   3  -1   7   14.60    1.00
   3  -1   7   14.10    1.20
   3  -1   7   13.20    0.90
   3  -1   7   14.10    0.70
  -4   1  -7   89.19    2.90
  -4   1  -7   91.79    2.60
  -4   1  -7   87.49    2.50
  -4   1  -7   91.89    2.40
  -4   1  -7   92.39    2.10
  -4   1  -7   91.89    2.80
   4  -1   7   91.19    2.40
   4  -1   7   90.09    2.60
   4  -1   7   91.49    2.20
   4  -1   7   93.79    2.90
   4  -1   7   90.29    2.30
   4  -1   7   89.69    2.50
  -5   1  -7   14.10    0.70
  -5   1  -7   15.80    1.20
  -5   1  -7   14.70    1.50
  -5   1  -7   14.60    0.90
  -5   1  -7   13.40    1.30
  -5   1  -7   15.10    1.40
  -5   1  -7   13.90    1.40
   5  -1   7   16.60    1.50
   5  -1   7   16.20    1.30
   5  -1   7   14.60    1.20
   5  -1   7   15.90    1.00
   5  -1   7   14.00    1.20
   5  -1   7   14.80    0.90
   5  -1   7   16.10    1.50
  -6   1  -7    1.20    1.30
  -6   1  -7    1.30    0.60
  -6   1  -7    1.30    0.40
  -6   1  -7    0.00    0.70
  -6   1  -7    1.40    1.00
  -6   1  -7    0.60    0.80
   6  -1   7    1.30    0.70
   6  -1   7    0.60    0.50
   6  -1   7    1.70    0.90
   6  -1   7    2.40    1.00
   6  -1   7    1.10    0.70
   6  -1   7    0.20    0.80
   6  -1   7    1.20    1.30
  -7   1  -7    4.30    1.00
  -7   1  -7    5.90    0.50
  -7   1  -7    6.10    0.70
  -7   1  -7    8.60    2.00
  -7   1  -7    2.80    1.20
   7  -1   7    6.30    1.40
   7  -1   7    6.50    1.40
   7  -1   7    6.60    0.80
   7  -1   7    6.90    2.00
   7  -1   7    4.50    0.90
   7  -1   7    5.50    0.90
  -8   1  -7    4.40    1.90
  -8   1  -7    3.70    0.60
  -8   1  -7    3.90    2.50
  -8   1  -7    4.20    1.30
   8  -1   7    4.80    1.20
   8  -1   7    5.90    1.20
   8  -1   7    4.20    0.90
   8  -1   7    5.20    1.60
   8  -1   7    7.30    1.90
   8  -1   7    1.10    2.00
   7   0  -7    8.60    2.10
   7   0  -7    9.10    1.40
   7   0  -7    7.50    1.60
   7   0  -7    3.50    2.40
  -7   0   7   10.00    2.70
  -7   0   7    9.90    1.90
  -7   0   7    9.60    1.10
   6   0  -7   27.20    2.10
   6   0  -7   25.10    2.60
   6   0  -7   27.80    2.90
   6   0  -7   24.80    2.20
   6   0  -7   26.60    2.00
  -6   0   7   27.10    2.30
  -6   0   7   23.40    2.40
  -6   0   7   27.60    1.80
  -6   0   7   25.00    1.30
  -6   0   7   26.90    2.90
   5   0  -7    3.00    0.80
   5   0  -7    3.50    1.30
   5   0  -7    3.50    0.90
   5   0  -7    2.00    0.60
   5   0  -7    2.70    1.10
   5   0  -7    2.40    1.00
  -5   0   7    4.20    1.00
  -5   0   7    3.40    1.10
  -5   0   7    3.20    0.50
  -5   0   7    4.80    0.80
  -5   0   7    3.30    1.00
   4   0  -7  250.77    6.10
   4   0  -7  248.08    5.60
   4   0  -7  250.07    5.60
   4   0  -7  242.38    6.20
   4   0  -7  252.07    5.70
  -4   0   7  250.17    5.90
  -4   0   7  242.48    5.70
  -4   0   7  246.88    5.50
  -4   0   7  237.58    6.10
  -4   0   7  246.18    5.30
   3   0  -7   10.30    0.80
   3   0  -7   11.90    1.20
   3   0  -7   12.40    1.00
   3   0  -7    9.10    0.70
   3   0  -7   11.50    0.90
   3   0  -7   11.40    1.30
  -3   0   7    7.80    0.80
  -3   0   7   10.30    1.10
  -3   0   7    9.80    1.00
  -3   0   7   10.40    0.90
  -3   0   7   11.80    0.60
   2   0  -7    1.60    0.60
   2   0  -7    1.20    0.40
   2   0  -7    0.90    0.40
   2   0  -7    1.50    0.40
   2   0  -7    1.50    0.50
  -2   0   7    1.50    0.30
  -2   0   7    1.60    0.40
  -2   0   7    1.70    0.60
  -2   0   7    1.70    0.20
  -2   0   7    1.50    0.50
  -2   0   7    1.10    0.40
   1   0  -7   27.50    1.20
   1   0  -7   29.60    0.90
   1   0  -7   28.60    1.00
   1   0  -7   29.40    1.00
   1   0  -7   28.50    1.10
   1   0  -7   28.30    1.00
  -1   0   7   27.40    1.00
  -1   0   7   29.10    0.80
  -1   0   7   28.20    0.80
  -1   0   7   30.90    1.10
  -1   0   7   27.20    1.00
  -1   0   7   28.00    1.20
   0   0  -7   36.70    1.00
   0   0  -7   36.30    1.20
   0   0  -7   36.20    1.10
   0   0  -7   35.90    1.10
   0   0  -7   34.90    0.90
   0   0  -7   36.60    1.20
   0   0  -7   35.60    1.10
   0   0   7   34.20    1.10
   0   0   7   36.20    1.10
   0   0   7   36.10    1.20
   0   0   7   38.20    1.20
   0   0   7   35.70    1.10
   0   0   7   36.00    0.90
  -1   0  -7   64.89    1.60
  -1   0  -7   62.39    1.50
  -1   0  -7   63.99    1.60
  -1   0  -7   64.49    1.80
  -1   0  -7   62.39    1.70
  -1   0  -7   61.99    1.70
  -1   0  -7   63.89    1.60
   1   0   7   63.49    1.60
   1   0   7   64.49    1.80
   1   0   7   63.39    1.60
   1   0   7   63.39    1.50
   1   0   7   64.79    1.80
   1   0   7   65.99    1.70
   1   0   7   64.59    1.60
  -2   0  -7   14.00    0.70
  -2   0  -7   14.50    0.60
  -2   0  -7   15.00    0.80
  -2   0  -7   13.10    0.90
  -2   0  -7   13.20    0.80
  -2   0  -7   15.00    0.70
  -2   0  -7   12.90    0.60
   2   0   7   14.20    0.90
   2   0   7   14.60    0.60
   2   0   7   14.30    0.80
   2   0   7   13.10    0.70
   2   0   7   12.80    0.60
   2   0   7   13.80    0.60
   2   0   7   14.20    0.70
  -3   0  -7   94.59    2.60
  -3   0  -7   94.19    2.30
  -3   0  -7   97.99    2.60
  -3   0  -7   96.19    2.20
  -3   0  -7   93.79    2.40
  -3   0  -7   92.79    2.60
  -3   0  -7   94.19    2.30
   3   0   7   97.09    2.20
   3   0   7   96.99    2.40
   3   0   7   94.69    2.50
   3   0   7   94.89    2.40
   3   0   7   96.79    2.30
   3   0   7   99.59    2.70
  -4   0  -7   13.60    1.00
  -4   0  -7   11.90    0.80
  -4   0  -7   12.70    0.70
  -4   0  -7   12.70    1.10
  -4   0  -7   13.60    1.30
  -4   0  -7   14.50    1.30
   4   0   7   12.60    0.60
   4   0   7   12.80    0.80
   4   0   7   12.70    1.00
   4   0   7   10.10    0.90
   4   0   7   14.60    1.40
  -5   0  -7   23.40    1.80
  -5   0  -7   23.80    1.70
  -5   0  -7   22.00    1.50
  -5   0  -7   22.20    1.30
  -5   0  -7   24.40    0.90
  -5   0  -7   22.60    1.10
   5   0   7   21.60    1.70
   5   0   7   23.50    1.50
   5   0   7   22.20    1.30
   5   0   7   23.60    1.10
   5   0   7   21.90    1.10
   5   0   7   21.90    1.20
   5   0   7   23.10    0.80
  -6   0  -7    1.60    0.90
  -6   0  -7    2.20    0.60
  -6   0  -7    2.10    0.80
  -6   0  -7    2.10    0.50
  -6   0  -7    1.70    1.00
   6   0   7    2.20    0.90
   6   0   7    0.50    0.70
   6   0   7    2.40    0.50
   6   0   7    2.50    0.80
   6   0   7    2.40    1.20
   6   0   7    1.90    0.40
  -7   0  -7    9.70    1.80
  -7   0  -7    7.60    1.20
  -7   0  -7    7.80    0.70
  -7   0  -7    8.00    1.00
  -7   0  -7    8.20    1.30
  -7   0  -7    9.30    0.90
   7   0   7    9.70    1.20
   7   0   7    9.40    1.80
   7   0   7    9.50    0.70
   7   0   7   10.60    1.40
   7   0   7    9.30    0.90
   7   0   7    9.30    1.00
   7   0   7    9.20    1.30
  -8   0  -7    1.10    0.70
  -8   0  -7    1.10    0.90
  -8   0  -7    4.50    2.80
  -8   0  -7   -0.10    1.10
  -8   0  -7    2.40    1.50
   8   0   7    1.10    1.10
   8   0   7    0.70    0.60
   8   0   7   -1.60    2.00
   8   0   7    2.50    2.00
   8   0   7   -0.30    1.30
   8   0   7    1.00    0.60
  -9   0  -7    3.50    1.90
   9   0   7    2.60    2.20
   6  -1  -7   55.79    2.60
   6  -1  -7   50.99    2.60
   6  -1  -7   58.09    3.10
   6  -1  -7   51.49    3.40
   6  -1  -7   53.89    3.50
  -6   1   7   52.99    2.30
  -6   1   7   53.89    1.80
  -6   1   7   53.39    3.10
  -6   1   7   53.09    3.10
  -6   1   7   51.39    3.60
   5  -1  -7   51.49    2.70
   5  -1  -7   57.69    2.20
   5  -1  -7   61.09    2.70
   5  -1  -7   59.79    2.40
   5  -1  -7   60.29    2.50
   5  -1  -7   61.79    2.90
  -5   1   7   62.59    2.60
  -5   1   7   62.49    3.00
  -5   1   7   61.09    2.70
  -5   1   7   59.59    1.70
  -5   1   7   57.29    2.00
   4  -1  -7    2.30    0.90
   4  -1  -7    0.10    0.70
   4  -1  -7    0.50    0.60
   4  -1  -7    0.50    1.00
   4  -1  -7    0.40    0.70
   4  -1  -7    0.20    0.60
  -4   1   7    0.90    0.90
  -4   1   7    1.60    1.00
  -4   1   7    1.20    0.70
  -4   1   7    0.50    0.40
  -4   1   7    0.90    0.60
   3  -1  -7  174.88    4.50
   3  -1  -7  172.48    4.20
   3  -1  -7  175.58    4.10
   3  -1  -7  176.78    4.10
   3  -1  -7  180.18    4.10
   3  -1  -7  155.68    4.40
  -3   1   7  174.08    4.30
  -3   1   7  176.18    4.20
  -3   1   7  177.98    4.50
  -3   1   7  174.38    4.00
  -3   1   7  171.38    3.70
   2  -1  -7  200.88    4.80
   2  -1  -7  203.78    4.70
   2  -1  -7  200.08    4.50
   2  -1  -7  195.98    4.40
   2  -1  -7  202.68    4.60
   2  -1  -7  203.48    4.50
  -2   1   7  168.98    4.90
  -2   1   7  197.28    4.60
  -2   1   7  200.08    4.80
  -2   1   7  206.38    4.60
   1  -1  -7   60.39    1.60
   1  -1  -7   60.99    1.70
   1  -1  -7   60.79    1.60
   1  -1  -7   62.09    1.60
   1  -1  -7   61.29    1.80
   1  -1  -7   62.79    1.80
  -1   1   7   59.69    1.70
  -1   1   7   61.59    1.60
  -1   1   7   59.09    1.80
  -1   1   7   61.39    1.70
   0  -1  -7    2.20    0.40
   0  -1  -7    1.40    0.30
   0  -1  -7    1.30    0.30
   0  -1  -7    1.80    0.30
   0  -1  -7    1.90    0.30
   0   1   7    0.80    0.30
   0   1   7    1.00    0.30
   0   1   7    1.60    0.20
   0   1   7    1.20    0.30
   0   1   7    1.10    0.30
   0   1   7    1.20    0.30
  -1  -1  -7   24.70    1.10
  -1  -1  -7   27.40    1.00
  -1  -1  -7   27.20    0.90
  -1  -1  -7   27.90    0.80
  -1  -1  -7   29.50    0.90
  -1  -1  -7   27.10    0.80
  -1  -1  -7   29.50    0.90
   1   1   7   26.70    0.90
   1   1   7   27.70    0.90
   1   1   7   29.00    0.90
   1   1   7   26.30    1.00
   1   1   7   27.10    1.00
   1   1   7   27.50    0.90
   1   1   7   29.90    0.80
  -2  -1  -7  120.59    3.10
  -2  -1  -7  127.09    3.10
  -2  -1  -7  130.29    2.90
  -2  -1  -7  130.49    2.80
  -2  -1  -7  130.29    2.90
  -2  -1  -7  131.99    3.00
  -2  -1  -7  130.99    3.10
   2   1   7  128.59    3.00
   2   1   7  131.39    3.20
   2   1   7  130.59    3.00
   2   1   7  132.09    2.90
   2   1   7  125.39    3.00
   2   1   7  127.69    2.80
   2   1   7  126.79    3.10
  -3  -1  -7  141.39    3.50
  -3  -1  -7  144.19    3.10
  -3  -1  -7  147.19    3.50
  -3  -1  -7  146.39    3.30
  -3  -1  -7  141.99    3.50
  -3  -1  -7  146.79    3.30
  -3  -1  -7  144.99    3.30
   3   1   7  145.39    3.30
   3   1   7  146.39    3.60
   3   1   7  143.89    3.10
   3   1   7  130.69    3.50
   3   1   7  141.59    3.30
   3   1   7  145.69    3.40
  -4  -1  -7   16.20    0.80
  -4  -1  -7   15.30    1.20
  -4  -1  -7   13.90    1.10
  -4  -1  -7   16.40    1.10
  -4  -1  -7   16.20    0.80
   4   1   7   15.60    1.00
   4   1   7   16.20    0.80
   4   1   7   15.70    0.50
   4   1   7   14.40    1.30
   4   1   7   15.00    0.90
   4   1   7   15.80    0.90
  -5  -1  -7   55.99    2.00
  -5  -1  -7   52.99    1.60
  -5  -1  -7   54.39    1.70
  -5  -1  -7   55.39    2.20
  -5  -1  -7   55.39    2.20
  -5  -1  -7   55.19    1.80
   5   1   7   54.79    1.70
   5   1   7   53.79    1.40
   5   1   7   51.29    1.60
   5   1   7   52.09    2.20
   5   1   7   54.39    1.90
   5   1   7   54.19    1.20
   5   1   7   51.69    1.80
  -6  -1  -7  257.57    7.40
  -6  -1  -7  280.47    6.90
  -6  -1  -7  290.67    6.40
  -6  -1  -7  278.57    6.70
  -6  -1  -7  292.07    6.30
  -6  -1  -7  295.07    6.80
  -6  -1  -7  282.77    6.50
   6   1   7  283.77    6.60
   6   1   7  284.47    6.70
   6   1   7  287.37    6.40
   6   1   7  285.87    6.50
   6   1   7  292.87    6.00
   6   1   7  286.57    5.90
   6   1   7  294.07    7.00
  -7  -1  -7    0.50    0.80
  -7  -1  -7    0.80    0.80
  -7  -1  -7   -0.60    0.90
  -7  -1  -7   -0.20    0.50
  -7  -1  -7    1.10    1.10
  -7  -1  -7   -0.30    1.10
   7   1   7    0.30    0.90
   7   1   7    0.60    0.30
   7   1   7   -0.30    0.90
   7   1   7    0.30    0.70
   7   1   7    0.00    1.10
   7   1   7    0.80    1.00
   7   1   7    0.60    0.30
  -8  -1  -7    3.00    1.40
  -8  -1  -7    2.50    1.80
  -8  -1  -7    2.00    1.00
  -8  -1  -7    1.60    0.70
  -8  -1  -7    2.70    1.10
   8   1   7    1.60    1.30
   8   1   7    1.60    1.40
   8   1   7    2.50    1.00
   8   1   7    3.10    1.30
  -9  -1  -7    0.90    1.20
  -9  -1  -7   -2.70    1.30
  -9  -1  -7    1.70    1.90
  -9  -1  -7    0.30    3.00
   9   1   7   -0.80    1.90
   9   1   7   -0.30    1.40
   6  -2  -7   19.50    1.50
   6  -2  -7   20.80    1.90
  -6   2   7   21.20    2.30
  -6   2   7   17.60    1.40
  -6   2   7   17.50    2.20
  -6   2   7   18.10    1.40
   5  -2  -7    0.80    1.30
   5  -2  -7    0.20    1.40
   5  -2  -7    0.60    1.10
   5  -2  -7    0.80    0.90
  -5   2   7    2.00    1.40
  -5   2   7    1.40    1.10
  -5   2   7   -1.10    1.30
  -5   2   7    1.20    0.50
  -5   2   7    1.30    0.80
   4  -2  -7   20.80    1.60
   4  -2  -7   21.80    1.90
   4  -2  -7   23.10    2.10
   4  -2  -7   21.70    1.30
  -4   2   7   22.50    1.90
  -4   2   7   22.50    1.30
  -4   2   7   23.00    2.00
  -4   2   7   24.60    1.60
  -4   2   7   21.90    0.80
   3  -2  -7  350.96    7.80
   3  -2  -7  358.86    7.60
   3  -2  -7  355.56    7.80
   3  -2  -7  344.47    8.10
   3  -2  -7  356.56    7.90
   3  -2  -7  346.97    7.70
  -3   2   7  345.37    8.00
  -3   2   7  358.56    7.80
  -3   2   7  347.17    7.50
  -3   2   7  337.47    7.30
  -3   2   7  348.87    8.10
   2  -2  -7  196.88    4.60
   2  -2  -7  195.18    4.40
   2  -2  -7  197.88    4.50
   2  -2  -7  197.88    4.80
   2  -2  -7  195.98    4.50
   2  -2  -7  195.28    4.60
  -2   2   7  192.48    4.70
  -2   2   7  197.88    4.60
  -2   2   7  190.18    4.80
  -2   2   7  198.88    4.40
   1  -2  -7   39.20    1.30
   1  -2  -7   39.50    1.20
   1  -2  -7   34.90    1.20
   1  -2  -7   39.50    1.40
   1  -2  -7   36.20    1.30
  -1   2   7   35.60    1.40
  -1   2   7   36.90    1.40
  -1   2   7   36.80    1.20
   0  -2  -7  129.69    3.00
   0  -2  -7  130.49    3.10
   0  -2  -7  126.99    2.90
   0  -2  -7  127.99    3.00
   0  -2  -7  126.69    3.00
   0  -2  -7  129.69    3.10
   0   2   7  124.79    3.10
   0   2   7  121.29    3.00
   0   2   7  131.99    3.00
   0   2   7  128.89    3.00
  -1  -2  -7  330.97    6.90
  -1  -2  -7  307.67    6.70
  -1  -2  -7  328.37    7.00
  -1  -2  -7  322.37    6.90
  -1  -2  -7  327.97    6.90
  -1  -2  -7  321.57    7.00
  -1  -2  -7  327.17    6.90
   1   2   7  325.57    6.90
   1   2   7  318.87    7.00
   1   2   7  322.07    6.70
   1   2   7  315.87    6.90
   1   2   7  325.97    7.00
   1   2   7  331.87    7.00
  -2  -2  -7   65.89    1.80
  -2  -2  -7   68.89    1.90
  -2  -2  -7   68.49    1.60
  -2  -2  -7   69.29    1.70
  -2  -2  -7   65.79    1.60
  -2  -2  -7   68.39    1.80
  -2  -2  -7   69.99    1.80
   2   2   7   67.69    1.60
   2   2   7   65.89    1.80
   2   2   7   67.39    1.70
   2   2   7   71.19    1.90
   2   2   7   67.29    1.80
   2   2   7   67.89    1.90
   2   2   7   67.79    1.70
  -3  -2  -7   75.49    1.90
  -3  -2  -7   74.99    1.80
  -3  -2  -7   74.79    2.10
  -3  -2  -7   69.69    2.00
  -3  -2  -7   73.19    1.70
  -3  -2  -7   75.19    1.90
  -3  -2  -7   72.99    2.00
   3   2   7   75.39    1.70
   3   2   7   75.19    1.80
   3   2   7   74.19    1.90
   3   2   7   75.69    1.90
   3   2   7   70.99    1.90
  -4  -2  -7  311.57    6.90
  -4  -2  -7  310.57    6.70
  -4  -2  -7  309.47    6.90
  -4  -2  -7  317.87    7.00
  -4  -2  -7  303.57    6.60
   4   2   7  308.17    6.70
   4   2   7  308.97    7.00
   4   2   7  298.67    6.70
   4   2   7  305.17    6.80
   4   2   7  296.07    6.50
  -5  -2  -7    5.90    0.80
  -5  -2  -7    6.40    0.60
  -5  -2  -7    6.40    0.60
  -5  -2  -7    7.80    0.90
  -5  -2  -7    6.30    0.60
   5   2   7    6.50    0.70
   5   2   7    6.50    0.60
   5   2   7    8.50    0.90
   5   2   7    5.80    0.50
   5   2   7    8.20    1.00
  -6  -2  -7    3.10    0.60
  -6  -2  -7    4.30    0.80
  -6  -2  -7    3.70    0.90
  -6  -2  -7    3.90    0.70
  -6  -2  -7    3.60    0.80
  -6  -2  -7    5.00    0.90
  -6  -2  -7    2.30    0.90
   6   2   7    2.30    1.20
   6   2   7    4.30    0.80
   6   2   7    2.80    0.70
   6   2   7    3.90    0.60
   6   2   7    5.20    1.10
  -7  -2  -7  104.39    3.30
  -7  -2  -7  107.59    3.10
  -7  -2  -7  107.59    3.00
  -7  -2  -7  112.19    3.60
  -7  -2  -7  106.29    2.80
  -7  -2  -7  106.39    3.80
   7   2   7  106.69    2.90
   7   2   7  107.99    3.20
   7   2   7  110.49    3.70
   7   2   7  107.69    3.40
   7   2   7  106.99    3.10
  -8  -2  -7    9.30    1.00
  -8  -2  -7    9.20    1.20
  -8  -2  -7    4.80    2.10
  -8  -2  -7    7.80    1.10
  -8  -2  -7    9.70    1.80
  -8  -2  -7    9.80    1.70
   8   2   7    9.60    1.50
   8   2   7    6.80    1.40
   8   2   7   10.60    1.10
   8   2   7   11.30    1.40
  -9  -2  -7    0.80    2.80
  -9  -2  -7   -3.20    1.80
  -9  -2  -7    0.50    1.20
  -9  -2  -7   -1.00    1.40
  -9  -2  -7   -0.10    1.00
   9   2   7   -0.70    1.20
   9   2   7    1.20    1.80
   5  -3  -7    1.40    1.80
   5  -3  -7    0.80    1.30
   5  -3  -7    0.80    1.00
  -5   3   7    0.60    1.80
  -5   3   7    3.20    1.50
  -5   3   7    0.90    1.50
  -5   3   7    2.00    0.60
  -5   3   7    0.00    0.90
   4  -3  -7    7.40    1.10
   4  -3  -7    4.90    1.30
   4  -3  -7    3.40    1.40
   4  -3  -7    3.90    0.80
   4  -3  -7    5.80    1.10
  -4   3   7    4.00    1.40
  -4   3   7    6.00    1.30
  -4   3   7    4.60    0.80
  -4   3   7    5.50    0.50
  -4   3   7    4.80    1.40
   3  -3  -7    6.60    0.90
   3  -3  -7    8.30    0.70
   3  -3  -7    7.20    1.00
   3  -3  -7    7.20    0.90
  -3   3   7    7.80    1.10
  -3   3   7    6.10    1.10
  -3   3   7    7.70    0.70
   2  -3  -7   11.90    1.30
   2  -3  -7   13.30    1.20
   2  -3  -7    9.70    0.80
   2  -3  -7   10.80    0.90
   2  -3  -7   10.40    0.90
   2  -3  -7   12.00    0.90
  -2   3   7    9.60    1.00
  -2   3   7    9.50    0.90
  -2   3   7   10.80    1.10
  -2   3   7    9.90    0.90
   1  -3  -7   10.70    1.00
   1  -3  -7    9.00    1.00
   1  -3  -7   10.80    0.80
   1  -3  -7   10.00    0.90
   1  -3  -7   11.10    0.80
   1  -3  -7   11.00    0.90
  -1   3   7   12.00    1.20
  -1   3   7   10.80    1.00
  -1   3   7   10.80    0.90
   0  -3  -7   38.20    1.30
   0  -3  -7   39.40    1.30
   0  -3  -7   38.80    1.20
   0  -3  -7   39.60    1.20
   0  -3  -7   38.80    1.60
   0   3   7   39.30    1.50
   0   3   7   37.80    1.30
   0   3   7   42.20    1.30
   0   3   7   40.10    1.30
  -1  -3  -7   80.99    2.10
  -1  -3  -7   85.89    2.10
  -1  -3  -7   85.99    2.10
  -1  -3  -7   85.99    2.20
  -1  -3  -7   83.79    2.10
   1   3   7   84.59    2.10
   1   3   7   86.49    2.20
   1   3   7   82.69    2.10
   1   3   7   90.39    2.30
  -2  -3  -7    1.30    0.40
  -2  -3  -7    2.00    0.30
  -2  -3  -7    1.20    0.30
  -2  -3  -7    1.90    0.30
  -2  -3  -7    1.70    0.40
  -2  -3  -7    1.70    0.20
  -2  -3  -7    1.60    0.30
   2   3   7    1.90    0.30
   2   3   7    1.40    0.40
   2   3   7    1.50    0.30
   2   3   7    1.80    0.30
   2   3   7    2.00    0.40
  -3  -3  -7   77.29    2.00
  -3  -3  -7   77.49    2.00
  -3  -3  -7   76.39    1.90
  -3  -3  -7   77.59    2.00
  -3  -3  -7   74.79    2.00
  -3  -3  -7   77.29    1.70
  -3  -3  -7   78.39    2.10
   3   3   7   76.09    1.90
   3   3   7   79.09    2.20
   3   3   7   75.49    2.00
   3   3   7   79.09    1.90
   3   3   7   76.79    1.90
   3   3   7   77.89    2.00
  -4  -3  -7   31.50    1.20
  -4  -3  -7   31.50    1.30
  -4  -3  -7   30.50    1.20
  -4  -3  -7   31.20    1.30
  -4  -3  -7   30.30    1.10
  -4  -3  -7   28.20    1.50
   4   3   7   32.80    1.00
   4   3   7   31.80    1.50
   4   3   7   29.50    1.10
   4   3   7   32.70    1.20
   4   3   7   32.10    1.10
  -5  -3  -7   40.00    1.80
  -5  -3  -7   40.20    1.40
  -5  -3  -7   43.50    1.60
  -5  -3  -7   43.00    1.70
  -5  -3  -7   41.10    1.40
  -5  -3  -7   39.70    1.50
   5   3   7   39.10    1.50
   5   3   7   40.50    1.40
   5   3   7   41.90    1.80
   5   3   7   40.50    1.50
   5   3   7   39.50    1.30
  -6  -3  -7  138.09    3.40
  -6  -3  -7  134.39    3.80
  -6  -3  -7  139.39    3.60
  -6  -3  -7  129.99    3.30
  -6  -3  -7  137.29    3.90
  -6  -3  -7  133.99    3.40
   6   3   7  135.29    3.30
   6   3   7  133.79    3.50
   6   3   7  133.49    3.30
   6   3   7  131.89    3.40
  -7  -3  -7  553.14   11.90
  -7  -3  -7  526.85   11.80
  -7  -3  -7  553.64   12.10
  -7  -3  -7  540.25   11.70
  -7  -3  -7  545.65   12.30
  -7  -3  -7  542.95   11.70
   7   3   7  542.75   12.00
   7   3   7  549.45   11.70
   7   3   7  523.55   11.80
   7   3   7  546.05   12.20
  -8  -3  -7    8.20    1.10
  -8  -3  -7    9.40    1.40
  -8  -3  -7    8.10    1.30
  -8  -3  -7    9.70    1.80
  -8  -3  -7    6.80    1.40
  -8  -3  -7    8.80    1.00
   8   3   7    9.30    1.40
   8   3   7    7.70    1.90
   8   3   7    8.90    1.60
   8   3   7   11.80    1.20
   8   3   7    8.90    1.00
  -9  -3  -7    8.60    1.70
  -9  -3  -7    6.80    1.30
  -9  -3  -7   10.10    2.10
  -9  -3  -7    6.00    1.20
   9   3   7    6.70    1.20
   9   3   7    7.70    1.70
   5  -4  -7    3.30    1.10
   5  -4  -7    2.10    1.80
  -5   4   7    4.60    1.90
  -5   4   7    1.30    2.20
   4  -4  -7    5.00    1.30
   4  -4  -7    8.10    0.80
   4  -4  -7    7.50    1.00
   4  -4  -7    7.40    1.70
  -4   4   7    6.20    1.70
  -4   4   7    6.30    1.00
  -4   4   7    6.80    1.40
   3  -4  -7   -0.60    1.00
   3  -4  -7   -0.20    0.60
   3  -4  -7    0.40    0.90
   3  -4  -7   -0.50    1.00
   3  -4  -7    0.20    0.90
  -3   4   7   -0.90    0.70
  -3   4   7    0.00    0.80
  -3   4   7   -1.50    1.00
  -3   4   7   -0.10    1.30
   2  -4  -7   29.60    1.60
   2  -4  -7   30.60    1.70
   2  -4  -7   29.60    1.20
   2  -4  -7   29.10    1.60
   2  -4  -7   29.60    1.40
   2  -4  -7   34.40    1.80
  -2   4   7   28.30    1.70
  -2   4   7   28.50    1.40
  -2   4   7   29.00    2.00
  -2   4   7   30.10    1.40
   1  -4  -7   25.00    1.10
   1  -4  -7   22.00    1.40
   1  -4  -7   22.10    1.30
   1  -4  -7   23.50    1.40
   1  -4  -7   23.10    1.20
  -1   4   7   25.40    1.40
  -1   4   7   22.60    1.70
  -1   4   7   24.60    1.20
  -1   4   7   25.00    1.10
   0  -4  -7   50.99    1.50
   0  -4  -7   49.70    1.60
   0  -4  -7   50.49    1.70
   0  -4  -7   50.89    1.50
   0  -4  -7   48.00    1.50
   0  -4  -7   48.30    1.70
   0   4   7   51.19    1.70
   0   4   7   48.30    1.60
   0   4   7   49.99    1.40
   0   4   7   50.59    1.90
  -1  -4  -7   65.19    1.80
  -1  -4  -7   66.49    1.90
  -1  -4  -7   63.39    1.80
  -1  -4  -7   63.39    1.60
  -1  -4  -7   62.69    1.70
  -1  -4  -7   62.49    1.40
  -1  -4  -7   61.99    1.40
  -1  -4  -7   63.29    1.70
   1   4   7   64.29    1.70
   1   4   7   60.69    1.70
   1   4   7   63.39    2.00
  -2  -4  -7   45.00    1.30
  -2  -4  -7   45.50    1.30
  -2  -4  -7   45.90    1.40
  -2  -4  -7   44.80    1.30
  -2  -4  -7   43.80    1.40
  -2  -4  -7   44.30    1.20
  -2  -4  -7   45.80    1.40
   2   4   7   45.70    1.40
   2   4   7   43.90    1.30
   2   4   7   43.50    1.50
  -3  -4  -7   29.30    1.10
  -3  -4  -7   28.00    1.10
  -3  -4  -7   28.80    1.20
  -3  -4  -7   30.30    1.00
  -3  -4  -7   29.80    1.10
  -3  -4  -7   28.50    0.90
  -3  -4  -7   29.60    1.10
   3   4   7   29.60    0.80
   3   4   7   27.80    1.00
   3   4   7   29.50    1.10
   3   4   7   28.00    1.20
  -4  -4  -7    3.90    0.60
  -4  -4  -7    3.90    0.50
  -4  -4  -7    3.00    0.60
  -4  -4  -7    3.30    0.60
  -4  -4  -7    3.60    0.30
  -4  -4  -7    3.20    0.40
  -4  -4  -7    2.80    0.50
   4   4   7    3.40    0.30
   4   4   7    3.80    0.60
   4   4   7    3.90    0.50
   4   4   7    4.20    0.60
   4   4   7    3.80    0.40
  -5  -4  -7   21.80    1.30
  -5  -4  -7   21.60    1.20
  -5  -4  -7   20.80    1.00
  -5  -4  -7   21.50    1.50
  -5  -4  -7   21.70    1.20
  -5  -4  -7   20.50    1.20
   5   4   7   20.60    1.10
   5   4   7   21.60    1.00
   5   4   7   20.70    1.10
   5   4   7   21.70    0.90
   5   4   7   18.70    1.40
  -6  -4  -7    5.60    1.00
  -6  -4  -7    2.80    0.70
  -6  -4  -7    5.00    0.70
  -6  -4  -7    4.70    0.80
  -6  -4  -7    5.70    0.80
  -6  -4  -7    5.50    1.00
  -6  -4  -7    4.70    1.10
   6   4   7    4.30    0.60
   6   4   7    4.70    0.70
   6   4   7    5.00    0.90
   6   4   7    4.90    0.70
   6   4   7    4.90    0.80
  -7  -4  -7    8.10    0.90
  -7  -4  -7    8.00    1.40
  -7  -4  -7    6.40    1.00
  -7  -4  -7    6.70    1.10
  -7  -4  -7    9.10    1.00
  -7  -4  -7    9.00    1.30
   7   4   7    6.50    1.00
   7   4   7   10.20    1.20
   7   4   7    6.90    0.80
   7   4   7    6.50    0.70
   7   4   7    8.10    1.10
  -8  -4  -7   15.70    2.10
  -8  -4  -7   12.30    1.40
  -8  -4  -7   14.90    1.60
  -8  -4  -7   17.30    1.30
  -8  -4  -7   15.80    1.70
  -8  -4  -7   16.00    1.30
   8   4   7   15.40    1.40
   8   4   7   10.50    1.60
   8   4   7   16.70    1.20
   8   4   7   17.10    1.60
  -9  -4  -7    3.10    1.20
  -9  -4  -7    3.90    1.30
   9   4   7    3.50    1.20
   9   4   7    3.00    1.40
   4  -5  -7    2.50    1.00
   4  -5  -7    1.40    1.50
  -4   5   7    2.70    1.70
  -4   5   7    1.40    1.50
   3  -5  -7    7.90    1.60
   3  -5  -7    5.80    1.40
   3  -5  -7    6.80    0.90
  -3   5   7    7.70    1.00
  -3   5   7    6.90    1.00
  -3   5   7    5.30    1.60
  -3   5   7    4.80    1.20
   2  -5  -7   37.60    1.40
   2  -5  -7   34.00    2.10
   2  -5  -7   37.00    1.70
   2  -5  -7   33.90    1.90
   2  -5  -7   38.80    2.10
   2  -5  -7   32.20    2.10
  -2   5   7   35.70    2.50
  -2   5   7   35.60    1.90
  -2   5   7   40.20    1.70
  -2   5   7   40.40    1.60
   1  -5  -7    8.00    0.60
   1  -5  -7    6.70    0.90
   1  -5  -7    7.60    1.00
   1  -5  -7    9.90    1.00
   1  -5  -7    8.70    0.90
   1  -5  -7    7.90    0.80
  -1   5   7    9.20    0.90
  -1   5   7    8.80    0.90
  -1   5   7    7.50    1.30
   0  -5  -7    0.40    0.20
   0  -5  -7   -0.40    0.40
   0  -5  -7   -0.10    0.40
   0  -5  -7   -0.20    0.20
   0  -5  -7    0.60    0.70
   0  -5  -7    0.00    0.50
   0  -5  -7    0.50    0.70
   0  -5  -7   -0.80    0.60
   0  -5  -7    0.70    0.70
   0   5   7    0.20    0.40
   0   5   7    0.10    0.50
   0   5   7   -1.00    0.80
  -1  -5  -7   23.40    1.20
  -1  -5  -7   24.20    1.00
  -1  -5  -7   23.40    1.00
  -1  -5  -7   20.50    1.30
  -1  -5  -7   21.90    0.80
  -1  -5  -7   22.80    0.90
  -1  -5  -7   22.80    1.10
  -1  -5  -7   22.20    0.70
   1   5   7   22.70    1.50
   1   5   7   23.50    0.90
   1   5   7   22.00    0.90
  -2  -5  -7    1.90    0.40
  -2  -5  -7    2.70    0.50
  -2  -5  -7    2.60    0.60
  -2  -5  -7    2.20    0.30
  -2  -5  -7    2.20    0.40
  -2  -5  -7    2.60    0.50
  -2  -5  -7    2.90    0.50
  -2  -5  -7    3.00    0.40
   2   5   7    1.80    0.40
   2   5   7    2.20    0.30
  -3  -5  -7    7.30    0.70
  -3  -5  -7    8.40    0.80
  -3  -5  -7    7.80    0.70
  -3  -5  -7    8.20    0.70
  -3  -5  -7    7.10    0.70
  -3  -5  -7    8.40    0.70
  -3  -5  -7    7.10    0.70
   3   5   7    7.80    0.50
   3   5   7    8.00    0.70
  -4  -5  -7   20.70    1.20
  -4  -5  -7   20.20    1.00
  -4  -5  -7   19.60    1.10
  -4  -5  -7   20.00    0.70
  -4  -5  -7   20.30    1.10
  -4  -5  -7   21.70    1.20
  -4  -5  -7   21.00    1.00
   4   5   7   20.10    1.10
   4   5   7   19.10    0.80
  -5  -5  -7   31.30    1.40
  -5  -5  -7   29.50    1.60
  -5  -5  -7   30.50    1.50
  -5  -5  -7   32.30    1.40
  -5  -5  -7   30.20    1.30
  -5  -5  -7   30.20    1.50
   5   5   7   29.90    1.40
   5   5   7   31.70    0.90
   5   5   7   30.20    1.40
   5   5   7   29.20    1.10
   5   5   7   29.70    1.40
  -6  -5  -7   23.90    1.50
  -6  -5  -7   22.30    1.80
  -6  -5  -7   26.70    1.50
  -6  -5  -7   22.60    2.00
  -6  -5  -7   22.70    1.70
  -6  -5  -7   28.00    1.30
  -6  -5  -7   25.10    1.60
   6   5   7   22.90    1.50
   6   5   7   25.90    1.60
   6   5   7   23.40    1.20
   6   5   7   26.00    1.00
   6   5   7   23.40    1.30
  -7  -5  -7   10.10    1.00
  -7  -5  -7   11.00    1.20
  -7  -5  -7    8.80    1.10
  -7  -5  -7    9.60    1.10
  -7  -5  -7    8.20    1.40
  -7  -5  -7   13.20    1.50
   7   5   7    9.50    1.00
   7   5   7    8.30    1.10
   7   5   7    9.20    0.90
   7   5   7    8.30    1.10
   7   5   7    9.90    0.90
  -8  -5  -7  125.49    4.10
  -8  -5  -7  124.79    3.60
  -8  -5  -7  112.49    3.80
   8   5   7  122.39    3.90
   8   5   7  122.19    3.20
   8   5   7  124.19    3.60
   8   5   7  123.09    3.30
  -9  -5  -7    6.60    1.30
   9   5   7    7.60    1.20
   9   5   7   10.00    1.50
   3  -6  -7    7.70    1.00
   3  -6  -7    7.10    1.60
  -3   6   7    6.50    1.00
  -3   6   7    9.00    1.40
   2  -6  -7   30.40    1.50
   2  -6  -7   28.30    2.60
   2  -6  -7   30.00    2.40
   2  -6  -7   28.50    1.80
  -2   6   7   30.40    1.40
  -2   6   7   28.90    1.80
   1  -6  -7    0.90    0.30
   1  -6  -7    0.20    0.60
   1  -6  -7    0.00    0.80
   1  -6  -7    0.80    0.60
   1  -6  -7    1.00    0.30
   1  -6  -7    0.70    1.00
   1  -6  -7    0.90    1.10
   1  -6  -7    0.90    0.90
  -1   6   7    1.60    0.50
  -1   6   7    1.30    0.70
   0  -6  -7   -0.50    0.90
   0  -6  -7    0.80    0.30
   0  -6  -7    0.80    0.40
   0  -6  -7    0.30    0.50
   0  -6  -7    0.60    0.60
   0  -6  -7    0.10    0.70
   0  -6  -7    0.90    0.50
   0  -6  -7    0.80    0.90
   0  -6  -7   -0.40    0.80
  -1  -6  -7   17.60    1.40
  -1  -6  -7   16.20    0.80
  -1  -6  -7   16.10    0.80
  -1  -6  -7   15.50    1.50
  -1  -6  -7   16.10    0.90
  -1  -6  -7   17.00    0.80
  -1  -6  -7   15.30    1.40
  -1  -6  -7   16.20    1.20
  -1  -6  -7   15.60    1.10
  -2  -6  -7    5.90    0.80
  -2  -6  -7    5.80    0.50
  -2  -6  -7    6.90    0.70
  -2  -6  -7    5.90    0.60
  -2  -6  -7    6.30    0.80
  -2  -6  -7    6.10    0.60
  -2  -6  -7    6.20    0.60
  -2  -6  -7    6.60    0.60
  -3  -6  -7    1.80    0.50
  -3  -6  -7    1.90    0.60
  -3  -6  -7    2.00    0.50
  -3  -6  -7    1.60    0.40
  -3  -6  -7    1.80    0.70
  -3  -6  -7    0.40    0.60
  -4  -6  -7    3.90    0.70
  -4  -6  -7    2.60    0.70
  -4  -6  -7    4.10    0.70
  -4  -6  -7    3.30    0.50
  -4  -6  -7    4.50    0.50
  -4  -6  -7    4.00    0.60
  -4  -6  -7    4.40    0.60
  -5  -6  -7    2.50    0.70
  -5  -6  -7    2.20    0.70
  -5  -6  -7    2.30    0.30
  -5  -6  -7    3.60    0.80
  -5  -6  -7    2.50    0.60
  -5  -6  -7    2.90    0.80
  -5  -6  -7    2.20    0.70
  -5  -6  -7    2.50    0.30
  -5  -6  -7    2.20    1.20
   5   6   7    2.30    0.40
   5   6   7    2.30    0.50
  -6  -6  -7    3.10    0.80
  -6  -6  -7    3.90    0.90
  -6  -6  -7    3.80    0.90
  -6  -6  -7    2.50    1.20
  -6  -6  -7    2.80    0.80
  -6  -6  -7    4.30    1.10
   6   6   7    4.50    0.70
   6   6   7    2.70    0.70
   6   6   7    4.00    0.50
  -7  -6  -7    1.70    1.10
  -7  -6  -7    0.90    0.90
  -7  -6  -7   -0.40    1.30
  -7  -6  -7    1.70    1.00
  -7  -6  -7    1.50    1.00
  -7  -6  -7    2.10    1.30
   7   6   7    1.50    0.70
   7   6   7    1.50    0.80
   7   6   7    1.20    0.40
   7   6   7    2.20    0.90
  -8  -6  -7   22.00    1.90
  -8  -6  -7   24.70    2.00
  -8  -6  -7   20.20    1.60
   8   6   7   21.50    2.20
   8   6   7   23.30    1.80
   8   6   7   22.30    1.70
   8   6   7   21.80    1.30
  -9  -6  -7    1.00    1.50
   9   6   7    4.00    1.30
   9   6   7    4.00    1.20
   2  -7  -7    1.80    0.90
   2  -7  -7    1.90    1.60
  -2   7   7    2.00    0.60
  -2   7   7    1.20    0.70
   1  -7  -7   11.50    0.80
   1  -7  -7   11.80    1.60
   1  -7  -7   12.60    1.00
   1  -7  -7   10.40    1.00
   1  -7  -7   11.60    1.50
   1  -7  -7   12.70    0.90
   0  -7  -7   11.10    1.00
   0  -7  -7   11.60    1.30
   0  -7  -7   13.30    1.00
   0  -7  -7   10.30    1.10
   0  -7  -7   10.10    1.40
   0  -7  -7   11.70    0.90
   0  -7  -7   12.40    0.90
  -1  -7  -7    0.70    0.40
  -1  -7  -7    1.60    0.70
  -1  -7  -7    1.60    1.00
  -1  -7  -7    1.20    0.50
  -1  -7  -7    0.20    1.00
  -1  -7  -7    0.80    0.60
  -1  -7  -7    1.00    1.00
  -1  -7  -7    1.50    0.50
  -1  -7  -7    1.70    0.60
  -2  -7  -7    3.80    0.40
  -2  -7  -7    3.70    0.60
  -2  -7  -7    3.40    0.90
  -2  -7  -7    4.30    0.90
  -2  -7  -7    4.70    0.60
  -2  -7  -7    4.10    0.70
  -2  -7  -7    3.60    0.50
  -3  -7  -7   20.10    1.50
  -3  -7  -7   21.90    0.90
  -3  -7  -7   21.60    1.50
  -3  -7  -7   22.40    1.00
  -3  -7  -7   20.60    1.40
  -3  -7  -7   24.00    1.20
  -3  -7  -7   20.50    1.70
  -3  -7  -7   22.40    1.00
  -4  -7  -7   16.70    1.60
  -4  -7  -7   18.90    1.60
  -4  -7  -7   15.00    1.10
  -4  -7  -7   15.00    1.20
  -4  -7  -7   16.30    0.90
  -4  -7  -7   16.70    1.10
  -4  -7  -7   14.90    1.10
  -4  -7  -7   15.80    1.10
  -5  -7  -7   -1.20    1.30
  -5  -7  -7   -0.20    0.70
  -5  -7  -7    1.30    0.70
  -5  -7  -7    0.30    0.90
  -5  -7  -7    0.90    0.90
  -5  -7  -7    0.20    0.40
  -5  -7  -7    0.50    0.40
  -5  -7  -7    0.20    0.70
  -5  -7  -7    0.50    0.80
  -6  -7  -7   12.80    1.70
  -6  -7  -7   14.00    1.40
  -6  -7  -7   17.30    1.40
  -6  -7  -7   13.90    1.30
  -6  -7  -7   12.60    1.10
  -6  -7  -7   15.10    1.50
  -7  -7  -7    1.00    1.10
  -7  -7  -7    2.10    1.20
  -7  -7  -7    0.20    1.10
  -7  -7  -7   -0.10    1.00
   7   7   7    1.80    0.70
   7   7   7    0.80    0.90
   7   7   7    0.60    0.60
  -8  -7  -7    0.30    1.20
  -8  -7  -7    2.80    1.40
   8   7   7    2.80    1.10
   8   7   7    2.60    1.10
   8   7   7    3.50    0.80
   1  -8  -7   12.80    1.10
   1  -8  -7   13.10    3.00
   0  -8  -7    3.70    1.40
   0  -8  -7    1.10    0.70
   0  -8  -7    1.70    0.70
   0  -8  -7    3.20    0.80
   0  -8  -7    3.00    1.20
  -1  -8  -7    4.80    0.70
  -1  -8  -7    2.50    2.40
  -1  -8  -7    5.80    0.90
  -1  -8  -7    5.80    1.40
  -1  -8  -7    5.30    0.60
  -1  -8  -7    6.00    0.90
  -2  -8  -7    4.00    0.90
  -2  -8  -7    4.10    1.20
  -2  -8  -7    4.40    0.90
  -2  -8  -7    4.40    1.30
  -2  -8  -7    4.90    0.50
  -2  -8  -7    2.90    0.70
  -3  -8  -7    5.80    1.20
  -3  -8  -7    6.20    0.60
  -3  -8  -7    8.40    1.20
  -3  -8  -7    6.40    1.60
  -3  -8  -7    6.60    0.80
  -3  -8  -7    5.60    1.00
  -3  -8  -7    6.00    0.90
  -4  -8  -7   11.80    1.20
  -4  -8  -7   13.20    1.20
  -4  -8  -7   12.40    1.10
  -4  -8  -7   14.90    1.40
  -4  -8  -7   14.10    1.20
  -4  -8  -7    9.20    1.70
  -4  -8  -7   16.60    1.50
  -4  -8  -7   13.00    1.20
  -5  -8  -7   22.00    2.10
  -5  -8  -7   25.50    1.30
  -5  -8  -7   25.10    1.90
  -5  -8  -7   22.40    1.40
  -5  -8  -7   24.40    1.70
  -6  -8  -7   15.30    1.60
  -6  -8  -7   10.40    1.30
  -6  -8  -7   12.70    0.90
  -6  -8  -7   10.70    1.20
  -6  -8  -7   11.40    0.70
  -6  -8  -7   13.10    1.40
  -7  -8  -7    0.50    1.10
  -7  -8  -7    1.20    1.50
  -7  -8  -7   -0.20    1.20
  -8  -8  -7    0.20    1.40
  -8  -8  -7    1.00    1.60
  -1  -9  -7    0.80    0.60
  -1  -9  -7    1.60    1.00
  -1  -9  -7    1.00    1.70
  -2  -9  -7    5.30    1.10
  -2  -9  -7    3.60    1.60
  -2  -9  -7    4.30    1.00
  -3  -9  -7    1.00    1.60
  -3  -9  -7    0.50    1.40
  -3  -9  -7    0.10    1.10
  -3  -9  -7   -0.60    0.90
  -3  -9  -7    0.80    1.30
  -4  -9  -7    6.20    2.00
  -4  -9  -7    3.60    1.30
  -4  -9  -7    4.10    1.00
  -4  -9  -7    8.20    1.60
  -4  -9  -7    6.50    1.20
  -5  -9  -7    0.80    1.60
  -5  -9  -7   -0.60    0.80
  -5  -9  -7   -0.20    1.00
  -5  -9  -7    2.40    1.40
  -6  -9  -7    1.80    1.10
  -6  -9  -7    0.00    1.50
  -7  -9  -7    1.00    1.50
   5   8  -8   18.70    2.30
  -5  -8   8   19.50    1.50
  -5  -8   8   16.40    1.80
   4   8  -8    2.40    1.30
   4   8  -8    1.90    1.70
   4   8  -8    3.50    1.40
  -4  -8   8    0.30    1.50
  -4  -8   8    1.20    1.20
   3   8  -8   -0.70    1.10
   3   8  -8    0.60    1.10
   3   8  -8    1.10    1.50
  -3  -8   8    3.40    1.40
  -3  -8   8    0.90    1.40
  -3  -8   8   -0.70    1.00
   2   8  -8    8.30    1.50
   2   8  -8    6.40    1.20
   2   8  -8   10.10    1.30
  -2  -8   8   10.40    1.30
  -2  -8   8    9.80    1.20
  -2  -8   8    9.20    1.10
   1   8  -8   -1.50    1.20
   1   8  -8   -1.40    1.20
   1   8  -8    0.10    0.90
  -1  -8   8   -0.70    0.80
  -1  -8   8   -0.40    1.00
  -1  -8   8   -0.40    1.00
   0   8  -8   14.60    1.60
   0   8  -8   12.40    1.20
   0  -8   8   14.00    1.20
   0  -8   8    9.80    1.40
   0  -8   8   12.60    1.10
  -1   8  -8   17.90    1.80
  -1   8  -8   17.70    2.00
   1  -8   8   14.70    1.50
   1  -8   8   18.30    1.90
   1  -8   8   20.40    1.80
   6   7  -8   14.60    2.30
   6   7  -8   12.80    2.00
  -6  -7   8   11.20    1.60
  -6  -7   8   12.30    1.40
   5   7  -8   -0.30    1.40
   5   7  -8    1.10    1.50
  -5  -7   8   -0.10    1.20
  -5  -7   8   -0.80    1.00
   4   7  -8    0.20    1.20
   4   7  -8    0.90    1.00
   4   7  -8    1.20    1.30
  -4  -7   8    1.20    0.90
  -4  -7   8    0.30    1.50
  -4  -7   8    1.80    1.10
   3   7  -8    0.30    1.00
   3   7  -8    0.10    0.80
   3   7  -8    1.60    1.20
  -3  -7   8    0.60    0.80
  -3  -7   8   -0.20    1.00
  -3  -7   8    1.40    1.00
  -3  -7   8   -1.40    0.90
   2   7  -8   52.69    2.30
   2   7  -8   56.09    2.20
   2   7  -8   53.99    2.70
  -2  -7   8   53.19    2.30
  -2  -7   8   54.09    2.10
  -2  -7   8   58.59    2.20
  -2  -7   8   54.89    2.10
   1   7  -8    3.10    0.80
   1   7  -8    4.20    1.00
   1   7  -8    3.90    1.00
  -1  -7   8    3.30    0.80
  -1  -7   8    2.70    0.70
  -1  -7   8    1.00    0.90
  -1  -7   8    2.00    0.90
   0   7  -8    4.30    1.20
   0   7  -8    3.30    0.80
   0   7  -8    4.10    0.90
   0  -7   8    3.70    1.00
   0  -7   8    4.90    0.50
   0  -7   8    4.50    0.70
   0  -7   8    4.10    0.80
   0  -7   8    2.70    1.00
  -1   7  -8    6.30    1.40
  -1   7  -8    7.30    1.00
  -1   7  -8    5.10    1.00
   1  -7   8    6.90    1.00
   1  -7   8    8.10    1.10
   1  -7   8    6.10    0.70
   1  -7   8    6.50    1.20
   1  -7   8    7.20    0.70
  -2   7  -8    0.40    1.30
  -2   7  -8   -1.00    1.40
  -2   7  -8    0.20    0.90
  -2   7  -8   -1.00    1.30
   2  -7   8    0.50    0.80
   2  -7   8    1.10    1.20
   2  -7   8    0.50    0.90
  -3   7  -8   10.10    2.10
  -3   7  -8    6.30    1.20
  -3   7  -8    8.90    1.80
   3  -7   8   10.30    1.60
   3  -7   8    9.10    1.30
   3  -7   8    7.90    1.20
   6   6  -8    0.50    1.60
   6   6  -8   -0.90    1.80
  -6  -6   8    1.20    1.20
  -6  -6   8    1.50    1.10
   5   6  -8    2.70    1.10
   5   6  -8    0.00    1.30
   5   6  -8    4.00    1.50
  -5  -6   8    2.00    1.50
  -5  -6   8    2.00    1.30
  -5  -6   8    4.80    1.10
  -5  -6   8    3.10    0.90
   4   6  -8   78.39    3.10
   4   6  -8   87.19    2.90
   4   6  -8   88.39    2.80
   4   6  -8   79.59    3.00
   4   6  -8   85.59    3.00
  -4  -6   8   81.79    3.10
  -4  -6   8   81.59    2.70
  -4  -6   8   83.79    2.50
  -4  -6   8   86.39    3.00
  -4  -6   8   80.09    2.70
  -4  -6   8   80.79    2.80
   3   6  -8    2.00    0.80
   3   6  -8    1.30    1.10
   3   6  -8    1.70    1.00
   3   6  -8    2.20    0.90
   3   6  -8    1.50    1.00
  -3  -6   8    1.80    1.00
  -3  -6   8    2.10    0.80
  -3  -6   8    2.50    0.80
  -3  -6   8    2.60    0.70
  -3  -6   8    1.60    1.00
  -3  -6   8    2.20    0.80
   2   6  -8    0.00    0.80
   2   6  -8    0.30    0.80
   2   6  -8   -2.00    1.00
   2   6  -8    0.70    0.80
   2   6  -8    0.20    0.70
  -2  -6   8    0.30    0.70
  -2  -6   8    0.30    0.70
  -2  -6   8    0.20    0.80
  -2  -6   8   -0.30    0.70
  -2  -6   8    0.70    0.70
  -2  -6   8   -0.70    1.00
   1   6  -8   41.20    1.90
   1   6  -8   37.60    1.70
   1   6  -8   41.80    1.90
   1   6  -8   38.80    1.90
  -1  -6   8   40.70    2.00
  -1  -6   8   40.80    2.00
  -1  -6   8   41.90    1.50
  -1  -6   8   45.00    1.70
  -1  -6   8   40.60    1.60
  -1  -6   8   40.90    1.80
   0   6  -8   15.40    1.70
   0   6  -8   12.50    1.00
   0   6  -8   13.80    1.20
   0   6  -8   16.20    1.30
   0   6  -8   13.10    1.20
   0  -6   8   13.90    0.70
   0  -6   8   13.30    1.30
   0  -6   8   13.10    1.30
   0  -6   8   13.40    1.30
   0  -6   8   14.30    1.20
   0  -6   8   13.80    1.30
  -1   6  -8   14.40    1.40
  -1   6  -8   16.10    1.20
  -1   6  -8   14.50    1.40
  -1   6  -8   16.70    1.70
  -1   6  -8   14.50    1.30
  -1   6  -8   14.90    1.30
   1  -6   8   15.10    1.40
   1  -6   8   16.60    1.30
   1  -6   8   15.40    0.90
   1  -6   8   15.60    1.50
   1  -6   8   15.20    1.20
   1  -6   8   14.40    1.30
   1  -6   8   15.60    1.00
  -2   6  -8    6.00    0.90
  -2   6  -8    6.80    1.10
  -2   6  -8    5.20    1.10
  -2   6  -8    5.60    1.40
   2  -6   8    6.20    0.70
   2  -6   8    5.50    0.40
   2  -6   8    4.80    1.50
   2  -6   8    5.60    1.00
   2  -6   8    7.50    1.10
   2  -6   8    5.00    0.90
  -3   6  -8    6.20    1.50
  -3   6  -8    6.60    1.10
  -3   6  -8    4.40    1.30
  -3   6  -8    9.20    1.40
   3  -6   8    8.40    1.00
   3  -6   8    8.10    1.10
   3  -6   8    6.70    1.20
   3  -6   8    3.80    1.10
  -4   6  -8    0.30    1.20
  -4   6  -8   -0.30    1.50
   4  -6   8   -0.40    1.20
   4  -6   8    0.60    1.10
   4  -6   8   -0.80    1.30
   7   5  -8   39.10    4.00
   7   5  -8   51.79    3.90
  -7  -5   8   48.80    2.70
  -7  -5   8   48.80    2.80
   6   5  -8    1.20    1.30
   6   5  -8    0.20    1.30
   6   5  -8    1.40    1.60
  -6  -5   8    1.80    1.00
  -6  -5   8    0.70    1.10
  -6  -5   8    0.60    1.60
  -6  -5   8    3.40    1.30
  -6  -5   8    2.60    1.80
   5   5  -8    3.80    1.30
   5   5  -8    3.70    1.00
   5   5  -8    4.70    1.30
   5   5  -8    3.50    1.10
   5   5  -8    3.10    0.90
  -5  -5   8    3.00    0.90
  -5  -5   8    0.90    1.10
  -5  -5   8    5.70    1.10
  -5  -5   8    2.20    0.80
  -5  -5   8    1.60    1.20
   4   5  -8    8.00    1.20
   4   5  -8    7.40    1.00
   4   5  -8    6.30    1.10
   4   5  -8    5.50    1.00
   4   5  -8    6.30    0.90
  -4  -5   8    9.10    1.30
  -4  -5   8    5.20    1.10
  -4  -5   8    7.20    0.80
  -4  -5   8    6.60    1.10
  -4  -5   8    6.30    1.00
  -4  -5   8    6.70    1.00
   3   5  -8    1.10    0.80
   3   5  -8    0.90    0.70
   3   5  -8    1.10    0.90
  -3  -5   8    1.10    0.80
  -3  -5   8    1.70    0.80
  -3  -5   8    0.70    0.70
  -3  -5   8    0.60    0.60
  -3  -5   8    0.10    0.60
   2   5  -8  119.19    3.30
   2   5  -8  119.69    3.20
   2   5  -8  116.69    3.20
   2   5  -8  113.89    3.10
  -2  -5   8  115.09    3.20
  -2  -5   8  116.59    3.10
  -2  -5   8  119.79    2.90
  -2  -5   8  117.39    3.20
  -2  -5   8  115.19    3.20
   1   5  -8   22.70    1.30
   1   5  -8   19.90    1.30
   1   5  -8   22.60    1.30
   1   5  -8   21.70    1.40
   1   5  -8   20.40    1.60
  -1  -5   8   20.60    1.20
  -1  -5   8   17.10    1.20
  -1  -5   8   20.60    1.10
  -1  -5   8   22.50    1.30
  -1  -5   8   20.00    1.40
  -1  -5   8   20.50    1.50
   0   5  -8    0.40    0.70
   0   5  -8    0.80    0.40
   0   5  -8    1.80    0.80
   0   5  -8    1.40    1.00
   0   5  -8    0.10    0.50
   0  -5   8    0.50    0.40
   0  -5   8    0.20    0.80
   0  -5   8    0.80    0.80
   0  -5   8    0.90    0.30
   0  -5   8   -0.20    0.60
   0  -5   8    0.20    0.50
   0  -5   8    0.50    0.60
  -1   5  -8    3.20    0.90
  -1   5  -8    4.50    0.60
  -1   5  -8    4.50    0.90
  -1   5  -8    4.50    1.00
  -1   5  -8    4.70    0.70
   1  -5   8    4.20    0.80
   1  -5   8    5.30    1.20
   1  -5   8    4.40    0.70
   1  -5   8    4.40    0.50
   1  -5   8    4.40    0.50
   1  -5   8    4.50    0.70
   1  -5   8    3.60    0.90
  -2   5  -8    2.80    1.00
  -2   5  -8    2.40    0.50
  -2   5  -8    3.00    1.10
  -2   5  -8    1.60    0.70
  -2   5  -8    2.20    0.80
  -2   5  -8    1.90    0.80
   2  -5   8    2.60    0.50
   2  -5   8    3.30    0.80
   2  -5   8    1.70    0.90
   2  -5   8    3.20    0.40
   2  -5   8    1.30    1.20
   2  -5   8    3.90    0.80
  -3   5  -8    0.50    0.80
  -3   5  -8    2.10    1.00
  -3   5  -8   -0.70    0.90
  -3   5  -8    1.50    1.90
   3  -5   8    0.60    0.70
   3  -5   8    0.80    0.90
   3  -5   8    0.50    0.60
   3  -5   8    1.60    1.10
   3  -5   8    1.10    1.40
   3  -5   8    1.20    0.80
  -4   5  -8    1.80    1.00
  -4   5  -8    0.80    1.10
  -4   5  -8    3.10    1.40
   4  -5   8    1.30    1.10
   4  -5   8    1.90    0.90
   4  -5   8    1.10    0.90
   4  -5   8    2.70    0.90
   4  -5   8    2.30    1.90
  -5   5  -8    4.80    1.50
  -5   5  -8    4.70    1.30
   5  -5   8    3.90    1.20
   5  -5   8    3.20    1.20
   5  -5   8    4.00    1.20
   7   4  -8   16.40    2.10
   7   4  -8   28.00    2.40
  -7  -4   8   25.40    2.40
  -7  -4   8   23.60    2.20
  -7  -4   8   28.50    3.40
   6   4  -8    1.00    1.30
   6   4  -8    1.10    1.40
   6   4  -8    0.70    1.50
  -6  -4   8    1.80    1.00
  -6  -4   8    1.40    0.90
  -6  -4   8    1.50    1.40
  -6  -4   8    1.00    1.30
   5   4  -8   11.90    1.10
   5   4  -8   13.40    1.20
   5   4  -8   13.70    1.40
   5   4  -8   14.60    1.30
   5   4  -8   12.70    1.50
  -5  -4   8   12.70    1.50
  -5  -4   8   10.20    1.10
  -5  -4   8   10.90    1.20
  -5  -4   8   13.50    1.40
  -5  -4   8   13.90    1.00
  -5  -4   8   12.00    1.10
   4   4  -8    1.80    0.80
   4   4  -8    0.90    1.00
   4   4  -8    0.80    0.80
   4   4  -8    0.90    0.80
   4   4  -8    2.10    0.80
  -4  -4   8    1.20    0.70
  -4  -4   8    1.20    0.90
  -4  -4   8    1.20    0.80
  -4  -4   8    2.50    0.80
  -4  -4   8    1.40    0.60
  -4  -4   8    1.50    0.60
   3   4  -8  317.57    7.50
   3   4  -8  311.27    7.30
   3   4  -8  319.27    7.20
   3   4  -8  319.87    7.20
   3   4  -8  334.17    7.30
  -3  -4   8  320.97    7.10
  -3  -4   8  328.87    7.10
  -3  -4   8  322.57    7.30
  -3  -4   8  325.27    7.50
  -3  -4   8  318.17    7.10
  -3  -4   8  322.17    7.20
   2   4  -8    2.10    0.60
   2   4  -8    1.70    0.50
   2   4  -8    2.30    0.70
   2   4  -8    2.10    0.60
   2   4  -8    1.80    0.70
  -2  -4   8    2.70    0.60
  -2  -4   8    2.90    0.70
  -2  -4   8    1.60    0.60
  -2  -4   8    1.70    0.50
  -2  -4   8    2.10    0.50
  -2  -4   8    2.10    0.50
   1   4  -8    1.10    0.50
   1   4  -8    1.40    0.60
   1   4  -8    1.40    0.60
   1   4  -8    2.30    0.60
   1   4  -8    1.60    0.30
   1   4  -8    1.20    0.60
  -1  -4   8    1.70    0.50
  -1  -4   8    0.90    0.50
  -1  -4   8    3.00    0.70
  -1  -4   8    0.90    0.60
  -1  -4   8    1.70    0.60
  -1  -4   8    1.50    0.50
   0   4  -8  368.96    8.10
   0   4  -8  362.26    8.10
   0   4  -8  359.86    8.00
   0   4  -8  364.46    8.00
   0   4  -8  355.56    7.60
   0   4  -8  364.56    7.80
   0  -4   8  361.46    7.80
   0  -4   8  350.86    7.60
   0  -4   8  363.86    7.70
   0  -4   8  362.86    7.90
   0  -4   8  364.26    7.90
   0  -4   8  358.76    8.10
   0  -4   8  354.56    8.10
  -1   4  -8  215.08    5.10
  -1   4  -8  209.28    4.70
  -1   4  -8  210.98    5.00
  -1   4  -8  210.78    5.10
  -1   4  -8  213.18    5.00
  -1   4  -8  206.08    5.10
  -1   4  -8  212.18    4.70
   1  -4   8  210.98    4.90
   1  -4   8  214.38    4.90
   1  -4   8  216.68    4.90
   1  -4   8  212.28    5.00
   1  -4   8  209.28    4.60
   1  -4   8  212.58    4.60
   1  -4   8  219.28    5.20
  -2   4  -8   29.30    1.50
  -2   4  -8   29.10    1.70
  -2   4  -8   28.10    1.40
  -2   4  -8   30.20    1.90
  -2   4  -8   29.80    1.10
  -2   4  -8   29.10    1.40
   2  -4   8   28.40    1.50
   2  -4   8   28.90    1.10
   2  -4   8   27.30    1.40
   2  -4   8   28.10    1.00
   2  -4   8   27.80    1.30
   2  -4   8   33.00    1.90
   2  -4   8   27.90    1.50
  -3   4  -8   -0.60    0.70
  -3   4  -8   -0.30    0.70
  -3   4  -8   -0.30    0.80
  -3   4  -8    0.00    0.40
  -3   4  -8    1.10    1.00
  -3   4  -8   -0.90    0.90
   3  -4   8   -0.10    0.70
   3  -4   8   -0.80    0.70
   3  -4   8   -0.10    0.50
   3  -4   8   -0.30    0.60
   3  -4   8    0.00    1.10
   3  -4   8    0.90    0.60
  -4   4  -8    0.40    1.10
  -4   4  -8   -0.10    0.90
  -4   4  -8    2.00    0.90
  -4   4  -8   -0.70    1.10
   4  -4   8    2.20    0.70
   4  -4   8    1.20    0.90
   4  -4   8    1.80    1.40
   4  -4   8    0.40    0.70
   4  -4   8    1.30    0.90
  -5   4  -8    1.90    1.40
  -5   4  -8    2.10    1.40
  -5   4  -8    0.40    1.10
  -5   4  -8    1.50    1.10
   5  -4   8    2.30    1.80
   5  -4   8    2.20    1.60
   5  -4   8    1.30    0.90
   5  -4   8    2.20    1.10
   5  -4   8    2.40    1.20
   5  -4   8    1.30    0.90
  -6   4  -8   22.90    1.80
  -6   4  -8   17.90    1.80
   6  -4   8   20.00    1.50
   6  -4   8   28.60    3.20
   6  -4   8   25.60    2.20
   6  -4   8   24.70    2.00
   7   3  -8    2.50    1.90
   7   3  -8    2.90    0.90
   7   3  -8    0.20    2.00
  -7  -3   8    3.00    1.10
  -7  -3   8    1.90    1.80
  -7  -3   8    4.40    2.00
  -7  -3   8    3.30    1.40
   6   3  -8   51.69    2.60
   6   3  -8   52.69    1.60
   6   3  -8   55.59    1.60
   6   3  -8   58.79    2.80
   6   3  -8   50.29    2.80
   6   3  -8   53.99    2.90
   6   3  -8   52.09    3.20
  -6  -3   8   54.89    2.30
  -6  -3   8   50.59    2.40
  -6  -3   8   54.49    3.30
   5   3  -8    7.90    1.30
   5   3  -8    7.20    1.10
   5   3  -8    7.40    0.70
   5   3  -8    7.90    1.20
   5   3  -8    8.70    0.70
   5   3  -8    9.60    1.00
   5   3  -8    9.30    1.20
  -5  -3   8    7.90    0.80
  -5  -3   8    7.10    1.30
  -5  -3   8    8.40    1.00
  -5  -3   8    7.20    0.90
  -5  -3   8    8.50    1.10
   4   3  -8   21.60    0.80
   4   3  -8   21.80    1.60
   4   3  -8   21.00    1.40
   4   3  -8   19.50    1.30
   4   3  -8   22.20    0.70
   4   3  -8   23.90    1.60
   4   3  -8   22.30    1.80
  -4  -3   8   21.30    1.20
  -4  -3   8   22.30    1.60
  -4  -3   8   21.30    1.90
  -4  -3   8   20.20    1.30
  -4  -3   8   21.30    1.40
   3   3  -8   13.10    1.10
   3   3  -8   12.90    1.20
   3   3  -8   14.00    1.50
   3   3  -8   11.80    1.10
   3   3  -8   11.00    0.90
  -3  -3   8   14.00    0.90
  -3  -3   8   13.10    1.00
  -3  -3   8   13.90    1.40
  -3  -3   8   14.00    1.40
  -3  -3   8   12.30    0.90
  -3  -3   8   12.30    1.20
   2   3  -8   17.20    1.10
   2   3  -8   17.60    1.10
   2   3  -8   18.10    1.10
   2   3  -8   17.40    0.50
   2   3  -8   16.10    1.20
   2   3  -8   16.70    0.60
   2   3  -8   17.40    1.10
  -2  -3   8   17.20    1.10
  -2  -3   8   15.40    1.00
  -2  -3   8   16.50    1.00
  -2  -3   8   18.00    1.20
  -2  -3   8   17.50    0.90
  -2  -3   8   16.20    1.10
   1   3  -8  131.09    3.30
   1   3  -8  131.79    2.80
   1   3  -8  130.69    3.20
   1   3  -8  122.49    3.30
   1   3  -8  128.49    3.10
  -1  -3   8  130.99    3.30
  -1  -3   8  128.19    3.10
  -1  -3   8  124.79    3.00
  -1  -3   8  126.39    3.30
  -1  -3   8  129.19    3.20
  -1  -3   8  129.09    3.10
   0   3  -8  356.16    7.80
   0   3  -8  354.36    7.90
   0   3  -8  365.06    8.00
   0   3  -8  355.76    7.60
   0   3  -8  358.06    7.70
   0   3  -8  358.36    7.90
   0   3  -8  333.77    7.90
   0  -3   8  367.06    8.00
   0  -3   8  357.16    7.80
   0  -3   8  349.67    7.50
   0  -3   8  363.46    7.90
   0  -3   8  367.16    7.70
   0  -3   8  366.46    7.80
   0  -3   8  369.36    7.60
  -1   3  -8   44.60    1.40
  -1   3  -8   45.50    1.60
  -1   3  -8   44.80    1.40
  -1   3  -8   43.90    1.50
  -1   3  -8   45.90    2.10
  -1   3  -8   45.40    1.70
  -1   3  -8   47.20    1.70
   1  -3   8   51.09    1.50
   1  -3   8   46.00    1.80
   1  -3   8   43.80    1.60
   1  -3   8   47.00    1.40
   1  -3   8   45.50    1.50
   1  -3   8   45.20    1.30
   1  -3   8   44.90    1.20
  -2   3  -8    0.30    0.30
  -2   3  -8    0.80    0.50
  -2   3  -8    1.10    0.70
  -2   3  -8    1.10    0.70
  -2   3  -8    1.10    0.50
  -2   3  -8    0.80    0.50
   2  -3   8    1.50    0.60
   2  -3   8    1.50    0.60
   2  -3   8    0.50    0.40
   2  -3   8    0.80    0.40
   2  -3   8    1.30    0.50
   2  -3   8    1.40    0.80
   2  -3   8    0.80    0.30
  -3   3  -8  136.39    3.60
  -3   3  -8  143.79    3.20
  -3   3  -8  152.18    4.00
  -3   3  -8  141.49    3.60
  -3   3  -8  144.89    3.70
  -3   3  -8  139.79    3.90
   3  -3   8  143.89    4.00
   3  -3   8  142.49    3.60
   3  -3   8  143.09    3.40
   3  -3   8  146.59    3.60
   3  -3   8  143.39    3.40
   3  -3   8  143.19    3.70
  -4   3  -8   43.60    2.50
  -4   3  -8   47.70    2.00
  -4   3  -8   52.79    2.50
  -4   3  -8   48.30    1.20
  -4   3  -8   48.30    2.00
  -4   3  -8   49.70    1.90
   4  -3   8   47.50    1.70
   4  -3   8   49.00    1.70
   4  -3   8   48.00    1.90
   4  -3   8   46.00    1.90
   4  -3   8   49.80    2.60
   4  -3   8   49.40    2.10
  -5   3  -8    3.10    1.20
  -5   3  -8    2.20    1.20
  -5   3  -8    1.00    1.00
  -5   3  -8    2.30    1.00
   5  -3   8    3.70    1.60
   5  -3   8    1.80    1.00
   5  -3   8    0.90    0.70
   5  -3   8    2.10    0.70
   5  -3   8    2.30    1.10
   5  -3   8    2.30    1.00
   5  -3   8    1.60    1.00
  -6   3  -8   49.10    3.50
  -6   3  -8   43.90    2.40
  -6   3  -8   49.50    2.70
   6  -3   8   48.60    2.70
   6  -3   8   47.60    2.50
   6  -3   8   49.20    2.80
   6  -3   8   48.20    3.80
   6  -3   8   48.50    2.10
   6  -3   8   49.30    2.20
  -7   3  -8   20.50    1.90
  -7   3  -8   28.90    3.20
   7  -3   8   23.40    2.70
   7  -3   8   25.10    2.20
   7  -3   8   18.20    1.50
   7  -3   8   25.80    2.10
   7  -3   8   21.10    1.50
   7   2  -8    6.70    2.30
   7   2  -8    7.20    1.80
   7   2  -8    9.00    1.10
  -7  -2   8    7.10    1.60
  -7  -2   8    8.90    2.30
  -7  -2   8    6.10    1.10
  -7  -2   8    8.50    3.30
   6   2  -8   44.30    4.40
   6   2  -8   51.29    2.70
   6   2  -8   48.90    2.70
   6   2  -8   48.90    1.80
  -6  -2   8   47.80    2.80
  -6  -2   8   49.00    1.90
  -6  -2   8   47.80    3.20
  -6  -2   8   50.89    2.40
   5   2  -8    4.60    1.10
   5   2  -8    4.30    0.60
   5   2  -8    3.80    1.10
   5   2  -8    2.30    0.80
   5   2  -8    4.10    1.00
   5   2  -8    4.70    1.40
  -5  -2   8    4.60    0.90
  -5  -2   8    5.30    1.40
  -5  -2   8    3.60    0.70
  -5  -2   8    3.30    0.90
   4   2  -8    4.70    0.80
   4   2  -8    3.70    0.50
   4   2  -8    3.20    0.60
   4   2  -8    4.40    0.90
   4   2  -8    3.10    0.40
   4   2  -8    2.20    0.80
  -4  -2   8    3.20    0.90
  -4  -2   8    4.30    0.70
  -4  -2   8    3.60    0.60
  -4  -2   8    3.90    0.60
  -4  -2   8    4.70    0.80
  -4  -2   8    5.90    1.10
   3   2  -8    9.50    0.90
   3   2  -8    9.30    0.60
   3   2  -8   10.00    1.10
   3   2  -8    6.80    0.70
   3   2  -8   10.80    1.20
   3   2  -8   10.10    0.80
   3   2  -8    8.20    0.70
  -3  -2   8    9.90    0.80
  -3  -2   8    5.90    0.60
  -3  -2   8    9.80    0.90
  -3  -2   8   10.10    0.80
  -3  -2   8   10.40    1.10
  -3  -2   8    8.20    0.60
   2   2  -8    5.80    0.60
   2   2  -8    4.90    0.40
   2   2  -8    4.10    0.50
   2   2  -8    5.40    0.40
   2   2  -8    6.90    0.80
   2   2  -8    5.20    0.70
   2   2  -8    5.20    0.60
  -2  -2   8    4.80    0.60
  -2  -2   8    4.00    0.60
  -2  -2   8    5.30    0.50
  -2  -2   8    5.60    0.70
  -2  -2   8    5.10    0.50
   1   2  -8   40.00    1.30
   1   2  -8   39.90    1.30
   1   2  -8   38.80    1.00
   1   2  -8   41.40    1.50
   1   2  -8   38.70    1.50
   1   2  -8   39.30    1.40
  -1  -2   8   39.50    1.20
  -1  -2   8   38.90    1.50
  -1  -2   8   40.70    1.40
  -1  -2   8   36.70    1.20
  -1  -2   8   40.40    1.50
   0   2  -8    0.10    0.40
   0   2  -8    0.20    0.30
   0   2  -8   -0.10    0.40
   0   2  -8    0.30    0.40
   0   2  -8    0.50    0.40
   0   2  -8    0.40    0.40
   0   2  -8    0.30    0.30
   0  -2   8    0.40    0.20
   0  -2   8    0.30    0.40
   0  -2   8    0.30    0.40
   0  -2   8    0.20    0.40
   0  -2   8    0.50    0.50
   0  -2   8    0.10    0.30
   0  -2   8    0.70    0.30
  -1   2  -8  113.29    2.90
  -1   2  -8  111.89    2.80
  -1   2  -8  112.49    2.60
  -1   2  -8  116.79    2.70
  -1   2  -8  113.99    2.80
  -1   2  -8  113.99    2.90
  -1   2  -8  110.49    3.00
   1  -2   8  111.49    2.60
   1  -2   8  114.89    2.90
   1  -2   8  113.39    2.70
   1  -2   8  115.29    3.00
   1  -2   8  114.79    2.80
   1  -2   8  114.19    2.70
   1  -2   8  107.09    2.60
  -2   2  -8  115.19    3.00
  -2   2  -8  112.79    2.80
  -2   2  -8  113.89    2.60
  -2   2  -8  113.79    2.90
  -2   2  -8  111.79    3.10
  -2   2  -8  113.09    2.80
  -2   2  -8  110.19    2.90
   2  -2   8  112.99    2.80
   2  -2   8  112.29    2.80
   2  -2   8  111.09    2.90
   2  -2   8  112.69    2.70
   2  -2   8  115.09    2.60
   2  -2   8  116.59    3.10
   2  -2   8  110.49    2.60
  -3   2  -8   -0.70    0.80
  -3   2  -8    0.00    0.50
  -3   2  -8   -0.10    0.50
  -3   2  -8    1.10    0.60
  -3   2  -8    0.50    0.60
  -3   2  -8    0.10    0.30
   3  -2   8    0.40    0.50
   3  -2   8    0.30    0.50
   3  -2   8    0.10    0.40
   3  -2   8   -0.20    0.60
   3  -2   8    0.10    0.50
   3  -2   8    0.20    0.40
   3  -2   8   -0.10    0.40
  -4   2  -8   43.20    2.10
  -4   2  -8   41.20    2.10
  -4   2  -8   42.30    1.20
  -4   2  -8   42.10    1.70
  -4   2  -8   40.90    1.80
  -4   2  -8   43.20    1.80
   4  -2   8   42.50    2.30
   4  -2   8   40.80    1.80
   4  -2   8   43.00    1.50
   4  -2   8   41.60    1.70
   4  -2   8   42.70    1.60
   4  -2   8   41.00    1.40
  -5   2  -8    8.10    1.00
  -5   2  -8    5.80    1.10
  -5   2  -8    8.60    0.60
  -5   2  -8    8.60    0.60
  -5   2  -8    8.10    1.30
  -5   2  -8    8.70    1.00
  -5   2  -8    7.10    1.00
   5  -2   8    9.40    1.00
   5  -2   8    5.50    0.80
   5  -2   8   11.30    1.60
   5  -2   8    9.40    0.80
   5  -2   8    9.10    1.10
   5  -2   8    7.20    0.70
  -6   2  -8    0.10    0.90
  -6   2  -8    0.20    1.20
  -6   2  -8    0.10    0.30
  -6   2  -8    1.80    1.60
  -6   2  -8    1.60    1.20
  -6   2  -8    0.70    0.50
   6  -2   8   -0.40    1.20
   6  -2   8    0.10    1.60
   6  -2   8    1.70    1.00
   6  -2   8    0.00    0.90
   6  -2   8    0.70    0.70
   6  -2   8    0.30    1.10
   6  -2   8    0.90    0.80
  -7   2  -8   55.69    4.20
  -7   2  -8   50.69    2.70
  -7   2  -8   50.79    3.20
   7  -2   8   56.59    3.10
   7  -2   8   54.59    2.60
   7  -2   8   61.99    4.50
   7  -2   8   57.69    2.10
   7  -2   8   53.99    3.50
   7  -2   8   58.99    2.50
   7   1  -8   21.50    2.10
   7   1  -8   19.60    2.20
   7   1  -8   34.10    3.00
   7   1  -8   27.90    2.30
  -7  -1   8   24.50    2.10
  -7  -1   8   27.10    1.90
  -7  -1   8   27.60    2.60
   6   1  -8    3.60    1.40
   6   1  -8    5.70    1.40
   6   1  -8    5.80    1.30
   6   1  -8    4.80    1.00
   6   1  -8    3.80    1.10
  -6  -1   8    5.00    1.60
  -6  -1   8    6.00    1.90
  -6  -1   8    7.00    1.40
  -6  -1   8    5.80    0.80
   5   1  -8   24.00    1.60
   5   1  -8   26.00    1.60
   5   1  -8   25.40    2.30
   5   1  -8   23.80    1.80
   5   1  -8   27.10    2.10
   5   1  -8   24.50    1.70
  -5  -1   8   25.60    2.00
  -5  -1   8   28.50    2.40
  -5  -1   8   23.10    1.70
  -5  -1   8   25.20    1.20
  -5  -1   8   24.40    1.70
   4   1  -8    0.30    0.80
   4   1  -8    0.30    0.60
   4   1  -8    1.20    0.60
   4   1  -8    1.00    1.00
   4   1  -8    1.70    0.60
   4   1  -8    1.10    0.80
  -4  -1   8    1.50    0.40
  -4  -1   8    1.00    0.80
  -4  -1   8    1.40    0.70
   3   1  -8  126.49    3.00
   3   1  -8  124.59    3.10
   3   1  -8  128.59    3.40
   3   1  -8  126.59    3.20
   3   1  -8  128.79    2.90
   3   1  -8  129.19    3.20
   3   1  -8  123.89    3.50
  -3  -1   8  122.39    3.20
  -3  -1   8  123.09    3.30
  -3  -1   8  124.89    2.90
  -3  -1   8  129.09    2.90
  -3  -1   8  124.99    3.50
  -3  -1   8  124.49    3.10
   2   1  -8   38.20    1.60
   2   1  -8   39.70    1.10
   2   1  -8   40.70    1.40
   2   1  -8   42.00    1.30
   2   1  -8   39.30    1.20
   2   1  -8   40.20    1.60
   2   1  -8   40.90    1.40
  -2  -1   8   41.60    1.20
  -2  -1   8   38.00    1.60
  -2  -1   8   37.70    1.30
  -2  -1   8   41.30    1.60
  -2  -1   8   39.40    1.40
  -2  -1   8   39.10    1.20
   1   1  -8    2.20    0.30
   1   1  -8    1.30    0.40
   1   1  -8    2.00    0.50
   1   1  -8    1.80    0.50
   1   1  -8    1.50    0.40
   1   1  -8    2.00    0.40
  -1  -1   8    1.90    0.30
  -1  -1   8    2.20    0.50
  -1  -1   8    1.80    0.50
  -1  -1   8    2.20    0.50
  -1  -1   8    1.80    0.40
  -1  -1   8    2.60    0.50
   0   1  -8    0.80    0.30
   0   1  -8    1.70    0.30
   0   1  -8    1.20    0.30
   0   1  -8    0.00    0.30
   0   1  -8    1.20    0.50
   0   1  -8    1.10    0.40
   0   1  -8    1.60    0.40
   0  -1   8    1.30    0.40
   0  -1   8    0.90    0.30
   0  -1   8    1.10    0.40
   0  -1   8    0.90    0.30
   0  -1   8    1.00    0.30
   0  -1   8    0.40    0.40
   0  -1   8    0.60    0.30
  -1   1  -8    7.60    0.60
  -1   1  -8    6.50    0.60
  -1   1  -8    8.00    0.80
  -1   1  -8    8.30    0.80
  -1   1  -8    5.90    0.60
  -1   1  -8    8.60    0.70
  -1   1  -8    7.80    0.60
   1  -1   8    7.80    0.90
   1  -1   8    7.80    0.70
   1  -1   8    7.50    0.60
   1  -1   8    8.10    0.70
   1  -1   8    8.60    0.70
   1  -1   8    7.70    0.50
   1  -1   8    8.50    0.60
  -2   1  -8   76.99    2.00
  -2   1  -8   79.59    2.30
  -2   1  -8   78.19    2.00
  -2   1  -8   80.69    2.30
  -2   1  -8   77.89    2.00
  -2   1  -8   78.29    2.20
  -2   1  -8   77.69    1.90
   2  -1   8   77.09    1.90
   2  -1   8   78.59    2.30
   2  -1   8   77.49    2.20
   2  -1   8   81.79    2.10
   2  -1   8   78.49    2.00
   2  -1   8   79.29    1.90
   2  -1   8   79.29    2.00
  -3   1  -8    7.90    0.80
  -3   1  -8   10.70    1.00
  -3   1  -8   10.90    0.60
  -3   1  -8   10.70    0.90
  -3   1  -8   10.40    0.90
  -3   1  -8   11.80    1.00
  -3   1  -8   10.80    0.80
   3  -1   8   10.00    0.80
   3  -1   8    9.70    1.00
   3  -1   8   11.40    0.80
   3  -1   8   10.90    0.70
   3  -1   8   11.70    0.90
   3  -1   8   11.20    0.60
   3  -1   8   11.60    1.00
  -4   1  -8   60.49    2.30
  -4   1  -8   61.99    2.30
  -4   1  -8   60.29    2.00
  -4   1  -8   61.49    2.10
  -4   1  -8   63.29    1.60
  -4   1  -8   60.79    1.90
   4  -1   8   62.89    2.00
   4  -1   8   62.09    2.10
   4  -1   8   62.39    1.80
   4  -1   8   65.69    2.50
   4  -1   8   61.69    1.60
   4  -1   8   64.19    1.90
  -5   1  -8   40.00    1.90
  -5   1  -8   37.70    2.30
  -5   1  -8   36.60    1.70
  -5   1  -8   36.60    1.60
  -5   1  -8   42.10    2.30
  -5   1  -8   39.10    1.20
   5  -1   8   39.20    1.90
   5  -1   8   41.90    1.80
   5  -1   8   37.60    1.30
   5  -1   8   42.80    2.40
   5  -1   8   39.50    1.50
   5  -1   8   36.30    1.60
  -6   1  -8   22.30    1.20
  -6   1  -8   24.00    2.00
  -6   1  -8   20.30    1.50
  -6   1  -8   19.90    0.90
  -6   1  -8   21.20    1.90
  -6   1  -8   20.90    2.00
   6  -1   8   19.50    1.50
   6  -1   8   19.40    1.50
   6  -1   8   20.90    1.10
   6  -1   8   18.10    1.60
   6  -1   8   17.90    1.90
   6  -1   8   17.90    2.90
   6  -1   8   22.20    1.70
  -7   1  -8    3.40    0.50
  -7   1  -8    2.30    0.70
  -7   1  -8    1.40    1.40
  -7   1  -8    3.70    2.10
  -7   1  -8    2.00    1.00
   7  -1   8    3.90    1.90
   7  -1   8    3.00    0.90
   7  -1   8    2.50    1.00
   7  -1   8    3.10    0.70
   7  -1   8    2.20    1.10
   7  -1   8    4.70    1.50
  -8   1  -8    9.40    1.40
  -8   1  -8   12.30    1.90
   8  -1   8   13.10    2.90
   8  -1   8   12.20    1.60
   8  -1   8   12.80    1.00
   8  -1   8   12.30    2.00
   8  -1   8   13.60    1.90
   6   0  -8   11.80    1.30
   6   0  -8   12.20    1.50
   6   0  -8    9.10    1.60
   6   0  -8   13.30    2.10
  -6   0   8   11.20    1.70
  -6   0   8    8.80    1.70
  -6   0   8   11.30    0.90
  -6   0   8   10.20    1.50
   5   0  -8    0.20    1.20
   5   0  -8    0.90    1.00
   5   0  -8    1.00    1.00
   5   0  -8   -0.50    0.80
   5   0  -8    0.30    0.90
   5   0  -8    0.90    0.90
  -5   0   8    0.10    0.50
  -5   0   8    0.60    1.20
  -5   0   8   -0.20    0.80
  -5   0   8    1.70    1.10
  -5   0   8   -0.30    1.00
   4   0  -8    0.10    0.60
   4   0  -8    1.10    0.70
   4   0  -8    0.00    0.70
   4   0  -8   -0.50    1.00
   4   0  -8   -0.10    0.90
   4   0  -8    0.30    0.70
  -4   0   8    0.70    0.70
  -4   0   8    0.30    0.80
  -4   0   8   -0.40    0.90
  -4   0   8    0.20    0.40
   3   0  -8    8.90    0.70
   3   0  -8   11.50    1.10
   3   0  -8   10.40    1.10
   3   0  -8   12.00    0.90
   3   0  -8    9.70    0.80
   3   0  -8   12.20    1.00
  -3   0   8    9.00    0.70
  -3   0   8    9.50    0.60
  -3   0   8   10.00    0.80
  -3   0   8    9.90    0.60
  -3   0   8   10.60    1.20
  -3   0   8   11.40    1.10
   2   0  -8   34.10    1.30
   2   0  -8   33.60    1.20
   2   0  -8   34.70    1.20
   2   0  -8   35.30    1.40
   2   0  -8   34.60    1.60
   2   0  -8   35.10    1.50
   2   0  -8   35.30    1.30
  -2   0   8   34.30    0.90
  -2   0   8   37.90    1.50
  -2   0   8   35.40    1.30
  -2   0   8   33.20    1.20
  -2   0   8   34.90    0.90
  -2   0   8   35.60    1.60
   1   0  -8    5.60    0.60
   1   0  -8    4.00    0.60
   1   0  -8    3.70    0.40
   1   0  -8    5.10    0.40
   1   0  -8    3.90    0.50
  -1   0   8    5.30    0.60
  -1   0   8    5.10    0.40
  -1   0   8    5.00    0.40
  -1   0   8    5.40    0.70
  -1   0   8    3.70    0.50
   0   0  -8  216.48    4.80
   0   0  -8  218.78    5.00
   0   0  -8  217.18    4.90
   0   0  -8  220.68    4.80
   0   0  -8  216.98    4.70
   0   0   8  218.48    4.80
   0   0   8  213.48    5.00
   0   0   8  221.98    4.60
   0   0   8  218.78    4.80
   0   0   8  224.58    5.00
   0   0   8  212.68    4.90
  -1   0  -8   10.80    0.80
  -1   0  -8   10.60    0.60
  -1   0  -8   10.90    0.60
  -1   0  -8   11.20    0.90
  -1   0  -8   11.00    0.70
  -1   0  -8   11.10    0.60
  -1   0  -8   12.40    0.80
   1   0   8   11.20    0.50
   1   0   8   11.00    0.60
   1   0   8   11.40    0.80
   1   0   8   11.70    0.70
   1   0   8    9.80    0.70
   1   0   8   10.60    0.60
   1   0   8   12.10    0.90
  -2   0  -8    8.60    0.60
  -2   0  -8    8.50    0.80
  -2   0  -8    9.20    0.60
  -2   0  -8    8.60    0.90
  -2   0  -8    9.10    0.60
  -2   0  -8    8.10    0.80
  -2   0  -8    9.00    0.60
   2   0   8    8.70    0.60
   2   0   8    8.30    0.90
   2   0   8    6.40    0.50
   2   0   8    8.60    0.70
   2   0   8    9.50    0.70
   2   0   8    8.00    0.50
   2   0   8    8.40    0.60
  -3   0  -8   29.00    1.00
  -3   0  -8   27.70    1.10
  -3   0  -8   27.40    1.00
  -3   0  -8   28.90    0.90
  -3   0  -8   29.50    1.30
  -3   0  -8   29.60    1.40
  -3   0  -8   29.60    1.30
   3   0   8   28.40    1.10
   3   0   8   29.00    1.20
   3   0   8   28.40    0.90
   3   0   8   30.50    1.50
   3   0   8   27.60    1.10
   3   0   8   27.80    1.00
   3   0   8   27.80    1.10
  -4   0  -8   52.59    2.10
  -4   0  -8   52.89    1.60
  -4   0  -8   51.59    1.70
  -4   0  -8   53.49    1.40
  -4   0  -8   51.09    1.90
  -4   0  -8   50.19    2.00
   4   0   8   50.99    1.80
   4   0   8   53.69    1.70
   4   0   8   52.19    1.30
   4   0   8   48.70    1.60
   4   0   8   49.20    2.10
   4   0   8   51.99    1.60
  -5   0  -8   71.59    2.30
  -5   0  -8   73.09    2.70
  -5   0  -8   76.89    1.90
  -5   0  -8   73.49    2.50
  -5   0  -8   73.79    2.70
  -5   0  -8   74.49    2.20
   5   0   8   74.99    2.10
   5   0   8   75.39    2.30
   5   0   8   75.69    2.80
   5   0   8   77.79    1.80
   5   0   8   73.89    2.20
   5   0   8   75.79    2.40
  -6   0  -8   56.29    2.90
  -6   0  -8   58.19    2.00
  -6   0  -8   59.99    2.90
  -6   0  -8   65.69    2.50
  -6   0  -8   56.09    2.40
  -6   0  -8   61.19    2.00
  -6   0  -8   60.29    1.70
   6   0   8   59.89    1.80
   6   0   8   59.19    2.20
   6   0   8   59.89    1.60
   6   0   8   58.49    2.40
   6   0   8   63.19    2.90
   6   0   8   60.09    2.00
   6   0   8   58.39    2.10
  -7   0  -8    2.20    0.90
  -7   0  -8    2.80    1.20
  -7   0  -8    3.90    1.60
  -7   0  -8    3.30    0.60
  -7   0  -8    2.40    1.30
   7   0   8    2.50    1.10
   7   0   8    3.40    0.60
   7   0   8    3.10    1.30
   7   0   8    4.20    0.50
   7   0   8    4.10    0.90
   7   0   8    3.10    1.10
   7   0   8    2.80    1.70
  -8   0  -8   37.30    2.30
  -8   0  -8   34.10    2.80
  -8   0  -8   40.80    1.60
  -8   0  -8   37.90    3.10
  -8   0  -8   38.40    2.00
   8   0   8   41.50    1.40
   8   0   8   42.30    4.10
   8   0   8   44.40    2.70
   8   0   8   40.60    1.50
   8   0   8   42.20    3.10
   8   0   8   40.20    2.30
   6  -1  -8    2.30    2.00
   6  -1  -8   -0.20    1.30
   6  -1  -8   -0.60    1.60
   6  -1  -8   -2.20    1.40
  -6   1   8   -0.10    1.80
  -6   1   8   -3.00    1.70
  -6   1   8    1.00    0.70
   5  -1  -8    2.90    1.10
   5  -1  -8    1.40    1.30
   5  -1  -8    5.00    1.00
   5  -1  -8    2.20    1.30
   5  -1  -8    4.40    1.00
  -5   1   8    4.00    1.30
  -5   1   8    3.20    0.50
  -5   1   8    3.40    1.10
  -5   1   8    4.30    1.60
  -5   1   8    1.70    0.90
   4  -1  -8   48.00    2.00
   4  -1  -8   46.20    1.90
   4  -1  -8   50.69    2.30
   4  -1  -8   46.90    2.20
   4  -1  -8   47.80    1.90
   4  -1  -8   47.70    2.50
  -4   1   8   49.40    2.20
  -4   1   8   45.60    1.80
  -4   1   8   47.60    1.30
  -4   1   8   47.80    2.50
   3  -1  -8   88.09    2.50
   3  -1  -8   93.69    3.00
   3  -1  -8   89.09    2.50
   3  -1  -8   90.29    2.70
   3  -1  -8   91.29    2.50
   3  -1  -8   87.49    2.50
  -3   1   8   91.89    2.70
  -3   1   8   88.29    2.00
  -3   1   8   88.39    2.90
  -3   1   8   87.69    1.90
  -3   1   8   89.59    2.60
  -3   1   8   87.89    2.40
   2  -1  -8   32.40    1.30
   2  -1  -8   35.40    1.30
   2  -1  -8   34.50    1.70
   2  -1  -8   39.10    1.70
   2  -1  -8   35.40    1.30
   2  -1  -8   37.80    1.40
   2  -1  -8   36.80    1.40
  -2   1   8   35.20    1.30
  -2   1   8   36.70    1.70
  -2   1   8   36.00    1.40
  -2   1   8   35.10    1.50
   1  -1  -8   40.40    1.50
   1  -1  -8   40.10    1.30
   1  -1  -8   41.90    1.30
   1  -1  -8   41.30    1.40
   1  -1  -8   39.70    1.50
   1  -1  -8   42.20    1.40
  -1   1   8   40.20    1.40
  -1   1   8   40.80    1.40
  -1   1   8   40.80    1.30
  -1   1   8   42.90    1.60
   0  -1  -8   14.60    0.90
   0  -1  -8   15.40    0.80
   0  -1  -8   16.00    0.80
   0  -1  -8   15.60    0.80
   0  -1  -8   13.90    0.90
   0  -1  -8   14.90    0.80
   0   1   8   15.20    0.90
   0   1   8   15.00    0.90
   0   1   8   15.60    0.80
   0   1   8   15.30    0.80
   0   1   8   15.40    0.80
   0   1   8   15.70    0.40
  -1  -1  -8   59.29    1.50
  -1  -1  -8   56.19    1.40
  -1  -1  -8   58.39    1.60
  -1  -1  -8   58.89    1.60
  -1  -1  -8   57.09    1.70
  -1  -1  -8   57.59    1.60
  -1  -1  -8   59.29    1.70
   1   1   8   64.49    1.40
   1   1   8   59.89    1.60
   1   1   8   58.09    1.60
   1   1   8   58.59    1.70
   1   1   8   58.59    1.60
   1   1   8   57.69    1.70
   1   1   8   57.29    1.60
  -2  -1  -8   43.40    1.20
  -2  -1  -8   45.20    1.30
  -2  -1  -8   44.00    1.40
  -2  -1  -8   41.80    1.50
  -2  -1  -8   43.10    1.20
  -2  -1  -8   42.00    1.20
  -2  -1  -8   43.50    1.40
   2   1   8   45.80    1.50
   2   1   8   41.60    1.30
   2   1   8   42.50    1.20
   2   1   8   43.40    1.40
   2   1   8   42.20    1.40
   2   1   8   42.10    1.30
   2   1   8   43.30    1.20
  -3  -1  -8   39.60    1.50
  -3  -1  -8   41.00    1.30
  -3  -1  -8   39.40    1.40
  -3  -1  -8   40.10    1.20
  -3  -1  -8   38.50    1.20
  -3  -1  -8   39.50    1.10
  -3  -1  -8   40.90    1.50
   3   1   8   39.60    1.00
   3   1   8   39.00    1.20
   3   1   8   39.80    1.40
   3   1   8   34.00    1.40
   3   1   8   39.50    1.20
   3   1   8   41.90    1.60
  -4  -1  -8    2.50    0.50
  -4  -1  -8    2.00    0.40
  -4  -1  -8    4.00    0.80
  -4  -1  -8    1.90    0.40
  -4  -1  -8    2.00    0.60
  -4  -1  -8    2.20    0.70
   4   1   8    2.10    0.50
   4   1   8    3.60    0.60
   4   1   8    1.50    0.70
   4   1   8    1.70    0.40
   4   1   8    1.80    0.50
   4   1   8    2.30    0.30
  -5  -1  -8    8.80    0.70
  -5  -1  -8    7.60    1.00
  -5  -1  -8    7.80    1.10
  -5  -1  -8    7.80    0.90
  -5  -1  -8    8.30    0.80
  -5  -1  -8    8.70    0.80
   5   1   8    9.40    1.00
   5   1   8    9.40    0.70
   5   1   8    9.10    0.90
   5   1   8    7.00    1.00
   5   1   8    6.20    0.70
   5   1   8    9.00    0.40
  -6  -1  -8    1.10    1.10
  -6  -1  -8   -0.70    1.10
  -6  -1  -8    0.00    0.60
  -6  -1  -8    0.30    0.50
  -6  -1  -8    0.50    0.70
  -6  -1  -8    0.20    0.80
  -6  -1  -8   -0.40    0.80
   6   1   8    0.00    0.30
   6   1   8    0.00    0.20
   6   1   8    0.60    0.70
   6   1   8   -0.10    0.80
   6   1   8    1.50    1.10
   6   1   8    0.40    1.00
   6   1   8    0.10    0.70
  -7  -1  -8    1.20    1.20
  -7  -1  -8    0.10    1.20
  -7  -1  -8    0.20    0.60
  -7  -1  -8   -0.50    0.80
  -7  -1  -8    0.00    0.90
  -7  -1  -8    0.30    0.80
   7   1   8    0.40    0.30
   7   1   8   -0.30    0.90
   7   1   8    0.70    0.90
   7   1   8   -0.40    1.40
   7   1   8    0.50    1.10
   7   1   8    0.00    0.20
   7   1   8    0.50    0.70
  -8  -1  -8    3.30    2.20
  -8  -1  -8    2.00    1.10
  -8  -1  -8    0.40    0.70
  -8  -1  -8    1.40    1.30
  -8  -1  -8    1.10    1.10
   8   1   8    2.50    1.20
   8   1   8    0.40    1.60
   8   1   8    2.30    1.10
   8   1   8    0.60    1.50
  -9  -1  -8   12.00    2.40
  -9  -1  -8   10.50    1.60
  -9  -1  -8   11.20    1.30
  -9  -1  -8   13.20    3.10
   9   1   8   11.00    2.20
   9   1   8    9.20    1.50
   6  -2  -8   18.60    1.80
   6  -2  -8   18.10    1.90
  -6   2   8   18.60    2.60
  -6   2   8   11.00    2.30
   5  -2  -8   16.60    1.70
   5  -2  -8   17.50    1.50
   5  -2  -8   18.60    2.10
   5  -2  -8   16.80    1.80
   5  -2  -8   18.30    1.40
  -5   2   8   20.80    2.30
  -5   2   8   17.90    2.00
  -5   2   8   15.30    0.90
  -5   2   8   17.20    1.20
  -5   2   8   19.70    2.10
   4  -2  -8   10.80    1.40
   4  -2  -8    8.50    1.20
   4  -2  -8   11.00    1.30
   4  -2  -8    9.30    1.10
   4  -2  -8   10.60    1.00
   4  -2  -8   13.20    1.20
  -4   2   8   10.20    1.30
  -4   2   8   13.00    1.50
  -4   2   8    9.40    0.90
   3  -2  -8    3.70    0.70
   3  -2  -8    2.20    0.80
   3  -2  -8    4.00    1.00
   3  -2  -8    2.60    0.60
   3  -2  -8    3.50    0.70
   3  -2  -8    3.70    0.90
  -3   2   8    2.70    0.90
  -3   2   8    4.10    0.80
  -3   2   8    3.80    0.70
  -3   2   8    3.80    1.00
   2  -2  -8  229.78    5.30
   2  -2  -8  233.58    5.20
   2  -2  -8  230.68    5.40
   2  -2  -8  231.18    5.30
   2  -2  -8  227.48    5.10
   2  -2  -8  230.18    5.60
  -2   2   8  224.58    5.10
  -2   2   8  227.88    5.40
  -2   2   8  232.38    5.30
  -2   2   8  226.98    5.50
   1  -2  -8   34.20    1.30
   1  -2  -8   32.00    1.20
   1  -2  -8   34.30    1.20
   1  -2  -8   34.10    1.50
   1  -2  -8   32.70    1.20
   1  -2  -8   34.20    1.30
  -1   2   8   31.70    1.50
  -1   2   8   35.20    1.20
  -1   2   8   30.60    1.40
   0  -2  -8   86.09    2.20
   0  -2  -8   86.39    2.20
   0  -2  -8   85.99    2.30
   0  -2  -8   90.69    2.20
   0  -2  -8   87.59    2.30
   0  -2  -8   87.79    2.20
   0   2   8   84.09    2.30
   0   2   8   85.29    2.30
  -1  -2  -8   96.09    2.10
  -1  -2  -8   99.19    2.40
  -1  -2  -8   99.39    2.40
  -1  -2  -8  100.49    2.50
  -1  -2  -8  101.39    2.50
  -1  -2  -8   99.79    2.30
  -1  -2  -8   95.79    2.40
   1   2   8  100.39    2.10
   1   2   8  100.79    2.50
   1   2   8  100.09    2.40
   1   2   8  100.39    2.40
   1   2   8   99.39    2.60
   1   2   8   96.09    2.50
  -2  -2  -8    6.50    0.60
  -2  -2  -8    7.10    0.50
  -2  -2  -8    7.00    0.50
  -2  -2  -8    8.40    0.70
  -2  -2  -8    8.20    0.70
  -2  -2  -8    7.60    0.60
  -2  -2  -8    7.40    0.80
   2   2   8    6.30    0.60
   2   2   8    7.50    0.60
   2   2   8    7.20    0.50
   2   2   8    6.30    0.50
   2   2   8    7.40    0.60
   2   2   8    7.60    0.70
  -3  -2  -8   62.39    1.80
  -3  -2  -8   56.19    2.10
  -3  -2  -8   60.69    1.40
  -3  -2  -8   61.29    1.60
  -3  -2  -8   61.49    1.70
  -3  -2  -8   58.79    1.80
  -3  -2  -8   60.29    1.90
   3   2   8   60.69    1.60
   3   2   8   60.69    1.50
   3   2   8   58.69    1.70
   3   2   8   56.69    1.70
   3   2   8   61.39    1.70
  -4  -2  -8    3.50    0.80
  -4  -2  -8    2.40    0.50
  -4  -2  -8    2.20    0.60
  -4  -2  -8    2.50    0.50
  -4  -2  -8    2.30    0.30
  -4  -2  -8    3.10    0.50
   4   2   8    2.20    0.60
   4   2   8    2.30    0.30
   4   2   8    3.00    0.50
   4   2   8    2.60    0.50
   4   2   8    3.10    0.50
  -5  -2  -8   19.60    1.40
  -5  -2  -8   20.30    1.50
  -5  -2  -8   21.50    1.10
  -5  -2  -8   22.70    1.10
  -5  -2  -8   18.10    1.20
  -5  -2  -8   20.00    1.60
   5   2   8   22.40    1.10
   5   2   8   21.60    1.10
   5   2   8   20.50    1.20
   5   2   8   19.40    1.10
   5   2   8   21.50    1.60
  -6  -2  -8    3.90    0.90
  -6  -2  -8    3.70    0.80
  -6  -2  -8    3.80    0.90
  -6  -2  -8    1.80    0.90
  -6  -2  -8    3.50    0.60
  -6  -2  -8    3.00    0.60
  -6  -2  -8    4.00    1.10
   6   2   8    4.70    0.70
   6   2   8    3.50    0.80
   6   2   8    4.30    0.90
   6   2   8    4.70    1.10
  -7  -2  -8   67.39    2.10
  -7  -2  -8   65.19    2.30
  -7  -2  -8   66.49    2.40
  -7  -2  -8   66.19    3.20
  -7  -2  -8   66.89    2.70
  -7  -2  -8   71.79    2.80
   7   2   8   62.79    3.50
   7   2   8   66.19    2.40
   7   2   8   67.99    2.20
   7   2   8   73.69    3.20
   7   2   8   68.19    2.50
  -8  -2  -8    2.50    1.00
  -8  -2  -8   -0.10    1.00
  -8  -2  -8    1.50    1.90
  -8  -2  -8    1.20    1.40
  -8  -2  -8    0.20    1.10
   8   2   8    0.80    1.00
   8   2   8    1.50    1.10
   8   2   8    1.30    1.60
   8   2   8    0.00    1.30
  -9  -2  -8   19.10    1.60
  -9  -2  -8   22.40    2.00
  -9  -2  -8   21.30    1.90
  -9  -2  -8   19.60    2.00
  -9  -2  -8   19.80    2.90
   9   2   8   27.20    2.30
   9   2   8   23.80    1.70
   5  -3  -8   15.70    1.40
   5  -3  -8   15.50    1.80
  -5   3   8   10.90    2.00
  -5   3   8   15.00    2.20
  -5   3   8   15.90    1.40
   4  -3  -8    1.80    1.10
   4  -3  -8    1.90    1.00
   4  -3  -8    2.40    0.90
   4  -3  -8    0.90    1.30
   4  -3  -8    1.70    1.50
  -4   3   8    1.70    1.50
  -4   3   8    2.60    1.70
  -4   3   8    0.80    0.80
  -4   3   8    1.80    1.40
   3  -3  -8   11.40    1.00
   3  -3  -8    9.30    1.10
   3  -3  -8   12.10    0.90
   3  -3  -8    8.80    1.10
   3  -3  -8    8.60    1.10
   3  -3  -8   11.20    1.10
  -3   3   8    8.60    1.20
  -3   3   8   10.00    0.90
  -3   3   8   11.60    1.40
  -3   3   8   11.10    1.00
   2  -3  -8    9.40    1.00
   2  -3  -8   10.50    1.00
   2  -3  -8   12.50    1.10
   2  -3  -8    9.30    0.70
   2  -3  -8   11.70    0.90
   2  -3  -8   10.00    0.90
  -2   3   8    8.40    1.10
  -2   3   8    8.30    0.70
  -2   3   8    7.60    1.00
  -2   3   8   10.30    1.10
   1  -3  -8    0.70    0.40
   1  -3  -8    0.00    0.50
   1  -3  -8    0.10    0.50
   1  -3  -8    0.80    0.60
   1  -3  -8    0.30    0.60
   1  -3  -8    0.40    0.60
   1  -3  -8    0.50    0.40
  -1   3   8    0.90    0.50
  -1   3   8    0.70    0.70
  -1   3   8    1.20    0.60
  -1   3   8    0.30    0.60
   0  -3  -8   13.40    0.90
   0  -3  -8   12.70    0.80
   0  -3  -8   13.20    0.80
   0  -3  -8   13.20    1.00
   0  -3  -8   12.60    1.00
   0  -3  -8   12.40    0.90
   0   3   8   13.40    0.90
   0   3   8   11.80    1.00
   0   3   8   12.50    1.10
   0   3   8   12.30    1.00
  -1  -3  -8   29.10    1.00
  -1  -3  -8   31.20    1.10
  -1  -3  -8   28.30    1.10
  -1  -3  -8   29.10    1.20
  -1  -3  -8   30.20    1.10
  -1  -3  -8   29.20    1.10
   1   3   8   29.10    1.10
   1   3   8   29.30    1.20
   1   3   8   29.10    1.20
   1   3   8   29.90    1.30
  -2  -3  -8   27.60    1.10
  -2  -3  -8   28.50    1.10
  -2  -3  -8   27.60    1.10
  -2  -3  -8   28.20    1.10
  -2  -3  -8   28.20    0.90
  -2  -3  -8   27.50    1.00
  -2  -3  -8   26.70    0.80
   2   3   8   26.80    1.00
   2   3   8   30.30    0.90
   2   3   8   27.90    1.20
   2   3   8   29.60    0.80
   2   3   8   26.90    1.10
  -3  -3  -8    8.50    0.80
  -3  -3  -8    8.50    0.90
  -3  -3  -8    8.90    0.80
  -3  -3  -8    8.60    0.80
  -3  -3  -8    9.20    0.80
  -3  -3  -8    9.00    0.60
  -3  -3  -8    8.50    0.50
   3   3   8    9.40    0.80
   3   3   8    8.20    0.80
   3   3   8    8.60    0.70
   3   3   8    8.50    0.60
   3   3   8    8.50    0.60
   3   3   8    7.90    0.70
  -4  -3  -8   69.89    1.90
  -4  -3  -8   66.29    1.80
  -4  -3  -8   68.09    2.10
  -4  -3  -8   66.99    2.20
  -4  -3  -8   67.29    2.00
  -4  -3  -8   71.69    2.00
  -4  -3  -8   68.69    1.50
   4   3   8   68.49    1.90
   4   3   8   68.49    1.60
   4   3   8   66.79    1.90
   4   3   8   70.49    2.20
   4   3   8   69.59    1.90
   4   3   8   67.39    1.80
  -5  -3  -8    0.50    0.50
  -5  -3  -8    0.00    0.40
  -5  -3  -8    0.10    0.50
  -5  -3  -8    0.00    0.60
  -5  -3  -8   -0.10    0.70
  -5  -3  -8    0.00    0.50
   5   3   8    0.10    0.50
   5   3   8    0.60    0.70
   5   3   8    0.40    0.50
   5   3   8    0.20    0.40
   5   3   8    0.20    0.40
  -6  -3  -8   75.99    2.40
  -6  -3  -8   70.29    2.90
  -6  -3  -8   75.89    2.80
  -6  -3  -8   79.19    2.60
  -6  -3  -8   81.89    2.30
  -6  -3  -8   78.49    2.90
  -6  -3  -8   80.99    2.30
   6   3   8   77.49    2.40
   6   3   8   77.99    2.40
   6   3   8   75.19    2.30
   6   3   8   79.09    2.20
  -7  -3  -8   34.00    2.10
  -7  -3  -8   36.60    2.10
  -7  -3  -8   37.10    2.70
  -7  -3  -8   36.20    1.70
  -7  -3  -8   37.50    2.20
   7   3   8   34.20    2.50
   7   3   8   35.20    2.00
   7   3   8   36.70    2.00
   7   3   8   39.70    1.70
  -8  -3  -8    0.50    1.80
  -8  -3  -8    0.10    1.10
  -8  -3  -8    0.70    1.00
  -8  -3  -8    2.00    1.30
  -8  -3  -8    0.30    0.80
   8   3   8    1.00    1.20
   8   3   8    1.30    0.90
   8   3   8    0.50    0.90
   8   3   8    1.40    1.50
  -9  -3  -8    8.70    1.30
  -9  -3  -8    8.80    2.30
  -9  -3  -8   10.70    1.40
   9   3   8   14.00    1.80
   9   3   8    8.80    1.40
   4  -4  -8   30.50    2.70
   4  -4  -8   27.20    1.90
  -4   4   8   33.50    2.90
  -4   4   8   28.00    2.10
  -4   4   8   27.60    2.40
   3  -4  -8   -0.10    0.80
   3  -4  -8    0.30    0.80
   3  -4  -8   -0.10    1.10
   3  -4  -8    1.10    1.10
   3  -4  -8    1.60    1.10
  -3   4   8    1.60    0.90
  -3   4   8    0.90    0.80
  -3   4   8    1.70    1.50
  -3   4   8    2.10    1.20
   2  -4  -8   -0.40    0.90
   2  -4  -8    0.30    0.80
   2  -4  -8    0.40    0.60
   2  -4  -8    1.20    0.90
   2  -4  -8    1.10    0.80
   2  -4  -8    0.50    0.50
  -2   4   8    0.30    0.70
  -2   4   8    1.00    0.70
  -2   4   8    0.20    0.80
  -2   4   8    0.40    1.10
   1  -4  -8  187.28    4.50
   1  -4  -8  189.48    4.30
   1  -4  -8  187.38    4.50
   1  -4  -8  193.68    4.40
   1  -4  -8  192.88    4.60
   1  -4  -8  190.98    4.70
   1  -4  -8  193.88    4.70
  -1   4   8  189.98    4.40
  -1   4   8  191.48    4.50
  -1   4   8  184.28    4.80
   0  -4  -8    8.00    0.80
   0  -4  -8    6.40    0.70
   0  -4  -8    6.80    0.60
   0  -4  -8    6.80    0.70
   0  -4  -8    8.00    0.80
   0  -4  -8    7.40    0.80
   0   4   8    6.40    0.90
   0   4   8    9.20    1.00
   0   4   8    8.40    0.80
   0   4   8    7.50    0.80
  -1  -4  -8   10.70    1.10
  -1  -4  -8   12.10    0.70
  -1  -4  -8   11.90    0.90
  -1  -4  -8   11.60    1.00
  -1  -4  -8   13.60    0.80
  -1  -4  -8   11.00    0.80
   1   4   8   12.20    1.10
   1   4   8   11.50    0.80
   1   4   8    9.80    0.80
   1   4   8   12.30    0.90
  -2  -4  -8   33.60    1.10
  -2  -4  -8   32.10    1.20
  -2  -4  -8   34.50    1.20
  -2  -4  -8   32.80    1.20
  -2  -4  -8   32.70    1.30
  -2  -4  -8   30.40    1.10
  -2  -4  -8   31.80    0.90
   2   4   8   32.00    1.10
   2   4   8   31.80    1.30
   2   4   8   32.80    1.20
  -3  -4  -8    2.10    0.50
  -3  -4  -8    2.70    0.40
  -3  -4  -8    2.70    0.50
  -3  -4  -8    2.50    0.30
  -3  -4  -8    2.10    0.50
  -3  -4  -8    3.00    0.50
  -3  -4  -8    2.60    0.50
   3   4   8    2.20    0.60
   3   4   8    3.20    0.30
   3   4   8    3.00    0.50
   3   4   8    2.50    0.40
  -4  -4  -8   91.59    2.60
  -4  -4  -8   92.09    2.40
  -4  -4  -8   93.49    2.30
  -4  -4  -8   91.79    2.00
  -4  -4  -8   91.59    2.50
  -4  -4  -8   90.39    2.40
   4   4   8   93.09    2.20
   4   4   8   91.09    2.50
   4   4   8   90.19    2.60
   4   4   8   94.09    2.30
   4   4   8   88.69    2.30
  -5  -4  -8   11.40    1.10
  -5  -4  -8   10.00    0.90
  -5  -4  -8    8.90    0.90
  -5  -4  -8   12.00    1.30
  -5  -4  -8   12.30    1.30
  -5  -4  -8    9.80    0.80
   5   4   8   11.50    1.00
   5   4   8   11.60    0.90
   5   4   8   11.20    1.00
   5   4   8   10.90    0.70
   5   4   8   11.50    1.00
  -6  -4  -8   31.30    1.60
  -6  -4  -8   27.80    2.00
  -6  -4  -8   31.20    1.40
  -6  -4  -8   32.40    1.80
  -6  -4  -8   32.50    1.80
  -6  -4  -8   28.60    1.60
  -6  -4  -8   32.60    2.00
   6   4   8   30.30    1.50
   6   4   8   31.00    1.20
   6   4   8   30.10    1.50
   6   4   8   31.10    2.00
  -7  -4  -8    0.40    0.90
  -7  -4  -8    0.10    0.90
  -7  -4  -8    3.40    1.10
  -7  -4  -8    0.60    0.80
  -7  -4  -8   -0.10    1.20
  -7  -4  -8    0.70    0.70
   7   4   8   -0.20    1.00
   7   4   8    1.80    0.70
   7   4   8    1.70    1.00
   7   4   8    0.70    0.80
   7   4   8    0.40    0.60
  -8  -4  -8    8.80    1.40
  -8  -4  -8   11.00    1.60
  -8  -4  -8   11.90    1.20
  -8  -4  -8    9.30    1.90
  -8  -4  -8   11.10    1.20
   8   4   8   10.60    1.00
   8   4   8   11.30    1.30
   8   4   8   11.80    1.10
   8   4   8    9.30    1.50
  -9  -4  -8    3.50    1.20
  -9  -4  -8    2.10    1.30
   9   4   8    1.80    1.50
   9   4   8    2.10    1.10
   4  -5  -8    7.40    1.20
   4  -5  -8    6.40    1.90
   3  -5  -8   -0.20    0.80
   3  -5  -8   -0.30    1.30
   3  -5  -8    0.30    1.10
  -3   5   8    0.50    1.00
  -3   5   8    2.60    1.90
  -3   5   8    0.40    1.30
  -3   5   8    1.90    1.20
   2  -5  -8    8.70    1.30
   2  -5  -8    8.20    0.80
   2  -5  -8    7.10    1.30
   2  -5  -8    7.60    1.30
   2  -5  -8    8.10    0.90
  -2   5   8    8.60    1.60
  -2   5   8    8.60    1.10
  -2   5   8   10.20    0.90
  -2   5   8    8.30    1.10
   1  -5  -8    1.40    0.60
   1  -5  -8    0.80    0.90
   1  -5  -8    1.20    0.90
   1  -5  -8    1.70    0.90
   1  -5  -8    1.30    0.80
   1  -5  -8    2.00    0.60
   1  -5  -8    1.60    1.00
  -1   5   8    1.40    1.20
  -1   5   8    0.70    0.80
  -1   5   8    1.40    0.80
  -1   5   8    0.80    0.60
   0  -5  -8   11.20    1.00
   0  -5  -8   11.00    1.00
   0  -5  -8   10.80    1.00
   0  -5  -8    9.30    0.90
   0  -5  -8    8.20    1.00
   0  -5  -8    9.60    0.70
   0  -5  -8   10.00    1.10
   0   5   8    9.80    0.90
   0   5   8    9.90    1.10
   0   5   8    9.50    1.10
  -1  -5  -8    0.40    0.60
  -1  -5  -8    0.60    0.20
  -1  -5  -8    0.60    0.20
  -1  -5  -8    0.50    0.60
  -1  -5  -8    0.80    0.50
  -1  -5  -8    0.80    0.50
  -1  -5  -8    0.70    0.40
  -1  -5  -8    0.40    0.60
   1   5   8   -0.10    0.50
   1   5   8    0.50    0.40
   1   5   8    0.40    0.80
  -2  -5  -8   37.90    1.20
  -2  -5  -8   37.30    1.00
  -2  -5  -8   36.90    1.50
  -2  -5  -8   37.10    1.40
  -2  -5  -8   36.30    1.30
  -2  -5  -8   37.40    1.30
  -2  -5  -8   37.30    1.30
  -2  -5  -8   36.50    1.10
   2   5   8   36.20    1.20
   2   5   8   37.20    1.70
   2   5   8   37.90    1.30
  -3  -5  -8    8.40    0.80
  -3  -5  -8    9.70    0.80
  -3  -5  -8   11.40    0.80
  -3  -5  -8    8.30    0.80
  -3  -5  -8   11.90    1.00
  -3  -5  -8   10.00    1.00
  -3  -5  -8    9.00    0.70
   3   5   8   10.00    0.70
   3   5   8    9.60    0.90
  -4  -5  -8    0.40    0.50
  -4  -5  -8    0.10    0.60
  -4  -5  -8    0.40    0.30
  -4  -5  -8    0.00    0.60
  -4  -5  -8   -0.20    0.60
  -4  -5  -8   -0.20    0.50
  -4  -5  -8    0.20    0.40
   4   5   8   -0.40    0.60
   4   5   8   -0.10    0.50
  -5  -5  -8    9.00    0.80
  -5  -5  -8   10.90    1.10
  -5  -5  -8   10.30    0.80
  -5  -5  -8   10.40    1.00
  -5  -5  -8    9.90    1.00
   5   5   8    9.00    0.80
   5   5   8   11.20    1.00
   5   5   8   11.50    0.60
   5   5   8   12.20    1.10
  -6  -5  -8   -1.90    0.90
  -6  -5  -8    0.60    1.10
  -6  -5  -8    0.80    0.70
  -6  -5  -8    0.50    0.80
  -6  -5  -8   -0.10    0.60
  -6  -5  -8   -0.70    0.80
   6   5   8   -0.10    0.70
   6   5   8    0.60    0.50
   6   5   8    0.20    0.60
   6   5   8    0.80    0.80
   6   5   8    0.30    0.40
  -7  -5  -8  104.19    3.30
  -7  -5  -8  104.59    3.70
  -7  -5  -8  109.09    3.10
  -7  -5  -8  109.19    3.00
  -7  -5  -8  101.19    3.70
  -7  -5  -8  101.89    3.20
   7   5   8  108.09    3.00
   7   5   8  104.39    3.30
   7   5   8  104.49    3.00
   7   5   8  109.39    2.70
   7   5   8  104.89    3.20
  -8  -5  -8   30.80    2.60
  -8  -5  -8   32.30    2.20
  -8  -5  -8   32.20    2.00
   8   5   8   26.30    2.50
   8   5   8   29.50    2.00
   8   5   8   31.80    1.80
   8   5   8   28.10    1.60
  -9  -5  -8   23.60    1.70
  -9  -5  -8   26.80    2.40
   9   5   8   26.90    2.20
   9   5   8   27.10    2.50
   3  -6  -8    2.20    1.10
   3  -6  -8    2.80    2.00
  -3   6   8    0.80    1.50
   2  -6  -8   -0.70    0.90
   2  -6  -8    1.30    2.90
   2  -6  -8    0.30    0.80
   2  -6  -8    2.40    1.40
  -2   6   8    2.30    1.10
  -2   6   8    0.30    0.80
   1  -6  -8    4.10    1.40
   1  -6  -8    5.20    1.30
   1  -6  -8    4.80    1.30
   1  -6  -8    4.40    1.30
   1  -6  -8    4.00    0.70
  -1   6   8    4.20    0.60
  -1   6   8    4.90    0.80
   0  -6  -8   -0.30    0.60
   0  -6  -8    0.30    0.50
   0  -6  -8    0.10    0.70
   0  -6  -8    0.50    0.90
   0  -6  -8    0.00    0.90
   0  -6  -8    0.70    0.90
   0  -6  -8    0.10    1.00
   0   6   8    0.00    0.40
   0   6   8    0.80    0.60
  -1  -6  -8    2.80    0.60
  -1  -6  -8    2.70    0.70
  -1  -6  -8    4.10    0.90
  -1  -6  -8    3.00    0.40
  -1  -6  -8    2.90    0.30
  -1  -6  -8    3.10    0.90
  -1  -6  -8    3.60    0.50
  -1  -6  -8    3.70    0.60
  -2  -6  -8    0.80    0.50
  -2  -6  -8    0.40    0.50
  -2  -6  -8    0.40    0.40
  -2  -6  -8    0.30    0.60
  -2  -6  -8    1.00    0.70
  -2  -6  -8    1.40    0.80
  -2  -6  -8    0.60    0.40
  -2  -6  -8    1.00    0.40
  -3  -6  -8    1.90    0.60
  -3  -6  -8    2.00    0.60
  -3  -6  -8    1.60    0.50
  -3  -6  -8    3.30    0.80
  -3  -6  -8    2.00    0.50
  -3  -6  -8    1.50    0.50
  -4  -6  -8    6.00    0.50
  -4  -6  -8    4.50    0.60
  -4  -6  -8    4.30    0.80
  -4  -6  -8    5.30    0.60
  -4  -6  -8    4.40    0.80
  -4  -6  -8    4.90    0.70
  -4  -6  -8    4.40    0.80
  -5  -6  -8   11.50    0.50
  -5  -6  -8   12.20    1.30
  -5  -6  -8   12.30    1.10
  -5  -6  -8   12.70    1.30
  -5  -6  -8   10.90    0.70
  -5  -6  -8   12.50    1.10
  -5  -6  -8   10.40    0.90
  -5  -6  -8   11.80    1.10
   5   6   8   11.20    0.70
   5   6   8   11.70    1.00
  -6  -6  -8    5.60    1.20
  -6  -6  -8    5.40    1.40
  -6  -6  -8    7.50    0.90
  -6  -6  -8    8.60    0.90
  -6  -6  -8    8.20    1.10
  -6  -6  -8    6.20    1.30
  -6  -6  -8    7.50    1.00
   6   6   8    7.10    0.60
   6   6   8    7.30    1.00
   6   6   8    7.10    0.90
  -7  -6  -8    9.80    1.20
  -7  -6  -8   11.00    1.10
  -7  -6  -8   12.30    1.30
  -7  -6  -8   12.00    1.30
   7   6   8   10.60    0.80
   7   6   8   12.60    1.20
   7   6   8   11.10    1.20
   7   6   8   11.00    1.10
  -8  -6  -8    3.10    1.20
  -8  -6  -8    1.00    1.20
   8   6   8    0.30    1.20
   8   6   8    0.30    0.90
   8   6   8    0.20    0.70
   8   6   8    0.10    0.90
  -9  -6  -8    1.10    1.60
  -9  -6  -8    2.40    1.40
   9   6   8    1.40    1.30
   9   6   8    2.30    1.40
   1  -7  -8    0.10    0.80
   1  -7  -8    0.90    0.80
   1  -7  -8   -0.20    1.40
   0  -7  -8   21.20    1.40
   0  -7  -8   24.70    2.10
   0  -7  -8   21.40    1.30
   0  -7  -8   18.50    1.60
  -1  -7  -8   53.19    1.90
  -1  -7  -8   52.29    1.50
  -1  -7  -8   54.29    2.60
  -1  -7  -8   54.19    2.10
  -1  -7  -8   52.99    1.60
  -1  -7  -8   56.29    2.50
  -1  -7  -8   49.90    1.70
  -1  -7  -8   52.59    1.40
  -2  -7  -8   21.60    1.30
  -2  -7  -8   21.20    1.00
  -2  -7  -8   22.00    1.80
  -2  -7  -8   21.10    1.90
  -2  -7  -8   20.60    1.50
  -2  -7  -8   22.10    1.10
  -2  -7  -8   21.30    1.00
  -2  -7  -8   21.00    1.20
  -3  -7  -8   11.90    0.90
  -3  -7  -8   10.20    1.10
  -3  -7  -8   10.60    1.00
  -3  -7  -8   11.90    1.00
  -3  -7  -8   10.90    1.00
  -3  -7  -8   11.20    1.10
  -3  -7  -8   12.00    1.00
  -3  -7  -8   10.80    0.80
  -4  -7  -8    7.60    1.10
  -4  -7  -8    8.50    0.80
  -4  -7  -8    8.50    0.90
  -4  -7  -8    9.10    0.70
  -4  -7  -8   10.90    1.10
  -4  -7  -8    9.40    0.80
  -5  -7  -8    0.50    0.70
  -5  -7  -8    0.20    1.50
  -5  -7  -8    2.30    0.80
  -5  -7  -8    0.70    0.90
  -5  -7  -8    1.40    0.80
  -5  -7  -8    0.20    0.50
  -5  -7  -8    1.00    0.40
  -5  -7  -8    2.10    1.00
  -5  -7  -8    0.80    0.70
  -6  -7  -8   12.20    1.00
  -6  -7  -8    8.50    1.00
  -6  -7  -8   11.70    1.30
  -6  -7  -8   11.40    1.20
  -6  -7  -8    9.90    1.20
  -7  -7  -8    1.30    1.20
  -7  -7  -8    2.80    1.30
  -7  -7  -8    2.60    1.00
   7   7   8    2.00    1.00
   7   7   8    2.40    0.80
   7   7   8    1.70    0.60
  -8  -7  -8   21.60    1.90
  -8  -7  -8   31.90    2.40
   8   7   8   21.60    2.00
   8   7   8   23.70    1.60
   8   7   8   20.70    1.60
   0  -8  -8    3.80    1.60
   0  -8  -8    0.50    0.90
   0  -8  -8    1.20    0.80
  -1  -8  -8   30.10    1.90
  -1  -8  -8   28.30    1.30
  -1  -8  -8   28.70    2.70
  -1  -8  -8   30.30    1.80
  -1  -8  -8   30.90    1.30
  -2  -8  -8   11.30    1.50
  -2  -8  -8   10.70    1.40
  -2  -8  -8   11.60    1.10
  -2  -8  -8   11.30    1.10
  -2  -8  -8   11.10    0.90
  -2  -8  -8   12.10    1.00
  -3  -8  -8    7.10    0.80
  -3  -8  -8    7.60    1.00
  -3  -8  -8    6.70    1.20
  -3  -8  -8    7.20    0.70
  -3  -8  -8    7.60    1.10
  -4  -8  -8   88.19    3.00
  -4  -8  -8   86.59    2.40
  -4  -8  -8   88.99    2.80
  -4  -8  -8   88.49    2.70
  -4  -8  -8   92.09    2.50
  -5  -8  -8    6.30    0.80
  -5  -8  -8    7.60    1.00
  -5  -8  -8    7.20    1.00
  -5  -8  -8    7.30    1.30
  -5  -8  -8    7.10    0.80
  -6  -8  -8    5.40    1.40
  -6  -8  -8    6.90    0.90
  -6  -8  -8    7.10    1.10
  -7  -8  -8    0.50    1.50
  -7  -8  -8    1.00    1.20
  -2  -9  -8   30.50    2.30
  -2  -9  -8   32.00    3.10
  -2  -9  -8   30.70    1.30
  -3  -9  -8    9.50    1.00
  -3  -9  -8   11.20    1.70
  -3  -9  -8   12.20    1.40
  -3  -9  -8   13.50    1.80
  -4  -9  -8   47.10    2.70
  -4  -9  -8   46.00    3.40
  -4  -9  -8   48.10    2.10
  -4  -9  -8   55.59    2.60
  -5  -9  -8   16.20    1.30
  -5  -9  -8   17.70    1.20
  -5  -9  -8   18.00    1.90
  -5  -9  -8   18.40    1.80
  -6  -9  -8    1.10    1.30
  -6  -9  -8    3.20    1.70
   4   8  -9    1.00    1.80
  -4  -8   9    0.70    1.30
  -4  -8   9    0.50    1.60
   3   8  -9   32.70    2.20
   3   8  -9   35.20    2.60
  -3  -8   9   37.20    2.30
   2   8  -9    2.70    1.50
   2   8  -9    1.90    1.60
   2   8  -9    1.80    1.20
  -2  -8   9    0.80    1.20
  -2  -8   9    1.00    1.30
  -2  -8   9    2.30    1.10
   1   8  -9    9.30    1.70
   1   8  -9    8.80    1.50
   1   8  -9    5.80    1.20
  -1  -8   9    5.90    1.90
  -1  -8   9    6.50    1.10
  -1  -8   9    9.60    1.40
   0   8  -9    8.00    1.40
   0   8  -9    5.00    1.10
   0  -8   9    8.20    1.50
   0  -8   9    6.40    1.10
   5   7  -9   -1.60    1.60
   5   7  -9    0.90    1.60
  -5  -7   9    0.10    1.40
  -5  -7   9    0.90    1.20
   4   7  -9    8.90    1.60
   4   7  -9    9.60    1.60
  -4  -7   9   10.20    1.40
  -4  -7   9   12.20    1.20
   3   7  -9    9.40    1.20
   3   7  -9   10.50    1.40
   3   7  -9   10.50    1.50
  -3  -7   9   11.60    1.20
  -3  -7   9   11.80    1.50
  -3  -7   9   12.80    1.20
  -3  -7   9   10.80    1.30
   2   7  -9    5.10    1.10
   2   7  -9    2.80    1.30
   2   7  -9    5.00    1.20
  -2  -7   9    5.80    1.30
  -2  -7   9    4.80    1.10
  -2  -7   9    4.10    1.00
  -2  -7   9    3.50    1.00
   1   7  -9    0.80    1.10
   1   7  -9    0.30    0.90
   1   7  -9    1.20    1.10
  -1  -7   9    1.90    0.90
  -1  -7   9    0.30    0.80
  -1  -7   9    2.00    0.90
  -1  -7   9    0.30    1.10
   0   7  -9   10.50    1.50
   0   7  -9    9.70    1.10
   0   7  -9    9.40    1.10
   0  -7   9    9.30    0.80
   0  -7   9   10.00    1.10
   0  -7   9    9.70    0.90
   0  -7   9    9.40    1.10
   0  -7   9    9.60    1.20
  -1   7  -9   17.50    1.30
  -1   7  -9   15.60    1.10
  -1   7  -9   16.80    1.80
   1  -7   9   17.40    1.80
   1  -7   9   17.00    1.20
   1  -7   9   17.80    1.50
   1  -7   9   15.20    0.90
  -2   7  -9    3.40    1.50
  -2   7  -9    0.70    1.40
  -2   7  -9    1.40    1.10
   2  -7   9    0.80    0.80
   2  -7   9    0.80    1.10
   2  -7   9    3.60    1.20
   3  -7   9    8.00    1.60
   3  -7   9   11.90    1.20
   3  -7   9   10.50    1.50
   6   6  -9    5.60    2.00
   6   6  -9    1.20    1.80
  -6  -6   9    3.40    1.30
  -6  -6   9    5.20    1.50
   5   6  -9    2.60    1.50
   5   6  -9   -1.40    1.60
  -5  -6   9   -0.20    1.10
  -5  -6   9   -0.10    2.20
  -5  -6   9    1.50    1.00
   4   6  -9   -0.60    1.30
   4   6  -9   -0.10    1.20
   4   6  -9    1.10    1.00
  -4  -6   9    0.30    1.30
  -4  -6   9    0.60    1.30
  -4  -6   9    0.20    1.20
  -4  -6   9    0.20    1.00
  -4  -6   9   -0.40    0.90
   3   6  -9    1.20    1.10
   3   6  -9   -0.10    1.00
   3   6  -9    0.80    1.30
   3   6  -9   -0.30    0.80
  -3  -6   9   -0.30    0.90
  -3  -6   9   -0.70    1.10
  -3  -6   9    0.00    0.80
  -3  -6   9   -1.20    1.10
  -3  -6   9   -0.60    1.00
   2   6  -9    2.20    0.90
   2   6  -9    1.70    1.00
   2   6  -9    2.30    1.30
   2   6  -9    1.50    0.90
  -2  -6   9    3.00    0.90
  -2  -6   9    3.50    1.10
  -2  -6   9    2.70    1.10
  -2  -6   9    1.50    0.80
  -2  -6   9    1.90    0.80
  -2  -6   9    1.90    0.80
   1   6  -9   10.20    1.10
   1   6  -9   11.70    1.20
   1   6  -9    8.80    1.20
   1   6  -9    7.70    1.00
   1   6  -9   10.60    1.60
  -1  -6   9    9.50    1.30
  -1  -6   9    8.50    0.90
  -1  -6   9    8.30    0.90
  -1  -6   9   11.20    1.00
  -1  -6   9    8.30    0.90
  -1  -6   9    8.40    1.20
   0   6  -9    5.80    0.90
   0   6  -9    6.40    0.90
   0   6  -9    5.70    0.60
   0   6  -9    5.90    1.20
   0   6  -9    4.80    1.20
   0  -6   9    7.10    1.30
   0  -6   9    5.40    1.20
   0  -6   9    7.00    0.90
   0  -6   9    7.10    0.90
   0  -6   9    7.10    0.90
   0  -6   9    6.00    0.50
   0  -6   9    7.80    0.70
  -1   6  -9   12.10    1.30
  -1   6  -9   15.60    1.30
  -1   6  -9   14.30    1.00
  -1   6  -9   17.50    1.90
  -1   6  -9   14.60    1.50
   1  -6   9   13.60    1.40
   1  -6   9   13.50    1.60
   1  -6   9   14.00    1.20
   1  -6   9   13.00    1.20
   1  -6   9   14.10    1.00
   1  -6   9   13.20    1.00
   1  -6   9   10.80    1.30
  -2   6  -9    0.30    1.00
  -2   6  -9    1.50    0.90
  -2   6  -9    0.10    1.20
  -2   6  -9    0.40    0.60
  -2   6  -9    0.30    1.30
   2  -6   9    0.00    0.70
   2  -6   9    1.60    0.90
   2  -6   9    1.50    1.10
   2  -6   9    0.80    0.90
   2  -6   9    0.30    0.50
  -3   6  -9    3.90    1.80
  -3   6  -9   10.10    1.30
  -3   6  -9    9.50    1.60
  -3   6  -9   10.30    1.60
   3  -6   9   11.40    1.00
   3  -6   9   11.30    1.30
   3  -6   9    9.70    1.30
  -4   6  -9  102.19    3.50
  -4   6  -9   99.89    3.90
   4  -6   9  104.89    3.60
   4  -6   9  107.19    3.30
   4  -6   9  107.69    3.60
   6   5  -9   18.10    2.30
   6   5  -9   14.80    2.10
  -6  -5   9   13.10    1.50
  -6  -5   9   15.30    1.40
   5   5  -9    8.10    1.40
   5   5  -9   11.20    1.40
   5   5  -9    9.80    1.50
  -5  -5   9   11.70    1.40
  -5  -5   9   10.70    1.40
  -5  -5   9   11.10    1.20
  -5  -5   9   11.10    1.10
  -5  -5   9   13.20    1.80
   4   5  -9    2.50    1.00
   4   5  -9    1.20    1.20
   4   5  -9    2.60    1.00
   4   5  -9    2.20    1.20
   4   5  -9    1.50    1.20
  -4  -5   9    1.00    1.00
  -4  -5   9    2.00    0.90
  -4  -5   9    2.00    1.00
  -4  -5   9    3.40    1.00
  -4  -5   9    2.90    1.10
  -4  -5   9    1.20    0.80
   3   5  -9    0.50    0.80
   3   5  -9    1.10    0.80
   3   5  -9    0.80    1.00
   3   5  -9    0.90    1.00
   3   5  -9    0.40    0.90
  -3  -5   9    0.10    0.80
  -3  -5   9    0.30    0.70
  -3  -5   9    0.30    0.70
  -3  -5   9   -0.20    0.80
  -3  -5   9    0.60    1.00
   2   5  -9    1.70    0.80
   2   5  -9    1.40    0.90
   2   5  -9    1.00    0.90
   2   5  -9    1.70    0.70
   2   5  -9    2.40    0.90
  -2  -5   9    1.50    0.70
  -2  -5   9    2.80    0.80
  -2  -5   9    1.70    0.70
  -2  -5   9    1.50    0.80
  -2  -5   9    1.80    0.90
  -2  -5   9    2.30    0.70
   1   5  -9    4.50    0.90
   1   5  -9    4.50    0.80
   1   5  -9    4.60    1.10
   1   5  -9    4.80    0.90
  -1  -5   9    3.90    0.70
  -1  -5   9    4.30    0.80
  -1  -5   9    5.10    0.90
  -1  -5   9    4.30    0.90
  -1  -5   9    4.80    0.70
  -1  -5   9    3.30    0.70
   0   5  -9   -0.10    0.60
   0   5  -9    1.10    0.80
   0   5  -9    2.10    1.10
   0   5  -9    0.10    0.50
   0  -5   9    0.50    0.70
   0  -5   9    0.90    0.30
   0  -5   9    0.80    0.60
   0  -5   9   -0.20    0.90
   0  -5   9    0.20    0.50
   0  -5   9    0.00    0.80
   0  -5   9    0.70    0.60
  -1   5  -9   -0.20    0.60
  -1   5  -9   -1.60    1.00
  -1   5  -9    0.80    0.60
  -1   5  -9    0.30    0.80
  -1   5  -9    0.70    0.60
   1  -5   9    0.70    0.50
   1  -5   9   -0.40    0.90
   1  -5   9   -0.90    1.00
   1  -5   9   -0.50    0.70
   1  -5   9    0.50    0.40
   1  -5   9   -0.50    1.10
   1  -5   9   -0.30    0.60
  -2   5  -9    7.90    1.40
  -2   5  -9    6.20    0.90
  -2   5  -9    7.40    0.70
  -2   5  -9    6.10    0.90
  -2   5  -9    6.90    1.00
   2  -5   9    6.60    0.90
   2  -5   9    6.70    0.90
   2  -5   9    5.80    1.00
   2  -5   9    7.40    1.10
   2  -5   9    6.80    0.60
   2  -5   9    7.90    1.40
   2  -5   9    5.90    0.70
  -3   5  -9    0.40    1.10
  -3   5  -9   -1.00    1.50
  -3   5  -9    0.00    1.00
  -3   5  -9    0.40    0.80
  -3   5  -9    1.10    1.30
   3  -5   9   -0.20    0.80
   3  -5   9   -0.90    1.60
   3  -5   9   -0.90    0.80
   3  -5   9    0.70    0.70
   3  -5   9   -0.70    0.90
  -4   5  -9    1.40    1.30
  -4   5  -9    3.50    1.40
  -4   5  -9    3.30    1.10
  -4   5  -9    6.30    1.80
   4  -5   9    2.90    0.90
   4  -5   9    4.20    1.00
   4  -5   9    1.60    1.10
   4  -5   9    2.90    1.30
  -5   5  -9    0.60    1.50
  -5   5  -9    1.30    1.50
   5  -5   9    1.00    1.30
   5  -5   9    2.20    1.30
   5  -5   9    0.80    1.20
   6   4  -9    0.60    1.70
   6   4  -9    0.60    1.60
  -6  -4   9    0.40    1.10
  -6  -4   9   -0.80    1.50
  -6  -4   9    0.60    1.90
  -6  -4   9    2.20    1.20
  -6  -4   9    0.90    1.30
   5   4  -9   26.40    2.10
   5   4  -9   27.80    2.70
   5   4  -9   26.70    2.40
   5   4  -9   27.10    2.10
   5   4  -9   25.40    2.50
  -5  -4   9   27.30    2.30
  -5  -4   9   24.60    1.90
  -5  -4   9   26.60    1.90
  -5  -4   9   25.60    1.70
  -5  -4   9   29.10    2.60
   4   4  -9    8.90    1.00
   4   4  -9   11.20    1.10
   4   4  -9    9.30    1.20
   4   4  -9   13.20    1.50
   4   4  -9   10.30    1.10
  -4  -4   9   11.00    0.90
  -4  -4   9   11.40    0.90
  -4  -4   9    9.00    1.00
  -4  -4   9    9.90    1.10
  -4  -4   9   11.90    1.00
  -4  -4   9   10.70    1.30
   3   4  -9   -0.30    0.70
   3   4  -9   -1.00    0.70
   3   4  -9    1.30    0.90
   3   4  -9    0.20    0.80
   3   4  -9   -0.30    0.70
  -3  -4   9    0.00    0.60
  -3  -4   9   -1.00    0.70
  -3  -4   9    0.80    0.60
  -3  -4   9   -0.10    0.80
  -3  -4   9    1.00    0.70
  -3  -4   9   -0.60    0.80
   2   4  -9   46.90    1.90
   2   4  -9   45.60    1.90
   2   4  -9   47.10    1.90
   2   4  -9   49.20    1.90
   2   4  -9   49.99    1.90
  -2  -4   9   49.00    1.80
  -2  -4   9   48.10    1.80
  -2  -4   9   47.60    2.00
  -2  -4   9   47.20    1.90
  -2  -4   9   49.80    1.70
   1   4  -9  275.47    6.40
   1   4  -9  273.67    5.80
   1   4  -9  285.57    6.40
   1   4  -9  272.07    6.40
   1   4  -9  277.37    6.30
   1   4  -9  268.67    6.20
  -1  -4   9  277.87    6.40
  -1  -4   9  281.17    6.30
  -1  -4   9  282.87    6.40
  -1  -4   9  278.57    6.10
  -1  -4   9  269.57    6.20
  -1  -4   9  288.77    6.30
   0   4  -9    4.30    0.50
   0   4  -9    3.50    0.60
   0   4  -9    4.70    0.90
   0   4  -9    2.90    0.80
   0   4  -9    6.10    0.80
   0   4  -9    3.60    0.70
   0  -4   9    5.30    0.50
   0  -4   9    5.90    0.90
   0  -4   9    5.30    0.60
   0  -4   9    3.70    0.60
   0  -4   9    4.10    0.60
   0  -4   9    4.20    0.70
   0  -4   9    4.20    0.70
  -1   4  -9   10.00    1.10
  -1   4  -9    8.60    1.00
  -1   4  -9   10.30    0.70
  -1   4  -9    8.30    0.90
  -1   4  -9    8.10    1.00
  -1   4  -9    8.00    0.80
  -1   4  -9    7.60    0.70
   1  -4   9   10.50    1.00
   1  -4   9    8.00    0.90
   1  -4   9    9.50    0.90
   1  -4   9   11.00    1.20
   1  -4   9    8.00    0.60
   1  -4   9    9.00    0.80
   1  -4   9    7.50    0.80
  -2   4  -9   13.80    1.30
  -2   4  -9   13.60    1.20
  -2   4  -9   16.60    1.30
  -2   4  -9   14.20    1.20
  -2   4  -9   14.80    1.00
   2  -4   9   15.20    1.10
   2  -4   9   15.40    1.20
   2  -4   9   14.80    0.90
   2  -4   9   18.80    1.50
   2  -4   9   13.60    1.40
   2  -4   9   14.70    1.40
   2  -4   9   14.30    0.90
  -3   4  -9   21.40    1.00
  -3   4  -9   22.40    1.80
  -3   4  -9   23.60    1.60
  -3   4  -9   23.00    1.60
  -3   4  -9   23.00    1.70
  -3   4  -9   24.20    2.10
   3  -4   9   21.90    1.20
   3  -4   9   22.10    1.60
   3  -4   9   21.50    1.80
   3  -4   9   20.90    1.60
   3  -4   9   23.70    2.30
  -4   4  -9    7.00    1.20
  -4   4  -9    8.10    1.20
  -4   4  -9    9.90    1.20
  -4   4  -9    9.60    1.60
  -4   4  -9    6.70    1.60
   4  -4   9    9.70    1.20
   4  -4   9    8.80    1.00
   4  -4   9    8.10    1.00
   4  -4   9   10.10    0.90
   4  -4   9    9.00    1.80
   4  -4   9    7.70    1.20
  -5   4  -9   32.90    2.30
  -5   4  -9   29.10    2.40
  -5   4  -9   26.50    2.30
   5  -4   9   33.30    1.90
   5  -4   9   32.20    2.20
   5  -4   9   34.70    2.40
   5  -4   9   38.20    3.80
   5  -4   9   31.90    2.20
   5  -4   9   34.50    1.90
  -6   4  -9   14.70    1.80
  -6   4  -9   13.70    1.90
   6  -4   9   10.20    1.60
   6  -4   9   10.20    1.30
   6  -4   9   12.50    1.40
   6   3  -9   42.30    3.50
   6   3  -9   33.20    3.00
   6   3  -9   37.20    3.20
   6   3  -9   41.90    3.00
   6   3  -9   35.00    1.50
   6   3  -9   37.50    1.40
  -6  -3   9   37.30    2.20
  -6  -3   9   36.10    2.30
  -6  -3   9   34.30    3.00
  -6  -3   9   34.80    3.40
  -6  -3   9   34.80    2.20
   5   3  -9   43.10    2.40
   5   3  -9   46.20    2.80
   5   3  -9   40.30    2.10
   5   3  -9   45.00    1.30
   5   3  -9   44.60    2.40
   5   3  -9   41.80    2.50
   5   3  -9   45.40    1.20
  -5  -3   9   41.20    2.80
  -5  -3   9   46.30    1.90
  -5  -3   9   44.40    1.80
  -5  -3   9   46.30    2.50
  -5  -3   9   46.30    2.10
   4   3  -9   19.90    1.50
   4   3  -9   21.70    1.80
   4   3  -9   18.10    1.70
   4   3  -9   21.00    0.70
   4   3  -9   21.90    0.80
   4   3  -9   23.50    2.00
   4   3  -9   23.80    1.70
  -4  -3   9   20.90    2.10
  -4  -3   9   22.30    1.40
  -4  -3   9   20.10    1.70
  -4  -3   9   20.30    1.30
  -4  -3   9   24.70    1.70
  -4  -3   9   19.70    1.40
   3   3  -9   55.09    1.30
   3   3  -9   52.89    1.30
   3   3  -9   55.89    2.00
   3   3  -9   53.49    2.30
   3   3  -9   57.59    2.10
   3   3  -9   53.09    1.90
  -3  -3   9   54.89    2.10
  -3  -3   9   56.79    1.80
  -3  -3   9   52.49    1.90
  -3  -3   9   54.69    2.30
  -3  -3   9   53.59    1.70
   2   3  -9    4.80    0.40
   2   3  -9    5.20    0.40
   2   3  -9    5.20    1.10
   2   3  -9    5.70    0.80
   2   3  -9    3.70    0.60
   2   3  -9    4.10    0.70
   2   3  -9    3.10    0.60
  -2  -3   9    5.40    0.80
  -2  -3   9    3.40    0.50
  -2  -3   9    4.80    1.00
  -2  -3   9    5.10    0.70
  -2  -3   9    3.90    0.60
   1   3  -9   34.10    1.50
   1   3  -9   32.20    1.40
   1   3  -9   34.10    1.40
   1   3  -9   31.00    0.90
   1   3  -9   30.30    1.30
   1   3  -9   31.70    1.50
  -1  -3   9   30.20    1.50
  -1  -3   9   32.50    1.40
  -1  -3   9   31.20    1.30
  -1  -3   9   31.60    1.20
  -1  -3   9   31.60    1.50
   0   3  -9   71.99    2.20
   0   3  -9   74.29    1.80
   0   3  -9   72.99    2.20
   0   3  -9   72.59    2.20
   0   3  -9   71.39    2.50
   0   3  -9   74.09    2.00
   0  -3   9   76.39    2.10
   0  -3   9   75.09    2.30
   0  -3   9   72.89    1.80
   0  -3   9   71.09    1.90
   0  -3   9   75.99    2.30
   0  -3   9   75.09    2.10
   0  -3   9   73.69    2.00
  -1   3  -9  130.79    3.10
  -1   3  -9  133.09    3.50
  -1   3  -9  132.99    3.40
  -1   3  -9  131.69    3.10
  -1   3  -9  129.79    3.30
  -1   3  -9  132.09    3.50
  -1   3  -9  126.19    3.50
   1  -3   9  132.39    3.20
   1  -3   9  130.39    3.00
   1  -3   9  131.09    3.30
   1  -3   9  130.99    3.90
   1  -3   9  130.79    3.00
   1  -3   9  131.89    3.40
   1  -3   9  132.69    3.20
  -2   3  -9  154.48    3.80
  -2   3  -9  155.58    3.50
  -2   3  -9  155.18    3.70
  -2   3  -9  153.58    4.00
  -2   3  -9  154.98    4.10
  -2   3  -9  155.48    3.90
  -2   3  -9  159.38    4.10
   2  -3   9  158.58    4.00
   2  -3   9  159.58    3.70
   2  -3   9  158.78    3.80
   2  -3   9  153.58    3.50
   2  -3   9  160.38    4.20
   2  -3   9  155.18    3.80
   2  -3   9  152.88    3.60
  -3   3  -9    5.20    1.10
  -3   3  -9    3.40    0.50
  -3   3  -9    3.20    1.00
  -3   3  -9    2.70    0.70
  -3   3  -9    3.10    0.80
  -3   3  -9    2.60    0.80
   3  -3   9    3.00    0.60
   3  -3   9    2.50    0.60
   3  -3   9    2.70    1.00
   3  -3   9    2.30    0.50
   3  -3   9    3.40    0.50
   3  -3   9    3.10    0.80
   3  -3   9    3.50    0.80
  -4   3  -9    1.50    0.80
  -4   3  -9    0.80    1.30
  -4   3  -9    0.20    0.70
  -4   3  -9    0.40    1.10
  -4   3  -9    0.40    0.90
  -4   3  -9    0.50    0.40
   4  -3   9   -0.50    0.80
   4  -3   9   -0.50    0.80
   4  -3   9   -0.70    0.60
   4  -3   9   -0.30    1.30
   4  -3   9   -0.50    0.60
   4  -3   9    1.50    0.80
  -5   3  -9   19.70    1.90
  -5   3  -9   19.70    0.90
  -5   3  -9   22.80    1.70
  -5   3  -9   20.00    1.80
  -5   3  -9   21.70    1.90
   5  -3   9   17.80    1.90
   5  -3   9   17.50    1.90
   5  -3   9   17.60    1.80
   5  -3   9   21.10    1.80
   5  -3   9   19.30    1.40
   5  -3   9   19.20    1.50
  -6   3  -9    4.40    2.10
  -6   3  -9    0.10    1.30
  -6   3  -9   -0.60    1.30
   6  -3   9    1.00    1.30
   6  -3   9    0.00    1.80
   6  -3   9    1.40    1.20
   6  -3   9    0.90    0.90
   6  -3   9    1.60    1.50
   6  -3   9    0.10    1.00
  -7   3  -9   -3.40    2.10
  -7   3  -9    1.40    1.90
   7  -3   9   -0.60    1.40
   7  -3   9   -0.60    1.10
   7  -3   9    0.10    1.60
   7  -3   9    1.50    2.10
   6   2  -9   -1.40    1.40
   6   2  -9    0.70    0.80
   6   2  -9   -0.80    1.60
   6   2  -9    2.70    1.60
   6   2  -9    1.60    1.40
   6   2  -9   -0.50    0.80
  -6  -2   9    0.50    1.20
  -6  -2   9    0.40    1.20
  -6  -2   9    1.70    1.70
  -6  -2   9    0.00    0.80
   5   2  -9    6.80    1.30
   5   2  -9    5.50    0.70
   5   2  -9    9.00    1.40
   5   2  -9    4.80    1.40
   5   2  -9    4.00    0.90
   5   2  -9    6.50    0.80
   5   2  -9    5.80    1.20
  -5  -2   9    7.60    0.80
  -5  -2   9    4.40    1.00
  -5  -2   9    6.40    1.20
  -5  -2   9    7.70    0.90
  -5  -2   9    5.90    1.30
  -5  -2   9    6.30    1.10
   4   2  -9   25.40    1.70
   4   2  -9   28.00    1.00
   4   2  -9   29.20    1.20
   4   2  -9   28.20    2.10
   4   2  -9   27.40    1.50
   4   2  -9   25.70    1.80
   4   2  -9   26.50    1.80
  -4  -2   9   26.30    2.20
  -4  -2   9   26.10    1.60
  -4  -2   9   29.20    1.30
  -4  -2   9   26.70    1.50
  -4  -2   9   28.00    1.20
   3   2  -9    2.10    0.30
   3   2  -9    2.10    0.60
   3   2  -9    2.20    0.80
   3   2  -9    1.70    0.70
   3   2  -9    2.30    0.50
   3   2  -9    3.10    0.80
   3   2  -9    2.60    0.90
  -3  -2   9    1.40    0.80
  -3  -2   9    2.10    0.50
  -3  -2   9    1.80    0.60
  -3  -2   9    2.30    0.70
  -3  -2   9    2.10    0.70
  -3  -2   9    2.00    0.50
   2   2  -9   13.70    0.60
   2   2  -9   13.20    0.80
   2   2  -9   13.20    1.30
   2   2  -9   12.30    1.20
   2   2  -9   10.10    1.00
   2   2  -9   13.80    1.10
   2   2  -9   11.80    1.10
  -2  -2   9   12.20    0.90
  -2  -2   9   12.90    1.10
  -2  -2   9   12.70    1.00
  -2  -2   9   12.70    1.30
  -2  -2   9   12.30    0.90
   1   2  -9  273.37    6.10
   1   2  -9  251.77    5.90
   1   2  -9  260.77    5.90
   1   2  -9  269.37    6.00
   1   2  -9  268.47    5.60
   1   2  -9  263.57    6.10
  -1  -2   9  264.57    6.10
  -1  -2   9  265.87    6.10
  -1  -2   9  273.77    6.00
  -1  -2   9  258.87    5.80
  -1  -2   9  268.07    5.90
  -1  -2   9  263.77    5.80
   0   2  -9  144.79    3.70
   0   2  -9  141.49    3.50
   0   2  -9  144.79    3.40
   0   2  -9  149.09    3.60
   0   2  -9  149.39    3.30
   0   2  -9  150.48    3.70
   0  -2   9  146.09    3.40
   0  -2   9  144.69    3.70
   0  -2   9  147.99    3.40
   0  -2   9  147.19    3.70
   0  -2   9  147.49    3.30
   0  -2   9  141.49    3.40
   0  -2   9  149.39    3.60
  -1   2  -9    0.30    0.40
  -1   2  -9   -0.30    0.50
  -1   2  -9   -0.20    0.30
  -1   2  -9    0.30    0.50
  -1   2  -9    0.10    0.50
  -1   2  -9    0.30    0.50
  -1   2  -9    0.30    0.40
   1  -2   9    0.30    0.40
   1  -2   9    0.00    0.40
   1  -2   9    0.00    0.50
   1  -2   9    0.20    0.40
   1  -2   9    0.00    0.60
   1  -2   9    0.20    0.40
   1  -2   9    0.10    0.30
  -2   2  -9    2.50    0.50
  -2   2  -9    1.00    0.50
  -2   2  -9    1.90    0.70
  -2   2  -9    2.20    0.60
  -2   2  -9    2.60    0.40
  -2   2  -9    2.30    0.70
  -2   2  -9    1.60    0.60
   2  -2   9    3.10    0.40
   2  -2   9    3.30    0.70
   2  -2   9    2.80    0.60
   2  -2   9    2.70    0.40
   2  -2   9    1.70    0.40
   2  -2   9    2.20    0.50
   2  -2   9    2.60    0.50
  -3   2  -9    4.40    0.70
  -3   2  -9    4.40    0.40
  -3   2  -9    2.70    0.80
  -3   2  -9    3.70    0.90
  -3   2  -9    4.70    0.80
  -3   2  -9    3.50    0.60
   3  -2   9    2.90    0.60
   3  -2   9    3.00    0.50
   3  -2   9    2.70    0.90
   3  -2   9    3.60    0.70
   3  -2   9    3.50    0.50
   3  -2   9    3.30    0.60
   3  -2   9    2.80    0.50
  -4   2  -9    4.60    1.00
  -4   2  -9    5.40    0.90
  -4   2  -9    5.00    0.80
  -4   2  -9    4.10    1.00
  -4   2  -9    4.60    0.80
  -4   2  -9    4.30    0.40
   4  -2   9    4.30    0.70
   4  -2   9    4.50    0.60
   4  -2   9    6.10    0.80
   4  -2   9    3.80    0.80
   4  -2   9    4.60    0.60
  -5   2  -9   10.60    0.70
  -5   2  -9   11.60    1.60
  -5   2  -9   10.80    1.20
  -5   2  -9    9.90    1.10
  -5   2  -9   12.20    1.10
  -5   2  -9    9.80    1.40
   5  -2   9   11.00    1.10
   5  -2   9   10.20    1.50
   5  -2   9   14.00    1.20
   5  -2   9   12.60    1.00
   5  -2   9   11.90    1.30
   5  -2   9   11.20    1.00
  -6   2  -9    5.90    0.50
  -6   2  -9    4.70    1.20
  -6   2  -9    6.80    1.90
  -6   2  -9    5.40    2.00
  -6   2  -9    5.90    0.70
  -6   2  -9    3.50    1.30
   6  -2   9    6.60    1.20
   6  -2   9    4.90    1.90
   6  -2   9    4.70    1.00
   6  -2   9    6.60    1.00
   6  -2   9    5.60    1.20
   6  -2   9    6.50    0.80
  -7   2  -9   17.40    2.00
  -7   2  -9    9.40    2.90
  -7   2  -9   16.30    1.60
   7  -2   9   15.50    1.60
   7  -2   9   17.50    1.50
   7  -2   9   15.70    1.80
   7  -2   9   14.00    3.00
   7  -2   9   13.50    1.10
   6   1  -9   11.10    1.90
   6   1  -9   14.60    1.50
   6   1  -9   10.80    1.90
   6   1  -9   13.80    1.70
   6   1  -9    9.00    1.50
  -6  -1   9   14.80    1.30
  -6  -1   9   15.50    2.20
  -6  -1   9   14.80    1.70
   5   1  -9   21.90    1.60
   5   1  -9   22.70    2.00
   5   1  -9   23.80    2.00
   5   1  -9   21.50    2.30
  -5  -1   9   22.70    1.90
  -5  -1   9   21.90    1.40
  -5  -1   9   21.10    1.20
  -5  -1   9   21.90    1.90
  -5  -1   9   22.10    2.00
   4   1  -9   14.20    1.30
   4   1  -9   13.00    1.10
   4   1  -9    7.60    1.40
   4   1  -9   11.80    1.00
   4   1  -9   14.30    1.50
   4   1  -9   12.40    0.90
   4   1  -9   12.90    1.20
  -4  -1   9   14.30    1.40
  -4  -1   9   12.20    1.50
  -4  -1   9   11.40    1.00
  -4  -1   9   13.80    1.30
  -4  -1   9   13.00    0.90
  -4  -1   9   10.30    0.90
   3   1  -9   19.80    1.70
   3   1  -9   15.80    1.40
   3   1  -9   18.40    1.10
   3   1  -9   19.20    0.90
   3   1  -9   17.80    1.30
   3   1  -9   18.20    1.30
   3   1  -9   17.70    1.20
  -3  -1   9   18.20    1.70
  -3  -1   9   18.60    1.20
  -3  -1   9   17.80    1.30
  -3  -1   9   16.50    0.90
  -3  -1   9   18.00    0.80
  -3  -1   9   16.10    1.40
   2   1  -9   38.30    1.20
   2   1  -9   36.20    1.50
   2   1  -9   37.60    1.40
   2   1  -9   38.00    1.30
   2   1  -9   38.50    1.60
   2   1  -9   37.40    1.70
   2   1  -9   38.90    1.50
  -2  -1   9   38.60    1.70
  -2  -1   9   38.10    1.60
  -2  -1   9   37.40    1.10
  -2  -1   9   37.50    1.40
  -2  -1   9   37.60    1.40
  -2  -1   9   39.80    1.10
   1   1  -9   -0.50    0.50
   1   1  -9   -0.20    0.40
   1   1  -9   -0.40    0.30
   1   1  -9    0.60    0.40
   1   1  -9   -0.20    0.40
   1   1  -9   -0.10    0.50
  -1  -1   9    0.00    0.40
  -1  -1   9   -0.30    0.50
  -1  -1   9    0.30    0.40
  -1  -1   9   -0.20    0.40
  -1  -1   9    0.20    0.30
  -1  -1   9   -0.20    0.50
   0   1  -9    0.00    0.40
   0   1  -9   -0.30    0.40
   0   1  -9    0.20    0.30
   0   1  -9   -0.20    0.30
   0   1  -9    0.60    0.50
   0  -1   9    0.00    0.50
   0  -1   9    0.30    0.50
   0  -1   9    0.40    0.40
   0  -1   9    0.30    0.40
   0  -1   9    0.00    0.30
   0  -1   9    0.30    0.40
  -1   1  -9   64.39    1.70
  -1   1  -9   64.19    1.80
  -1   1  -9   64.09    2.00
  -1   1  -9   64.39    1.70
  -1   1  -9   65.99    2.00
  -1   1  -9   66.59    2.10
  -1   1  -9   67.39    1.70
   1  -1   9   63.19    2.10
   1  -1   9   66.69    1.70
   1  -1   9   67.19    1.90
   1  -1   9   64.59    1.70
   1  -1   9   64.49    1.80
   1  -1   9   62.69    1.70
   1  -1   9   62.59    2.00
  -2   1  -9  555.34   11.60
  -2   1  -9  541.45   11.60
  -2   1  -9  544.55   11.60
  -2   1  -9  564.34   11.90
  -2   1  -9  550.74   11.90
  -2   1  -9  555.64   11.50
  -2   1  -9  547.95   11.80
   2  -1   9  538.75   11.60
   2  -1   9  555.54   11.90
   2  -1   9  552.74   12.00
   2  -1   9  545.35   11.70
   2  -1   9  547.25   11.60
   2  -1   9  548.95   11.50
   2  -1   9  550.94   11.60
  -3   1  -9   94.19    2.80
  -3   1  -9   89.79    2.80
  -3   1  -9   89.29    2.50
  -3   1  -9   95.19    2.50
  -3   1  -9   94.79    2.50
  -3   1  -9   94.59    2.20
  -3   1  -9   93.39    2.70
   3  -1   9   93.59    2.40
   3  -1   9   92.59    2.30
   3  -1   9   94.39    2.50
   3  -1   9   93.79    2.90
   3  -1   9   94.49    2.40
   3  -1   9   91.39    2.30
   3  -1   9   93.49    2.60
  -4   1  -9   12.90    1.30
  -4   1  -9   15.40    1.10
  -4   1  -9   14.10    1.30
  -4   1  -9   14.50    1.30
  -4   1  -9   15.00    1.60
  -4   1  -9   13.90    0.80
   4  -1   9   14.50    1.00
   4  -1   9   15.00    1.20
   4  -1   9   15.30    1.30
   4  -1   9   12.70    1.10
   4  -1   9   13.70    0.80
   4  -1   9   13.40    1.20
  -5   1  -9    3.70    0.90
  -5   1  -9    2.90    1.10
  -5   1  -9    2.80    0.50
  -5   1  -9    2.00    1.10
  -5   1  -9    1.60    0.80
   5  -1   9    1.50    0.70
   5  -1   9    3.40    0.50
   5  -1   9    0.60    1.10
   5  -1   9    2.40    0.70
   5  -1   9    1.00    0.80
  -6   1  -9   36.70    1.20
  -6   1  -9   33.30    2.30
  -6   1  -9   42.60    3.00
  -6   1  -9   33.70    1.90
  -6   1  -9   36.60    2.30
  -6   1  -9   37.90    2.90
  -6   1  -9   37.00    1.60
   6  -1   9   35.90    1.80
   6  -1   9   39.10    2.20
   6  -1   9   39.90    2.10
   6  -1   9   35.00    2.00
   6  -1   9   35.70    1.80
   6  -1   9   36.60    3.00
   6  -1   9   37.70    1.40
  -7   1  -9    2.80    0.90
  -7   1  -9    4.70    1.20
  -7   1  -9    4.80    0.60
  -7   1  -9    1.40    2.00
  -7   1  -9    3.00    1.90
   7  -1   9    4.10    1.50
   7  -1   9    2.60    2.00
   7  -1   9    4.00    0.70
   7  -1   9    2.50    1.30
   7  -1   9    3.40    1.10
   7  -1   9    3.50    1.00
  -8   1  -9   14.10    1.70
  -8   1  -9   10.80    2.10
   8  -1   9   15.70    1.50
   8  -1   9   15.50    2.10
   8  -1   9    9.70    1.60
   8  -1   9   16.80    1.70
   6   0  -9   41.90    2.90
   6   0  -9   40.10    3.70
   6   0  -9   43.30    2.60
   6   0  -9   49.00    3.70
  -6   0   9   44.10    1.80
  -6   0   9   42.10    4.00
  -6   0   9   42.30    3.20
   5   0  -9    2.50    1.20
   5   0  -9    4.30    1.10
   5   0  -9    2.70    1.40
   5   0  -9    3.60    1.00
   5   0  -9    3.00    1.50
  -5   0   9    3.20    1.30
  -5   0   9    3.40    1.20
  -5   0   9    3.40    1.00
  -5   0   9    4.30    0.60
  -5   0   9    2.80    1.60
   4   0  -9   26.70    1.60
   4   0  -9   25.80    1.90
   4   0  -9   25.40    1.60
   4   0  -9   23.70    1.60
   4   0  -9   25.30    1.70
   4   0  -9   26.50    2.20
  -4   0   9   25.50    1.00
  -4   0   9   24.20    1.50
  -4   0   9   23.60    0.90
  -4   0   9   23.70    1.70
  -4   0   9   25.50    1.80
  -4   0   9   25.20    2.20
   3   0  -9   44.50    1.80
   3   0  -9   46.70    2.00
   3   0  -9   43.50    1.60
   3   0  -9   45.70    1.70
   3   0  -9   45.50    1.50
   3   0  -9   47.10    1.80
   3   0  -9   44.50    2.20
  -3   0   9   45.20    1.20
  -3   0   9   46.10    1.70
  -3   0   9   46.20    2.20
  -3   0   9   46.50    1.20
  -3   0   9   47.30    1.90
   2   0  -9   62.89    1.70
   2   0  -9   61.19    1.90
   2   0  -9   59.09    1.80
   2   0  -9   57.29    1.90
   2   0  -9   59.79    1.80
   2   0  -9   62.39    2.10
   2   0  -9   59.09    2.20
  -2   0   9   57.69    1.40
  -2   0   9   59.59    2.00
  -2   0   9   56.89    2.10
  -2   0   9   58.39    1.90
  -2   0   9   60.09    1.40
  -2   0   9   61.59    1.80
   1   0  -9   57.89    1.70
   1   0  -9   57.19    1.90
   1   0  -9   57.29    1.80
   1   0  -9   55.99    1.70
   1   0  -9   56.79    1.60
   1   0  -9   60.99    2.00
  -1   0   9   58.89    1.90
  -1   0   9   58.09    1.70
  -1   0   9   60.09    2.00
  -1   0   9   57.39    1.70
  -1   0   9   57.39    1.40
  -1   0   9   56.79    1.40
   0   0  -9   31.30    1.20
   0   0  -9   29.60    1.10
   0   0  -9   31.60    1.00
   0   0  -9   30.60    1.30
   0   0  -9   30.50    1.10
   0   0   9   30.50    1.20
   0   0   9   30.30    1.30
   0   0   9   29.40    1.10
   0   0   9   29.50    1.30
   0   0   9   30.50    0.90
   0   0   9   31.10    1.20
  -1   0  -9   30.50    1.30
  -1   0  -9   28.50    1.30
  -1   0  -9   30.60    1.00
  -1   0  -9   29.00    1.20
  -1   0  -9   28.60    1.00
  -1   0  -9   29.90    1.00
  -1   0  -9   28.40    1.00
   1   0   9   29.30    1.10
   1   0   9   32.60    1.30
   1   0   9   29.10    1.10
   1   0   9   30.90    1.10
   1   0   9   29.50    1.30
   1   0   9   29.40    1.00
   1   0   9   30.30    0.90
  -2   0  -9   74.69    1.90
  -2   0  -9   74.39    2.20
  -2   0  -9   74.39    2.20
  -2   0  -9   71.59    1.90
  -2   0  -9   73.59    1.90
  -2   0  -9   74.79    2.10
  -2   0  -9   75.39    1.90
   2   0   9   73.09    1.90
   2   0   9   74.19    2.20
   2   0   9   73.19    1.90
   2   0   9   72.59    1.80
   2   0   9   73.29    2.10
   2   0   9   72.69    2.00
   2   0   9   70.99    2.00
  -3   0  -9   -0.40    0.60
  -3   0  -9    0.50    0.40
  -3   0  -9    0.20    0.40
  -3   0  -9   -0.10    0.50
  -3   0  -9    0.50    0.50
  -3   0  -9    0.30    0.30
  -3   0  -9   -0.10    0.60
   3   0   9    0.20    0.30
   3   0   9    0.30    0.40
   3   0   9   -0.20    0.40
   3   0   9   -0.50    0.60
   3   0   9    0.30    0.50
   3   0   9    0.10    0.40
   3   0   9   -0.40    0.50
  -4   0  -9    2.30    0.60
  -4   0  -9    2.60    0.60
  -4   0  -9    3.00    0.40
  -4   0  -9    2.90    0.60
  -4   0  -9    2.40    0.90
  -4   0  -9    2.50    0.80
   4   0   9    2.70    0.30
   4   0   9    3.00    0.50
   4   0   9    3.40    0.90
   4   0   9    2.20    0.60
   4   0   9    2.60    0.50
   4   0   9    2.10    0.50
  -5   0  -9   61.69    2.20
  -5   0  -9   60.89    2.60
  -5   0  -9   61.39    1.70
  -5   0  -9   62.89    2.60
  -5   0  -9   61.39    2.30
  -5   0  -9   63.59    2.00
   5   0   9   62.79    2.20
   5   0   9   62.29    2.70
   5   0   9   63.29    1.90
   5   0   9   62.09    2.00
   5   0   9   62.29    2.10
   5   0   9   62.69    1.60
  -6   0  -9    0.20    1.40
  -6   0  -9    0.20    0.70
  -6   0  -9    0.20    1.00
  -6   0  -9    1.70    1.30
  -6   0  -9   -0.40    0.90
  -6   0  -9    0.70    0.70
  -6   0  -9    0.10    0.50
   6   0   9    0.30    1.10
   6   0   9    0.80    0.70
   6   0   9    0.70    0.60
   6   0   9    0.50    0.90
   6   0   9    0.20    0.80
   6   0   9    0.70    0.40
   6   0   9    0.90    0.90
  -7   0  -9    1.30    1.00
  -7   0  -9   -0.10    0.60
  -7   0  -9    1.50    1.30
  -7   0  -9    0.90    0.90
  -7   0  -9   -0.40    1.70
   7   0   9    1.20    0.70
   7   0   9    0.30    1.20
   7   0   9   -1.70    1.80
   7   0   9    0.40    0.40
   7   0   9    0.50    0.90
   7   0   9   -0.60    0.90
  -8   0  -9    7.00    0.80
  -8   0  -9    4.00    2.70
  -8   0  -9    7.40    1.30
  -8   0  -9    6.20    1.30
  -8   0  -9   10.20    2.20
   8   0   9    9.90    3.00
   8   0   9    7.60    0.60
   8   0   9    5.40    1.70
   8   0   9    4.10    1.30
   8   0   9    9.00    1.40
   6  -1  -9   74.79    3.50
   6  -1  -9   84.09    3.50
  -6   1   9   81.39    4.70
  -6   1   9   71.79    4.10
   5  -1  -9    4.90    1.20
   5  -1  -9    4.90    1.40
   5  -1  -9    7.90    1.80
   5  -1  -9    4.10    1.50
   5  -1  -9    5.60    1.20
  -5   1   9    6.70    1.60
  -5   1   9    5.70    0.60
  -5   1   9    5.80    1.30
  -5   1   9    5.50    0.50
  -5   1   9    5.90    1.70
  -5   1   9    4.50    1.10
   4  -1  -9    0.20    1.30
   4  -1  -9    1.30    1.10
   4  -1  -9    2.10    0.80
   4  -1  -9    2.30    1.00
   4  -1  -9    0.60    0.90
   4  -1  -9    1.00    1.00
  -4   1   9    0.80    1.20
  -4   1   9    0.70    1.00
  -4   1   9    3.70    0.90
  -4   1   9    2.30    1.00
  -4   1   9    1.10    0.30
   3  -1  -9   93.79    2.60
   3  -1  -9   92.59    3.20
   3  -1  -9   95.39    2.90
   3  -1  -9   91.99    2.70
   3  -1  -9   91.89    2.80
   3  -1  -9   93.59    2.70
  -3   1   9   89.99    2.60
  -3   1   9   94.29    2.80
  -3   1   9   92.29    2.90
  -3   1   9   97.99    3.20
   2  -1  -9   49.70    1.90
   2  -1  -9   46.30    1.70
   2  -1  -9   48.20    1.70
   2  -1  -9   48.70    1.60
   2  -1  -9   49.10    1.70
   2  -1  -9   50.69    2.10
   2  -1  -9   50.09    1.60
  -2   1   9   47.20    2.00
  -2   1   9   48.80    1.60
  -2   1   9   50.29    1.80
  -2   1   9   47.00    1.80
   1  -1  -9   28.00    1.20
   1  -1  -9   26.50    1.10
   1  -1  -9   28.30    1.20
   1  -1  -9   26.30    1.40
   1  -1  -9   26.10    1.50
   1  -1  -9   27.80    1.20
  -1   1   9   28.50    1.20
  -1   1   9   26.60    1.40
  -1   1   9   28.00    1.20
  -1   1   9   27.40    1.30
   0  -1  -9   11.80    1.00
   0  -1  -9   13.20    0.90
   0  -1  -9   12.10    1.00
   0  -1  -9   12.60    0.80
   0  -1  -9   13.60    0.80
   0   1   9   12.30    1.00
   0   1   9   12.20    1.00
   0   1   9   13.60    0.90
   0   1   9   13.00    0.90
   0   1   9   12.90    0.40
  -1  -1  -9   67.59    2.00
  -1  -1  -9   67.19    1.60
  -1  -1  -9   68.49    2.00
  -1  -1  -9   69.39    1.90
  -1  -1  -9   70.19    1.80
  -1  -1  -9   70.49    1.80
  -1  -1  -9   67.79    1.80
   1   1   9   70.29    1.90
   1   1   9   69.39    1.90
   1   1   9   66.59    1.60
   1   1   9   68.09    1.80
   1   1   9   68.69    2.00
   1   1   9   69.19    2.00
  -2  -1  -9   10.80    0.90
  -2  -1  -9   10.90    0.60
  -2  -1  -9   10.30    0.90
  -2  -1  -9   10.40    0.70
  -2  -1  -9   11.20    1.00
  -2  -1  -9    8.90    0.70
   2   1   9    9.60    0.60
   2   1   9   11.20    0.60
   2   1   9    9.10    1.00
   2   1   9   10.80    0.90
   2   1   9   10.10    0.70
   2   1   9    9.50    1.00
  -3  -1  -9   28.70    1.00
  -3  -1  -9   31.90    1.40
  -3  -1  -9   28.60    1.10
  -3  -1  -9   30.30    1.20
  -3  -1  -9   29.70    1.10
  -3  -1  -9   30.00    1.40
  -3  -1  -9   30.70    1.30
   3   1   9   29.80    1.20
   3   1   9   28.70    1.00
   3   1   9   28.20    1.50
   3   1   9   29.70    1.10
   3   1   9   29.60    0.90
   3   1   9   28.30    1.20
  -4  -1  -9   12.60    0.80
  -4  -1  -9   13.40    0.90
  -4  -1  -9   13.60    1.10
  -4  -1  -9   13.20    1.10
  -4  -1  -9   12.70    0.80
  -4  -1  -9   13.20    1.40
  -4  -1  -9   12.50    1.10
   4   1   9   13.10    0.90
   4   1   9   13.00    0.60
   4   1   9   13.10    1.00
   4   1   9   12.10    0.90
   4   1   9   11.00    1.10
  -5  -1  -9   65.59    2.60
  -5  -1  -9   67.89    2.40
  -5  -1  -9   67.69    1.90
  -5  -1  -9   68.59    2.60
  -5  -1  -9   65.99    2.10
  -5  -1  -9   66.79    2.00
   5   1   9   67.19    1.60
   5   1   9   66.39    2.00
   5   1   9   67.69    2.10
   5   1   9   67.99    2.60
   5   1   9   64.29    2.20
   5   1   9   68.39    2.00
  -6  -1  -9    0.70    1.00
  -6  -1  -9    3.20    1.30
  -6  -1  -9    3.80    1.00
  -6  -1  -9    2.90    0.80
  -6  -1  -9    2.60    0.60
  -6  -1  -9    2.30    1.30
   6   1   9    2.10    0.30
   6   1   9    2.90    0.80
   6   1   9    2.00    0.70
   6   1   9    1.90    0.40
   6   1   9    1.80    1.00
   6   1   9    4.10    0.80
   6   1   9    2.60    0.90
  -7  -1  -9    2.60    1.20
  -7  -1  -9    4.50    1.30
  -7  -1  -9    3.50    0.70
  -7  -1  -9    3.50    1.70
  -7  -1  -9    4.00    0.90
  -7  -1  -9    3.40    1.00
   7   1   9    5.50    1.00
   7   1   9    5.20    0.90
   7   1   9    3.10    1.90
   7   1   9    3.90    1.70
   7   1   9    3.80    1.00
  -8  -1  -9    4.10    1.60
  -8  -1  -9    1.90    0.80
  -8  -1  -9    0.70    1.10
  -8  -1  -9    3.30    2.30
  -8  -1  -9    2.60    1.20
   8   1   9    2.10    1.60
   8   1   9    2.90    1.40
   8   1   9    2.90    1.10
   8   1   9    3.40    2.30
  -9  -1  -9    0.50    1.00
   9   1   9    0.60    2.00
   5  -2  -9   40.60    2.50
   5  -2  -9   42.50    2.80
   5  -2  -9   40.20    3.90
  -5   2   9   44.40    3.40
  -5   2   9   36.80    3.50
   4  -2  -9   -0.10    1.10
   4  -2  -9   -0.40    1.20
   4  -2  -9    0.30    1.10
   4  -2  -9   -0.80    1.20
   4  -2  -9    0.50    0.90
  -4   2   9   -0.60    1.20
  -4   2   9   -1.80    1.20
  -4   2   9   -0.10    1.00
  -4   2   9    0.80    0.90
   3  -2  -9   80.59    2.60
   3  -2  -9   84.79    2.80
   3  -2  -9   73.49    2.60
   3  -2  -9   80.59    3.00
   3  -2  -9   77.59    2.50
  -3   2   9   78.59    2.40
  -3   2   9   84.99    2.90
  -3   2   9   83.29    2.60
  -3   2   9   86.89    3.00
   2  -2  -9   -0.80    0.80
   2  -2  -9   -0.50    0.70
   2  -2  -9    0.40    0.60
   2  -2  -9   -0.40    0.50
   2  -2  -9   -0.50    0.60
   2  -2  -9   -0.30    0.70
   2  -2  -9    0.10    0.50
  -2   2   9    0.00    0.70
  -2   2   9    0.30    0.80
  -2   2   9   -0.10    0.60
  -2   2   9   -0.30    0.60
   1  -2  -9   13.10    1.00
   1  -2  -9   11.00    1.10
   1  -2  -9   12.10    1.00
   1  -2  -9   12.30    0.90
   1  -2  -9   12.10    1.00
  -1   2   9   12.90    1.20
  -1   2   9   14.40    1.30
  -1   2   9   11.30    1.00
  -1   2   9   12.80    1.00
   0  -2  -9    3.00    0.50
   0  -2  -9    2.00    0.50
   0  -2  -9    1.10    0.40
   0  -2  -9    1.30    0.60
   0  -2  -9    1.90    0.40
   0  -2  -9    1.30    0.50
   0   2   9    1.80    0.50
   0   2   9    1.30    0.60
   0   2   9    1.70    0.50
  -1  -2  -9   10.20    0.70
  -1  -2  -9    9.90    0.80
  -1  -2  -9    6.40    1.00
  -1  -2  -9   11.10    0.90
  -1  -2  -9   10.20    0.80
  -1  -2  -9   10.40    0.80
   1   2   9   11.30    0.90
   1   2   9   10.90    0.90
   1   2   9   10.70    0.40
   1   2   9    9.40    0.70
   1   2   9   10.80    0.80
  -2  -2  -9   66.99    1.60
  -2  -2  -9   66.09    1.90
  -2  -2  -9   68.29    1.80
  -2  -2  -9   68.09    1.90
  -2  -2  -9   68.59    1.70
  -2  -2  -9   65.79    1.80
   2   2   9   69.89    2.00
   2   2   9   67.79    1.80
   2   2   9   68.19    1.90
   2   2   9   71.89    1.90
   2   2   9   65.59    1.60
   2   2   9   68.19    1.80
  -3  -2  -9    1.30    0.50
  -3  -2  -9    2.20    0.50
  -3  -2  -9    1.90    0.60
  -3  -2  -9    1.80    0.40
  -3  -2  -9    2.40    0.60
  -3  -2  -9    2.20    0.40
  -3  -2  -9    2.10    0.30
   3   2   9    1.70    0.40
   3   2   9    2.70    0.50
   3   2   9    2.20    0.40
   3   2   9    2.30    0.30
   3   2   9    1.70    0.60
  -4  -2  -9   42.20    1.70
  -4  -2  -9   39.10    1.30
  -4  -2  -9   37.50    1.30
  -4  -2  -9   39.30    1.50
  -4  -2  -9   40.00    1.10
  -4  -2  -9   38.10    1.60
  -4  -2  -9   39.30    1.80
   4   2   9   39.40    1.30
   4   2   9   39.40    1.50
   4   2   9   38.70    1.80
   4   2   9   38.50    1.10
   4   2   9   38.40    1.40
  -5  -2  -9    9.30    0.70
  -5  -2  -9   11.20    1.20
  -5  -2  -9    9.90    0.90
  -5  -2  -9   11.10    1.00
  -5  -2  -9   11.00    0.90
  -5  -2  -9    7.70    0.90
   5   2   9    9.80    1.10
   5   2   9    9.60    0.80
   5   2   9   10.20    1.00
   5   2   9   10.50    0.90
   5   2   9    9.60    0.50
   5   2   9    7.10    0.70
  -6  -2  -9   10.20    1.20
  -6  -2  -9    6.70    1.10
  -6  -2  -9   12.20    1.10
  -6  -2  -9    8.40    1.00
  -6  -2  -9   11.70    1.20
  -6  -2  -9   13.80    1.50
   6   2   9   13.40    1.20
   6   2   9    7.30    1.10
   6   2   9   10.80    1.00
   6   2   9    9.80    0.80
  -7  -2  -9    2.20    0.90
  -7  -2  -9    1.70    1.10
  -7  -2  -9    1.80    1.20
  -7  -2  -9    0.40    1.50
  -7  -2  -9    0.50    1.00
  -7  -2  -9    0.10    1.30
  -7  -2  -9    2.70    0.70
   7   2   9    2.20    1.00
   7   2   9    1.10    0.80
   7   2   9    1.80    1.50
   7   2   9    2.20    1.00
   7   2   9    2.00    0.90
  -8  -2  -9    6.40    1.50
  -8  -2  -9    9.70    1.30
  -8  -2  -9    3.80    1.80
  -8  -2  -9    6.30    1.00
  -8  -2  -9   10.50    1.40
   8   2   9    5.00    1.70
   8   2   9    7.10    1.50
   8   2   9    6.60    1.10
   8   2   9    8.80    1.20
  -9  -2  -9   -0.90    1.00
  -9  -2  -9   -0.90    1.40
  -9  -2  -9   -0.70    1.70
   9   2   9   -0.50    1.90
   9   2   9   -0.70    1.40
   5  -3  -9   68.99    3.00
   5  -3  -9   65.29    3.60
  -5   3   9   65.29    4.30
   4  -3  -9   19.30    1.40
   4  -3  -9   13.80    1.80
   4  -3  -9   18.00    1.60
   4  -3  -9   15.60    1.60
  -4   3   9   19.10    2.00
  -4   3   9   15.60    1.30
  -4   3   9   17.30    1.90
  -4   3   9   10.40    2.30
   3  -3  -9    0.10    1.10
   3  -3  -9    0.20    0.80
   3  -3  -9    0.00    0.90
   3  -3  -9    0.90    1.10
   3  -3  -9    0.10    0.80
  -3   3   9   -0.30    0.80
  -3   3   9   -1.10    0.80
  -3   3   9    0.20    1.10
  -3   3   9    0.20    1.30
   2  -3  -9  166.08    3.90
   2  -3  -9  160.28    4.20
   2  -3  -9  163.68    4.00
   2  -3  -9  160.38    4.10
   2  -3  -9  162.38    4.40
   2  -3  -9  164.28    4.20
   2  -3  -9  158.28    4.00
  -2   3   9  169.78    4.10
  -2   3   9  164.38    4.00
  -2   3   9  162.98    4.40
  -2   3   9  164.48    4.40
   1  -3  -9  145.69    3.60
   1  -3  -9  144.59    3.60
   1  -3  -9  145.69    3.50
   1  -3  -9  143.99    3.80
   1  -3  -9  142.79    3.50
   1  -3  -9  140.39    3.70
   1  -3  -9  144.49    3.40
  -1   3   9  140.29    3.80
  -1   3   9  136.39    3.70
  -1   3   9  145.69    3.50
   0  -3  -9    1.30    0.50
   0  -3  -9    1.60    0.40
   0  -3  -9    1.60    0.50
   0  -3  -9    1.40    0.60
   0  -3  -9    1.10    0.50
   0  -3  -9    0.80    0.50
   0   3   9    1.40    0.50
   0   3   9    1.60    0.60
   0   3   9    1.30    0.60
   0   3   9    1.50    0.60
  -1  -3  -9    3.60    0.50
  -1  -3  -9    5.10    0.60
  -1  -3  -9    2.60    0.70
  -1  -3  -9    3.60    0.60
  -1  -3  -9    3.80    0.50
  -1  -3  -9    3.30    0.50
   1   3   9    3.40    0.60
   1   3   9    3.20    0.60
   1   3   9    4.50    0.70
   1   3   9    3.40    0.60
  -2  -3  -9   48.20    1.50
  -2  -3  -9   47.90    1.60
  -2  -3  -9   46.80    1.30
  -2  -3  -9   45.90    1.50
  -2  -3  -9   44.50    1.20
  -2  -3  -9   43.80    1.40
  -2  -3  -9   46.40    1.50
   2   3   9   43.90    1.70
   2   3   9   45.80    1.20
   2   3   9   45.20    1.30
   2   3   9   46.30    1.50
   2   3   9   46.50    1.70
   2   3   9   44.80    1.50
  -3  -3  -9   34.60    1.00
  -3  -3  -9   37.20    1.40
  -3  -3  -9   37.90    1.40
  -3  -3  -9   37.20    1.50
  -3  -3  -9   35.70    1.30
  -3  -3  -9   35.20    1.10
  -3  -3  -9   34.40    1.30
   3   3   9   37.10    1.20
   3   3   9   37.20    1.20
   3   3   9   36.20    1.40
   3   3   9   36.50    1.10
   3   3   9   35.50    2.20
   3   3   9   35.40    1.30
  -4  -3  -9  103.09    2.70
  -4  -3  -9   99.09    2.80
  -4  -3  -9  102.59    2.60
  -4  -3  -9  101.99    2.90
  -4  -3  -9   99.39    2.30
  -4  -3  -9  104.09    2.50
  -4  -3  -9   99.19    2.60
   4   3   9  100.69    2.60
   4   3   9  103.29    2.90
   4   3   9  103.59    2.50
   4   3   9  100.09    2.50
   4   3   9  102.09    2.60
   4   3   9  100.99    2.40
  -5  -3  -9   14.60    1.10
  -5  -3  -9   14.10    1.20
  -5  -3  -9   14.10    1.40
  -5  -3  -9   14.80    1.00
  -5  -3  -9   10.10    1.00
  -5  -3  -9   12.70    1.20
   5   3   9   12.50    1.00
   5   3   9   13.40    1.50
   5   3   9   13.30    1.10
   5   3   9   13.30    1.10
   5   3   9   13.90    0.90
  -6  -3  -9   -0.20    0.60
  -6  -3  -9    0.40    0.80
  -6  -3  -9    0.10    0.60
  -6  -3  -9   -0.20    0.80
  -6  -3  -9    1.10    1.10
  -6  -3  -9   -0.40    0.80
   6   3   9    0.20    0.70
   6   3   9    0.00    1.10
   6   3   9   -0.40    0.50
   6   3   9   -0.10    0.60
  -7  -3  -9  147.09    3.70
  -7  -3  -9  144.29    4.00
  -7  -3  -9  146.19    3.70
  -7  -3  -9  139.19    4.10
  -7  -3  -9  141.99    4.70
  -7  -3  -9  141.49    4.40
  -7  -3  -9  141.49    4.10
   7   3   9  144.49    3.70
   7   3   9  119.39    3.90
   7   3   9  149.29    4.50
   7   3   9  149.19    3.90
   7   3   9  142.99    3.80
  -8  -3  -9    4.90    1.10
  -8  -3  -9    3.50    1.00
  -8  -3  -9    1.30    2.00
  -8  -3  -9    5.70    1.50
  -8  -3  -9    4.70    1.50
   8   3   9    5.10    1.30
   8   3   9    4.60    1.70
   8   3   9    5.20    1.00
   8   3   9    3.60    1.30
  -9  -3  -9    0.20    1.40
  -9  -3  -9    1.70    1.20
   9   3   9   -0.40    1.20
   9   3   9   -0.40    1.60
   4  -4  -9   -1.60    1.10
   4  -4  -9    1.30    1.60
  -4   4   9   -0.60    1.70
  -4   4   9    0.40    1.40
  -4   4   9    0.50    2.10
   3  -4  -9   16.50    1.50
   3  -4  -9   19.10    1.90
   3  -4  -9   18.80    1.90
   3  -4  -9   18.80    1.70
  -3   4   9   19.20    1.90
  -3   4   9   14.40    1.70
  -3   4   9   16.70    1.30
  -3   4   9   20.10    2.00
   2  -4  -9  225.28    5.60
   2  -4  -9  227.58    5.70
   2  -4  -9  240.68    5.50
   2  -4  -9  239.98    6.00
   2  -4  -9  239.18    5.80
   2  -4  -9  238.78    5.50
  -2   4   9  234.08    5.50
  -2   4   9  248.48    5.60
  -2   4   9  239.38    6.10
  -2   4   9  233.68    5.90
   1  -4  -9   93.59    2.90
   1  -4  -9   93.79    2.80
   1  -4  -9   95.09    2.70
   1  -4  -9   93.99    2.80
   1  -4  -9   98.39    2.60
   1  -4  -9   92.19    2.90
   1  -4  -9   97.89    2.50
  -1   4   9   97.09    2.60
  -1   4   9   94.49    2.70
  -1   4   9   92.89    2.90
  -1   4   9   93.99    3.10
   0  -4  -9   11.00    1.00
   0  -4  -9    9.20    0.80
   0  -4  -9    8.60    0.90
   0  -4  -9    9.90    1.10
   0  -4  -9    8.10    0.80
   0  -4  -9   10.10    0.90
   0   4   9   11.30    1.00
   0   4   9    9.00    1.00
   0   4   9    8.70    1.20
   0   4   9    8.40    0.80
  -1  -4  -9   53.59    1.60
  -1  -4  -9   54.39    1.80
  -1  -4  -9   54.79    1.70
  -1  -4  -9   52.89    1.60
  -1  -4  -9   55.89    1.80
  -1  -4  -9   54.09    1.70
   1   4   9   51.89    1.90
   1   4   9   53.49    2.00
   1   4   9   54.79    1.70
   1   4   9   53.49    1.70
  -2  -4  -9  132.99    3.20
  -2  -4  -9  128.69    2.90
  -2  -4  -9  131.99    3.10
  -2  -4  -9  132.89    3.30
  -2  -4  -9  134.09    3.20
  -2  -4  -9  132.69    3.30
  -2  -4  -9  132.49    3.20
   2   4   9  135.69    3.30
   2   4   9  128.49    3.20
   2   4   9  132.89    3.30
  -3  -4  -9    2.10    0.50
  -3  -4  -9    2.30    0.40
  -3  -4  -9    3.00    0.60
  -3  -4  -9    2.40    0.40
  -3  -4  -9    2.30    0.60
  -3  -4  -9    1.90    0.60
  -3  -4  -9    1.80    0.50
   3   4   9    2.10    0.60
   3   4   9    2.10    0.60
   3   4   9    2.40    0.50
  -4  -4  -9   10.60    1.10
  -4  -4  -9   12.00    0.80
  -4  -4  -9   11.60    1.10
  -4  -4  -9   11.90    0.50
  -4  -4  -9   11.10    1.20
  -4  -4  -9   11.10    1.00
  -4  -4  -9   12.30    1.10
   4   4   9   11.80    1.00
   4   4   9   10.60    0.90
   4   4   9   11.40    0.90
   4   4   9   12.50    0.90
   4   4   9   12.70    0.70
   4   4   9   11.60    0.80
  -5  -4  -9  102.29    2.80
  -5  -4  -9  100.39    2.80
  -5  -4  -9  100.39    3.10
  -5  -4  -9  108.29    2.70
  -5  -4  -9  105.99    3.00
  -5  -4  -9  102.59    2.80
   5   4   9  100.69    3.30
   5   4   9  101.69    2.90
   5   4   9  100.39    2.70
   5   4   9  105.39    2.50
   5   4   9  103.49    3.10
  -6  -4  -9   -0.40    0.80
  -6  -4  -9    0.00    0.70
  -6  -4  -9   -0.60    0.70
  -6  -4  -9    0.20    0.80
  -6  -4  -9   -1.00    0.60
  -6  -4  -9    0.40    1.10
   6   4   9   -0.40    0.60
   6   4   9    1.30    0.70
   6   4   9   -0.60    0.60
   6   4   9    0.70    0.50
   6   4   9    0.40    1.00
  -7  -4  -9    9.90    1.70
  -7  -4  -9    9.50    1.00
  -7  -4  -9    9.60    1.20
  -7  -4  -9   10.40    1.00
  -7  -4  -9    9.00    1.50
  -7  -4  -9    8.90    1.50
  -7  -4  -9    7.10    1.10
   7   4   9   10.60    1.20
   7   4   9    6.40    0.90
   7   4   9    9.50    1.10
   7   4   9    8.70    0.90
  -8  -4  -9   30.30    2.10
  -8  -4  -9   33.40    2.60
  -8  -4  -9   34.20    2.10
  -8  -4  -9   33.20    2.70
   8   4   9   33.80    2.70
   8   4   9   31.60    2.20
   8   4   9   33.90    1.90
   8   4   9   32.20    1.90
  -9  -4  -9    0.40    1.30
  -9  -4  -9   -0.60    1.20
   9   4   9    0.90    1.40
   9   4   9    2.50    1.30
   3  -5  -9    7.40    1.20
   3  -5  -9    6.40    1.50
  -3   5   9    6.00    2.10
  -3   5   9    8.40    1.60
  -3   5   9    9.00    1.60
  -3   5   9    9.80    1.50
   2  -5  -9    0.60    1.40
   2  -5  -9    0.50    1.20
   2  -5  -9   -0.50    0.80
  -2   5   9    1.00    1.10
  -2   5   9   -0.70    1.10
  -2   5   9    0.60    1.50
  -2   5   9    1.20    0.80
   1  -5  -9   12.60    1.10
   1  -5  -9   11.60    1.30
   1  -5  -9   11.20    1.20
   1  -5  -9   13.00    1.20
   1  -5  -9   12.60    0.90
   1  -5  -9   10.20    1.20
   1  -5  -9   13.60    1.30
  -1   5   9   12.80    1.10
  -1   5   9   14.50    1.20
  -1   5   9   13.50    1.20
  -1   5   9   12.10    1.50
   0  -5  -9   14.90    1.00
   0  -5  -9   14.60    1.50
   0  -5  -9   14.60    1.20
   0  -5  -9   11.40    1.10
   0  -5  -9   14.70    1.30
   0  -5  -9   17.90    1.30
   0  -5  -9   15.20    1.40
   0   5   9   14.80    1.30
   0   5   9   15.80    1.10
   0   5   9   12.20    1.30
  -1  -5  -9   22.20    1.50
  -1  -5  -9   22.30    1.40
  -1  -5  -9   22.50    1.00
  -1  -5  -9   21.70    1.30
  -1  -5  -9   21.20    1.20
  -1  -5  -9   21.20    1.20
   1   5   9   23.30    1.70
   1   5   9   19.60    1.20
   1   5   9   21.60    1.10
  -2  -5  -9   26.30    0.80
  -2  -5  -9   27.90    1.30
  -2  -5  -9   25.90    0.90
  -2  -5  -9   27.50    1.20
  -2  -5  -9   26.90    1.30
  -2  -5  -9   27.20    1.30
  -2  -5  -9   27.00    1.10
  -2  -5  -9   26.90    1.50
   2   5   9   24.20    1.10
   2   5   9   28.30    1.60
   2   5   9   30.20    1.30
  -3  -5  -9    1.70    0.70
  -3  -5  -9    2.00    0.40
  -3  -5  -9    2.20    0.60
  -3  -5  -9    2.20    0.50
  -3  -5  -9    2.40    0.60
  -3  -5  -9    1.70    0.70
  -3  -5  -9    1.50    0.50
   3   5   9    1.80    0.60
   3   5   9    2.20    0.50
  -4  -5  -9   34.30    1.50
  -4  -5  -9   35.20    1.40
  -4  -5  -9   34.70    1.00
  -4  -5  -9   33.80    1.60
  -4  -5  -9   35.00    1.20
  -4  -5  -9   33.70    1.50
  -4  -5  -9   33.40    1.60
   4   5   9   33.60    1.60
  -5  -5  -9   36.90    2.00
  -5  -5  -9   33.80    1.40
  -5  -5  -9   39.70    1.80
  -5  -5  -9   36.10    1.70
  -5  -5  -9   36.70    1.70
  -5  -5  -9   37.70    1.60
   5   5   9   39.10    1.70
   5   5   9   38.60    1.50
   5   5   9   37.80    1.10
   5   5   9   37.10    1.30
   5   5   9   36.90    1.80
  -6  -5  -9   12.50    1.10
  -6  -5  -9   14.30    1.20
  -6  -5  -9   10.50    1.30
  -6  -5  -9   13.10    1.50
  -6  -5  -9   13.40    1.10
  -6  -5  -9   14.70    1.50
  -6  -5  -9   15.10    1.40
   6   5   9   12.40    1.20
   6   5   9   12.00    0.90
   6   5   9   11.30    1.00
   6   5   9   11.80    1.00
   6   5   9   14.00    1.20
  -7  -5  -9   39.50    2.30
  -7  -5  -9   45.50    2.60
  -7  -5  -9   41.20    2.10
  -7  -5  -9   38.40    2.90
  -7  -5  -9   42.30    2.30
  -7  -5  -9   37.50    2.80
  -7  -5  -9   41.80    1.90
   7   5   9   41.50    1.90
   7   5   9   40.60    1.90
   7   5   9   43.10    1.60
   7   5   9   42.50    2.40
   7   5   9   38.80    2.20
  -8  -5  -9  325.27    8.00
  -8  -5  -9  334.87    7.60
  -8  -5  -9  326.07    7.60
   8   5   9  328.77    7.60
   8   5   9  328.37    7.30
   8   5   9  319.57    7.50
   8   5   9  323.17    8.00
  -9  -5  -9   -1.60    1.30
  -9  -5  -9    1.60    1.40
   9   5   9    1.50    1.40
   9   5   9    2.20    1.30
   2  -6  -9   10.30    1.20
   2  -6  -9    8.00    1.70
  -2   6   9    8.80    1.40
  -2   6   9    8.80    1.00
   1  -6  -9   42.30    2.70
   1  -6  -9   50.69    3.00
   1  -6  -9   50.89    1.90
   1  -6  -9   47.10    1.90
  -1   6   9   42.30    2.00
  -1   6   9   44.80    1.70
   0  -6  -9   41.90    2.20
   0  -6  -9   36.70    1.50
   0  -6  -9   38.20    2.30
   0  -6  -9   39.80    1.60
   0  -6  -9   41.10    2.20
   0   6   9   36.70    1.60
   0   6   9   36.60    1.40
  -1  -6  -9   30.10    1.50
  -1  -6  -9   27.80    1.60
  -1  -6  -9   29.00    1.80
  -1  -6  -9   29.60    1.20
  -1  -6  -9   27.80    1.50
  -1  -6  -9   29.20    2.00
   1   6   9   29.50    1.10
   1   6   9   27.70    1.10
  -2  -6  -9   20.60    1.40
  -2  -6  -9   19.90    0.80
  -2  -6  -9   22.00    1.10
  -2  -6  -9   23.50    0.80
  -2  -6  -9   22.50    1.30
  -2  -6  -9   23.10    1.70
  -2  -6  -9   22.50    1.30
  -2  -6  -9   24.10    1.40
  -3  -6  -9   45.70    2.00
  -3  -6  -9   45.70    1.50
  -3  -6  -9   43.90    1.70
  -3  -6  -9   45.90    1.40
  -3  -6  -9   48.60    1.60
  -3  -6  -9   47.50    1.60
  -3  -6  -9   47.30    1.80
  -3  -6  -9   44.90    1.50
  -4  -6  -9   14.50    0.80
  -4  -6  -9   12.70    1.00
  -4  -6  -9   13.60    1.10
  -4  -6  -9   14.20    1.20
  -4  -6  -9   17.00    1.40
  -4  -6  -9   12.10    1.10
  -4  -6  -9   12.10    1.10
   4   6   9   13.40    0.80
   4   6   9   13.80    0.90
  -5  -6  -9   -0.10    0.60
  -5  -6  -9    1.00    0.70
  -5  -6  -9    1.20    0.30
  -5  -6  -9    0.80    0.90
  -5  -6  -9    1.40    0.80
  -5  -6  -9    0.90    0.40
  -5  -6  -9   -0.20    0.80
  -5  -6  -9    0.20    0.80
   5   6   9    1.30    0.50
   5   6   9    0.90    0.70
  -6  -6  -9   29.10    1.90
  -6  -6  -9   26.10    1.70
  -6  -6  -9   22.30    1.90
  -6  -6  -9   24.00    2.20
  -6  -6  -9   27.30    2.00
  -6  -6  -9   28.50    1.90
   6   6   9   26.40    1.70
   6   6   9   25.40    1.20
   6   6   9   29.20    1.70
  -7  -6  -9    0.70    1.00
  -7  -6  -9    4.10    1.30
  -7  -6  -9    1.20    1.00
   7   6   9    1.30    1.00
   7   6   9    0.60    0.70
   7   6   9    1.20    0.50
   7   6   9    1.20    1.10
  -8  -6  -9    2.70    1.20
  -8  -6  -9    7.80    1.40
   8   6   9    4.00    1.00
   8   6   9    3.70    1.10
   8   6   9    4.30    0.80
   8   6   9    5.00    1.40
   1  -7  -9    7.20    1.10
   1  -7  -9    7.20    1.70
   0  -7  -9    3.10    1.40
   0  -7  -9    4.50    0.90
   0  -7  -9    6.10    1.60
   0  -7  -9    5.30    0.80
  -1  -7  -9    1.90    1.20
  -1  -7  -9   -1.10    1.10
  -1  -7  -9    1.20    1.30
  -1  -7  -9    1.10    0.60
  -1  -7  -9    1.50    0.80
  -2  -7  -9    1.10    0.40
  -2  -7  -9    1.30    0.80
  -2  -7  -9    0.80    0.80
  -2  -7  -9    1.40    0.90
  -2  -7  -9    1.10    0.90
  -2  -7  -9    1.80    0.60
  -3  -7  -9    1.10    1.00
  -3  -7  -9    0.90    0.70
  -3  -7  -9    1.20    0.80
  -3  -7  -9   -0.20    0.60
  -3  -7  -9    0.40    0.50
  -3  -7  -9    0.70    0.80
  -3  -7  -9   -0.30    0.80
  -3  -7  -9   -0.30    0.60
  -4  -7  -9    7.10    0.70
  -4  -7  -9    5.50    1.10
  -4  -7  -9    5.90    0.90
  -4  -7  -9    4.90    0.80
  -4  -7  -9    6.30    0.80
  -4  -7  -9    6.10    1.00
  -5  -7  -9   22.60    1.30
  -5  -7  -9   20.50    1.50
  -5  -7  -9   18.20    1.80
  -5  -7  -9   18.80    1.40
  -5  -7  -9   19.80    1.10
  -5  -7  -9   20.00    1.00
  -5  -7  -9   21.70    1.70
  -6  -7  -9   14.30    1.20
  -6  -7  -9   15.00    1.40
  -6  -7  -9   15.20    1.40
  -6  -7  -9   12.00    1.10
  -7  -7  -9   23.80    2.30
  -7  -7  -9   20.80    1.60
  -7  -7  -9   24.50    2.00
   7   7   9   24.30    1.20
  -8  -7  -9    9.90    1.70
  -8  -7  -9   11.60    1.50
   8   7   9    6.80    1.40
   8   7   9    8.20    1.00
   8   7   9    9.90    1.60
  -1  -8  -9   -1.00    1.50
  -1  -8  -9    0.00    0.70
  -1  -8  -9   -0.20    1.40
  -1  -8  -9   -0.40    1.00
  -2  -8  -9   12.40    1.20
  -2  -8  -9   10.00    1.10
  -2  -8  -9    9.50    1.50
  -2  -8  -9   13.50    1.20
  -2  -8  -9    8.90    1.50
  -2  -8  -9   12.20    1.00
  -3  -8  -9    2.80    0.70
  -3  -8  -9    4.10    1.30
  -3  -8  -9    2.90    1.20
  -3  -8  -9    2.60    0.70
  -3  -8  -9    1.60    1.00
  -4  -8  -9    0.30    1.10
  -4  -8  -9    0.20    0.70
  -4  -8  -9   -0.30    0.80
  -4  -8  -9   -0.10    0.70
  -4  -8  -9   -0.50    1.10
  -4  -8  -9    0.10    1.00
  -5  -8  -9    1.20    0.70
  -5  -8  -9    1.70    0.80
  -5  -8  -9    1.60    0.80
  -5  -8  -9    1.30    1.30
  -5  -8  -9    0.60    1.20
  -5  -8  -9    1.50    1.00
  -6  -8  -9   -2.30    1.40
  -6  -8  -9   -0.40    1.00
  -6  -8  -9   -0.10    1.00
  -7  -8  -9   -1.20    1.20
  -7  -8  -9    0.40    1.60
  -3  -9  -9    1.20    1.30
  -3  -9  -9   -0.30    1.70
  -4  -9  -9    9.70    1.50
  -4  -9  -9   11.70    1.50
  -4  -9  -9   11.60    1.50
  -4  -9  -9   14.50    1.10
  -5  -9  -9    8.20    1.70
  -5  -9  -9    7.40    1.10
   2   8 -10    2.00    1.70
  -2  -8  10    0.70    1.30
   1   8 -10    1.40    1.50
  -1  -8  10    0.50    1.20
   4   7 -10    2.90    1.60
   4   7 -10    4.10    1.80
  -4  -7  10    3.50    1.50
  -4  -7  10    4.90    1.30
   3   7 -10    0.10    1.30
   3   7 -10   -0.40    1.50
  -3  -7  10    0.30    1.10
   2   7 -10   10.70    1.40
   2   7 -10   10.60    1.50
   2   7 -10   15.80    1.60
  -2  -7  10   14.00    1.40
  -2  -7  10   10.10    1.30
  -2  -7  10   17.40    1.40
   1   7 -10   21.40    2.00
   1   7 -10   21.40    1.80
   1   7 -10   23.70    2.60
  -1  -7  10   22.20    2.00
  -1  -7  10   23.30    1.90
  -1  -7  10   24.10    2.00
   0   7 -10    3.10    1.10
   0   7 -10   -0.60    1.00
   0   7 -10    0.70    1.50
   0  -7  10    1.70    1.00
   0  -7  10    0.20    1.00
   0  -7  10   -0.30    1.00
   0  -7  10    0.00    0.50
  -1   7 -10   34.40    2.00
  -1   7 -10   30.80    2.10
   1  -7  10   31.80    2.20
   1  -7  10   31.70    2.30
   1  -7  10   32.20    1.40
  -2   7 -10   -1.20    1.70
  -2   7 -10   -0.50    1.20
   2  -7  10    0.00    0.80
   2  -7  10   -1.80    1.30
   2  -7  10    0.40    1.20
   5   6 -10   11.40    2.00
   5   6 -10   16.80    1.90
  -5  -6  10   17.00    1.60
  -5  -6  10   13.60    1.40
   4   6 -10   52.69    3.10
   4   6 -10   52.59    3.10
  -4  -6  10   54.99    3.40
  -4  -6  10   53.19    2.50
  -4  -6  10   56.09    2.40
   3   6 -10    8.60    1.40
   3   6 -10    7.10    1.30
   3   6 -10    8.50    1.30
  -3  -6  10    8.30    1.10
  -3  -6  10    4.00    1.30
  -3  -6  10    5.40    1.10
   2   6 -10    0.40    1.10
   2   6 -10   -0.10    0.90
   2   6 -10    2.20    1.00
  -2  -6  10    0.40    1.10
  -2  -6  10    1.90    1.20
  -2  -6  10    1.00    0.90
  -2  -6  10    1.50    0.90
  -2  -6  10    0.30    1.20
  -2  -6  10    0.30    1.00
   1   6 -10   10.10    1.20
   1   6 -10   11.90    1.10
   1   6 -10   10.40    1.50
  -1  -6  10   10.50    1.10
  -1  -6  10   13.80    1.40
  -1  -6  10   12.70    1.10
  -1  -6  10   12.50    1.00
  -1  -6  10   12.50    1.50
   0   6 -10    0.80    1.20
   0   6 -10    0.50    0.60
   0   6 -10   -0.10    0.90
   0   6 -10    1.10    0.90
   0  -6  10    1.20    0.40
   0  -6  10    2.40    1.90
   0  -6  10    0.00    1.30
   0  -6  10    0.20    0.70
   0  -6  10    1.20    0.80
   0  -6  10    0.00    0.90
   0  -6  10    1.00    1.20
  -1   6 -10   20.40    1.60
  -1   6 -10   15.50    1.80
  -1   6 -10   17.50    1.50
  -1   6 -10   17.60    1.70
   1  -6  10   19.10    1.70
   1  -6  10   15.20    2.30
   1  -6  10   18.30    1.00
   1  -6  10   17.30    1.70
   1  -6  10   16.60    1.40
  -2   6 -10   13.50    0.90
  -2   6 -10   10.50    1.30
  -2   6 -10   10.20    1.30
  -2   6 -10    7.80    2.20
  -2   6 -10   10.10    1.50
   2  -6  10   12.50    1.50
   2  -6  10   12.70    0.90
   2  -6  10   10.70    1.20
   2  -6  10   12.20    0.90
   2  -6  10   12.00    1.20
  -3   6 -10    2.40    1.50
  -3   6 -10   -0.50    1.20
  -3   6 -10   -3.50    1.50
   3  -6  10   -0.30    0.90
   3  -6  10   -0.40    1.20
   3  -6  10   -0.70    1.10
   6   5 -10   11.90    2.30
  -6  -5  10   13.20    1.60
  -6  -5  10    7.70    1.50
   5   5 -10   20.10    2.00
   5   5 -10   22.60    2.20
  -5  -5  10   22.30    2.10
  -5  -5  10   24.20    2.00
  -5  -5  10   22.40    2.30
  -5  -5  10   19.40    1.70
   4   5 -10    1.20    1.40
   4   5 -10    0.90    1.10
   4   5 -10    2.00    1.40
  -4  -5  10    0.50    1.20
  -4  -5  10    0.90    0.90
  -4  -5  10    0.90    0.90
  -4  -5  10    0.30    1.30
  -4  -5  10   -0.60    1.10
   3   5 -10    1.70    0.90
   3   5 -10    2.20    1.00
   3   5 -10    2.20    1.20
   3   5 -10    0.80    1.00
   3   5 -10    1.30    1.10
  -3  -5  10    2.00    1.00
  -3  -5  10    0.30    0.90
  -3  -5  10    2.00    0.80
  -3  -5  10   -0.10    1.00
  -3  -5  10    1.30    0.90
   2   5 -10    3.70    1.00
   2   5 -10    3.40    1.00
   2   5 -10    3.70    1.00
   2   5 -10    3.70    1.20
   2   5 -10    3.10    1.00
  -2  -5  10    4.30    0.80
  -2  -5  10    4.20    0.90
  -2  -5  10    1.80    0.90
  -2  -5  10    4.50    1.10
  -2  -5  10    2.30    0.90
  -2  -5  10    4.40    1.00
   1   5 -10   79.69    2.70
   1   5 -10   77.79    2.60
   1   5 -10   77.19    2.60
   1   5 -10   74.99    2.90
   1   5 -10   80.49    2.50
  -1  -5  10   78.59    2.70
  -1  -5  10   77.69    2.30
  -1  -5  10   77.89    2.80
  -1  -5  10   75.39    2.60
  -1  -5  10   81.89    2.40
  -1  -5  10   78.29    2.70
   0   5 -10    1.50    0.70
   0   5 -10    3.40    0.60
   0   5 -10    2.50    1.00
   0   5 -10    2.50    1.20
   0   5 -10    0.90    1.00
   0   5 -10    3.00    0.80
   0  -5  10    2.00    1.00
   0  -5  10    3.30    0.80
   0  -5  10    2.80    0.40
   0  -5  10    2.80    0.60
   0  -5  10    3.20    0.80
   0  -5  10    2.00    1.10
   0  -5  10    1.00    0.90
  -1   5 -10    3.50    1.20
  -1   5 -10    1.60    0.70
  -1   5 -10    1.80    0.70
  -1   5 -10    1.20    0.80
  -1   5 -10    2.40    1.00
  -1   5 -10    2.60    1.10
   1  -5  10    2.20    1.00
   1  -5  10    2.00    0.80
   1  -5  10    0.90    0.90
   1  -5  10    2.50    0.70
   1  -5  10    1.60    1.20
   1  -5  10    1.60    0.60
   1  -5  10    1.30    0.50
  -2   5 -10    4.60    1.20
  -2   5 -10    2.40    1.40
  -2   5 -10    6.10    1.30
  -2   5 -10    5.70    1.00
  -2   5 -10    4.70    0.70
  -2   5 -10    4.50    0.90
   2  -5  10    4.30    0.60
   2  -5  10    5.80    1.60
   2  -5  10    3.90    1.10
   2  -5  10    3.80    0.80
   2  -5  10    4.60    1.00
   2  -5  10    4.20    0.60
   2  -5  10    5.60    0.90
  -3   5 -10    0.70    1.10
  -3   5 -10   -1.20    1.00
  -3   5 -10   -1.70    1.20
  -3   5 -10    0.00    0.60
  -3   5 -10   -0.20    1.40
   3  -5  10    0.50    0.70
   3  -5  10    0.40    0.90
   3  -5  10    0.20    0.90
   3  -5  10    0.90    1.80
   3  -5  10   -0.20    0.90
  -4   5 -10    2.00    1.20
  -4   5 -10   -0.70    1.50
  -4   5 -10    2.60    1.40
   4  -5  10    1.60    1.10
   4  -5  10    1.80    1.00
   4  -5  10    0.90    1.40
   4  -5  10    1.00    0.90
  -5   5 -10   21.60    2.00
   5  -5  10   25.80    2.70
   5  -5  10   25.60    1.80
   5  -5  10   25.80    2.30
   6   4 -10   10.00    2.40
   6   4 -10    8.30    2.10
  -6  -4  10   12.30    1.50
  -6  -4  10    8.80    3.90
  -6  -4  10    9.80    1.60
  -6  -4  10   10.20    1.40
   5   4 -10    4.20    1.40
   5   4 -10    3.40    1.50
   5   4 -10    6.70    1.40
  -5  -4  10    5.60    1.10
  -5  -4  10    9.50    1.70
  -5  -4  10    4.90    1.30
  -5  -4  10    5.00    1.70
  -5  -4  10    6.00    1.10
   4   4 -10    0.80    1.20
   4   4 -10    1.10    1.10
   4   4 -10    0.00    1.10
   4   4 -10    2.10    1.30
  -4  -4  10    2.30    1.30
  -4  -4  10    1.00    1.10
  -4  -4  10    1.40    0.80
  -4  -4  10    0.50    0.90
  -4  -4  10    1.80    0.90
   3   4 -10   22.70    1.70
   3   4 -10   16.80    1.30
   3   4 -10   21.40    1.80
   3   4 -10   22.10    1.80
   3   4 -10   22.00    2.10
  -3  -4  10   19.80    1.80
  -3  -4  10   18.70    1.40
  -3  -4  10   22.00    1.50
  -3  -4  10   20.80    2.00
  -3  -4  10   19.40    1.40
  -3  -4  10   20.00    1.70
   2   4 -10    2.40    0.80
   2   4 -10    2.00    0.90
   2   4 -10    0.60    0.70
   2   4 -10    2.00    0.90
   2   4 -10    1.40    1.00
  -2  -4  10    2.40    0.80
  -2  -4  10    2.20    0.60
  -2  -4  10    2.80    1.00
  -2  -4  10    0.70    0.80
  -2  -4  10    2.90    0.90
  -2  -4  10    2.10    0.80
   1   4 -10    1.00    0.90
   1   4 -10    0.90    0.30
   1   4 -10    1.30    0.70
   1   4 -10    0.50    0.70
   1   4 -10    0.80    0.60
   1   4 -10    1.40    0.80
  -1  -4  10   -0.20    0.80
  -1  -4  10    0.50    0.60
  -1  -4  10    0.80    0.70
  -1  -4  10    0.50    0.60
  -1  -4  10    0.50    0.70
  -1  -4  10    1.20    0.80
   0   4 -10    8.00    1.00
   0   4 -10    9.00    1.00
   0   4 -10    7.60    0.80
   0   4 -10    7.50    1.00
   0   4 -10    8.10    0.60
   0  -4  10    9.10    0.60
   0  -4  10    8.00    1.00
   0  -4  10    7.50    0.70
   0  -4  10    8.00    0.80
   0  -4  10    7.40    0.80
   0  -4  10    8.50    0.90
   0  -4  10    8.60    1.00
  -1   4 -10    0.60    0.70
  -1   4 -10    1.20    0.80
  -1   4 -10    1.10    1.00
  -1   4 -10    1.30    0.60
  -1   4 -10    0.60    1.00
  -1   4 -10    1.70    0.60
  -1   4 -10    2.10    1.10
   1  -4  10    1.70    1.00
   1  -4  10    0.60    0.60
   1  -4  10    1.40    0.80
   1  -4  10    1.40    0.40
   1  -4  10    1.30    0.70
   1  -4  10    1.20    0.60
   1  -4  10    1.80    0.70
  -2   4 -10    4.50    1.10
  -2   4 -10    3.60    1.20
  -2   4 -10    4.40    0.70
  -2   4 -10    3.70    0.80
  -2   4 -10    2.70    0.90
   2  -4  10    3.20    0.70
   2  -4  10    4.40    0.60
   2  -4  10    4.90    1.00
   2  -4  10    2.90    1.10
   2  -4  10    4.00    0.80
   2  -4  10    4.40    0.90
   2  -4  10    3.30    0.50
  -3   4 -10   14.00    1.60
  -3   4 -10   11.00    1.40
  -3   4 -10   10.30    1.10
  -3   4 -10   13.80    1.00
  -3   4 -10   16.80    1.60
  -3   4 -10   11.70    1.20
   3  -4  10   15.70    1.70
   3  -4  10   13.40    1.40
   3  -4  10   14.20    1.30
   3  -4  10   14.50    1.70
   3  -4  10   14.30    1.10
   3  -4  10   13.60    1.10
   3  -4  10   12.30    1.00
  -4   4 -10    9.10    0.60
  -4   4 -10    6.30    1.70
  -4   4 -10   11.60    1.80
  -4   4 -10    8.80    1.30
  -4   4 -10    9.10    1.40
  -4   4 -10    6.70    1.20
   4  -4  10    8.60    1.00
   4  -4  10    9.40    2.00
   4  -4  10    7.40    1.10
   4  -4  10    8.80    1.20
   4  -4  10    9.50    0.90
  -5   4 -10   -2.30    1.40
  -5   4 -10   -1.40    1.30
   5  -4  10    0.20    1.30
   5  -4  10   -1.00    1.00
   5  -4  10    0.10    1.00
   5  -4  10   -1.20    2.40
   5  -4  10    0.10    1.20
  -6   4 -10   57.49    3.50
   6  -4  10   65.19    2.70
   6  -4  10   63.79    3.00
   6  -4  10   66.19    3.30
   6   3 -10   27.10    2.70
   6   3 -10   22.60    2.20
  -6  -3  10   23.40    2.30
  -6  -3  10   25.20    1.90
  -6  -3  10   25.00    1.90
  -6  -3  10   18.00    2.20
  -6  -3  10   25.50    1.90
   5   3 -10    1.10    1.40
   5   3 -10    1.70    1.40
   5   3 -10   -0.90    1.30
   5   3 -10    0.00    0.50
   5   3 -10    0.00    0.40
   5   3 -10    0.40    1.40
  -5  -3  10    0.80    1.00
  -5  -3  10    1.00    1.10
  -5  -3  10    0.50    1.20
  -5  -3  10    0.00    1.40
  -5  -3  10   -0.20    0.80
   4   3 -10   10.10    0.60
   4   3 -10   11.00    1.30
   4   3 -10   10.80    1.30
   4   3 -10   10.60    1.60
   4   3 -10    9.10    0.70
   4   3 -10    7.90    1.10
   4   3 -10    8.00    1.20
  -4  -3  10    9.80    0.90
  -4  -3  10    9.50    1.00
  -4  -3  10   11.60    1.00
  -4  -3  10    9.00    1.10
  -4  -3  10    6.50    1.10
  -4  -3  10   10.10    1.50
   3   3 -10   15.80    1.20
   3   3 -10   17.20    1.50
   3   3 -10   16.30    1.30
   3   3 -10   15.20    1.50
   3   3 -10   15.00    1.20
   3   3 -10   14.60    0.70
   3   3 -10   15.70    0.60
  -3  -3  10   15.70    1.10
  -3  -3  10   19.30    1.80
  -3  -3  10   15.20    1.20
  -3  -3  10   17.50    1.30
  -3  -3  10   14.50    1.20
   2   3 -10    4.20    0.40
   2   3 -10    5.20    0.80
   2   3 -10    3.10    0.70
   2   3 -10    4.40    0.30
   2   3 -10    5.20    1.00
   2   3 -10    3.90    0.80
  -2  -3  10    3.30    0.80
  -2  -3  10    4.30    0.80
  -2  -3  10    5.00    1.00
  -2  -3  10    3.40    0.70
  -2  -3  10    4.60    0.70
  -2  -3  10    3.60    0.80
   1   3 -10   58.79    2.00
   1   3 -10   56.19    1.90
   1   3 -10   57.09    1.50
   1   3 -10   58.19    2.10
   1   3 -10   55.59    2.10
   1   3 -10   59.99    2.00
  -1  -3  10   60.09    2.00
  -1  -3  10   57.69    1.80
  -1  -3  10   60.79    2.20
  -1  -3  10   59.59    2.10
  -1  -3  10   55.99    1.80
  -1  -3  10   57.19    1.80
   0   3 -10    1.20    0.80
   0   3 -10    0.70    0.70
   0   3 -10    2.00    0.40
   0   3 -10    2.30    0.70
   0   3 -10    2.80    0.60
   0  -3  10    2.10    0.50
   0  -3  10    2.90    0.80
   0  -3  10    1.40    0.40
   0  -3  10    1.70    0.60
   0  -3  10    0.90    0.60
   0  -3  10    1.50    0.50
   0  -3  10    1.40    0.60
  -1   3 -10    0.80    0.50
  -1   3 -10    0.90    0.70
  -1   3 -10    0.80    0.90
  -1   3 -10    1.00    0.60
  -1   3 -10    1.70    0.80
  -1   3 -10    0.50    0.50
  -1   3 -10    0.70    0.50
   1  -3  10    1.20    0.80
   1  -3  10    0.60    0.50
   1  -3  10    0.90    0.60
   1  -3  10    1.10    0.40
   1  -3  10    0.30    0.50
   1  -3  10    0.80    0.60
   1  -3  10    0.40    0.60
  -2   3 -10    6.40    1.00
  -2   3 -10    7.70    0.80
  -2   3 -10    8.90    0.90
  -2   3 -10    8.60    0.70
  -2   3 -10    5.80    0.80
  -2   3 -10    7.50    1.00
  -2   3 -10    8.50    1.00
   2  -3  10    8.60    1.20
   2  -3  10    6.60    0.60
   2  -3  10    7.60    0.90
   2  -3  10    8.50    0.80
   2  -3  10    7.20    0.60
   2  -3  10    6.60    0.70
   2  -3  10    8.30    0.70
  -3   3 -10    4.20    0.80
  -3   3 -10    3.90    0.50
  -3   3 -10    3.90    1.10
  -3   3 -10    2.90    1.20
  -3   3 -10    3.70    0.90
  -3   3 -10    3.10    0.80
   3  -3  10    4.20    0.90
   3  -3  10    3.30    0.60
   3  -3  10    3.20    0.80
   3  -3  10    3.20    0.60
   3  -3  10    2.60    0.90
   3  -3  10    2.60    1.00
   3  -3  10    5.00    0.60
  -4   3 -10   10.00    1.10
  -4   3 -10   10.40    1.50
  -4   3 -10    7.40    1.10
  -4   3 -10    7.90    1.50
  -4   3 -10    9.40    0.90
  -4   3 -10    8.90    1.50
   4  -3  10    8.00    0.90
   4  -3  10   10.10    0.90
   4  -3  10    8.50    1.10
   4  -3  10    8.60    0.90
   4  -3  10   10.70    1.70
   4  -3  10   10.70    1.20
  -5   3 -10    8.40    0.60
  -5   3 -10    6.90    1.90
  -5   3 -10    5.00    1.40
  -5   3 -10    6.80    0.70
  -5   3 -10    7.00    1.20
  -5   3 -10    7.60    2.00
  -5   3 -10    8.60    1.30
   5  -3  10    7.40    1.20
   5  -3  10    8.90    1.00
   5  -3  10    9.30    1.30
   5  -3  10    8.40    0.90
   5  -3  10   10.40    2.10
  -6   3 -10    0.20    1.50
  -6   3 -10    0.30    1.30
   6  -3  10   -0.10    0.90
   6  -3  10    0.10    1.10
   6  -3  10   -2.70    2.60
   6  -3  10   -1.30    1.60
   6  -3  10   -0.10    1.30
   6  -3  10    0.60    1.30
   6   2 -10   22.10    1.80
   6   2 -10   18.50    2.20
   6   2 -10   26.00    2.20
  -6  -2  10   19.90    1.60
  -6  -2  10   23.00    1.90
  -6  -2  10   15.10    2.10
   5   2 -10    0.20    1.30
   5   2 -10    0.00    0.70
   5   2 -10    0.00    0.60
   5   2 -10   -0.60    1.10
   5   2 -10   -0.10    1.30
  -5  -2  10    0.10    1.00
  -5  -2  10   -1.10    0.70
  -5  -2  10   -0.50    0.80
  -5  -2  10   -0.10    1.40
  -5  -2  10    0.40    1.40
   4   2 -10   17.00    1.40
   4   2 -10   14.70    1.20
   4   2 -10   11.90    1.40
   4   2 -10   11.80    1.00
   4   2 -10   16.00    1.50
   4   2 -10   15.40    1.40
   4   2 -10   15.70    0.90
  -4  -2  10   13.70    1.20
  -4  -2  10   10.10    1.40
  -4  -2  10   13.90    1.10
  -4  -2  10   12.10    1.20
  -4  -2  10   16.20    1.60
  -4  -2  10   14.30    1.10
   3   2 -10    6.40    0.90
   3   2 -10    4.40    1.00
   3   2 -10    4.90    0.80
   3   2 -10    4.30    0.90
   3   2 -10    6.80    0.90
   3   2 -10    6.00    0.60
   3   2 -10    5.60    0.50
  -3  -2  10    5.90    0.60
  -3  -2  10    5.10    0.60
  -3  -2  10    7.10    1.20
  -3  -2  10    6.60    0.90
  -3  -2  10    5.00    0.90
  -3  -2  10    5.50    0.80
   2   2 -10  298.27    7.00
   2   2 -10  316.17    6.70
   2   2 -10  311.07    7.00
   2   2 -10  307.37    6.90
   2   2 -10  316.57    6.60
   2   2 -10  316.27    7.10
   2   2 -10  315.27    7.30
  -2  -2  10  314.57    7.30
  -2  -2  10  306.47    6.70
  -2  -2  10  291.47    7.00
  -2  -2  10  309.07    6.90
  -2  -2  10  318.47    6.70
  -2  -2  10  308.57    7.10
   1   2 -10    0.80    0.60
   1   2 -10    0.00    0.30
   1   2 -10    0.90    0.70
   1   2 -10    0.30    0.50
   1   2 -10    0.10    0.50
  -1  -2  10   -0.30    0.40
  -1  -2  10   -0.20    0.70
  -1  -2  10    0.80    0.50
  -1  -2  10    0.10    0.50
  -1  -2  10   -0.40    0.50
  -1  -2  10    0.20    0.70
   0   2 -10    2.30    0.60
   0   2 -10    3.70    0.80
   0   2 -10    3.60    0.60
   0   2 -10    3.30    0.40
   0   2 -10    3.80    0.70
   0  -2  10    2.60    0.50
   0  -2  10    3.20    0.60
   0  -2  10    2.60    0.50
   0  -2  10    3.00    0.60
   0  -2  10    3.60    0.80
   0  -2  10    3.10    0.60
  -1   2 -10  340.07    7.60
  -1   2 -10  337.97    7.20
  -1   2 -10  337.17    7.20
  -1   2 -10  335.57    7.50
  -1   2 -10  320.37    7.40
  -1   2 -10  325.27    7.60
  -1   2 -10  329.67    7.30
   1  -2  10  336.17    7.40
   1  -2  10  337.17    7.60
   1  -2  10  327.57    7.10
   1  -2  10  331.87    7.20
   1  -2  10  341.27    7.20
   1  -2  10  340.67    7.50
  -2   2 -10  145.79    3.70
  -2   2 -10  145.99    3.60
  -2   2 -10  145.29    3.90
  -2   2 -10  148.19    3.80
  -2   2 -10  144.49    3.60
  -2   2 -10  151.98    4.00
  -2   2 -10  151.38    3.40
   2  -2  10  150.58    3.80
   2  -2  10  150.98    3.60
   2  -2  10  149.88    3.80
   2  -2  10  150.38    3.50
   2  -2  10  153.78    4.10
   2  -2  10  148.69    3.70
   2  -2  10  144.59    3.40
  -3   2 -10   24.90    1.50
  -3   2 -10   28.60    1.40
  -3   2 -10   27.00    1.90
  -3   2 -10   26.10    1.80
  -3   2 -10   25.80    1.00
  -3   2 -10   26.30    1.40
   3  -2  10   28.70    1.30
   3  -2  10   24.90    1.30
   3  -2  10   28.10    2.00
   3  -2  10   26.70    1.10
   3  -2  10   26.00    1.10
   3  -2  10   25.80    1.70
   3  -2  10   27.40    1.40
  -4   2 -10    1.70    0.70
  -4   2 -10    2.70    0.90
  -4   2 -10    1.00    0.40
  -4   2 -10    1.80    0.80
  -4   2 -10    0.40    1.20
  -4   2 -10    2.50    0.80
   4  -2  10    2.90    1.20
   4  -2  10    3.00    0.90
   4  -2  10    1.70    0.50
   4  -2  10    1.30    0.70
   4  -2  10    2.30    0.80
   4  -2  10    2.20    0.60
  -5   2 -10    1.90    1.10
  -5   2 -10    4.60    1.70
  -5   2 -10    0.70    1.30
  -5   2 -10    0.70    0.50
  -5   2 -10    0.90    1.00
  -5   2 -10    1.30    0.90
   5  -2  10    0.20    0.80
   5  -2  10    2.40    1.10
   5  -2  10    0.60    0.60
   5  -2  10    0.80    0.70
   5  -2  10    1.00    0.90
   5  -2  10   -0.50    1.50
  -6   2 -10   11.20    1.90
  -6   2 -10   12.00    1.60
  -6   2 -10    8.00    1.30
  -6   2 -10   10.70    0.90
  -6   2 -10    9.40    0.80
   6  -2  10   10.00    2.30
   6  -2  10   10.70    0.90
   6  -2  10    9.80    1.20
   6  -2  10    9.60    1.40
   6  -2  10    8.20    1.40
   6  -2  10   10.30    1.30
  -7   2 -10    5.30    1.70
  -7   2 -10    6.80    1.60
   7  -2  10    7.70    3.10
   7  -2  10    2.10    1.30
   7  -2  10    5.10    1.10
   7  -2  10    8.10    1.80
   7  -2  10    8.50    1.40
   7  -2  10    7.50    1.80
   6   1 -10    2.70    1.80
   6   1 -10    0.10    1.10
   6   1 -10    3.50    2.20
   6   1 -10   -3.70    1.70
  -6  -1  10   -0.40    1.60
  -6  -1  10    1.00    2.00
   5   1 -10   68.49    2.50
   5   1 -10   65.39    3.30
   5   1 -10   68.89    3.00
   5   1 -10   69.59    2.90
   5   1 -10   65.89    3.60
   5   1 -10   71.29    3.00
  -5  -1  10   68.89    2.10
  -5  -1  10   72.29    3.60
  -5  -1  10   75.39    3.30
  -5  -1  10   68.89    1.90
  -5  -1  10   72.89    2.90
   4   1 -10    7.00    1.00
   4   1 -10    6.40    0.70
   4   1 -10    5.20    1.20
   4   1 -10    6.30    1.00
   4   1 -10    8.00    0.90
   4   1 -10    8.70    1.30
   4   1 -10    5.70    1.00
  -4  -1  10    6.10    1.10
  -4  -1  10    7.90    1.20
  -4  -1  10    6.90    0.70
  -4  -1  10    5.60    1.40
  -4  -1  10    4.70    1.00
  -4  -1  10    6.10    0.60
   3   1 -10    7.10    1.00
   3   1 -10    5.80    0.60
   3   1 -10    4.10    0.80
   3   1 -10    7.40    1.40
   3   1 -10    6.50    0.80
   3   1 -10    4.80    1.00
   3   1 -10    6.60    1.00
  -3  -1  10    4.00    0.70
  -3  -1  10    4.20    0.90
  -3  -1  10    7.00    1.20
  -3  -1  10    5.60    0.50
  -3  -1  10    5.80    0.60
  -3  -1  10    5.50    0.80
   2   1 -10   10.30    0.90
   2   1 -10    8.40    0.80
   2   1 -10   11.80    1.10
   2   1 -10    8.90    0.80
   2   1 -10   11.50    1.10
   2   1 -10    9.10    0.70
   2   1 -10   11.40    0.90
  -2  -1  10   10.20    1.00
  -2  -1  10    8.80    0.70
  -2  -1  10    9.60    0.70
  -2  -1  10    9.60    0.80
  -2  -1  10   10.20    0.80
  -2  -1  10    9.30    1.10
   1   1 -10   27.10    1.00
   1   1 -10   26.40    1.40
   1   1 -10   26.90    1.20
   1   1 -10   26.90    1.50
   1   1 -10   27.40    1.50
   1   1 -10   27.20    1.60
  -1  -1  10   28.30    1.40
  -1  -1  10   27.80    1.50
  -1  -1  10   28.70    1.20
  -1  -1  10   28.40    1.30
  -1  -1  10   27.40    1.00
  -1  -1  10   28.10    1.40
   0   1 -10  152.28    3.90
   0   1 -10  154.28    3.50
   0   1 -10  155.08    3.60
   0   1 -10  153.28    3.80
   0   1 -10  152.38    3.60
   0   1 -10  157.58    3.90
   0  -1  10  157.68    3.60
   0  -1  10  150.38    3.50
   0  -1  10  159.68    3.80
   0  -1  10  151.58    3.60
   0  -1  10  158.48    3.90
   0  -1  10  149.59    3.90
  -1   1 -10  335.27    7.50
  -1   1 -10  329.97    7.20
  -1   1 -10  330.27    7.20
  -1   1 -10  328.87    7.40
  -1   1 -10  332.47    7.30
  -1   1 -10  344.67    7.20
  -1   1 -10  343.17    7.60
   1  -1  10  333.97    7.20
   1  -1  10  328.67    7.40
   1  -1  10  335.97    7.20
   1  -1  10  329.07    7.20
   1  -1  10  330.07    7.50
   1  -1  10  341.07    7.60
   1  -1  10  329.37    7.20
  -2   1 -10   34.10    1.20
  -2   1 -10   32.60    1.30
  -2   1 -10   31.10    1.30
  -2   1 -10   31.30    1.60
  -2   1 -10   34.90    1.70
   2  -1  10   30.70    1.50
   2  -1  10   35.30    1.40
   2  -1  10   34.60    1.20
   2  -1  10   32.40    1.70
   2  -1  10   32.40    1.20
   2  -1  10   33.60    1.30
   2  -1  10   33.40    1.20
  -3   1 -10    0.30    0.50
  -3   1 -10    1.70    0.80
  -3   1 -10    1.50    0.60
  -3   1 -10    1.30    0.60
  -3   1 -10    1.30    0.40
  -3   1 -10    1.80    0.90
  -3   1 -10    0.70    0.60
   3  -1  10    1.00    0.40
   3  -1  10    1.40    0.60
   3  -1  10    1.30    0.80
   3  -1  10    1.20    0.40
   3  -1  10    1.70    0.70
   3  -1  10    0.90    0.60
   3  -1  10    0.40    0.50
  -4   1 -10  122.29    3.10
  -4   1 -10  123.39    3.70
  -4   1 -10  120.49    2.80
  -4   1 -10  120.59    3.30
  -4   1 -10  117.79    3.20
   4  -1  10  115.89    3.70
   4  -1  10  120.39    3.10
   4  -1  10  122.69    3.20
   4  -1  10  117.69    3.30
   4  -1  10  118.19    2.80
   4  -1  10  115.09    3.00
  -5   1 -10   19.70    1.50
  -5   1 -10   16.00    1.20
  -5   1 -10   15.00    1.50
  -5   1 -10   19.70    1.00
  -5   1 -10   23.50    2.50
  -5   1 -10   21.10    1.70
   5  -1  10   20.90    1.00
   5  -1  10   22.20    1.30
   5  -1  10   22.10    2.40
   5  -1  10   19.70    1.60
   5  -1  10   21.40    1.80
   5  -1  10   22.70    1.60
  -6   1 -10    4.70    1.30
  -6   1 -10    7.50    1.10
  -6   1 -10    6.90    1.30
  -6   1 -10    6.10    0.60
  -6   1 -10    4.60    1.80
  -6   1 -10    5.70    0.90
  -6   1 -10    5.70    1.60
   6  -1  10    7.50    1.10
   6  -1  10    5.00    1.20
   6  -1  10    5.50    1.60
   6  -1  10    5.60    0.60
   6  -1  10    3.50    1.00
   6  -1  10    6.70    1.10
   6  -1  10    4.90    1.00
  -7   1 -10   42.90    2.40
  -7   1 -10   40.60    2.00
  -7   1 -10   41.90    1.50
  -7   1 -10   43.90    4.00
  -7   1 -10   39.30    3.00
   7  -1  10   40.50    2.60
   7  -1  10   40.90    1.50
   7  -1  10   41.70    2.30
   7  -1  10   42.00    2.20
   7  -1  10   44.70    4.20
   7  -1  10   42.30    3.10
  -8   1 -10   32.40    2.60
   8  -1  10   27.60    2.30
   8  -1  10   32.70    3.50
   5   0 -10   37.00    2.80
   5   0 -10   38.40    2.10
   5   0 -10   37.50    3.30
   5   0 -10   37.20    2.30
   5   0 -10   35.90    3.10
   5   0 -10   38.30    2.50
  -5   0  10   36.90    3.20
  -5   0  10   40.20    2.80
  -5   0  10   38.50    1.30
  -5   0  10   37.40    1.50
  -5   0  10   39.80    3.00
   4   0 -10    1.70    1.20
   4   0 -10    0.20    1.00
   4   0 -10   -0.10    1.30
   4   0 -10    0.60    0.70
   4   0 -10    0.50    1.00
   4   0 -10    0.30    1.00
   4   0 -10   -0.70    0.90
  -4   0  10    0.50    1.00
  -4   0  10    0.60    0.90
  -4   0  10    1.30    1.00
  -4   0  10    1.00    0.40
  -4   0  10    0.90    1.10
  -4   0  10    0.60    0.40
   3   0 -10   20.50    1.50
   3   0 -10   19.10    1.70
   3   0 -10   17.30    1.50
   3   0 -10   17.70    1.10
   3   0 -10   18.60    1.90
   3   0 -10   18.20    1.40
   3   0 -10   17.90    1.40
  -3   0  10   19.50    1.50
  -3   0  10   19.50    1.60
  -3   0  10   16.50    0.70
  -3   0  10   16.90    0.70
  -3   0  10   20.00    1.90
  -3   0  10   17.60    1.50
   2   0 -10    8.20    0.80
   2   0 -10    5.00    0.90
   2   0 -10    5.90    0.80
   2   0 -10    5.30    0.70
   2   0 -10    6.10    0.80
   2   0 -10    8.30    0.80
  -2   0  10    6.90    1.00
  -2   0  10    6.60    0.70
  -2   0  10    6.60    0.80
  -2   0  10    6.60    0.80
  -2   0  10    7.90    0.50
  -2   0  10    7.60    0.50
   1   0 -10   63.69    2.00
   1   0 -10   62.69    1.90
   1   0 -10   65.29    2.20
   1   0 -10   64.59    1.90
   1   0 -10   66.29    1.80
   1   0 -10   67.69    2.20
  -1   0  10   64.69    2.20
  -1   0  10   65.89    1.50
  -1   0  10   64.89    1.90
  -1   0  10   64.19    2.10
  -1   0  10   63.99    1.90
  -1   0  10   64.39    1.50
   0   0 -10    3.40    0.70
   0   0 -10    4.80    0.70
   0   0 -10    3.90    0.50
   0   0 -10    3.20    0.60
   0   0 -10    3.40    0.50
   0   0 -10    4.20    0.50
   0   0  10    3.80    0.60
   0   0  10    5.60    0.70
   0   0  10    3.50    0.60
   0   0  10    3.80    0.60
   0   0  10    3.80    0.50
   0   0  10    4.10    0.40
  -1   0 -10   20.00    1.20
  -1   0 -10   20.40    1.20
  -1   0 -10   18.70    0.80
  -1   0 -10   18.20    1.30
  -1   0 -10   17.10    0.90
  -1   0 -10   19.30    0.90
   1   0  10   20.40    1.10
   1   0  10   19.20    1.20
   1   0  10   20.50    1.10
   1   0  10   19.80    0.90
   1   0  10   19.20    0.90
   1   0  10   19.00    1.30
   1   0  10   19.80    0.80
  -2   0 -10  159.88    3.70
  -2   0 -10  158.38    4.00
  -2   0 -10  163.78    3.70
  -2   0 -10  157.58    3.70
  -2   0 -10  161.28    4.10
  -2   0 -10  161.58    4.00
   2   0  10  161.08    3.70
   2   0  10  164.08    3.80
   2   0  10  163.18    4.00
   2   0  10  162.68    3.70
   2   0  10  160.98    3.70
   2   0  10  166.68    3.90
   2   0  10  161.18    4.10
  -3   0 -10  161.48    3.80
  -3   0 -10  165.58    3.80
  -3   0 -10  165.28    3.90
  -3   0 -10  170.68    4.30
  -3   0 -10  167.78    3.90
  -3   0 -10  164.38    4.20
  -3   0 -10  162.48    4.10
   3   0  10  161.98    3.90
   3   0  10  164.88    3.70
   3   0  10  169.58    4.10
   3   0  10  168.08    4.30
   3   0  10  169.58    4.00
   3   0  10  163.38    3.80
   3   0  10  168.18    3.80
  -4   0 -10   -0.10    0.80
  -4   0 -10    0.40    0.60
  -4   0 -10    0.50    0.50
  -4   0 -10    0.30    0.60
  -4   0 -10    0.60    0.40
  -4   0 -10    0.50    0.90
   4   0  10   -0.40    0.60
   4   0  10    0.30    0.50
   4   0  10    0.50    0.40
   4   0  10    0.40    0.90
   4   0  10    0.40    0.60
   4   0  10    0.00    0.30
  -5   0 -10   12.50    1.40
  -5   0 -10   11.70    1.20
  -5   0 -10   15.10    1.60
  -5   0 -10   15.30    0.90
  -5   0 -10   14.80    1.20
  -5   0 -10   11.30    1.10
   5   0  10   13.80    1.30
   5   0  10   13.70    1.40
   5   0  10   11.30    1.40
   5   0  10   10.50    0.90
   5   0  10   14.80    0.80
   5   0  10   14.10    1.20
  -6   0 -10    1.50    1.40
  -6   0 -10    3.00    1.40
  -6   0 -10    1.60    1.00
  -6   0 -10    2.50    0.60
  -6   0 -10    1.10    1.10
  -6   0 -10    1.40    0.90
   6   0  10    2.70    1.00
   6   0  10    2.10    0.40
   6   0  10    0.70    0.90
   6   0  10    1.10    0.90
   6   0  10    0.00    0.70
   6   0  10    2.40    1.40
   6   0  10    2.20    0.80
  -7   0 -10    0.90    1.00
  -7   0 -10    0.00    1.00
  -7   0 -10    1.60    2.00
  -7   0 -10    1.50    1.30
  -7   0 -10   -0.30    0.70
   7   0  10    0.70    1.10
   7   0  10    0.50    1.00
   7   0  10    0.00    0.50
   7   0  10    1.70    2.00
   7   0  10   -0.40    1.30
   7   0  10    0.20    0.70
  -8   0 -10   41.90    2.60
  -8   0 -10   38.60    3.40
  -8   0 -10   44.30    3.40
  -8   0 -10   40.70    1.70
   8   0  10   45.10    3.20
   8   0  10   38.90    2.90
   8   0  10   40.50    2.60
   5  -1 -10    2.30    2.00
   5  -1 -10    5.70    1.40
   5  -1 -10    5.50    1.90
   5  -1 -10    6.70    1.50
  -5   1  10    5.40    1.80
  -5   1  10    3.30    2.00
   4  -1 -10    4.90    1.00
   4  -1 -10    5.60    1.50
   4  -1 -10    4.00    1.20
   4  -1 -10    4.10    1.10
   4  -1 -10    5.00    1.30
   4  -1 -10    5.10    1.30
  -4   1  10    2.50    1.30
  -4   1  10    4.50    1.50
  -4   1  10    4.30    1.20
  -4   1  10    4.00    1.10
   3  -1 -10   -0.10    0.70
   3  -1 -10    0.10    0.80
   3  -1 -10   -0.50    1.00
   3  -1 -10    0.20    0.90
   3  -1 -10    0.70    0.90
   3  -1 -10   -0.10    0.80
   3  -1 -10    1.30    0.80
  -3   1  10    1.40    0.80
  -3   1  10    0.60    0.90
  -3   1  10   -1.10    1.20
  -3   1  10    0.10    0.90
   2  -1 -10   45.00    1.70
   2  -1 -10   42.50    1.80
   2  -1 -10   44.60    1.90
   2  -1 -10   47.50    1.80
   2  -1 -10   45.00    2.20
   2  -1 -10   44.30    1.60
  -2   1  10   46.90    1.70
  -2   1  10   46.50    1.80
  -2   1  10   44.00    2.10
  -2   1  10   45.30    1.90
   1  -1 -10   24.10    1.50
   1  -1 -10   25.30    1.40
   1  -1 -10   25.10    1.20
   1  -1 -10   24.80    1.10
   1  -1 -10   24.90    1.30
   1  -1 -10   25.20    1.20
  -1   1  10   24.70    1.50
  -1   1  10   24.30    1.30
  -1   1  10   23.50    1.30
  -1   1  10   24.30    1.30
   0  -1 -10   31.90    1.30
   0  -1 -10   30.90    1.20
   0  -1 -10   30.00    1.50
   0  -1 -10   33.10    1.50
   0  -1 -10   30.80    1.20
   0  -1 -10   32.30    1.20
   0   1  10   31.90    1.40
   0   1  10   32.10    1.50
   0   1  10   30.90    1.30
   0   1  10   34.00    1.30
  -1  -1 -10    8.80    0.80
  -1  -1 -10    7.90    0.70
  -1  -1 -10    8.00    0.50
  -1  -1 -10    8.70    0.80
  -1  -1 -10    6.50    0.70
  -1  -1 -10    6.40    0.60
  -1  -1 -10    8.40    0.60
   1   1  10    8.20    0.50
   1   1  10    8.90    0.80
   1   1  10    8.00    0.80
   1   1  10    9.30    0.80
   1   1  10   10.40    1.00
  -2  -1 -10   76.59    2.00
  -2  -1 -10   80.09    2.30
  -2  -1 -10   79.19    2.40
  -2  -1 -10   76.49    2.30
  -2  -1 -10   79.29    2.10
  -2  -1 -10   76.79    1.90
  -2  -1 -10   77.99    2.10
   2   1  10   75.89    2.20
   2   1  10   77.79    2.00
   2   1  10   78.59    2.10
   2   1  10   78.99    1.90
   2   1  10   78.99    2.40
   2   1  10   77.69    2.30
   2   1  10   74.29    2.10
  -3  -1 -10   60.59    2.00
  -3  -1 -10   61.49    1.90
  -3  -1 -10   59.89    1.70
  -3  -1 -10   61.59    2.10
  -3  -1 -10   60.99    1.70
  -3  -1 -10   61.09    1.70
   3   1  10   62.59    1.60
   3   1  10   60.39    1.80
   3   1  10   59.39    1.80
   3   1  10   60.09    2.20
   3   1  10   62.09    1.70
   3   1  10   63.69    1.90
   3   1  10   57.49    1.90
  -4  -1 -10   31.20    1.30
  -4  -1 -10   33.00    1.40
  -4  -1 -10   30.90    1.20
  -4  -1 -10   31.80    1.80
  -4  -1 -10   32.10    1.60
  -4  -1 -10   32.50    1.80
  -4  -1 -10   32.30    1.20
   4   1  10   32.30    1.30
   4   1  10   32.10    1.00
   4   1  10   32.80    1.90
   4   1  10   31.40    1.50
   4   1  10   30.90    1.40
   4   1  10   32.20    1.30
  -5  -1 -10  122.79    3.00
  -5  -1 -10  120.89    3.70
  -5  -1 -10  121.59    3.10
  -5  -1 -10  116.79    3.20
  -5  -1 -10  119.09    3.40
  -5  -1 -10  117.29    3.70
   5   1  10  119.09    3.40
   5   1  10  122.69    3.10
   5   1  10  119.99    2.70
   5   1  10  125.09    3.20
   5   1  10  122.39    3.80
  -6  -1 -10   40.20    2.80
  -6  -1 -10   40.90    1.80
  -6  -1 -10   40.00    2.60
  -6  -1 -10   40.90    2.20
  -6  -1 -10   42.50    2.20
  -6  -1 -10   43.30    1.50
   6   1  10   39.90    1.30
   6   1  10   41.40    2.00
   6   1  10   39.00    1.70
   6   1  10   43.10    1.90
   6   1  10   39.30    1.90
   6   1  10   40.60    1.10
   6   1  10   38.80    2.60
  -7  -1 -10   17.00    1.30
  -7  -1 -10   15.50    1.90
  -7  -1 -10   17.70    1.40
  -7  -1 -10   15.40    1.70
  -7  -1 -10   15.70    1.50
  -7  -1 -10   17.40    1.70
   7   1  10   15.30    1.50
   7   1  10   17.00    1.90
   7   1  10   17.70    1.80
   7   1  10   18.30    1.70
   7   1  10   15.60    1.40
  -8  -1 -10   19.30    1.70
  -8  -1 -10   19.80    1.60
  -8  -1 -10   16.50    2.40
  -8  -1 -10   16.80    1.70
  -8  -1 -10   18.20    2.00
   8   1  10   22.20    1.80
   8   1  10   18.20    1.80
   8   1  10   16.00    1.50
   5  -2 -10   23.70    1.80
   5  -2 -10   25.70    2.00
  -5   2  10   17.50    2.40
  -5   2  10   21.80    2.40
   4  -2 -10    7.20    1.20
   4  -2 -10    6.50    1.60
   4  -2 -10    8.50    1.40
   4  -2 -10    8.30    1.50
   4  -2 -10    6.90    1.60
  -4   2  10    8.00    1.60
  -4   2  10    8.20    1.70
  -4   2  10    8.00    1.30
  -4   2  10    5.30    1.30
   3  -2 -10    0.10    1.00
   3  -2 -10    0.20    1.00
   3  -2 -10   -0.40    0.80
   3  -2 -10   -0.40    1.00
   3  -2 -10   -0.60    0.80
   3  -2 -10   -1.00    0.90
   3  -2 -10    0.80    1.20
  -3   2  10   -0.10    1.10
  -3   2  10   -1.00    0.80
  -3   2  10    0.20    1.20
  -3   2  10   -0.50    0.90
   2  -2 -10    2.80    0.80
   2  -2 -10    3.90    1.00
   2  -2 -10    2.60    0.80
   2  -2 -10    3.20    1.00
   2  -2 -10    3.40    0.80
   2  -2 -10    1.90    0.90
   2  -2 -10    3.80    0.80
  -2   2  10    3.60    0.90
  -2   2  10    2.50    0.80
  -2   2  10    2.80    1.00
  -2   2  10    2.60    0.80
   1  -2 -10   14.90    1.50
   1  -2 -10   16.40    1.10
   1  -2 -10   15.10    1.10
   1  -2 -10   10.90    1.10
   1  -2 -10   14.30    1.20
   1  -2 -10   13.40    1.20
  -1   2  10   14.50    1.30
  -1   2  10   13.40    1.20
  -1   2  10   13.00    1.40
  -1   2  10   13.40    1.20
   0  -2 -10    2.00    0.60
   0  -2 -10    0.90    0.50
   0  -2 -10    0.50    0.60
   0  -2 -10    1.10    0.50
   0  -2 -10    1.90    0.60
   0   2  10    2.30    0.70
   0   2  10    2.10    0.60
   0   2  10    1.60    0.60
   0   2  10    1.20    0.60
  -1  -2 -10   50.69    1.70
  -1  -2 -10   53.99    1.60
  -1  -2 -10   54.39    1.70
  -1  -2 -10   55.59    1.90
  -1  -2 -10   55.89    1.70
   1   2  10   52.59    1.70
   1   2  10   52.69    1.80
   1   2  10   53.89    1.80
  -2  -2 -10   -0.90    0.50
  -2  -2 -10    0.10    0.40
  -2  -2 -10    0.60    0.40
  -2  -2 -10   -0.10    0.30
  -2  -2 -10   -0.60    0.60
  -2  -2 -10   -0.20    0.30
  -2  -2 -10   -0.10    0.50
   2   2  10   -0.30    0.50
   2   2  10    0.20    0.60
   2   2  10    0.00    0.30
   2   2  10    0.20    0.40
   2   2  10   -0.30    0.60
   2   2  10   -0.20    0.40
  -3  -2 -10    0.00    0.40
  -3  -2 -10   -0.30    0.40
  -3  -2 -10    0.10    0.30
  -3  -2 -10    0.20    0.60
  -3  -2 -10   -0.40    0.60
  -3  -2 -10    0.20    0.30
  -3  -2 -10   -0.20    0.50
   3   2  10   -0.30    0.50
   3   2  10    0.50    0.50
   3   2  10    0.30    0.40
   3   2  10   -0.30    0.60
   3   2  10   -0.10    0.40
  -4  -2 -10    4.20    0.80
  -4  -2 -10    4.20    0.80
  -4  -2 -10    3.50    0.50
  -4  -2 -10    2.80    0.80
  -4  -2 -10    3.10    0.60
  -4  -2 -10    3.30    0.70
  -4  -2 -10    3.90    0.40
   4   2  10    3.30    0.40
   4   2  10    2.70    0.60
   4   2  10    4.90    0.90
   4   2  10    4.30    0.60
   4   2  10    3.90    0.70
   4   2  10    3.80    0.60
  -5  -2 -10   22.30    1.20
  -5  -2 -10   20.20    1.50
  -5  -2 -10   21.50    1.20
  -5  -2 -10   21.90    1.50
  -5  -2 -10   20.60    1.80
  -5  -2 -10   20.30    1.80
   5   2  10   23.50    1.40
   5   2  10   20.60    1.30
   5   2  10   22.90    1.20
   5   2  10   20.90    1.80
   5   2  10   19.50    0.70
  -6  -2 -10   44.20    1.60
  -6  -2 -10   41.60    2.20
  -6  -2 -10   41.20    2.00
  -6  -2 -10   45.20    2.60
  -6  -2 -10   44.00    2.50
   6   2  10   36.70    2.80
   6   2  10   41.10    2.50
   6   2  10   43.40    1.90
   6   2  10   44.80    1.70
  -7  -2 -10   36.90    1.70
  -7  -2 -10   36.20    2.30
  -7  -2 -10   38.10    1.90
  -7  -2 -10   36.70    2.40
  -7  -2 -10   32.40    3.10
  -7  -2 -10   36.10    3.20
   7   2  10   36.20    1.80
   7   2  10   37.70    2.00
   7   2  10   37.00    2.20
   7   2  10   37.50    3.00
   7   2  10   30.70    2.00
  -8  -2 -10    0.80    2.20
  -8  -2 -10    0.20    1.60
  -8  -2 -10    0.60    1.20
  -8  -2 -10    1.00    1.50
  -8  -2 -10   -0.70    0.90
   8   2  10    1.50    2.20
   8   2  10    0.70    1.40
   8   2  10    0.90    1.10
   8   2  10    0.70    1.20
   4  -3 -10    1.20    1.20
   4  -3 -10    2.60    1.60
  -4   3  10    0.70    1.80
  -4   3  10    1.60    1.60
   3  -3 -10   52.39    2.60
   3  -3 -10   55.69    2.60
   3  -3 -10   57.69    2.30
   3  -3 -10   53.49    2.40
   3  -3 -10   52.59    3.10
   3  -3 -10   54.89    3.00
  -3   3  10   58.19    2.40
  -3   3  10   54.19    2.30
  -3   3  10   56.89    2.90
  -3   3  10   54.79    3.00
   2  -3 -10   47.60    1.90
   2  -3 -10   49.50    2.40
   2  -3 -10   48.90    2.20
   2  -3 -10   48.50    2.20
   2  -3 -10   48.70    2.10
   2  -3 -10   48.80    1.90
   2  -3 -10   42.70    2.10
  -2   3  10   44.90    2.40
  -2   3  10   47.50    1.90
  -2   3  10   44.30    2.00
  -2   3  10   49.80    2.40
   1  -3 -10   41.00    2.00
   1  -3 -10   42.00    1.90
   1  -3 -10   41.10    1.70
   1  -3 -10   43.20    1.60
   1  -3 -10   39.50    1.80
  -1   3  10   40.80    1.70
  -1   3  10   42.60    2.00
  -1   3  10   40.70    2.00
  -1   3  10   37.50    1.70
   0  -3 -10   27.50    1.40
   0  -3 -10   28.80    1.50
   0  -3 -10   28.70    1.30
   0  -3 -10   29.10    1.50
   0  -3 -10   28.50    1.30
   0  -3 -10   31.30    1.40
   0   3  10   30.20    1.50
   0   3  10   30.80    1.60
   0   3  10   31.70    1.60
   0   3  10   28.70    1.90
  -1  -3 -10    6.80    0.70
  -1  -3 -10    6.30    0.60
  -1  -3 -10    5.20    0.60
  -1  -3 -10    6.60    0.60
  -1  -3 -10    5.10    0.70
  -1  -3 -10    5.30    0.70
   1   3  10    4.70    0.70
   1   3  10    6.50    0.90
   1   3  10    4.60    0.80
   1   3  10    5.70    0.70
  -2  -3 -10   27.20    0.80
  -2  -3 -10   27.10    1.20
  -2  -3 -10   26.40    1.30
  -2  -3 -10   28.70    1.40
  -2  -3 -10   28.20    1.20
  -2  -3 -10   26.90    1.20
  -2  -3 -10   27.80    1.10
   2   3  10   28.50    1.50
   2   3  10   27.50    0.80
   2   3  10   28.60    1.30
   2   3  10   29.10    1.60
   2   3  10   28.00    1.10
   2   3  10   27.70    1.30
  -3  -3 -10   14.90    0.70
  -3  -3 -10   15.30    0.80
  -3  -3 -10   16.80    1.30
  -3  -3 -10   16.10    1.10
  -3  -3 -10   15.60    1.00
  -3  -3 -10   16.60    1.10
  -3  -3 -10   15.90    1.10
   3   3  10   14.60    0.90
   3   3  10   15.10    0.80
   3   3  10   14.80    1.40
   3   3  10   14.80    1.10
   3   3  10   16.00    1.10
   3   3  10   16.00    0.80
  -4  -3 -10   31.10    1.60
  -4  -3 -10   32.70    1.40
  -4  -3 -10   29.90    1.40
  -4  -3 -10   32.70    1.50
  -4  -3 -10   32.70    1.70
  -4  -3 -10   32.40    1.20
  -4  -3 -10   32.40    1.00
   4   3  10   29.90    1.40
   4   3  10   32.80    1.40
   4   3  10   32.00    1.10
   4   3  10   36.90    1.80
   4   3  10   33.60    1.20
   4   3  10   32.60    1.20
  -5  -3 -10    5.20    0.90
  -5  -3 -10    4.50    0.90
  -5  -3 -10    4.50    0.80
  -5  -3 -10    3.70    0.80
  -5  -3 -10    4.70    0.60
  -5  -3 -10    3.70    0.70
   5   3  10    5.10    0.70
   5   3  10    5.20    0.60
   5   3  10    4.20    1.00
   5   3  10    5.90    0.70
   5   3  10    5.30    0.80
  -6  -3 -10    2.60    1.00
  -6  -3 -10    2.30    0.70
  -6  -3 -10    2.20    0.70
  -6  -3 -10    2.10    1.20
  -6  -3 -10    2.40    1.00
  -6  -3 -10    1.90    0.90
   6   3  10    1.90    0.80
   6   3  10    1.10    0.70
   6   3  10    2.40    0.60
   6   3  10    2.60    0.80
  -7  -3 -10    2.10    1.10
  -7  -3 -10    0.70    1.50
  -7  -3 -10    0.40    0.80
  -7  -3 -10    2.00    0.90
  -7  -3 -10    0.50    1.90
  -7  -3 -10    1.30    1.30
  -7  -3 -10    2.10    1.60
   7   3  10   -0.60    0.80
   7   3  10    0.80    0.90
   7   3  10    0.30    1.00
   7   3  10    1.00    0.80
   7   3  10    1.20    1.50
  -8  -3 -10    2.70    1.10
  -8  -3 -10    1.70    1.50
  -8  -3 -10    0.70    1.00
  -8  -3 -10   -0.30    1.40
   8   3  10   -0.40    1.00
   8   3  10   -0.20    1.70
   8   3  10    0.90    1.20
  -9  -3 -10   -0.20    1.30
  -9  -3 -10   -0.20    1.20
   9   3  10    2.50    1.70
   9   3  10    0.30    1.40
   3  -4 -10   -0.60    1.50
   3  -4 -10   -0.20    1.10
  -3   4  10    1.30    1.50
  -3   4  10    0.90    1.30
  -3   4  10    1.20    1.90
  -3   4  10    0.00    1.30
   2  -4 -10    0.40    1.30
   2  -4 -10    1.20    0.80
   2  -4 -10    3.50    1.20
   2  -4 -10    2.10    0.90
  -2   4  10    2.30    1.10
  -2   4  10    1.90    0.90
  -2   4  10    2.00    1.40
  -2   4  10    3.40    1.20
   1  -4 -10   89.49    2.90
   1  -4 -10   87.79    2.50
   1  -4 -10   85.59    2.50
   1  -4 -10   87.79    3.00
   1  -4 -10   87.59    2.70
   1  -4 -10   90.29    2.90
   1  -4 -10   84.19    2.80
  -1   4  10   85.29    2.90
  -1   4  10   89.79    2.80
  -1   4  10   87.29    2.60
  -1   4  10   89.19    3.10
   0  -4 -10   35.90    1.70
   0  -4 -10   38.70    1.40
   0  -4 -10   33.90    1.60
   0  -4 -10   37.30    1.60
   0  -4 -10   37.60    1.80
   0  -4 -10   38.20    1.80
   0   4  10   35.30    1.90
   0   4  10   37.50    1.70
   0   4  10   37.40    2.00
   0   4  10   38.50    1.60
  -1  -4 -10    9.00    0.80
  -1  -4 -10    9.40    0.90
  -1  -4 -10    8.90    0.70
  -1  -4 -10   10.60    1.20
  -1  -4 -10   11.30    1.00
  -1  -4 -10   10.20    0.90
   1   4  10    9.40    1.00
   1   4  10    7.80    0.90
   1   4  10   12.30    1.20
   1   4  10    9.00    0.90
  -2  -4 -10   48.10    1.90
  -2  -4 -10   53.89    1.60
  -2  -4 -10   51.79    1.20
  -2  -4 -10   53.29    1.70
  -2  -4 -10   53.39    1.90
  -2  -4 -10   56.19    1.90
   2   4  10   54.39    1.90
   2   4  10   55.59    1.90
   2   4  10   54.49    1.80
  -3  -4 -10    3.00    0.40
  -3  -4 -10    2.40    0.40
  -3  -4 -10    2.20    0.60
  -3  -4 -10    2.30    0.60
  -3  -4 -10    2.10    0.70
  -3  -4 -10    1.70    0.60
  -3  -4 -10    2.40    0.70
   3   4  10    2.10    0.50
   3   4  10    3.00    0.60
   3   4  10    2.80    0.80
  -4  -4 -10    6.80    0.80
  -4  -4 -10    6.80    0.60
  -4  -4 -10    7.50    0.80
  -4  -4 -10    6.10    0.50
  -4  -4 -10    6.00    0.80
  -4  -4 -10    7.40    0.90
   4   4  10    4.40    0.90
   4   4  10    6.80    0.90
   4   4  10    6.00    0.60
   4   4  10    6.90    1.10
   4   4  10    6.90    0.70
   4   4  10    6.60    0.70
  -5  -4 -10    3.20    0.80
  -5  -4 -10    2.00    1.00
  -5  -4 -10    3.70    0.90
  -5  -4 -10    2.60    0.70
  -5  -4 -10    2.20    0.60
  -5  -4 -10    1.90    0.70
   5   4  10    2.80    0.70
   5   4  10    3.20    0.70
   5   4  10    2.60    0.60
   5   4  10    4.50    1.00
   5   4  10    3.10    0.50
  -6  -4 -10   30.10    1.60
  -6  -4 -10   27.90    2.40
  -6  -4 -10   27.70    2.00
  -6  -4 -10   30.10    1.50
  -6  -4 -10   31.60    1.80
  -6  -4 -10   28.50    1.80
   6   4  10   29.20    1.60
   6   4  10   28.90    1.70
   6   4  10   31.60    2.30
   6   4  10   30.50    1.30
   6   4  10   28.90    1.60
  -7  -4 -10   13.60    1.80
  -7  -4 -10   11.20    1.70
  -7  -4 -10   11.10    1.30
  -7  -4 -10    8.90    1.60
  -7  -4 -10   13.90    1.10
  -7  -4 -10    9.70    1.10
   7   4  10   10.50    1.10
   7   4  10    6.20    1.80
   7   4  10   12.00    1.20
   7   4  10   12.00    1.20
   7   4  10   12.60    1.00
  -8  -4 -10   34.80    2.20
  -8  -4 -10   44.30    3.20
  -8  -4 -10   41.10    2.30
   8   4  10   41.60    2.50
   8   4  10   42.00    2.20
  -9  -4 -10    2.70    1.60
  -9  -4 -10    2.70    1.40
   9   4  10    3.00    1.60
   9   4  10    2.50    1.40
   3  -5 -10    1.60    1.30
   3  -5 -10    2.60    1.90
   2  -5 -10   -2.90    1.30
   2  -5 -10    0.60    1.00
  -2   5  10   -0.60    0.90
  -2   5  10    0.40    1.40
  -2   5  10    1.10    1.70
  -2   5  10    1.70    1.30
   1  -5 -10   16.30    1.50
   1  -5 -10   16.70    1.60
   1  -5 -10   19.20    1.50
   1  -5 -10   17.50    1.60
  -1   5  10   18.60    1.50
  -1   5  10   16.20    1.50
  -1   5  10   15.40    1.40
  -1   5  10   18.60    1.80
   0  -5 -10    0.80    0.90
   0  -5 -10    1.30    0.70
   0  -5 -10    2.50    0.90
   0  -5 -10    2.00    0.60
   0  -5 -10    1.80    1.00
   0  -5 -10    2.80    1.10
   0  -5 -10    1.80    0.90
   0   5  10    1.80    0.70
   0   5  10    1.10    1.20
   0   5  10    2.90    0.90
  -1  -5 -10   11.40    1.00
  -1  -5 -10   11.00    1.00
  -1  -5 -10   10.10    0.90
  -1  -5 -10   12.70    1.20
  -1  -5 -10   10.80    1.00
  -1  -5 -10   11.20    1.10
   1   5  10   10.20    0.90
   1   5  10   10.40    0.90
   1   5  10   10.20    1.20
  -2  -5 -10    5.00    0.70
  -2  -5 -10    4.30    0.60
  -2  -5 -10    4.00    0.80
  -2  -5 -10    3.20    0.90
  -2  -5 -10    3.20    0.70
  -2  -5 -10    3.90    0.70
   2   5  10    3.90    0.90
   2   5  10    3.50    0.60
   2   5  10    3.50    0.70
  -3  -5 -10   29.70    1.60
  -3  -5 -10   29.60    1.40
  -3  -5 -10   27.20    1.50
  -3  -5 -10   29.10    1.60
  -3  -5 -10   28.60    1.40
  -3  -5 -10   28.90    1.00
  -3  -5 -10   29.20    1.20
   3   5  10   28.20    1.20
   3   5  10   27.30    1.50
   3   5  10   28.00    1.60
  -4  -5 -10    4.60    0.70
  -4  -5 -10    4.80    0.70
  -4  -5 -10    4.90    0.80
  -4  -5 -10    4.60    0.40
  -4  -5 -10    5.50    0.60
  -4  -5 -10    4.20    0.90
  -4  -5 -10    4.40    0.90
   4   5  10    4.50    0.60
   4   5  10    3.60    0.90
  -5  -5 -10   30.10    1.70
  -5  -5 -10   31.10    1.60
  -5  -5 -10   29.20    0.80
  -5  -5 -10   29.00    1.40
  -5  -5 -10   29.50    1.80
  -5  -5 -10   28.70    2.00
  -5  -5 -10   29.70    1.70
   5   5  10   28.60    1.40
   5   5  10   29.50    1.30
   5   5  10   30.70    1.90
   5   5  10   29.20    1.10
  -6  -5 -10    0.20    0.90
  -6  -5 -10    0.80    1.00
  -6  -5 -10    1.80    1.20
  -6  -5 -10    0.50    0.80
  -6  -5 -10    0.90    0.80
  -6  -5 -10    2.00    1.00
   6   5  10   -0.50    0.80
   6   5  10    0.60    0.50
   6   5  10   -1.50    1.00
   6   5  10    1.60    0.70
   6   5  10    0.40    0.80
  -7  -5 -10   20.80    1.50
  -7  -5 -10   19.80    1.80
  -7  -5 -10   19.50    1.60
  -7  -5 -10   19.60    1.70
   7   5  10   16.40    1.40
   7   5  10   17.90    1.70
   7   5  10   19.30    1.60
   7   5  10   17.30    1.60
   7   5  10   16.90    1.30
  -8  -5 -10   -0.60    1.20
  -8  -5 -10    1.70    1.10
   8   5  10   -0.60    1.70
   8   5  10    0.60    1.00
   8   5  10    0.20    1.10
   2  -6 -10   -0.10    1.10
   1  -6 -10    3.60    1.50
   1  -6 -10    4.10    1.00
  -1   6  10    2.90    1.10
  -1   6  10    5.90    2.00
  -1   6  10    2.90    0.90
   0  -6 -10  123.39    3.90
   0  -6 -10  119.09    3.80
   0  -6 -10  118.99    3.10
   0  -6 -10  125.09    3.20
   0  -6 -10  116.29    4.30
   0   6  10  120.99    4.20
   0   6  10  117.09    3.20
   0   6  10  120.89    3.00
  -1  -6 -10    1.00    0.60
  -1  -6 -10    1.90    0.80
  -1  -6 -10    0.70    1.00
  -1  -6 -10    1.90    1.00
   1   6  10    1.40    0.60
   1   6  10    1.20    0.70
   1   6  10   -0.50    1.20
  -2  -6 -10    8.00    0.80
  -2  -6 -10    6.80    0.80
  -2  -6 -10    6.80    0.90
  -2  -6 -10    7.30    0.90
  -2  -6 -10    9.20    0.90
  -2  -6 -10    7.30    1.10
   2   6  10    8.00    0.70
   2   6  10    7.70    0.70
  -3  -6 -10   18.50    1.50
  -3  -6 -10   21.20    1.30
  -3  -6 -10   19.00    1.30
  -3  -6 -10   19.50    1.00
  -3  -6 -10   20.50    1.50
  -3  -6 -10   21.20    1.80
  -3  -6 -10   21.90    0.90
  -3  -6 -10   21.60    1.20
   3   6  10   21.40    1.00
   3   6  10   20.30    1.20
  -4  -6 -10    1.50    0.90
  -4  -6 -10    1.20    0.50
  -4  -6 -10    1.90    0.50
  -4  -6 -10    1.10    0.70
  -4  -6 -10   -0.10    0.60
  -4  -6 -10    0.90    0.90
  -4  -6 -10    1.10    0.80
   4   6  10    0.30    0.70
   4   6  10    0.70    0.50
  -5  -6 -10   27.60    1.60
  -5  -6 -10   28.70    1.40
  -5  -6 -10   27.90    1.90
  -5  -6 -10   30.10    2.10
  -5  -6 -10   29.80    0.90
  -5  -6 -10   27.20    1.90
  -5  -6 -10   29.70    1.90
   5   6  10   28.20    1.30
   5   6  10   31.00    1.70
  -6  -6 -10    2.10    1.10
  -6  -6 -10    0.20    0.90
  -6  -6 -10    1.60    1.00
  -6  -6 -10    1.00    1.10
   6   6  10    1.10    1.00
   6   6  10    0.40    0.90
   6   6  10    1.60    0.70
  -7  -6 -10    1.40    1.00
  -7  -6 -10    0.90    1.40
  -7  -6 -10    0.90    1.20
  -7  -6 -10    1.80    1.40
   7   6  10    1.80    0.50
   7   6  10    1.00    1.00
   7   6  10    2.90    1.20
   7   6  10    2.40    0.80
  -8  -6 -10    3.20    1.30
  -8  -6 -10    0.70    1.60
   8   6  10    6.20    2.20
   8   6  10    4.20    1.30
   8   6  10    1.50    1.00
   0  -7 -10    1.40    1.00
   0  -7 -10    2.90    1.80
  -1  -7 -10    6.40    1.60
  -1  -7 -10    6.80    1.00
  -1  -7 -10    6.30    0.80
  -1  -7 -10    7.90    1.60
  -2  -7 -10    2.00    1.10
  -2  -7 -10    1.70    0.70
  -2  -7 -10    1.20    0.90
  -2  -7 -10    0.80    1.10
  -3  -7 -10   23.70    1.70
  -3  -7 -10   21.80    1.30
  -3  -7 -10   23.90    1.10
  -3  -7 -10   23.60    1.80
  -3  -7 -10   22.10    1.40
  -3  -7 -10   24.40    1.60
  -4  -7 -10    1.10    1.00
  -4  -7 -10    2.30    0.80
  -4  -7 -10    0.40    0.60
  -4  -7 -10    1.70    0.80
  -4  -7 -10    0.60    0.70
  -5  -7 -10    2.40    1.10
  -5  -7 -10    1.80    1.00
  -5  -7 -10    0.90    0.50
  -5  -7 -10    1.30    0.90
  -5  -7 -10    0.70    0.70
  -5  -7 -10    1.00    0.80
  -6  -7 -10   11.50    1.50
  -6  -7 -10    8.20    1.40
  -6  -7 -10    9.90    1.10
  -6  -7 -10   12.00    1.40
  -7  -7 -10    0.50    1.40
  -7  -7 -10   -0.90    1.10
   7   7  10    1.20    1.00
   7   7  10    0.80    0.70
   8   7  10   53.09    3.00
  -2  -8 -10   -0.50    1.30
  -2  -8 -10   -0.10    1.10
  -2  -8 -10    2.50    1.50
  -2  -8 -10    1.10    0.80
  -3  -8 -10   -0.30    1.10
  -3  -8 -10    0.80    1.30
  -3  -8 -10    0.40    1.10
  -3  -8 -10    1.00    0.80
  -4  -8 -10    2.10    1.20
  -4  -8 -10    0.50    0.80
  -4  -8 -10    1.70    1.10
  -4  -8 -10    2.30    0.90
  -4  -8 -10    1.00    1.00
  -5  -8 -10    4.50    1.40
  -5  -8 -10    1.30    1.00
  -5  -8 -10    3.10    1.00
  -5  -8 -10    2.40    1.10
  -5  -8 -10    1.90    0.90
  -6  -8 -10   12.80    1.80
  -6  -8 -10   20.40    2.60
  -6  -8 -10   14.10    1.20
   3   7 -11   16.00    2.10
   3   7 -11   16.20    2.00
  -3  -7  11   15.00    1.60
   2   7 -11    9.80    1.70
   2   7 -11    8.80    1.80
  -2  -7  11    8.20    1.50
  -2  -7  11    9.50    1.50
   1   7 -11    3.00    1.30
   1   7 -11    4.80    1.50
  -1  -7  11    2.40    1.20
  -1  -7  11    5.10    1.30
  -1  -7  11    2.60    1.20
   0   7 -11   22.00    2.30
   0   7 -11   21.10    1.70
   0  -7  11   20.90    1.60
   0  -7  11   26.60    2.30
  -1   7 -11   51.99    2.80
   1  -7  11   60.89    2.80
   1  -7  11   54.39    2.80
   4   6 -11   48.10    3.40
   4   6 -11   50.49    3.40
  -4  -6  11   40.10    2.50
  -4  -6  11   39.30    2.70
   3   6 -11   -0.70    1.40
   3   6 -11    0.60    1.50
  -3  -6  11   -0.80    1.10
   2   6 -11   48.50    2.70
   2   6 -11   51.89    2.70
  -2  -6  11   44.30    2.40
  -2  -6  11   45.80    2.20
  -2  -6  11   47.40    2.70
  -2  -6  11   52.79    2.50
   1   6 -11    0.50    1.00
   1   6 -11    0.00    1.20
   1   6 -11    2.00    1.20
  -1  -6  11   -0.20    1.00
  -1  -6  11   -0.10    1.10
  -1  -6  11    0.30    1.00
  -1  -6  11    0.30    0.90
   0   6 -11   25.30    2.50
   0   6 -11   26.70    2.00
   0   6 -11   25.80    1.20
   0  -6  11   26.00    0.90
   0  -6  11   25.60    1.90
   0  -6  11   25.20    1.70
   0  -6  11   27.60    2.20
   0  -6  11   26.20    2.00
  -1   6 -11    0.90    1.50
  -1   6 -11    3.90    1.00
   1  -6  11    6.90    1.40
   1  -6  11    7.10    1.20
   1  -6  11    4.50    1.00
   1  -6  11    4.60    1.00
   1  -6  11    6.20    0.60
  -2   6 -11   31.00    2.80
  -2   6 -11   35.90    1.80
  -2   6 -11   31.40    2.70
  -2   6 -11   35.60    2.50
   2  -6  11   36.20    1.70
   2  -6  11   30.50    2.20
   2  -6  11   35.10    2.30
  -3   6 -11   30.40    2.30
  -3   6 -11   30.40    2.50
  -3   6 -11   29.90    2.40
   3  -6  11   29.80    1.80
   3  -6  11   29.20    2.40
   3  -6  11   30.70    2.50
   5   5 -11   15.90    2.20
   5   5 -11   13.80    2.20
  -5  -5  11   11.80    1.40
  -5  -5  11   10.70    1.50
   4   5 -11    0.80    1.50
   4   5 -11    3.00    1.50
  -4  -5  11    3.60    1.30
  -4  -5  11    3.20    1.60
  -4  -5  11    1.80    2.40
  -4  -5  11    3.20    1.10
  -4  -5  11    2.20    1.10
   3   5 -11   11.40    1.70
   3   5 -11   10.10    1.50
   3   5 -11    9.10    1.30
  -3  -5  11    8.80    1.50
  -3  -5  11    8.50    1.20
  -3  -5  11   10.90    1.60
  -3  -5  11    8.30    1.20
  -3  -5  11   10.30    1.20
   2   5 -11   15.70    1.50
   2   5 -11   20.80    1.70
   2   5 -11   18.20    1.90
   2   5 -11   16.70    1.40
  -2  -5  11   19.20    1.40
  -2  -5  11   15.60    1.50
  -2  -5  11   19.90    1.60
  -2  -5  11   21.30    2.00
  -2  -5  11   19.90    1.30
  -2  -5  11   17.80    1.80
   1   5 -11   15.70    1.30
   1   5 -11   11.70    2.40
   1   5 -11   11.70    1.40
   1   5 -11   12.10    1.20
   1   5 -11   15.40    1.40
  -1  -5  11   15.80    1.70
  -1  -5  11   15.30    1.50
  -1  -5  11   15.20    1.10
  -1  -5  11   15.30    1.50
  -1  -5  11   14.60    1.30
  -1  -5  11   18.10    1.40
   0   5 -11    1.00    0.90
   0   5 -11    1.50    0.60
   0   5 -11    1.60    1.30
   0   5 -11    0.60    0.90
   0   5 -11    0.90    1.20
   0   5 -11    0.70    1.10
   0  -5  11    0.90    0.80
   0  -5  11    1.40    1.00
   0  -5  11    0.90    0.80
   0  -5  11    1.00    1.30
   0  -5  11    1.50    0.80
   0  -5  11    1.80    0.90
   0  -5  11    1.60    0.40
  -1   5 -11    1.20    0.80
  -1   5 -11    0.60    1.40
  -1   5 -11    0.40    0.80
  -1   5 -11    0.30    1.00
  -1   5 -11    1.80    0.90
  -1   5 -11    1.60    1.10
   1  -5  11    1.30    1.00
   1  -5  11    1.00    0.70
   1  -5  11    2.10    0.90
   1  -5  11    1.60    1.00
   1  -5  11    1.60    0.80
   1  -5  11    0.10    1.40
   1  -5  11    1.50    0.60
  -2   5 -11   47.20    1.80
  -2   5 -11   49.99    2.50
  -2   5 -11   48.00    2.90
  -2   5 -11   44.10    2.30
  -2   5 -11   42.00    2.10
   2  -5  11   46.20    1.80
   2  -5  11   48.00    3.20
   2  -5  11   44.90    2.20
   2  -5  11   48.10    1.60
   2  -5  11   44.00    2.30
   2  -5  11   47.60    2.00
  -3   5 -11   21.10    1.30
  -3   5 -11   19.80    1.70
  -3   5 -11   22.60    2.10
  -3   5 -11   18.20    1.60
   3  -5  11   22.30    1.50
   3  -5  11   19.90    1.80
   3  -5  11   20.40    1.60
   3  -5  11   22.40    1.80
  -4   5 -11   24.30    2.50
  -4   5 -11   24.00    2.10
   4  -5  11   24.00    1.90
   4  -5  11   26.70    1.70
   4  -5  11   23.00    2.40
   5   4 -11    0.50    1.90
   5   4 -11   -1.10    1.60
  -5  -4  11    2.90    2.00
  -5  -4  11   -2.40    1.70
  -5  -4  11    1.70    1.10
  -5  -4  11    2.80    1.30
  -5  -4  11   -1.20    1.30
   4   4 -11    8.40    1.50
   4   4 -11    7.90    1.50
   4   4 -11    7.70    1.70
  -4  -4  11    6.30    1.60
  -4  -4  11    9.10    1.20
  -4  -4  11    9.20    1.60
  -4  -4  11    8.30    1.10
  -4  -4  11    8.10    1.10
   3   4 -11    0.80    1.10
   3   4 -11    1.60    1.10
   3   4 -11    0.90    1.30
   3   4 -11    0.60    1.10
  -3  -4  11    1.90    1.20
  -3  -4  11    2.30    1.20
  -3  -4  11   -0.30    1.20
  -3  -4  11   -0.20    0.80
  -3  -4  11    1.80    0.80
  -3  -4  11    1.10    0.90
   2   4 -11    5.70    1.20
   2   4 -11    7.80    1.10
   2   4 -11    7.30    1.20
   2   4 -11    5.20    1.10
   2   4 -11    6.00    1.10
  -2  -4  11    7.20    1.10
  -2  -4  11    7.20    0.90
  -2  -4  11    4.80    1.10
  -2  -4  11    7.40    1.00
  -2  -4  11    8.40    1.00
  -2  -4  11    5.90    1.00
   1   4 -11    6.80    1.40
   1   4 -11    6.60    0.50
   1   4 -11    6.20    1.10
   1   4 -11    6.70    1.10
   1   4 -11    6.00    0.90
   1   4 -11    4.90    1.10
  -1  -4  11    5.80    1.10
  -1  -4  11    5.20    0.90
  -1  -4  11    7.00    0.90
  -1  -4  11    7.20    1.00
  -1  -4  11    6.50    0.80
  -1  -4  11    7.40    1.10
   0   4 -11   10.10    1.00
   0   4 -11    7.90    1.10
   0   4 -11    9.50    1.20
   0   4 -11   10.20    0.90
   0   4 -11   10.90    1.30
   0  -4  11    8.00    0.90
   0  -4  11   11.20    1.20
   0  -4  11   10.10    1.40
   0  -4  11    9.90    1.00
   0  -4  11    9.90    0.80
   0  -4  11    9.50    0.90
   0  -4  11    9.00    0.90
  -1   4 -11   10.80    1.10
  -1   4 -11    7.50    1.00
  -1   4 -11   13.10    1.40
  -1   4 -11   10.90    0.80
  -1   4 -11    9.40    1.30
  -1   4 -11    8.90    1.30
  -1   4 -11   11.70    0.90
   1  -4  11    9.70    1.10
   1  -4  11    8.20    1.00
   1  -4  11    8.90    0.90
   1  -4  11   10.40    0.90
   1  -4  11    8.30    1.30
   1  -4  11   10.00    0.80
   1  -4  11   11.80    0.90
  -2   4 -11   13.10    1.50
  -2   4 -11    9.70    1.00
  -2   4 -11   13.00    1.60
  -2   4 -11   12.30    1.20
  -2   4 -11   11.70    0.90
  -2   4 -11   10.70    1.00
   2  -4  11    9.90    0.90
   2  -4  11   11.80    1.00
   2  -4  11   11.80    0.90
   2  -4  11   10.70    1.10
   2  -4  11   13.20    1.00
   2  -4  11   12.20    1.50
   2  -4  11   11.00    1.10
  -3   4 -11    0.80    1.30
  -3   4 -11    1.00    0.70
  -3   4 -11   -1.70    1.50
  -3   4 -11    1.00    1.10
  -3   4 -11    1.60    1.00
  -3   4 -11    2.10    1.00
   3  -4  11    0.60    0.60
   3  -4  11   -0.50    0.90
   3  -4  11   -0.20    0.70
   3  -4  11    1.70    1.10
   3  -4  11    0.30    1.40
   3  -4  11   -0.10    1.10
   3  -4  11    0.30    0.70
  -4   4 -11    1.80    1.20
  -4   4 -11    1.30    1.30
  -4   4 -11    1.30    0.60
  -4   4 -11    1.90    1.30
  -4   4 -11    3.80    1.60
   4  -4  11    2.70    0.90
   4  -4  11    0.40    0.80
   4  -4  11    0.30    1.00
   4  -4  11    1.40    1.90
   4  -4  11    0.60    1.10
  -5   4 -11  104.69    3.80
  -5   4 -11  100.29    3.80
   5  -4  11   95.99    4.30
   5  -4  11  101.19    3.10
   5  -4  11  103.39    3.60
   5  -4  11  102.49    3.20
   5   3 -11    6.40    2.00
   5   3 -11    5.00    1.60
  -5  -3  11    6.10    1.70
  -5  -3  11    3.90    1.60
  -5  -3  11    4.50    1.20
  -5  -3  11    8.00    1.40
  -5  -3  11    2.90    1.00
   4   3 -11   27.10    2.40
   4   3 -11   30.10    1.00
   4   3 -11   32.50    2.40
   4   3 -11   31.90    2.40
   4   3 -11   29.80    2.70
   4   3 -11   30.90    0.90
  -4  -3  11   31.00    2.00
  -4  -3  11   31.30    1.60
  -4  -3  11   30.50    2.80
  -4  -3  11   28.80    2.30
  -4  -3  11   30.10    1.80
   3   3 -11    7.80    1.10
   3   3 -11    8.90    0.60
   3   3 -11    6.70    1.30
   3   3 -11    9.60    1.30
   3   3 -11    7.80    1.10
   3   3 -11    8.60    0.70
   3   3 -11    9.20    1.20
  -3  -3  11    7.40    1.10
  -3  -3  11    7.90    0.90
  -3  -3  11    9.70    1.50
  -3  -3  11   10.40    0.90
  -3  -3  11    8.20    0.90
  -3  -3  11    6.60    0.90
   2   3 -11    4.20    0.90
   2   3 -11    4.80    0.40
   2   3 -11    3.80    0.90
   2   3 -11    5.30    1.00
   2   3 -11    4.20    0.50
   2   3 -11    3.10    0.90
   2   3 -11    7.00    1.00
  -2  -3  11    3.50    1.00
  -2  -3  11    3.60    0.90
  -2  -3  11    4.00    0.90
  -2  -3  11    5.20    0.80
  -2  -3  11    3.60    0.70
   1   3 -11    0.40    0.40
   1   3 -11    0.10    0.70
   1   3 -11    0.40    0.70
   1   3 -11    0.70    0.80
   1   3 -11   -0.40    0.60
  -1  -3  11   -0.10    0.60
  -1  -3  11   -0.10    0.70
  -1  -3  11    0.10    0.80
  -1  -3  11    0.60    0.60
  -1  -3  11    0.20    0.70
  -1  -3  11   -0.50    0.80
   0   3 -11    0.40    0.60
   0   3 -11   -0.20    0.90
   0   3 -11   -0.20    0.80
   0   3 -11    0.60    0.60
   0   3 -11    0.00    0.70
   0   3 -11    0.40    0.50
   0  -3  11    0.70    0.70
   0  -3  11    0.20    0.60
   0  -3  11    0.10    0.90
   0  -3  11   -0.70    0.60
   0  -3  11    0.00    0.80
   0  -3  11    0.60    0.60
  -1   3 -11    1.10    0.60
  -1   3 -11    1.80    0.80
  -1   3 -11    1.40    0.70
  -1   3 -11    1.00    1.00
  -1   3 -11    1.00    0.90
  -1   3 -11    2.20    0.80
  -1   3 -11    2.10    0.60
   1  -3  11    1.30    0.40
   1  -3  11    0.60    0.70
   1  -3  11    0.90    0.70
   1  -3  11    0.50    0.70
   1  -3  11    1.30    0.90
   1  -3  11    3.00    1.00
   1  -3  11    1.30    0.60
  -2   3 -11   10.80    1.00
  -2   3 -11   13.50    1.40
  -2   3 -11    8.70    1.20
  -2   3 -11   11.00    0.90
  -2   3 -11   11.00    1.10
  -2   3 -11   11.30    0.80
  -2   3 -11    8.30    1.10
   2  -3  11    9.60    0.90
   2  -3  11    9.10    0.90
   2  -3  11    9.50    0.90
   2  -3  11   10.60    1.10
   2  -3  11    7.90    0.80
   2  -3  11    9.40    1.20
   2  -3  11   10.70    0.90
  -3   3 -11   -2.00    1.30
  -3   3 -11    0.30    0.60
  -3   3 -11    0.10    0.80
  -3   3 -11   -0.60    1.00
  -3   3 -11    1.40    0.80
  -3   3 -11    0.80    0.80
   3  -3  11   -0.20    0.80
   3  -3  11    0.40    0.90
   3  -3  11    0.90    0.70
   3  -3  11    0.70    0.50
   3  -3  11    1.20    0.80
   3  -3  11    0.60    1.30
   3  -3  11   -0.70    0.80
  -4   3 -11    0.60    1.00
  -4   3 -11    0.30    1.50
  -4   3 -11    0.60    1.00
  -4   3 -11    0.60    0.60
  -4   3 -11    0.40    1.00
  -4   3 -11    3.50    1.80
   4  -3  11    0.30    1.60
   4  -3  11    0.60    0.70
   4  -3  11    1.70    1.10
   4  -3  11   -0.10    0.90
   4  -3  11   -0.70    1.00
   4  -3  11    1.40    0.70
  -5   3 -11   -2.40    2.00
  -5   3 -11   -1.50    1.80
  -5   3 -11    1.40    1.30
  -5   3 -11   -0.10    0.60
  -5   3 -11   -0.60    1.90
  -5   3 -11    1.10    1.20
   5  -3  11    0.40    0.90
   5  -3  11    0.70    1.30
   5  -3  11    1.00    0.80
   5  -3  11   -0.30    1.30
   5  -3  11   -0.50    2.00
  -6   3 -11   -0.10    1.70
  -6   3 -11    0.60    1.50
   6  -3  11    2.00    1.40
   6  -3  11   -5.20    2.70
   6  -3  11    0.40    1.10
   6  -3  11    0.70    1.00
   6  -3  11   -1.50    1.40
   6  -3  11    3.00    1.90
   5   2 -11    2.80    1.50
   5   2 -11    0.60    1.70
   5   2 -11    2.20    1.50
   5   2 -11    1.30    1.50
   5   2 -11   -0.20    0.90
  -5  -2  11    3.00    1.30
  -5  -2  11   -1.40    1.80
  -5  -2  11    1.00    1.10
  -5  -2  11   -1.10    1.60
  -5  -2  11    1.70    0.80
   4   2 -11   12.20    1.80
   4   2 -11   13.50    1.40
   4   2 -11   18.60    1.90
   4   2 -11   16.70    1.00
   4   2 -11   13.40    1.50
   4   2 -11   14.40    1.30
  -4  -2  11   16.50    1.60
  -4  -2  11   17.90    1.20
  -4  -2  11   14.10    1.70
  -4  -2  11   12.10    1.20
   3   2 -11    2.80    1.00
   3   2 -11    3.20    0.70
   3   2 -11    2.80    1.20
   3   2 -11    4.80    1.00
   3   2 -11    2.50    0.50
   3   2 -11    1.00    1.00
   3   2 -11    3.50    0.90
  -3  -2  11    1.80    0.90
  -3  -2  11    2.20    0.60
  -3  -2  11    1.70    0.60
  -3  -2  11    2.20    1.00
  -3  -2  11    2.60    1.20
  -3  -2  11    2.10    0.80
   2   2 -11   -0.30    0.70
   2   2 -11   -0.40    0.80
   2   2 -11    0.40    0.40
   2   2 -11   -0.30    0.80
   2   2 -11   -0.50    0.90
   2   2 -11   -1.00    0.50
   2   2 -11    1.10    0.90
  -2  -2  11    0.30    0.70
  -2  -2  11    0.00    0.50
  -2  -2  11    1.20    0.90
  -2  -2  11    0.20    0.50
  -2  -2  11    0.40    0.60
  -2  -2  11    0.90    0.80
   1   2 -11    4.80    0.80
   1   2 -11    3.00    1.10
   1   2 -11    3.90    0.80
   1   2 -11    4.00    0.50
   1   2 -11    4.10    0.90
   1   2 -11    3.00    0.80
  -1  -2  11    3.10    0.80
  -1  -2  11    2.50    0.70
  -1  -2  11    3.60    1.00
  -1  -2  11    2.80    0.80
  -1  -2  11    4.20    0.80
  -1  -2  11    4.60    0.60
   0   2 -11  151.78    3.80
   0   2 -11  153.88    3.80
   0   2 -11  159.18    3.60
   0   2 -11  155.18    4.00
   0   2 -11  154.88    4.10
   0   2 -11  155.88    4.00
   0  -2  11  152.28    3.70
   0  -2  11  154.08    3.70
   0  -2  11  161.18    3.90
   0  -2  11  157.68    3.70
   0  -2  11  157.88    4.10
   0  -2  11  154.98    4.10
  -1   2 -11    0.10    0.60
  -1   2 -11    0.20    0.50
  -1   2 -11    0.40    0.70
  -1   2 -11    0.30    0.50
  -1   2 -11    0.40    0.50
  -1   2 -11    0.60    0.80
  -1   2 -11    0.20    0.60
   1  -2  11    0.00    0.40
   1  -2  11    0.00    0.40
   1  -2  11   -0.80    0.50
   1  -2  11   -0.40    0.60
   1  -2  11    0.30    0.60
   1  -2  11    0.30    0.50
   1  -2  11    0.00    0.80
  -2   2 -11    3.90    0.60
  -2   2 -11    3.80    0.80
  -2   2 -11    3.60    1.00
  -2   2 -11    3.00    0.70
  -2   2 -11    3.00    0.50
  -2   2 -11    2.50    0.60
  -2   2 -11    2.30    0.80
   2  -2  11    3.30    0.70
   2  -2  11    2.60    0.60
   2  -2  11    3.40    1.00
   2  -2  11    2.70    0.50
   2  -2  11    3.60    0.60
   2  -2  11    3.90    0.70
   2  -2  11    2.90    0.70
  -3   2 -11   30.60    2.30
  -3   2 -11   30.30    2.10
  -3   2 -11   33.40    1.80
  -3   2 -11   31.30    1.80
  -3   2 -11   33.60    1.30
  -3   2 -11   31.50    1.60
  -3   2 -11   32.30    1.60
   3  -2  11   32.60    1.30
   3  -2  11   34.80    1.60
   3  -2  11   28.10    2.80
   3  -2  11   30.50    1.50
   3  -2  11   33.60    1.30
   3  -2  11   34.50    1.80
   3  -2  11   32.50    1.60
  -4   2 -11   20.40    1.50
  -4   2 -11   13.00    1.50
  -4   2 -11   18.60    1.70
  -4   2 -11   17.30    1.00
  -4   2 -11   20.60    1.90
  -4   2 -11   16.40    1.70
   4  -2  11   16.60    1.70
   4  -2  11   17.00    1.80
   4  -2  11   15.40    1.40
   4  -2  11   18.90    1.50
   4  -2  11   17.60    1.10
   4  -2  11   20.30    1.60
  -5   2 -11   20.10    1.60
  -5   2 -11   26.00    2.00
  -5   2 -11   25.60    1.20
  -5   2 -11   27.00    2.30
  -5   2 -11   26.50    2.10
  -5   2 -11   19.50    2.00
   5  -2  11   25.20    2.30
   5  -2  11   25.20    2.20
   5  -2  11   24.10    2.00
   5  -2  11   26.00    1.90
   5  -2  11   26.50    1.60
   5  -2  11   25.00    1.30
  -6   2 -11   52.99    1.60
  -6   2 -11   56.39    2.90
  -6   2 -11   54.49    2.10
  -6   2 -11   53.79    2.70
  -6   2 -11   46.20    4.10
   6  -2  11   61.39    4.50
   6  -2  11   52.99    2.70
   6  -2  11   53.99    2.40
   6  -2  11   52.79    2.90
   6  -2  11   53.89    1.90
   6  -2  11   51.89    2.90
  -7   2 -11   21.90    2.20
  -7   2 -11   15.70    1.80
   7  -2  11   18.00    1.60
   7  -2  11   18.00    2.00
   7  -2  11   18.70    1.60
   7  -2  11   21.30    2.20
   5   1 -11   35.00    3.50
   5   1 -11   38.10    2.00
   5   1 -11   42.50    2.90
   5   1 -11   38.20    2.20
   5   1 -11   42.60    3.30
   5   1 -11   40.40    3.40
  -5  -1  11   44.40    3.70
  -5  -1  11   40.60    2.80
  -5  -1  11   40.80    1.50
   4   1 -11   29.10    2.30
   4   1 -11   31.80    2.40
   4   1 -11   31.90    2.30
   4   1 -11   29.90    1.80
   4   1 -11   28.70    2.80
   4   1 -11   31.40    1.50
  -4  -1  11   36.30    3.30
  -4  -1  11   31.10    1.20
  -4  -1  11   31.80    2.40
  -4  -1  11   28.70    1.30
  -4  -1  11   34.30    2.10
   3   1 -11    7.10    1.10
   3   1 -11    6.50    0.90
   3   1 -11    6.80    1.00
   3   1 -11    8.60    1.30
   3   1 -11    7.70    0.90
   3   1 -11    9.70    1.30
   3   1 -11    6.80    1.00
  -3  -1  11    9.70    1.10
  -3  -1  11    8.70    0.60
  -3  -1  11    7.20    1.00
  -3  -1  11    6.00    1.10
  -3  -1  11    8.10    0.60
  -3  -1  11    5.10    0.80
   2   1 -11   17.90    0.90
   2   1 -11   12.20    1.60
   2   1 -11   16.10    1.30
   2   1 -11   18.00    1.80
   2   1 -11   18.20    1.50
   2   1 -11   17.90    1.40
  -2  -1  11   16.80    1.60
  -2  -1  11   16.90    0.90
  -2  -1  11   17.30    1.30
  -2  -1  11   17.60    0.90
  -2  -1  11   16.50    1.70
  -2  -1  11   16.60    1.40
   1   1 -11   -0.10    0.60
   1   1 -11    0.20    0.70
   1   1 -11    0.30    0.80
   1   1 -11    0.60    0.70
   1   1 -11    0.50    0.40
   1   1 -11   -0.10    0.80
  -1  -1  11    0.40    0.70
  -1  -1  11   -0.40    0.40
  -1  -1  11   -0.70    0.60
  -1  -1  11    0.10    0.50
  -1  -1  11    0.60    0.80
   0   1 -11   31.50    1.40
   0   1 -11   33.00    1.10
   0   1 -11   34.60    1.70
   0   1 -11   32.20    1.60
   0   1 -11   33.60    1.40
   0  -1  11   32.40    1.50
   0  -1  11   33.60    1.60
   0  -1  11   31.30    1.30
   0  -1  11   32.70    1.10
   0  -1  11   32.60    1.70
   0  -1  11   33.70    1.50
  -1   1 -11   36.20    1.30
  -1   1 -11   37.40    1.40
  -1   1 -11   34.20    1.60
  -1   1 -11   36.20    1.30
  -1   1 -11   36.20    1.70
  -1   1 -11   35.20    1.40
  -1   1 -11   38.50    1.80
   1  -1  11   36.10    1.40
   1  -1  11   36.60    1.80
   1  -1  11   36.10    1.30
   1  -1  11   34.20    1.60
   1  -1  11   33.60    1.40
   1  -1  11   37.80    1.50
   1  -1  11   35.70    1.30
  -2   1 -11   36.00    1.30
  -2   1 -11   35.40    1.70
  -2   1 -11   37.30    1.40
  -2   1 -11   37.60    1.50
  -2   1 -11   35.90    1.80
  -2   1 -11   37.70    1.40
  -2   1 -11   37.30    1.90
   2  -1  11   37.40    1.70
   2  -1  11   35.10    1.90
   2  -1  11   37.20    1.50
   2  -1  11   37.10    1.50
   2  -1  11   37.30    1.30
   2  -1  11   36.80    1.30
   2  -1  11   35.90    1.40
  -3   1 -11   65.99    1.80
  -3   1 -11   68.09    2.60
  -3   1 -11   65.99    2.30
  -3   1 -11   65.09    2.00
  -3   1 -11   65.99    2.10
  -3   1 -11   63.69    2.50
  -3   1 -11   63.19    2.10
   3  -1  11   63.39    2.30
   3  -1  11   63.19    1.90
   3  -1  11   66.79    2.60
   3  -1  11   65.49    2.10
   3  -1  11   64.09    1.80
   3  -1  11   63.29    2.00
   3  -1  11   62.99    2.00
  -4   1 -11    6.10    1.30
  -4   1 -11    5.10    1.00
  -4   1 -11    5.00    0.90
  -4   1 -11    3.70    1.00
  -4   1 -11    5.20    0.60
  -4   1 -11    5.50    0.80
   4  -1  11    3.60    0.80
   4  -1  11    3.50    0.80
   4  -1  11    4.10    0.70
   4  -1  11    4.00    0.80
   4  -1  11    4.00    1.10
   4  -1  11    3.60    0.50
  -5   1 -11   -0.30    1.30
  -5   1 -11    0.60    1.00
  -5   1 -11    1.10    1.00
  -5   1 -11    0.70    0.60
  -5   1 -11    0.10    0.80
   5  -1  11   -0.50    1.40
   5  -1  11   -0.10    0.50
   5  -1  11    0.70    1.00
   5  -1  11    1.10    0.90
   5  -1  11    0.40    0.80
   5  -1  11    1.00    0.70
  -6   1 -11    3.40    1.80
  -6   1 -11    4.70    1.10
  -6   1 -11    3.90    0.70
  -6   1 -11    3.80    1.20
  -6   1 -11    6.60    2.00
   6  -1  11    3.30    0.90
   6  -1  11    4.90    2.00
   6  -1  11    3.20    1.10
   6  -1  11    2.70    1.00
   6  -1  11    3.60    0.60
  -7   1 -11    2.00    1.40
  -7   1 -11    0.80    0.70
  -7   1 -11    1.50    2.40
  -7   1 -11    1.80    1.60
   7  -1  11   -0.50    0.60
   7  -1  11    1.90    1.60
   7  -1  11   -2.30    2.50
   7  -1  11    0.70    1.40
   7  -1  11    0.50    1.20
   5   0 -11   -0.30    1.70
   5   0 -11   -1.40    1.30
   5   0 -11    0.30    1.40
   5   0 -11    1.60    1.30
   5   0 -11    0.10    1.70
  -5   0  11    2.70    1.70
  -5   0  11    2.40    2.10
   4   0 -11    4.30    0.90
   4   0 -11    3.40    1.50
   4   0 -11    2.10    1.10
   4   0 -11    1.40    1.30
   4   0 -11    1.90    1.30
   4   0 -11    2.20    1.20
  -4   0  11    1.60    1.30
  -4   0  11    2.30    1.30
  -4   0  11    2.60    1.60
   3   0 -11   16.50    1.70
   3   0 -11   13.20    1.30
   3   0 -11   13.00    1.30
   3   0 -11   12.70    1.20
   3   0 -11   10.40    1.00
   3   0 -11   14.30    1.20
   3   0 -11   13.70    1.20
  -3   0  11   13.00    1.20
  -3   0  11   12.20    1.20
  -3   0  11   14.00    1.30
   2   0 -11    0.90    0.70
   2   0 -11    0.80    0.90
   2   0 -11    1.80    0.60
   2   0 -11    1.00    0.80
   2   0 -11    0.90    0.70
   2   0 -11    1.60    1.00
   2   0 -11    1.40    0.70
  -2   0  11    1.40    0.70
  -2   0  11    1.50    0.30
  -2   0  11    1.50    0.70
  -2   0  11    1.00    1.00
  -2   0  11    1.40    0.20
  -2   0  11    1.10    0.80
   1   0 -11    6.20    0.70
   1   0 -11    6.20    0.80
   1   0 -11    8.30    1.00
   1   0 -11    9.10    1.10
   1   0 -11    6.50    0.60
  -1   0  11    6.40    0.50
  -1   0  11    7.60    1.00
  -1   0  11    5.00    0.80
  -1   0  11    6.30    0.80
  -1   0  11    6.70    0.50
  -1   0  11    7.40    0.80
   0   0 -11  194.08    4.60
   0   0 -11  189.28    4.40
   0   0 -11  189.48    4.50
   0   0 -11  194.78    4.80
   0   0 -11  194.38    4.50
   0   0  11  193.58    4.80
   0   0  11  193.78    4.50
   0   0  11  194.68    4.20
   0   0  11  193.78    4.50
   0   0  11  189.08    4.60
   0   0  11  205.38    4.80
  -1   0 -11  138.79    3.30
  -1   0 -11  141.49    3.70
  -1   0 -11  140.79    3.60
  -1   0 -11  141.29    3.30
  -1   0 -11  141.29    3.70
  -1   0 -11  136.09    3.30
  -1   0 -11  140.99    3.20
   1   0  11  139.29    3.30
   1   0  11  139.89    3.50
   1   0  11  138.39    3.40
   1   0  11  139.69    3.70
   1   0  11  137.09    3.60
   1   0  11  136.19    3.10
  -2   0 -11    4.20    0.60
  -2   0 -11    3.80    0.50
  -2   0 -11    4.40    0.60
  -2   0 -11    3.30    0.80
  -2   0 -11    4.50    0.80
  -2   0 -11    4.30    0.60
  -2   0 -11    5.40    0.90
   2   0  11    5.30    0.70
   2   0  11    3.10    0.50
   2   0  11    3.80    0.50
   2   0  11    3.90    0.70
   2   0  11    5.00    0.50
   2   0  11    4.30    0.70
   2   0  11    3.10    0.80
  -3   0 -11    2.00    0.80
  -3   0 -11    3.10    0.70
  -3   0 -11    2.90    0.50
  -3   0 -11    3.90    0.60
  -3   0 -11    3.20    0.70
  -3   0 -11    2.30    0.60
  -3   0 -11    2.00    0.80
   3   0  11    1.40    0.70
   3   0  11    2.60    0.60
   3   0  11    2.20    0.40
   3   0  11    2.10    0.50
   3   0  11    2.40    0.80
   3   0  11    2.00    0.60
   3   0  11    3.10    0.60
  -4   0 -11    0.40    0.70
  -4   0 -11    0.20    0.60
  -4   0 -11    0.00    1.00
  -4   0 -11    1.30    0.70
  -4   0 -11    0.20    0.80
  -4   0 -11   -0.60    0.80
  -4   0 -11    0.30    0.50
   4   0  11    0.30    0.40
   4   0  11   -0.10    0.50
   4   0  11    0.00    0.70
   4   0  11    0.50    0.60
   4   0  11    0.80    0.70
   4   0  11    1.10    0.90
  -5   0 -11   20.60    1.80
  -5   0 -11   17.20    2.10
  -5   0 -11   16.70    1.70
  -5   0 -11   18.90    1.10
  -5   0 -11   18.20    1.30
  -5   0 -11   17.20    1.50
   5   0  11   16.60    1.70
   5   0  11   17.90    1.60
   5   0  11   15.80    1.40
   5   0  11   18.00    0.90
   5   0  11   16.60    1.30
   5   0  11   16.70    1.50
  -6   0 -11    1.70    1.20
  -6   0 -11    0.70    0.60
  -6   0 -11    2.20    1.70
  -6   0 -11    0.90    1.50
  -6   0 -11   -0.60    0.80
  -6   0 -11    2.10    1.20
   6   0  11    0.90    0.80
   6   0  11    0.10    1.00
   6   0  11    1.00    0.90
   6   0  11    0.00    1.60
   6   0  11    1.10    0.50
   6   0  11   -0.40    1.10
  -7   0 -11   12.10    0.90
  -7   0 -11   14.70    2.70
  -7   0 -11   14.10    1.40
  -7   0 -11   13.00    1.40
  -7   0 -11   12.90    2.70
  -7   0 -11   13.20    1.80
   7   0  11   12.80    1.30
   7   0  11    9.20    1.40
   7   0  11    7.50    2.30
   7   0  11   12.80    0.90
   7   0  11   10.10    1.40
   7   0  11   12.10    1.10
  -8   0 -11   19.10    1.20
  -8   0 -11   17.00    2.30
  -8   0 -11   16.40    1.80
   8   0  11   17.90    2.10
   8   0  11   15.60    1.70
   5  -1 -11    6.00    1.70
   5  -1 -11    8.90    1.70
  -5   1  11    5.80    2.20
   4  -1 -11   21.30    1.60
   4  -1 -11   25.80    1.80
   4  -1 -11   29.10    2.30
   4  -1 -11   19.90    1.40
   4  -1 -11   24.60    2.30
   4  -1 -11   16.70    1.80
  -4   1  11   23.10    2.60
  -4   1  11   27.10    2.30
  -4   1  11   28.40    2.70
   3  -1 -11   43.80    2.20
   3  -1 -11   40.00    1.80
   3  -1 -11   47.30    2.20
   3  -1 -11   47.20    2.80
   3  -1 -11   32.70    2.80
   3  -1 -11   38.10    2.40
  -3   1  11   45.00    2.70
  -3   1  11   43.10    2.30
  -3   1  11   41.80    2.30
  -3   1  11   41.60    2.10
   2  -1 -11   23.80    1.70
   2  -1 -11   22.20    1.60
   2  -1 -11   24.20    1.60
   2  -1 -11   23.00    1.90
   2  -1 -11   23.70    1.40
   2  -1 -11   22.50    2.20
   2  -1 -11   21.40    1.50
  -2   1  11   24.80    1.70
  -2   1  11   21.70    1.70
  -2   1  11   21.90    1.70
   1  -1 -11   52.19    1.80
   1  -1 -11   51.59    1.70
   1  -1 -11   51.19    2.20
   1  -1 -11   53.29    1.90
   1  -1 -11   56.79    2.10
   1  -1 -11   53.09    1.80
  -1   1  11   51.69    1.90
  -1   1  11   49.50    2.10
  -1   1  11   52.59    2.00
   0  -1 -11    2.10    0.60
   0  -1 -11    1.50    0.50
   0  -1 -11    2.20    0.70
   0  -1 -11    2.40    0.60
   0  -1 -11    1.90    0.70
   0  -1 -11    0.80    0.60
   0   1  11    2.70    0.80
   0   1  11    1.50    0.60
   0   1  11    2.60    0.70
   0   1  11    2.20    0.70
  -1  -1 -11   27.90    1.50
  -1  -1 -11   26.50    0.90
  -1  -1 -11   28.00    1.20
  -1  -1 -11   28.60    1.20
  -1  -1 -11   26.70    1.50
  -1  -1 -11   26.80    1.20
  -1  -1 -11   27.40    1.40
   1   1  11   28.10    1.50
   1   1  11   26.70    1.40
   1   1  11   26.40    1.40
   1   1  11   26.70    1.20
   1   1  11   28.10    1.30
   1   1  11   26.60    0.80
  -2  -1 -11   75.59    2.10
  -2  -1 -11   76.69    2.00
  -2  -1 -11   77.89    2.50
  -2  -1 -11   79.99    2.40
  -2  -1 -11   77.79    2.40
  -2  -1 -11   75.89    2.10
   2   1  11   79.59    2.20
   2   1  11   78.99    2.10
   2   1  11   76.49    1.90
   2   1  11   79.49    2.50
   2   1  11   76.59    2.30
   2   1  11   76.89    2.30
   2   1  11   74.89    2.20
  -3  -1 -11  366.16    8.20
  -3  -1 -11  351.86    7.70
  -3  -1 -11  361.96    8.10
  -3  -1 -11  357.06    7.70
  -3  -1 -11  355.56    7.70
  -3  -1 -11  365.86    7.90
  -3  -1 -11  360.56    8.10
   3   1  11  369.56    8.20
   3   1  11  361.36    7.70
   3   1  11  359.46    8.00
   3   1  11  357.96    7.90
   3   1  11  351.06    7.70
   3   1  11  350.16    7.90
   3   1  11  349.96    7.80
  -4  -1 -11   85.49    2.90
  -4  -1 -11   84.39    2.20
  -4  -1 -11   89.29    2.40
  -4  -1 -11   85.09    2.90
  -4  -1 -11   88.19    2.30
  -4  -1 -11   86.89    2.70
  -4  -1 -11   87.69    2.50
   4   1  11   86.89    2.50
   4   1  11   84.09    2.10
   4   1  11   87.99    3.00
   4   1  11   85.69    2.60
   4   1  11   83.99    2.40
   4   1  11   82.49    2.30
  -5  -1 -11    2.90    0.60
  -5  -1 -11    2.40    1.10
  -5  -1 -11    1.60    1.10
  -5  -1 -11    3.50    0.70
  -5  -1 -11    3.20    0.80
  -5  -1 -11    3.20    0.90
   5   1  11    2.50    0.70
   5   1  11    3.60    0.40
   5   1  11    2.70    0.70
   5   1  11    4.20    0.90
   5   1  11    2.20    1.30
   5   1  11    3.30    0.70
  -6  -1 -11    6.30    1.60
  -6  -1 -11    4.10    1.20
  -6  -1 -11    6.20    1.20
  -6  -1 -11    6.70    1.00
  -6  -1 -11    5.40    1.10
  -6  -1 -11    4.20    0.70
   6   1  11    4.60    0.40
   6   1  11    4.40    0.90
   6   1  11    4.00    1.60
   6   1  11    3.10    0.80
   6   1  11    3.60    1.10
   6   1  11    3.80    0.90
  -7  -1 -11   22.60    2.50
  -7  -1 -11   25.80    2.30
  -7  -1 -11   25.20    2.50
  -7  -1 -11   26.20    1.90
  -7  -1 -11   24.10    1.90
  -7  -1 -11   26.80    2.50
   7   1  11   24.80    1.90
   7   1  11   27.40    2.00
   7   1  11   25.90    2.30
   7   1  11   24.60    2.40
  -8  -1 -11    3.50    1.70
  -8  -1 -11    1.40    0.90
  -8  -1 -11    0.90    2.60
  -8  -1 -11    0.50    1.80
  -8  -1 -11    1.10    1.30
   8   1  11    1.00    1.50
   8   1  11    2.70    1.30
   4  -2 -11    0.60    1.30
   4  -2 -11    0.50    1.60
  -4   2  11   -0.50    1.60
  -4   2  11    3.20    1.90
   3  -2 -11   18.70    1.90
   3  -2 -11   22.80    1.60
   3  -2 -11   17.70    1.50
   3  -2 -11   23.70    1.90
   3  -2 -11   17.00    1.60
   3  -2 -11   23.00    1.80
  -3   2  11   23.20    2.20
  -3   2  11   21.60    1.80
  -3   2  11   21.60    2.00
  -3   2  11   23.00    2.50
   2  -2 -11   19.10    1.70
   2  -2 -11   18.10    1.60
   2  -2 -11   16.90    1.50
   2  -2 -11   17.20    1.60
   2  -2 -11   17.00    1.90
   2  -2 -11   15.70    1.30
   2  -2 -11   14.10    1.40
  -2   2  11   17.80    1.60
  -2   2  11   16.30    1.40
  -2   2  11   13.80    1.10
  -2   2  11   16.60    1.40
   1  -2 -11   13.70    1.20
   1  -2 -11   13.70    1.10
   1  -2 -11   11.80    0.90
   1  -2 -11   11.90    1.20
   1  -2 -11   11.60    1.30
   1  -2 -11   11.10    0.90
   1  -2 -11   13.60    1.30
  -1   2  11   13.00    1.10
  -1   2  11   14.30    1.60
  -1   2  11   11.10    0.90
  -1   2  11   13.40    1.30
   0  -2 -11   65.29    2.20
   0  -2 -11   62.09    2.60
   0  -2 -11   64.59    2.00
   0  -2 -11   68.29    2.10
   0  -2 -11   64.39    2.00
   0   2  11   62.89    2.10
   0   2  11   67.89    2.30
   0   2  11   65.19    2.20
   0   2  11   64.09    2.10
  -1  -2 -11   68.99    2.00
  -1  -2 -11   66.89    1.90
  -1  -2 -11   65.89    2.20
  -1  -2 -11   70.69    2.10
  -1  -2 -11   67.89    2.20
  -1  -2 -11   67.19    2.00
   1   2  11   65.69    2.20
   1   2  11   66.69    2.20
   1   2  11   68.99    2.10
   1   2  11   68.79    2.20
  -2  -2 -11   21.30    1.20
  -2  -2 -11   21.70    0.80
  -2  -2 -11   22.30    1.30
  -2  -2 -11   20.30    1.10
  -2  -2 -11   21.80    1.30
  -2  -2 -11   20.20    1.40
   2   2  11   20.30    1.10
   2   2  11   21.40    1.30
   2   2  11   22.00    1.40
   2   2  11   20.80    0.80
   2   2  11   24.90    1.50
  -3  -2 -11   10.10    0.90
  -3  -2 -11   10.40    1.10
  -3  -2 -11   12.50    1.10
  -3  -2 -11   12.20    0.80
  -3  -2 -11   11.90    0.80
  -3  -2 -11   10.80    1.00
  -3  -2 -11   10.80    1.00
   3   2  11   11.90    0.80
   3   2  11   11.40    1.10
   3   2  11   12.90    1.40
   3   2  11   12.30    0.90
   3   2  11   11.30    1.10
  -4  -2 -11    0.40    0.60
  -4  -2 -11    0.40    0.70
  -4  -2 -11    0.20    0.50
  -4  -2 -11    0.70    0.80
  -4  -2 -11    0.80    0.80
  -4  -2 -11    0.30    0.40
  -4  -2 -11    0.90    0.70
   4   2  11    0.10    0.60
   4   2  11    0.20    0.60
   4   2  11    0.30    0.50
   4   2  11    0.00    0.80
  -5  -2 -11   12.60    1.10
  -5  -2 -11   11.40    1.10
  -5  -2 -11   11.10    1.00
  -5  -2 -11   14.90    1.50
  -5  -2 -11   13.50    1.40
  -5  -2 -11   12.50    1.10
   5   2  11   11.90    1.10
   5   2  11   12.10    1.50
   5   2  11   12.70    1.20
   5   2  11   14.40    1.40
   5   2  11   12.40    0.70
   5   2  11   12.90    1.30
  -6  -2 -11   23.40    1.90
  -6  -2 -11   17.50    1.70
  -6  -2 -11   18.70    1.40
  -6  -2 -11   22.50    2.30
  -6  -2 -11   21.60    1.90
  -6  -2 -11   20.90    1.50
   6   2  11   20.90    1.70
   6   2  11   18.80    1.50
   6   2  11   20.60    1.60
   6   2  11   24.60    2.00
  -7  -2 -11    0.80    1.20
  -7  -2 -11   -0.80    0.90
  -7  -2 -11   -0.60    1.90
  -7  -2 -11    0.50    1.50
  -7  -2 -11   -0.40    1.30
  -7  -2 -11    0.50    0.80
   7   2  11    0.50    0.80
   7   2  11   -0.20    1.00
   7   2  11    0.00    1.50
   7   2  11    0.10    1.10
   7   2  11    0.60    0.90
  -8  -2 -11    0.30    1.30
  -8  -2 -11    0.00    1.00
  -8  -2 -11   -0.40    1.70
  -8  -2 -11    0.00    1.70
   8   2  11    1.10    1.10
   8   2  11   -0.80    1.30
   4  -3 -11    6.80    2.00
   4  -3 -11   10.60    1.60
  -4   3  11    7.90    2.10
   3  -3 -11    4.70    1.40
   3  -3 -11    3.30    2.10
   3  -3 -11    5.50    1.20
  -3   3  11    3.70    1.60
  -3   3  11    1.80    1.50
  -3   3  11    6.40    1.80
   2  -3 -11   17.30    1.30
   2  -3 -11   20.50    1.60
   2  -3 -11   20.00    1.70
   2  -3 -11   16.50    1.40
   2  -3 -11   17.00    1.50
  -2   3  11   23.00    2.30
  -2   3  11   21.50    1.70
  -2   3  11   22.20    2.00
  -2   3  11   19.80    1.70
   1  -3 -11   39.00    1.60
   1  -3 -11   38.30    2.10
   1  -3 -11   38.70    2.00
   1  -3 -11   35.20    1.90
   1  -3 -11   35.30    2.00
   1  -3 -11   35.20    1.60
   1  -3 -11   35.50    1.90
  -1   3  11   36.20    1.80
  -1   3  11   38.50    2.20
  -1   3  11   37.90    2.10
  -1   3  11   35.80    1.90
   0  -3 -11    3.30    0.70
   0  -3 -11    3.00    0.70
   0  -3 -11    4.10    0.80
   0  -3 -11    3.30    0.70
   0  -3 -11    2.10    0.80
   0  -3 -11    3.10    0.80
   0   3  11    2.80    0.80
   0   3  11    3.80    0.90
   0   3  11    1.80    0.80
  -1  -3 -11    0.40    0.60
  -1  -3 -11   -0.10    0.60
  -1  -3 -11    0.90    0.60
  -1  -3 -11    0.30    0.60
  -1  -3 -11    0.50    0.60
  -1  -3 -11   -0.60    0.70
   1   3  11    0.20    0.90
   1   3  11    0.90    0.90
   1   3  11    0.00    0.70
  -2  -3 -11    2.50    0.70
  -2  -3 -11    2.40    0.30
  -2  -3 -11    1.90    0.60
  -2  -3 -11    2.10    0.60
  -2  -3 -11    1.40    0.70
  -2  -3 -11    2.50    0.50
   2   3  11    2.00    0.60
   2   3  11    3.20    0.90
   2   3  11    2.10    0.60
  -3  -3 -11    0.20    0.60
  -3  -3 -11    0.30    0.60
  -3  -3 -11   -0.30    0.40
  -3  -3 -11    0.20    0.80
  -3  -3 -11   -0.30    0.40
  -3  -3 -11   -0.60    0.60
   3   3  11    0.00    0.50
   3   3  11   -0.10    0.40
   3   3  11    0.20    0.60
   3   3  11   -0.10    0.70
   3   3  11    0.00    0.40
  -4  -3 -11   67.09    2.30
  -4  -3 -11   63.59    2.50
  -4  -3 -11   68.09    2.20
  -4  -3 -11   60.89    2.20
  -4  -3 -11   66.19    1.80
  -4  -3 -11   62.39    2.10
  -4  -3 -11   64.29    1.70
   4   3  11   65.09    2.10
   4   3  11   66.99    2.40
   4   3  11   65.89    1.80
   4   3  11   68.29    1.90
   4   3  11   65.59    1.90
   4   3  11   51.39    2.40
  -5  -3 -11   20.40    1.80
  -5  -3 -11   20.60    1.30
  -5  -3 -11   21.10    1.80
  -5  -3 -11   18.30    1.60
  -5  -3 -11   21.00    1.30
  -5  -3 -11   19.10    0.80
  -5  -3 -11   18.80    2.00
   5   3  11   21.10    1.30
   5   3  11   20.10    1.90
   5   3  11   20.70    1.50
   5   3  11   21.60    1.20
   5   3  11   19.10    0.90
   5   3  11   21.70    1.40
  -6  -3 -11   19.50    1.50
  -6  -3 -11   20.70    1.70
  -6  -3 -11   20.40    1.90
  -6  -3 -11   22.50    1.90
  -6  -3 -11   22.10    1.90
  -6  -3 -11   20.90    1.90
   6   3  11   18.50    1.60
   6   3  11   21.80    1.70
   6   3  11   22.30    1.60
   6   3  11   21.20    1.40
  -7  -3 -11    0.10    0.90
  -7  -3 -11   -0.30    0.90
  -7  -3 -11    0.20    1.20
  -7  -3 -11    1.40    1.60
  -7  -3 -11    3.70    1.50
  -7  -3 -11    1.50    1.70
   7   3  11    0.10    0.80
   7   3  11    1.40    1.60
   7   3  11   -0.50    1.00
   7   3  11    0.30    1.00
   7   3  11    0.10    0.80
  -8  -3 -11   11.40    1.40
  -8  -3 -11   10.50    1.20
   8   3  11   12.70    1.60
   8   3  11    8.40    1.20
   3  -4 -11    0.80    1.70
   3  -4 -11   -2.00    1.70
  -3   4  11    0.40    1.70
  -3   4  11    0.70    2.30
   2  -4 -11   19.50    1.80
   2  -4 -11   12.40    1.50
   2  -4 -11   16.00    1.30
   2  -4 -11   15.70    2.00
  -2   4  11   14.70    1.30
  -2   4  11   15.80    1.60
  -2   4  11   14.40    1.80
   1  -4 -11    0.90    0.80
   1  -4 -11   -1.40    1.70
   1  -4 -11    0.70    0.90
   1  -4 -11    1.40    0.80
   1  -4 -11    0.20    1.10
   1  -4 -11    0.10    1.10
   1  -4 -11   -0.30    1.20
  -1   4  11    0.50    1.30
  -1   4  11    0.30    1.10
  -1   4  11    2.10    1.10
  -1   4  11    1.00    0.80
   0  -4 -11   16.20    1.60
   0  -4 -11   17.00    1.20
   0  -4 -11   16.50    1.30
   0  -4 -11   16.80    1.30
   0  -4 -11   17.40    1.50
   0  -4 -11   17.00    1.70
   0   4  11   16.10    1.60
   0   4  11   13.40    1.30
   0   4  11   15.00    1.50
   0   4  11   14.00    1.20
  -1  -4 -11    3.30    0.70
  -1  -4 -11    3.00    0.60
  -1  -4 -11    1.40    0.80
  -1  -4 -11    3.10    0.70
  -1  -4 -11    1.80    0.80
  -1  -4 -11    3.20    0.80
   1   4  11    3.00    0.80
   1   4  11    2.50    1.00
   1   4  11    2.70    0.80
   1   4  11    2.60    1.20
  -2  -4 -11    6.70    0.80
  -2  -4 -11    8.20    0.80
  -2  -4 -11    6.50    0.70
  -2  -4 -11    6.50    0.90
  -2  -4 -11    6.40    0.70
  -2  -4 -11    6.50    0.90
   2   4  11    7.50    0.90
   2   4  11    5.60    0.80
   2   4  11    4.80    0.90
  -3  -4 -11   30.00    1.20
  -3  -4 -11   29.60    1.50
  -3  -4 -11   30.70    1.50
  -3  -4 -11   30.90    1.60
  -3  -4 -11   28.30    1.00
  -3  -4 -11   28.20    1.70
  -3  -4 -11   31.90    1.50
   3   4  11   30.90    1.40
   3   4  11   30.90    1.50
   3   4  11   33.50    1.80
  -4  -4 -11    2.70    0.70
  -4  -4 -11    3.10    0.90
  -4  -4 -11    3.40    0.40
  -4  -4 -11    4.10    0.80
  -4  -4 -11    3.80    1.00
  -4  -4 -11    3.80    0.70
  -4  -4 -11    2.90    0.50
   4   4  11    4.40    0.50
   4   4  11    3.20    0.60
   4   4  11    2.80    0.70
   4   4  11    4.60    0.70
   4   4  11    3.60    1.00
   4   4  11    4.40    0.70
  -5  -4 -11   18.40    1.60
  -5  -4 -11   17.20    1.40
  -5  -4 -11   17.80    1.20
  -5  -4 -11   17.60    0.70
  -5  -4 -11   18.00    2.00
  -5  -4 -11   21.60    1.70
  -5  -4 -11   15.60    1.40
   5   4  11   15.90    1.00
   5   4  11   16.70    1.50
   5   4  11   16.80    1.40
   5   4  11   17.70    1.30
   5   4  11   16.00    1.20
  -6  -4 -11   -0.40    1.10
  -6  -4 -11    2.30    0.90
  -6  -4 -11    0.50    0.90
  -6  -4 -11   -0.10    0.80
  -6  -4 -11    1.10    1.10
  -6  -4 -11    0.90    1.40
   6   4  11    1.30    0.80
   6   4  11    0.30    1.20
   6   4  11    0.60    0.80
   6   4  11    1.60    0.90
   6   4  11    0.90    0.70
  -7  -4 -11    7.00    1.10
  -7  -4 -11    5.80    1.10
  -7  -4 -11    6.40    1.40
  -7  -4 -11    4.20    1.80
   7   4  11    5.90    1.10
   7   4  11   10.00    1.80
   7   4  11    4.20    1.00
   7   4  11    7.10    0.90
   7   4  11    5.00    1.20
  -8  -4 -11    1.30    1.10
  -8  -4 -11   -0.10    1.50
   8   4  11    3.20    1.30
   8   4  11    2.10    1.20
   2  -5 -11   -1.20    1.70
   2  -5 -11    1.70    1.20
  -2   5  11    0.60    1.60
  -2   5  11    4.20    2.20
   1  -5 -11  107.59    3.80
   1  -5 -11  102.69    5.20
   1  -5 -11  111.19    3.10
  -1   5  11  111.29    3.10
  -1   5  11  105.69    3.50
  -1   5  11  104.99    4.20
   0  -5 -11   94.69    3.30
   0  -5 -11   97.09    3.30
   0  -5 -11   89.89    3.00
   0  -5 -11   97.09    2.70
   0  -5 -11   97.19    2.80
   0   5  11   97.19    2.80
   0   5  11   94.99    3.50
   0   5  11   90.19    3.00
  -1  -5 -11    1.10    0.80
  -1  -5 -11    2.10    0.90
  -1  -5 -11    2.30    1.00
  -1  -5 -11    2.30    0.80
  -1  -5 -11    1.60    0.70
  -1  -5 -11    2.60    0.90
   1   5  11    3.00    0.80
   1   5  11    2.20    0.80
   1   5  11    2.00    1.10
  -2  -5 -11    0.70    0.90
  -2  -5 -11    1.50    0.70
  -2  -5 -11    0.80    0.70
  -2  -5 -11    1.10    0.70
  -2  -5 -11    1.60    0.80
  -2  -5 -11    0.30    0.70
   2   5  11    1.60    0.70
   2   5  11    0.40    0.80
   2   5  11    0.10    1.00
  -3  -5 -11   30.30    1.80
  -3  -5 -11   27.90    1.60
  -3  -5 -11   31.70    1.30
  -3  -5 -11   29.30    1.00
  -3  -5 -11   28.60    1.70
  -3  -5 -11   29.80    1.50
   3   5  11   30.20    1.70
   3   5  11   29.90    1.40
   3   5  11   31.10    1.80
  -4  -5 -11   11.30    1.10
  -4  -5 -11    7.20    1.10
  -4  -5 -11    9.40    0.80
  -4  -5 -11    9.10    0.90
  -4  -5 -11    8.70    1.10
  -4  -5 -11    8.30    0.90
  -4  -5 -11    9.60    0.90
   4   5  11    8.60    1.00
   4   5  11    8.00    0.80
  -5  -5 -11   36.30    2.30
  -5  -5 -11   42.30    1.90
  -5  -5 -11   41.30    2.10
  -5  -5 -11   41.40    1.10
  -5  -5 -11   44.60    1.90
  -5  -5 -11   41.30    1.60
  -5  -5 -11   39.00    2.10
   5   5  11   41.40    2.00
   5   5  11   44.60    2.20
   5   5  11   41.80    1.70
   5   5  11   41.80    1.70
  -6  -5 -11   14.20    1.30
  -6  -5 -11   14.40    1.50
  -6  -5 -11   11.30    1.70
  -6  -5 -11   14.80    1.20
   6   5  11   13.60    1.10
   6   5  11   10.20    1.10
   6   5  11   16.40    1.60
   6   5  11   14.00    1.50
   6   5  11   14.80    1.40
  -7  -5 -11    4.90    1.00
  -7  -5 -11    3.50    1.20
  -7  -5 -11    3.60    1.70
  -7  -5 -11    2.90    1.40
   7   5  11    2.50    1.00
   7   5  11    2.50    0.80
   7   5  11    4.00    1.20
   7   5  11    2.00    1.00
   7   5  11    2.40    1.50
  -8  -5 -11   46.60    2.50
  -8  -5 -11   53.19    2.70
   8   5  11   47.20    2.50
   8   5  11   50.89    2.60
   1  -6 -11  121.49    3.50
   1  -6 -11  114.49    4.30
  -1   6  11  107.19    3.60
  -1   6  11  114.19    3.30
  -1   6  11  112.49    4.90
   0  -6 -11   34.70    2.00
   0  -6 -11   29.90    2.00
   0  -6 -11   31.10    2.80
   0   6  11   32.90    3.30
   0   6  11   32.90    2.10
   0   6  11   33.00    1.70
  -1  -6 -11    1.60    1.10
  -1  -6 -11    0.20    1.10
  -1  -6 -11    0.20    0.70
  -1  -6 -11   -1.20    0.80
  -1  -6 -11    0.60    1.20
   1   6  11    0.40    1.40
   1   6  11    1.10    0.80
   1   6  11    1.50    0.90
  -2  -6 -11   22.10    1.70
  -2  -6 -11   22.30    1.90
  -2  -6 -11   24.70    1.40
  -2  -6 -11   24.20    1.60
   2   6  11   22.10    1.40
   2   6  11   22.80    1.80
   2   6  11   23.10    1.50
  -3  -6 -11   46.90    1.80
  -3  -6 -11   51.89    2.10
  -3  -6 -11   51.89    2.10
  -3  -6 -11   47.60    1.40
  -3  -6 -11   49.70    1.90
  -3  -6 -11   48.90    1.30
   3   6  11   47.90    1.70
   3   6  11   45.60    1.80
  -4  -6 -11    1.80    0.60
  -4  -6 -11    2.60    0.90
  -4  -6 -11    1.10    0.90
  -4  -6 -11    1.90    0.60
  -4  -6 -11    1.40    0.90
   4   6  11    1.60    0.60
   4   6  11    1.90    0.90
  -5  -6 -11    2.40    1.00
  -5  -6 -11    0.50    0.70
  -5  -6 -11    2.50    1.00
  -5  -6 -11    1.30    0.40
  -5  -6 -11    0.50    0.90
   5   6  11    0.90    0.60
   5   6  11   -0.30    1.00
  -6  -6 -11   29.00    2.20
  -6  -6 -11   31.70    2.30
  -6  -6 -11   29.30    2.10
  -6  -6 -11   28.30    1.80
   6   6  11   29.00    1.50
   6   6  11   26.90    2.10
  -7  -6 -11   -0.40    1.30
  -7  -6 -11    0.90    1.10
   7   6  11   -0.50    1.20
   7   6  11   -0.30    1.30
   7   6  11   -0.40    0.60
   7   6  11    0.50    0.90
  -8  -6 -11   11.60    1.50
  -8  -6 -11    9.10    1.60
   8   6  11    6.10    1.40
  -1  -7 -11   17.50    1.40
  -1  -7 -11   15.30    1.80
  -2  -7 -11    4.90    0.90
  -2  -7 -11    4.20    1.20
  -2  -7 -11    4.70    1.10
  -2  -7 -11    3.90    1.40
  -3  -7 -11    9.60    1.20
  -3  -7 -11    8.10    1.30
  -3  -7 -11    7.40    1.10
  -3  -7 -11    8.20    1.00
  -3  -7 -11    8.50    0.80
  -4  -7 -11    5.80    0.70
  -4  -7 -11    6.90    1.10
  -4  -7 -11    6.10    0.90
  -4  -7 -11    4.70    1.00
  -4  -7 -11    6.10    1.00
  -4  -7 -11    5.40    1.10
  -5  -7 -11   11.10    1.40
  -5  -7 -11   11.80    1.40
  -5  -7 -11   13.30    1.40
  -5  -7 -11   10.90    1.20
  -6  -7 -11   38.10    1.90
  -6  -7 -11   35.80    2.50
   6   7  11   35.50    1.50
   6   7  11   34.80    1.30
  -7  -7 -11   -0.70    1.50
  -7  -7 -11    2.30    1.20
   7   7  11    0.30    1.10
   7   7  11    0.60    0.80
  -3  -8 -11   10.50    1.40
  -4  -8 -11   31.10    2.30
  -4  -8 -11   26.80    2.50
  -5  -8 -11    3.70    1.50
  -5  -8 -11    1.70    1.10
   3   6 -12   -0.60    1.70
   3   6 -12   -2.40    1.70
  -3  -6  12    1.10    1.30
  -3  -6  12   -0.40    1.40
   2   6 -12    4.20    1.60
   2   6 -12    8.60    1.70
  -2  -6  12    6.10    1.20
  -2  -6  12    4.90    1.40
   1   6 -12    0.90    1.30
   1   6 -12    2.60    1.40
  -1  -6  12    0.30    1.30
  -1  -6  12   -0.40    1.10
  -1  -6  12    1.90    1.10
   0   6 -12    0.20    1.10
   0   6 -12    1.70    1.20
   0  -6  12    0.70    1.20
   0  -6  12   -0.20    1.20
   0  -6  12   -0.70    1.20
  -1   6 -12    0.40    1.20
  -1   6 -12    0.50    1.20
   1  -6  12    2.30    0.70
   1  -6  12   -0.10    1.10
   1  -6  12   -0.20    1.60
   1  -6  12    0.20    1.20
  -2   6 -12    3.20    1.50
  -2   6 -12    4.80    1.70
   2  -6  12    5.10    1.20
   2  -6  12    5.70    1.50
   2  -6  12    6.40    0.90
   4   5 -12   57.39    3.70
   4   5 -12   58.59    3.80
  -4  -5  12   62.19    2.70
  -4  -5  12   62.09    2.90
   3   5 -12    1.50    1.50
   3   5 -12    2.90    1.70
  -3  -5  12    1.00    1.10
  -3  -5  12    0.10    1.60
  -3  -5  12    0.70    1.10
  -3  -5  12   -0.30    1.30
   2   5 -12    2.60    1.30
   2   5 -12    1.70    1.30
   2   5 -12    2.20    1.30
  -2  -5  12    2.80    1.30
  -2  -5  12    3.30    1.00
  -2  -5  12    5.60    1.30
  -2  -5  12    2.10    1.60
  -2  -5  12    1.90    1.20
   1   5 -12    4.90    1.30
   1   5 -12    7.30    1.40
   1   5 -12    4.50    1.20
  -1  -5  12    5.50    1.30
  -1  -5  12    5.80    1.10
  -1  -5  12    6.00    1.50
  -1  -5  12    5.60    1.00
  -1  -5  12    7.20    1.30
  -1  -5  12    6.80    1.30
   0   5 -12   53.19    2.40
   0   5 -12   53.69    1.70
   0   5 -12   55.39    2.80
   0   5 -12   54.49    2.50
   0  -5  12   47.60    2.50
   0  -5  12   55.89    3.10
   0  -5  12   52.99    2.20
   0  -5  12   56.69    2.20
   0  -5  12   55.79    2.50
   0  -5  12   48.40    2.60
  -1   5 -12    1.60    1.50
  -1   5 -12    0.60    1.00
  -1   5 -12    0.40    1.00
   1  -5  12    0.60    0.90
   1  -5  12    0.80    1.00
   1  -5  12    0.00    1.10
   1  -5  12   -0.60    0.90
   1  -5  12   -0.30    0.60
   1  -5  12    0.50    1.60
  -2   5 -12   59.89    2.60
  -2   5 -12   61.49    2.70
  -2   5 -12   60.59    2.80
  -2   5 -12   58.89    2.30
   2  -5  12   61.89    2.40
   2  -5  12   59.29    2.70
   2  -5  12   62.09    3.00
   2  -5  12   63.79    2.30
   2  -5  12   60.39    1.90
  -3   5 -12    2.60    1.60
  -3   5 -12   -0.10    1.20
  -3   5 -12    1.10    0.90
  -3   5 -12   -0.50    1.40
   3  -5  12    1.00    1.30
   3  -5  12    1.10    1.00
   3  -5  12    1.10    0.80
  -4   5 -12   87.49    3.60
  -4   5 -12  110.89    5.70
   4  -5  12   93.59    3.20
   4  -5  12   88.99    2.90
   4  -5  12   85.19    3.60
   4   4 -12    8.00    2.10
   4   4 -12    5.50    1.70
  -4  -4  12    6.00    1.30
  -4  -4  12    7.40    1.10
  -4  -4  12    6.50    1.30
  -4  -4  12    6.20    1.80
  -4  -4  12    7.80    1.80
   3   4 -12   74.09    3.50
   3   4 -12   72.39    3.10
   3   4 -12   74.59    3.10
  -3  -4  12   72.19    3.30
  -3  -4  12   71.89    2.60
  -3  -4  12   71.09    4.10
  -3  -4  12   68.89    2.50
  -3  -4  12   68.99    2.60
   2   4 -12    4.20    1.40
   2   4 -12    2.50    1.40
   2   4 -12    4.30    1.30
   2   4 -12    4.20    1.20
  -2  -4  12    3.20    1.20
  -2  -4  12    4.10    1.00
  -2  -4  12    4.60    1.40
  -2  -4  12    5.40    1.00
  -2  -4  12    4.20    1.30
   1   4 -12   -0.40    1.10
   1   4 -12   -0.60    1.90
   1   4 -12    0.40    1.10
   1   4 -12   -0.30    0.50
   1   4 -12   -2.30    1.20
   1   4 -12   -0.10    1.00
  -1  -4  12    1.00    0.90
  -1  -4  12    0.30    0.80
  -1  -4  12    1.90    1.00
  -1  -4  12   -0.30    1.20
  -1  -4  12    0.10    1.00
  -1  -4  12    1.00    1.00
   0   4 -12    7.30    1.00
   0   4 -12    6.90    1.30
   0   4 -12    8.20    0.70
   0   4 -12    7.80    1.40
   0   4 -12    7.30    1.20
   0   4 -12    5.90    1.20
   0  -4  12    7.40    1.00
   0  -4  12    7.70    1.40
   0  -4  12    6.50    1.10
   0  -4  12    6.90    0.90
   0  -4  12    7.00    1.00
   0  -4  12    8.60    1.10
  -1   4 -12    4.90    0.90
  -1   4 -12    5.60    1.10
  -1   4 -12    2.70    1.20
  -1   4 -12    5.50    0.90
  -1   4 -12    6.40    0.90
  -1   4 -12    5.40    1.30
  -1   4 -12    6.90    1.40
   1  -4  12    8.50    1.20
   1  -4  12    7.10    0.70
   1  -4  12    5.40    1.10
   1  -4  12    5.10    0.90
   1  -4  12    6.80    1.20
   1  -4  12    5.40    1.40
   1  -4  12    5.10    0.90
  -2   4 -12   12.10    1.70
  -2   4 -12   14.30    1.70
  -2   4 -12   13.30    1.10
  -2   4 -12   10.80    1.10
  -2   4 -12   11.80    1.30
  -2   4 -12   13.60    1.10
   2  -4  12   11.30    1.00
   2  -4  12   17.00    1.90
   2  -4  12   13.90    1.00
   2  -4  12   15.20    1.40
   2  -4  12   15.00    1.30
   2  -4  12   11.90    1.30
   2  -4  12   12.10    1.10
  -3   4 -12    0.90    1.10
  -3   4 -12   -0.70    1.60
  -3   4 -12    0.10    1.10
  -3   4 -12    1.10    1.10
  -3   4 -12   -0.30    1.10
   3  -4  12    1.50    1.10
   3  -4  12    1.10    1.00
   3  -4  12    0.50    0.70
   3  -4  12    0.70    0.80
   3  -4  12   -0.20    1.10
   3  -4  12    2.00    1.80
  -4   4 -12    3.40    1.50
  -4   4 -12    4.00    0.80
  -4   4 -12    4.30    1.40
  -4   4 -12    2.70    1.40
   4  -4  12    5.30    1.50
   4  -4  12    4.60    1.30
   4  -4  12    2.30    2.40
   4  -4  12    5.10    1.00
   4  -4  12    3.90    0.90
  -5   4 -12   25.60    2.10
  -5   4 -12   33.70    3.10
   5  -4  12   29.50    2.10
   5  -4  12   31.70    2.20
   5  -4  12   25.50    2.70
   5   3 -12   13.60    2.20
  -5  -3  12   17.80    1.40
  -5  -3  12   12.20    1.90
  -5  -3  12   15.40    2.40
   4   3 -12   23.10    2.20
   4   3 -12   22.60    1.90
   4   3 -12   17.10    2.20
   4   3 -12   21.20    2.60
  -4  -3  12   15.70    2.00
  -4  -3  12   17.60    1.40
  -4  -3  12   18.30    1.30
  -4  -3  12   19.30    1.60
  -4  -3  12   13.80    1.70
   3   3 -12    5.30    0.50
   3   3 -12    4.30    1.20
   3   3 -12    5.40    1.60
   3   3 -12    3.00    1.40
   3   3 -12    3.30    1.20
   3   3 -12    5.20    0.50
  -3  -3  12    6.10    1.40
  -3  -3  12    6.20    0.90
  -3  -3  12    5.80    0.90
  -3  -3  12    5.00    1.20
  -3  -3  12    4.20    1.00
   2   3 -12    0.60    0.40
   2   3 -12    1.10    1.00
   2   3 -12    1.20    1.10
   2   3 -12   -1.10    1.60
   2   3 -12   -0.60    1.20
   2   3 -12    0.30    1.20
   2   3 -12    1.00    0.50
  -2  -3  12    1.10    1.20
  -2  -3  12   -0.20    1.00
  -2  -3  12    1.20    0.80
  -2  -3  12   -0.40    1.10
  -2  -3  12    1.20    0.80
   1   3 -12    5.60    0.90
   1   3 -12    6.80    0.60
   1   3 -12    2.60    0.90
   1   3 -12    6.70    1.20
   1   3 -12    5.60    1.00
   1   3 -12    4.10    1.00
  -1  -3  12    8.00    1.20
  -1  -3  12    5.60    0.90
  -1  -3  12    6.30    0.80
  -1  -3  12    6.00    1.20
  -1  -3  12    5.30    0.80
  -1  -3  12    6.30    1.10
   0   3 -12   76.49    2.70
   0   3 -12   73.99    2.40
   0   3 -12   69.19    2.80
   0   3 -12   73.39    2.60
   0   3 -12   73.79    2.70
   0   3 -12   76.59    2.00
   0  -3  12   73.19    2.30
   0  -3  12   73.59    2.30
   0  -3  12   75.79    2.80
   0  -3  12   76.19    2.70
   0  -3  12   70.79    2.30
   0  -3  12   75.89    2.50
  -1   3 -12   16.30    1.40
  -1   3 -12   13.70    1.40
  -1   3 -12    8.80    1.00
  -1   3 -12   11.20    1.20
  -1   3 -12   13.20    1.10
  -1   3 -12   15.40    1.40
  -1   3 -12   15.30    1.50
   1  -3  12   12.20    1.20
   1  -3  12   13.90    1.20
   1  -3  12   14.90    1.40
   1  -3  12   13.70    1.00
   1  -3  12   12.80    1.00
   1  -3  12   13.00    1.10
   1  -3  12   14.90    1.50
  -2   3 -12    0.40    0.70
  -2   3 -12    1.60    1.30
  -2   3 -12    0.30    1.20
  -2   3 -12    1.00    1.10
  -2   3 -12    0.10    0.90
  -2   3 -12    0.90    0.80
  -2   3 -12    0.70    0.80
   2  -3  12    0.00    0.50
   2  -3  12    0.40    0.90
   2  -3  12   -0.20    0.80
   2  -3  12    0.10    0.80
   2  -3  12    1.00    1.20
   2  -3  12   -0.60    0.80
   2  -3  12   -0.20    0.60
  -3   3 -12   -0.10    1.00
  -3   3 -12    1.90    1.60
  -3   3 -12    0.30    0.70
  -3   3 -12    0.40    1.00
  -3   3 -12    1.70    1.40
  -3   3 -12    0.70    0.90
   3  -3  12    1.80    1.30
   3  -3  12    0.90    1.00
   3  -3  12    0.10    0.80
   3  -3  12    0.80    0.60
   3  -3  12    0.90    0.90
   3  -3  12   -0.10    0.80
   3  -3  12    0.80    0.70
  -4   3 -12    0.80    1.20
  -4   3 -12   -0.30    1.80
  -4   3 -12    0.70    0.70
  -4   3 -12    1.10    1.70
  -4   3 -12    0.80    1.10
  -4   3 -12    0.80    1.10
   4  -3  12    0.80    0.70
   4  -3  12    2.80    1.70
   4  -3  12    2.20    1.20
   4  -3  12    0.90    1.00
   4  -3  12    1.40    0.80
  -5   3 -12    6.90    1.60
  -5   3 -12    4.50    1.60
  -5   3 -12    6.30    0.80
   5  -3  12    3.90    1.50
   5  -3  12    6.90    1.10
   5  -3  12    5.20    1.30
   5  -3  12    5.70    0.90
   5  -3  12    5.10    2.50
  -6   3 -12   26.50    2.70
  -6   3 -12   33.50    3.30
   6  -3  12   25.40    1.90
   6  -3  12   34.10    2.90
   6  -3  12   32.00    2.40
   5   2 -12    8.30    2.10
   5   2 -12   10.80    2.40
  -5  -2  12    8.90    1.70
  -5  -2  12    9.30    2.20
   4   2 -12   14.40    1.20
   4   2 -12   18.50    2.00
   4   2 -12   15.00    2.00
   4   2 -12   17.20    1.50
   4   2 -12   12.00    1.70
   4   2 -12   15.80    1.70
  -4  -2  12   13.60    2.40
  -4  -2  12   14.30    1.30
  -4  -2  12   12.20    1.40
   3   2 -12    0.30    1.30
   3   2 -12    0.40    0.70
   3   2 -12   -0.50    1.10
   3   2 -12    0.30    1.00
   3   2 -12    0.50    0.50
   3   2 -12   -0.70    1.40
  -3  -2  12    0.30    1.30
  -3  -2  12    0.60    0.60
  -3  -2  12    0.60    0.70
  -3  -2  12   -0.70    1.00
  -3  -2  12   -0.40    0.80
   2   2 -12   -0.80    1.10
   2   2 -12    0.30    0.50
   2   2 -12   -0.20    0.70
   2   2 -12   -0.80    1.00
   2   2 -12    1.70    0.90
   2   2 -12    0.00    1.10
   2   2 -12    0.10    0.90
  -2  -2  12    0.30    1.10
  -2  -2  12    0.50    0.80
  -2  -2  12    1.50    1.00
  -2  -2  12    1.00    0.60
  -2  -2  12   -0.30    0.80
  -2  -2  12    0.60    0.60
   1   2 -12    9.40    0.90
   1   2 -12   10.50    1.20
   1   2 -12   11.80    1.30
   1   2 -12    7.90    1.10
   1   2 -12   11.40    1.10
   1   2 -12   10.80    1.10
  -1  -2  12    8.60    0.80
  -1  -2  12    9.20    1.20
  -1  -2  12    6.60    0.90
  -1  -2  12    9.20    0.90
  -1  -2  12    9.10    1.00
   0   2 -12    1.80    0.80
   0   2 -12    3.00    0.70
   0   2 -12    3.30    0.60
   0   2 -12    2.90    0.80
   0   2 -12    3.10    1.00
   0   2 -12    4.30    1.00
   0  -2  12    2.10    0.80
   0  -2  12    2.90    0.90
   0  -2  12    3.40    1.00
   0  -2  12    2.00    0.60
   0  -2  12    3.00    0.70
   0  -2  12    1.90    0.90
  -1   2 -12   -0.10    0.60
  -1   2 -12   -1.00    0.80
  -1   2 -12    0.00    0.60
  -1   2 -12    0.90    0.80
  -1   2 -12   -1.50    0.80
  -1   2 -12    1.40    1.00
  -1   2 -12   -0.30    0.60
   1  -2  12    0.20    0.80
   1  -2  12    0.50    0.70
   1  -2  12    0.10    0.60
   1  -2  12   -0.40    1.00
   1  -2  12   -0.10    0.50
   1  -2  12   -0.10    0.60
  -2   2 -12    0.60    0.70
  -2   2 -12    0.50    1.20
  -2   2 -12   -0.50    0.90
  -2   2 -12    1.00    0.80
  -2   2 -12    0.40    0.70
  -2   2 -12    1.70    0.90
  -2   2 -12    0.40    0.60
   2  -2  12    0.90    1.10
   2  -2  12    0.50    0.60
   2  -2  12    0.50    0.50
   2  -2  12    0.90    0.70
   2  -2  12    0.80    0.80
   2  -2  12    1.10    0.70
   2  -2  12    1.10    0.70
  -3   2 -12    0.00    0.60
  -3   2 -12   -0.30    1.00
  -3   2 -12    0.50    0.90
  -3   2 -12   -0.70    0.80
  -3   2 -12    0.50    1.30
  -3   2 -12   -0.10    1.00
  -3   2 -12   -0.80    0.90
   3  -2  12    0.20    0.60
   3  -2  12   -0.50    0.60
   3  -2  12   -0.90    0.80
   3  -2  12    0.40    0.70
   3  -2  12   -0.20    0.80
   3  -2  12   -0.80    1.10
   3  -2  12   -0.30    0.80
  -4   2 -12    6.10    1.10
  -4   2 -12    6.60    1.80
  -4   2 -12    7.10    0.70
  -4   2 -12    9.40    1.30
  -4   2 -12    7.20    1.20
  -4   2 -12    7.80    1.60
   4  -2  12    8.70    0.80
   4  -2  12    6.90    1.60
   4  -2  12    8.00    1.10
   4  -2  12    7.00    0.80
   4  -2  12    4.80    1.00
   4  -2  12    8.20    1.20
  -5   2 -12    3.50    2.10
  -5   2 -12    6.30    0.70
  -5   2 -12    4.90    1.30
  -5   2 -12    5.60    1.20
  -5   2 -12    7.20    1.40
   5  -2  12    3.70    0.90
   5  -2  12    5.40    0.80
   5  -2  12    4.70    1.20
   5  -2  12    3.80    1.20
   5  -2  12    5.00    2.00
  -6   2 -12    0.30    1.40
  -6   2 -12    0.30    0.70
  -6   2 -12    0.00    1.60
   6  -2  12    0.30    1.10
   6  -2  12    0.20    2.90
   6  -2  12    0.00    0.80
   6  -2  12    1.70    1.20
   6  -2  12   -2.10    1.50
   5   1 -12    2.90    1.80
   5   1 -12    3.30    2.50
  -5  -1  12    6.20    2.20
   4   1 -12    6.80    1.80
   4   1 -12    4.70    0.90
   4   1 -12    6.80    1.10
   4   1 -12    4.20    1.80
   4   1 -12    4.40    1.50
   4   1 -12    4.20    1.70
  -4  -1  12    6.70    1.50
  -4  -1  12    3.10    1.50
  -4  -1  12    5.10    0.60
  -4  -1  12    4.70    1.80
   3   1 -12   18.90    1.30
   3   1 -12   16.60    1.30
   3   1 -12   20.10    1.70
   3   1 -12   22.10    1.90
   3   1 -12   19.70    2.00
   3   1 -12   19.90    2.10
  -3  -1  12   19.20    1.50
  -3  -1  12   17.10    1.50
  -3  -1  12   19.80    1.00
  -3  -1  12   20.60    1.00
   2   1 -12   21.40    1.10
   2   1 -12   19.60    1.70
   2   1 -12   18.60    1.70
   2   1 -12   18.70    1.80
   2   1 -12   23.90    1.80
   2   1 -12   19.50    1.50
   2   1 -12   17.40    1.70
  -2  -1  12   19.80    2.00
  -2  -1  12   17.00    1.90
  -2  -1  12   20.90    1.70
  -2  -1  12   19.90    1.00
  -2  -1  12   19.20    1.50
  -2  -1  12   18.90    0.90
   1   1 -12   14.90    1.40
   1   1 -12   12.60    1.20
   1   1 -12   12.00    1.20
   1   1 -12   15.50    1.30
   1   1 -12   13.80    1.40
  -1  -1  12   13.00    1.30
  -1  -1  12   13.00    1.20
  -1  -1  12   10.00    1.10
  -1  -1  12   13.60    0.90
  -1  -1  12   15.40    1.20
   0   1 -12    7.20    0.80
   0   1 -12   10.80    0.90
   0   1 -12    8.20    1.50
   0   1 -12    6.50    0.90
   0   1 -12   11.90    1.20
   0   1 -12   10.90    1.00
   0  -1  12    9.10    0.80
   0  -1  12   11.10    1.10
   0  -1  12   10.10    1.10
   0  -1  12   10.60    1.00
   0  -1  12    7.50    0.90
  -1   1 -12    7.50    0.90
  -1   1 -12    6.40    0.70
  -1   1 -12    7.60    0.70
  -1   1 -12    6.40    1.00
  -1   1 -12    5.90    0.90
  -1   1 -12    5.20    0.80
  -1   1 -12    6.20    0.70
   1  -1  12    5.90    0.70
   1  -1  12    5.00    0.70
   1  -1  12    7.60    1.00
   1  -1  12    6.50    0.60
   1  -1  12    5.70    1.10
   1  -1  12    7.80    0.90
   1  -1  12    7.60    0.70
  -2   1 -12    2.60    0.70
  -2   1 -12    2.70    0.80
  -2   1 -12    2.70    0.90
  -2   1 -12    3.70    0.70
  -2   1 -12    3.70    0.70
  -2   1 -12    1.90    0.60
   2  -1  12    3.30    0.60
   2  -1  12    4.00    0.60
   2  -1  12    3.20    0.50
   2  -1  12    4.10    0.90
   2  -1  12    3.90    0.80
   2  -1  12    3.70    0.80
   2  -1  12    3.90    1.00
  -3   1 -12    8.40    1.00
  -3   1 -12    8.80    1.30
  -3   1 -12    9.50    0.90
  -3   1 -12    7.60    1.00
  -3   1 -12   11.40    1.30
  -3   1 -12   11.10    1.00
  -3   1 -12   10.50    0.80
   3  -1  12    7.40    0.90
   3  -1  12   10.10    0.80
   3  -1  12    9.30    0.80
   3  -1  12    9.80    1.00
   3  -1  12    8.20    0.70
   3  -1  12    9.80    1.20
   3  -1  12   10.00    1.00
  -4   1 -12   12.20    1.60
  -4   1 -12   17.10    1.30
  -4   1 -12   14.60    1.30
  -4   1 -12   14.50    1.60
  -4   1 -12   11.80    1.10
  -4   1 -12   13.90    1.10
   4  -1  12   13.90    1.20
   4  -1  12   15.80    1.50
   4  -1  12   16.00    1.40
   4  -1  12   13.50    1.20
   4  -1  12   12.30    1.50
   4  -1  12   14.20    1.00
  -5   1 -12   13.70    1.90
  -5   1 -12   11.30    0.90
  -5   1 -12   10.30    1.10
  -5   1 -12   12.80    1.40
  -5   1 -12   15.10    1.90
  -5   1 -12   13.60    1.40
   5  -1  12   11.60    1.20
   5  -1  12   10.90    1.20
   5  -1  12   11.30    1.30
   5  -1  12   11.70    1.10
   5  -1  12   13.20    1.10
   5  -1  12    9.80    1.80
  -6   1 -12    5.50    1.20
  -6   1 -12    9.10    2.20
  -6   1 -12    3.20    1.30
  -6   1 -12    7.40    0.80
  -6   1 -12    9.50    2.20
   6  -1  12    6.30    1.20
   6  -1  12    6.60    0.80
   6  -1  12    2.90    2.30
   6  -1  12    5.80    1.10
   6  -1  12    3.30    2.00
  -7   1 -12    5.50    1.60
  -7   1 -12    1.90    3.90
  -7   1 -12    3.30    0.90
  -7   1 -12    4.70    1.70
   7  -1  12    2.50    1.40
   7  -1  12    3.90    0.90
   7  -1  12    5.00    1.30
   7  -1  12    3.20    1.60
   4   0 -12    0.30    1.20
   4   0 -12    1.60    1.30
   4   0 -12   -0.90    1.70
   4   0 -12    0.70    1.10
   4   0 -12   -1.10    1.50
   4   0 -12   -1.40    1.70
  -4   0  12    0.00    1.40
  -4   0  12    1.90    1.80
   3   0 -12    2.90    1.20
   3   0 -12    2.70    1.10
   3   0 -12    3.10    0.80
   3   0 -12    4.50    1.50
   3   0 -12    3.00    1.10
   3   0 -12    2.10    1.30
  -3   0  12    2.80    1.20
  -3   0  12    1.70    1.00
  -3   0  12    3.50    1.60
   2   0 -12    9.10    1.00
   2   0 -12    5.10    1.00
   2   0 -12    8.40    1.10
   2   0 -12    6.70    1.00
   2   0 -12    7.60    1.20
   2   0 -12    8.50    0.80
   2   0 -12    7.30    1.00
  -2   0  12    6.90    1.10
  -2   0  12   10.30    1.10
  -2   0  12    8.50    1.20
   1   0 -12  156.48    4.20
   1   0 -12  160.58    3.70
   1   0 -12  149.09    3.90
   1   0 -12  161.28    4.10
   1   0 -12  156.78    4.30
   1   0 -12  151.18    3.90
  -1   0  12  159.88    4.00
  -1   0  12  162.98    4.20
  -1   0  12  151.38    3.30
  -1   0  12  159.28    3.40
  -1   0  12  149.59    3.90
  -1   0  12  156.48    4.30
   0   0 -12    5.30    0.70
   0   0 -12    5.80    0.80
   0   0 -12    6.10    0.90
   0   0 -12    5.40    0.60
   0   0 -12    6.10    1.00
   0   0 -12    5.20    1.00
   0   0  12    6.10    0.60
   0   0  12    5.60    0.90
   0   0  12    5.10    0.80
   0   0  12    5.30    0.70
   0   0  12    6.50    0.90
   0   0  12    4.10    0.90
  -1   0 -12    0.30    0.80
  -1   0 -12    0.50    0.70
  -1   0 -12   -0.10    0.50
  -1   0 -12   -0.70    0.80
  -1   0 -12    0.20    0.60
  -1   0 -12   -0.60    0.80
  -1   0 -12   -0.20    0.40
   1   0  12    0.20    0.50
   1   0  12    0.10    0.80
   1   0  12    0.10    0.40
   1   0  12    1.40    0.80
   1   0  12   -0.90    0.70
   1   0  12    0.10    0.60
  -2   0 -12  207.78    4.70
  -2   0 -12  216.38    5.20
  -2   0 -12  203.38    4.80
  -2   0 -12  217.48    4.90
  -2   0 -12  215.38    4.80
  -2   0 -12  204.38    5.20
  -2   0 -12  209.98    5.20
   2   0  12  202.78    5.00
   2   0  12  210.88    5.10
   2   0  12  214.68    5.00
   2   0  12  218.78    5.30
   2   0  12  205.98    4.70
   2   0  12  214.68    4.90
   2   0  12  210.08    4.80
  -3   0 -12   63.69    2.30
  -3   0 -12   61.59    1.90
  -3   0 -12   59.99    2.00
  -3   0 -12   59.79    2.60
  -3   0 -12   62.69    2.10
  -3   0 -12   62.79    1.90
  -3   0 -12   60.59    2.50
   3   0  12   61.49    2.60
   3   0  12   60.89    2.20
   3   0  12   61.29    1.90
   3   0  12   61.99    2.10
   3   0  12   62.29    1.90
   3   0  12   61.69    1.80
   3   0  12   57.29    2.10
  -4   0 -12   13.30    1.20
  -4   0 -12   17.60    1.50
  -4   0 -12   13.50    1.50
  -4   0 -12   16.80    1.60
  -4   0 -12   14.60    1.30
  -4   0 -12   15.00    1.10
  -4   0 -12   13.90    1.10
   4   0  12   14.60    0.90
   4   0  12   14.40    1.50
   4   0  12   14.20    1.20
   4   0  12   16.60    1.60
   4   0  12   13.20    1.30
   4   0  12   12.30    1.40
  -5   0 -12    6.00    1.10
  -5   0 -12    5.20    1.20
  -5   0 -12    6.30    0.80
  -5   0 -12    4.10    1.30
  -5   0 -12    3.70    1.10
  -5   0 -12    3.60    0.90
   5   0  12    4.70    1.00
   5   0  12    5.40    1.00
   5   0  12    6.30    0.60
   5   0  12    3.90    1.50
   5   0  12    5.50    0.80
   5   0  12    5.60    1.10
  -6   0 -12    1.20    1.00
  -6   0 -12    1.10    1.10
  -6   0 -12   -1.50    1.80
  -6   0 -12    0.10    0.80
  -6   0 -12   -3.00    1.50
   6   0  12    0.80    0.50
   6   0  12    0.20    1.10
   6   0  12    1.00    1.20
   6   0  12    0.10    0.90
   6   0  12   -1.80    1.00
   6   0  12    2.20    1.90
  -7   0 -12   27.60    3.50
  -7   0 -12   24.90    2.30
  -7   0 -12   31.20    3.20
  -7   0 -12   21.90    2.20
  -7   0 -12   29.60    2.60
   7   0  12   21.80    2.10
   7   0  12   27.00    2.80
   7   0  12   26.90    2.40
   7   0  12   24.00    1.10
   4  -1 -12   46.80    3.00
   4  -1 -12   45.00    2.70
   4  -1 -12   48.50    2.90
  -4   1  12   47.50    3.70
  -4   1  12   40.70    3.30
   3  -1 -12    5.20    1.30
   3  -1 -12   10.40    1.20
   3  -1 -12    9.70    1.40
   3  -1 -12    7.80    1.60
   3  -1 -12    9.40    1.80
   3  -1 -12    7.80    1.40
  -3   1  12    5.30    1.30
  -3   1  12    8.30    1.40
  -3   1  12    6.00    1.50
   2  -1 -12    2.40    1.00
   2  -1 -12    4.90    1.20
   2  -1 -12    5.50    0.90
   2  -1 -12    3.80    1.40
   2  -1 -12    4.00    1.00
   2  -1 -12    3.70    1.10
  -2   1  12    5.30    1.30
  -2   1  12    4.80    1.10
  -2   1  12    3.60    1.10
  -2   1  12    2.60    1.00
   1  -1 -12   11.10    1.00
   1  -1 -12   17.10    1.50
   1  -1 -12   14.60    1.20
   1  -1 -12   14.80    1.40
   1  -1 -12   14.40    1.50
   1  -1 -12   15.40    1.30
  -1   1  12   12.90    1.10
  -1   1  12   13.50    1.10
  -1   1  12   14.60    1.60
  -1   1  12   14.70    1.40
   0  -1 -12    8.80    0.80
   0  -1 -12   10.00    1.10
   0  -1 -12    8.10    1.00
   0  -1 -12    8.30    0.90
   0  -1 -12    6.80    0.80
   0  -1 -12    9.90    0.90
   0   1  12    7.90    1.00
   0   1  12    8.00    1.00
   0   1  12    7.10    0.90
   0   1  12    8.20    0.90
  -1  -1 -12   82.09    2.50
  -1  -1 -12   82.69    2.30
  -1  -1 -12   81.19    2.70
  -1  -1 -12   80.99    2.30
  -1  -1 -12   83.69    2.30
   1   1  12   85.39    2.40
   1   1  12   80.99    2.50
   1   1  12   83.19    2.70
   1   1  12   87.29    2.60
   1   1  12   83.49    2.50
   1   1  12   81.89    1.90
  -2  -1 -12  162.68    4.20
  -2  -1 -12  164.68    3.90
  -2  -1 -12  170.68    4.30
  -2  -1 -12  164.88    3.70
  -2  -1 -12  165.38    4.20
  -2  -1 -12  142.59    4.20
  -2  -1 -12  160.88    3.80
   2   1  12  167.08    3.70
   2   1  12  168.88    4.20
   2   1  12  161.08    4.10
   2   1  12  162.48    3.80
   2   1  12  169.48    4.30
   2   1  12  161.68    4.10
   2   1  12  165.88    4.00
  -3  -1 -12   24.90    1.40
  -3  -1 -12   24.20    1.20
  -3  -1 -12   23.80    1.60
  -3  -1 -12   25.90    1.80
  -3  -1 -12   24.40    1.40
  -3  -1 -12   24.40    1.90
  -3  -1 -12   24.90    1.30
   3   1  12   25.00    1.30
   3   1  12   25.90    1.50
   3   1  12   25.30    1.90
   3   1  12   25.80    1.10
   3   1  12   23.50    1.70
   3   1  12   25.90    1.40
   3   1  12   26.40    1.10
  -4  -1 -12    0.90    1.00
  -4  -1 -12    0.20    0.80
  -4  -1 -12    0.20    0.80
  -4  -1 -12    0.90    0.60
  -4  -1 -12    0.80    0.60
  -4  -1 -12    0.70    0.60
  -4  -1 -12    0.60    1.00
   4   1  12    0.10    0.70
   4   1  12    1.00    0.60
   4   1  12    0.70    0.80
   4   1  12    0.70    0.50
   4   1  12   -0.80    1.00
   4   1  12    0.70    0.60
  -5  -1 -12   55.29    2.80
  -5  -1 -12   52.69    2.30
  -5  -1 -12   55.99    2.40
  -5  -1 -12   54.79    2.80
  -5  -1 -12   51.39    2.00
   5   1  12   52.99    2.40
   5   1  12   53.39    2.00
   5   1  12   51.29    1.50
   5   1  12   51.39    2.90
   5   1  12   53.99    2.10
   5   1  12   51.99    2.00
  -6  -1 -12    3.20    0.80
  -6  -1 -12    0.80    1.60
  -6  -1 -12    2.70    1.20
  -6  -1 -12    3.20    1.00
   6   1  12    2.30    0.50
   6   1  12    2.50    0.90
   6   1  12    3.30    1.00
   6   1  12    3.90    1.00
   6   1  12    4.00    1.70
   6   1  12    2.30    1.00
  -7  -1 -12   11.30    1.70
  -7  -1 -12   11.00    1.70
  -7  -1 -12    9.60    1.00
  -7  -1 -12   12.70    2.50
  -7  -1 -12   10.70    1.30
  -7  -1 -12    6.90    2.20
   7   1  12   11.20    1.50
   7   1  12    9.90    1.20
   7   1  12    9.30    2.00
   7   1  12    9.30    1.50
  -8  -1 -12   15.90    1.30
  -8  -1 -12   14.20    1.70
   8   1  12   19.60    2.20
   3  -2 -12    0.60    1.30
   3  -2 -12    0.20    1.40
   3  -2 -12   -2.80    1.70
  -3   2  12   -2.10    1.50
  -3   2  12    1.60    1.60
   2  -2 -12   23.60    1.80
   2  -2 -12   22.20    2.30
   2  -2 -12   27.90    2.00
   2  -2 -12   24.90    1.80
   2  -2 -12   25.20    2.20
   2  -2 -12   25.50    2.50
  -2   2  12   25.10    1.80
  -2   2  12   22.60    2.40
  -2   2  12   25.00    2.00
   1  -2 -12    3.80    1.00
   1  -2 -12    2.50    0.80
   1  -2 -12    2.80    1.00
   1  -2 -12    3.20    0.80
   1  -2 -12    3.00    1.00
   1  -2 -12    2.90    1.00
   1  -2 -12    3.90    1.00
  -1   2  12    2.90    0.90
  -1   2  12    2.30    1.00
  -1   2  12    2.60    0.90
  -1   2  12    3.20    1.00
   0  -2 -12   91.19    2.70
   0  -2 -12   93.79    3.00
   0  -2 -12   96.09    2.70
   0  -2 -12   95.99    2.70
   0  -2 -12   94.19    2.60
   0  -2 -12   93.39    2.90
   0   2  12   93.89    3.00
   0   2  12   90.89    2.80
   0   2  12   91.99    2.90
   0   2  12   94.49    2.80
  -1  -2 -12    0.80    0.80
  -1  -2 -12    0.70    0.60
  -1  -2 -12    0.90    0.60
  -1  -2 -12    0.40    0.70
  -1  -2 -12    0.70    0.70
  -1  -2 -12    0.50    0.60
   1   2  12    0.40    0.70
   1   2  12    1.50    0.90
   1   2  12    1.30    0.70
  -2  -2 -12   23.80    1.50
  -2  -2 -12   24.60    0.90
  -2  -2 -12   23.00    1.60
  -2  -2 -12   22.30    1.30
  -2  -2 -12   23.00    1.20
  -2  -2 -12   23.60    1.70
  -2  -2 -12   23.40    1.30
   2   2  12   26.30    1.60
   2   2  12   24.70    1.70
   2   2  12   24.30    0.80
   2   2  12   23.00    1.30
   2   2  12   24.60    1.60
  -3  -2 -12  164.48    4.10
  -3  -2 -12  164.28    3.80
  -3  -2 -12  159.18    3.60
  -3  -2 -12  148.69    3.80
  -3  -2 -12  158.88    4.10
  -3  -2 -12  162.08    3.90
  -3  -2 -12  161.28    4.30
   3   2  12  154.28    4.80
   3   2  12  162.68    3.70
   3   2  12  154.88    4.20
   3   2  12  163.78    4.30
   3   2  12  161.38    3.60
   3   2  12  148.09    4.10
  -4  -2 -12  121.69    3.70
  -4  -2 -12  122.09    2.90
  -4  -2 -12  121.99    3.10
  -4  -2 -12  122.49    3.40
  -4  -2 -12  120.99    3.30
  -4  -2 -12  124.09    3.00
  -4  -2 -12  121.79    3.60
   4   2  12  120.29    3.00
   4   2  12  116.79    3.30
   4   2  12  125.49    3.20
   4   2  12  121.39    2.90
   4   2  12  128.29    3.80
   4   2  12  124.49    3.20
  -5  -2 -12   -0.20    1.20
  -5  -2 -12    0.10    1.30
  -5  -2 -12    0.50    0.90
  -5  -2 -12    0.10    0.70
  -5  -2 -12    0.30    0.70
  -5  -2 -12    0.20    0.90
   5   2  12    0.10    0.80
   5   2  12   -0.40    0.40
   5   2  12    0.00    1.20
   5   2  12   -0.20    0.80
   5   2  12    0.10    0.70
   5   2  12    0.20    0.60
  -6  -2 -12    6.60    1.00
  -6  -2 -12    4.20    2.00
  -6  -2 -12    6.10    1.10
  -6  -2 -12    4.70    0.80
  -6  -2 -12    5.50    1.40
   6   2  12    6.10    1.00
   6   2  12    6.50    1.20
   6   2  12    6.90    1.20
   6   2  12    8.30    1.60
   6   2  12    7.20    1.00
  -7  -2 -12   -1.10    2.10
  -7  -2 -12   -0.70    0.90
  -7  -2 -12   -0.30    1.10
  -7  -2 -12    1.60    2.20
  -7  -2 -12    1.80    1.30
   7   2  12    0.40    1.00
   7   2  12    0.70    1.10
   7   2  12    0.50    1.10
   7   2  12    0.60    1.70
  -8  -2 -12    1.90    1.10
  -8  -2 -12    2.20    1.40
   8   2  12    0.20    1.60
   8   2  12    1.50    1.20
   3  -3 -12    1.00    1.40
   3  -3 -12    2.20    1.70
  -3   3  12   -0.30    1.90
  -3   3  12    0.20    1.80
   2  -3 -12    2.10    1.30
   2  -3 -12    2.60    1.10
   2  -3 -12    2.10    1.30
   2  -3 -12    3.50    1.60
  -2   3  12    4.40    1.50
  -2   3  12    1.80    1.10
  -2   3  12    1.60    1.50
   1  -3 -12    5.60    1.10
   1  -3 -12    5.00    1.00
   1  -3 -12    6.40    1.20
   1  -3 -12    7.00    1.60
   1  -3 -12    6.50    1.10
   1  -3 -12    7.20    1.00
   1  -3 -12    6.40    1.20
  -1   3  12    4.90    1.00
  -1   3  12    6.20    1.20
  -1   3  12    4.50    1.30
  -1   3  12    7.90    1.30
   0  -3 -12   17.80    1.60
   0  -3 -12   18.70    1.80
   0  -3 -12   20.50    1.80
   0  -3 -12   16.50    1.40
   0  -3 -12   20.20    1.60
   0  -3 -12   18.80    1.50
   0   3  12   18.20    1.40
   0   3  12   15.50    1.30
   0   3  12   18.60    1.80
   0   3  12   18.80    1.80
  -1  -3 -12   41.40    1.80
  -1  -3 -12   42.20    1.70
  -1  -3 -12   44.80    1.90
  -1  -3 -12   43.80    1.70
  -1  -3 -12   42.00    2.00
  -1  -3 -12   45.00    1.80
   1   3  12   44.10    2.00
   1   3  12   44.80    2.00
   1   3  12   42.00    2.20
   1   3  12   41.40    2.60
  -2  -3 -12   12.20    1.00
  -2  -3 -12   11.70    1.10
  -2  -3 -12   10.00    1.10
  -2  -3 -12   12.40    1.30
  -2  -3 -12   11.30    0.90
   2   3  12   13.50    1.10
   2   3  12   11.10    0.90
   2   3  12   10.30    1.10
   2   3  12    9.80    1.20
  -3  -3 -12  129.99    3.40
  -3  -3 -12  127.39    3.20
  -3  -3 -12  132.79    3.50
  -3  -3 -12  131.09    3.50
  -3  -3 -12  122.19    2.90
  -3  -3 -12  123.29    3.60
   3   3  12  127.69    3.40
   3   3  12  129.29    3.20
   3   3  12  126.39    3.60
   3   3  12  124.19    3.20
   3   3  12  126.79    2.90
  -4  -3 -12   32.60    1.30
  -4  -3 -12   29.80    1.70
  -4  -3 -12   30.30    2.10
  -4  -3 -12   32.70    1.50
  -4  -3 -12   34.20    1.90
  -4  -3 -12   31.20    1.20
  -4  -3 -12   31.40    1.70
   4   3  12   31.40    1.30
   4   3  12   31.90    1.40
   4   3  12   31.40    1.40
   4   3  12   33.40    2.10
   4   3  12   32.60    1.70
   4   3  12   32.10    1.60
  -5  -3 -12   31.70    2.00
  -5  -3 -12   32.80    1.50
  -5  -3 -12   33.80    1.70
  -5  -3 -12   35.30    2.40
  -5  -3 -12   35.50    2.20
  -5  -3 -12   29.40    1.70
  -5  -3 -12   33.60    2.00
   5   3  12   33.90    2.30
   5   3  12   31.70    1.70
   5   3  12   33.00    1.60
   5   3  12   32.70    1.20
   5   3  12   32.80    1.80
   5   3  12   32.90    1.50
  -6  -3 -12  109.49    3.40
  -6  -3 -12  107.19    4.00
  -6  -3 -12  108.19    3.00
  -6  -3 -12  115.09    3.10
  -6  -3 -12  100.59    4.10
   6   3  12  110.69    3.00
   6   3  12  111.99    3.30
   6   3  12  111.19    3.20
   6   3  12  105.09    3.10
  -7  -3 -12   32.80    2.00
  -7  -3 -12   26.40    1.90
  -7  -3 -12   32.90    2.50
  -7  -3 -12   24.00    2.20
   7   3  12   24.10    2.20
   7   3  12   30.60    2.10
   7   3  12   31.30    2.20
  -8  -3 -12   12.10    1.50
  -8  -3 -12   12.80    1.30
   8   3  12   12.90    1.70
   8   3  12   15.70    1.60
   2  -4 -12    2.90    1.20
   2  -4 -12   -1.30    1.50
  -2   4  12   -0.50    1.60
  -2   4  12    6.60    3.00
   1  -4 -12    3.60    1.40
   1  -4 -12    3.50    1.10
   1  -4 -12    4.20    1.50
   1  -4 -12    3.00    1.00
  -1   4  12    4.10    1.10
  -1   4  12    3.10    1.30
  -1   4  12    5.70    1.60
   0  -4 -12    2.70    0.80
   0  -4 -12    1.80    1.30
   0  -4 -12    1.20    1.00
   0  -4 -12    2.30    1.20
   0  -4 -12    2.40    0.80
   0   4  12    1.60    1.20
   0   4  12    2.90    1.00
   0   4  12    0.20    1.30
   0   4  12    2.50    1.00
  -1  -4 -12    0.50    0.80
  -1  -4 -12    0.00    0.90
  -1  -4 -12    0.60    0.70
  -1  -4 -12   -0.10    0.70
  -1  -4 -12    0.50    0.90
  -1  -4 -12    0.60    0.90
   1   4  12    0.10    1.20
   1   4  12    0.70    0.80
   1   4  12    2.20    1.00
   1   4  12    0.40    0.80
  -2  -4 -12    3.40    0.80
  -2  -4 -12    4.70    1.00
  -2  -4 -12    3.90    0.70
  -2  -4 -12    4.80    0.70
  -2  -4 -12    2.30    0.90
  -2  -4 -12    4.30    0.80
   2   4  12    3.60    0.90
   2   4  12    2.90    1.00
   2   4  12    4.00    0.90
  -3  -4 -12   10.60    1.00
  -3  -4 -12   10.70    1.00
  -3  -4 -12    9.10    0.90
  -3  -4 -12   10.60    0.70
  -3  -4 -12   10.90    1.00
  -3  -4 -12    9.30    1.10
  -3  -4 -12    9.90    1.00
   3   4  12   10.40    1.00
   3   4  12    9.00    1.10
   3   4  12   10.50    1.00
  -4  -4 -12    6.90    0.90
  -4  -4 -12    5.20    1.00
  -4  -4 -12    6.90    0.60
  -4  -4 -12    5.20    0.60
  -4  -4 -12    6.90    0.90
  -4  -4 -12    4.90    1.20
  -4  -4 -12    6.20    1.00
   4   4  12    5.40    0.80
   4   4  12    5.20    1.20
   4   4  12    6.20    0.70
   4   4  12    5.10    0.70
   4   4  12    6.50    0.80
  -5  -4 -12    0.60    1.10
  -5  -4 -12    2.40    0.90
  -5  -4 -12    0.60    1.10
  -5  -4 -12    1.50    0.70
  -5  -4 -12    1.10    0.80
  -5  -4 -12    1.60    0.90
  -5  -4 -12    0.70    0.40
   5   4  12    2.60    1.10
   5   4  12    0.90    0.60
   5   4  12    1.60    0.70
   5   4  12    1.00    0.80
   5   4  12    0.90    0.80
   5   4  12    1.10    0.60
  -6  -4 -12    3.10    0.90
  -6  -4 -12    3.90    0.90
  -6  -4 -12    3.10    1.40
  -6  -4 -12    2.00    1.10
   6   4  12    3.70    1.00
   6   4  12    3.60    0.80
   6   4  12    2.50    1.00
   6   4  12    0.80    1.40
   6   4  12    2.60    0.90
  -7  -4 -12   15.90    1.40
  -7  -4 -12   10.00    1.20
   7   4  12   12.20    1.30
   7   4  12   13.40    1.40
   7   4  12   14.40    1.60
   7   4  12   11.50    1.40
  -8  -4 -12   12.70    1.50
  -8  -4 -12   12.00    1.40
   8   4  12   10.50    1.40
   8   4  12   13.70    1.60
   1  -5 -12   12.80    2.00
   1  -5 -12   15.50    1.30
  -1   5  12   19.20    1.80
  -1   5  12   15.90    1.70
  -1   5  12   17.70    2.20
   0  -5 -12   14.90    1.60
   0  -5 -12   17.60    2.50
   0  -5 -12   16.10    1.70
   0  -5 -12   18.20    1.30
   0   5  12   16.00    1.50
   0   5  12   16.60    1.80
   0   5  12   14.50    1.90
  -1  -5 -12   21.10    1.70
  -1  -5 -12   22.10    2.40
  -1  -5 -12   19.00    1.60
  -1  -5 -12   22.50    1.90
   1   5  12   21.90    1.80
   1   5  12   21.40    1.70
   1   5  12   21.70    1.80
  -2  -5 -12    0.10    0.80
  -2  -5 -12   -0.40    1.00
  -2  -5 -12   -0.70    0.70
  -2  -5 -12    0.10    0.80
   2   5  12    0.50    1.30
   2   5  12    0.70    0.80
   2   5  12    1.00    1.00
  -3  -5 -12   14.40    1.20
  -3  -5 -12   12.90    1.10
  -3  -5 -12   12.60    0.60
  -3  -5 -12   12.10    1.10
   3   5  12   12.40    1.40
   3   5  12   12.90    1.20
   3   5  12   11.00    1.80
  -4  -5 -12    0.30    0.50
  -4  -5 -12   -0.40    0.90
  -4  -5 -12    0.80    0.50
  -4  -5 -12   -0.20    0.90
  -4  -5 -12    0.10    0.90
   4   5  12   -2.00    0.90
   4   5  12   -1.10    1.00
   4   5  12    0.50    0.70
  -5  -5 -12   22.70    2.40
  -5  -5 -12   17.80    1.30
  -5  -5 -12   18.20    0.90
  -5  -5 -12   16.40    1.20
  -5  -5 -12   19.10    1.90
   5   5  12   19.20    1.20
   5   5  12   18.40    1.50
   5   5  12   15.90    1.50
  -6  -5 -12   15.20    1.70
  -6  -5 -12   13.40    1.40
  -6  -5 -12   13.60    1.20
  -6  -5 -12   18.70    1.60
   6   5  12   13.70    1.30
   6   5  12   14.90    1.60
   6   5  12   18.40    1.60
   6   5  12   15.00    1.60
   6   5  12   17.10    1.30
  -7  -5 -12   12.50    1.30
  -7  -5 -12   13.60    1.40
   7   5  12   14.40    1.50
   7   5  12   15.60    1.30
   7   5  12   15.70    1.50
   7   5  12    9.70    2.00
  -8  -5 -12    0.70    1.30
  -8  -5 -12    0.30    1.40
   8   5  12   -0.60    1.60
   0  -6 -12   25.70    2.20
   0  -6 -12   28.20    2.20
   0   6  12   25.60    2.30
   0   6  12   31.70    3.00
   0   6  12   27.30    2.50
  -1  -6 -12   23.60    2.00
  -1  -6 -12   20.20    1.70
   1   6  12   26.50    1.80
   1   6  12   24.10    1.90
   1   6  12   19.20    2.10
  -2  -6 -12    0.00    0.80
  -2  -6 -12    0.70    1.30
  -2  -6 -12    0.70    1.00
  -2  -6 -12    0.10    1.00
   2   6  12   -0.60    0.90
   2   6  12    0.50    1.50
   2   6  12    0.20    0.90
  -3  -6 -12   16.30    1.60
  -3  -6 -12   18.70    2.00
  -3  -6 -12   18.40    1.60
  -3  -6 -12   20.30    1.80
   3   6  12   17.30    1.50
   3   6  12   16.80    1.70
  -4  -6 -12   -0.10    1.00
  -4  -6 -12    0.60    0.60
  -4  -6 -12   -0.90    1.00
  -4  -6 -12   -0.30    0.70
   4   6  12   -1.30    1.00
   4   6  12   -0.70    0.70
  -5  -6 -12   -0.50    1.10
  -5  -6 -12   -1.30    1.20
  -5  -6 -12   -1.00    0.50
  -5  -6 -12   -1.00    1.00
  -5  -6 -12    0.10    0.70
   5   6  12   -0.20    1.10
   5   6  12   -0.10    0.70
  -6  -6 -12    2.40    1.20
  -6  -6 -12    2.80    0.90
   6   6  12    2.20    0.90
   6   6  12    4.30    1.40
  -7  -6 -12   13.90    1.60
  -7  -6 -12   16.30    1.40
   7   6  12   11.70    1.90
   7   6  12   14.60    1.30
   7   6  12   11.70    1.40
   7   6  12   14.60    1.20
  -2  -7 -12    6.30    1.20
  -3  -7 -12   -0.10    1.20
  -3  -7 -12    0.40    1.20
  -4  -7 -12   19.60    1.50
  -5  -7 -12    8.60    1.00
  -5  -7 -12    9.10    1.40
  -6  -7 -12    7.90    1.60
  -6  -7 -12   10.10    1.20
   6   7  12    9.90    0.90
   6   7  12   11.90    1.00
   1   6 -13    5.80    1.50
   1   6 -13    5.00    1.70
  -1  -6  13    9.40    1.80
  -1  -6  13    6.60    1.80
   0   6 -13   10.50    1.80
   0   6 -13   10.60    1.60
   0  -6  13    8.30    1.50
   0  -6  13   11.20    2.10
   0  -6  13    9.90    1.70
   3   5 -13    0.90    1.80
   3   5 -13   -3.10    2.00
  -3  -5  13   -0.80    1.40
  -3  -5  13   -0.90    1.30
   2   5 -13   20.60    1.90
   2   5 -13   19.40    1.80
  -2  -5  13   22.50    1.60
  -2  -5  13   20.50    1.80
   1   5 -13    1.90    1.40
   1   5 -13    1.70    1.50
  -1  -5  13    4.00    1.10
  -1  -5  13    2.30    1.40
  -1  -5  13    1.10    1.40
   0   5 -13    0.50    1.30
   0   5 -13    1.10    1.00
   0  -5  13    0.40    1.10
   0  -5  13    1.20    1.30
   0  -5  13    0.30    1.20
   0  -5  13    1.10    1.30
  -1   5 -13   28.50    2.30
   1  -5  13   22.60    1.50
   1  -5  13   27.70    1.30
   1  -5  13   21.80    1.90
   1  -5  13   27.90    2.10
   1  -5  13   26.00    2.30
  -2   5 -13   69.99    3.20
  -2   5 -13   71.59    2.70
  -2   5 -13   63.29    3.10
   2  -5  13   66.79    2.70
   2  -5  13   64.99    2.20
   2  -5  13   66.99    3.10
  -3   5 -13   19.70    2.10
  -3   5 -13   12.80    1.60
   3  -5  13   20.40    1.50
   3  -5  13   18.90    1.60
   3  -5  13   17.40    1.70
   3   4 -13   91.99    3.70
   3   4 -13   92.09    4.30
  -3  -4  13   92.59    3.00
  -3  -4  13   93.59    4.00
  -3  -4  13   87.19    3.20
  -3  -4  13   84.49    4.10
  -3  -4  13   90.29    3.20
   2   4 -13    1.30    1.40
   2   4 -13    0.50    1.30
   2   4 -13    1.40    1.60
  -2  -4  13   -0.30    1.30
  -2  -4  13    2.80    1.10
  -2  -4  13    0.90    1.20
  -2  -4  13   -0.20    1.50
   1   4 -13   45.10    2.50
   1   4 -13   42.70    2.70
   1   4 -13   46.40    2.70
   1   4 -13   46.10    1.40
  -1  -4  13   43.50    2.60
  -1  -4  13   44.50    2.10
  -1  -4  13   44.10    3.80
  -1  -4  13   47.30    2.60
  -1  -4  13   47.60    3.10
   0   4 -13    2.30    0.70
   0   4 -13    3.40    1.30
   0   4 -13    4.10    1.30
   0   4 -13    4.10    1.60
   0   4 -13    3.40    1.10
   0  -4  13    3.20    1.20
   0  -4  13    2.70    1.10
   0  -4  13    3.30    1.00
   0  -4  13    3.60    1.50
   0  -4  13    3.10    1.10
   0  -4  13    3.00    1.10
  -1   4 -13   42.00    1.90
  -1   4 -13   39.70    2.10
  -1   4 -13   41.80    4.00
  -1   4 -13   45.40    2.90
   1  -4  13   42.40    2.30
   1  -4  13   36.80    2.00
   1  -4  13   39.70    2.00
   1  -4  13   40.20    2.50
   1  -4  13   41.80    1.50
   1  -4  13   46.30    2.30
   1  -4  13   41.30    3.10
  -2   4 -13    4.40    1.80
  -2   4 -13    5.40    1.30
  -2   4 -13    7.20    1.30
  -2   4 -13    3.50    1.10
   2  -4  13    5.40    1.30
   2  -4  13    5.20    0.80
   2  -4  13    3.30    1.00
   2  -4  13    3.70    1.20
   2  -4  13    5.20    1.10
   2  -4  13    5.30    1.80
  -3   4 -13   29.10    2.60
  -3   4 -13   31.30    1.90
  -3   4 -13   33.10    2.60
  -3   4 -13   30.70    2.60
   3  -4  13   29.80    2.60
   3  -4  13   28.80    2.40
   3  -4  13   31.80    2.30
   3  -4  13   26.50    2.60
   3  -4  13   32.70    1.70
   3  -4  13   33.40    1.90
  -4   4 -13   65.99    3.30
  -4   4 -13   63.09    3.30
   4  -4  13   62.69    2.50
   4  -4  13   61.09    2.40
   4  -4  13   64.69    3.10
   4   3 -13    1.00    1.70
   4   3 -13    3.80    2.00
  -4  -3  13    0.20    2.10
  -4  -3  13    1.50    1.00
  -4  -3  13    0.50    1.30
   3   3 -13    6.80    1.60
   3   3 -13    5.80    1.60
   3   3 -13    3.90    0.80
   3   3 -13    5.50    1.60
   3   3 -13    9.00    1.90
  -3  -3  13    8.00    1.00
  -3  -3  13   10.30    1.90
  -3  -3  13    7.10    1.10
  -3  -3  13    6.60    1.60
  -3  -3  13    6.90    1.30
   2   3 -13   -1.90    1.40
   2   3 -13    1.00    0.50
   2   3 -13    1.70    0.60
   2   3 -13   -0.10    1.30
   2   3 -13    0.50    1.30
   2   3 -13    1.00    1.20
  -2  -3  13    0.90    0.90
  -2  -3  13    1.20    1.40
  -2  -3  13    0.00    1.40
  -2  -3  13    0.90    0.90
  -2  -3  13    0.80    0.80
   1   3 -13   25.30    2.40
   1   3 -13   27.80    2.30
   1   3 -13   25.60    2.50
   1   3 -13   27.60    2.00
   1   3 -13   26.80    1.20
  -1  -3  13   29.40    2.10
  -1  -3  13   29.10    2.40
  -1  -3  13   28.80    2.30
  -1  -3  13   26.90    2.00
  -1  -3  13   26.10    1.80
  -1  -3  13   27.30    1.70
   0   3 -13   26.50    2.20
   0   3 -13   27.20    1.90
   0   3 -13   30.40    2.50
   0   3 -13   29.90    2.70
   0   3 -13   31.10    1.40
   0   3 -13   29.80    2.30
   0  -3  13   28.60    1.60
   0  -3  13   31.20    1.70
   0  -3  13   26.10    2.20
   0  -3  13   31.30    2.50
   0  -3  13   28.20    2.00
   0  -3  13   30.70    2.00
  -1   3 -13    5.80    1.00
  -1   3 -13    5.40    0.80
  -1   3 -13    5.80    1.60
  -1   3 -13    3.30    1.10
  -1   3 -13    4.40    1.30
  -1   3 -13    3.50    1.30
   1  -3  13    4.30    0.90
   1  -3  13    4.80    1.00
   1  -3  13    4.20    0.80
   1  -3  13    3.70    1.10
   1  -3  13    5.00    1.30
   1  -3  13    5.30    0.70
   1  -3  13    3.80    0.90
  -2   3 -13    3.70    1.60
  -2   3 -13    2.60    0.90
  -2   3 -13    6.70    1.10
  -2   3 -13    4.90    0.90
  -2   3 -13    4.10    1.50
  -2   3 -13    5.40    1.50
  -2   3 -13    4.30    1.10
   2  -3  13    3.00    0.80
   2  -3  13    4.40    1.20
   2  -3  13    2.70    1.50
   2  -3  13    5.60    1.10
   2  -3  13    4.50    1.10
   2  -3  13    4.60    0.70
   2  -3  13    4.30    1.00
  -3   3 -13   78.69    2.50
  -3   3 -13   83.89    2.90
  -3   3 -13   76.79    2.80
  -3   3 -13   78.19    4.10
  -3   3 -13   82.19    3.10
  -3   3 -13   79.19    3.70
   3  -3  13   75.29    2.90
   3  -3  13   86.29    2.40
   3  -3  13   77.09    2.80
   3  -3  13   80.39    2.50
   3  -3  13   80.39    3.90
   3  -3  13   79.39    2.70
   3  -3  13   83.09    3.10
  -4   3 -13   50.29    2.80
  -4   3 -13   50.79    2.70
  -4   3 -13   44.40    3.70
  -4   3 -13   46.60    1.90
  -4   3 -13   42.30    2.80
   4  -3  13   48.90    2.00
   4  -3  13   45.80    2.10
   4  -3  13   52.49    2.60
   4  -3  13   44.80    4.20
   4  -3  13   41.00    2.80
  -5   3 -13   26.30    2.10
  -5   3 -13   28.90    2.90
  -5   3 -13   29.10    3.10
   5  -3  13   30.40    3.40
   5  -3  13   25.80    2.60
   5  -3  13   26.80    1.90
   5  -3  13   24.40    2.10
   5  -3  13   28.90    3.00
   4   2 -13    1.50    1.70
   4   2 -13    2.70    2.10
   4   2 -13    4.20    3.40
  -4  -2  13    2.20    2.00
  -4  -2  13    1.70    1.40
   3   2 -13   17.40    1.90
   3   2 -13   19.00    1.60
   3   2 -13   13.60    1.80
   3   2 -13   15.50    1.20
   3   2 -13   14.00    2.10
   3   2 -13   18.20    1.60
  -3  -2  13   13.60    1.80
  -3  -2  13   11.80    1.30
  -3  -2  13   16.70    1.20
  -3  -2  13   14.60    2.80
  -3  -2  13   14.40    1.20
   2   2 -13    7.80    1.10
   2   2 -13    6.30    1.20
   2   2 -13    8.80    0.70
   2   2 -13   11.10    1.50
   2   2 -13    9.70    1.60
   2   2 -13    8.60    0.90
  -2  -2  13    8.00    0.80
  -2  -2  13    9.00    1.50
  -2  -2  13    9.90    1.70
  -2  -2  13    7.40    1.10
   1   2 -13    7.00    1.50
   1   2 -13    7.30    0.70
   1   2 -13    6.00    1.10
   1   2 -13    5.50    1.20
   1   2 -13    2.30    1.00
   1   2 -13    7.00    1.30
  -1  -2  13    4.40    1.10
  -1  -2  13    4.20    1.30
  -1  -2  13    4.60    1.10
  -1  -2  13    7.00    1.00
  -1  -2  13    5.30    0.80
  -1  -2  13    6.70    1.10
   0   2 -13   19.60    2.00
   0   2 -13   20.70    2.10
   0   2 -13   23.80    1.90
   0   2 -13   23.20    1.30
   0   2 -13   21.20    1.70
   0  -2  13   20.50    1.40
   0  -2  13   22.10    1.30
   0  -2  13   20.90    2.10
   0  -2  13   23.10    1.90
   0  -2  13   21.30    1.90
   0  -2  13   23.00    1.80
  -1   2 -13    1.50    1.20
  -1   2 -13    3.30    1.10
  -1   2 -13    0.40    0.90
  -1   2 -13    1.50    0.70
  -1   2 -13   -0.40    1.00
  -1   2 -13    1.90    0.70
   1  -2  13    1.00    0.70
   1  -2  13    0.90    0.60
   1  -2  13    2.50    0.90
   1  -2  13    1.00    0.70
   1  -2  13    1.40    1.10
   1  -2  13    1.30    1.00
   1  -2  13    0.70    0.90
  -2   2 -13   18.00    1.40
  -2   2 -13   18.70    1.50
  -2   2 -13   13.10    1.40
  -2   2 -13   21.00    1.80
  -2   2 -13   16.90    1.70
  -2   2 -13   17.50    1.50
  -2   2 -13   16.60    1.50
   2  -2  13   18.90    1.30
   2  -2  13   17.90    1.40
   2  -2  13   16.60    1.60
   2  -2  13   20.70    1.70
   2  -2  13   17.50    1.30
   2  -2  13   19.40    1.90
   2  -2  13   20.10    1.60
  -3   2 -13    4.40    1.20
  -3   2 -13    1.80    1.30
  -3   2 -13    2.10    0.80
  -3   2 -13    6.20    1.60
  -3   2 -13    4.00    1.00
  -3   2 -13    5.10    1.00
  -3   2 -13    2.40    1.60
   3  -2  13    3.30    0.70
   3  -2  13    5.40    1.20
   3  -2  13    3.40    1.00
   3  -2  13    5.30    1.10
   3  -2  13    3.60    0.80
   3  -2  13    3.70    1.50
   3  -2  13    3.40    0.90
  -4   2 -13    1.60    1.00
  -4   2 -13   -1.10    1.60
  -4   2 -13    1.60    1.80
  -4   2 -13    1.30    0.80
  -4   2 -13    2.20    1.20
  -4   2 -13    2.10    1.60
   4  -2  13    2.20    0.80
   4  -2  13    1.30    1.10
   4  -2  13    2.30    1.90
   4  -2  13    1.20    1.00
   4  -2  13    1.40    0.80
   4  -2  13    1.90    1.20
  -5   2 -13    7.30    2.40
  -5   2 -13    4.80    2.10
  -5   2 -13    8.40    1.60
  -5   2 -13    6.10    1.40
  -5   2 -13    5.50    0.80
   5  -2  13    3.80    1.30
   5  -2  13    6.20    0.90
   5  -2  13    7.00    2.60
   5  -2  13    6.80    1.40
   5  -2  13    3.90    1.00
  -6   2 -13   64.69    3.50
  -6   2 -13   69.89    3.30
   6  -2  13   58.99    3.50
   6  -2  13   66.19    2.30
   6  -2  13   61.89    2.80
   6  -2  13   55.79    3.80
   4   1 -13    4.30    2.70
   4   1 -13    1.40    1.90
   4   1 -13   -0.30    1.20
   4   1 -13    0.60    1.70
  -4  -1  13    0.90    1.40
  -4  -1  13   -1.90    2.10
   3   1 -13   32.20    1.60
   3   1 -13   39.00    3.10
   3   1 -13   35.30    2.50
   3   1 -13   31.60    2.10
   3   1 -13   35.40    3.00
   3   1 -13   32.40    2.90
  -3  -1  13   37.00    2.30
  -3  -1  13   33.00    1.10
  -3  -1  13   30.10    3.10
  -3  -1  13   34.40    2.80
   2   1 -13    8.30    1.20
   2   1 -13    8.10    0.80
   2   1 -13   10.10    1.10
   2   1 -13    9.20    1.40
   2   1 -13    9.60    1.50
   2   1 -13    7.50    1.50
  -2  -1  13   10.70    1.50
  -2  -1  13    9.30    0.80
  -2  -1  13    6.00    1.70
  -2  -1  13    8.70    0.90
  -2  -1  13    8.30    1.10
   1   1 -13    3.50    1.00
   1   1 -13    2.70    1.10
   1   1 -13    4.40    1.10
   1   1 -13    4.40    0.60
   1   1 -13    4.80    1.10
   1   1 -13    3.40    0.90
  -1  -1  13    5.00    1.20
  -1  -1  13    4.00    0.60
  -1  -1  13    4.50    1.10
  -1  -1  13    4.00    0.90
  -1  -1  13    5.40    1.20
  -1  -1  13    5.00    0.60
   0   1 -13    0.90    0.80
   0   1 -13    0.80    0.90
   0   1 -13    2.00    1.00
   0   1 -13    1.00    0.60
   0   1 -13    1.10    1.00
   0   1 -13    1.70    1.00
   0  -1  13    2.10    0.60
   0  -1  13    0.60    0.80
   0  -1  13    2.30    0.90
   0  -1  13    1.00    1.00
   0  -1  13    0.10    0.70
   0  -1  13    0.40    1.10
  -1   1 -13   -0.20    0.90
  -1   1 -13    2.20    1.10
  -1   1 -13    1.70    0.80
  -1   1 -13   -0.30    0.70
  -1   1 -13   -0.10    0.60
   1  -1  13   -0.20    1.00
   1  -1  13   -0.20    0.60
   1  -1  13    0.60    1.10
   1  -1  13   -1.10    0.70
   1  -1  13   -0.20    0.70
  -2   1 -13    0.90    0.90
  -2   1 -13    0.90    1.10
  -2   1 -13    1.20    0.70
  -2   1 -13    0.40    0.70
  -2   1 -13   -0.70    1.00
  -2   1 -13    0.70    0.70
  -2   1 -13   -0.30    0.80
   2  -1  13   -0.40    0.60
   2  -1  13    0.60    0.80
   2  -1  13    0.90    0.60
   2  -1  13    1.10    0.60
   2  -1  13    1.10    1.10
   2  -1  13   -0.10    0.80
   2  -1  13    0.60    0.90
  -3   1 -13    8.40    1.00
  -3   1 -13    6.30    1.00
  -3   1 -13    9.00    1.50
  -3   1 -13    9.50    1.40
  -3   1 -13    6.50    0.90
  -3   1 -13    5.80    1.00
  -3   1 -13    5.60    1.30
   3  -1  13    7.20    1.50
   3  -1  13    8.10    1.10
   3  -1  13    7.70    1.20
   3  -1  13    7.50    0.90
   3  -1  13    6.20    1.20
   3  -1  13    7.10    1.00
   3  -1  13    6.80    0.70
  -4   1 -13    4.50    1.10
  -4   1 -13    2.60    1.60
  -4   1 -13    5.90    1.00
  -4   1 -13    4.20    1.60
  -4   1 -13    4.50    0.90
  -4   1 -13    7.10    1.30
   4  -1  13    4.90    1.00
   4  -1  13    4.40    0.70
   4  -1  13    4.00    0.80
   4  -1  13    4.00    1.00
   4  -1  13    3.60    1.10
   4  -1  13    4.40    2.80
  -5   1 -13    6.90    1.20
  -5   1 -13    5.60    1.70
  -5   1 -13   10.30    1.00
  -5   1 -13    9.50    1.50
  -5   1 -13   10.20    2.10
   5  -1  13    7.70    0.80
   5  -1  13   10.10    1.10
   5  -1  13    8.50    1.20
   5  -1  13    8.20    1.30
   5  -1  13   12.40    2.20
  -6   1 -13    3.50    2.60
  -6   1 -13    2.00    0.90
  -6   1 -13    1.80    1.50
  -6   1 -13    1.90    2.40
  -6   1 -13    2.90    1.40
   6  -1  13    2.70    2.60
   6  -1  13    0.20    1.30
   6  -1  13    2.40    1.10
   6  -1  13    2.60    0.70
   6  -1  13    1.70    1.40
   4   0 -13    5.60    1.60
   4   0 -13    9.30    1.60
  -4   0  13    7.60    2.20
   3   0 -13    8.70    1.40
   3   0 -13    8.80    1.80
   3   0 -13    7.50    1.40
   3   0 -13    8.30    1.10
   3   0 -13    8.60    1.80
   3   0 -13    7.90    1.70
  -3   0  13    7.00    1.40
  -3   0  13   10.20    2.00
   2   0 -13    0.90    1.00
   2   0 -13    1.30    1.30
   2   0 -13    2.20    1.40
   2   0 -13    0.20    1.00
   2   0 -13    0.10    1.00
   2   0 -13    0.80    0.80
  -2   0  13    0.10    1.30
  -2   0  13    1.90    1.40
  -2   0  13    0.20    1.00
   1   0 -13    0.40    0.80
   1   0 -13   -1.30    1.00
   1   0 -13   -0.80    0.60
   1   0 -13    0.10    0.90
   1   0 -13    2.30    1.60
   1   0 -13   -0.10    0.90
  -1   0  13    0.90    1.10
  -1   0  13   -0.20    0.80
  -1   0  13   -0.80    1.10
  -1   0  13   -0.40    1.00
   0   0 -13    3.70    1.00
   0   0 -13    3.50    0.80
   0   0 -13    4.20    0.70
   0   0 -13    5.20    1.10
   0   0 -13    3.10    1.00
   0   0 -13    3.80    0.90
   0   0  13    3.70    1.00
   0   0  13    3.60    0.80
   0   0  13    4.30    0.40
   0   0  13    3.70    1.10
   0   0  13    3.70    1.00
  -1   0 -13   54.59    1.90
  -1   0 -13   54.79    2.40
  -1   0 -13   55.99    2.30
  -1   0 -13   51.59    2.00
  -1   0 -13   58.59    1.80
   1   0  13   55.19    1.60
   1   0  13   54.29    2.20
   1   0  13   56.69    2.10
   1   0  13   54.99    2.30
   1   0  13   58.89    2.50
  -2   0 -13   -0.50    1.00
  -2   0 -13    0.70    0.60
  -2   0 -13    0.60    0.60
  -2   0 -13    0.40    0.70
  -2   0 -13    1.20    0.70
  -2   0 -13    1.10    0.80
  -2   0 -13    0.00    0.90
   2   0  13    1.20    0.70
   2   0  13    0.30    0.50
   2   0  13    0.10    0.60
   2   0  13    0.00    0.70
   2   0  13    1.20    1.00
   2   0  13   -0.40    0.90
   2   0  13    0.10    0.90
  -3   0 -13    1.60    1.20
  -3   0 -13    0.90    0.70
  -3   0 -13   -0.10    0.80
  -3   0 -13    2.00    0.70
  -3   0 -13    1.40    1.10
  -3   0 -13    0.20    0.90
  -3   0 -13    1.20    0.90
   3   0  13    1.40    0.70
   3   0  13    0.30    0.80
   3   0  13    0.90    1.00
   3   0  13    0.40    0.60
   3   0  13    0.20    0.60
   3   0  13    0.50    0.80
   3   0  13    0.30    1.20
  -4   0 -13   36.10    2.70
  -4   0 -13   33.50    2.50
  -4   0 -13   31.10    2.10
  -4   0 -13   30.20    1.80
  -4   0 -13   32.00    1.90
  -4   0 -13   31.60    1.60
  -4   0 -13   32.30    1.70
   4   0  13   31.20    1.30
   4   0  13   30.00    1.80
   4   0  13   32.10    2.10
   4   0  13   29.90    1.60
   4   0  13   33.00    2.70
   4   0  13   30.30    1.70
  -5   0 -13    8.50    1.30
  -5   0 -13   12.30    2.00
  -5   0 -13    9.30    1.90
  -5   0 -13    9.80    0.90
  -5   0 -13   11.60    1.50
  -5   0 -13    9.00    1.10
   5   0  13    8.80    1.00
   5   0  13   10.50    1.20
   5   0  13   11.00    1.40
   5   0  13    9.10    1.20
   5   0  13    6.80    1.60
   5   0  13    9.60    0.70
  -6   0 -13   20.40    2.30
  -6   0 -13   18.00    2.30
  -6   0 -13   23.50    1.60
  -6   0 -13   20.80    2.10
  -6   0 -13   21.20    2.70
   6   0  13   19.50    1.80
   6   0  13   15.70    1.60
   6   0  13   21.10    2.10
   6   0  13   19.90    2.60
   6   0  13   20.10    1.20
  -7   0 -13   54.49    2.20
  -7   0 -13   51.09    2.90
  -7   0 -13   50.79    5.70
   7   0  13   56.09    3.30
   7   0  13   53.89    2.60
   3  -1 -13    6.60    1.50
   3  -1 -13    5.20    1.40
   3  -1 -13    7.00    2.00
   3  -1 -13    9.80    1.30
  -3   1  13    8.40    2.00
  -3   1  13    7.90    1.80
   2  -1 -13    0.20    1.00
   2  -1 -13    1.30    1.20
   2  -1 -13    0.10    0.90
   2  -1 -13    0.50    1.30
   2  -1 -13   -0.20    1.20
   2  -1 -13   -0.30    1.30
  -2   1  13   -0.20    1.10
  -2   1  13   -1.00    1.10
  -2   1  13   -1.80    1.40
   1  -1 -13    0.30    0.70
   1  -1 -13   -0.20    0.80
   1  -1 -13   -0.70    1.00
   1  -1 -13    0.80    1.10
   1  -1 -13    1.10    0.90
   1  -1 -13   -0.20    1.10
  -1   1  13   -0.20    1.00
  -1   1  13   -0.30    1.00
  -1   1  13   -0.40    1.10
   0  -1 -13    3.30    0.80
   0  -1 -13    2.90    1.00
   0  -1 -13    4.50    1.00
   0  -1 -13    4.30    1.00
   0  -1 -13    3.70    0.80
   0  -1 -13    4.90    0.80
   0   1  13    4.50    0.90
   0   1  13    4.10    1.00
   0   1  13    3.60    1.00
   0   1  13    4.30    1.10
  -1  -1 -13   10.20    1.30
  -1  -1 -13   12.50    1.20
  -1  -1 -13    8.60    1.00
  -1  -1 -13    9.50    0.90
  -1  -1 -13   13.20    1.00
  -1  -1 -13    9.50    0.90
   1   1  13   11.70    1.20
   1   1  13    9.50    1.10
   1   1  13    9.80    0.60
   1   1  13    9.60    0.90
   1   1  13   12.20    1.20
  -2  -1 -13    7.10    0.90
  -2  -1 -13    7.40    1.10
  -2  -1 -13    4.40    0.90
  -2  -1 -13    7.90    0.60
  -2  -1 -13    6.90    0.80
  -2  -1 -13    6.30    0.80
  -2  -1 -13    6.50    1.00
   2   1  13    6.10    1.10
   2   1  13    6.40    0.60
   2   1  13    7.80    1.10
   2   1  13    5.70    0.70
   2   1  13    6.60    0.80
  -3  -1 -13    4.20    0.90
  -3  -1 -13    4.90    1.00
  -3  -1 -13    4.70    1.10
  -3  -1 -13    4.10    0.70
  -3  -1 -13    3.20    0.80
  -3  -1 -13    3.60    0.70
  -3  -1 -13    3.40    1.20
   3   1  13    4.60    0.80
   3   1  13    4.30    0.70
   3   1  13    3.40    1.10
   3   1  13    4.00    0.80
   3   1  13    3.20    1.20
   3   1  13    2.70    1.20
  -4  -1 -13   14.60    1.30
  -4  -1 -13   14.00    1.30
  -4  -1 -13   15.10    1.60
  -4  -1 -13   14.10    1.00
  -4  -1 -13   11.30    1.20
  -4  -1 -13   14.60    1.20
  -4  -1 -13   13.90    1.50
   4   1  13   13.20    1.00
   4   1  13   13.00    1.30
   4   1  13   10.80    0.90
   4   1  13   16.50    1.70
   4   1  13    9.30    1.00
   4   1  13    9.80    1.00
  -5  -1 -13    2.70    1.20
  -5  -1 -13    3.40    1.60
  -5  -1 -13    3.50    0.90
  -5  -1 -13    1.60    1.10
  -5  -1 -13    2.50    1.60
  -5  -1 -13    2.90    0.80
   5   1  13    2.20    1.00
   5   1  13    2.20    0.90
   5   1  13    2.50    1.00
   5   1  13    3.00    0.60
   5   1  13    2.90    0.90
   5   1  13    2.00    1.40
  -6  -1 -13    1.00    1.90
  -6  -1 -13    0.00    0.90
  -6  -1 -13    1.80    1.30
  -6  -1 -13    0.20    1.00
  -6  -1 -13   -0.70    2.10
   6   1  13    0.80    0.50
   6   1  13    1.50    1.20
   6   1  13   -1.90    1.70
   6   1  13    3.50    1.20
   6   1  13    0.50    0.90
   6   1  13    1.10    1.10
  -7  -1 -13   -1.10    1.30
  -7  -1 -13   -0.40    2.70
  -7  -1 -13    0.60    1.00
  -7  -1 -13    1.30    1.50
   7   1  13    0.50    1.10
   7   1  13   -2.20    1.50
   3  -2 -13    2.10    1.60
   3  -2 -13    5.70    1.80
  -3   2  13    2.50    1.70
  -3   2  13    1.90    1.80
   2  -2 -13    4.20    1.50
   2  -2 -13    8.10    1.30
   2  -2 -13    7.60    1.40
   2  -2 -13    8.10    1.50
  -2   2  13    9.10    1.70
  -2   2  13    9.50    1.70
   1  -2 -13    1.80    1.10
   1  -2 -13   -1.30    1.00
   1  -2 -13    1.50    1.00
   1  -2 -13    2.40    1.10
   1  -2 -13    1.60    0.90
   1  -2 -13    2.70    1.30
  -1   2  13    0.60    1.20
  -1   2  13    1.60    1.00
  -1   2  13   -0.10    1.20
   0  -2 -13    3.10    0.90
   0  -2 -13    1.10    1.00
   0  -2 -13    3.60    1.10
   0  -2 -13    2.40    0.80
   0  -2 -13    2.00    1.20
   0  -2 -13    2.00    0.80
   0   2  13    1.20    0.90
   0   2  13    0.90    1.00
   0   2  13    0.60    1.00
   0   2  13    1.40    1.00
  -1  -2 -13   68.29    2.20
  -1  -2 -13   70.79    2.60
  -1  -2 -13   64.09    2.10
  -1  -2 -13   68.19    2.20
  -1  -2 -13   67.89    2.40
  -1  -2 -13   68.99    2.60
   1   2  13   61.69    2.50
   1   2  13   70.49    2.50
   1   2  13   72.29    2.70
   1   2  13   59.69    2.60
  -2  -2 -13   95.49    2.60
  -2  -2 -13   93.89    3.10
  -2  -2 -13   96.09    2.30
  -2  -2 -13   94.89    2.70
  -2  -2 -13   95.69    3.00
  -2  -2 -13  100.49    2.70
  -2  -2 -13   94.09    3.00
   2   2  13   98.19    3.00
   2   2  13   96.59    3.10
   2   2  13   96.79    2.70
   2   2  13   96.69    2.20
   2   2  13   97.69    3.10
  -3  -2 -13    2.00    0.50
  -3  -2 -13    1.60    0.60
  -3  -2 -13    1.40    0.90
  -3  -2 -13    2.80    0.80
  -3  -2 -13    1.80    0.80
  -3  -2 -13    2.70    0.80
  -3  -2 -13    1.80    1.10
   3   2  13    0.60    0.80
   3   2  13    2.90    1.10
   3   2  13    1.40    1.10
   3   2  13    1.90    0.80
   3   2  13    1.90    0.50
   3   2  13    1.10    0.60
  -4  -2 -13    0.60    1.00
  -4  -2 -13    2.50    0.70
  -4  -2 -13    1.40    0.70
  -4  -2 -13    1.90    1.00
  -4  -2 -13    1.10    1.20
  -4  -2 -13    0.90    0.90
  -4  -2 -13    2.10    0.70
   4   2  13    1.60    1.10
   4   2  13    1.00    0.80
   4   2  13    2.60    0.90
   4   2  13    1.40    0.60
   4   2  13    1.50    0.60
   4   2  13    2.10    0.70
  -5  -2 -13    2.30    0.70
  -5  -2 -13    1.30    1.20
  -5  -2 -13    3.20    1.10
  -5  -2 -13    4.10    1.60
  -5  -2 -13    2.20    0.80
  -5  -2 -13    1.70    0.80
  -5  -2 -13    1.70    1.30
   5   2  13    2.90    1.40
   5   2  13    1.60    0.80
   5   2  13    2.70    0.60
   5   2  13    2.20    0.90
   5   2  13    2.10    0.80
   5   2  13    1.80    1.00
  -6  -2 -13   19.50    1.80
  -6  -2 -13   22.10    2.20
  -6  -2 -13   15.40    1.90
  -6  -2 -13   23.40    1.70
  -6  -2 -13   21.70    2.30
   6   2  13   18.40    1.40
   6   2  13   20.90    1.00
   6   2  13   20.00    2.10
   6   2  13   21.30    2.10
   6   2  13   23.20    1.90
   6   2  13   25.50    1.80
  -7  -2 -13    2.50    1.10
  -7  -2 -13    3.10    1.70
  -7  -2 -13    2.90    1.30
   7   2  13    1.40    1.10
   7   2  13    1.70    1.30
   2  -3 -13   38.80    2.60
   2  -3 -13   39.90    3.10
  -2   3  13   36.50    3.10
  -2   3  13   36.60    3.20
   1  -3 -13   10.20    1.40
   1  -3 -13   11.20    1.50
   1  -3 -13   13.20    1.80
   1  -3 -13    9.90    1.10
  -1   3  13    9.90    1.60
  -1   3  13    9.50    1.30
  -1   3  13   10.30    1.50
   0  -3 -13   29.80    2.00
   0  -3 -13   28.70    1.80
   0  -3 -13   27.50    2.00
   0  -3 -13   28.10    1.90
   0  -3 -13   28.10    2.20
   0  -3 -13   25.50    2.70
   0   3  13   28.40    2.20
   0   3  13   27.50    2.00
   0   3  13   28.20    2.30
  -1  -3 -13    5.40    1.00
  -1  -3 -13    5.60    0.90
  -1  -3 -13    4.50    0.90
  -1  -3 -13    6.20    1.10
  -1  -3 -13    5.70    1.10
  -1  -3 -13    7.00    1.20
   1   3  13    5.10    1.30
   1   3  13    4.60    1.10
   1   3  13    6.70    1.10
   1   3  13    5.40    1.10
  -2  -3 -13   38.40    1.90
  -2  -3 -13   35.50    1.60
  -2  -3 -13   40.70    1.80
  -2  -3 -13   38.20    2.20
  -2  -3 -13   39.80    1.90
  -2  -3 -13   36.70    1.90
   2   3  13   38.60    1.90
   2   3  13   36.30    2.10
   2   3  13   39.00    2.00
   2   3  13   41.90    2.30
  -3  -3 -13   39.60    2.30
  -3  -3 -13   42.20    1.50
  -3  -3 -13   43.90    1.30
  -3  -3 -13   48.30    2.10
  -3  -3 -13   42.10    2.00
  -3  -3 -13   43.60    2.00
  -3  -3 -13   47.10    1.80
   3   3  13   42.20    2.40
   3   3  13   42.90    1.30
   3   3  13   44.00    2.00
   3   3  13   44.40    1.80
   3   3  13   47.50    1.80
  -4  -3 -13  162.58    4.40
  -4  -3 -13  157.38    4.00
  -4  -3 -13  158.48    3.70
  -4  -3 -13  168.08    5.30
  -4  -3 -13  160.58    3.70
  -4  -3 -13  150.28    4.10
  -4  -3 -13  154.48    4.50
   4   3  13  161.38    3.80
   4   3  13  159.08    4.10
   4   3  13  164.68    4.20
   4   3  13  168.08    4.60
   4   3  13  152.08    4.00
   4   3  13  157.98    3.90
  -5  -3 -13   43.30    2.30
  -5  -3 -13   45.50    1.90
  -5  -3 -13   43.80    1.60
  -5  -3 -13   42.00    1.80
  -5  -3 -13   44.00    2.90
  -5  -3 -13   44.00    2.90
   5   3  13   43.40    1.70
   5   3  13   37.10    2.80
   5   3  13   43.50    1.80
   5   3  13   42.80    1.60
   5   3  13   45.30    2.10
   5   3  13   42.00    2.10
  -6  -3 -13    1.70    1.90
  -6  -3 -13    2.00    1.00
  -6  -3 -13    1.60    1.20
  -6  -3 -13    1.70    1.00
   6   3  13    2.40    1.10
   6   3  13    1.60    1.10
   6   3  13    0.70    0.90
   6   3  13    1.90    1.00
  -7  -3 -13    2.90    1.10
  -7  -3 -13    0.10    1.20
   7   3  13    3.20    1.20
   7   3  13    2.00    1.30
   1  -4 -13    1.40    1.70
   1  -4 -13    4.00    1.20
  -1   4  13    3.40    1.50
  -1   4  13    2.80    1.80
   0  -4 -13   -0.10    1.20
   0  -4 -13    0.00    1.10
   0  -4 -13    1.00    1.00
   0  -4 -13   -0.90    1.50
   0   4  13    0.20    1.40
   0   4  13    2.00    1.20
   0   4  13    0.70    1.20
  -1  -4 -13   46.90    2.50
  -1  -4 -13   46.60    2.10
  -1  -4 -13   42.10    2.10
  -1  -4 -13   49.90    2.10
   1   4  13   42.30    2.30
   1   4  13   44.60    2.30
   1   4  13   48.50    2.60
  -2  -4 -13   64.39    2.10
  -2  -4 -13   65.29    2.40
  -2  -4 -13   60.99    2.50
  -2  -4 -13   65.09    2.30
   2   4  13   64.89    2.50
   2   4  13   60.69    2.60
  -3  -4 -13   14.30    1.10
  -3  -4 -13   17.50    1.80
  -3  -4 -13   14.80    1.20
  -3  -4 -13   17.40    1.80
  -3  -4 -13   14.00    1.50
  -3  -4 -13   16.10    0.70
   3   4  13   14.90    1.20
   3   4  13   14.30    1.40
   3   4  13   15.50    1.60
  -4  -4 -13   -0.70    0.90
  -4  -4 -13   -0.30    0.50
  -4  -4 -13    0.20    1.10
  -4  -4 -13    0.10    0.60
  -4  -4 -13   -1.80    0.80
   4   4  13   -0.10    0.60
   4   4  13    0.60    1.20
   4   4  13   -0.60    0.70
   4   4  13   -0.60    0.80
   4   4  13    0.70    0.80
  -5  -4 -13    1.60    1.40
  -5  -4 -13    0.90    1.10
  -5  -4 -13    0.40    0.70
  -5  -4 -13    0.60    0.60
  -5  -4 -13    1.00    0.90
   5   4  13    0.60    0.70
   5   4  13    0.20    1.30
   5   4  13    0.90    0.70
   5   4  13    0.10    0.90
   5   4  13    0.00    0.90
   5   4  13    1.10    0.80
  -6  -4 -13   12.80    1.20
  -6  -4 -13   12.10    1.30
  -6  -4 -13    9.40    2.50
  -6  -4 -13   11.50    1.60
   6   4  13   12.00    1.00
   6   4  13   12.10    1.30
   6   4  13   10.60    1.20
   6   4  13   13.90    1.30
   6   4  13   12.10    1.90
  -7  -4 -13    3.70    1.20
  -7  -4 -13    1.70    1.10
   7   4  13    2.80    1.20
   7   4  13    2.40    1.20
   0  -5 -13   16.90    2.00
   0  -5 -13   24.20    2.10
   0   5  13   18.50    1.70
   0   5  13   18.70    2.20
   0   5  13   21.00    2.00
  -1  -5 -13   -0.50    0.90
  -1  -5 -13   -0.90    1.80
   1   5  13    1.80    1.60
   1   5  13    0.60    1.10
   1   5  13    0.90    1.10
  -2  -5 -13    1.30    1.00
  -2  -5 -13    0.30    1.00
  -2  -5 -13   -0.40    0.90
  -2  -5 -13    1.00    1.30
   2   5  13    1.40    1.40
   2   5  13    0.70    1.10
   2   5  13    1.60    1.00
  -3  -5 -13    9.50    1.30
  -3  -5 -13    9.40    1.00
  -3  -5 -13    6.90    1.00
  -3  -5 -13    9.10    1.30
   3   5  13    6.70    1.30
   3   5  13    7.20    1.30
   3   5  13    6.80    1.00
  -4  -5 -13    3.10    0.60
  -4  -5 -13    3.50    0.70
  -4  -5 -13    2.90    1.20
  -4  -5 -13    1.70    0.90
   4   5  13    2.80    1.10
   4   5  13    2.70    0.90
   4   5  13    1.80    1.20
  -5  -5 -13   75.89    3.30
  -5  -5 -13   77.59    2.30
  -5  -5 -13   73.49    2.00
  -5  -5 -13   72.89    2.80
  -5  -5 -13   80.49    3.40
   5   5  13   72.79    3.20
   5   5  13   78.39    2.60
  -6  -5 -13   16.50    1.20
  -6  -5 -13   17.80    1.50
   6   5  13   15.50    1.30
   6   5  13   14.80    1.90
   6   5  13   16.90    1.60
   6   5  13   16.90    1.60
   6   5  13   18.20    1.40
  -7  -5 -13    3.20    1.30
  -7  -5 -13    3.70    1.30
   7   5  13    1.80    1.30
   7   5  13    2.90    1.20
  -1  -6 -13    8.30    1.60
  -1  -6 -13    7.00    1.30
   1   6  13    8.80    1.40
   1   6  13    4.60    2.10
  -2  -6 -13    9.70    1.30
  -2  -6 -13    9.40    1.50
   2   6  13   10.80    1.40
   2   6  13   10.10    1.20
   2   6  13   10.30    1.90
  -3  -6 -13    8.10    1.20
  -3  -6 -13    9.30    1.30
   3   6  13    9.10    1.20
   3   6  13   10.70    1.10
  -4  -6 -13   12.10    1.40
  -4  -6 -13   10.80    1.40
   4   6  13   10.50    1.30
   4   6  13   10.20    1.10
  -5  -6 -13    0.40    0.80
  -5  -6 -13   -1.30    1.20
   5   6  13    2.10    1.30
   5   6  13    1.00    0.90
  -6  -6 -13   10.50    1.40
  -6  -6 -13   14.10    1.20
   6   6  13   11.20    1.20
   6   6  13   10.30    1.70
   1   5 -14   14.70    2.00
   1   5 -14   14.00    1.90
  -1  -5  14   12.50    1.60
  -1  -5  14   11.70    1.90
   0   5 -14   23.10    1.90
   0  -5  14   20.90    1.80
   0  -5  14   23.30    1.70
  -1   5 -14    0.00    1.40
  -1   5 -14   -0.20    1.30
   1  -5  14    1.00    1.70
   1  -5  14   -1.00    1.40
   1  -5  14    1.20    1.30
   2   4 -14    0.10    1.80
   2   4 -14   -1.80    1.50
  -2  -4  14    1.50    1.30
  -2  -4  14   -1.60    2.10
  -2  -4  14    0.30    1.60
  -2  -4  14    0.70    1.30
   1   4 -14   16.60    1.70
   1   4 -14   15.80    1.90
  -1  -4  14   12.60    1.80
  -1  -4  14   15.30    2.30
  -1  -4  14   17.20    1.70
  -1  -4  14   11.00    1.40
  -1  -4  14   12.50    1.30
   0   4 -14   -0.60    1.30
   0   4 -14    2.70    1.50
   0  -4  14    0.10    1.80
   0  -4  14    0.40    1.10
   0  -4  14    1.00    1.30
   0  -4  14    0.10    1.40
   0  -4  14    0.10    1.30
  -1   4 -14    0.10    1.10
  -1   4 -14   -0.50    1.20
  -1   4 -14   -0.50    1.20
   1  -4  14   -1.20    1.20
   1  -4  14   -0.30    1.00
   1  -4  14    0.80    1.20
   1  -4  14   -1.20    0.70
   1  -4  14    1.10    1.90
   1  -4  14    1.50    1.30
  -2   4 -14    3.20    1.50
  -2   4 -14    2.40    1.20
  -2   4 -14    5.40    1.40
  -2   4 -14    3.20    1.40
   2  -4  14    3.50    1.40
   2  -4  14    3.40    1.50
   2  -4  14    4.40    1.40
   2  -4  14    2.70    0.90
   2  -4  14    2.80    2.30
   2  -4  14    2.40    1.00
  -3   4 -14   12.20    1.80
  -3   4 -14   10.90    1.70
  -3   4 -14   11.40    1.30
  -3   4 -14    4.90    1.40
   3  -4  14   12.20    1.70
   3  -4  14    9.00    1.10
   3  -4  14    9.10    1.30
   3   3 -14   70.79    4.40
   3   3 -14   71.09    3.70
  -3  -3  14   69.89    2.50
  -3  -3  14   69.59    3.60
  -3  -3  14   67.69    4.10
   2   3 -14    0.20    1.70
   2   3 -14   -0.40    1.40
  -2  -3  14   -1.00    1.10
  -2  -3  14    1.00    1.80
  -2  -3  14   -0.70    1.20
  -2  -3  14    0.20    1.70
  -2  -3  14    0.70    0.90
   1   3 -14    2.80    1.60
   1   3 -14    2.40    1.20
   1   3 -14    4.10    1.50
   1   3 -14    4.50    0.80
  -1  -3  14    3.80    1.60
  -1  -3  14    2.80    1.00
  -1  -3  14    3.70    1.40
  -1  -3  14    4.00    1.30
  -1  -3  14    4.10    1.10
   0   3 -14   -0.60    1.10
   0   3 -14    1.00    1.40
   0   3 -14    0.90    1.30
   0   3 -14    0.90    1.60
   0  -3  14   -0.50    0.90
   0  -3  14    0.70    1.20
   0  -3  14    1.40    1.00
   0  -3  14    0.70    1.20
   0  -3  14   -3.50    1.60
  -1   3 -14   60.99    3.30
  -1   3 -14   61.29    2.50
  -1   3 -14   60.19    3.60
  -1   3 -14   65.69    2.20
   1  -3  14   61.79    2.70
   1  -3  14   55.39    2.60
   1  -3  14   55.79    3.40
   1  -3  14   62.79    2.30
   1  -3  14   64.79    2.90
   1  -3  14   58.09    3.10
  -2   3 -14   -0.50    1.10
  -2   3 -14    0.10    1.70
  -2   3 -14    0.40    1.00
  -2   3 -14   -0.20    1.10
  -2   3 -14    0.10    1.10
  -2   3 -14   -0.20    1.80
   2  -3  14    1.10    2.00
   2  -3  14    1.40    1.10
   2  -3  14    1.30    1.20
   2  -3  14    0.40    0.90
   2  -3  14   -0.50    1.10
   2  -3  14   -0.40    0.80
   2  -3  14   -1.20    1.10
  -3   3 -14   53.69    5.30
  -3   3 -14   47.10    2.30
  -3   3 -14   46.20    2.60
  -3   3 -14   45.40    2.70
  -3   3 -14   47.10    2.80
   3  -3  14   36.10    4.00
   3  -3  14   46.80    2.80
   3  -3  14   38.10    3.20
   3  -3  14   45.80    2.80
   3  -3  14   47.20    2.00
   3  -3  14   49.20    2.10
  -4   3 -14    1.70    1.20
  -4   3 -14    5.80    1.60
  -4   3 -14    4.70    1.70
   4  -3  14    2.50    1.10
   4  -3  14    4.00    2.40
   4  -3  14    4.60    1.70
   4  -3  14    3.90    1.50
   4  -3  14    3.80    1.10
   3   2 -14   -3.30    2.90
   3   2 -14    2.40    1.90
   3   2 -14    3.60    1.60
  -3  -2  14   -0.50    1.40
  -3  -2  14    3.60    2.00
   2   2 -14   52.99    2.80
   2   2 -14   52.99    3.30
   2   2 -14   60.19    2.20
   2   2 -14   50.29    2.20
   2   2 -14   54.39    3.20
   2   2 -14   59.09    3.50
  -2  -2  14   53.79    1.90
  -2  -2  14   57.59    3.40
  -2  -2  14   56.99    3.40
  -2  -2  14   49.20    2.20
  -2  -2  14   57.79    2.60
   1   2 -14    1.60    1.20
   1   2 -14    1.20    0.80
   1   2 -14    0.50    1.30
   1   2 -14    1.00    1.50
   1   2 -14    1.50    1.40
  -1  -2  14    0.70    0.80
  -1  -2  14    0.60    1.40
  -1  -2  14   -0.70    1.00
  -1  -2  14   -1.70    1.50
   0   2 -14    0.40    0.70
   0   2 -14   -1.10    1.00
   0   2 -14   -0.30    1.00
   0   2 -14   -1.50    1.20
   0   2 -14   -0.20    1.40
   0  -2  14   -0.40    1.00
   0  -2  14    0.00    1.20
   0  -2  14   -0.50    0.70
   0  -2  14   -0.30    0.80
   0  -2  14    1.90    1.50
  -1   2 -14    2.60    1.20
  -1   2 -14    2.20    0.90
  -1   2 -14    0.20    1.90
  -1   2 -14    3.10    0.90
  -1   2 -14    2.90    1.30
   1  -2  14    4.10    1.10
   1  -2  14    1.90    1.40
   1  -2  14    3.30    0.80
   1  -2  14    3.10    1.20
   1  -2  14    4.40    0.90
   1  -2  14    2.90    1.10
  -2   2 -14    8.00    1.10
  -2   2 -14   14.70    1.90
  -2   2 -14   14.60    1.20
  -2   2 -14   13.40    1.60
  -2   2 -14   14.20    1.80
  -2   2 -14   12.60    1.10
  -2   2 -14   12.20    1.20
   2  -2  14   12.50    1.20
   2  -2  14   12.60    1.80
   2  -2  14   15.60    1.60
   2  -2  14   13.10    1.10
   2  -2  14   13.00    1.30
   2  -2  14   14.30    1.10
   2  -2  14   12.30    1.00
  -3   2 -14    6.20    1.70
  -3   2 -14    6.70    1.60
  -3   2 -14    8.60    2.00
  -3   2 -14    8.90    1.00
  -3   2 -14    8.50    1.70
  -3   2 -14    8.80    1.20
  -3   2 -14    5.80    1.40
   3  -2  14    6.40    1.20
   3  -2  14   10.00    1.40
   3  -2  14    9.80    1.50
   3  -2  14    8.10    1.00
   3  -2  14    7.40    2.00
   3  -2  14    9.40    1.00
   3  -2  14    8.90    1.10
  -4   2 -14    2.60    1.30
  -4   2 -14    0.50    1.40
  -4   2 -14    2.40    1.00
  -4   2 -14    0.60    1.20
  -4   2 -14   -1.90    2.20
  -4   2 -14    2.60    2.00
   4  -2  14    3.80    2.20
   4  -2  14    1.60    0.90
   4  -2  14    3.70    1.50
   4  -2  14    1.00    1.20
   4  -2  14    2.30    1.00
  -5   2 -14    6.80    1.00
  -5   2 -14    7.80    1.70
  -5   2 -14    4.30    1.50
   5  -2  14    5.30    1.20
   5  -2  14    8.40    1.00
   5  -2  14    6.50    1.70
   5  -2  14    8.50    1.60
   3   1 -14    8.50    1.60
   3   1 -14    7.70    1.90
   3   1 -14   11.50    1.40
   3   1 -14   13.30    3.20
   3   1 -14   14.90    3.20
  -3  -1  14    9.50    1.60
  -3  -1  14    6.90    2.00
   2   1 -14   21.90    1.90
   2   1 -14   21.10    1.60
   2   1 -14   22.30    2.00
   2   1 -14   25.60    1.60
   2   1 -14   24.10    2.10
   2   1 -14   25.50    2.20
  -2  -1  14   25.20    2.20
  -2  -1  14   26.30    2.20
  -2  -1  14   25.90    1.00
  -2  -1  14   25.20    2.10
   1   1 -14    0.10    1.10
   1   1 -14   -0.10    1.30
   1   1 -14    0.60    0.70
   1   1 -14    1.20    1.40
   1   1 -14    0.00    1.20
  -1  -1  14    0.00    1.00
  -1  -1  14   -0.70    0.50
  -1  -1  14    0.20    0.50
  -1  -1  14   -0.30    1.30
  -1  -1  14    0.30    1.40
   0   1 -14    0.70    1.20
   0   1 -14    1.50    1.00
   0   1 -14    2.20    1.20
   0   1 -14    1.00    1.10
   0   1 -14    0.00    0.70
   0   1 -14   -0.90    1.50
   0  -1  14    0.40    0.90
   0  -1  14    0.50    0.90
   0  -1  14   -1.50    1.20
   0  -1  14   -0.20    0.60
  -1   1 -14   41.00    2.50
  -1   1 -14   38.50    2.60
  -1   1 -14   40.10    1.80
  -1   1 -14   37.50    2.20
  -1   1 -14   38.60    1.90
  -1   1 -14   40.70    2.30
   1  -1  14   35.40    2.10
   1  -1  14   39.50    2.60
   1  -1  14   41.50    2.10
   1  -1  14   40.60    1.80
   1  -1  14   38.50    1.60
   1  -1  14   38.70    2.30
  -2   1 -14   37.40    2.60
  -2   1 -14   34.80    2.60
  -2   1 -14   30.60    2.10
  -2   1 -14   36.20    1.80
  -2   1 -14   34.60    1.80
  -2   1 -14   35.90    2.30
  -2   1 -14   35.60    1.70
   2  -1  14   33.80    2.00
   2  -1  14   33.50    2.30
   2  -1  14   34.50    1.60
   2  -1  14   35.60    2.80
   2  -1  14   32.30    2.20
   2  -1  14   37.00    1.70
   2  -1  14   30.30    2.80
  -3   1 -14    0.90    1.00
  -3   1 -14    0.50    0.80
  -3   1 -14    1.40    1.10
  -3   1 -14   -0.10    1.50
  -3   1 -14    0.60    1.00
  -3   1 -14   -0.30    1.40
   3  -1  14    0.20    1.00
   3  -1  14   -0.80    1.20
   3  -1  14    1.10    1.10
   3  -1  14    1.60    0.80
   3  -1  14    0.80    0.80
   3  -1  14    2.30    2.00
   3  -1  14    0.30    0.70
  -4   1 -14    5.80    1.30
  -4   1 -14    5.50    1.80
  -4   1 -14   10.30    2.00
  -4   1 -14    7.70    1.20
  -4   1 -14    6.60    1.00
  -4   1 -14    6.10    1.20
   4  -1  14    4.80    2.00
   4  -1  14    5.90    1.20
   4  -1  14    9.40    1.50
   4  -1  14    6.30    1.00
   4  -1  14    6.50    1.10
   4  -1  14    7.10    1.00
  -5   1 -14    5.40    1.80
  -5   1 -14    8.90    2.70
  -5   1 -14    7.00    1.30
  -5   1 -14    6.10    1.00
   5  -1  14    7.40    1.40
   5  -1  14    5.30    1.60
   5  -1  14    7.60    2.40
   5  -1  14    7.30    1.10
   5  -1  14    8.00    1.90
  -6   1 -14   41.90    3.30
  -6   1 -14   38.80    2.00
  -6   1 -14   40.10    5.50
  -6   1 -14   33.90    3.00
   6  -1  14   49.90    3.30
   6  -1  14   41.80    2.40
   6  -1  14   37.10    2.00
   3   0 -14   14.10    1.60
   3   0 -14   13.20    1.70
  -3   0  14   11.40    2.30
  -3   0  14   12.80    1.80
   2   0 -14   -0.30    1.50
   2   0 -14    0.60    1.30
   2   0 -14   -1.30    1.20
   2   0 -14    0.10    1.00
   2   0 -14   -2.80    1.70
  -2   0  14    2.70    1.70
  -2   0  14    0.80    1.20
   1   0 -14    5.40    0.80
   1   0 -14    6.70    1.60
   1   0 -14    6.70    1.10
   1   0 -14    2.80    1.10
   1   0 -14    6.50    1.50
  -1   0  14    5.70    1.60
  -1   0  14    6.10    1.50
  -1   0  14    7.00    1.20
   0   0 -14    7.20    1.30
   0   0 -14    4.40    1.10
   0   0 -14    7.30    1.20
   0   0 -14    8.30    0.90
   0   0 -14    6.60    1.30
   0   0 -14    6.90    1.00
   0   0  14    8.00    1.00
   0   0  14    8.00    0.70
   0   0  14    8.40    1.30
   0   0  14    8.20    0.70
   0   0  14    7.60    1.30
  -1   0 -14    1.00    0.80
  -1   0 -14    1.80    1.00
  -1   0 -14    1.00    1.10
  -1   0 -14    0.40    1.30
  -1   0 -14    1.40    0.90
  -1   0 -14    1.70    0.80
   1   0  14    1.20    1.10
   1   0  14   -0.30    1.20
   1   0  14    0.60    0.80
   1   0  14    0.40    0.50
   1   0  14    0.00    0.90
   1   0  14    0.30    0.90
  -2   0 -14    2.90    1.20
  -2   0 -14    1.70    0.90
  -2   0 -14    2.50    0.90
  -2   0 -14    4.00    0.80
  -2   0 -14    3.50    1.40
  -2   0 -14    2.70    0.80
  -2   0 -14    4.70    1.00
   2   0  14    3.40    0.80
   2   0  14    2.80    1.10
   2   0  14    3.00    1.30
   2   0  14    2.30    1.00
   2   0  14    3.00    0.80
   2   0  14    2.70    0.80
  -3   0 -14    2.50    1.00
  -3   0 -14    2.80    1.00
  -3   0 -14    3.10    1.40
  -3   0 -14    2.70    0.80
  -3   0 -14    3.20    1.40
  -3   0 -14    2.50    0.80
  -3   0 -14    2.70    1.40
   3   0  14    2.30    0.80
   3   0  14    1.50    0.80
   3   0  14    1.70    0.70
   3   0  14    2.10    0.70
   3   0  14   -0.20    1.30
   3   0  14    1.80    1.00
   3   0  14   -0.60    1.20
  -4   0 -14    1.00    1.10
  -4   0 -14    0.60    0.80
  -4   0 -14    1.10    1.70
  -4   0 -14    0.50    0.90
  -4   0 -14    1.20    1.20
  -4   0 -14    1.00    1.10
  -4   0 -14    0.90    1.50
   4   0  14    1.20    0.90
   4   0  14   -0.20    1.00
   4   0  14    0.40    0.70
   4   0  14    0.40    1.50
   4   0  14   -0.50    1.00
   4   0  14    0.20    0.90
  -5   0 -14    0.50    1.70
  -5   0 -14   -2.20    2.20
  -5   0 -14   -1.30    1.30
  -5   0 -14    2.00    0.90
  -5   0 -14    0.60    1.10
   5   0  14    0.00    1.00
   5   0  14    1.60    2.10
   5   0  14   -0.20    1.30
   5   0  14    1.00    1.10
   5   0  14    0.60    0.70
   5   0  14    0.80    1.10
  -6   0 -14    1.40    1.30
  -6   0 -14    1.40    3.00
  -6   0 -14    2.70    2.80
  -6   0 -14    1.40    1.00
  -6   0 -14    1.50    1.60
   6   0  14    0.20    1.70
   6   0  14    2.10    0.90
   6   0  14    2.10    1.10
   2  -1 -14   21.10    1.70
   2  -1 -14   24.30    1.80
   2  -1 -14   25.90    2.50
   2  -1 -14   22.70    2.20
  -2   1  14   23.00    2.10
  -2   1  14   18.50    1.70
   1  -1 -14   10.00    1.40
   1  -1 -14   13.20    1.70
   1  -1 -14   10.10    1.30
   1  -1 -14   11.80    1.70
   1  -1 -14   10.60    1.10
   1  -1 -14    9.70    1.60
  -1   1  14   10.50    1.60
  -1   1  14    7.70    1.50
  -1   1  14   10.00    1.30
   0  -1 -14   19.00    1.70
   0  -1 -14   22.80    1.70
   0  -1 -14   16.80    1.30
   0  -1 -14   17.90    1.50
   0  -1 -14   21.20    2.20
   0  -1 -14   14.20    1.40
   0   1  14   20.00    1.80
   0   1  14   20.70    2.20
   0   1  14   18.00    1.60
  -1  -1 -14    1.50    0.80
  -1  -1 -14    1.20    1.00
  -1  -1 -14    1.60    0.90
  -1  -1 -14    1.00    1.30
  -1  -1 -14    0.60    1.10
  -1  -1 -14    0.70    0.80
   1   1  14    0.70    0.30
   1   1  14    1.30    1.20
   1   1  14    1.20    1.10
   1   1  14    0.90    0.80
  -2  -1 -14   14.30    1.00
  -2  -1 -14   15.70    1.10
  -2  -1 -14   15.30    1.50
  -2  -1 -14   15.10    1.40
  -2  -1 -14   15.10    1.10
  -2  -1 -14   16.40    1.50
  -2  -1 -14   14.40    1.10
   2   1  14   14.70    1.00
   2   1  14   17.00    1.60
   2   1  14   14.10    1.40
   2   1  14   18.00    1.80
   2   1  14   17.60    1.60
   2   1  14   12.80    1.20
  -3  -1 -14    0.90    1.30
  -3  -1 -14    1.00    0.70
  -3  -1 -14    1.60    1.30
  -3  -1 -14    1.70    1.00
  -3  -1 -14   -0.10    1.10
  -3  -1 -14    0.30    0.80
  -3  -1 -14    1.20    0.80
   3   1  14    1.00    0.80
   3   1  14    2.40    0.70
   3   1  14    1.10    1.20
   3   1  14    0.50    1.00
   3   1  14    1.20    0.70
   3   1  14   -1.70    1.30
   3   1  14    3.20    0.90
  -4  -1 -14    5.00    0.90
  -4  -1 -14    5.90    1.70
  -4  -1 -14    6.10    1.20
  -4  -1 -14    5.30    1.20
  -4  -1 -14    4.50    0.90
  -4  -1 -14    4.60    0.90
  -4  -1 -14    8.40    1.70
   4   1  14    5.50    1.00
   4   1  14    4.20    0.70
   4   1  14    3.70    1.10
   4   1  14    4.70    0.90
   4   1  14    4.30    1.60
   4   1  14    3.70    0.90
  -5  -1 -14   14.20    2.20
  -5  -1 -14   14.80    1.60
  -5  -1 -14   11.20    1.10
  -5  -1 -14   10.70    1.80
  -5  -1 -14   12.50    1.20
   5   1  14   11.70    0.80
   5   1  14   11.50    1.20
   5   1  14   11.90    1.10
   5   1  14   13.10    1.50
   5   1  14   14.00    1.30
   5   1  14   13.20    2.20
  -6  -1 -14    3.30    2.00
  -6  -1 -14    3.00    1.50
  -6  -1 -14    5.10    1.20
  -6  -1 -14    6.70    1.30
  -6  -1 -14    7.50    3.90
   6   1  14    5.50    1.50
   6   1  14    5.10    0.70
   6   1  14    3.90    1.30
  -7  -1 -14    1.00    1.50
  -7  -1 -14   -1.70    1.20
   7   1  14   -1.80    1.70
   7   1  14    2.50    1.70
   2  -2 -14   -0.10    1.40
   2  -2 -14    2.60    1.60
  -2   2  14    1.00    1.90
  -2   2  14   -0.20    1.70
   1  -2 -14    6.30    1.20
   1  -2 -14    7.10    1.70
   1  -2 -14   10.00    1.50
  -1   2  14   10.80    1.80
  -1   2  14    7.60    1.50
   0  -2 -14   49.70    2.70
   0  -2 -14   47.30    2.70
   0  -2 -14   48.60    2.60
   0  -2 -14   48.40    2.20
   0  -2 -14   50.89    2.30
   0   2  14   50.99    2.70
   0   2  14   50.89    2.60
   0   2  14   49.70    2.50
  -1  -2 -14    5.50    0.90
  -1  -2 -14    7.90    1.20
  -1  -2 -14    5.10    1.30
  -1  -2 -14    8.60    1.30
  -1  -2 -14    6.80    1.00
  -1  -2 -14    6.10    1.00
   1   2  14    6.30    1.20
   1   2  14    7.60    1.10
   1   2  14    7.40    1.30
  -2  -2 -14    3.00    1.30
  -2  -2 -14    3.60    1.20
  -2  -2 -14    3.00    0.90
  -2  -2 -14    4.20    0.80
  -2  -2 -14    3.70    0.90
   2   2  14    3.50    1.20
   2   2  14    4.00    1.10
   2   2  14    4.20    1.10
   2   2  14    3.60    0.40
  -3  -2 -14   88.79    2.80
  -3  -2 -14   90.79    3.00
  -3  -2 -14   85.69    3.40
  -3  -2 -14   89.49    3.30
  -3  -2 -14   86.49    2.30
  -3  -2 -14   85.89    2.50
  -3  -2 -14   87.69    2.70
   3   2  14   90.09    3.00
   3   2  14   88.29    2.60
   3   2  14   89.69    2.30
   3   2  14   88.49    3.30
  -4  -2 -14   21.80    1.90
  -4  -2 -14   20.80    1.90
  -4  -2 -14   21.20    1.40
  -4  -2 -14   18.80    1.90
  -4  -2 -14   22.20    1.50
  -4  -2 -14   19.70    1.70
   4   2  14   19.80    1.70
   4   2  14   19.80    1.40
   4   2  14   19.80    2.00
   4   2  14   18.20    1.70
   4   2  14   19.00    1.40
   4   2  14   21.40    1.60
  -5  -2 -14    5.30    1.30
  -5  -2 -14    5.40    1.80
  -5  -2 -14    6.00    1.00
  -5  -2 -14    4.70    1.00
  -5  -2 -14    8.70    2.00
   5   2  14    5.10    1.30
   5   2  14    5.40    0.90
   5   2  14    4.40    1.00
   5   2  14    5.10    1.70
   5   2  14    5.70    0.80
   5   2  14    5.10    1.00
  -6  -2 -14    4.80    1.10
  -6  -2 -14    6.00    1.20
  -6  -2 -14    5.30    1.60
   6   2  14    5.40    1.30
   6   2  14    5.90    1.30
   6   2  14    4.30    1.30
   6   2  14    4.10    0.80
  -7  -2 -14   -1.40    1.20
  -7  -2 -14   -1.20    1.40
   7   2  14    0.10    1.40
   7   2  14   -0.70    1.50
   1  -3 -14    6.20    1.70
   1  -3 -14    4.10    1.20
  -1   3  14    6.10    1.70
  -1   3  14    4.90    1.70
   0  -3 -14   10.50    2.10
   0  -3 -14   15.10    1.30
   0   3  14   11.80    1.50
   0   3  14   17.10    1.70
  -1  -3 -14    0.20    0.90
  -1  -3 -14    0.70    1.50
  -1  -3 -14    1.00    1.00
  -1  -3 -14    1.00    1.10
   1   3  14    0.50    1.20
   1   3  14   -0.30    1.20
   1   3  14    0.90    1.20
  -2  -3 -14   27.60    2.20
  -2  -3 -14   27.90    2.40
  -2  -3 -14   26.90    1.80
  -2  -3 -14   22.80    1.60
   2   3  14   25.00    2.00
   2   3  14   26.60    2.00
   2   3  14   25.90    2.30
  -3  -3 -14   54.69    2.60
  -3  -3 -14   48.20    3.00
  -3  -3 -14   56.09    1.50
  -3  -3 -14   58.29    2.20
  -3  -3 -14   51.99    1.90
  -3  -3 -14   59.79    2.80
   3   3  14   57.69    2.10
   3   3  14   59.19    2.80
   3   3  14   54.49    1.50
   3   3  14   55.79    2.20
   3   3  14   54.69    2.40
  -4  -3 -14   24.80    2.60
  -4  -3 -14   23.10    2.10
  -4  -3 -14   20.10    1.70
  -4  -3 -14   21.80    1.50
  -4  -3 -14   22.60    1.30
   4   3  14   23.50    1.90
   4   3  14   20.10    1.60
   4   3  14   24.20    2.50
   4   3  14   22.10    1.60
  -5  -3 -14    2.40    1.80
  -5  -3 -14    3.60    1.30
  -5  -3 -14    6.10    0.90
  -5  -3 -14    5.40    0.90
  -5  -3 -14    4.70    1.00
   5   3  14    3.30    0.80
   5   3  14    4.30    1.00
   5   3  14    4.40    1.00
   5   3  14    3.60    1.10
   5   3  14    1.20    1.80
   5   3  14    5.60    1.10
  -6  -3 -14   12.40    1.20
  -6  -3 -14    9.40    1.20
   6   3  14   11.40    1.40
   6   3  14   12.10    1.40
   6   3  14   12.10    1.50
  -7  -3 -14   -0.90    1.40
  -7  -3 -14    1.70    1.20
   7   3  14    0.60    1.50
   7   3  14    4.40    1.50
   0  -4 -14    0.60    1.20
   0  -4 -14   -0.10    1.60
   0   4  14   -0.90    1.60
   0   4  14   -0.30    1.40
  -1  -4 -14   65.19    2.60
   1   4  14   64.89    3.00
   1   4  14   65.39    3.20
   1   4  14   60.19    2.80
  -2  -4 -14    5.00    1.00
  -2  -4 -14    3.80    1.40
  -2  -4 -14    5.20    1.40
  -2  -4 -14    3.50    1.10
   2   4  14    1.30    1.30
   2   4  14    4.30    1.30
   2   4  14    2.20    1.20
  -3  -4 -14   10.00    1.00
  -3  -4 -14   11.80    1.50
  -3  -4 -14    9.60    1.20
   3   4  14   10.40    1.20
   3   4  14    8.20    1.40
   3   4  14    8.10    1.30
  -4  -4 -14  105.09    2.90
  -4  -4 -14  115.89    3.90
  -4  -4 -14  115.09    3.30
  -4  -4 -14  113.69    3.60
  -4  -4 -14  111.99    2.80
   4   4  14  112.29    4.00
   4   4  14  111.19    3.40
   4   4  14  110.29    3.20
  -5  -4 -14   58.29    2.30
  -5  -4 -14   61.89    2.50
   5   4  14   61.49    2.20
   5   4  14   57.39    2.10
   5   4  14   59.19    2.60
  -6  -4 -14    0.70    1.00
  -6  -4 -14    0.70    1.10
   6   4  14    1.20    1.20
   6   4  14    0.50    1.10
   6   4  14    1.70    1.10
  -7  -4 -14    6.60    1.50
  -7  -4 -14    5.40    1.30
   7   4  14    4.20    2.10
  -1  -5 -14   12.50    1.50
   1   5  14   14.60    2.00
   1   5  14    9.90    1.50
  -2  -5 -14   22.70    2.20
  -2  -5 -14   23.90    2.20
   2   5  14   25.30    2.60
   2   5  14   23.70    2.20
   2   5  14   23.80    2.00
  -3  -5 -14    8.50    1.30
  -3  -5 -14    5.30    1.10
   3   5  14    7.80    1.50
   3   5  14    5.00    1.20
   3   5  14    3.80    1.50
  -4  -5 -14   93.39    3.20
  -4  -5 -14  106.39    3.30
   4   5  14  102.89    3.80
   4   5  14   99.59    3.20
   4   5  14  107.19    3.30
  -5  -5 -14   15.90    1.40
  -5  -5 -14   18.60    1.50
   5   5  14   18.60    1.90
   5   5  14   14.60    3.00
  -6  -5 -14   15.50    1.30
  -6  -5 -14   16.70    1.60
   6   5  14   15.90    1.50
  -3  -6 -14    0.10    1.50
   3   6  14    1.60    1.20
   3   6  14    4.10    1.70
  -4  -6 -14   13.10    1.70
   4   6  14   11.50    1.30
   4   6  14   14.50    2.10
   0   4 -15    1.90    1.60
   0   4 -15    2.80    1.70
   0  -4  15    3.10    1.30
   0  -4  15    3.60    1.60
  -1   4 -15    0.60    1.50
  -1   4 -15    4.20    1.50
   1  -4  15    1.50    1.50
   1  -4  15    2.20    1.20
   1   3 -15   21.60    1.90
   1   3 -15   19.30    2.00
  -1  -3  15   20.10    1.60
  -1  -3  15   18.00    2.10
  -1  -3  15   19.30    2.60
   0   3 -15    3.30    1.50
   0   3 -15    1.70    1.30
   0  -3  15    1.90    1.10
   0  -3  15    1.80    1.40
   0  -3  15    0.60    2.00
   0  -3  15    2.40    1.20
  -1   3 -15   -1.00    1.40
  -1   3 -15    1.40    1.80
  -1   3 -15    0.00    1.20
   1  -3  15   -1.50    1.90
   1  -3  15   -0.20    1.10
   1  -3  15   -0.20    1.30
   1  -3  15    0.30    1.40
   1  -3  15   -2.10    1.90
  -2   3 -15   13.50    1.60
  -2   3 -15   14.80    1.90
  -2   3 -15   14.20    1.50
  -2   3 -15   12.00    1.60
   2  -3  15   13.80    1.20
   2  -3  15   10.90    2.60
   2  -3  15   12.90    1.70
   2  -3  15   12.90    1.80
   2  -3  15   12.30    1.20
  -3   3 -15   60.29    2.70
  -3   3 -15   57.69    3.00
  -3   3 -15   58.89    3.20
  -3   3 -15   56.69    3.10
   3  -3  15   56.89    3.00
   3  -3  15   50.49    5.10
   3  -3  15   52.59    2.40
   3  -3  15   55.09    2.40
   3  -3  15   47.60    3.50
   2   2 -15  100.99    4.00
   2   2 -15  107.89    4.70
  -2  -2  15   99.29    3.70
  -2  -2  15   97.49    4.40
   1   2 -15    0.10    1.30
   1   2 -15    1.40    1.80
   1   2 -15   -0.40    1.50
   1   2 -15   -3.30    1.00
   1   2 -15   -2.50    1.90
  -1  -2  15   -0.50    1.70
  -1  -2  15    0.90    1.30
  -1  -2  15    1.20    3.00
  -1  -2  15   -0.50    0.90
   0   2 -15   37.80    2.50
   0   2 -15   35.10    3.10
   0   2 -15   38.20    2.90
   0   2 -15   40.80    2.00
   0   2 -15   46.90    3.60
   0  -2  15   37.70    2.00
   0  -2  15   42.70    2.60
   0  -2  15   41.00    3.50
   0  -2  15   41.30    2.90
   0  -2  15   42.90    2.30
  -1   2 -15    0.60    1.00
  -1   2 -15   -0.80    1.80
  -1   2 -15    3.40    1.70
  -1   2 -15    3.10    1.20
  -1   2 -15    2.70    1.30
   1  -2  15    2.90    1.50
   1  -2  15    3.30    1.30
   1  -2  15    3.60    1.00
   1  -2  15    2.80    1.10
   1  -2  15    2.40    1.90
  -2   2 -15   27.80    2.30
  -2   2 -15   33.40    3.50
  -2   2 -15   29.80    2.60
  -2   2 -15   28.00    2.40
  -2   2 -15   34.20    2.10
  -2   2 -15   31.10    2.10
   2  -2  15   32.80    2.40
   2  -2  15   29.90    2.10
   2  -2  15   28.80    1.90
   2  -2  15   30.10    2.60
   2  -2  15   28.80    1.90
   2  -2  15   31.20    2.80
  -3   2 -15    3.70    2.00
  -3   2 -15    3.80    1.50
  -3   2 -15    8.70    2.50
  -3   2 -15    6.10    1.10
  -3   2 -15    6.50    1.30
  -3   2 -15    8.00    1.60
   3  -2  15    4.50    1.10
   3  -2  15    5.50    1.40
   3  -2  15    1.40    2.30
   3  -2  15    5.30    1.00
   3  -2  15    5.00    1.60
   3  -2  15    5.20    1.70
   3  -2  15    4.30    1.30
  -4   2 -15   12.20    1.60
  -4   2 -15   12.50    1.30
  -4   2 -15    9.00    1.50
   4  -2  15   12.60    1.90
   4  -2  15   13.60    1.20
   4  -2  15   13.20    1.30
   4  -2  15   14.50    1.70
   2   1 -15   16.00    2.00
   2   1 -15   13.20    1.90
   2   1 -15   19.00    2.60
  -2  -1  15    9.50    1.60
  -2  -1  15   15.90    2.30
   1   1 -15    2.70    2.50
   1   1 -15   -0.80    1.20
   1   1 -15   -0.10    1.40
   1   1 -15   -0.60    1.90
   1   1 -15    0.20    1.00
   1   1 -15    1.30    1.40
  -1  -1  15    1.50    1.80
  -1  -1  15    0.80    1.20
   0   1 -15   32.50    2.40
   0   1 -15   27.40    2.60
   0   1 -15   28.40    1.90
   0   1 -15   29.20    2.20
   0   1 -15   29.60    2.30
   0  -1  15   25.60    2.20
   0  -1  15   26.90    2.00
   0  -1  15   28.80    1.50
   0  -1  15   30.50    2.70
  -1   1 -15   22.90    2.30
  -1   1 -15   23.00    1.90
  -1   1 -15   29.10    2.30
  -1   1 -15   24.00    2.00
  -1   1 -15   22.70    2.10
   1  -1  15   19.50    2.30
   1  -1  15   24.80    1.90
   1  -1  15   22.00    2.40
   1  -1  15   25.90    2.10
   1  -1  15   24.10    1.50
  -2   1 -15    9.90    1.10
  -2   1 -15   10.00    1.60
  -2   1 -15   11.30    1.90
  -2   1 -15    5.90    1.20
  -2   1 -15    6.60    1.40
  -2   1 -15   11.40    1.20
  -2   1 -15   10.30    2.00
   2  -1  15    8.40    1.10
   2  -1  15    7.40    1.10
   2  -1  15    8.50    1.40
   2  -1  15    9.80    1.00
   2  -1  15    9.10    1.80
  -3   1 -15   11.30    1.60
  -3   1 -15   14.80    1.30
  -3   1 -15   15.10    2.40
  -3   1 -15   17.40    2.30
  -3   1 -15   13.70    1.20
  -3   1 -15   15.80    1.70
  -3   1 -15   13.10    1.50
   3  -1  15   16.40    2.30
   3  -1  15   13.40    1.40
   3  -1  15   13.30    1.60
   3  -1  15   12.60    1.20
   3  -1  15   12.80    1.30
   3  -1  15   13.40    1.10
  -4   1 -15   77.69    4.80
  -4   1 -15   83.89    5.20
  -4   1 -15   86.39    4.60
  -4   1 -15   87.09    3.10
  -4   1 -15   87.09    2.90
   4  -1  15   88.19    2.70
   4  -1  15   88.49    3.50
   4  -1  15   89.09    3.00
   4  -1  15   92.59    3.20
   4  -1  15   91.39    3.30
  -5   1 -15   45.20    2.80
  -5   1 -15   39.60    3.90
  -5   1 -15   43.20    3.30
  -5   1 -15   41.80    2.20
   5  -1  15   40.60    2.50
   5  -1  15   39.50    3.20
   5  -1  15   42.00    2.00
   2   0 -15   20.60    2.60
   2   0 -15   15.30    1.70
  -2   0  15    9.40    1.90
  -2   0  15   11.40    1.80
   1   0 -15   26.20    2.40
   1   0 -15   25.60    3.10
   1   0 -15   20.30    2.00
   1   0 -15   25.10    2.30
   1   0 -15   23.90    1.70
   1   0 -15   22.20    2.00
  -1   0  15   27.80    3.00
  -1   0  15   18.80    1.60
   0   0 -15    0.50    1.30
   0   0 -15    0.30    1.00
   0   0 -15    1.00    1.50
   0   0 -15    1.70    1.60
   0   0 -15    0.80    1.00
   0   0  15    0.80    0.40
   0   0  15   -1.10    1.50
   0   0  15   -0.20    1.10
   0   0  15    3.10    1.50
  -1   0 -15   24.60    1.90
  -1   0 -15   25.50    1.90
  -1   0 -15   22.80    1.80
  -1   0 -15   27.00    2.80
  -1   0 -15   28.10    2.30
  -1   0 -15   24.40    2.00
   1   0  15   26.30    2.50
   1   0  15   27.30    2.00
   1   0  15   25.80    1.90
   1   0  15   25.20    1.20
   1   0  15   28.70    2.70
  -2   0 -15    0.30    1.10
  -2   0 -15   -0.40    1.10
  -2   0 -15    0.20    1.50
  -2   0 -15    1.60    1.00
  -2   0 -15    0.50    1.00
  -2   0 -15    0.50    1.50
   2   0  15    0.50    0.70
   2   0  15    1.70    1.10
   2   0  15    0.10    1.20
   2   0  15   -0.70    0.80
   2   0  15    0.70    1.50
  -3   0 -15   24.40    1.70
  -3   0 -15   20.90    1.70
  -3   0 -15   21.80    2.20
  -3   0 -15   22.90    2.20
  -3   0 -15   22.70    2.20
  -3   0 -15   22.50    2.20
  -3   0 -15   18.20    1.90
   3   0  15   20.60    1.80
   3   0  15   21.70    1.90
   3   0  15   20.50    1.60
   3   0  15   20.40    1.70
   3   0  15   19.10    2.10
   3   0  15   20.20    1.90
  -4   0 -15    0.40    2.10
  -4   0 -15    1.10    1.00
  -4   0 -15    0.70    1.20
  -4   0 -15    1.30    1.00
  -4   0 -15    4.30    2.30
  -4   0 -15    2.10    1.50
   4   0  15    1.30    2.20
   4   0  15    0.70    1.10
   4   0  15    0.40    0.90
   4   0  15    0.90    1.10
   4   0  15    0.10    1.00
   4   0  15    1.70    1.30
  -5   0 -15   -2.50    2.30
  -5   0 -15    2.90    3.90
  -5   0 -15    1.90    1.10
  -5   0 -15    3.60    1.30
  -5   0 -15    0.70    1.60
   5   0  15    0.40    1.10
   5   0  15    1.50    1.50
   5   0  15    1.80    0.80
   1  -1 -15    2.20    1.30
   1  -1 -15    4.10    1.30
   1  -1 -15    3.10    1.50
  -1   1  15    2.20    1.40
  -1   1  15    2.30    1.60
   0  -1 -15   -0.70    1.10
   0  -1 -15    0.50    1.30
   0  -1 -15    2.30    1.50
   0  -1 -15   -1.60    1.00
   0   1  15    0.30    1.10
   0   1  15   -0.90    1.30
  -1  -1 -15    1.40    1.10
  -1  -1 -15    3.40    1.60
  -1  -1 -15    2.90    1.50
  -1  -1 -15    3.90    1.40
  -1  -1 -15    1.40    1.00
  -1  -1 -15    2.40    1.00
   1   1  15    4.10    1.40
   1   1  15    3.00    1.60
   1   1  15    3.20    1.10
  -2  -1 -15    2.10    1.00
  -2  -1 -15    0.50    1.00
  -2  -1 -15    1.80    0.90
  -2  -1 -15   -0.60    1.60
  -2  -1 -15    2.40    1.30
   2   1  15    1.50    1.00
   2   1  15    0.60    1.00
   2   1  15    1.40    1.10
   2   1  15    2.10    1.60
   2   1  15    2.00    0.60
  -3  -1 -15    1.00    0.90
  -3  -1 -15   -0.20    1.80
  -3  -1 -15    1.10    1.20
  -3  -1 -15   -0.80    1.80
  -3  -1 -15    4.20    1.60
  -3  -1 -15   -0.20    1.00
  -3  -1 -15    0.90    0.70
   3   1  15    0.40    0.90
   3   1  15    0.00    1.60
   3   1  15    0.50    1.00
   3   1  15    0.20    1.20
   3   1  15    0.30    0.80
  -4  -1 -15   -0.80    1.00
  -4  -1 -15    0.80    1.20
  -4  -1 -15    2.10    1.90
  -4  -1 -15    0.40    1.30
  -4  -1 -15   -1.00    2.00
  -4  -1 -15    0.20    0.90
   4   1  15    1.30    1.10
   4   1  15    0.60    0.80
   4   1  15    0.70    1.10
   4   1  15    0.80    1.00
   4   1  15    0.20    1.30
   4   1  15    3.70    2.10
  -5  -1 -15   23.60    2.00
  -5  -1 -15   15.70    2.30
  -5  -1 -15   16.60    1.40
  -5  -1 -15   20.40    1.90
   5   1  15   17.40    1.70
   5   1  15   19.20    1.50
   5   1  15   18.80    1.50
   5   1  15   20.40    1.50
  -6  -1 -15   23.70    1.60
  -6  -1 -15   22.80    1.80
   6   1  15   26.70    3.00
   6   1  15   21.50    1.70
   1  -2 -15    2.70    1.80
   1  -2 -15    0.40    1.30
  -1   2  15    1.60    1.80
  -1   2  15    2.40    1.80
   0  -2 -15    3.70    1.20
   0   2  15    2.00    1.50
   0   2  15    1.70    1.40
  -1  -2 -15    7.60    1.50
  -1  -2 -15    8.30    1.10
   1   2  15    8.60    1.30
   1   2  15    8.60    1.50
  -2  -2 -15   12.70    1.90
  -2  -2 -15   11.50    1.20
  -2  -2 -15   10.10    1.10
  -2  -2 -15    9.80    1.30
   2   2  15   12.70    1.30
   2   2  15    8.10    1.70
   2   2  15   11.30    1.50
  -3  -2 -15   -0.20    0.60
  -3  -2 -15   -1.40    1.30
  -3  -2 -15    2.30    2.70
  -3  -2 -15    0.20    1.00
  -3  -2 -15    0.10    1.70
  -3  -2 -15   -1.10    0.90
   3   2  15   -1.10    1.00
   3   2  15   -0.30    1.00
   3   2  15   -0.30    0.60
   3   2  15   -0.30    1.50
  -4  -2 -15   -2.00    2.00
  -4  -2 -15    0.00    1.10
  -4  -2 -15    1.00    1.20
  -4  -2 -15    0.60    0.80
  -4  -2 -15    0.20    1.10
   4   2  15   -0.20    0.80
   4   2  15    1.00    1.10
   4   2  15    0.00    1.30
   4   2  15    1.00    0.90
  -5  -2 -15   18.60    1.40
  -5  -2 -15   18.70    1.80
   5   2  15   17.10    1.50
   5   2  15   15.90    1.30
   5   2  15   18.80    1.60
   5   2  15   15.40    1.60
  -6  -2 -15    2.20    1.30
  -6  -2 -15    3.80    1.30
   6   2  15    3.30    1.20
   6   2  15    2.20    1.30
   0  -3 -15    2.90    1.30
   0   3  15    0.80    1.60
   0   3  15   -0.10    1.70
  -1  -3 -15    4.20    1.20
   1   3  15    4.80    1.50
   1   3  15    5.10    1.50
  -2  -3 -15    1.20    1.10
  -2  -3 -15    1.70    1.00
   2   3  15    2.90    1.30
   2   3  15    1.00    1.30
  -3  -3 -15   -0.30    1.10
  -3  -3 -15    1.60    1.00
   3   3  15    1.70    1.20
   3   3  15   -1.30    1.10
  -4  -3 -15    0.30    0.70
  -4  -3 -15   -0.20    1.10
  -4  -3 -15    1.80    1.70
   4   3  15   -0.20    1.20
   4   3  15    0.50    1.00
  -5  -3 -15    0.70    1.10
  -5  -3 -15    2.00    0.90
   5   3  15    2.00    1.30
   5   3  15    0.90    1.20
   5   3  15    1.30    1.20
   5   3  15    0.40    1.00
  -6  -3 -15   -0.60    1.20
  -6  -3 -15    1.00    1.20
   6   3  15    2.20    2.10
   6   3  15   -1.80    1.30
   6   3  15    0.10    1.40
  -1  -4 -15   -0.10    1.30
   1   4  15    0.40    1.50
   1   4  15    2.70    1.80
  -2  -4 -15    9.20    1.30
  -2  -4 -15    9.30    1.40
   2   4  15    8.10    1.50
   2   4  15   10.20    1.60
  -3  -4 -15   39.80    2.30
  -3  -4 -15   48.20    2.50
   3   4  15   44.60    2.70
   3   4  15   50.89    2.70
  -4  -4 -15   -0.60    1.20
   4   4  15    0.10    1.20
   4   4  15   -1.40    1.20
  -5  -4 -15    0.80    1.20
  -5  -4 -15    0.70    1.00
   5   4  15    0.30    1.30
   3   5  15   19.70    1.90
   4   5  15   13.30    1.80
   0   2 -16   31.50    3.40
   0   2 -16   38.90    3.00
   0  -2  16   33.60    3.40
   0  -2  16   36.50    2.60
  -1   2 -16    3.30    1.50
  -1   2 -16    4.00    1.60
   1  -2  16    5.20    1.60
   1  -2  16    3.20    1.30
   1  -2  16    1.50    1.40
  -2   2 -16    0.80    1.40
  -2   2 -16   -0.20    1.90
   2  -2  16    2.50    1.60
   2  -2  16    0.80    1.40
   2  -2  16    2.70    1.20
   2  -2  16   -1.10    1.70
  -3   2 -16    7.70    1.30
  -3   2 -16   11.20    1.70
  -3   2 -16    9.00    1.50
   3  -2  16    9.10    1.30
   3  -2  16    7.10    1.30
   0   1 -16    0.90    1.50
   0   1 -16    2.40    2.10
   0   1 -16    0.70    2.10
   0  -1  16    0.90    1.80
   0  -1  16    0.50    1.30
  -1   1 -16    1.60    1.30
  -1   1 -16    2.10    1.30
  -1   1 -16    2.80    1.90
  -1   1 -16    3.30    2.50
  -1   1 -16   -0.90    1.90
   1  -1  16    3.00    1.20
   1  -1  16    2.10    1.60
  -2   1 -16   36.80    2.90
  -2   1 -16   34.40    2.40
  -2   1 -16   35.00    2.50
   2  -1  16   32.20    3.10
   2  -1  16   34.40    2.30
   2  -1  16   34.40    2.90
  -3   1 -16   -1.30    2.70
  -3   1 -16   -0.60    1.20
  -3   1 -16   -1.90    1.20
  -3   1 -16    0.60    1.30
  -3   1 -16   -3.70    2.70
   3  -1  16   -0.70    1.20
   3  -1  16    0.90    1.10
   3  -1  16    0.50    1.70
   3  -1  16   -0.20    1.30
  -4   1 -16   13.60    1.40
  -4   1 -16    9.70    1.60
  -4   1 -16   12.90    1.50
   4  -1  16   14.30    1.50
   4  -1  16   14.30    2.00
   4  -1  16   14.70    1.30
   0   0 -16    1.10    2.90
   0   0 -16    3.00    2.20
   0   0 -16   -0.50    1.30
   0   0 -16   -1.60    1.20
   0   0  16    1.20    1.40
   0   0  16    4.30    2.10
  -1   0 -16    1.00    1.20
  -1   0 -16    2.20    1.80
  -1   0 -16    0.30    1.20
  -1   0 -16    2.30    1.50
   1   0  16    1.90    1.20
   1   0  16    1.60    1.50
  -2   0 -16    4.20    1.50
  -2   0 -16    4.50    1.20
  -2   0 -16   -0.20    3.30
  -2   0 -16    4.90    2.10
   2   0  16    3.70    1.40
   2   0  16    4.10    1.10
  -3   0 -16    9.90    1.20
  -3   0 -16    8.80    2.20
  -3   0 -16    9.70    1.70
  -3   0 -16    8.80    1.80
  -3   0 -16    7.70    1.20
   3   0  16    8.60    1.70
   3   0  16   10.40    1.20
   3   0  16   10.50    1.70
  -4   0 -16    5.20    1.30
  -4   0 -16    7.20    2.50
  -4   0 -16    4.50    1.20
  -4   0 -16    5.90    1.70
  -4   0 -16    6.00    2.50
   4   0  16    5.40    1.10
   4   0  16    5.50    1.40
   4   0  16    4.20    1.40
   4   0  16    5.80    1.70
   0  -1 -16    0.50    1.50
   0   1  16   -1.20    1.70
   0   1  16   -1.40    1.50
  -1  -1 -16    0.30    1.20
   1   1  16   -0.70    1.20
   1   1  16    2.40    1.50
  -2  -1 -16   14.40    1.40
  -2  -1 -16   15.10    2.10
   2   1  16   12.50    1.40
   2   1  16   15.40    1.80
  -3  -1 -16   37.80    2.30
  -3  -1 -16   37.60    3.30
  -3  -1 -16   38.40    1.80
  -3  -1 -16   37.00    2.60
   3   1  16   40.20    2.80
   3   1  16   36.90    2.20
  -4  -1 -16    3.40    1.30
  -4  -1 -16    3.20    1.20
   4   1  16    1.70    1.00
   4   1  16    3.50    1.70
   4   1  16    2.30    1.30
  -5  -1 -16   11.40    1.50
  -5  -1 -16   11.60    1.40
   5   1  16   10.30    1.60
   5   1  16   10.00    1.80
  -1  -2 -16    3.90    1.40
   1   2  16    2.60    1.60
   1   2  16    2.40    1.60
  -2  -2 -16    0.20    1.20
   2   2  16   -0.50    1.30
   2   2  16   -1.30    1.50
  -3  -2 -16    4.90    1.30
  -3  -2 -16    6.00    1.30
   3   2  16    7.10    1.30
   3   2  16    5.20    1.40
  -4  -2 -16    6.50    1.10
  -4  -2 -16    6.50    1.30
   4   2  16    8.00    1.20
   4   2  16    7.40    1.50
  -5  -2 -16   -0.30    1.10
  -5  -2 -16    0.10    1.40
   5   2  16    1.10    1.60
   5   2  16    0.10    1.40
  -2  -3 -16   -0.10    1.40
   2   3  16    1.50    1.50
   2   3  16    1.20    1.50
  -3  -3 -16   10.00    1.40
  -3  -3 -16   11.20    1.80
   3   3  16   11.70    1.50
   3   3  16   10.60    1.70
  -4  -3 -16    0.50    1.40
   4   3  16    1.80    1.50
   4   3  16   -2.80    1.30
   0   0   0    0.00    0.00

_computing_structure_solution     'SHELXT 2014/5 (Sheldrick, 2014)'
;
_shelx_hkl_checksum              11806
_shelx_shelxl_version_number     2014/7
_olex2_submission_special_instructions 'No special instructions were received'
loop_
_space_group_symop_operation_xyz
'x, y, z'
'-x, -y, -z'
loop_
_atom_site_label
_atom_site_type_symbol
_atom_site_fract_x
_atom_site_fract_y
_atom_site_fract_z
_atom_site_U_iso_or_equiv
_atom_site_adp_type
_atom_site_occupancy
_atom_site_site_symmetry_order
_atom_site_calc_flag
_atom_site_refinement_flags_posn
O1 O 0.26997(11) 0.71218(10) 0.45655(6) 0.01815(16) Uani 1 1 d .
O2 O 0.92911(11) 0.68417(10) 0.08205(6) 0.01742(16) Uani 1 1 d .
H2 H 0.783(3) 0.720(2) 0.1081(15) 0.046(5) Uiso 1 1 d .
N1 N 0.20342(12) 0.86206(11) 0.28620(7) 0.01392(16) Uani 1 1 d .
N2 N 0.52784(12) 0.77489(11) 0.17386(7) 0.01418(16) Uani 1 1 d .
C1 C 0.33025(14) 0.74896(13) 0.35681(8) 0.01338(17) Uani 1 1 d .
C2 C 0.54421(13) 0.69275(12) 0.28197(7) 0.01292(17) Uani 1 1 d .
C3 C 0.32861(14) 0.87013(12) 0.17985(8) 0.01380(18) Uani 1 1 d .
C4 C 0.23570(15) 0.97649(14) 0.08507(8) 0.01784(19) Uani 1 1 d .
H4A H 0.1359 0.9233 0.0689 0.027 Uiso 1 1 calc GR
H4B H 0.3471 0.9622 0.0158 0.027 Uiso 1 1 calc GR
H4C H 0.1626 1.1144 0.1078 0.027 Uiso 1 1 calc GR
C5 C -0.02332(14) 0.95406(14) 0.32175(9) 0.01775(19) Uani 1 1 d .
H5A H -0.0730 0.9020 0.3951 0.027 Uiso 1 1 calc GR
H5B H -0.0875 0.9276 0.2629 0.027 Uiso 1 1 calc GR
H5C H -0.0623 1.0946 0.3313 0.027 Uiso 1 1 calc GR
C6 C 0.71801(14) 0.58064(12) 0.31847(8) 0.01299(17) Uani 1 1 d .
H6 H 0.6889(18) 0.5405(17) 0.3959(10) 0.011(3) Uiso 1 1 d .
C7 C 0.94037(13) 0.51257(12) 0.26345(7) 0.01247(17) Uani 1 1 d .
C8 C 1.03370(14) 0.55943(13) 0.15346(8) 0.01359(18) Uani 1 1 d .
C9 C 1.25236(14) 0.47915(14) 0.11498(8) 0.01599(18) Uani 1 1 d .
H9 H 1.316(2) 0.513(2) 0.0359(12) 0.026(3) Uiso 1 1 d .
C10 C 1.37831(14) 0.36071(13) 0.18401(8) 0.01609(19) Uani 1 1 d .
H10 H 1.530(2) 0.311(2) 0.1554(12) 0.026(3) Uiso 1 1 d .
C11 C 1.29137(14) 0.31574(13) 0.29479(8) 0.01468(18) Uani 1 1 d .
C12 C 1.07511(13) 0.39143(13) 0.33141(8) 0.01375(18) Uani 1 1 d .
H12 H 1.005(2) 0.3632(18) 0.4106(11) 0.017(3) Uiso 1 1 d .
C13 C 1.42809(15) 0.19260(14) 0.37171(9) 0.0194(2) Uani 1 1 d .
H13A H 1.5284 0.0732 0.3294 0.029 Uiso 1 1 calc GR
H13B H 1.3404 0.1595 0.4397 0.029 Uiso 1 1 calc GR
H13C H 1.5044 0.2650 0.3961 0.029 Uiso 1 1 calc GR
loop_
_atom_site_aniso_label
_atom_site_aniso_U_11
_atom_site_aniso_U_22
_atom_site_aniso_U_33
_atom_site_aniso_U_23
_atom_site_aniso_U_13
_atom_site_aniso_U_12
O1 0.0162(3) 0.0225(3) 0.0138(3) 0.0027(2) -0.0016(2) -0.0061(3)
O2 0.0134(3) 0.0213(3) 0.0156(3) 0.0068(2) -0.0034(2) -0.0049(3)
N1 0.0100(3) 0.0154(3) 0.0148(3) 0.0016(3) -0.0026(3) -0.0031(3)
N2 0.0126(3) 0.0159(3) 0.0139(4) 0.0030(3) -0.0040(3) -0.0048(3)
C1 0.0119(4) 0.0135(4) 0.0141(4) 0.0004(3) -0.0029(3) -0.0039(3)
C2 0.0117(4) 0.0137(4) 0.0126(4) 0.0012(3) -0.0018(3) -0.0045(3)
C3 0.0133(4) 0.0138(4) 0.0148(4) 0.0017(3) -0.0035(3) -0.0055(3)
C4 0.0165(4) 0.0200(4) 0.0177(4) 0.0062(3) -0.0071(3) -0.0065(3)
C5 0.0098(4) 0.0186(4) 0.0217(4) -0.0006(3) -0.0023(3) -0.0021(3)
C6 0.0123(4) 0.0132(4) 0.0131(4) 0.0011(3) -0.0024(3) -0.0046(3)
C7 0.0111(4) 0.0123(4) 0.0138(4) 0.0002(3) -0.0030(3) -0.0040(3)
C8 0.0133(4) 0.0133(4) 0.0143(4) 0.0004(3) -0.0035(3) -0.0048(3)
C9 0.0131(4) 0.0182(4) 0.0158(4) -0.0001(3) -0.0011(3) -0.0060(3)
C10 0.0114(4) 0.0168(4) 0.0190(4) -0.0019(3) -0.0022(3) -0.0043(3)
C11 0.0122(4) 0.0137(4) 0.0179(4) -0.0002(3) -0.0049(3) -0.0036(3)
C12 0.0122(4) 0.0133(4) 0.0153(4) 0.0008(3) -0.0034(3) -0.0040(3)
C13 0.0139(4) 0.0205(4) 0.0224(5) 0.0026(4) -0.0077(3) -0.0029(3)
loop_
_atom_type_symbol
_atom_type_description
_atom_type_scat_dispersion_real
_atom_type_scat_dispersion_imag
_atom_type_scat_source
C C 0.0033 0.0016 'International Tables Vol C Tables 4.2.6.8 and 6.1.1.4'
H H 0.0000 0.0000 'International Tables Vol C Tables 4.2.6.8 and 6.1.1.4'
N N 0.0061 0.0033 'International Tables Vol C Tables 4.2.6.8 and 6.1.1.4'
O O 0.0106 0.0060 'International Tables Vol C Tables 4.2.6.8 and 6.1.1.4'
loop_
_geom_angle_atom_site_label_1
_geom_angle_atom_site_label_2
_geom_angle_atom_site_label_3
_geom_angle
C8 O2 H2 111.5(10)
C1 N1 C5 124.12(8)
C3 N1 C1 108.69(7)
C3 N1 C5 127.19(8)
C3 N2 C2 106.48(7)
O1 C1 N1 125.72(8)
O1 C1 C2 131.11(8)
N1 C1 C2 103.16(7)
N2 C2 C1 108.38(7)
C6 C2 N2 129.05(8)
C6 C2 C1 122.57(8)
N1 C3 C4 120.95(8)
N2 C3 N1 113.28(8)
N2 C3 C4 125.77(8)
C3 C4 H4A 109.5
C3 C4 H4B 109.5
C3 C4 H4C 109.5
H4A C4 H4B 109.5
H4A C4 H4C 109.5
H4B C4 H4C 109.5
N1 C5 H5A 109.5
N1 C5 H5B 109.5
N1 C5 H5C 109.5
H5A C5 H5B 109.5
H5A C5 H5C 109.5
H5B C5 H5C 109.5
C2 C6 H6 113.6(7)
C2 C6 C7 132.51(8)
C7 C6 H6 113.9(7)
C8 C7 C6 127.29(8)
C8 C7 C12 117.76(8)
C12 C7 C6 114.91(8)
O2 C8 C7 125.08(8)
O2 C8 C9 115.83(8)
C9 C8 C7 119.03(8)
C8 C9 H9 117.9(8)
C10 C9 C8 121.32(8)
C10 C9 H9 120.7(8)
C9 C10 H10 119.1(8)
C9 C10 C11 121.13(8)
C11 C10 H10 119.7(8)
C10 C11 C13 121.31(8)
C12 C11 C10 117.39(8)
C12 C11 C13 121.29(8)
C7 C12 H12 116.4(7)
C11 C12 C7 123.33(8)
C11 C12 H12 120.3(7)
C11 C13 H13A 109.5
C11 C13 H13B 109.5
C11 C13 H13C 109.5
H13A C13 H13B 109.5
H13A C13 H13C 109.5
H13B C13 H13C 109.5
loop_
_geom_bond_atom_site_label_1
_geom_bond_atom_site_label_2
_geom_bond_distance
O1 C1 1.2208(11)
O2 H2 0.941(18)
O2 C8 1.3509(11)
N1 C1 1.3883(11)
N1 C3 1.3818(11)
N1 C5 1.4533(11)
N2 C2 1.4073(11)
N2 C3 1.3042(11)
C1 C2 1.4838(12)
C2 C6 1.3541(12)
C3 C4 1.4805(12)
C4 H4A 0.9800
C4 H4B 0.9800
C4 H4C 0.9800
C5 H5A 0.9800
C5 H5B 0.9800
C5 H5C 0.9800
C6 H6 0.956(12)
C6 C7 1.4558(12)
C7 C8 1.4142(12)
C7 C12 1.4180(12)
C8 C9 1.4020(12)
C9 H9 1.008(14)
C9 C10 1.3853(13)
C10 H10 0.975(15)
C10 C11 1.4022(13)
C11 C12 1.3842(12)
C11 C13 1.5066(12)
C12 H12 1.011(13)
C13 H13A 0.9800
C13 H13B 0.9800
C13 H13C 0.9800
loop_
_geom_hbond_atom_site_label_D
_geom_hbond_atom_site_label_H
_geom_hbond_atom_site_label_A
_geom_hbond_distance_DH
_geom_hbond_distance_HA
_geom_hbond_distance_DA
_geom_hbond_angle_DHA
O2 H2 N2 0.941(18) 1.691(18) 2.6261(10) 171.8(16)
loop_
_geom_torsion_atom_site_label_1
_geom_torsion_atom_site_label_2
_geom_torsion_atom_site_label_3
_geom_torsion_atom_site_label_4
_geom_torsion
O1 C1 C2 N2 -179.49(9)
O1 C1 C2 C6 0.48(16)
O2 C8 C9 C10 175.14(8)
N1 C1 C2 N2 -0.34(9)
N1 C1 C2 C6 179.63(8)
N2 C2 C6 C7 2.14(17)
C1 N1 C3 N2 -0.97(11)
C1 N1 C3 C4 178.20(8)
C1 C2 C6 C7 -177.82(9)
C2 N2 C3 N1 0.72(10)
C2 N2 C3 C4 -178.41(8)
C2 C6 C7 C8 3.86(17)
C2 C6 C7 C12 -178.52(9)
C3 N1 C1 O1 179.96(9)
C3 N1 C1 C2 0.74(9)
C3 N2 C2 C1 -0.21(10)
C3 N2 C2 C6 179.82(9)
C5 N1 C1 O1 -0.11(14)
C5 N1 C1 C2 -179.32(8)
C5 N1 C3 N2 179.10(8)
C5 N1 C3 C4 -1.73(14)
C6 C7 C8 O2 2.85(15)
C6 C7 C8 C9 179.93(8)
C6 C7 C12 C11 -178.71(8)
C7 C8 C9 C10 -2.21(14)
C8 C7 C12 C11 -0.85(13)
C8 C9 C10 C11 0.42(14)
C9 C10 C11 C12 1.13(14)
C9 C10 C11 C13 -177.89(8)
C10 C11 C12 C7 -0.90(14)
C12 C7 C8 O2 -174.71(8)
C12 C7 C8 C9 2.37(13)
C13 C11 C12 C7 178.12(8)
