#------------------------------------------------------------------------------
#$Date: 2019-11-23 09:17:12 +0200 (Sat, 23 Nov 2019) $
#$Revision: 232686 $
#$URL: file:///home/coder/svn-repositories/cod/cif/4/34/80/4348041.cif $
#------------------------------------------------------------------------------
#
# This file is available in the Crystallography Open Database (COD),
# http://www.crystallography.net/
#
# All data on this site have been placed in the public domain by the
# contributors.
#
data_4348041
loop_
_publ_author_name
'Axelson, Jordan C.'
'Gonzalez, Miguel I.'
'Meihaus, Katie R.'
'Chang, Christopher J.'
'Long, Jeffrey R.'
_publ_section_title
;
 Synthesis and Characterization of a Tetrapodal NO4(4-) Ligand and Its
 Transition Metal Complexes.
;
_journal_issue                   15
_journal_name_full               'Inorganic chemistry'
_journal_page_first              7527
_journal_page_last               7534
_journal_paper_doi               10.1021/acs.inorgchem.6b00908
_journal_volume                  55
_journal_year                    2016
_chemical_formula_moiety         'C13 H15 K2 N Ni O11'
_chemical_formula_sum            'C13 H15 K2 N Ni O11'
_chemical_formula_weight         498.15
_chemical_name_common            jaa18_0m
_chemical_name_systematic        'K2[(C13H9NO8)Ni(H2O)] 2(H2O)'
_space_group_crystal_system      triclinic
_space_group_IT_number           2
_space_group_name_Hall           '-P 1'
_space_group_name_H-M_alt        'P -1'
_atom_sites_solution_hydrogens   mixed
_audit_creation_method           SHELXL-2014/7
_cell_angle_alpha                82.2410(10)
_cell_angle_beta                 88.3690(10)
_cell_angle_gamma                87.1540(10)
_cell_formula_units_Z            2
_cell_length_a                   7.5800(2)
_cell_length_b                   10.3400(3)
_cell_length_c                   10.7590(3)
_cell_measurement_reflns_used    9127
_cell_measurement_temperature    100(2)
_cell_measurement_theta_max      25.35
_cell_measurement_theta_min      2.69
_cell_volume                     834.31(4)
_computing_cell_refinement       'Bruker APEX2 v. 2011.4'
_computing_data_collection       'Bruker APEX2 v. 2011.4'
_computing_data_reduction        'Bruker APEX2 v. 2011.4'
_computing_molecular_graphics    DIAMOND
_computing_publication_material  WinGX
_computing_structure_refinement  'SHELXL-2014/7 (Sheldrick, 2014)'
_computing_structure_solution    SIR-2004
_diffrn_ambient_temperature      100(2)
_diffrn_detector_area_resol_mean 8.366
_diffrn_measured_fraction_theta_full 0.998
_diffrn_measured_fraction_theta_max 0.996
_diffrn_measurement_device_type  'Bruker APEX-II CCD'
_diffrn_measurement_method       '\f and \w scans'
_diffrn_radiation_type           MoK\a
_diffrn_radiation_wavelength     0.71073
_diffrn_reflns_av_R_equivalents  0.0217
_diffrn_reflns_av_unetI/netI     0.0203
_diffrn_reflns_Laue_measured_fraction_full 0.998
_diffrn_reflns_Laue_measured_fraction_max 0.996
_diffrn_reflns_limit_h_max       9
_diffrn_reflns_limit_h_min       -9
_diffrn_reflns_limit_k_max       12
_diffrn_reflns_limit_k_min       -12
_diffrn_reflns_limit_l_max       12
_diffrn_reflns_limit_l_min       -12
_diffrn_reflns_number            11121
_diffrn_reflns_point_group_measured_fraction_full 0.998
_diffrn_reflns_point_group_measured_fraction_max 0.996
_diffrn_reflns_theta_full        25.000
_diffrn_reflns_theta_max         25.361
_diffrn_reflns_theta_min         1.911
_diffrn_source                   'microfocus sealed tube'
_exptl_absorpt_coefficient_mu    1.727
_exptl_absorpt_correction_T_max  0.8601
_exptl_absorpt_correction_T_min  0.6166
_exptl_absorpt_correction_type   analytical
_exptl_absorpt_process_details   SADABS
_exptl_crystal_colour            purple
_exptl_crystal_density_diffrn    1.967
_exptl_crystal_description       block
_exptl_crystal_F_000             500
_exptl_crystal_size_max          0.310
_exptl_crystal_size_mid          0.110
_exptl_crystal_size_min          0.090
_refine_diff_density_max         0.545
_refine_diff_density_min         -0.762
_refine_diff_density_rms         0.082
_refine_ls_extinction_method     none
_refine_ls_goodness_of_fit_ref   1.089
_refine_ls_hydrogen_treatment    constr
_refine_ls_matrix_type           full
_refine_ls_number_parameters     275
_refine_ls_number_reflns         3043
_refine_ls_number_restraints     0
_refine_ls_restrained_S_all      1.089
_refine_ls_R_factor_all          0.0306
_refine_ls_R_factor_gt           0.0290
_refine_ls_shift/su_max          0.000
_refine_ls_shift/su_mean         0.000
_refine_ls_structure_factor_coef Fsqd
_refine_ls_weighting_details
'w=1/[\s^2^(Fo^2^)+(0.0270P)^2^+2.0735P] where P=(Fo^2^+2Fc^2^)/3'
_refine_ls_weighting_scheme      calc
_refine_ls_wR_factor_gt          0.0745
_refine_ls_wR_factor_ref         0.0754
_reflns_Friedel_coverage         0.000
_reflns_number_gt                2865
_reflns_number_total             3043
_reflns_threshold_expression     'I > 2\s(I)'
_cod_data_source_file            jaa18_0m.cif
_cod_data_source_block           shelx
_cod_database_code               4348041
_shelx_shelxl_version_number     2014/7
_shelx_space_group_comment
;
The symmetry employed for this shelxl refinement is uniquely defined
by the following loop, which should always be used as a source of
symmetry information in preference to the above space-group names.
They are only intended as comments.
;
_shelx_estimated_absorpt_t_min   0.617
_shelx_estimated_absorpt_t_max   0.860
_shelx_res_file
;
 
    shelx.res created by SHELXL-2014/7
 
TITL jaa18_0m in P-1
CELL  0.71073   7.5800  10.3400  10.7590   82.241   88.369   87.154
ZERR     2.00   0.0002   0.0003   0.0003    0.001    0.001    0.001
LATT   1
SFAC  C    H    N    O    K    NI
UNIT  26 22 2 22 4 2
MERG   2
FMAP   2
PLAN   25
SIZE     0.090   0.110   0.310
ACTA    50.00
BOND   $H
LIST   4
WPDB  -2
L.S.   8
TEMP  -173.00
WGHT    0.027000    2.073500
FVAR       0.24742   0.63356   0.71096
C1    1    0.165801    0.310873    0.236265    11.00000    0.00702    0.00893 =
         0.01158    0.00140    0.00070   -0.00105
C2    1    0.495484    0.249941    0.237601    11.00000    0.00883    0.00840 =
         0.00946    0.00346   -0.00200    0.00111
C3    1    0.370120   -0.206230    0.251876    11.00000    0.00818    0.00878 =
         0.01295   -0.00422   -0.00162   -0.00197
C4    1    0.045017   -0.148854    0.226458    11.00000    0.00718    0.01058 =
         0.00914   -0.00352    0.00211    0.00193
C5    1    0.358974    0.376867    0.404378    11.00000    0.01255    0.00806 =
         0.01436   -0.00248   -0.00040   -0.00163
AFIX 137
H5A   2    0.253262    0.390602    0.456421    11.00000   -1.50000
H5B   2    0.383404    0.458198    0.349984    11.00000   -1.50000
H5C   2    0.459938    0.350587    0.458484    11.00000   -1.50000
AFIX   0
C6    1    0.328351    0.269841    0.323850    11.00000    0.00859    0.00656 =
         0.01144   -0.00138   -0.00121   -0.00061
C7    1    0.291061    0.139723    0.404473    11.00000    0.00324    0.00848 =
         0.01054   -0.00068    0.00030    0.00075
C8    1    0.292431    0.123973    0.534976    11.00000    0.00652    0.01084 =
         0.01211   -0.00386   -0.00142    0.00111
AFIX  43
H8    2    0.319463    0.194394    0.578391    11.00000   -1.20000
AFIX   0
C9    1    0.253685    0.003855    0.600152    11.00000    0.01030    0.01416 =
         0.00833   -0.00072   -0.00009    0.00324
AFIX  43
H9    2    0.254595   -0.008730    0.689249    11.00000   -1.20000
AFIX   0
C10   1    0.213487   -0.098417    0.536312    11.00000    0.00805    0.00897 =
         0.01249    0.00152    0.00025    0.00131
AFIX  43
H10   2    0.183772   -0.180517    0.580652    11.00000   -1.20000
AFIX   0
C11   1    0.217686   -0.078027    0.406283    11.00000    0.00293    0.00695 =
         0.01130   -0.00084    0.00003    0.00120
C12   1    0.190395   -0.187757    0.326454    11.00000    0.00813    0.00652 =
         0.01009   -0.00119   -0.00122    0.00000
C13   1    0.145633   -0.314973    0.407714    11.00000    0.01015    0.00745 =
         0.01332    0.00091   -0.00025   -0.00100
AFIX 137
H13A  2    0.241359   -0.342126    0.466280    11.00000   -1.50000
H13B  2    0.131424   -0.382997    0.354049    11.00000   -1.50000
H13C  2    0.035358   -0.301530    0.455018    11.00000   -1.50000
AFIX   0
N1    3    0.256731    0.038918    0.343463    11.00000    0.00340    0.00762 =
         0.00984   -0.00127   -0.00099    0.00047
O1    4    0.130310    0.235886    0.156991    11.00000    0.01030    0.01035 =
         0.01303   -0.00140   -0.00296    0.00064
O2    4    0.491126    0.163909    0.163163    11.00000    0.01013    0.01111 =
         0.01221   -0.00238    0.00055   -0.00253
O3    4    0.402211   -0.116175    0.160992    11.00000    0.01111    0.00960 =
         0.01266   -0.00004    0.00325    0.00020
O4    4    0.050930   -0.039096    0.157441    11.00000    0.00885    0.01013 =
         0.01161    0.00014   -0.00090   -0.00167
O5    4    0.082682    0.414993    0.247993    11.00000    0.01414    0.01118 =
         0.02414   -0.00485   -0.00460    0.00438
O6    4    0.623842    0.316966    0.245771    11.00000    0.00973    0.01308 =
         0.01793   -0.00166   -0.00051   -0.00470
O7    4    0.467853   -0.301701    0.285210    11.00000    0.01208    0.01135 =
         0.03022    0.00344    0.00297    0.00434
O8    4   -0.068148   -0.228814    0.214509    11.00000    0.01307    0.01144 =
         0.02155   -0.00011   -0.00550   -0.00437
O9    4    0.289996    0.086496   -0.038614    11.00000    0.00616    0.01835 =
         0.00987   -0.00032   -0.00024    0.00018
AFIX   3
H9X   2    0.214137    0.130064   -0.076788    11.00000   -1.20000
H9Y   2    0.384377    0.100630   -0.070357    11.00000   -1.20000
AFIX   0
O10   4    0.630103    0.606265    0.042859    11.00000    0.08802    0.06237 =
         0.06174    0.00702    0.00776    0.00836
O11   4   -0.263029    0.413880   -0.058203    31.00000    0.03576    0.04969 =
         0.08412    0.04509    0.01495    0.01377
O11A  4   -0.111075    0.427280   -0.020754   -31.00000    0.02693    0.02122 =
         0.02654    0.00510   -0.00204    0.00163
K1    5   -0.177842    0.170508    0.058718    11.00000    0.01156    0.01451 =
         0.01288   -0.00176   -0.00014   -0.00050
K2    5    0.763020    0.544052    0.272687    21.00000    0.01100    0.00956 =
         0.02432   -0.00229    0.00029   -0.00075
K2A   5    0.764471    0.546808    0.193151   -21.00000    0.01679    0.01390 =
         0.03994   -0.00295   -0.00345   -0.00375
NI1   6    0.271575    0.063994    0.154851    11.00000    0.00620    0.00609 =
         0.00648   -0.00041   -0.00042   -0.00100
HKLF    4
 
REM  jaa18_0m in P-1
REM R1 =  0.0290 for    2865 Fo > 4sig(Fo)  and  0.0306 for all    3043 data
REM    275 parameters refined using      0 restraints
 
END
 
WGHT      0.0272      2.0701
 
REM Highest difference peak  0.545,  deepest hole -0.762,  1-sigma level  0.082
Q1    1  -0.2546  0.4605 -0.0168  11.00000  0.05    0.55
Q2    1  -0.2791  0.3747 -0.0672  11.00000  0.05    0.45
Q3    1  -0.2150  0.4340 -0.1257  11.00000  0.05    0.44
Q4    1   0.0879  0.4325 -0.0718  11.00000  0.05    0.44
Q5    1   0.2527  0.2860  0.2874  11.00000  0.05    0.42
Q6    1   0.2073 -0.1346  0.3677  11.00000  0.05    0.40
Q7    1   0.1233 -0.1642  0.2871  11.00000  0.05    0.39
Q8    1   0.2686 -0.1946  0.2929  11.00000  0.05    0.38
Q9    1   0.4051  0.2610  0.2859  11.00000  0.05    0.36
Q10   1   0.3054  0.2100  0.3637  11.00000  0.05    0.35
Q11   1   0.4654  0.6253  0.0395  11.00000  0.05    0.33
Q12   1   0.2614  0.0871  0.3757  11.00000  0.05    0.32
Q13   1  -0.1903  0.2765  0.0304  11.00000  0.05    0.32
Q14   1   0.3363  0.3221  0.3633  11.00000  0.05    0.31
Q15   1   0.1755 -0.2483  0.3687  11.00000  0.05    0.31
Q16   1   0.1934 -0.0390  0.5634  11.00000  0.05    0.30
Q17   1   0.2732  0.1335  0.4634  11.00000  0.05    0.29
Q18   1  -0.0045  0.0003  0.1001  11.00000  0.05    0.28
Q19   1   0.2322 -0.0217  0.3758  11.00000  0.05    0.27
Q20   1   0.2417  0.0705  0.5626  11.00000  0.05    0.27
Q21   1  -0.0271  0.4359  0.0222  11.00000  0.05    0.26
Q22   1   0.6811  0.7025 -0.0098  11.00000  0.05    0.26
Q23   1   0.5609  0.1418  0.1280  11.00000  0.05    0.26
Q24   1   0.2658 -0.0639  0.5565  11.00000  0.05    0.25
Q25   1   0.7696  0.5405  0.0228  11.00000  0.05    0.24
;
_shelx_res_checksum              7170
_shelx_hkl_file
;
   1   0   0    2.36    0.15
   1   0   0    2.30    0.17
  -2   0   0  944.54   21.85
  -2   0   0  927.49   23.30
   2   0   0  917.41   21.78
   2   0   0  966.53   23.28
   2   0   0  967.20   21.39
  -3   0   0    6.57    0.43
  -3   0   0    6.99    0.52
   3   0   0    6.04    0.26
   3   0   0    7.61    0.45
   3   0   0    6.43    0.41
  -4   0   0  183.36    4.73
  -4   0   0  180.87    5.17
   4   0   0  179.89    4.61
   4   0   0  186.28    4.21
   4   0   0  186.30    4.76
   4   0   0  183.05    4.10
  -5   0   0   18.23    0.94
  -5   0   0   18.66    1.14
   5   0   0   18.90    0.92
   5   0   0   18.91    0.62
   5   0   0   20.29    1.00
   5   0   0   19.71    0.74
  -6   0   0   32.27    1.46
   6   0   0   38.11    1.51
   6   0   0   38.02    1.59
   6   0   0   35.70    1.00
   6   0   0   33.77    1.16
  -7   0   0    0.54    0.29
   7   0   0    0.69    0.20
   7   0   0    0.59    0.27
   8   0   0   14.10    1.02
   9   0   0  102.44    3.50
   9  -1   0   57.84    2.49
   8  -1   0    2.92    0.55
  -8   1   0    3.79    0.62
   7  -1   0    8.74    0.59
   7  -1   0    9.94    0.83
  -7   1   0    8.97    0.82
   6  -1   0  116.36    3.02
   6  -1   0  113.22    3.44
  -6   1   0  116.93    3.57
   5  -1   0    0.34    0.15
   5  -1   0    0.26    0.19
   5  -1   0    0.03    0.15
  -5   1   0    0.19    0.19
   4  -1   0  746.65   16.26
   4  -1   0  759.79   17.68
  -4   1   0  748.58   17.63
   3  -1   0    3.28    0.33
   3  -1   0    2.87    0.25
  -3   1   0    2.96    0.33
   2  -1   0  290.68    6.61
   2  -1   0  312.12    7.62
   2  -1   0  303.89    7.20
  -2   1   0  300.82    7.18
   1  -1   0   17.81    0.55
   1  -1   0   18.69    0.49
   1  -1   0   19.05    0.63
   1  -1   0   18.68    0.49
  -1   1   0   19.07    0.64
  -1   1   0   17.92    0.55
   0  -1   0  456.22   10.95
   0  -1   0  465.02    9.95
   0   1   0  454.57   10.66
   0   1   0  459.81   11.00
  -1  -1   0   16.05    0.59
  -1  -1   0   17.10    0.47
   1   1   0   16.95    0.47
   1   1   0   16.79    0.59
  -2  -1   0  102.59    2.85
  -2  -1   0  101.71    2.50
   2   1   0  104.31    2.49
   2   1   0  103.82    2.85
   2   1   0  101.14    2.55
  -3  -1   0  106.69    3.19
  -3  -1   0  111.19    2.83
   3   1   0  106.41    2.84
   3   1   0  111.83    2.78
  -4  -1   0    9.19    0.55
   4   1   0   10.04    0.58
   4   1   0    9.11    0.53
  -5  -1   0   98.14    3.30
   5   1   0   99.41    2.44
   5   1   0   97.37    2.89
   5   1   0   97.52    2.78
   5   1   0   97.23    2.40
  -6  -1   0   43.50    2.05
   6   1   0   45.41    1.65
   6   1   0   44.05    1.31
   6   1   0   43.93    1.72
   6   1   0   44.81    1.30
   7   1   0  142.77    3.45
   7   1   0  143.95    4.05
   7   1   0  139.42    3.44
   8   1   0    5.89    0.65
   9   1   0  103.68    3.45
   8  -2   0   95.56    3.42
  -8   2   0  102.88    3.57
   7  -2   0    1.81    0.34
   7  -2   0    1.00    0.38
  -7   2   0    1.41    0.45
   6  -2   0  928.81   21.38
   6  -2   0  915.85   20.02
  -6   2   0  902.85   21.79
   5  -2   0   19.06    1.06
   5  -2   0   16.00    0.78
  -5   2   0   16.89    1.00
   4  -2   0  838.73   19.10
   4  -2   0  798.21   17.60
  -4   2   0  794.04   19.05
   3  -2   0    0.49    0.16
   2  -2   0 1000.00   22.94
   2  -2   0  963.50   20.95
   2  -2   0  961.13   22.97
   2  -2   0  995.01   22.36
  -2   2   0  963.32   20.69
  -2   2   0  937.48   22.32
   1  -2   0    8.24    0.35
   1  -2   0    8.74    0.45
   1  -2   0    8.29    0.39
   1  -2   0    9.04    0.36
  -1   2   0    9.10    0.34
  -1   2   0    8.79    0.45
  -1   2   0    8.43    0.33
   0  -2   0    1.32    0.14
   0  -2   0    1.55    0.16
   0   2   0    1.61    0.17
   0   2   0    1.44    0.14
   0   2   0    1.36    0.15
  -1  -2   0   18.63    0.55
  -1  -2   0   18.20    0.67
  -1  -2   0   19.83    0.55
  -1  -2   0   19.09    0.56
   1   2   0   18.50    0.59
   1   2   0   17.88    0.53
   1   2   0   19.74    0.59
  -2  -2   0  106.57    2.58
  -2  -2   0  106.48    3.00
   2   2   0  107.31    2.57
   2   2   0  108.22    2.65
   2   2   0  108.31    2.98
  -3  -2   0  496.87   11.25
  -3  -2   0  482.98   12.43
   3   2   0  495.47   11.22
   3   2   0  499.55   11.48
  -4  -2   0   24.74    1.22
   4   2   0   24.75    0.91
   4   2   0   24.71    0.96
  -5  -2   0   80.14    2.80
   5   2   0   74.96    2.21
   5   2   0   75.75    2.07
   5   2   0   74.86    2.32
  -6  -2   0    0.59    0.33
   6   2   0    0.75    0.24
   6   2   0    0.59    0.14
   6   2   0    0.41    0.16
   6   2   0    0.42    0.23
  -7  -2   0   54.92    2.59
   7   2   0   56.95    2.15
   7   2   0   61.95    2.08
   7   2   0   59.13    1.76
   8   2   0    1.23    0.34
   8  -3   0   55.76    1.66
   8  -3   0   55.11    2.41
  -8   3   0   54.32    2.48
   7  -3   0    5.35    0.54
   7  -3   0    5.84    0.36
   7  -3   0    6.27    0.74
  -7   3   0    6.32    0.77
   6  -3   0   90.70    2.35
   6  -3   0   88.50    2.63
   6  -3   0   86.30    2.98
   6  -3   0   89.61    2.36
  -6   3   0   92.15    3.12
   5  -3   0    6.75    0.53
   5  -3   0    6.63    0.34
   5  -3   0    6.43    0.33
  -5   3   0    6.71    0.67
   4  -3   0   22.65    0.96
   4  -3   0   22.79    0.76
   4  -3   0   24.51    1.18
   4  -3   0   23.13    0.76
  -4   3   0   22.99    1.15
   3  -3   0   47.09    1.35
   3  -3   0   48.29    1.36
   3  -3   0   45.17    1.67
   3  -3   0   47.52    1.48
   2  -3   0   84.62    2.22
   2  -3   0   79.83    2.18
   2  -3   0   84.00    2.21
   2  -3   0   83.31    2.43
  -2   3   0   79.26    2.19
  -2   3   0   84.63    2.07
  -2   3   0   85.83    2.45
   1  -3   0  160.96    4.03
   1  -3   0  161.47    4.07
   1  -3   0  162.25    4.04
  -1   3   0  158.84    4.08
  -1   3   0  159.47    3.77
  -1   3   0  158.79    3.99
  -1   3   0  162.85    3.99
   0  -3   0   23.76    0.78
   0  -3   0   22.53    0.77
   0   3   0   22.04    0.77
   0   3   0   22.12    0.74
   0   3   0   22.22    0.80
  -1  -3   0  430.57    9.38
  -1  -3   0  442.77   10.30
  -1  -3   0  437.42   10.30
   1   3   0  436.78   10.33
   1   3   0  423.26   10.33
   1   3   0  427.16    9.37
  -2  -3   0  197.87    4.41
  -2  -3   0  184.62    4.54
  -2  -3   0  182.93    4.97
  -2  -3   0  185.86    4.53
   2   3   0  186.49    4.60
   2   3   0  185.67    4.17
   2   3   0  189.63    4.59
   2   3   0  189.81    4.37
  -3  -3   0  619.15   15.54
  -3  -3   0  645.69   14.06
   3   3   0  617.19   14.59
   3   3   0  610.40   13.27
   3   3   0  617.18   14.02
   3   3   0  618.10   14.62
  -4  -3   0   32.43    1.49
  -4  -3   0   36.77    1.16
   4   3   0   35.47    1.12
   4   3   0   34.08    1.18
  -5  -3   0  143.15    4.50
   5   3   0  145.54    3.84
   5   3   0  141.82    3.68
  -6  -3   0    7.21    0.82
   6   3   0    7.26    0.58
   6   3   0    7.47    0.53
   6   3   0    7.23    0.53
  -7  -3   0   82.31    3.34
   7   3   0   84.23    2.56
   7   3   0   82.09    2.40
   7   3   0   83.61    2.73
  -8  -3   0    0.38    0.39
   8  -4   0  157.72    5.09
   8  -4   0  163.09    4.71
   8  -4   0  162.86    4.32
   7  -4   0    0.18    0.28
   7  -4   0    0.14    0.22
   7  -4   0    0.04    0.12
  -7   4   0    0.41    0.37
   6  -4   0   61.76    2.12
   6  -4   0   62.60    1.88
  -6   4   0   64.92    2.55
   5  -4   0   14.81    0.69
   5  -4   0   17.01    0.71
   5  -4   0   15.93    0.88
  -5   4   0   18.29    1.14
   4  -4   0   20.72    0.82
   4  -4   0   19.42    0.94
   4  -4   0   21.08    0.82
   4  -4   0   22.35    1.18
  -4   4   0   22.43    1.18
   3  -4   0  290.66    6.89
   3  -4   0  273.35    6.86
   3  -4   0  287.01    7.14
   3  -4   0  272.30    6.51
  -3   4   0  270.78    7.11
  -3   4   0  275.05    6.07
   2  -4   0    3.71    0.36
   2  -4   0    3.67    0.41
   2  -4   0    3.82    0.31
   2  -4   0    3.85    0.31
  -2   4   0    3.87    0.26
  -2   4   0    3.33    0.35
  -2   4   0    3.70    0.25
  -2   4   0    3.42    0.41
   1  -4   0  222.93    5.67
   1  -4   0  232.27    5.70
   1  -4   0  228.57    5.70
   1  -4   0  227.82    5.28
  -1   4   0  227.31    5.63
  -1   4   0  223.92    5.69
  -1   4   0  231.48    5.30
  -1   4   0  224.62    5.64
   0  -4   0   35.58    1.15
   0  -4   0   34.14    1.08
   0   4   0   33.53    1.13
   0   4   0   34.30    1.16
   0   4   0   32.78    1.08
   0   4   0   34.23    1.13
  -1  -4   0   21.23    0.77
  -1  -4   0   22.23    0.75
  -1  -4   0   21.47    0.78
   1   4   0   20.42    0.80
   1   4   0   20.97    0.75
   1   4   0   21.99    0.81
  -2  -4   0   18.07    0.85
  -2  -4   0   19.05    0.66
  -2  -4   0   18.88    0.60
   2   4   0   18.58    0.71
   2   4   0   16.79    0.70
   2   4   0   18.42    0.65
  -3  -4   0  161.78    3.82
  -3  -4   0  147.49    4.42
   3   4   0  166.92    3.97
   3   4   0  155.54    3.97
   3   4   0  154.67    3.75
   3   4   0  152.57    3.56
  -4  -4   0    0.49    0.15
  -4  -4   0    0.68    0.27
   4   4   0    0.32    0.10
   4   4   0    0.39    0.15
   4   4   0    0.18    0.09
   4   4   0    0.28    0.09
   4   4   0    0.85    0.18
  -5  -4   0    0.16    0.24
  -5  -4   0    0.35    0.16
   5   4   0    0.36    0.09
   5   4   0    0.60    0.14
   5   4   0    0.54    0.19
   5   4   0    0.31    0.09
   5   4   0    0.66    0.18
  -6  -4   0   20.52    1.39
   6   4   0   21.40    1.01
   6   4   0   21.83    1.03
   6   4   0   22.15    0.93
  -7  -4   0   13.43    1.22
   7   4   0   14.97    0.79
   7   4   0   12.86    0.80
  -8  -4   0   46.35    2.52
   8  -5   0    6.88    0.57
   8  -5   0    6.46    0.89
   7  -5   0   78.31    2.42
   7  -5   0   78.25    2.65
   7  -5   0   77.99    3.02
  -7   5   0   76.39    3.10
   6  -5   0   -0.06    0.11
   6  -5   0    0.07    0.19
  -6   5   0    0.38    0.35
   5  -5   0   54.27    1.96
   5  -5   0   53.44    1.79
   5  -5   0   57.79    1.84
  -5   5   0   57.51    2.31
   4  -5   0   26.59    1.07
   4  -5   0   27.34    1.21
   4  -5   0   27.40    1.08
  -4   5   0   29.76    1.47
  -4   5   0   27.51    0.73
   3  -5   0  127.35    3.56
   3  -5   0  136.60    3.90
   3  -5   0  131.51    3.51
   3  -5   0  135.48    3.60
  -3   5   0  132.17    3.21
  -3   5   0  126.97    3.86
  -3   5   0  131.32    3.08
   2  -5   0   81.95    2.57
   2  -5   0   80.02    2.36
   2  -5   0   82.00    2.38
   2  -5   0   77.40    2.30
  -2   5   0   79.81    2.33
  -2   5   0   81.28    2.23
  -2   5   0   78.83    2.54
  -2   5   0   83.32    2.25
   1  -5   0  872.67   20.95
   1  -5   0  853.37   19.12
   1  -5   0  900.34   20.97
   1  -5   0  879.84   20.49
  -1   5   0  871.29   20.89
  -1   5   0  903.76   20.90
  -1   5   0  881.57   20.52
  -1   5   0  870.85   19.14
   0  -5   0    5.09    0.39
   0  -5   0    4.50    0.38
   0  -5   0    4.75    0.38
   0   5   0    6.00    0.43
   0   5   0    4.99    0.39
   0   5   0    5.27    0.44
  -1  -5   0  184.67    4.80
  -1  -5   0  180.33    4.42
  -1  -5   0  192.95    4.83
   1   5   0  196.51    4.88
   1   5   0  193.62    4.46
   1   5   0  188.93    4.74
   1   5   0  183.20    4.86
  -2  -5   0    1.27    0.18
  -2  -5   0    1.18    0.26
  -2  -5   0    1.24    0.19
  -2  -5   0    1.14    0.16
   2   5   0    1.20    0.20
   2   5   0    1.02    0.21
   2   5   0    1.14    0.21
  -3  -5   0   40.41    1.63
  -3  -5   0   41.73    1.26
   3   5   0   41.11    1.36
   3   5   0   41.19    1.35
   3   5   0   40.05    1.19
  -4  -5   0   18.23    0.75
  -4  -5   0   19.15    1.12
   4   5   0   18.85    0.79
   4   5   0   18.92    0.77
   4   5   0   18.38    0.66
  -5  -5   0   21.14    0.89
  -5  -5   0   20.82    1.30
   5   5   0   22.02    0.71
   5   5   0   23.64    0.87
   5   5   0   22.65    0.85
   5   5   0   22.05    0.87
   5   5   0   22.23    0.94
  -6  -5   0   13.77    1.15
   6   5   0   13.53    0.84
   6   5   0   13.52    0.79
   6   5   0   13.46    0.64
   6   5   0   14.27    0.69
  -7  -5   0   -0.11    0.30
   7   5   0    0.10    0.19
   7   5   0    0.20    0.13
  -8  -5   0   26.02    1.84
   8   5   0   24.92    0.98
   7  -6   0   19.53    1.03
   6  -6   0   20.08    1.03
   6  -6   0   21.95    1.23
  -6   6   0   24.39    1.55
   5  -6   0   88.97    2.74
   5  -6   0   90.54    2.85
  -5   6   0   87.86    3.23
   4  -6   0    6.52    0.53
   4  -6   0    7.01    0.56
   4  -6   0    6.58    0.62
  -4   6   0    8.75    0.83
  -4   6   0    7.54    0.36
   3  -6   0   15.56    0.82
   3  -6   0   15.79    0.89
   3  -6   0   15.96    0.83
  -3   6   0   16.01    0.64
  -3   6   0   14.16    0.99
   2  -6   0    2.63    0.43
   2  -6   0    3.17    0.39
   2  -6   0    3.72    0.39
  -2   6   0    3.87    0.43
  -2   6   0    3.30    0.32
  -2   6   0    3.67    0.48
   1  -6   0    3.68    0.39
   1  -6   0    3.63    0.38
  -1   6   0    3.01    0.33
  -1   6   0    3.81    0.40
  -1   6   0    3.22    0.43
   0  -6   0   40.77    1.44
   0  -6   0   42.14    1.41
   0   6   0   41.30    1.41
   0   6   0   38.26    1.42
   0   6   0   40.69    1.49
  -1  -6   0    5.56    0.42
  -1  -6   0    5.02    0.41
   1   6   0    4.91    0.41
   1   6   0    5.25    0.45
   1   6   0    5.15    0.43
   1   6   0    4.94    0.43
  -2  -6   0  103.84    2.69
  -2  -6   0  106.24    2.82
  -2  -6   0  102.88    2.72
  -2  -6   0  103.63    3.13
   2   6   0  112.68    3.02
   2   6   0   97.33    2.96
   2   6   0  102.58    2.70
  -3  -6   0  142.47    3.72
  -3  -6   0  150.15    3.69
  -3  -6   0  137.32    3.71
  -3  -6   0  148.98    4.34
   3   6   0  154.39    3.98
   3   6   0  145.96    3.55
   3   6   0  145.66    3.97
  -4  -6   0   52.99    1.59
  -4  -6   0   51.00    2.10
   4   6   0   51.97    1.71
   4   6   0   50.35    1.71
   4   6   0   52.30    1.48
  -5  -6   0   41.21    1.97
   5   6   0   41.25    1.20
   5   6   0   43.31    1.45
   5   6   0   42.37    1.49
  -6  -6   0  169.10    5.51
   6   6   0  170.24    4.59
   6   6   0  170.58    4.36
   6   6   0  173.01    4.57
  -7  -6   0    1.46    0.56
   7   6   0    1.89    0.42
   7   6   0    1.49    0.30
  -8  -6   0   42.21    2.44
   8   6   0   40.94    1.53
   7  -7   0  105.47    3.36
   6  -7   0    5.47    0.58
   5  -7   0   93.78    3.00
   5  -7   0   99.25    3.11
  -5   7   0   94.56    3.50
   4  -7   0   13.25    0.91
   4  -7   0   10.59    0.75
  -4   7   0   11.89    0.54
  -4   7   0   12.59    1.05
   3  -7   0  221.74    5.58
   3  -7   0  209.50    5.81
  -3   7   0  212.93    5.10
  -3   7   0  216.46    6.10
  -3   7   0  226.36    5.50
   2  -7   0    7.42    0.63
   2  -7   0    8.08    0.62
  -2   7   0    6.74    0.48
  -2   7   0    8.47    0.55
  -2   7   0    7.46    0.64
  -2   7   0    8.86    0.76
   1  -7   0    2.13    0.33
   1  -7   0    1.45    0.32
  -1   7   0    1.90    0.39
  -1   7   0    2.03    0.31
  -1   7   0    2.66    0.39
   0  -7   0    1.25    0.27
   0  -7   0    1.51    0.31
   0   7   0    1.27    0.31
   0   7   0    0.92    0.26
   0   7   0    1.11    0.27
  -1  -7   0    3.45    0.38
  -1  -7   0    2.52    0.33
   1   7   0    2.61    0.37
   1   7   0    2.46    0.36
   1   7   0    2.19    0.32
  -2  -7   0  102.89    2.78
  -2  -7   0  105.38    3.20
  -2  -7   0  101.90    2.88
   2   7   0  108.76    2.99
   2   7   0  105.81    2.82
   2   7   0   98.50    3.06
  -3  -7   0   34.21    1.21
  -3  -7   0   36.04    1.06
  -3  -7   0   40.37    1.13
  -3  -7   0   35.91    1.61
   3   7   0   37.22    1.45
   3   7   0   36.11    1.51
   3   7   0   36.43    1.26
  -4  -7   0    1.12    0.39
   4   7   0    1.52    0.31
   4   7   0    1.58    0.30
   4   7   0    1.20    0.25
  -5  -7   0   35.46    1.84
   5   7   0   35.88    1.44
  -6  -7   0   23.33    1.58
   6   7   0   26.02    1.32
   6   7   0   25.11    1.16
  -7  -7   0   27.10    1.82
   7   7   0   25.89    1.21
   6  -8   0    4.46    0.59
   5  -8   0   12.18    0.89
  -5   8   0   14.68    1.23
   4  -8   0   27.06    1.42
   4  -8   0   28.35    1.36
  -4   8   0   28.83    1.68
   3  -8   0   27.75    1.36
   3  -8   0   25.11    1.27
  -3   8   0   25.69    1.49
  -3   8   0   26.72    1.05
  -3   8   0   27.48    1.07
   2  -8   0   20.53    1.09
   2  -8   0   20.38    1.11
  -2   8   0   21.00    0.94
  -2   8   0   20.94    0.99
  -2   8   0   20.22    1.24
   1  -8   0   28.93    1.31
   1  -8   0   29.05    1.31
  -1   8   0   29.12    1.43
  -1   8   0   27.89    1.24
   0  -8   0  174.31    4.58
   0  -8   0  177.91    4.88
   0   8   0  181.07    4.91
   0   8   0  174.38    4.60
   0   8   0  176.70    4.92
  -1  -8   0    4.27    0.45
  -1  -8   0    3.67    0.44
   1   8   0    2.90    0.42
   1   8   0    3.35    0.46
   1   8   0    3.23    0.41
  -2  -8   0  280.65    7.10
  -2  -8   0  285.50    7.57
  -2  -8   0  276.00    6.64
   2   8   0  279.03    6.68
   2   8   0  283.54    7.12
   2   8   0  278.30    7.37
  -3  -8   0    5.04    0.41
  -3  -8   0    4.53    0.58
   3   8   0    5.16    0.49
   3   8   0    4.57    0.45
   3   8   0    4.92    0.53
  -4  -8   0   52.78    2.25
   4   8   0   53.52    1.68
   4   8   0   51.85    1.95
  -5  -8   0    4.82    0.74
   5   8   0    3.84    0.55
   5   8   0    3.36    0.47
  -6  -8   0    7.53    0.93
   6   8   0    8.81    0.72
  -7  -8   0   -0.06    0.37
   7   8   0    0.16    0.20
   5  -9   0    0.82    0.33
   4  -9   0   70.82    2.63
  -4   9   0   72.54    3.02
   3  -9   0    4.26    0.60
   3  -9   0    5.01    0.60
  -3   9   0    4.34    0.45
  -3   9   0    4.01    0.70
   2  -9   0    6.46    0.68
   2  -9   0    6.57    0.65
  -2   9   0    7.48    0.59
  -2   9   0    6.47    0.57
  -2   9   0    5.70    0.75
   1  -9   0   31.92    1.45
   1  -9   0   29.25    1.42
  -1   9   0   32.03    1.33
  -1   9   0   32.55    1.60
  -1   9   0   30.52    1.37
   0  -9   0   24.27    1.20
   0  -9   0   21.81    1.15
   0   9   0   24.15    1.21
   0   9   0   23.43    1.29
  -1  -9   0   14.63    0.89
  -1  -9   0   14.18    0.86
   1   9   0   13.91    0.92
   1   9   0   14.58    0.94
  -2  -9   0   11.87    0.71
  -2  -9   0   11.73    0.86
  -2  -9   0   10.56    0.74
   2   9   0   11.66    0.84
   2   9   0   13.44    0.82
   2   9   0   11.98    0.82
  -3  -9   0    3.06    0.53
  -3  -9   0    1.56    0.30
   3   9   0    2.04    0.40
   3   9   0    3.35    0.49
   3   9   0    2.43    0.39
  -4  -9   0    1.85    0.51
   4   9   0    1.73    0.40
  -5  -9   0   29.81    1.76
   5   9   0   28.28    1.41
  -6  -9   0   37.05    2.10
   6   9   0   34.03    1.61
   5 -10   0    0.36    0.33
   4 -10   0  126.39    4.10
   3 -10   0    1.08    0.38
  -3  10   0    1.24    0.53
   2 -10   0  141.44    4.44
  -2  10   0  150.81    4.00
  -2  10   0  144.60    4.68
   1 -10   0   17.26    1.10
   1 -10   0   15.98    1.03
  -1  10   0   16.76    0.98
  -1  10   0   18.18    1.21
  -1  10   0   15.27    0.98
   0 -10   0   28.97    1.42
   0 -10   0   31.11    1.48
   0  10   0   28.52    1.42
   0  10   0   32.05    1.44
   0  10   0   29.79    1.55
  -1 -10   0    0.75    0.30
  -1 -10   0    0.71    0.27
   1  10   0    0.92    0.37
   1  10   0    0.59    0.28
  -2 -10   0   20.07    1.18
   2  10   0   19.19    1.12
   2  10   0   19.23    1.17
  -3 -10   0    5.58    0.72
   3  10   0    5.17    0.63
  -4 -10   0   10.78    1.01
   4  10   0    9.24    0.83
  -5 -10   0   46.17    2.31
   5  10   0   43.44    1.96
   3 -11   0    5.12    0.70
   2 -11   0    3.54    0.59
  -2  11   0    3.93    0.55
  -2  11   0    3.17    0.69
   1 -11   0   25.04    1.39
  -1  11   0   24.22    1.28
  -1  11   0   22.49    1.48
  -1  11   0   22.51    1.28
   0 -11   0    0.25    0.24
   0  11   0    0.00    0.20
   0  11   0    0.77    0.38
  -1 -11   0    4.31    0.59
   1  11   0    4.45    0.66
   1  11   0    4.70    0.64
  -2 -11   0   75.21    2.77
   2  11   0   70.23    2.71
  -3 -11   0   30.46    1.66
   3  11   0   27.79    1.54
  -4 -11   0   41.99    2.11
   4  11   0   39.35    1.91
   1 -12   0   17.31    1.21
  -1  12   0   17.96    1.55
   0  12   0    0.50    0.38
   0  12   0    0.26    0.28
   1  12   0   58.39    2.43
   2  12   0    3.04    0.62
   1  12  -1   26.28    1.54
   0  12  -1    1.36    0.45
   0  12  -1    1.17    0.48
   1 -12   1   10.60    0.98
   4  11  -1    0.18    0.27
  -4 -11   1    0.08    0.41
   3  11  -1    0.28    0.28
  -3 -11   1    0.29    0.37
  -3 -11   1    0.24    0.20
   2  11  -1   21.37    1.32
   2  11  -1   22.29    1.35
  -2 -11   1   23.08    1.23
  -2 -11   1   20.79    1.35
   1  11  -1    0.07    0.23
   1  11  -1    0.92    0.43
  -1 -11   1   -0.13    0.22
   0  11  -1   72.30    2.87
   0  11  -1   70.88    2.67
   0 -11   1   71.61    2.62
  -1  11  -1   46.78    1.97
  -1  11  -1   46.40    2.23
  -1  11  -1   47.94    1.91
   1 -11   1   43.93    1.98
  -2  11  -1   57.72    2.08
   2 -11   1   53.70    2.32
   3 -11   1    5.69    0.74
   5  10  -1   40.98    1.90
  -5 -10   1   45.26    2.33
   4  10  -1   24.26    1.37
  -4 -10   1   27.68    1.68
   3  10  -1    6.72    0.71
   3  10  -1    6.51    0.70
  -3 -10   1    6.36    0.53
  -3 -10   1    7.87    0.85
   2  10  -1    0.95    0.34
   2  10  -1    0.90    0.37
  -2 -10   1    0.66    0.27
   1  10  -1    2.51    0.48
   1  10  -1    2.88    0.52
   1  10  -1    3.80    0.56
  -1 -10   1    3.75    0.55
  -1 -10   1    3.30    0.47
   0  10  -1   68.25    2.54
   0  10  -1   72.80    2.45
   0  10  -1   71.38    2.72
   0 -10   1   69.32    2.51
   0 -10   1   72.69    2.50
  -1  10  -1    5.31    0.60
  -1  10  -1    4.78    0.57
  -1  10  -1    3.52    0.65
   1 -10   1    4.23    0.62
   1 -10   1    4.82    0.61
  -2  10  -1   17.84    1.33
  -2  10  -1   21.79    1.10
   2 -10   1   20.71    1.23
  -3  10  -1    7.86    0.97
   3 -10   1    8.84    0.83
   4 -10   1    7.07    0.80
   6   9  -1   12.09    0.92
  -6  -9   1   12.15    1.23
   5   9  -1   47.36    1.96
  -5  -9   1   46.72    2.33
   4   9  -1   64.63    2.39
  -4  -9   1   63.90    2.71
   3   9  -1   12.67    0.89
   3   9  -1   11.75    0.85
   3   9  -1   12.18    0.91
  -3  -9   1   11.64    0.97
  -3  -9   1   11.59    0.67
   2   9  -1   45.37    1.85
   2   9  -1   48.45    1.87
   2   9  -1   46.64    1.87
  -2  -9   1   46.09    1.68
  -2  -9   1   45.30    1.63
   1   9  -1   61.76    2.17
   1   9  -1   60.82    2.29
   1   9  -1   59.23    2.24
  -1  -9   1   61.86    2.10
  -1  -9   1   63.48    2.15
   0   9  -1   86.20    3.01
   0   9  -1   86.53    2.89
   0   9  -1   88.86    2.73
   0  -9   1   88.89    2.87
   0  -9   1   89.79    2.79
  -1   9  -1    3.80    0.48
  -1   9  -1    4.22    0.51
  -1   9  -1    5.73    0.70
   1  -9   1    4.12    0.53
   1  -9   1    4.03    0.54
  -2   9  -1   56.40    2.02
  -2   9  -1   56.84    1.90
  -2   9  -1   56.83    2.40
   2  -9   1   56.07    2.17
   2  -9   1   56.11    2.16
  -3   9  -1   17.73    1.32
  -3   9  -1   19.29    0.93
   3  -9   1   19.71    1.18
   3  -9   1   17.13    1.15
  -4   9  -1    3.80    0.74
   4  -9   1    3.36    0.54
   5  -9   1   24.57    1.39
   7   8  -1   10.45    0.81
  -7  -8   1   12.47    1.31
   6   8  -1   18.85    1.06
  -6  -8   1   18.99    1.49
   5   8  -1    0.86    0.32
   5   8  -1    0.96    0.30
  -5  -8   1    0.78    0.40
   4   8  -1   33.32    1.47
   4   8  -1   35.90    1.57
  -4  -8   1   33.12    1.76
   3   8  -1    7.58    0.65
   3   8  -1    7.29    0.66
   3   8  -1    7.55    0.55
  -3  -8   1    7.50    0.76
  -3  -8   1    7.77    0.49
   2   8  -1   23.85    1.19
   2   8  -1   23.40    1.06
   2   8  -1   26.03    1.22
   2   8  -1   22.25    1.15
  -2  -8   1   24.08    1.00
  -2  -8   1   23.43    1.04
   1   8  -1    7.25    0.63
   1   8  -1    7.25    0.66
   1   8  -1    9.90    0.68
   1   8  -1    7.71    0.64
  -1  -8   1    8.22    0.60
  -1  -8   1    9.06    0.64
   0   8  -1    0.67    0.25
   0   8  -1    0.44    0.21
   0   8  -1    0.47    0.26
   0  -8   1    0.59    0.23
   0  -8   1    0.41    0.22
  -1   8  -1   13.70    0.78
  -1   8  -1   12.72    0.94
  -1   8  -1   13.49    0.82
   1  -8   1   10.47    0.78
   1  -8   1   13.29    0.84
  -2   8  -1    0.21    0.24
  -2   8  -1    0.39    0.19
  -2   8  -1    0.24    0.18
   2  -8   1    0.17    0.21
   2  -8   1    0.46    0.23
  -3   8  -1   15.03    0.78
  -3   8  -1   13.99    1.12
  -3   8  -1   16.28    0.78
   3  -8   1   15.59    1.02
   3  -8   1   15.27    0.95
  -4   8  -1    0.39    0.35
   4  -8   1    0.55    0.26
   4  -8   1   -0.05    0.22
   5  -8   1   44.89    1.89
   6  -8   1   29.20    1.50
   7   7  -1   33.23    1.41
  -7  -7   1   36.55    2.16
   6   7  -1   52.86    2.04
   6   7  -1   49.19    1.83
  -6  -7   1   52.51    2.50
   5   7  -1   10.87    0.72
   5   7  -1    9.83    0.78
  -5  -7   1   10.27    0.99
   4   7  -1   71.98    2.26
   4   7  -1   67.67    2.25
   4   7  -1   66.83    2.29
   4   7  -1   67.47    1.89
  -4  -7   1   67.19    2.65
   3   7  -1   46.22    1.73
   3   7  -1   44.94    1.69
   3   7  -1   49.80    1.50
  -3  -7   1   46.17    1.42
  -3  -7   1   49.33    1.44
  -3  -7   1   43.71    1.41
  -3  -7   1   45.22    1.92
   2   7  -1  101.42    2.94
   2   7  -1   97.37    3.04
   2   7  -1  101.90    2.75
  -2  -7   1  103.81    2.74
  -2  -7   1  104.43    2.73
  -2  -7   1  101.53    2.82
   1   7  -1   54.85    1.92
   1   7  -1   53.40    1.83
   1   7  -1   57.68    1.97
   1   7  -1   55.72    1.79
  -1  -7   1   55.82    1.78
  -1  -7   1   53.90    1.81
   0   7  -1   22.29    0.99
   0   7  -1   20.68    1.01
   0   7  -1   19.25    1.06
   0   7  -1   22.89    1.04
   0  -7   1   20.08    0.98
   0  -7   1   22.01    1.01
  -1   7  -1   10.38    0.66
  -1   7  -1   10.47    0.80
  -1   7  -1    8.95    0.59
   1  -7   1   11.41    0.74
   1  -7   1   10.25    0.68
  -2   7  -1   12.93    0.95
  -2   7  -1   12.59    0.66
  -2   7  -1   12.91    0.71
   2  -7   1   11.30    0.78
   2  -7   1   12.13    0.77
  -3   7  -1  151.14    3.66
  -3   7  -1  145.65    4.50
  -3   7  -1  153.78    3.93
   3  -7   1  137.37    4.17
   3  -7   1  150.07    4.12
  -4   7  -1   12.28    0.56
  -4   7  -1   12.89    1.06
   4  -7   1   10.88    0.77
   4  -7   1   11.30    0.87
  -5   7  -1   83.67    3.32
   5  -7   1   87.66    2.86
   5  -7   1   93.38    2.99
   6  -7   1    0.45    0.25
   7  -7   1   69.39    2.97
   7  -7   1   66.31    2.45
   8   6  -1   10.25    0.66
  -8  -6   1    9.61    1.21
   7   6  -1   13.13    0.73
   7   6  -1   13.32    0.92
  -7  -6   1   14.12    1.33
   6   6  -1   24.40    1.22
   6   6  -1   23.14    1.01
  -6  -6   1   22.29    1.53
   5   6  -1    9.26    0.71
   5   6  -1    9.63    0.61
  -5  -6   1   11.54    0.99
   4   6  -1    4.33    0.41
   4   6  -1    4.26    0.48
   4   6  -1    3.95    0.29
   4   6  -1    3.81    0.37
  -4  -6   1    4.38    0.31
  -4  -6   1    4.33    0.60
   3   6  -1    6.51    0.42
   3   6  -1    7.74    0.60
   3   6  -1    7.27    0.53
   3   6  -1    7.82    0.52
  -3  -6   1    7.88    0.41
  -3  -6   1    7.12    0.66
  -3  -6   1    7.37    0.33
  -3  -6   1    6.57    0.32
   2   6  -1    0.07    0.11
   2   6  -1    0.17    0.14
   2   6  -1    0.10    0.13
   2   6  -1    0.19    0.13
  -2  -6   1    0.20    0.13
  -2  -6   1    0.21    0.11
  -2  -6   1    0.33    0.12
   1   6  -1  160.33    4.04
   1   6  -1  159.91    4.34
   1   6  -1  160.58    3.96
  -1  -6   1  160.12    3.94
  -1  -6   1  160.68    4.23
   0   6  -1   16.42    0.82
   0   6  -1   16.49    0.78
   0   6  -1   14.64    0.85
   0   6  -1   16.35    0.81
   0  -6   1   17.47    0.83
   0  -6   1   17.78    0.82
  -1   6  -1  105.38    3.19
  -1   6  -1  106.16    3.02
  -1   6  -1  104.88    2.78
   1  -6   1  105.25    2.92
   1  -6   1  107.59    3.08
  -2   6  -1   77.42    2.65
  -2   6  -1   79.88    2.13
  -2   6  -1   79.33    2.32
   2  -6   1   77.38    2.42
   2  -6   1   76.10    2.37
  -3   6  -1  199.64    5.56
  -3   6  -1  204.71    5.00
  -3   6  -1  201.50    4.61
   3  -6   1  191.62    5.26
   3  -6   1  188.67    5.03
  -4   6  -1  102.14    3.45
  -4   6  -1  100.45    2.47
   4  -6   1  100.35    3.05
   4  -6   1  107.94    3.17
   4  -6   1  100.85    3.08
   5  -6   1   41.88    1.63
   5  -6   1   45.98    1.82
  -6   6  -1   36.08    1.92
   6  -6   1   31.19    1.37
   6  -6   1   30.08    1.52
   7  -6   1   48.45    1.86
   7  -6   1   49.43    2.37
  -8  -5   1   53.70    2.79
   7   5  -1    7.67    0.47
   7   5  -1    8.02    0.68
  -7  -5   1    8.46    1.03
   6   5  -1   74.75    2.35
   6   5  -1   70.46    2.29
   6   5  -1   69.84    2.02
   6   5  -1   69.93    1.97
  -6  -5   1   63.97    2.82
   5   5  -1   48.62    1.54
   5   5  -1   51.02    1.77
   5   5  -1   51.54    1.54
   5   5  -1   49.76    1.71
  -5  -5   1   48.67    2.18
   4   5  -1    0.55    0.22
   4   5  -1    0.87    0.14
   4   5  -1    1.03    0.22
   4   5  -1    0.70    0.17
  -4  -5   1    0.95    0.17
  -4  -5   1    1.30    0.38
   3   5  -1   35.83    1.32
   3   5  -1   37.05    1.06
   3   5  -1   35.13    1.21
   3   5  -1   35.30    1.24
  -3  -5   1   36.49    1.05
  -3  -5   1   34.45    1.52
   2   5  -1    1.88    0.23
   2   5  -1    1.98    0.25
   2   5  -1    2.23    0.28
  -2  -5   1    2.20    0.24
  -2  -5   1    1.86    0.22
  -2  -5   1    1.86    0.19
  -2  -5   1    1.87    0.20
  -2  -5   1    2.20    0.20
   1   5  -1  116.42    2.93
   1   5  -1  121.73    3.22
   1   5  -1  109.65    3.18
  -1  -5   1  116.38    3.13
  -1  -5   1  120.80    3.17
  -1  -5   1  117.19    2.92
   0   5  -1   34.66    1.17
   0   5  -1   34.42    1.19
   0   5  -1   35.06    1.23
   0   5  -1   31.95    1.21
   0   5  -1   37.04    1.34
   0  -5   1   35.18    1.24
   0  -5   1   34.30    1.22
   0  -5   1   35.06    1.19
  -1   5  -1  204.15    5.31
  -1   5  -1  209.61    5.43
  -1   5  -1  210.98    4.86
   1  -5   1  198.71    4.97
   1  -5   1  208.35    5.35
   1  -5   1  213.30    5.37
  -2   5  -1    3.54    0.46
  -2   5  -1    3.56    0.29
  -2   5  -1    3.80    0.32
   2  -5   1    3.95    0.37
   2  -5   1    3.42    0.35
   2  -5   1    3.25    0.38
  -3   5  -1  100.51    2.48
  -3   5  -1  106.53    2.66
  -3   5  -1  102.06    3.22
   3  -5   1  100.69    2.90
   3  -5   1  104.56    2.95
   3  -5   1   95.36    2.89
   3  -5   1  107.75    3.25
  -4   5  -1    9.68    0.37
  -4   5  -1   10.23    0.84
   4  -5   1    9.15    0.59
   4  -5   1   10.18    0.72
   4  -5   1   11.16    0.65
  -5   5  -1    1.57    0.43
   5  -5   1    1.38    0.32
   5  -5   1    1.82    0.39
   5  -5   1    1.85    0.31
  -6   5  -1   11.68    1.04
   6  -5   1   11.41    0.70
   6  -5   1   13.14    0.90
  -7   5  -1   38.13    2.06
   7  -5   1   40.37    1.76
   7  -5   1   38.73    2.00
   7  -5   1   40.16    1.53
   8  -5   1   34.37    1.95
   8  -5   1   31.21    1.37
  -8  -4   1    1.08    0.54
   7   4  -1   10.43    0.71
  -7  -4   1    9.57    1.07
   6   4  -1   43.98    1.57
   6   4  -1   42.82    1.65
   6   4  -1   43.14    1.37
  -6  -4   1   43.75    2.14
   5   4  -1   45.94    1.27
   5   4  -1   45.72    1.33
   5   4  -1   43.65    1.56
   5   4  -1   47.20    1.62
  -5  -4   1   46.28    2.05
   4   4  -1   40.01    1.40
   4   4  -1   39.64    1.12
   4   4  -1   40.24    1.19
   4   4  -1   39.79    1.17
  -4  -4   1   39.69    1.73
  -4  -4   1   40.81    1.17
   3   4  -1  324.01    7.00
   3   4  -1  317.12    7.79
   3   4  -1  328.58    7.82
   3   4  -1  318.92    7.41
  -3  -4   1  329.81    7.34
  -3  -4   1  310.65    8.46
   2   4  -1  480.76   11.34
   2   4  -1  456.97   10.22
   2   4  -1  467.05   11.34
  -2  -4   1  459.91   11.38
  -2  -4   1  478.63   11.12
  -2  -4   1  471.27   10.23
  -2  -4   1  479.50   10.64
  -2  -4   1  471.17   11.11
  -2  -4   1  481.58   11.91
   1   4  -1  236.93    5.84
   1   4  -1  232.04    5.30
   1   4  -1  222.05    5.83
  -1  -4   1  246.86    5.80
  -1  -4   1  234.55    5.30
  -1  -4   1  232.15    5.77
   0   4  -1  111.68    2.69
   0   4  -1  103.62    2.88
   0   4  -1  108.26    2.85
   0   4  -1  105.83    2.64
   0   4  -1  100.06    2.84
   0  -4   1  107.68    2.86
   0  -4   1  103.53    2.83
   0  -4   1  105.75    2.66
  -1   4  -1  360.84    8.30
  -1   4  -1  380.26    9.11
  -1   4  -1  374.89    9.09
  -1   4  -1  370.68    9.12
   1  -4   1  370.59    9.16
   1  -4   1  377.56    8.44
   1  -4   1  394.09    9.20
  -2   4  -1  233.16    5.57
  -2   4  -1  218.40    5.80
  -2   4  -1  224.59    5.07
  -2   4  -1  226.59    5.57
   2  -4   1  222.29    5.35
   2  -4   1  224.94    5.69
   2  -4   1  231.03    5.82
   2  -4   1  219.03    5.66
  -3   4  -1    0.24    0.18
  -3   4  -1    0.10    0.07
   3  -4   1    0.09    0.09
   3  -4   1    0.35    0.17
   3  -4   1   -0.11    0.12
   3  -4   1    0.06    0.09
  -4   4  -1   40.32    1.71
   4  -4   1   39.36    1.68
   4  -4   1   39.49    1.48
   4  -4   1   38.21    1.32
   4  -4   1   40.54    1.35
  -5   4  -1   29.35    1.52
   5  -4   1   32.06    1.35
   5  -4   1   33.41    1.18
   5  -4   1   32.65    1.18
  -6   4  -1   61.36    2.49
   6  -4   1   62.76    2.14
   6  -4   1   58.25    2.37
   6  -4   1   60.57    1.89
  -7   4  -1   -0.13    0.26
   7  -4   1    0.07    0.15
   7  -4   1    0.03    0.20
   7  -4   1   -0.01    0.28
   8  -4   1   70.97    2.89
   8  -4   1   69.04    2.19
   8  -4   1   65.30    2.42
  -8  -3   1    0.70    0.48
   7   3  -1   37.26    1.37
   7   3  -1   36.16    1.36
  -7  -3   1   36.89    2.03
   6   3  -1   81.97    2.41
   6   3  -1   88.54    2.48
   6   3  -1   91.47    2.78
  -6  -3   1   86.40    3.29
   5   3  -1   58.44    1.72
   5   3  -1   63.60    1.86
   5   3  -1   60.59    1.98
  -5  -3   1   60.35    2.40
   4   3  -1   17.61    0.80
   4   3  -1   17.90    0.64
   4   3  -1   18.83    0.80
  -4  -3   1   18.05    1.05
   3   3  -1  225.90    5.45
   3   3  -1  231.74    5.44
   3   3  -1  223.47    5.32
   3   3  -1  226.84    4.91
   3   3  -1  228.61    5.22
  -3  -3   1  231.81    5.25
   2   3  -1   83.02    2.12
   2   3  -1   79.30    2.12
   2   3  -1   79.86    2.13
   2   3  -1   81.85    1.90
  -2  -3   1   81.57    1.94
  -2  -3   1   81.69    2.45
  -2  -3   1   80.84    1.89
   1   3  -1   17.96    0.65
   1   3  -1   17.64    0.59
   1   3  -1   17.17    0.65
  -1  -3   1   17.82    0.61
  -1  -3   1   16.79    0.58
  -1  -3   1   17.46    0.60
   0   3  -1   67.38    1.86
   0   3  -1   68.72    1.85
   0   3  -1   68.16    1.72
   0  -3   1   65.19    1.84
   0  -3   1   64.03    1.72
   0  -3   1   66.54    1.84
  -1   3  -1    8.60    0.38
  -1   3  -1    9.39    0.43
  -1   3  -1    8.47    0.52
  -1   3  -1    8.63    0.42
   1  -3   1    8.43    0.44
   1  -3   1    9.14    0.44
  -2   3  -1  163.97    3.91
  -2   3  -1  158.98    3.91
  -2   3  -1  154.69    3.56
  -2   3  -1  154.07    4.17
   2  -3   1  162.92    4.03
   2  -3   1  158.84    4.18
   2  -3   1  157.77    3.83
   2  -3   1  155.18    4.01
  -3   3  -1  139.59    3.95
  -3   3  -1  144.27    3.16
   3  -3   1  147.49    3.66
   3  -3   1  140.19    3.58
   3  -3   1  140.09    3.93
   3  -3   1  145.22    3.67
  -4   3  -1   46.31    1.83
   4  -3   1   49.56    1.62
   4  -3   1   46.71    1.82
   4  -3   1   48.79    1.44
   4  -3   1   50.35    1.46
  -5   3  -1  140.30    4.23
   5  -3   1  144.71    3.68
   5  -3   1  142.51    4.14
   5  -3   1  147.56    3.70
   5  -3   1  140.07    3.76
  -6   3  -1   33.41    1.66
   6  -3   1   34.73    1.14
   6  -3   1   36.05    1.44
   6  -3   1   32.71    1.61
  -7   3  -1   11.26    0.99
   7  -3   1   12.80    1.03
   7  -3   1   11.11    0.80
   7  -3   1   10.43    0.56
  -8   3  -1    0.20    0.34
   8  -3   1    0.42    0.25
   8  -3   1    0.39    0.35
   8  -3   1    0.05    0.13
   8   2  -1  119.12    3.56
  -8  -2   1  118.86    4.52
   7   2  -1   96.95    2.60
   7   2  -1   92.91    2.81
  -7  -2   1   94.32    3.66
   6   2  -1    5.21    0.45
   6   2  -1    4.22    0.37
   6   2  -1    3.98    0.49
  -6  -2   1    4.41    0.67
   5   2  -1  122.49    3.07
   5   2  -1  119.08    3.15
   5   2  -1  123.07    3.45
  -5  -2   1  121.26    3.94
   4   2  -1  430.81   10.26
   4   2  -1  425.14    9.55
   4   2  -1  429.98    9.85
  -4  -2   1  430.97   11.15
   3   2  -1   84.80    2.11
   3   2  -1   86.33    2.20
  -3  -2   1   86.99    2.69
   2   2  -1  103.14    2.55
   2   2  -1  108.45    2.60
   2   2  -1  104.67    2.42
  -2  -2   1  104.29    2.43
   1   2  -1  124.00    3.14
   1   2  -1  123.19    2.97
   1   2  -1  127.27    3.14
  -1  -2   1  129.86    3.17
  -1  -2   1  127.66    2.84
  -1  -2   1  132.53    3.10
   0   2  -1   34.33    0.99
   0   2  -1   32.92    0.92
   0   2  -1   34.11    1.00
   0  -2   1   33.18    0.93
   0  -2   1   34.18    0.99
   0  -2   1   33.62    1.00
  -1   2  -1   11.68    0.44
  -1   2  -1   11.66    0.56
  -1   2  -1   11.18    0.40
  -1   2  -1   11.76    0.45
   1  -2   1   11.51    0.40
   1  -2   1   12.33    0.50
   1  -2   1   11.53    0.46
   1  -2   1   11.71    0.47
  -2   2  -1  232.41    5.09
  -2   2  -1  237.34    5.53
  -2   2  -1  244.75    5.54
  -2   2  -1  219.25    5.77
   2  -2   1  233.29    5.67
   2  -2   1  235.78    5.09
   2  -2   1  232.83    5.78
   2  -2   1  236.10    5.68
  -3   2  -1   52.55    1.79
   3  -2   1   56.82    1.49
   3  -2   1   55.17    1.62
   3  -2   1   53.27    1.78
   3  -2   1   54.20    1.47
  -4   2  -1  120.81    3.49
   4  -2   1  121.74    3.01
   4  -2   1  116.26    3.39
   4  -2   1  124.79    3.01
   4  -2   1  122.94    3.50
   4  -2   1  118.07    3.10
  -5   2  -1   77.85    2.58
   5  -2   1   76.53    1.96
   5  -2   1   77.36    1.97
   5  -2   1   75.16    2.21
   5  -2   1   78.15    2.58
   5  -2   1   70.87    2.47
  -6   2  -1   29.17    1.46
   6  -2   1   28.87    1.21
   6  -2   1   30.83    1.47
   6  -2   1   28.48    0.88
   6  -2   1   29.37    0.89
  -7   2  -1   23.51    1.37
   7  -2   1   22.76    1.34
   7  -2   1   21.87    0.75
   7  -2   1   20.67    1.05
  -8   2  -1    6.73    0.82
   8  -2   1    6.75    0.83
   8  -2   1    5.80    0.38
   8   1  -1   33.42    1.51
   7   1  -1    7.42    0.63
   7   1  -1    7.06    0.45
  -7  -1   1    8.06    0.92
   6   1  -1   60.88    2.21
   6   1  -1   62.47    1.59
   6   1  -1   64.42    2.06
   6   1  -1   62.60    1.75
  -6  -1   1   65.40    2.63
   5   1  -1    1.42    0.20
   5   1  -1    1.29    0.14
   5   1  -1    1.49    0.31
   5   1  -1    1.59    0.26
  -5  -1   1    1.22    0.39
   4   1  -1    0.92    0.11
   4   1  -1    0.88    0.18
   4   1  -1    0.80    0.22
   4   1  -1    0.84    0.16
  -4  -1   1    0.85    0.30
   3   1  -1  172.54    4.32
   3   1  -1  168.14    3.69
   3   1  -1  173.25    3.93
   3   1  -1  176.44    4.09
  -3  -1   1  165.52    4.71
   2   1  -1  121.08    2.85
   2   1  -1  127.94    3.37
   2   1  -1  122.59    2.88
  -2  -1   1  121.95    3.38
   1   1  -1  156.81    3.71
  -1  -1   1  150.94    3.45
   0   1  -1  103.42    2.53
   0   1  -1  100.04    2.53
   0   1  -1  103.25    2.33
   0  -1   1  102.96    2.40
   0  -1   1  107.93    2.54
   0  -1   1  102.95    2.52
   0  -1   1  100.14    2.32
  -1   1  -1  527.41   12.28
  -1   1  -1  509.27   12.08
  -1   1  -1  516.47   12.27
  -1   1  -1  512.73   11.20
   1  -1   1  507.12   12.37
   1  -1   1  520.17   11.19
   1  -1   1  520.72   12.31
   1  -1   1  517.40   12.21
  -2   1  -1   29.75    1.00
   2  -1   1   29.30    0.79
   2  -1   1   29.45    0.99
   2  -1   1   28.09    0.70
   2  -1   1   28.66    0.99
   2  -1   1   28.79    0.78
  -3   1  -1   97.11    2.73
   3  -1   1   98.58    2.17
   3  -1   1   98.35    2.73
   3  -1   1   98.19    2.70
  -4   1  -1    3.70    0.40
   4  -1   1    3.17    0.39
   4  -1   1    4.12    0.42
  -5   1  -1  200.08    5.44
   5  -1   1  210.18    5.50
   5  -1   1  205.93    5.38
   5  -1   1  205.43    4.93
  -6   1  -1    5.47    0.60
   6  -1   1    4.98    0.56
   6  -1   1    4.32    0.43
   6  -1   1    5.10    0.58
  -7   1  -1   70.99    2.58
   7  -1   1   68.92    2.53
   7  -1   1   67.64    2.13
  -8   1  -1    8.55    0.87
   8  -1   1    8.58    0.87
  -9   1  -1   79.50    3.05
   9  -1   1   76.59    3.01
   9   0  -1   21.09    1.31
   8   0  -1   23.40    1.30
   7   0  -1   21.29    0.81
   7   0  -1   18.78    1.08
   6   0  -1   65.16    2.35
   6   0  -1   66.77    1.69
   6   0  -1   65.71    2.17
   6   0  -1   65.15    1.76
  -6   0   1   63.64    2.62
   5   0  -1    3.51    0.27
   5   0  -1    4.77    0.44
   5   0  -1    3.69    0.25
   5   0  -1    3.77    0.44
  -5   0   1    3.30    0.43
  -5   0   1    4.21    0.56
   4   0  -1   38.17    1.27
   4   0  -1   36.44    1.00
   4   0  -1   35.92    1.01
   4   0  -1   36.15    1.37
  -4   0   1   35.33    1.51
  -4   0   1   36.17    1.34
   3   0  -1    9.42    0.36
   3   0  -1    9.71    0.36
   3   0  -1    8.80    0.52
  -3   0   1    8.85    0.60
  -3   0   1    9.24    0.53
   2   0  -1    0.57    0.16
   2   0  -1    0.47    0.08
   2   0  -1    0.58    0.09
   2   0  -1    0.48    0.14
  -2   0   1    0.41    0.09
  -2   0   1    0.35    0.08
  -2   0   1    0.26    0.13
  -2   0   1    0.26    0.15
   1   0  -1  392.82    8.75
   1   0  -1  409.73    9.68
  -1   0   1  396.23    9.92
  -1   0   1  392.39    8.73
  -1   0   1  392.42    8.53
   0   0  -1  161.10    3.77
   0   0  -1  147.95    3.45
   0   0  -1  154.11    3.59
   0   0  -1  161.00    3.82
   0   0   1  162.02    3.76
   0   0   1  158.86    3.59
   0   0   1  162.15    3.45
  -1   0  -1  237.44    5.59
  -1   0  -1  230.97    5.49
  -1   0  -1  238.69    5.45
   1   0   1  233.91    5.45
   1   0   1  244.26    5.50
   1   0   1  240.36    5.65
   1   0   1  232.11    5.59
  -2   0  -1    4.86    0.33
  -2   0  -1    4.90    0.31
   2   0   1    5.90    0.32
   2   0   1    4.94    0.33
   2   0   1    5.64    0.39
  -3   0  -1   40.33    1.28
   3   0   1   39.27    1.29
   3   0   1   39.20    1.28
  -4   0  -1   33.11    1.23
   4   0   1   31.84    1.22
   4   0   1   33.66    1.25
  -5   0  -1   29.51    1.26
   5   0   1   29.95    1.27
   5   0   1   32.93    1.32
  -6   0  -1   59.28    2.11
   6   0   1   59.13    1.51
   6   0   1   59.67    2.15
   6   0   1   60.07    2.12
   6   0   1   57.79    1.78
  -7   0  -1    5.25    0.61
   7   0   1    4.37    0.59
   7   0   1    6.04    0.49
  -8   0  -1   35.18    1.72
   8   0   1   38.64    1.79
   9   0   1   64.95    2.62
   9  -1  -1   15.96    1.19
   8  -1  -1    0.95    0.37
   7  -1  -1   69.66    2.44
   7  -1  -1   66.23    1.96
  -7   1   1   67.35    2.55
   6  -1  -1   19.07    1.04
   6  -1  -1   18.57    0.79
  -6   1   1   19.17    1.12
   5  -1  -1  244.88    5.64
   5  -1  -1  245.53    5.36
   5  -1  -1  247.03    6.46
  -5   1   1  249.05    6.41
  -5   1   1  242.89    6.89
   4  -1  -1   17.67    0.92
   4  -1  -1   17.70    0.51
   4  -1  -1   17.56    0.67
  -4   1   1   19.43    0.94
  -4   1   1   17.45    0.98
   3  -1  -1   62.32    1.45
   3  -1  -1   62.96    1.93
   3  -1  -1   62.32    1.61
  -3   1   1   65.53    1.95
  -3   1   1   60.97    2.03
   2  -1  -1   33.63    1.14
   2  -1  -1   34.20    0.92
   2  -1  -1   34.47    1.13
   2  -1  -1   33.12    0.81
  -2   1   1   33.61    0.81
  -2   1   1   34.62    0.93
  -2   1   1   32.24    1.13
  -2   1   1   31.71    1.10
   1  -1  -1  404.12    8.85
   1  -1  -1  427.80   10.22
   1  -1  -1  412.40    9.54
  -1   1   1  410.64    8.85
  -1   1   1  413.35   10.03
  -1   1   1  405.18    8.92
   0  -1  -1    0.68    0.08
   0  -1  -1    0.57    0.08
   0  -1  -1    0.41    0.07
   0  -1  -1    0.43    0.06
   0   1   1    0.31    0.07
   0   1   1    0.44    0.07
   0   1   1    0.27    0.06
  -1  -1  -1  134.49    3.21
  -1  -1  -1  141.56    3.35
  -1  -1  -1  140.32    3.56
  -1  -1  -1  142.88    3.31
  -1  -1  -1  134.89    3.43
   1   1   1  142.40    3.30
   1   1   1  142.34    3.38
   1   1   1  138.46    3.21
   1   1   1  145.48    3.46
   1   1   1  141.69    3.38
   1   1   1  142.12    3.56
   1   1   1  139.98    3.38
  -2  -1  -1  147.43    3.56
  -2  -1  -1  151.01    3.63
  -2  -1  -1  150.87    3.98
   2   1   1  148.26    3.58
   2   1   1  146.54    3.61
   2   1   1  155.02    3.99
  -3  -1  -1  237.05    5.70
  -3  -1  -1  235.41    6.29
  -3  -1  -1  237.77    5.70
   3   1   1  237.71    5.68
   3   1   1  239.79    5.71
  -4  -1  -1    9.56    0.54
  -4  -1  -1    8.81    0.69
   4   1   1    9.94    0.56
   4   1   1   10.03    0.58
  -5  -1  -1  122.03    3.37
   5   1   1  120.86    3.38
   5   1   1  124.18    3.41
  -6  -1  -1    2.06    0.36
   6   1   1    1.48    0.22
   6   1   1    1.63    0.35
   6   1   1    1.74    0.34
   7   1   1   99.40    3.17
   7   1   1   95.77    2.49
   7   1   1   98.64    2.63
   7   1   1   98.87    3.10
   8   1   1   27.78    1.46
   9   1   1   74.98    2.82
   8  -2  -1    0.59    0.34
  -8   2   1    0.55    0.35
   7  -2  -1   51.76    2.12
   7  -2  -1   51.94    1.73
  -7   2   1   55.41    2.27
   6  -2  -1   10.62    0.63
  -6   2   1    8.47    0.79
   5  -2  -1  117.75    3.58
   5  -2  -1  117.45    3.01
  -5   2   1  115.58    3.53
   4  -2  -1    2.31    0.37
   4  -2  -1    1.79    0.25
  -4   2   1    2.15    0.36
   3  -2  -1   74.85    1.97
   3  -2  -1   75.51    2.31
  -3   2   1   75.44    1.99
  -3   2   1   75.67    2.30
   2  -2  -1   63.83    1.54
   2  -2  -1   61.03    1.54
   2  -2  -1   61.25    1.85
   2  -2  -1   62.81    1.84
   2  -2  -1   61.30    1.61
  -2   2   1   61.46    1.63
  -2   2   1   60.50    1.42
  -2   2   1   59.88    1.83
   1  -2  -1   16.23    0.54
   1  -2  -1   17.37    0.67
   1  -2  -1   16.62    0.58
   1  -2  -1   17.37    0.59
   1  -2  -1   17.22    0.55
  -1   2   1   16.60    0.65
  -1   2   1   17.07    0.52
  -1   2   1   16.28    0.58
  -1   2   1   17.00    0.51
   0  -2  -1    0.08    0.08
   0  -2  -1    0.03    0.05
   0  -2  -1    0.26    0.08
   0  -2  -1    0.13    0.06
   0   2   1    0.12    0.07
   0   2   1    0.09    0.06
   0   2   1    0.12    0.07
   0   2   1    0.23    0.09
  -1  -2  -1    4.47    0.23
  -1  -2  -1    4.53    0.25
  -1  -2  -1    3.94    0.26
  -1  -2  -1    4.90    0.25
  -1  -2  -1    5.08    0.27
   1   2   1    4.61    0.26
   1   2   1    3.89    0.24
   1   2   1    4.60    0.17
   1   2   1    4.90    0.27
   1   2   1    4.78    0.25
  -2  -2  -1  203.35    5.44
  -2  -2  -1  212.78    4.97
   2   2   1  210.95    5.44
   2   2   1  215.02    5.17
   2   2   1  204.53    5.04
   2   2   1  208.09    4.95
   2   2   1  217.30    5.05
   2   2   1  208.28    4.87
   2   2   1  214.76    5.05
  -3  -2  -1  461.32   10.30
  -3  -2  -1  426.55   11.25
   3   2   1  453.60   10.32
   3   2   1  441.28   10.25
  -4  -2  -1  609.03   15.65
  -4  -2  -1  629.57   14.31
   4   2   1  624.06   14.42
   4   2   1  617.70   14.24
  -5  -2  -1   71.03    2.63
   5   2   1   69.95    2.17
   5   2   1   72.04    2.16
  -6  -2  -1    1.64    0.49
   6   2   1    1.66    0.33
   6   2   1    2.16    0.37
   7   2   1   16.53    0.76
   7   2   1   15.30    0.94
   7   2   1   15.92    0.96
   8   2   1   39.77    1.73
   9   2   1   -0.13    0.26
   8  -3  -1    2.00    0.54
  -8   3   1    3.05    0.77
   7  -3  -1    4.70    0.64
   7  -3  -1    4.33    0.49
  -7   3   1    5.18    0.72
   6  -3  -1    8.25    0.60
  -6   3   1    8.35    0.81
   5  -3  -1   92.11    2.57
  -5   3   1   91.24    3.02
   4  -3  -1    1.81    0.36
   4  -3  -1    1.83    0.28
   4  -3  -1    1.89    0.15
   4  -3  -1    1.72    0.15
  -4   3   1    2.07    0.37
   3  -3  -1  143.64    3.57
   3  -3  -1  145.36    3.57
   3  -3  -1  147.38    3.97
   3  -3  -1  137.63    3.52
  -3   3   1  142.27    3.95
  -3   3   1  144.62    3.17
  -3   3   1  145.38    3.56
   2  -3  -1   32.15    1.04
   2  -3  -1   32.03    1.20
   2  -3  -1   28.80    0.95
   2  -3  -1   31.35    0.97
   2  -3  -1   32.41    1.12
  -2   3   1   32.13    1.19
  -2   3   1   32.36    1.06
   1  -3  -1  126.82    3.10
   1  -3  -1  119.02    3.09
   1  -3  -1  120.58    3.16
  -1   3   1  119.85    3.04
  -1   3   1  117.36    2.92
  -1   3   1  121.47    3.16
  -1   3   1  120.34    3.04
   0  -3  -1   97.44    2.47
   0  -3  -1  103.81    2.61
   0   3   1  103.54    2.48
   0   3   1  104.68    2.67
   0   3   1  105.43    2.67
   0   3   1  100.98    2.60
  -1  -3  -1  264.03    6.42
  -1  -3  -1  266.74    6.16
  -1  -3  -1  268.05    6.43
  -1  -3  -1  263.03    6.60
   1   3   1  265.51    6.16
   1   3   1  269.35    6.47
   1   3   1  279.49    5.90
   1   3   1  248.03    6.44
  -2  -3  -1    4.32    0.30
  -2  -3  -1    3.98    0.35
  -2  -3  -1    4.03    0.18
  -2  -3  -1    3.95    0.22
  -2  -3  -1    4.06    0.19
   2   3   1    3.93    0.28
   2   3   1    3.44    0.32
   2   3   1    4.13    0.27
   2   3   1    4.28    0.27
  -3  -3  -1  476.91   10.74
  -3  -3  -1  463.07   11.79
   3   3   1  467.28   11.05
   3   3   1  470.62   10.70
   3   3   1  457.57   11.05
   3   3   1  461.34   10.73
  -4  -3  -1    1.70    0.36
  -4  -3  -1    1.64    0.26
   4   3   1    1.46    0.24
   4   3   1    1.31    0.20
   4   3   1    1.05    0.13
   4   3   1    1.17    0.13
  -5  -3  -1   26.05    1.38
   5   3   1   23.53    1.01
   5   3   1   26.35    1.02
  -6  -3  -1   13.10    1.06
   6   3   1   13.45    0.76
   6   3   1   12.36    0.75
  -7  -3  -1    3.96    0.68
   7   3   1    2.81    0.38
   7   3   1    3.50    0.47
   8   3   1   -0.19    0.18
   8  -4  -1    1.98    0.57
   8  -4  -1    1.48    0.28
   7  -4  -1    0.42    0.26
   7  -4  -1    0.80    0.21
  -7   4   1    0.42    0.37
   6  -4  -1    2.85    0.41
   6  -4  -1    2.75    0.28
  -6   4   1    2.57    0.54
   5  -4  -1   39.80    1.50
   5  -4  -1   42.30    1.30
   5  -4  -1   39.96    1.28
  -5   4   1   42.31    1.85
   4  -4  -1  105.83    3.30
   4  -4  -1  104.96    2.78
   4  -4  -1  104.07    2.77
   4  -4  -1  101.83    2.85
  -4   4   1  102.43    3.25
   3  -4  -1  278.31    6.98
   3  -4  -1  266.48    6.65
   3  -4  -1  271.41    6.66
   3  -4  -1  258.41    6.29
  -3   4   1  272.57    6.94
  -3   4   1  273.66    6.35
   2  -4  -1  500.29   11.35
   2  -4  -1  523.59   12.32
   2  -4  -1  528.11   12.28
   2  -4  -1  504.66   12.30
  -2   4   1  508.48   12.14
  -2   4   1  521.48   12.29
  -2   4   1  506.22   11.38
  -2   4   1  511.14   12.16
   1  -4  -1  318.90    7.62
   1  -4  -1  305.93    7.67
   1  -4  -1  310.76    7.09
   1  -4  -1  324.63    7.70
  -1   4   1  321.41    7.63
  -1   4   1  306.25    7.10
  -1   4   1  312.04    7.63
  -1   4   1  308.50    7.61
   0  -4  -1  227.79    5.23
   0  -4  -1  223.69    5.67
   0  -4  -1  231.10    5.69
   0  -4  -1  228.74    5.54
   0   4   1  234.62    5.69
   0   4   1  226.29    5.24
   0   4   1  225.16    5.54
   0   4   1  224.74    5.67
  -1  -4  -1   54.87    1.61
  -1  -4  -1   55.28    1.63
  -1  -4  -1   56.38    1.62
  -1  -4  -1   56.28    1.57
   1   4   1   54.37    1.64
   1   4   1   55.96    1.54
   1   4   1   55.94    1.53
  -2  -4  -1  334.37    7.68
  -2  -4  -1  312.70    8.09
  -2  -4  -1  334.30    7.90
  -2  -4  -1  340.86    7.91
  -2  -4  -1  329.50    8.37
   2   4   1  323.20    8.03
   2   4   1  332.23    8.04
   2   4   1  329.93    7.31
  -3  -4  -1    4.41    0.35
  -3  -4  -1    4.11    0.44
   3   4   1    4.72    0.32
   3   4   1    4.40    0.32
   3   4   1    4.69    0.33
   3   4   1    4.45    0.30
  -4  -4  -1   16.53    1.00
  -4  -4  -1   18.22    0.81
   4   4   1   18.60    0.69
   4   4   1   18.78    0.70
   4   4   1   16.85    0.74
   4   4   1   18.13    0.69
  -5  -4  -1    2.31    0.47
   5   4   1    1.95    0.21
   5   4   1    2.34    0.31
   5   4   1    2.54    0.29
   5   4   1    2.27    0.22
  -6  -4  -1  164.79    5.17
   6   4   1  158.31    4.05
   6   4   1  164.64    4.25
   6   4   1  156.92    4.21
  -7  -4  -1   32.76    1.89
   7   4   1   29.65    1.00
   7   4   1   30.81    1.27
   7   4   1   28.83    1.27
   8   4   1   90.88    2.50
   8  -5  -1    4.29    0.46
   8  -5  -1    3.84    0.74
   7  -5  -1   85.85    2.79
   7  -5  -1   89.53    2.62
  -7   5   1   85.22    3.36
   6  -5  -1   37.21    1.32
   6  -5  -1   36.70    1.53
  -6   5   1   32.16    1.76
   5  -5  -1   39.09    1.56
   5  -5  -1   45.36    1.49
   5  -5  -1   39.47    1.41
  -5   5   1   41.12    1.90
   4  -5  -1    1.30    0.24
   4  -5  -1    1.07    0.22
   4  -5  -1    0.67    0.22
  -4   5   1    1.31    0.41
  -4   5   1    1.33    0.13
   3  -5  -1  125.74    3.43
   3  -5  -1  126.56    3.43
   3  -5  -1  126.31    3.74
   3  -5  -1  123.79    3.35
  -3   5   1  126.47    3.73
  -3   5   1  125.99    3.38
   2  -5  -1   16.80    0.91
   2  -5  -1   16.75    0.76
   2  -5  -1   15.09    0.73
   2  -5  -1   15.30    0.78
  -2   5   1   16.48    0.65
  -2   5   1   16.78    0.66
  -2   5   1   16.67    0.91
  -2   5   1   16.47    0.81
   1  -5  -1  166.13    4.54
   1  -5  -1  183.19    4.59
   1  -5  -1  180.24    4.61
   1  -5  -1  168.93    4.27
  -1   5   1  175.38    4.30
  -1   5   1  179.00    4.62
  -1   5   1  174.02    4.50
  -1   5   1  175.18    4.50
   0  -5  -1    8.17    0.50
   0  -5  -1    8.67    0.52
   0  -5  -1    8.12    0.50
   0  -5  -1    8.14    0.50
   0   5   1    8.94    0.54
   0   5   1    8.48    0.50
   0   5   1    8.11    0.51
   0   5   1    7.85    0.49
  -1  -5  -1    7.84    0.47
  -1  -5  -1    7.19    0.45
  -1  -5  -1    8.36    0.48
   1   5   1    7.91    0.49
   1   5   1    8.03    0.49
   1   5   1    8.49    0.46
   1   5   1    7.84    0.46
  -2  -5  -1   16.26    0.65
  -2  -5  -1   17.89    0.83
  -2  -5  -1   17.65    0.72
  -2  -5  -1   17.92    0.68
   2   5   1   16.10    0.74
   2   5   1   15.94    0.64
   2   5   1   15.93    0.68
   2   5   1   16.12    0.74
  -3  -5  -1   48.45    1.78
  -3  -5  -1   46.19    1.31
  -3  -5  -1   49.34    1.50
   3   5   1   45.22    1.37
   3   5   1   47.90    1.53
   3   5   1   47.54    1.53
  -4  -5  -1   21.58    1.16
   4   5   1   21.11    0.84
   4   5   1   19.58    0.84
   4   5   1   21.60    0.75
   4   5   1   21.38    0.85
   4   5   1   19.93    0.75
  -5  -5  -1  116.82    3.87
   5   5   1  117.61    3.17
   5   5   1  116.50    2.83
   5   5   1  110.10    3.03
   5   5   1  118.90    3.12
   5   5   1  118.73    3.15
  -6  -5  -1   11.47    1.04
   6   5   1   13.13    0.72
   6   5   1   13.75    0.66
  -7  -5  -1   52.23    2.59
   7   5   1   58.74    2.01
   7   5   1   59.26    1.81
   7   5   1   57.93    1.93
  -8  -5  -1   16.21    1.45
   8   5   1   16.80    0.80
   7  -6  -1   30.91    1.52
   7  -6  -1   30.64    1.33
   6  -6  -1  113.69    3.32
   6  -6  -1  113.59    3.41
  -6   6   1  111.38    3.96
   5  -6  -1   65.55    2.17
   5  -6  -1   69.51    2.33
  -5   6   1   67.66    2.68
   4  -6  -1   98.90    2.99
   4  -6  -1  110.30    3.04
   4  -6  -1  101.05    3.01
  -4   6   1   96.77    3.37
  -4   6   1  103.00    2.46
   3  -6  -1   10.11    0.64
   3  -6  -1   11.25    0.73
   3  -6  -1   11.63    0.69
  -3   6   1   10.76    0.74
  -3   6   1   11.49    0.44
  -3   6   1   11.24    0.44
  -3   6   1   10.87    0.83
   2  -6  -1  110.37    3.25
   2  -6  -1  105.14    3.03
   2  -6  -1  108.81    2.95
   2  -6  -1  100.85    3.02
  -2   6   1  103.76    3.21
  -2   6   1  102.69    2.95
  -2   6   1  104.23    2.87
   1  -6  -1   -0.06    0.11
   1  -6  -1    0.08    0.11
   1  -6  -1    0.05    0.12
  -1   6   1   -0.02    0.10
  -1   6   1    0.02    0.14
  -1   6   1    0.08    0.11
   0  -6  -1  176.25    4.65
   0  -6  -1  174.08    4.34
   0   6   1  180.92    4.38
   0   6   1  171.03    4.64
   0   6   1  177.09    4.61
  -1  -6  -1   88.27    2.58
  -1  -6  -1   91.12    2.45
   1   6   1   89.28    2.52
   1   6   1   89.90    2.64
   1   6   1   89.98    2.46
  -2  -6  -1  175.48    4.86
  -2  -6  -1  177.87    4.56
   2   6   1  186.81    4.76
   2   6   1  172.92    4.44
   2   6   1  177.91    4.30
   2   6   1  176.87    4.72
  -3  -6  -1   40.42    1.09
  -3  -6  -1   38.25    1.57
  -3  -6  -1   36.99    1.21
   3   6   1   38.97    1.40
   3   6   1   37.36    1.25
   3   6   1   41.95    1.43
  -4  -6  -1  150.10    4.52
   4   6   1  147.20    4.04
   4   6   1  145.62    3.60
   4   6   1  152.79    4.05
  -5  -6  -1   57.59    2.34
   5   6   1   54.27    1.56
   5   6   1   52.34    1.69
   5   6   1   54.00    1.81
   5   6   1   56.37    1.63
  -6  -6  -1  160.80    5.21
   6   6   1  162.96    4.35
   6   6   1  156.62    4.14
  -7  -6  -1  106.51    4.09
   7   6   1  106.65    3.13
   7   6   1  111.92    3.29
  -8  -6  -1   82.89    3.68
   8   6   1   87.17    2.66
   7  -7  -1   30.60    1.43
   6  -7  -1    0.26    0.21
   6  -7  -1    0.23    0.28
   5  -7  -1   17.81    1.09
   5  -7  -1   18.22    1.00
  -5   7   1   20.32    1.38
   4  -7  -1    2.16    0.43
   4  -7  -1    2.42    0.38
  -4   7   1    2.12    0.24
  -4   7   1    2.05    0.52
   3  -7  -1    7.74    0.62
   3  -7  -1    7.66    0.66
  -3   7   1    7.26    0.75
   2  -7  -1   12.73    0.88
   2  -7  -1   10.98    0.75
   2  -7  -1   11.39    0.73
  -2   7   1   12.00    0.65
  -2   7   1   12.34    0.80
  -2   7   1   10.19    0.81
   1  -7  -1   40.21    1.58
   1  -7  -1   38.06    1.46
   1  -7  -1   36.40    1.46
  -1   7   1   38.25    1.42
  -1   7   1   39.83    1.61
   0  -7  -1    5.85    0.50
   0  -7  -1    6.43    0.54
   0   7   1    6.75    0.52
   0   7   1    5.90    0.53
   0   7   1    6.44    0.53
  -1  -7  -1  208.20    5.23
  -1  -7  -1  215.00    5.63
   1   7   1  221.96    5.53
   1   7   1  226.70    5.31
   1   7   1  208.47    5.69
  -2  -7  -1   65.75    2.19
  -2  -7  -1   63.93    1.98
   2   7   1   63.88    1.96
   2   7   1   64.27    1.96
   2   7   1   63.88    2.12
  -3  -7  -1  291.58    7.88
  -3  -7  -1  287.27    7.39
   3   7   1  290.94    6.81
   3   7   1  305.45    7.12
   3   7   1  293.01    7.56
  -4  -7  -1   25.69    1.38
   4   7   1   24.73    1.13
   4   7   1   26.66    1.15
   4   7   1   24.31    0.98
  -5  -7  -1   49.70    2.17
   5   7   1   47.43    1.74
  -6  -7  -1   18.45    1.35
   6   7   1   16.29    0.91
  -7  -7  -1  134.25    4.74
   7   7   1  126.62    3.78
   6  -8  -1   34.23    1.58
   5  -8  -1    6.96    0.66
  -5   8   1    4.94    0.75
   4  -8  -1   65.40    2.39
   4  -8  -1   64.31    2.34
  -4   8   1   64.22    2.68
  -4   8   1   67.84    1.91
   3  -8  -1   42.31    1.69
   3  -8  -1   40.12    1.71
  -3   8   1   40.17    1.92
   2  -8  -1   43.57    1.71
   2  -8  -1   43.30    1.72
  -2   8   1   45.01    1.58
  -2   8   1   42.13    1.88
   1  -8  -1  105.73    3.06
   1  -8  -1  101.06    3.15
  -1   8   1  101.26    3.26
  -1   8   1  104.02    3.08
   0  -8  -1  193.24    5.30
   0  -8  -1  194.70    4.99
   0   8   1  199.89    5.33
   0   8   1  196.81    5.04
   0   8   1  192.91    5.27
  -1  -8  -1  164.64    4.26
  -1  -8  -1  167.53    4.52
   1   8   1  167.21    4.30
   1   8   1  159.01    4.44
   1   8   1  160.89    4.57
  -2  -8  -1  272.43    6.89
  -2  -8  -1  271.99    7.23
   2   8   1  271.07    6.75
   2   8   1  272.12    6.48
   2   8   1  259.79    7.07
  -3  -8  -1   78.83    2.35
  -3  -8  -1   72.59    2.63
   3   8   1   75.32    2.25
   3   8   1   77.82    2.29
   3   8   1   75.31    2.52
  -4  -8  -1   15.69    1.09
   4   8   1   15.46    0.93
   4   8   1   15.72    0.74
   4   8   1   16.83    0.82
  -5  -8  -1   56.16    2.46
   5   8   1   59.91    2.14
  -6  -8  -1    3.67    0.73
   6   8   1    2.81    0.45
  -7  -8  -1    4.57    0.87
   7   8   1    5.33    0.58
   5  -9  -1   88.96    3.11
   4  -9  -1   74.17    2.66
  -4   9   1   73.24    3.01
   3  -9  -1  204.94    5.89
   3  -9  -1  213.91    5.67
  -3   9   1  211.76    5.18
  -3   9   1  210.76    6.19
   2  -9  -1   34.66    1.60
   2  -9  -1   40.11    1.70
  -2   9   1   35.54    1.77
  -2   9   1   38.46    1.48
   1  -9  -1  111.15    3.50
   1  -9  -1  112.12    3.39
  -1   9   1  114.26    3.43
  -1   9   1  117.77    3.66
   0  -9  -1   14.88    0.94
   0  -9  -1   14.54    0.91
   0   9   1   15.59    0.99
   0   9   1   14.24    0.90
  -1  -9  -1  323.12    8.26
  -1  -9  -1  321.55    7.68
   1   9   1  308.03    8.33
   1   9   1  323.97    8.13
  -2  -9  -1    1.04    0.28
  -2  -9  -1    1.28    0.35
   2   9   1    0.48    0.25
   2   9   1    0.98    0.31
   2   9   1    0.56    0.27
  -3  -9  -1   28.24    1.20
  -3  -9  -1   29.51    1.47
   3   9   1   30.67    1.29
   3   9   1   29.69    1.21
   3   9   1   28.54    1.39
  -4  -9  -1   25.68    1.46
   4   9   1   25.66    1.31
  -5  -9  -1  152.68    5.00
   5   9   1  153.60    4.55
  -6  -9  -1   51.31    2.52
   6   9   1   51.66    2.07
   5 -10  -1   80.96    3.01
   4 -10  -1   77.66    2.88
   3 -10  -1   86.18    3.07
  -3  10   1   90.40    3.39
   2 -10  -1   37.31    1.72
  -2  10   1   35.66    1.86
   1 -10  -1   30.64    1.49
   1 -10  -1   30.90    1.51
  -1  10   1   29.84    1.41
  -1  10   1   29.45    1.58
   0 -10  -1   -0.07    0.21
   0 -10  -1    0.09    0.19
   0  10   1    0.09    0.21
   0  10   1    0.18    0.21
  -1 -10  -1    0.69    0.27
  -1 -10  -1    0.77    0.30
  -1 -10  -1    1.77    0.40
   1  10   1    0.63    0.27
   1  10   1    0.50    0.29
  -2 -10  -1   18.15    1.10
   2  10   1   18.63    1.04
   2  10   1   17.70    1.11
  -3 -10  -1    0.07    0.15
  -3 -10  -1    0.15    0.25
   3  10   1    0.24    0.23
  -4 -10  -1   79.24    2.33
  -4 -10  -1   86.98    3.19
  -4 -10  -1   84.31    2.34
   4  10   1   86.85    2.99
  -5 -10  -1   18.33    1.37
   5  10   1   19.00    1.20
   3 -11  -1   17.81    1.23
   2 -11  -1    8.77    0.84
  -2  11   1    7.36    0.70
  -2  11   1    7.12    0.90
   1 -11  -1  125.38    4.11
  -1  11   1  136.53    4.34
  -1  11   1  131.09    4.02
   0 -11  -1   69.90    2.56
   0  11   1   65.94    2.59
   0  11   1   65.08    2.50
  -1 -11  -1   32.48    1.50
   1  11   1   27.63    1.49
   1  11   1   29.05    1.51
   2  11   1    5.24    0.68
  -3 -11  -1   73.97    2.80
  -3 -11  -1   73.48    2.48
   3  11   1   71.93    2.76
  -4 -11  -1   32.45    1.77
  -4 -11  -1   30.41    1.11
  -4 -11  -1   29.58    1.10
   4  11   1   33.71    1.69
   1 -12  -1   19.53    1.29
  -1  12   1   20.77    1.45
   0 -12  -1   77.54    2.88
   0  12   1   78.40    3.11
   0  12   1   78.65    2.89
   1  12   1    1.81    0.49
   2  12   1   97.24    3.47
   3  11  -2    0.06    0.24
  -3 -11   2   -0.06    0.33
  -3 -11   2    0.09    0.17
   2  11  -2   49.77    2.19
   2  11  -2   44.59    2.09
  -2 -11   2   45.80    1.86
  -2 -11   2   46.99    1.90
   1  11  -2   23.73    1.39
   1  11  -2   23.94    1.48
  -1 -11   2   20.50    1.23
   0  11  -2   23.07    1.37
   0  11  -2   24.23    1.57
   0 -11   2   25.79    1.38
  -1  11  -2  104.21    3.50
  -1  11  -2  105.29    3.89
   1 -11   2  105.00    3.55
  -2  11  -2   40.14    1.68
   2 -11   2   34.76    1.79
   3 -11   2    1.25    0.44
   5  10  -2   11.80    0.99
  -5 -10   2   11.71    1.21
   4  10  -2    0.36    0.27
  -4 -10   2    0.70    0.43
   3  10  -2   30.87    1.55
   3  10  -2   29.80    1.54
  -3 -10   2   27.60    1.16
  -3 -10   2   24.60    1.56
   2  10  -2    6.30    0.70
   2  10  -2    6.95    0.77
  -2 -10   2    6.96    0.63
  -2 -10   2    6.53    0.65
   1  10  -2   31.26    1.64
   1  10  -2   30.76    1.56
   1  10  -2   31.65    1.51
  -1 -10   2   30.89    1.44
  -1 -10   2   29.30    1.38
   0  10  -2    7.26    0.70
   0  10  -2    6.80    0.79
   0  10  -2    6.68    0.71
   0 -10   2    7.50    0.71
   0 -10   2    7.69    0.73
  -1  10  -2   42.22    1.68
  -1  10  -2   35.44    1.90
  -1  10  -2   39.53    1.72
   1 -10   2   38.56    1.75
   1 -10   2   35.89    1.70
  -2  10  -2    2.73    0.64
  -2  10  -2    1.75    0.39
   2 -10   2    1.13    0.38
   3 -10   2    1.76    0.49
   4 -10   2   -0.02    0.24
   6   9  -2   22.47    1.29
  -6  -9   2   23.82    1.75
   5   9  -2  107.27    3.57
  -5  -9   2  116.36    4.22
   4   9  -2   31.53    1.53
  -4  -9   2   31.95    1.80
   3   9  -2   19.84    1.21
   3   9  -2   19.15    1.14
  -3  -9   2   20.07    0.96
  -3  -9   2   18.59    0.86
  -3  -9   2   20.17    1.29
   2   9  -2    3.99    0.59
   2   9  -2    2.42    0.47
   2   9  -2    2.72    0.47
  -2  -9   2    2.84    0.42
  -2  -9   2    3.05    0.42
   1   9  -2    3.91    0.53
   1   9  -2    4.46    0.61
   1   9  -2    3.22    0.49
  -1  -9   2    2.99    0.46
  -1  -9   2    3.17    0.43
   0   9  -2   87.99    2.98
   0   9  -2   93.13    3.17
   0   9  -2   91.44    2.81
   0  -9   2   89.82    2.83
   0  -9   2   89.22    2.92
  -1   9  -2    0.79    0.29
  -1   9  -2    0.84    0.38
  -1   9  -2    1.64    0.38
   1  -9   2    0.81    0.28
   1  -9   2    0.61    0.30
  -2   9  -2   40.56    2.06
  -2   9  -2   45.26    1.77
  -2   9  -2   47.11    1.68
   2  -9   2   42.84    1.85
   2  -9   2   46.16    1.92
  -3   9  -2    0.95    0.28
  -3   9  -2    1.38    0.49
   3  -9   2    0.93    0.33
   4  -9   2   50.26    2.12
   5  -9   2    0.28    0.26
   6   8  -2    0.15    0.20
  -6  -8   2    0.09    0.41
   5   8  -2   58.55    2.16
  -5  -8   2   56.83    2.62
   4   8  -2   22.80    1.18
   4   8  -2   22.38    1.23
  -4  -8   2   22.94    1.46
   3   8  -2   23.23    1.19
   3   8  -2   23.47    1.22
  -3  -8   2   22.53    1.34
  -3  -8   2   23.67    0.98
  -3  -8   2   22.80    0.91
   2   8  -2   -0.04    0.17
   2   8  -2    0.28    0.19
  -2  -8   2    0.22    0.17
  -2  -8   2    0.15    0.14
  -2  -8   2    0.20    0.16
   1   8  -2   46.67    1.91
   1   8  -2   41.81    1.68
   1   8  -2   49.69    1.85
  -1  -8   2   46.93    1.66
  -1  -8   2   45.90    1.67
   0   8  -2   24.25    1.12
   0   8  -2   23.06    1.16
   0   8  -2   23.94    1.31
   0  -8   2   22.32    1.12
   0  -8   2   22.27    1.10
  -1   8  -2    5.04    0.49
  -1   8  -2    4.28    0.60
  -1   8  -2    4.09    0.48
   1  -8   2    3.03    0.44
   1  -8   2    4.63    0.53
  -2   8  -2   41.39    1.59
  -2   8  -2   43.11    1.97
  -2   8  -2   40.26    1.48
   2  -8   2   41.69    1.73
   2  -8   2   40.67    1.70
  -3   8  -2   42.80    1.46
  -3   8  -2   43.07    1.58
  -3   8  -2   40.07    2.00
   3  -8   2   38.06    1.70
   3  -8   2   42.08    1.81
  -4   8  -2   94.97    3.56
   4  -8   2   93.50    3.23
   4  -8   2   96.15    3.17
   5  -8   2   85.54    2.97
   6  -8   2    4.09    0.78
   6  -8   2    6.34    0.71
   7   7  -2   13.40    0.84
  -7  -7   2   11.57    1.25
   6   7  -2   37.54    1.50
   6   7  -2   37.31    1.80
  -6  -7   2   36.27    2.09
   5   7  -2    3.43    0.50
   5   7  -2    2.57    0.40
  -5  -7   2    2.98    0.64
   4   7  -2   47.84    1.76
   4   7  -2   46.93    1.82
  -4  -7   2   46.64    2.13
   3   7  -2    7.36    0.61
   3   7  -2    8.36    0.68
  -3  -7   2    8.14    0.76
  -3  -7   2    8.22    0.41
  -3  -7   2    7.04    0.40
  -3  -7   2    7.51    0.48
   2   7  -2   27.71    1.23
   2   7  -2   27.31    1.23
  -2  -7   2   26.98    1.03
  -2  -7   2   28.31    1.12
  -2  -7   2   27.06    1.06
   1   7  -2    5.02    0.50
   1   7  -2    3.96    0.46
  -1  -7   2    5.37    0.45
  -1  -7   2    3.83    0.42
   0   7  -2   70.08    2.17
   0   7  -2   72.53    2.35
   0   7  -2   70.71    2.46
   0  -7   2   69.29    2.19
   0  -7   2   70.70    2.28
  -1   7  -2    7.12    0.54
  -1   7  -2    8.10    0.72
  -1   7  -2    6.65    0.56
   1  -7   2    5.96    0.57
   1  -7   2    8.39    0.63
  -2   7  -2   73.14    2.63
  -2   7  -2   69.50    2.07
  -2   7  -2   68.37    2.23
   2  -7   2   70.34    2.36
   2  -7   2   70.77    2.34
  -3   7  -2    2.41    0.53
  -3   7  -2    3.07    0.34
  -3   7  -2    2.16    0.30
   3  -7   2    2.77    0.43
   3  -7   2    2.39    0.45
  -4   7  -2   25.93    0.92
  -4   7  -2   22.60    1.47
   4  -7   2   24.67    1.23
   4  -7   2   26.02    1.35
  -5   7  -2    3.85    0.71
   5  -7   2    5.51    0.70
   5  -7   2    4.53    0.55
   6  -7   2    4.89    0.59
   6  -7   2    6.60    0.86
   7  -7   2   10.20    0.85
   7  -7   2    9.39    1.09
   7   6  -2   43.52    1.55
   7   6  -2   42.52    1.78
  -7  -6   2   42.14    2.35
   6   6  -2   11.47    0.68
   6   6  -2    9.73    0.79
  -6  -6   2   10.95    1.10
   5   6  -2    1.61    0.31
   5   6  -2    1.69    0.38
  -5  -6   2    2.31    0.56
   4   6  -2   52.67    1.81
   4   6  -2   56.15    1.80
   4   6  -2   54.72    1.91
  -4  -6   2   52.44    2.25
   3   6  -2   19.94    0.96
   3   6  -2   22.15    1.05
   3   6  -2   23.11    0.99
  -3  -6   2   22.31    0.69
  -3  -6   2   19.72    1.15
  -3  -6   2   21.36    0.79
   2   6  -2  168.94    4.46
   2   6  -2  159.48    4.46
   2   6  -2  163.32    4.25
  -2  -6   2  169.18    4.22
  -2  -6   2  165.78    3.98
  -2  -6   2  162.25    4.35
   1   6  -2   58.61    2.01
   1   6  -2   61.63    1.94
  -1  -6   2   64.64    1.87
  -1  -6   2   63.25    1.92
   0   6  -2   59.68    1.93
   0   6  -2   57.43    1.79
   0   6  -2   54.92    2.00
   0  -6   2   58.13    1.82
   0  -6   2   55.48    1.86
  -1   6  -2  138.03    3.90
  -1   6  -2  143.37    4.11
  -1   6  -2  143.69    3.59
   1  -6   2  140.78    3.74
   1  -6   2  142.61    3.93
  -2   6  -2   14.50    0.95
  -2   6  -2   13.23    0.71
  -2   6  -2   13.53    0.67
   2  -6   2   13.80    0.79
   2  -6   2   13.66    0.82
  -3   6  -2   66.17    2.56
  -3   6  -2   71.06    1.93
  -3   6  -2   72.19    2.08
   3  -6   2   69.15    2.30
   3  -6   2   70.21    2.30
  -4   6  -2    4.78    0.33
  -4   6  -2    4.54    0.66
   4  -6   2    5.21    0.58
   4  -6   2    5.19    0.51
  -5   6  -2   23.32    1.46
   5  -6   2   19.51    1.17
   5  -6   2   20.54    1.06
  -6   6  -2    1.26    0.48
   6  -6   2    1.99    0.48
   6  -6   2    1.41    0.36
   6  -6   2    1.64    0.51
   7  -6   2    4.26    0.76
   7  -6   2    6.43    0.64
  -8  -5   2    3.73    0.87
   7   5  -2    1.49    0.25
   7   5  -2    1.35    0.37
  -7  -5   2    2.02    0.66
   6   5  -2   30.08    1.08
   6   5  -2   31.97    1.38
   6   5  -2   31.16    1.40
  -6  -5   2   29.89    1.80
   5   5  -2   48.40    1.55
   5   5  -2   45.98    1.69
   5   5  -2   46.47    1.50
  -5  -5   2   45.96    2.14
   4   5  -2   71.78    2.04
   4   5  -2   69.76    2.07
   4   5  -2   68.29    2.17
  -4  -5   2   68.07    2.61
   3   5  -2    1.26    0.28
   3   5  -2    1.21    0.23
   3   5  -2    0.89    0.19
  -3  -5   2    0.89    0.16
  -3  -5   2    1.54    0.35
   2   5  -2   76.32    2.27
   2   5  -2   81.62    2.32
   2   5  -2   77.53    2.33
  -2  -5   2   78.31    2.04
  -2  -5   2   76.00    2.19
  -2  -5   2   78.82    1.95
  -2  -5   2   82.04    2.12
   1   5  -2    2.94    0.34
   1   5  -2    2.97    0.32
   1   5  -2    2.49    0.30
  -1  -5   2    2.73    0.29
  -1  -5   2    2.67    0.27
   0   5  -2   20.00    0.92
   0   5  -2   22.13    0.90
   0   5  -2   25.42    0.98
   0  -5   2   22.00    0.91
   0  -5   2   23.62    0.95
  -1   5  -2  222.31    5.18
  -1   5  -2  219.71    5.77
  -1   5  -2  223.46    5.68
   1  -5   2  211.82    5.67
   1  -5   2  225.65    5.33
  -2   5  -2   50.80    1.51
  -2   5  -2   52.42    1.67
  -2   5  -2   53.50    1.96
   2  -5   2   54.19    1.77
   2  -5   2   54.82    1.80
   2  -5   2   51.74    1.75
  -3   5  -2   22.81    1.27
  -3   5  -2   26.52    0.87
  -3   5  -2   25.99    0.92
   3  -5   2   26.29    1.11
   3  -5   2   25.43    1.08
   3  -5   2   26.89    1.18
  -4   5  -2   13.87    1.00
  -4   5  -2   14.31    0.53
   4  -5   2   13.91    0.87
   4  -5   2   14.97    0.81
   4  -5   2   13.31    0.76
  -5   5  -2   61.27    2.50
   5  -5   2   61.84    2.39
   5  -5   2   61.53    2.21
   5  -5   2   62.72    2.07
  -6   5  -2    2.85    0.59
   6  -5   2    2.13    0.46
   6  -5   2    1.99    0.35
   6  -5   2    1.31    0.45
  -7   5  -2  116.79    4.28
   7  -5   2  117.03    3.52
   7  -5   2  118.72    4.08
   7  -5   2  121.12    3.77
  -8  -4   2   47.83    2.61
   7   4  -2   42.36    1.63
  -7  -4   2   45.37    2.37
   6   4  -2   90.59    2.69
   6   4  -2   92.65    2.92
  -6  -4   2   90.19    3.47
   5   4  -2   71.08    1.75
   5   4  -2   70.98    1.86
   5   4  -2   68.72    2.27
   5   4  -2   72.85    2.20
  -5  -4   2   68.77    2.75
   4   4  -2   29.40    0.92
   4   4  -2   25.26    1.09
   4   4  -2   29.44    0.94
  -4  -4   2   27.76    1.43
   3   4  -2    4.80    0.34
   3   4  -2    5.66    0.45
   3   4  -2    5.68    0.35
  -3  -4   2    4.16    0.50
   2   4  -2    0.53    0.18
   2   4  -2    0.66    0.18
   2   4  -2    0.66    0.16
  -2  -4   2    0.36    0.08
  -2  -4   2    0.15    0.09
  -2  -4   2    0.30    0.08
  -2  -4   2    0.31    0.10
   1   4  -2    2.28    0.27
   1   4  -2    2.96    0.28
   1   4  -2    2.19    0.27
  -1  -4   2    2.73    0.26
  -1  -4   2    2.68    0.25
  -1  -4   2    2.28    0.25
  -1  -4   2    2.93    0.26
   0   4  -2  114.93    2.92
   0   4  -2  112.77    3.16
   0   4  -2  121.30    3.16
   0  -4   2  115.86    3.13
   0  -4   2  118.57    3.16
   0  -4   2  118.79    2.94
  -1   4  -2    0.04    0.10
  -1   4  -2    0.85    0.25
  -1   4  -2    0.36    0.13
  -1   4  -2    0.28    0.12
   1  -4   2    0.36    0.14
   1  -4   2    0.40    0.14
   1  -4   2    0.21    0.14
  -2   4  -2    3.32    0.27
  -2   4  -2    3.40    0.30
  -2   4  -2    4.12    0.31
  -2   4  -2    3.92    0.46
   2  -4   2    3.63    0.38
   2  -4   2    4.07    0.36
   2  -4   2    3.76    0.34
  -3   4  -2  109.47    2.63
  -3   4  -2  115.49    2.83
  -3   4  -2  105.38    3.33
   3  -4   2  115.01    3.10
   3  -4   2  107.54    3.05
   3  -4   2  108.87    3.02
  -4   4  -2    1.17    0.14
  -4   4  -2    1.26    0.39
   4  -4   2    1.60    0.36
   4  -4   2    1.09    0.23
   4  -4   2    1.26    0.24
   4  -4   2    1.75    0.35
  -5   4  -2    0.95    0.36
   5  -4   2    0.50    0.19
   5  -4   2    0.73    0.28
   5  -4   2    0.20    0.14
   5  -4   2    0.46    0.28
  -6   4  -2   34.98    1.76
   6  -4   2   35.62    1.53
   6  -4   2   33.10    1.69
   6  -4   2   32.03    1.27
  -7   4  -2   31.98    1.77
   7  -4   2   28.43    1.65
   7  -4   2   31.66    1.27
   7  -4   2   30.60    1.48
   8  -4   2    0.28    0.19
   8  -4   2    0.07    0.32
  -8  -3   2   18.48    1.55
   7   3  -2   17.57    0.90
  -7  -3   2   16.49    1.37
   6   3  -2   33.11    1.10
   6   3  -2   31.95    1.25
   6   3  -2   32.81    1.46
  -6  -3   2   31.00    1.75
   5   3  -2   11.37    0.74
   5   3  -2   11.66    0.66
   5   3  -2   11.96    0.50
  -5  -3   2   11.01    0.94
   4   3  -2   50.79    1.59
   4   3  -2   50.93    1.28
  -4  -3   2   49.36    2.01
   3   3  -2   71.69    1.84
   3   3  -2   73.24    2.01
   3   3  -2   69.95    1.85
  -3  -3   2   70.39    2.41
   2   3  -2   12.31    0.49
   2   3  -2   10.85    0.49
   2   3  -2   11.82    0.58
  -2  -3   2   11.39    0.41
   1   3  -2  149.05    3.78
   1   3  -2  141.67    3.78
   1   3  -2  150.18    3.57
  -1  -3   2  158.47    3.74
  -1  -3   2  147.43    3.71
  -1  -3   2  145.32    3.80
  -1  -3   2  147.48    3.42
   0   3  -2   56.13    1.61
   0   3  -2   53.85    1.62
   0   3  -2   52.40    1.50
   0  -3   2   55.98    1.60
   0  -3   2   54.87    1.52
   0  -3   2   53.67    1.52
   0  -3   2   57.22    1.62
  -1   3  -2  113.56    2.75
  -1   3  -2  114.67    3.13
  -1   3  -2  112.01    3.02
  -1   3  -2  117.02    3.01
   1  -3   2  114.92    2.76
   1  -3   2  121.87    3.09
   1  -3   2  109.77    3.02
  -2   3  -2  115.96    2.77
  -2   3  -2  114.09    3.04
  -2   3  -2  121.80    3.05
  -2   3  -2  116.36    3.30
   2  -3   2  121.24    3.17
   2  -3   2  118.52    3.14
   2  -3   2  118.63    2.78
  -3   3  -2  393.43    8.59
  -3   3  -2  386.39    9.71
   3  -3   2  399.85    9.63
   3  -3   2  396.17    9.60
   3  -3   2  389.20    8.59
   3  -3   2  405.12    9.72
  -4   3  -2  135.09    4.12
   4  -3   2  146.41    3.78
   4  -3   2  139.28    4.04
   4  -3   2  149.12    4.17
   4  -3   2  145.13    3.78
   4  -3   2  150.58    3.82
  -5   3  -2  145.78    4.31
   5  -3   2  142.70    4.20
   5  -3   2  143.25    3.79
   5  -3   2  148.74    3.84
   5  -3   2  139.73    3.83
  -6   3  -2   72.69    2.72
   6  -3   2   71.85    2.66
   6  -3   2   76.45    2.41
   6  -3   2   74.09    2.18
  -7   3  -2    5.76    0.74
   7  -3   2    7.65    0.70
   7  -3   2    7.22    0.50
   7  -3   2    7.33    0.82
  -8   3  -2   12.45    1.11
   8  -3   2   11.92    0.70
   8  -3   2   12.10    1.10
   8  -3   2   12.05    0.92
  -8  -2   2   15.47    1.41
   7   2  -2    0.73    0.24
   7   2  -2    0.48    0.19
  -7  -2   2    0.58    0.39
   6   2  -2   33.48    1.19
   6   2  -2   32.97    1.47
   6   2  -2   31.84    1.16
  -6  -2   2   27.42    1.65
   5   2  -2    6.83    0.47
   5   2  -2    6.96    0.42
   5   2  -2    6.44    0.56
  -5  -2   2    6.89    0.73
   4   2  -2    9.60    0.53
   4   2  -2    9.75    0.43
   4   2  -2    9.66    0.62
  -4  -2   2    9.78    0.77
   3   2  -2   44.76    1.33
   3   2  -2   43.96    1.10
  -3  -2   2   41.99    1.64
   2   2  -2    8.27    0.44
   2   2  -2    8.15    0.31
   2   2  -2    8.35    0.31
  -2  -2   2    8.60    0.27
  -2  -2   2    8.13    0.44
  -2  -2   2    8.85    0.56
   1   2  -2    0.80    0.13
   1   2  -2    0.86    0.14
   1   2  -2    0.87    0.17
   1   2  -2    0.66    0.13
  -1  -2   2    0.99    0.12
  -1  -2   2    1.14    0.18
  -1  -2   2    1.08    0.12
  -1  -2   2    0.89    0.13
  -1  -2   2    0.94    0.09
   0   2  -2  272.32    6.05
   0   2  -2  279.61    6.58
   0   2  -2  257.92    6.59
   0  -2   2  282.89    6.60
   0  -2   2  265.38    6.04
   0  -2   2  271.13    6.57
   0  -2   2  277.35    6.25
   0  -2   2  265.65    6.70
  -1   2  -2  391.86    9.06
  -1   2  -2  366.99    9.06
  -1   2  -2  370.28    8.25
   1  -2   2  383.69    8.26
   1  -2   2  374.70    9.07
   1  -2   2  375.74    8.73
   1  -2   2  379.67    9.09
  -2   2  -2    6.57    0.32
  -2   2  -2    6.72    0.31
  -2   2  -2    7.22    0.33
   2  -2   2    6.35    0.45
   2  -2   2    5.97    0.35
   2  -2   2    6.73    0.38
   2  -2   2    7.13    0.31
  -3   2  -2    7.96    0.58
   3  -2   2    9.01    0.43
   3  -2   2    7.48    0.31
   3  -2   2    8.03    0.57
   3  -2   2    7.39    0.40
   3  -2   2    7.67    0.56
  -4   2  -2   10.67    0.73
   4  -2   2   11.07    0.73
   4  -2   2   11.66    0.52
   4  -2   2   10.50    0.72
   4  -2   2   11.67    0.51
   4  -2   2   11.06    0.36
  -5   2  -2   31.05    1.44
   5  -2   2   32.24    1.44
   5  -2   2   32.20    1.05
   5  -2   2   32.33    1.45
   5  -2   2   33.76    1.08
  -6   2  -2   32.06    1.54
   6  -2   2   31.80    1.06
   6  -2   2   29.41    1.49
   6  -2   2   30.02    1.29
  -7   2  -2   19.75    1.26
   7  -2   2   19.84    1.26
   7  -2   2   18.62    1.03
   7  -2   2   20.95    0.82
  -8   2  -2    3.00    0.64
   8  -2   2    3.99    0.70
   8  -2   2    2.98    0.50
   8  -2   2    3.52    0.36
   8   1  -2   14.02    0.92
  -8  -1   2   10.54    1.18
   7   1  -2    7.77    0.49
   7   1  -2    6.85    0.59
  -7  -1   2    7.91    0.94
   6   1  -2   -0.14    0.11
   6   1  -2    0.15    0.12
  -6  -1   2    0.08    0.24
   5   1  -2   64.42    1.91
   5   1  -2   67.48    2.23
   5   1  -2   62.48    1.79
  -5  -1   2   66.11    2.51
   4   1  -2   54.28    1.87
   4   1  -2   59.11    1.60
   4   1  -2   58.45    1.64
  -4  -1   2   56.57    2.13
   3   1  -2  572.98   12.41
   3   1  -2  569.83   13.35
  -3  -1   2  564.71   12.41
  -3  -1   2  567.52   14.28
   2   1  -2    0.10    0.08
  -2  -1   2    0.44    0.16
  -2  -1   2    0.37    0.11
   1   1  -2  457.18   11.01
   1   1  -2  472.48   10.29
   1   1  -2  455.66   10.87
   1   1  -2  441.32   10.84
   1   1  -2  456.37    9.98
   1   1  -2  449.31   10.87
  -1  -1   2  452.07   11.05
  -1  -1   2  467.40   10.29
  -1  -1   2  473.71   10.79
   0   1  -2  228.16    5.01
   0   1  -2  225.36    5.55
   0   1  -2  217.91    5.45
   0   1  -2  228.72    5.18
   0   1  -2  223.03    5.44
   0  -1   2  225.41    5.17
   0  -1   2  233.57    5.45
   0  -1   2  225.51    5.01
   0  -1   2  218.39    5.42
   0  -1   2  225.46    5.54
  -1   1  -2   89.93    2.32
  -1   1  -2   88.62    2.11
  -1   1  -2   94.65    2.31
  -1   1  -2   89.82    2.31
   1  -1   2   90.17    2.33
   1  -1   2   89.07    2.30
   1  -1   2   87.48    2.11
   1  -1   2   89.61    2.32
  -2   1  -2  543.42   11.75
  -2   1  -2  573.55   12.86
  -2   1  -2  536.82   12.64
   2  -1   2  534.85   12.95
   2  -1   2  515.04   12.42
   2  -1   2  551.93   12.92
   2  -1   2  533.39   11.75
  -3   1  -2  215.86    5.47
   3  -1   2  219.79    5.43
   3  -1   2  218.18    5.30
   3  -1   2  215.32    4.81
   3  -1   2  219.11    5.32
   3  -1   2  220.38    5.47
  -4   1  -2    1.22    0.28
   4  -1   2    1.33    0.15
   4  -1   2    1.57    0.28
   4  -1   2    1.18    0.29
   4  -1   2    1.21    0.15
   4  -1   2    1.39    0.14
  -5   1  -2   22.31    1.13
   5  -1   2   23.25    0.67
   5  -1   2   25.10    0.79
   5  -1   2   24.25    0.77
   5  -1   2   24.68    1.19
   5  -1   2   24.03    1.15
  -6   1  -2   42.60    1.79
   6  -1   2   44.86    1.30
   6  -1   2   45.86    1.83
   6  -1   2   43.51    1.28
   6  -1   2   46.37    1.86
  -7   1  -2    5.04    0.64
   7  -1   2    5.81    0.35
   7  -1   2    6.48    0.72
   7  -1   2    5.37    0.54
  -8   1  -2   14.16    1.11
   8  -1   2   16.06    0.69
   8  -1   2   13.88    1.11
   8   0  -2    0.27    0.24
   7   0  -2    6.10    0.59
  -7   0   2    6.11    0.84
   6   0  -2    0.38    0.12
   6   0  -2    0.54    0.24
   6   0  -2    0.32    0.11
  -6   0   2    0.44    0.33
   5   0  -2  174.94    4.73
   5   0  -2  170.22    3.96
   5   0  -2  165.97    3.86
  -5   0   2  169.78    5.10
   4   0  -2   13.99    0.48
   4   0  -2   13.49    0.77
   4   0  -2   13.99    0.55
  -4   0   2   16.39    0.94
   3   0  -2   13.17    0.69
   3   0  -2   13.73    0.51
  -3   0   2   13.55    0.52
  -3   0   2   13.65    0.77
  -3   0   2   13.90    0.45
   2   0  -2  185.73    4.10
   2   0  -2  187.45    4.76
   2   0  -2  164.13    4.48
  -2   0   2  181.92    3.98
  -2   0   2  182.74    4.11
  -2   0   2  189.01    4.81
   1   0  -2    5.78    0.24
   1   0  -2    5.40    0.28
   1   0  -2    5.48    0.21
   1   0  -2    5.40    0.21
  -1   0   2    5.60    0.28
   0   0  -2  388.51    8.62
   0   0  -2  380.96    9.13
   0   0  -2  383.76    9.04
   0   0  -2  378.28    8.27
   0   0  -2  364.52    9.29
   0   0  -2  383.11    9.12
   0   0   2  401.05    8.74
   0   0   2  385.85    9.11
   0   0   2  388.21    8.40
   0   0   2  363.42    9.28
   0   0   2  374.78    9.02
  -1   0  -2    3.33    0.21
  -1   0  -2    3.28    0.20
  -1   0  -2    3.61    0.23
  -1   0  -2    3.74    0.27
   1   0   2    3.34    0.23
   1   0   2    3.33    0.21
   1   0   2    3.44    0.23
   1   0   2    3.31    0.21
  -2   0  -2   82.17    2.18
  -2   0  -2   78.84    2.11
   2   0   2   79.44    2.04
   2   0   2   78.12    2.15
   2   0   2   80.31    2.06
  -3   0  -2    5.64    0.40
   3   0   2    5.39    0.38
   3   0   2    4.82    0.24
   3   0   2    5.28    0.25
   3   0   2    4.67    0.41
  -4   0  -2  126.99    3.47
   4   0   2  131.19    3.15
   4   0   2  128.74    3.49
   4   0   2  129.90    3.16
   4   0   2  128.13    3.53
  -5   0  -2   49.26    1.73
   5   0   2   46.58    1.76
   5   0   2   48.78    1.72
  -6   0  -2  154.01    4.36
   6   0   2  154.39    4.39
   6   0   2  157.98    4.39
  -7   0  -2  148.74    4.38
   7   0   2  151.15    4.43
  -8   0  -2  117.37    3.74
   8   0   2  114.13    3.77
   9   0   2    3.55    0.67
   8  -1  -2    2.40    0.50
   7  -1  -2   90.02    2.95
   7  -1  -2   91.18    2.51
   6  -1  -2   30.39    0.88
   6  -1  -2   29.86    1.03
  -6   1   2   31.15    1.66
   5  -1  -2   84.49    2.71
   5  -1  -2   78.77    2.09
   5  -1  -2   79.36    1.98
  -5   1   2   83.41    2.67
  -5   1   2   83.56    2.90
   4  -1  -2   62.44    2.09
   4  -1  -2   61.51    1.54
   4  -1  -2   61.00    1.62
  -4   1   2   62.60    2.05
  -4   1   2   61.23    2.18
  -4   1   2   60.50    1.54
   3  -1  -2  180.04    4.02
   3  -1  -2  173.91    3.97
   3  -1  -2  180.20    4.62
  -3   1   2  178.10    4.84
  -3   1   2  173.65    4.56
  -3   1   2  176.10    4.04
  -3   1   2  176.83    3.98
   2  -1  -2  897.94   20.89
   2  -1  -2  837.13   18.32
   2  -1  -2  834.77   18.15
   2  -1  -2  838.05   19.45
  -2   1   2  820.19   18.28
  -2   1   2  849.85   20.54
  -2   1   2  846.92   18.42
  -2   1   2  820.93   19.42
   1  -1  -2    3.89    0.29
   1  -1  -2    3.63    0.22
   1  -1  -2    3.74    0.19
   1  -1  -2    4.19    0.19
  -1   1   2    3.46    0.22
  -1   1   2    3.75    0.25
   0  -1  -2    6.27    0.31
   0  -1  -2    6.52    0.30
   0  -1  -2    7.46    0.31
   0   1   2    6.72    0.30
   0   1   2    6.73    0.30
  -1  -1  -2   20.31    0.70
  -1  -1  -2   20.31    0.65
  -1  -1  -2   20.79    0.64
  -1  -1  -2   18.84    0.66
   1   1   2   20.45    0.67
   1   1   2   21.55    0.67
   1   1   2   19.55    0.65
   1   1   2   20.22    0.68
  -2  -1  -2  404.85    9.36
  -2  -1  -2  416.61    9.40
   2   1   2  421.54   10.15
   2   1   2  407.17    9.65
   2   1   2  402.19    9.82
   2   1   2  397.14    9.72
   2   1   2  393.86    9.36
  -3  -1  -2   16.45    0.65
  -3  -1  -2   16.56    0.76
   3   1   2   16.93    0.55
   3   1   2   16.21    0.74
   3   1   2   17.59    0.66
   3   1   2   16.35    0.53
  -4  -1  -2   92.87    2.54
   4   1   2   91.01    2.64
   4   1   2   92.48    2.55
  -5  -1  -2    3.53    0.38
   5   1   2    3.11    0.41
   5   1   2    3.87    0.39
  -6  -1  -2    1.57    0.33
   6   1   2    2.30    0.37
   6   1   2    2.73    0.44
  -7  -1  -2    0.41    0.24
   7   1   2    0.33    0.27
   7   1   2    0.15    0.20
   8   1   2   39.78    1.84
   9   1   2    1.03    0.42
   8  -2  -2    7.92    0.82
   7  -2  -2    9.53    0.60
   7  -2  -2    9.16    0.81
  -7   2   2    8.77    0.87
   6  -2  -2    1.53    0.27
  -6   2   2    1.16    0.37
   5  -2  -2   57.22    1.69
   5  -2  -2   57.73    2.20
  -5   2   2   56.30    2.11
   4  -2  -2    0.07    0.14
   4  -2  -2    0.22    0.12
  -4   2   2    0.00    0.17
  -4   2   2    0.57    0.17
  -4   2   2    0.57    0.23
  -4   2   2    0.20    0.07
   3  -2  -2    2.76    0.36
   3  -2  -2    3.08    0.27
  -3   2   2    2.56    0.26
  -3   2   2    3.11    0.36
  -3   2   2    2.61    0.34
  -3   2   2    2.96    0.19
   2  -2  -2  525.22   11.54
   2  -2  -2  548.55   13.09
   2  -2  -2  509.72   12.50
   2  -2  -2  542.12   12.54
   2  -2  -2  537.54   12.59
  -2   2   2  539.62   13.10
  -2   2   2  524.09   11.56
  -2   2   2  532.05   11.48
  -2   2   2  528.84   12.51
   1  -2  -2  104.32    2.74
   1  -2  -2  106.59    2.66
   1  -2  -2  101.20    2.64
   1  -2  -2  109.56    2.70
  -1   2   2  102.54    2.51
  -1   2   2  109.28    2.60
  -1   2   2  106.74    2.60
  -1   2   2  106.25    2.70
  -1   2   2   99.48    2.71
   0  -2  -2   26.62    0.84
   0  -2  -2   25.43    0.79
   0   2   2   26.34    0.79
   0   2   2   26.45    0.82
   0   2   2   26.51    0.83
  -1  -2  -2  357.15    8.45
  -1  -2  -2  359.54    8.04
  -1  -2  -2  332.70    8.62
  -1  -2  -2  349.81    8.46
   1   2   2  354.12    8.48
   1   2   2  371.19    8.50
   1   2   2  346.90    8.13
   1   2   2  359.51    8.67
  -2  -2  -2  332.05    8.12
  -2  -2  -2  344.47    7.93
  -2  -2  -2  345.75    7.84
   2   2   2  314.59    8.04
   2   2   2  334.38    7.81
   2   2   2  334.61    8.43
   2   2   2  344.14    8.22
   2   2   2  334.80    8.04
  -3  -2  -2   63.65    1.63
  -3  -2  -2   62.86    1.86
   3   2   2   62.71    1.67
   3   2   2   62.55    1.68
   3   2   2   60.94    1.83
   3   2   2   63.29    1.64
  -4  -2  -2  474.65   10.94
   4   2   2  478.53   11.12
   4   2   2  466.00   11.10
   4   2   2  466.88   10.96
   4   2   2  460.41   10.98
  -5  -2  -2   75.50    2.16
   5   2   2   75.96    2.20
   5   2   2   76.12    1.92
   5   2   2   69.42    2.28
   6   2   2   28.10    1.29
   6   2   2   29.45    1.21
   7   2   2    3.93    0.53
   7   2   2    3.28    0.46
   8   2   2   33.94    1.61
   9   2   2    5.64    0.74
   8  -3  -2   77.31    2.94
   7  -3  -2    1.23    0.31
  -7   3   2    0.44    0.34
   6  -3  -2    1.58    0.32
  -6   3   2    1.98    0.47
   5  -3  -2    0.80    0.23
  -5   3   2    0.12    0.23
   4  -3  -2    4.73    0.24
   4  -3  -2    5.13    0.54
   4  -3  -2    4.33    0.38
   4  -3  -2    4.93    0.24
  -4   3   2    5.37    0.42
  -4   3   2    4.78    0.52
  -4   3   2    4.95    0.23
   3  -3  -2    0.37    0.19
   3  -3  -2    0.39    0.15
   3  -3  -2    0.20    0.08
   3  -3  -2    0.26    0.08
  -3   3   2    0.29    0.15
  -3   3   2    0.20    0.08
  -3   3   2    0.43    0.21
   2  -3  -2  208.62    5.07
   2  -3  -2  209.81    5.27
   2  -3  -2  197.67    5.06
   2  -3  -2  205.67    4.79
   2  -3  -2  212.64    5.31
  -2   3   2  199.86    5.22
  -2   3   2  209.60    4.81
   1  -3  -2    2.01    0.23
   1  -3  -2    2.38    0.22
   1  -3  -2    2.55    0.22
   1  -3  -2    2.10    0.26
   1  -3  -2    2.54    0.18
  -1   3   2    2.22    0.19
  -1   3   2    2.42    0.20
  -1   3   2    2.60    0.28
   0  -3  -2    0.73    0.15
   0  -3  -2    0.95    0.17
   0  -3  -2    1.16    0.16
   0   3   2    0.91    0.16
   0   3   2    0.85    0.15
   0   3   2    1.34    0.19
   0   3   2    0.63    0.14
  -1  -3  -2    2.03    0.20
  -1  -3  -2    1.73    0.17
  -1  -3  -2    2.22    0.24
  -1  -3  -2    2.03    0.14
  -1  -3  -2    1.95    0.20
   1   3   2    1.63    0.19
   1   3   2    2.37    0.24
   1   3   2    2.09    0.14
   1   3   2    1.95    0.21
   1   3   2    1.92    0.17
  -2  -3  -2   59.43    1.75
  -2  -3  -2   60.31    1.85
  -2  -3  -2   63.33    1.63
  -2  -3  -2   60.16    1.70
  -2  -3  -2   61.99    1.64
   2   3   2   62.35    1.73
   2   3   2   59.28    1.71
   2   3   2   60.08    1.83
   2   3   2   60.79    1.72
  -3  -3  -2    5.05    0.40
  -3  -3  -2    5.09    0.46
   3   3   2    4.75    0.31
   3   3   2    4.85    0.31
   3   3   2    5.19    0.22
   3   3   2    4.72    0.33
   3   3   2    4.49    0.37
  -4  -3  -2   95.14    3.09
   4   3   2   93.98    2.53
   4   3   2   98.82    2.55
   4   3   2   96.50    2.69
   4   3   2   99.56    2.49
  -5  -3  -2   59.17    2.35
   5   3   2   60.37    1.70
   5   3   2   62.99    1.72
   5   3   2   61.75    1.98
   5   3   2   61.28    1.81
   6   3   2    0.17    0.10
   6   3   2    0.19    0.20
   6   3   2    0.21    0.10
   6   3   2    0.05    0.14
   7   3   2  159.01    4.06
   7   3   2  162.17    4.51
   8   3   2   10.42    0.54
   8   3   2   10.65    0.86
   8  -4  -2   45.12    1.47
   8  -4  -2   45.01    2.17
   7  -4  -2    9.50    0.50
   7  -4  -2    8.93    0.70
  -7   4   2    8.00    0.90
   6  -4  -2   41.80    1.56
   6  -4  -2   40.63    1.29
  -6   4   2   42.37    1.97
   5  -4  -2   34.45    1.35
   5  -4  -2   35.48    1.13
   5  -4  -2   36.99    1.15
  -5   4   2   32.29    1.62
   4  -4  -2  118.50    3.10
   4  -4  -2  115.15    3.09
   4  -4  -2  115.61    3.15
   4  -4  -2  123.28    3.67
  -4   4   2  119.75    3.61
  -4   4   2  120.00    2.70
  -4   4   2  116.62    3.17
   3  -4  -2    5.00    0.34
   3  -4  -2    5.22    0.53
   3  -4  -2    4.81    0.42
   3  -4  -2    4.28    0.32
  -3   4   2    4.70    0.43
  -3   4   2    4.06    0.47
   2  -4  -2  504.04   11.31
   2  -4  -2  522.23   12.27
   2  -4  -2  519.67   12.60
   2  -4  -2  501.59   12.27
   2  -4  -2  502.26   12.21
  -2   4   2  521.70   12.07
  -2   4   2  509.31   11.34
  -2   4   2  504.09   12.20
   1  -4  -2  156.98    4.15
   1  -4  -2  167.01    4.17
   1  -4  -2  155.28    3.88
   1  -4  -2  159.94    4.18
  -1   4   2  160.62    4.17
  -1   4   2  158.45    3.90
  -1   4   2  168.22    4.11
  -1   4   2  166.84    4.10
   0  -4  -2  358.01    9.01
   0  -4  -2  373.32    8.75
   0  -4  -2  381.86    9.03
   0   4   2  379.32    9.02
   0   4   2  365.43    8.27
   0   4   2  371.38    8.73
   0   4   2  365.57    9.00
  -1  -4  -2   27.56    0.97
  -1  -4  -2   26.98    0.95
  -1  -4  -2   27.90    0.96
  -1  -4  -2   26.73    0.89
   1   4   2   29.11    0.96
   1   4   2   26.91    0.83
   1   4   2   26.57    0.97
  -2  -4  -2   77.49    2.26
  -2  -4  -2   78.81    2.18
  -2  -4  -2   88.26    2.22
  -2  -4  -2   81.67    2.38
  -2  -4  -2   85.16    2.27
   2   4   2   84.84    2.36
   2   4   2   78.81    2.21
   2   4   2   78.18    2.27
   2   4   2   81.24    2.29
  -3  -4  -2   57.00    1.55
  -3  -4  -2   57.05    1.98
   3   4   2   60.90    1.77
   3   4   2   58.86    1.75
   3   4   2   61.04    1.76
  -4  -4  -2   38.42    1.62
   4   4   2   40.02    1.27
   4   4   2   39.29    1.35
   4   4   2   38.29    1.25
   4   4   2   39.34    1.08
  -5  -4  -2   40.72    1.84
   5   4   2   39.55    1.46
   5   4   2   41.70    1.33
   5   4   2   42.24    1.27
   5   4   2   42.42    1.33
  -6  -4  -2   17.13    1.22
   6   4   2   17.82    0.73
   6   4   2   16.82    0.78
   6   4   2   16.11    0.89
   7   4   2   23.51    1.15
   7   4   2   20.63    0.85
   8   4   2    2.28    0.31
   8   4   2    2.88    0.48
   8  -5  -2   13.61    0.77
   7  -5  -2    6.43    0.50
   7  -5  -2    5.95    0.64
   6  -5  -2   27.79    1.11
   6  -5  -2   30.65    1.35
  -6   5   2   29.92    1.66
   5  -5  -2    0.56    0.24
   5  -5  -2    0.02    0.11
  -5   5   2   -0.15    0.18
   4  -5  -2   51.17    1.59
   4  -5  -2   48.04    1.68
   4  -5  -2   47.12    1.57
  -4   5   2   48.72    1.72
  -4   5   2   47.84    1.97
  -4   5   2   46.12    1.25
   3  -5  -2    6.76    0.45
   3  -5  -2    6.86    0.63
   3  -5  -2    6.52    0.45
   3  -5  -2    5.79    0.50
  -3   5   2    6.54    0.53
  -3   5   2    5.84    0.60
   2  -5  -2   97.01    2.75
   2  -5  -2   98.90    2.76
   2  -5  -2   95.28    2.66
   2  -5  -2   99.18    2.96
   2  -5  -2   93.83    2.73
  -2   5   2   97.21    2.69
  -2   5   2   98.55    2.57
  -2   5   2   92.77    2.90
  -2   5   2  101.36    2.58
   1  -5  -2  297.40    7.06
   1  -5  -2  316.85    7.66
   1  -5  -2  306.53    7.57
   1  -5  -2  295.13    7.63
  -1   5   2  309.91    7.10
  -1   5   2  315.92    7.59
  -1   5   2  308.84    7.57
  -1   5   2  304.98    7.55
   0  -5  -2    0.23    0.14
   0  -5  -2    0.19    0.13
   0  -5  -2    0.09    0.11
   0  -5  -2    0.32    0.13
   0   5   2    0.46    0.15
   0   5   2    0.58    0.17
   0   5   2    0.08    0.11
   0   5   2    0.29    0.13
  -1  -5  -2  142.31    3.87
  -1  -5  -2  145.39    3.85
  -1  -5  -2  159.55    3.93
   1   5   2  143.96    3.91
   1   5   2  148.69    3.64
   1   5   2  147.62    3.68
  -2  -5  -2    3.69    0.35
  -2  -5  -2    3.89    0.31
  -2  -5  -2    3.84    0.34
  -2  -5  -2    3.94    0.31
   2   5   2    4.59    0.38
   2   5   2    3.54    0.34
   2   5   2    4.50    0.36
   2   5   2    4.27    0.24
  -3  -5  -2  149.69    3.91
  -3  -5  -2  158.86    3.72
  -3  -5  -2  151.16    4.33
   3   5   2  151.07    3.90
   3   5   2  151.74    3.71
   3   5   2  154.34    4.07
   3   5   2  153.85    4.06
  -4  -5  -2    0.20    0.21
   4   5   2    0.32    0.16
   4   5   2    0.33    0.14
   4   5   2    0.46    0.16
   4   5   2    0.49    0.16
  -5  -5  -2  206.79    6.13
   5   5   2  212.18    5.34
   5   5   2  212.07    5.02
   5   5   2  204.34    5.39
   5   5   2  217.49    5.42
  -6  -5  -2   80.10    3.08
   6   5   2   80.47    2.36
   6   5   2   78.03    2.43
  -7  -5  -2  101.11    3.82
   7   5   2   97.29    2.84
   7   5   2   99.24    2.99
   8   5   2    3.28    0.40
   7  -6  -2   12.85    0.79
   7  -6  -2   11.55    0.91
   6  -6  -2   99.52    3.03
   6  -6  -2   92.35    2.86
  -6   6   2   93.70    3.51
   5  -6  -2    6.80    0.54
   5  -6  -2    5.75    0.61
  -5   6   2    8.70    0.85
   4  -6  -2   11.66    0.79
   4  -6  -2   13.09    0.73
   4  -6  -2   13.28    0.74
  -4   6   2   12.16    0.96
   3  -6  -2    4.96    0.49
   3  -6  -2    3.89    0.40
   3  -6  -2    4.07    0.42
  -3   6   2    3.84    0.53
   2  -6  -2   22.42    1.14
   2  -6  -2   20.79    0.99
   2  -6  -2   24.02    1.02
   2  -6  -2   21.39    0.98
  -2   6   2   23.49    0.88
  -2   6   2   23.00    1.15
  -2   6   2   22.17    1.04
   1  -6  -2    2.36    0.36
   1  -6  -2    2.05    0.32
   1  -6  -2    1.60    0.27
  -1   6   2    2.46    0.36
  -1   6   2    1.71    0.26
  -1   6   2    2.06    0.32
   0  -6  -2    3.28    0.35
   0  -6  -2    2.51    0.33
   0  -6  -2    2.10    0.30
   0   6   2    2.88    0.33
   0   6   2    3.05    0.35
   0   6   2    2.59    0.34
  -1  -6  -2  178.17    4.75
  -1  -6  -2  184.63    4.74
   1   6   2  185.85    4.46
   1   6   2  183.62    4.56
   1   6   2  175.27    4.79
  -2  -6  -2   55.01    1.83
  -2  -6  -2   56.83    1.74
   2   6   2   54.00    1.56
   2   6   2   57.84    1.73
   2   6   2   59.53    1.88
   2   6   2   53.88    1.83
  -3  -6  -2   25.33    0.95
  -3  -6  -2   27.67    0.88
  -3  -6  -2   26.58    1.20
   3   6   2   24.11    1.06
   3   6   2   25.61    1.00
   3   6   2   26.08    0.78
   3   6   2   25.55    1.09
  -4  -6  -2    0.46    0.27
   4   6   2    0.40    0.18
   4   6   2    0.50    0.20
   4   6   2    0.67    0.21
   4   6   2    1.10    0.24
  -5  -6  -2    0.39    0.30
   5   6   2    0.47    0.18
   5   6   2    0.45    0.19
   5   6   2    0.80    0.22
  -6  -6  -2   39.53    1.97
   6   6   2   36.47    1.41
   6   6   2   34.98    1.38
  -7  -6  -2    7.68    0.94
   7   6   2    5.75    0.52
   7   6   2    5.53    0.55
   8   6   2   50.43    1.82
   7  -7  -2   13.10    0.88
   6  -7  -2    8.55    0.78
   6  -7  -2    7.58    0.65
   5  -7  -2   16.22    1.03
   5  -7  -2   16.42    0.93
  -5   7   2   18.01    1.30
   4  -7  -2    0.26    0.22
   4  -7  -2    0.28    0.20
  -4   7   2    0.07    0.26
   3  -7  -2  230.51    5.90
   3  -7  -2  238.60    6.22
  -3   7   2  232.93    6.44
   2  -7  -2    0.21    0.15
   2  -7  -2    0.08    0.19
   2  -7  -2    0.28    0.18
  -2   7   2    0.14    0.12
  -2   7   2    0.19    0.18
  -2   7   2    0.04    0.19
   1  -7  -2   62.96    2.13
   1  -7  -2   59.29    2.03
   1  -7  -2   62.82    2.02
  -1   7   2   58.82    2.11
  -1   7   2   59.60    1.96
  -1   7   2   61.24    2.03
   0  -7  -2   70.99    2.21
   0  -7  -2   70.46    2.29
   0   7   2   73.61    2.30
   0   7   2   71.65    2.24
   0   7   2   74.64    2.30
  -1  -7  -2  318.78    8.04
  -1  -7  -2  316.36    8.06
   1   7   2  313.06    7.75
   1   7   2  319.50    8.10
   1   7   2  323.09    7.48
  -2  -7  -2    1.09    0.24
  -2  -7  -2    0.98    0.25
   2   7   2    0.44    0.19
   2   7   2    1.04    0.21
   2   7   2    1.07    0.25
  -3  -7  -2   94.11    2.72
  -3  -7  -2   99.90    2.59
  -3  -7  -2   95.22    3.01
   3   7   2   91.71    2.60
   3   7   2   94.03    2.44
   3   7   2   91.12    2.86
  -4  -7  -2    1.38    0.39
   4   7   2    1.23    0.27
   4   7   2    1.55    0.32
  -5  -7  -2    0.13    0.25
   5   7   2    0.08    0.15
   5   7   2    0.04    0.15
  -6  -7  -2   93.02    3.48
   6   7   2   89.64    2.86
   6   7   2   91.61    2.72
  -7  -7  -2    0.32    0.40
   7   7   2    0.40    0.23
   6  -8  -2    0.46    0.26
   5  -8  -2    1.93    0.43
  -5   8   2    2.21    0.61
   4  -8  -2   13.09    0.95
   4  -8  -2   11.79    0.84
  -4   8   2   11.11    1.03
   3  -8  -2   94.03    2.94
   3  -8  -2   89.02    2.95
  -3   8   2   96.45    3.27
   2  -8  -2    0.78    0.26
   2  -8  -2    0.86    0.31
  -2   8   2    0.46    0.29
  -2   8   2    1.05    0.26
   1  -8  -2   10.43    0.79
   1  -8  -2   11.66    0.80
   1  -8  -2   12.02    0.79
  -1   8   2   12.31    0.87
  -1   8   2   11.60    0.73
   0  -8  -2   45.56    1.74
   0  -8  -2   48.11    1.73
   0   8   2   46.98    1.73
   0   8   2   45.61    1.74
   0   8   2   46.23    1.73
  -1  -8  -2    1.08    0.25
  -1  -8  -2    1.08    0.29
   1   8   2    1.23    0.32
   1   8   2    1.00    0.28
   1   8   2    1.38    0.30
  -2  -8  -2  178.88    4.83
  -2  -8  -2  182.07    5.01
   2   8   2  174.39    5.00
   2   8   2  185.12    4.64
   2   8   2  185.22    4.65
  -3  -8  -2   14.96    0.78
  -3  -8  -2   13.88    0.90
  -3  -8  -2   13.80    0.67
   3   8   2   14.20    0.88
   3   8   2   15.73    0.67
   3   8   2   14.77    0.82
  -4  -8  -2  124.38    3.92
  -4  -8  -2  117.59    3.16
   4   8   2  128.34    3.31
   4   8   2  119.91    3.66
  -5  -8  -2    6.69    0.79
   5   8   2    6.30    0.61
  -6  -8  -2  120.54    4.22
   6   8   2  116.76    3.63
  -7  -8  -2    0.11    0.37
   7   8   2    0.21    0.23
   5  -9  -2   99.07    3.33
   4  -9  -2    5.14    0.62
  -4   9   2    4.62    0.75
   3  -9  -2   46.25    1.93
   3  -9  -2   49.13    2.01
  -3   9   2   48.98    2.19
   2  -9  -2    5.09    0.62
   2  -9  -2    5.93    0.60
  -2   9   2    5.58    0.51
  -2   9   2    5.71    0.71
   1  -9  -2    0.93    0.33
   1  -9  -2    0.79    0.28
  -1   9   2    1.58    0.42
  -1   9   2    1.07    0.31
   0  -9  -2   21.41    1.13
   0  -9  -2   20.92    1.12
   0   9   2   21.80    1.15
   0   9   2   20.38    1.09
  -1  -9  -2    0.41    0.22
  -1  -9  -2    0.65    0.24
   1   9   2    1.26    0.35
   1   9   2    0.72    0.30
  -2  -9  -2   52.82    1.86
  -2  -9  -2   57.10    1.98
   2   9   2   51.62    2.01
   2   9   2   51.52    1.79
  -3  -9  -2   -0.23    0.18
  -3  -9  -2    0.17    0.18
   3   9   2   -0.13    0.14
   3   9   2    0.26    0.21
  -4  -9  -2   87.44    2.53
  -4  -9  -2   93.32    3.21
   4   9   2   93.05    2.72
   4   9   2   92.05    3.04
  -5  -9  -2    0.56    0.40
   5   9   2    0.66    0.28
  -6  -9  -2   21.05    1.46
   6   9   2   17.91    1.12
   5 -10  -2    3.28    0.59
   4 -10  -2   52.38    2.20
   3 -10  -2   14.71    1.05
  -3  10   2   14.31    1.18
   2 -10  -2  109.12    3.61
  -2  10   2  114.02    3.79
   1 -10  -2    9.46    0.83
   1 -10  -2    9.79    0.82
  -1  10   2    9.28    0.86
  -1  10   2    9.96    0.76
   0 -10  -2  142.88    4.32
   0 -10  -2  150.32    4.19
   0  10   2  141.26    4.31
   0  10   2  146.54    4.34
  -1 -10  -2    0.74    0.26
  -1 -10  -2    0.86    0.30
   1  10   2    0.65    0.30
   1  10   2    1.15    0.34
  -2 -10  -2   27.80    1.30
   2  10   2   27.08    1.40
  -3 -10  -2    6.16    0.59
  -3 -10  -2    7.83    0.73
   3  10   2    7.39    0.72
  -4 -10  -2  232.08    6.23
  -4 -10  -2  252.28    7.04
   4  10   2  248.69    6.83
  -5 -10  -2   -0.07    0.31
   5  10   2    0.01    0.23
   3 -11  -2    0.21    0.24
   2 -11  -2   17.25    1.19
  -2  11   2   19.01    1.35
   1 -11  -2    5.07    0.66
  -1  11   2    6.58    0.79
  -1  11   2    6.60    0.67
   0 -11  -2  135.43    4.27
   0  11   2  141.04    4.33
   0  11   2  141.04    4.29
  -1 -11  -2    0.47    0.26
   1  11   2    0.17    0.23
   2  11   2    0.40    0.28
  -3 -11  -2    0.20    0.21
   3  11   2    0.11    0.25
  -4 -11  -2    0.72    0.23
   4  11   2    0.22    0.23
   1 -12  -2   -0.02    0.23
  -1  12   2    0.11    0.33
   0 -12  -2  100.63    3.47
   0  12   2  101.54    3.46
   1  12   2    1.02    0.38
   2  12   2   65.26    2.64
   3  11  -3   19.91    1.33
  -3 -11   3   16.35    0.88
  -3 -11   3   19.05    1.44
   2  11  -3    0.76    0.35
   2  11  -3    0.62    0.44
  -2 -11   3    0.99    0.34
   1  11  -3   73.74    2.88
   1  11  -3   75.39    3.03
  -1 -11   3   75.35    2.68
  -1 -11   3   75.62    2.78
   0  11  -3   14.76    1.28
   0  11  -3   13.31    1.06
  -1  11  -3   50.96    2.20
   1 -11   3   55.37    2.29
   2 -11   3    0.00    0.23
   4  10  -3   29.12    1.59
  -4 -10   3   30.89    1.89
   3  10  -3   96.25    3.37
  -3 -10   3   96.20    3.63
  -3 -10   3   98.13    2.86
   2  10  -3    9.25    0.95
   2  10  -3   11.43    0.95
  -2 -10   3   10.01    0.78
  -2 -10   3   10.26    0.76
   1  10  -3  105.17    3.62
   1  10  -3   97.64    3.41
  -1 -10   3  103.31    3.17
  -1 -10   3  100.02    3.34
   0  10  -3    0.16    0.22
   0  10  -3    0.02    0.27
   0  10  -3    0.10    0.25
   0 -10   3   -0.14    0.16
   0 -10   3    0.46    0.30
  -1  10  -3   57.44    2.56
  -1  10  -3   57.67    2.11
  -1  10  -3   53.26    2.19
   1 -10   3   56.08    2.24
  -2  10  -3    0.37    0.26
   2 -10   3    0.29    0.25
   3 -10   3   12.89    1.06
   4 -10   3    9.59    0.93
   5   9  -3   67.22    2.50
  -5  -9   3   61.32    2.94
   4   9  -3    3.25    0.55
  -4  -9   3    3.34    0.70
   3   9  -3   49.41    2.05
  -3  -9   3   47.79    2.27
  -3  -9   3   52.12    1.73
  -3  -9   3   50.10    1.64
   2   9  -3    0.70    0.31
   2   9  -3    0.54    0.28
  -2  -9   3    0.16    0.18
  -2  -9   3    0.36    0.22
   1   9  -3    0.12    0.21
   1   9  -3    0.58    0.36
   1   9  -3    0.21    0.24
  -1  -9   3    0.08    0.19
  -1  -9   3    0.09    0.20
  -1  -9   3    0.15    0.17
   0   9  -3   24.44    1.47
   0   9  -3   26.98    1.30
   0   9  -3   24.35    1.31
   0  -9   3   25.35    1.27
   0  -9   3   25.56    1.29
  -1   9  -3   12.79    0.91
  -1   9  -3   13.51    0.88
  -1   9  -3   14.82    1.16
   1  -9   3   13.76    0.94
   1  -9   3   14.02    0.98
  -2   9  -3   69.74    2.29
  -2   9  -3   68.14    2.86
  -2   9  -3   72.21    2.48
   2  -9   3   70.47    2.58
   2  -9   3   72.79    2.64
  -3   9  -3    0.11    0.21
  -3   9  -3    0.55    0.42
   3  -9   3    0.12    0.22
   4  -9   3   69.54    2.66
   5  -9   3    0.05    0.34
   5  -9   3    0.21    0.25
   6   8  -3    0.52    0.27
  -6  -8   3    0.17    0.40
   5   8  -3   71.09    2.54
  -5  -8   3   73.16    3.13
   4   8  -3    0.38    0.25
   4   8  -3   -0.06    0.16
  -4  -8   3    0.11    0.31
   3   8  -3   29.95    1.43
   3   8  -3   30.75    1.46
  -3  -8   3   31.02    1.18
  -3  -8   3   31.83    1.69
  -3  -8   3   31.28    1.09
   2   8  -3   14.29    0.93
   2   8  -3   14.53    0.93
  -2  -8   3   14.75    0.74
  -2  -8   3   14.57    0.81
  -2  -8   3   13.65    0.78
   1   8  -3   16.47    0.98
   1   8  -3   17.40    1.03
  -1  -8   3   19.16    0.97
  -1  -8   3   18.78    0.95
  -1  -8   3   17.52    0.98
   0   8  -3    2.27    0.50
   0   8  -3    2.25    0.40
   0   8  -3    2.02    0.41
   0  -8   3    2.35    0.42
   0  -8   3    2.49    0.40
  -1   8  -3    0.04    0.16
  -1   8  -3    0.12    0.27
  -1   8  -3   -0.02    0.16
   1  -8   3    0.12    0.18
   1  -8   3    0.22    0.23
  -2   8  -3   36.55    1.51
  -2   8  -3   37.94    1.88
  -2   8  -3   35.06    1.39
   2  -8   3   36.00    1.60
   2  -8   3   36.97    1.64
  -3   8  -3    0.14    0.16
  -3   8  -3    0.11    0.32
   3  -8   3    0.13    0.21
   3  -8   3    0.32    0.29
  -4   8  -3  101.32    3.74
   4  -8   3  100.81    3.37
   5  -8   3    2.96    0.65
   5  -8   3    3.12    0.54
   6  -8   3    2.44    0.68
   6  -8   3    1.37    0.41
   7   7  -3    5.54    0.59
  -7  -7   3    6.10    1.02
   6   7  -3   17.15    0.98
  -6  -7   3   17.44    1.45
   5   7  -3   48.57    1.93
   5   7  -3   46.61    1.80
  -5  -7   3   48.61    2.37
   4   7  -3   24.48    1.27
   4   7  -3   26.76    1.24
  -4  -7   3   25.28    1.52
   3   7  -3   28.19    1.33
   3   7  -3   29.59    1.33
  -3  -7   3   29.29    1.06
  -3  -7   3   30.17    0.97
   2   7  -3  259.57    7.00
   2   7  -3  269.90    6.58
  -2  -7   3  262.94    6.86
  -2  -7   3  269.24    6.66
  -2  -7   3  267.65    6.26
   1   7  -3    4.31    0.49
   1   7  -3    4.10    0.49
  -1  -7   3    4.89    0.47
  -1  -7   3    4.36    0.46
  -1  -7   3    3.84    0.40
   0   7  -3  224.54    6.04
   0   7  -3  224.53    6.14
   0   7  -3  230.75    5.60
   0  -7   3  222.77    5.95
   0  -7   3  221.63    5.57
  -1   7  -3    3.65    0.42
  -1   7  -3    3.21    0.44
  -1   7  -3    3.68    0.57
   1  -7   3    4.30    0.47
   1  -7   3    3.54    0.47
  -2   7  -3   17.47    0.92
  -2   7  -3   17.44    0.85
  -2   7  -3   16.22    1.13
   2  -7   3   15.60    0.97
   2  -7   3   17.89    1.00
  -3   7  -3    4.90    0.43
  -3   7  -3    3.57    0.39
  -3   7  -3    3.24    0.60
   3  -7   3    4.64    0.58
   3  -7   3    3.72    0.49
  -4   7  -3  151.19    3.75
  -4   7  -3  150.13    4.85
   4  -7   3  153.81    4.40
   4  -7   3  151.69    4.62
   4  -7   3  153.36    4.48
  -5   7  -3    0.08    0.33
   5  -7   3    0.22    0.21
   5  -7   3    0.28    0.37
   6  -7   3    9.94    0.82
   6  -7   3    7.57    0.94
   7   6  -3    0.12    0.18
  -7  -6   3   -0.34    0.32
   6   6  -3   14.14    0.96
   6   6  -3   14.03    0.79
  -6  -6   3   14.09    1.27
   5   6  -3    0.12    0.20
   5   6  -3    0.01    0.14
  -5  -6   3    0.17    0.32
   4   6  -3    1.58    0.31
   4   6  -3    1.51    0.29
   4   6  -3    1.74    0.37
  -4  -6   3    1.14    0.43
   3   6  -3    1.81    0.32
   3   6  -3    0.88    0.26
   3   6  -3    1.05    0.26
  -3  -6   3    1.08    0.38
  -3  -6   3    1.43    0.22
   2   6  -3  184.03    5.03
   2   6  -3  185.95    4.76
  -2  -6   3  189.02    4.71
  -2  -6   3  191.50    4.48
  -2  -6   3  180.68    4.88
   1   6  -3   18.12    0.90
   1   6  -3   17.06    0.89
  -1  -6   3   15.84    0.79
  -1  -6   3   17.97    0.82
  -1  -6   3   16.98    0.85
   0   6  -3   80.63    2.61
   0   6  -3   87.51    2.48
   0  -6   3   85.46    2.47
   0  -6   3   86.13    2.59
  -1   6  -3    3.52    0.41
  -1   6  -3    2.99    0.37
  -1   6  -3    3.26    0.52
   1  -6   3    4.12    0.43
   1  -6   3    3.15    0.41
  -2   6  -3    2.30    0.32
  -2   6  -3    1.94    0.31
  -2   6  -3    2.48    0.47
   2  -6   3    2.72    0.41
   2  -6   3    2.14    0.35
  -3   6  -3    1.50    0.25
  -3   6  -3    1.24    0.25
  -3   6  -3    1.73    0.46
   3  -6   3    1.09    0.34
   3  -6   3    1.49    0.33
  -4   6  -3   60.48    1.68
  -4   6  -3   59.26    2.46
   4  -6   3   61.16    2.13
   4  -6   3   58.40    2.17
   4  -6   3   56.91    2.29
  -5   6  -3    0.55    0.41
   5  -6   3    0.25    0.26
   5  -6   3    0.40    0.22
   5  -6   3    0.09    0.28
  -6   6  -3    7.27    0.93
   6  -6   3    9.47    0.76
   6  -6   3    8.85    0.95
   7  -6   3   71.16    2.55
   7  -6   3   70.98    3.00
  -8  -5   3   51.64    2.83
   7   5  -3    1.92    0.45
   7   5  -3    1.62    0.28
  -7  -5   3    1.84    0.65
   6   5  -3  227.86    5.64
   6   5  -3  211.27    5.52
  -6  -5   3  213.14    6.77
   5   5  -3   78.15    2.33
   5   5  -3   82.62    2.55
  -5  -5   3   80.02    3.11
   4   5  -3   64.56    1.94
   4   5  -3   66.11    2.11
   4   5  -3   62.50    1.96
  -4  -5   3   59.73    2.48
   3   5  -3    0.65    0.19
   3   5  -3    0.91    0.26
   3   5  -3    1.26    0.25
  -3  -5   3    1.04    0.17
  -3  -5   3    0.65    0.29
   2   5  -3  199.26    4.87
   2   5  -3  191.32    5.14
   2   5  -3  200.65    5.13
  -2  -5   3  193.77    4.56
  -2  -5   3  196.35    4.53
  -2  -5   3  203.65    4.86
  -2  -5   3  185.91    4.99
   1   5  -3    0.52    0.18
   1   5  -3    0.90    0.24
   1   5  -3    0.90    0.22
  -1  -5   3    0.49    0.19
  -1  -5   3    0.67    0.19
  -1  -5   3    0.52    0.15
   0   5  -3   24.27    1.00
   0   5  -3   23.22    1.03
   0  -5   3   27.31    1.05
   0  -5   3   25.68    1.02
  -1   5  -3    3.40    0.34
  -1   5  -3    3.04    0.45
  -1   5  -3    2.84    0.35
   1  -5   3    2.81    0.36
   1  -5   3    3.26    0.36
  -2   5  -3   64.87    2.34
  -2   5  -3   69.86    1.90
  -2   5  -3   68.64    2.09
   2  -5   3   65.09    2.13
   2  -5   3   65.43    2.11
  -3   5  -3   42.88    1.83
  -3   5  -3   42.66    1.39
  -3   5  -3   40.45    1.28
   3  -5   3   43.42    1.63
   3  -5   3   40.30    1.53
   3  -5   3   43.74    1.72
  -4   5  -3    5.66    0.68
  -4   5  -3    4.58    0.32
   4  -5   3    5.43    0.58
   4  -5   3    4.10    0.44
   4  -5   3    4.86    0.61
  -5   5  -3    5.25    0.73
   5  -5   3    6.31    0.66
   5  -5   3    5.28    0.67
   5  -5   3    5.51    0.53
  -6   5  -3    0.17    0.30
   6  -5   3    0.25    0.20
   6  -5   3    0.19    0.27
   6  -5   3    0.62    0.38
   7  -5   3   36.25    1.95
   7  -5   3   34.38    1.51
  -8  -4   3   24.04    1.85
   7   4  -3    0.55    0.24
  -7  -4   3    1.11    0.56
   6   4  -3   72.09    2.26
  -6  -4   3   63.51    2.86
   5   4  -3    0.26    0.18
   5   4  -3    0.11    0.10
   5   4  -3    0.15    0.08
  -5  -4   3    0.30    0.29
   4   4  -3   91.45    2.64
   4   4  -3   91.71    2.50
   4   4  -3   94.41    2.49
  -4  -4   3   88.64    3.17
   3   4  -3   -0.01    0.13
   3   4  -3    0.07    0.11
   3   4  -3    0.16    0.10
  -3  -4   3    0.11    0.07
  -3  -4   3   -0.01    0.17
   2   4  -3   32.26    1.11
   2   4  -3   29.19    1.11
   2   4  -3   30.31    1.16
  -2  -4   3   32.35    0.88
  -2  -4   3   31.07    0.87
  -2  -4   3   30.03    0.95
  -2  -4   3   30.83    0.98
   1   4  -3   58.22    1.90
   1   4  -3   60.77    1.83
   1   4  -3   65.30    1.90
  -1  -4   3   60.59    1.79
  -1  -4   3   63.98    1.73
  -1  -4   3   62.23    1.87
  -1  -4   3   60.86    1.64
  -1  -4   3   64.35    1.83
   0   4  -3  123.17    3.27
   0   4  -3  119.63    3.30
   0   4  -3  119.22    3.05
   0  -4   3  120.08    3.06
   0  -4   3  122.12    3.07
   0  -4   3  116.40    3.07
   0  -4   3  123.13    3.28
   0  -4   3  119.88    3.34
   0  -4   3  116.23    3.23
  -1   4  -3  167.96    4.00
  -1   4  -3  161.52    4.37
   1  -4   3  172.48    4.27
   1  -4   3  169.53    4.41
   1  -4   3  157.10    4.35
   1  -4   3  168.38    4.01
  -2   4  -3   30.01    1.10
  -2   4  -3   28.81    0.98
  -2   4  -3   27.37    1.29
   2  -4   3   29.43    1.14
   2  -4   3   31.21    1.19
   2  -4   3   29.34    1.22
   2  -4   3   30.22    1.01
  -3   4  -3   89.86    2.42
  -3   4  -3   86.09    2.86
  -3   4  -3   86.11    2.24
   3  -4   3   93.42    2.67
   3  -4   3   87.42    2.61
   3  -4   3   89.76    2.64
   3  -4   3   83.86    2.72
   3  -4   3   90.40    2.26
  -4   4  -3    3.26    0.26
  -4   4  -3    2.76    0.49
   4  -4   3    3.51    0.46
   4  -4   3    3.31    0.49
   4  -4   3    2.90    0.35
   4  -4   3    3.54    0.38
  -5   4  -3  133.16    4.24
   5  -4   3  143.66    3.88
   5  -4   3  135.78    3.83
   5  -4   3  131.59    3.79
   5  -4   3  136.23    4.14
  -6   4  -3   -0.38    0.21
   6  -4   3    0.28    0.25
   6  -4   3    0.35    0.19
   6  -4   3    0.86    0.38
  -7   4  -3   18.87    1.38
   7  -4   3   20.16    1.21
   7  -4   3   18.21    0.98
   7  -4   3   19.90    1.38
   8  -4   3    5.86    0.58
   8  -4   3    4.88    0.81
  -8  -3   3  111.57    4.43
   7   3  -3    0.77    0.26
  -7  -3   3    1.20    0.52
   6   3  -3    2.49    0.37
  -6  -3   3    2.24    0.58
   5   3  -3   11.31    0.68
   5   3  -3   11.24    0.77
   4   3  -3   46.99    1.26
   4   3  -3   46.58    1.55
   4   3  -3   48.09    1.26
  -4  -3   3   43.55    1.92
   3   3  -3   99.38    2.50
   3   3  -3   95.75    2.59
   3   3  -3   94.01    2.49
  -3  -3   3   91.44    3.03
   2   3  -3    0.84    0.15
   2   3  -3    0.92    0.22
   2   3  -3    0.98    0.19
  -2  -3   3    0.86    0.14
  -2  -3   3    0.79    0.10
  -2  -3   3    0.67    0.19
   1   3  -3    9.18    0.50
   1   3  -3    9.26    0.48
  -1  -3   3    8.66    0.36
  -1  -3   3    9.68    0.45
  -1  -3   3    9.11    0.46
  -1  -3   3    8.15    0.49
  -1  -3   3    8.85    0.43
   0   3  -3    2.45    0.26
   0   3  -3    2.53    0.26
   0   3  -3    2.75    0.29
   0  -3   3    1.87    0.22
   0  -3   3    2.43    0.27
   0  -3   3    2.10    0.25
   0  -3   3    2.09    0.23
   0  -3   3    1.78    0.24
  -1   3  -3  325.43    7.31
  -1   3  -3  333.90    8.01
  -1   3  -3  329.34    8.04
   1  -3   3  341.29    8.07
   1  -3   3  319.94    7.32
   1  -3   3  313.89    8.01
   1  -3   3  319.60    7.72
  -2   3  -3   22.33    0.78
  -2   3  -3   22.62    0.86
  -2   3  -3   21.56    1.04
  -2   3  -3   22.66    0.84
   2  -3   3   24.13    0.94
   2  -3   3   21.56    0.98
   2  -3   3   22.27    0.78
   2  -3   3   22.94    0.91
  -3   3  -3   42.09    1.24
  -3   3  -3   40.99    1.19
  -3   3  -3   42.16    1.64
  -3   3  -3   43.10    1.23
   3  -3   3   40.60    1.40
   3  -3   3   42.42    1.59
   3  -3   3   40.64    1.18
   3  -3   3   42.94    1.44
  -4   3  -3    1.12    0.33
   4  -3   3    1.54    0.25
   4  -3   3    1.32    0.24
   4  -3   3    1.19    0.16
   4  -3   3    1.32    0.37
  -5   3  -3    3.42    0.53
   5  -3   3    3.61    0.54
   5  -3   3    3.67    0.38
   5  -3   3    3.30    0.36
   5  -3   3    3.86    0.22
  -6   3  -3    7.07    0.77
   6  -3   3    6.98    0.52
   6  -3   3    6.98    0.66
   6  -3   3    6.86    0.76
  -7   3  -3    2.98    0.60
   7  -3   3    3.44    0.54
   7  -3   3    2.59    0.37
   7  -3   3    3.04    0.62
  -8   3  -3    0.43    0.36
   8  -3   3   -0.09    0.23
   8  -3   3   -0.01    0.28
   8  -3   3    0.09    0.18
  -8  -2   3    2.27    0.70
   7   2  -3    0.66    0.25
  -7  -2   3    0.10    0.33
   6   2  -3    1.58    0.29
   6   2  -3    1.62    0.25
  -6  -2   3    1.29    0.50
   5   2  -3    8.09    0.54
   5   2  -3    9.03    0.45
   5   2  -3    8.64    0.68
  -5  -2   3    7.77    0.79
   4   2  -3  178.55    4.19
   4   2  -3  180.53    4.37
  -4  -2   3  180.62    5.26
   3   2  -3  389.08    8.65
  -3  -2   3  385.33    9.97
  -3  -2   3  376.64    8.65
   2   2  -3   21.21    0.73
   2   2  -3   22.12    0.84
   2   2  -3   22.61    0.73
  -2  -2   3   22.26    0.84
   1   2  -3  507.07   12.05
   1   2  -3  493.24   11.83
   1   2  -3  500.02   11.11
   1   2  -3  474.02   10.89
   1   2  -3  496.49   11.81
  -1  -2   3  496.07   11.72
  -1  -2   3  494.70   11.10
  -1  -2   3  482.03   10.90
  -1  -2   3  523.10   11.75
  -1  -2   3  480.88   11.96
   0   2  -3   64.73    1.71
   0   2  -3   61.38    1.82
   0   2  -3   68.03    1.82
   0  -2   3   62.29    1.78
   0  -2   3   60.74    1.70
   0  -2   3   63.74    1.84
   0  -2   3   66.07    1.81
   0  -2   3   62.48    1.69
  -1   2  -3   21.46    0.75
  -1   2  -3   21.24    0.81
  -1   2  -3   22.82    0.80
   1  -2   3   23.10    0.84
   1  -2   3   20.83    0.83
   1  -2   3   19.93    0.73
   1  -2   3   22.40    0.86
  -2   2  -3   19.30    0.91
  -2   2  -3   21.62    0.74
  -2   2  -3   19.36    0.74
  -2   2  -3   19.75    0.69
   2  -2   3   20.32    0.89
   2  -2   3   19.96    0.80
   2  -2   3   19.73    0.69
   2  -2   3   20.22    0.79
  -3   2  -3   62.67    2.09
  -3   2  -3   62.71    1.65
  -3   2  -3   66.80    1.68
   3  -2   3   64.61    1.90
   3  -2   3   68.28    1.95
   3  -2   3   63.48    1.65
   3  -2   3   64.27    2.08
  -4   2  -3   21.55    1.09
   4  -2   3   22.24    0.86
   4  -2   3   21.06    0.69
   4  -2   3   23.48    0.90
   4  -2   3   22.79    1.12
  -5   2  -3    0.97    0.32
   5  -2   3    0.75    0.20
   5  -2   3    0.66    0.30
   5  -2   3    0.76    0.20
   5  -2   3    0.59    0.13
   5  -2   3    0.82    0.30
  -6   2  -3   19.01    1.16
   6  -2   3   18.66    0.83
   6  -2   3   19.66    1.20
  -7   2  -3    5.21    0.68
   7  -2   3    5.79    0.62
   7  -2   3    5.02    0.71
   7  -2   3    5.50    0.46
  -8   2  -3    1.89    0.53
   8  -2   3    3.69    0.55
   8  -2   3    2.34    0.63
   8  -2   3    3.27    0.40
  -8  -1   3   10.58    1.19
   7   1  -3    4.80    0.42
   7   1  -3    4.54    0.47
  -7  -1   3    4.92    0.79
   6   1  -3    4.39    0.42
   6   1  -3    4.79    0.41
  -6  -1   3    5.11    0.70
   5   1  -3   74.66    2.05
   5   1  -3   67.95    2.39
   5   1  -3   71.43    2.00
  -5  -1   3   70.00    2.69
   4   1  -3    3.43    0.41
   4   1  -3    3.47    0.32
  -4  -1   3    4.21    0.53
  -4  -1   3    3.34    0.32
   3   1  -3   16.20    0.68
  -3  -1   3   16.87    0.69
  -3  -1   3   17.13    0.47
   2   1  -3   79.09    1.88
   2   1  -3   77.02    1.97
   2   1  -3   80.27    2.05
   2   1  -3   79.05    1.97
  -2  -1   3   77.23    2.04
   1   1  -3   13.02    0.44
   1   1  -3   12.55    0.50
   1   1  -3   12.29    0.48
   1   1  -3   12.56    0.52
  -1  -1   3   12.51    0.43
  -1  -1   3   12.26    0.53
  -1  -1   3   11.53    0.46
  -1  -1   3   12.74    0.42
   0   1  -3  145.95    3.62
   0   1  -3  138.65    3.64
   0   1  -3  148.67    3.46
   0   1  -3  142.18    3.37
   0   1  -3  144.55    3.71
   0  -1   3  139.20    3.60
   0  -1   3  149.38    3.63
   0  -1   3  143.31    3.36
   0  -1   3  139.11    3.43
   0  -1   3  140.43    3.68
  -1   1  -3   71.07    1.95
  -1   1  -3   72.54    1.93
  -1   1  -3   70.94    1.80
  -1   1  -3   68.79    1.95
   1  -1   3   70.69    2.00
   1  -1   3   68.37    1.93
   1  -1   3   68.85    1.93
   1  -1   3   68.80    1.79
   1  -1   3   73.25    1.97
  -2   1  -3  138.56    3.40
  -2   1  -3  133.23    3.42
  -2   1  -3  137.38    3.17
  -2   1  -3  133.69    3.52
  -2   1  -3  129.16    3.53
   2  -1   3  134.31    3.49
   2  -1   3  139.69    3.58
   2  -1   3  136.71    3.17
   2  -1   3  134.46    3.47
   2  -1   3  133.44    3.51
  -3   1  -3  128.49    3.51
   3  -1   3  131.10    3.36
   3  -1   3  129.21    3.03
   3  -1   3  132.83    3.39
   3  -1   3  125.43    3.50
  -4   1  -3    7.57    0.58
   4  -1   3    7.96    0.45
   4  -1   3    7.34    0.36
   4  -1   3    7.51    0.56
   4  -1   3    7.47    0.61
   4  -1   3    7.67    0.43
  -5   1  -3   28.46    1.30
   5  -1   3   29.68    1.37
   5  -1   3   29.64    0.87
   5  -1   3   31.46    1.34
   5  -1   3   28.11    1.00
   5  -1   3   27.00    1.01
  -6   1  -3  144.03    4.18
   6  -1   3  148.55    4.23
   6  -1   3  139.23    4.22
   6  -1   3  141.11    3.27
   6  -1   3  140.23    3.72
  -7   1  -3   23.85    1.33
   7  -1   3   21.43    0.89
   7  -1   3   22.95    1.35
  -8   1  -3   41.67    1.98
   8  -1   3   44.68    1.51
   8  -1   3   40.76    1.71
   8  -1   3   44.03    2.09
   8   0  -3   21.72    1.27
  -8   0   3   22.30    1.68
   7   0  -3  125.36    3.61
  -7   0   3  124.40    4.45
   6   0  -3   48.42    1.68
   6   0  -3   45.09    1.39
  -6   0   3   45.03    2.13
   5   0  -3  107.10    2.71
   5   0  -3  112.62    3.36
  -5   0   3  102.92    3.56
   4   0  -3    5.18    0.35
   4   0  -3    5.87    0.53
  -4   0   3    5.35    0.57
  -4   0   3    4.50    0.34
  -4   0   3    5.63    0.29
   3   0  -3   68.79    2.12
   3   0  -3   68.89    1.81
  -3   0   3   66.14    1.80
  -3   0   3   68.75    1.66
  -3   0   3   69.15    2.26
   2   0  -3   68.00    1.81
  -2   0   3   72.01    1.82
  -2   0   3   70.17    2.14
   1   0  -3    0.43    0.11
   1   0  -3    0.18    0.10
   1   0  -3    0.26    0.08
   1   0  -3    0.43    0.11
   1   0  -3    0.32    0.09
  -1   0   3    0.77    0.15
  -1   0   3    0.39    0.08
   0   0  -3  145.66    3.73
   0   0  -3  140.89    3.65
   0   0  -3  148.38    3.64
   0   0  -3  148.00    3.39
   0   0  -3  147.89    3.51
   0   0   3  148.08    3.63
   0   0   3  145.02    3.49
   0   0   3  140.49    3.70
   0   0   3  143.44    3.62
   0   0   3  144.35    3.38
  -1   0  -3   14.62    0.63
  -1   0  -3   14.37    0.56
  -1   0  -3   15.30    0.57
  -1   0  -3   14.69    0.60
  -1   0  -3   15.10    0.59
   1   0   3   16.03    0.61
   1   0   3   15.13    0.56
   1   0   3   15.15    0.61
   1   0   3   14.19    0.57
  -2   0  -3    0.84    0.14
  -2   0  -3    1.14    0.14
  -2   0  -3    0.90    0.20
  -2   0  -3    1.07    0.22
   2   0   3    1.51    0.25
   2   0   3    1.11    0.17
   2   0   3    1.28    0.19
   2   0   3    1.65    0.20
   2   0   3    0.92    0.16
  -3   0  -3    4.43    0.37
   3   0   3    4.58    0.30
   3   0   3    3.98    0.28
   3   0   3    4.65    0.43
   3   0   3    4.05    0.32
   3   0   3    4.10    0.30
  -4   0  -3  118.37    3.28
   4   0   3  121.33    3.12
   4   0   3  118.87    3.36
   4   0   3  121.58    3.28
   4   0   3  118.40    3.08
   4   0   3  117.44    2.86
  -5   0  -3    1.85    0.34
   5   0   3    2.22    0.23
   5   0   3    1.81    0.21
   5   0   3    2.08    0.22
   5   0   3    1.85    0.32
   5   0   3    1.73    0.37
  -6   0  -3   44.15    1.73
   6   0   3   42.29    1.71
   6   0   3   42.84    1.26
   6   0   3   44.84    1.84
   6   0   3   46.12    1.41
   6   0   3   43.90    1.36
  -7   0  -3   22.39    1.22
   7   0   3   21.59    1.27
   7   0   3   20.32    0.83
  -8   0  -3    5.50    0.69
   8   0   3    5.43    0.76
   8   0   3    5.61    0.44
   8  -1  -3    0.92    0.37
   7  -1  -3    4.13    0.53
  -7   1   3    2.03    0.59
   6  -1  -3   26.11    0.87
  -6   1   3   26.30    1.53
   5  -1  -3    1.11    0.38
   5  -1  -3    0.96    0.17
  -5   1   3    0.80    0.33
   4  -1  -3    0.23    0.18
   4  -1  -3    0.08    0.08
  -4   1   3    0.25    0.11
  -4   1   3    0.10    0.19
  -4   1   3    0.46    0.12
   3  -1  -3   29.56    0.90
   3  -1  -3   27.12    1.15
  -3   1   3   29.29    0.90
  -3   1   3   28.86    0.90
  -3   1   3   26.48    1.17
   2  -1  -3   63.55    1.66
   2  -1  -3   64.72    1.62
   2  -1  -3   64.73    1.62
  -2   1   3   65.78    1.65
  -2   1   3   63.78    1.67
  -2   1   3   63.84    1.97
   1  -1  -3  324.88    7.15
   1  -1  -3  332.82    7.43
   1  -1  -3  328.59    7.72
   1  -1  -3  303.18    7.71
  -1   1   3  329.70    7.64
  -1   1   3  315.81    7.13
   0  -1  -3  487.10   10.73
   0  -1  -3  447.23   11.42
   0  -1  -3  466.22   11.20
   0  -1  -3  484.03   11.20
   0   1   3  459.48   10.26
   0   1   3  456.44   11.17
   0   1   3  491.29   11.20
  -1  -1  -3  307.47    7.70
  -1  -1  -3  317.48    7.54
  -1  -1  -3  312.06    7.31
  -1  -1  -3  307.27    7.56
   1   1   3  316.39    7.72
   1   1   3  301.58    7.28
   1   1   3  316.53    7.56
   1   1   3  321.38    7.58
  -2  -1  -3  116.02    3.08
  -2  -1  -3  118.58    2.98
  -2  -1  -3  123.88    3.13
  -2  -1  -3  115.97    2.99
  -2  -1  -3  116.52    2.95
   2   1   3  118.21    3.05
   2   1   3  114.84    3.08
   2   1   3  120.17    3.09
   2   1   3  125.81    3.17
  -3  -1  -3  127.55    3.26
   3   1   3  121.44    3.39
   3   1   3  129.82    3.32
   3   1   3  134.52    3.40
   3   1   3  128.53    3.29
  -4  -1  -3  180.68    4.56
   4   1   3  178.99    4.54
   4   1   3  180.60    4.52
   4   1   3  176.83    4.70
   4   1   3  183.08    4.50
  -5  -1  -3    9.75    0.61
   5   1   3    8.78    0.69
   5   1   3    9.58    0.46
   5   1   3   11.10    0.64
   5   1   3    9.94    0.48
  -6  -1  -3    7.56    0.61
   6   1   3    9.48    0.76
   6   1   3    8.44    0.47
   6   1   3    8.94    0.46
   6   1   3    8.80    0.64
  -7  -1  -3    2.02    0.41
   7   1   3    1.84    0.26
   7   1   3    2.14    0.48
   7   1   3    2.44    0.43
   8   1   3    2.88    0.33
   8   1   3    2.37    0.56
   8  -2  -3    4.49    0.65
   6  -2  -3    7.29    0.49
  -6   2   3    6.98    0.79
   5  -2  -3    0.19    0.13
  -5   2   3    0.08    0.23
  -5   2   3    0.20    0.09
  -5   2   3    0.42    0.26
   4  -2  -3   45.87    1.78
   4  -2  -3   45.40    1.37
  -4   2   3   45.32    1.26
  -4   2   3   46.50    1.79
  -4   2   3   45.83    1.75
  -4   2   3   46.57    1.41
   3  -2  -3   -0.10    0.11
  -3   2   3    0.33    0.17
  -3   2   3    0.34    0.13
  -3   2   3    0.28    0.10
  -3   2   3    0.19    0.16
   2  -2  -3   65.56    2.01
   2  -2  -3   69.03    1.94
   2  -2  -3   66.68    1.74
   2  -2  -3   61.55    1.72
  -2   2   3   64.90    1.95
  -2   2   3   67.38    1.76
  -2   2   3   66.46    2.00
  -2   2   3   64.84    1.69
   1  -2  -3   37.64    1.09
   1  -2  -3   33.76    1.17
   1  -2  -3   35.14    1.09
  -1   2   3   35.81    1.02
  -1   2   3   37.33    1.04
  -1   2   3   36.24    1.06
  -1   2   3   36.36    1.08
  -1   2   3   35.59    1.08
   0  -2  -3  342.04    8.20
   0  -2  -3  330.37    8.20
   0  -2  -3  351.60    7.89
   0  -2  -3  335.19    7.93
   0   2   3  342.98    8.20
   0   2   3  335.97    8.18
  -1  -2  -3   53.49    1.52
  -1  -2  -3   51.64    1.55
  -1  -2  -3   51.83    1.54
  -1  -2  -3   53.97    1.50
   1   2   3   52.97    1.57
   1   2   3   52.40    1.52
   1   2   3   49.74    1.51
   1   2   3   50.50    1.50
  -2  -2  -3   46.96    1.23
  -2  -2  -3   49.37    1.36
  -2  -2  -3   47.06    1.41
  -2  -2  -3   47.76    1.51
  -2  -2  -3   47.76    1.37
   2   2   3   50.19    1.57
   2   2   3   49.81    1.45
   2   2   3   46.55    1.42
   2   2   3   46.75    1.49
   2   2   3   49.35    1.49
  -3  -2  -3    2.40    0.20
   3   2   3    2.12    0.25
   3   2   3    2.34    0.23
   3   2   3    2.18    0.23
   3   2   3    1.48    0.27
  -4  -2  -3   70.34    1.94
   4   2   3   70.03    1.97
   4   2   3   69.07    2.19
   4   2   3   73.65    2.00
  -5  -2  -3   11.77    0.62
   5   2   3   12.40    0.64
   5   2   3   13.32    0.59
   5   2   3   12.35    0.55
   5   2   3   10.69    0.73
  -6  -2  -3   37.01    1.39
   6   2   3   41.67    1.29
   6   2   3   39.00    1.43
   6   2   3   35.58    1.56
   6   2   3   38.25    1.24
  -7  -2  -3   20.25    1.01
   7   2   3   18.87    0.79
   7   2   3   19.67    1.15
   8   2   3   51.76    2.15
   8   2   3   50.46    1.63
   8  -3  -3    0.03    0.28
   7  -3  -3   10.32    0.67
   6  -3  -3   65.73    2.02
  -6   3   3   67.33    2.56
   5  -3  -3  173.76    4.36
  -5   3   3  177.86    4.01
  -5   3   3  182.22    4.43
  -5   3   3  177.74    5.08
   4  -3  -3  122.43    2.99
   4  -3  -3  119.88    3.00
   4  -3  -3  114.17    3.05
   4  -3  -3  120.01    3.63
  -4   3   3  118.97    3.58
  -4   3   3  122.85    3.13
  -4   3   3  119.84    2.82
  -4   3   3  118.86    3.61
   3  -3  -3  270.45    6.53
   3  -3  -3  269.73    6.89
   3  -3  -3  266.35    6.19
   3  -3  -3  267.61    6.54
  -3   3   3  266.77    7.02
  -3   3   3  277.74    6.25
  -3   3   3  271.11    6.85
  -3   3   3  267.64    6.03
   2  -3  -3  273.94    6.72
   2  -3  -3  266.92    6.56
   2  -3  -3  275.83    6.79
   2  -3  -3  272.64    6.56
  -2   3   3  258.26    6.65
  -2   3   3  261.43    6.78
  -2   3   3  269.76    6.03
  -2   3   3  270.56    6.15
   1  -3  -3    1.47    0.24
   1  -3  -3    1.27    0.18
   1  -3  -3    1.34    0.19
  -1   3   3    0.86    0.21
  -1   3   3    1.06    0.20
  -1   3   3    1.08    0.15
  -1   3   3    1.05    0.13
  -1   3   3    0.85    0.14
   0  -3  -3   15.74    0.65
   0  -3  -3   15.89    0.67
   0  -3  -3   15.27    0.64
   0  -3  -3   15.87    0.63
   0   3   3   15.33    0.63
  -1  -3  -3   40.98    1.32
  -1  -3  -3   40.64    1.09
  -1  -3  -3   39.02    1.25
  -1  -3  -3   42.30    1.28
   1   3   3   40.37    1.29
   1   3   3   37.63    1.26
   1   3   3   42.32    1.18
  -2  -3  -3   24.31    0.85
  -2  -3  -3   24.29    0.89
  -2  -3  -3   26.58    0.85
   2   3   3   24.89    0.95
   2   3   3   24.25    0.90
   2   3   3   24.68    0.90
   2   3   3   24.71    0.94
   2   3   3   24.37    0.95
  -3  -3  -3  214.25    5.43
   3   3   3  223.54    5.53
   3   3   3  230.44    5.69
   3   3   3  218.61    5.52
   3   3   3  217.21    5.46
   4   3   3    4.98    0.36
   4   3   3    4.77    0.44
   4   3   3    5.55    0.38
   4   3   3    5.78    0.39
   5   3   3   36.81    1.47
   5   3   3   39.01    1.28
   5   3   3   38.14    1.20
   5   3   3   36.76    1.23
   6   3   3   99.88    2.79
   6   3   3  104.71    2.84
   6   3   3  104.03    3.14
   7   3   3   66.63    1.98
   7   3   3   64.82    2.36
   8   3   3    0.42    0.18
   8   3   3    0.65    0.34
   7  -4  -3   14.44    0.65
   7  -4  -3   14.43    0.87
  -7   4   3   15.47    1.21
   6  -4  -3   92.78    2.47
   6  -4  -3   89.38    2.65
  -6   4   3   86.58    3.20
   5  -4  -3   18.48    0.93
   5  -4  -3   20.62    0.78
   5  -4  -3   21.09    0.78
  -5   4   3   19.15    1.19
  -5   4   3   20.54    0.63
  -5   4   3   20.73    0.99
   4  -4  -3    5.34    0.35
   4  -4  -3    4.85    0.45
   4  -4  -3    5.18    0.36
  -4   4   3    4.84    0.46
  -4   4   3    5.14    0.30
  -4   4   3    4.97    0.58
   3  -4  -3   28.21    1.09
   3  -4  -3   29.16    1.33
   3  -4  -3   29.74    1.02
   3  -4  -3   29.26    1.03
  -3   4   3   28.53    0.92
  -3   4   3   28.20    1.29
  -3   4   3   29.22    1.13
   2  -4  -3   15.71    0.69
   2  -4  -3   15.14    0.73
   2  -4  -3   15.87    0.69
   2  -4  -3   14.95    0.84
   2  -4  -3   17.38    0.68
  -2   4   3   16.04    0.54
  -2   4   3   15.25    0.73
  -2   4   3   16.02    0.84
   1  -4  -3    1.98    0.24
   1  -4  -3    1.98    0.25
   1  -4  -3    3.02    0.33
   1  -4  -3    2.24    0.15
  -1   4   3    2.63    0.30
  -1   4   3    2.29    0.23
  -1   4   3    2.08    0.30
  -1   4   3    2.21    0.23
   0  -4  -3  236.01    5.87
   0  -4  -3  233.03    5.67
   0  -4  -3  231.61    5.87
   0   4   3  230.56    5.84
   0   4   3  232.51    5.43
   0   4   3  238.64    5.85
   0   4   3  231.46    5.64
  -1  -4  -3   48.54    1.49
  -1  -4  -3   48.42    1.49
  -1  -4  -3   47.38    1.30
   1   4   3   45.40    1.49
   1   4   3   46.75    1.27
  -2  -4  -3  585.39   13.92
  -2  -4  -3  567.38   14.18
  -2  -4  -3  596.35   13.91
   2   4   3  571.21   13.39
   2   4   3  595.49   14.32
   2   4   3  586.69   14.00
   2   4   3  570.85   13.98
  -3  -4  -3  111.97    2.69
  -3  -4  -3  103.78    3.15
  -3  -4  -3  107.59    2.82
  -3  -4  -3  108.27    2.70
   3   4   3  105.87    2.93
   3   4   3  105.10    2.93
   3   4   3  103.82    2.92
   4   4   3   17.09    0.76
   4   4   3   17.82    0.86
   4   4   3   16.52    0.75
   5   4   3  115.03    3.20
   5   4   3  117.39    3.34
   5   4   3  120.68    3.23
   6   4   3   31.64    1.19
   6   4   3   34.18    1.43
   7   4   3   56.04    2.10
   7   4   3   56.47    1.81
   8   4   3   11.66    0.69
   8   4   3   11.80    0.92
   7  -5  -3   69.04    2.34
   7  -5  -3   68.66    2.14
   6  -5  -3   16.08    0.78
   6  -5  -3   13.80    0.88
  -6   5   3   15.32    1.16
   5  -5  -3    2.48    0.40
   5  -5  -3    2.08    0.30
  -5   5   3    2.13    0.52
  -5   5   3    3.15    0.45
  -5   5   3    2.66    0.20
   4  -5  -3    4.98    0.40
   4  -5  -3    4.53    0.47
   4  -5  -3    4.98    0.41
  -4   5   3    5.91    0.53
  -4   5   3    6.43    0.67
  -4   5   3    4.91    0.32
   3  -5  -3    0.56    0.21
   3  -5  -3    0.44    0.16
   3  -5  -3    0.58    0.17
   3  -5  -3    0.28    0.22
  -3   5   3    0.71    0.23
  -3   5   3    0.63    0.28
   2  -5  -3   20.81    0.89
   2  -5  -3   21.52    0.90
   2  -5  -3   21.22    0.80
   2  -5  -3   20.08    1.03
   2  -5  -3   18.45    0.89
  -2   5   3   20.48    0.73
  -2   5   3   18.74    0.99
  -2   5   3   20.16    0.93
  -2   5   3   21.32    0.74
   1  -5  -3  104.94    2.91
   1  -5  -3  106.42    2.61
   1  -5  -3   97.80    2.87
   1  -5  -3  104.10    2.94
  -1   5   3  102.11    2.77
  -1   5   3  101.15    2.81
  -1   5   3  101.51    2.91
   0  -5  -3   61.39    1.88
   0  -5  -3   68.25    1.98
   0  -5  -3   61.06    1.95
   0   5   3   62.62    1.93
   0   5   3   64.28    1.90
   0   5   3   62.71    1.86
  -1  -5  -3  116.24    3.26
  -1  -5  -3  118.83    3.01
  -1  -5  -3  121.84    3.09
   1   5   3  120.88    3.09
   1   5   3  119.91    2.99
   1   5   3  122.93    3.31
   1   5   3  114.40    3.27
  -2  -5  -3   24.13    0.96
  -2  -5  -3   24.00    0.94
  -2  -5  -3   25.73    1.01
   2   5   3   25.01    1.02
   2   5   3   26.64    1.05
   2   5   3   26.11    0.99
  -3  -5  -3   26.34    0.96
  -3  -5  -3   26.18    1.15
  -3  -5  -3   27.36    0.89
   3   5   3   26.69    1.07
   3   5   3   26.95    1.07
   3   5   3   27.27    1.08
  -4  -5  -3    1.62    0.37
   4   5   3    1.51    0.26
   4   5   3    2.19    0.32
   4   5   3    1.81    0.28
  -5  -5  -3   29.00    1.49
   5   5   3   28.00    1.22
   5   5   3   27.52    1.12
   5   5   3   30.59    1.17
   6   5   3    4.32    0.51
   6   5   3    4.38    0.42
   7   5   3   42.01    1.56
   7   5   3   45.49    1.78
   8   5   3    0.19    0.18
   8   5   3    0.10    0.24
   7  -6  -3    2.18    0.38
   7  -6  -3    2.73    0.50
   6  -6  -3   32.56    1.48
   6  -6  -3   30.82    1.29
  -6   6   3   32.30    1.82
   5  -6  -3    3.50    0.49
   5  -6  -3    2.65    0.37
  -5   6   3    2.89    0.59
   4  -6  -3  154.07    4.08
   4  -6  -3  145.62    4.06
   4  -6  -3  142.19    3.96
  -4   6   3  145.14    3.51
  -4   6   3  146.40    4.47
   3  -6  -3   12.28    0.78
   3  -6  -3   12.63    0.72
   3  -6  -3   11.77    0.70
  -3   6   3   13.42    0.92
  -3   6   3   12.68    0.80
   2  -6  -3  147.48    3.91
   2  -6  -3  149.57    4.27
   2  -6  -3  145.85    4.10
   2  -6  -3  155.56    4.13
   2  -6  -3  156.04    3.98
  -2   6   3  151.00    3.97
  -2   6   3  147.27    3.86
  -2   6   3  142.05    4.20
   1  -6  -3   66.24    1.75
   1  -6  -3   61.11    1.99
   1  -6  -3   63.96    2.12
   1  -6  -3   63.75    2.07
  -1   6   3   67.31    2.05
  -1   6   3   66.20    2.12
  -1   6   3   63.50    1.98
   0  -6  -3   48.48    1.67
   0  -6  -3   47.78    1.62
   0   6   3   49.28    1.64
   0   6   3   50.40    1.62
   0   6   3   49.54    1.66
  -1  -6  -3  222.75    5.70
  -1  -6  -3  219.55    5.36
  -1  -6  -3  215.21    5.52
   1   6   3  216.93    5.36
   1   6   3  220.83    5.32
   1   6   3  223.94    5.74
  -2  -6  -3   22.45    0.92
  -2  -6  -3   22.53    0.99
  -2  -6  -3   22.95    0.94
   2   6   3   21.08    0.69
   2   6   3   21.55    0.95
   2   6   3   21.80    0.99
  -3  -6  -3  118.70    3.28
  -3  -6  -3  119.97    3.14
  -3  -6  -3  117.24    3.49
  -3  -6  -3  121.52    3.15
   3   6   3  112.85    3.37
   3   6   3  117.38    3.12
   3   6   3  124.55    3.43
  -4  -6  -3   27.58    1.34
   4   6   3   28.32    1.17
   4   6   3   28.99    1.19
   4   6   3   25.94    1.14
   4   6   3   26.30    1.06
  -5  -6  -3    5.38    0.66
   5   6   3    5.98    0.53
   5   6   3    4.25    0.44
   5   6   3    4.97    0.44
  -6  -6  -3   43.03    2.04
   6   6   3   36.57    1.52
   6   6   3   39.36    1.51
   7   6   3    6.78    0.63
   7   6   3    6.81    0.59
   8   6   3   23.11    1.14
   7  -7  -3    2.19    0.42
   6  -7  -3   11.43    0.79
   6  -7  -3   10.46    0.87
   5  -7  -3   21.58    1.10
   5  -7  -3   20.61    1.17
  -5   7   3   20.27    1.38
   4  -7  -3    4.53    0.50
   4  -7  -3    5.21    0.58
  -4   7   3    4.66    0.66
   3  -7  -3   37.10    1.52
   3  -7  -3   34.36    1.43
  -3   7   3   36.12    1.69
   2  -7  -3   11.94    0.60
   2  -7  -3   12.64    0.88
   2  -7  -3   11.11    0.72
   2  -7  -3   12.11    0.79
  -2   7   3   11.27    0.61
  -2   7   3   11.56    0.84
   1  -7  -3   32.72    1.34
   1  -7  -3   30.87    1.32
   1  -7  -3   35.58    1.45
  -1   7   3   32.05    1.26
  -1   7   3   33.33    1.37
  -1   7   3   32.19    1.39
   0  -7  -3    1.07    0.27
   0  -7  -3    0.94    0.15
   0  -7  -3    0.99    0.27
   0   7   3    1.74    0.30
   0   7   3    1.52    0.30
   0   7   3    1.07    0.28
  -1  -7  -3   88.06    2.67
  -1  -7  -3   90.91    2.46
   1   7   3   88.71    2.49
   1   7   3   85.69    2.71
   1   7   3   88.76    2.59
  -2  -7  -3    4.02    0.42
  -2  -7  -3    4.86    0.41
  -2  -7  -3    3.67    0.38
   2   7   3    4.52    0.45
   2   7   3    4.30    0.45
   2   7   3    4.50    0.32
  -3  -7  -3   20.28    0.84
  -3  -7  -3   20.01    1.01
  -3  -7  -3   19.13    0.88
   3   7   3   18.83    0.92
   3   7   3   19.09    0.99
  -4  -7  -3   30.75    1.44
  -4  -7  -3   28.30    0.96
   4   7   3   29.00    1.29
   4   7   3   31.82    1.23
  -5  -7  -3   11.89    0.96
   5   7   3   11.59    0.75
   5   7   3   11.89    0.70
   5   7   3   10.69    0.75
  -6  -7  -3    7.94    0.88
   6   7   3    8.24    0.66
   6   7   3    6.29    0.58
   7   7   3   55.48    2.07
   7   7   3   57.01    2.04
   6  -8  -3   45.39    1.89
   5  -8  -3   58.70    2.22
  -5   8   3   62.80    2.71
   4  -8  -3   67.23    2.40
   4  -8  -3   63.59    2.32
  -4   8   3   67.80    2.70
   3  -8  -3  141.44    4.21
   3  -8  -3  145.41    4.09
  -3   8   3  145.50    4.47
   2  -8  -3    5.63    0.60
   2  -8  -3    6.37    0.60
  -2   8   3    5.51    0.64
  -2   8   3    6.45    0.49
   1  -8  -3    3.51    0.46
   1  -8  -3    3.75    0.48
   1  -8  -3    3.91    0.51
  -1   8   3    3.33    0.48
  -1   8   3    4.04    0.43
   0  -8  -3    8.99    0.68
   0  -8  -3    9.60    0.68
   0  -8  -3    9.26    0.45
   0   8   3    8.57    0.65
   0   8   3    9.72    0.69
  -1  -8  -3    0.07    0.12
  -1  -8  -3    0.12    0.14
   1   8   3    0.09    0.16
   1   8   3    0.36    0.19
   1   8   3    0.00    0.14
  -2  -8  -3   61.71    2.03
  -2  -8  -3   62.49    2.00
   2   8   3   59.06    2.01
   2   8   3   61.03    1.79
   2   8   3   59.62    2.14
  -3  -8  -3    3.90    0.37
  -3  -8  -3    3.25    0.40
  -3  -8  -3    3.06    0.43
   3   8   3    2.50    0.42
   3   8   3    3.44    0.43
  -4  -8  -3   13.94    0.94
  -4  -8  -3   12.59    0.62
   4   8   3   15.00    0.84
   4   8   3   12.54    0.85
  -5  -8  -3    8.91    0.85
   5   8   3    6.61    0.64
  -6  -8  -3   70.60    2.90
   6   8   3   66.82    2.43
  -7  -8  -3   15.28    1.35
   7   8   3   14.45    0.98
   5  -9  -3   10.06    0.85
   4  -9  -3   19.81    1.18
  -4   9   3   20.91    1.44
   3  -9  -3    0.52    0.30
   3  -9  -3    0.17    0.20
  -3   9   3    0.40    0.37
   2  -9  -3   25.02    1.29
   2  -9  -3   21.47    1.20
  -2   9   3   22.18    1.04
  -2   9   3   21.35    1.30
   1  -9  -3    5.88    0.63
   1  -9  -3    5.68    0.59
  -1   9   3    5.20    0.62
  -1   9   3    5.98    0.56
   0  -9  -3   15.23    0.94
   0  -9  -3   14.97    0.66
   0   9   3   14.97    0.92
   0   9   3   12.87    0.86
  -1  -9  -3  129.41    3.58
  -1  -9  -3  127.50    3.82
   1   9   3  131.93    3.92
   1   9   3  131.79    3.66
  -2  -9  -3    8.79    0.65
  -2  -9  -3    8.83    0.62
   2   9   3    9.11    0.57
   2   9   3    9.03    0.74
  -3  -9  -3    3.87    0.50
  -3  -9  -3    3.91    0.45
   3   9   3    4.54    0.55
  -4  -9  -3  106.99    3.11
  -4  -9  -3  115.24    3.67
   4   9   3  113.73    3.56
  -5  -9  -3   55.27    2.38
   5   9   3   56.34    2.19
  -6  -9  -3   16.76    1.30
   6   9   3   15.15    1.04
   4 -10  -3    0.71    0.35
   3 -10  -3    4.40    0.62
  -3  10   3    4.82    0.75
   2 -10  -3   10.86    0.88
  -2  10   3   11.74    1.01
   1 -10  -3    0.09    0.21
  -1  10   3    0.33    0.22
  -1  10   3    0.29    0.27
   0 -10  -3  135.58    4.13
   0  10   3  135.47    4.02
   0  10   3  134.82    4.08
  -1 -10  -3    2.07    0.40
   1  10   3    1.94    0.40
   1  10   3    1.63    0.42
  -2 -10  -3   20.27    1.06
   2  10   3   17.99    1.13
  -3 -10  -3    1.84    0.39
   3  10   3    2.20    0.46
  -4 -10  -3   15.64    0.80
   4  10   3   16.04    1.08
   5  10   3    3.91    0.59
   3 -11  -3    6.20    0.77
   2 -11  -3   25.82    1.46
  -2  11   3   24.12    1.53
   1 -11  -3   91.12    3.21
  -1  11   3   90.37    3.22
   0 -11  -3   45.57    1.98
   0  11   3   45.03    1.94
   0  11   3   46.62    1.95
  -1 -11  -3    0.72    0.30
   1  11   3    1.07    0.34
   2  11   3   11.97    0.95
  -3 -11  -3   21.39    1.17
   3  11   3   22.76    1.36
  -4 -11  -3    1.00    0.28
   4  11   3    1.34    0.43
   1 -12  -3    7.34    0.83
   0 -12  -3    0.51    0.33
   0  12   3    0.22    0.26
   1  12   3   -0.23    0.22
   2  12   3   21.98    1.39
   2  11  -4   26.80    1.60
   1  11  -4   17.37    1.26
  -1 -11   4   19.28    1.20
   0  11  -4    6.34    0.79
  -1  11  -4    3.94    0.66
   1 -11   4    3.82    0.64
   1 -11   4    4.56    0.72
   4  10  -4    0.77    0.36
  -4 -10   4    0.30    0.40
   3  10  -4   12.58    1.04
  -3 -10   4   13.57    0.72
  -3 -10   4   13.97    1.26
   2  10  -4    0.62    0.33
   2  10  -4    0.97    0.46
  -2 -10   4    0.83    0.33
  -2 -10   4    1.08    0.32
   1  10  -4    2.10    0.53
   1  10  -4    2.09    0.59
  -1 -10   4    1.89    0.47
  -1 -10   4    1.80    0.45
   0  10  -4   35.71    1.75
   0  10  -4   33.88    1.93
   0 -10   4   38.44    1.72
   0 -10   4   38.39    1.79
   0 -10   4   33.84    1.63
  -1  10  -4   15.84    1.04
  -1  10  -4   16.76    1.13
   1 -10   4   17.97    1.16
   1 -10   4   17.24    1.13
  -2  10  -4    7.70    0.73
   2 -10   4    7.33    0.84
   2 -10   4    6.91    0.78
   3 -10   4   65.31    2.64
   3 -10   4   61.87    2.64
   5   9  -4   11.40    0.94
  -5  -9   4   10.43    1.20
   4   9  -4   60.36    2.35
  -4  -9   4   54.16    2.65
   3   9  -4    5.45    0.66
  -3  -9   4    4.65    0.40
   2   9  -4    5.57    0.66
  -2  -9   4    5.06    0.53
  -2  -9   4    5.49    0.56
   1   9  -4   12.91    1.09
   1   9  -4   14.87    1.03
   1   9  -4   14.46    0.99
  -1  -9   4   14.35    0.94
  -1  -9   4   15.88    0.87
  -1  -9   4   14.38    0.93
   0   9  -4  124.26    4.05
   0   9  -4  129.55    4.33
   0   9  -4  132.86    3.83
   0  -9   4  136.26    3.85
   0  -9   4  132.62    4.12
   0  -9   4  130.38    3.96
  -1   9  -4   45.43    1.91
  -1   9  -4   44.08    2.18
  -1   9  -4   46.19    1.81
   1  -9   4   48.14    1.97
   1  -9   4   48.08    1.96
  -2   9  -4  137.81    3.80
  -2   9  -4  135.51    4.09
  -2   9  -4  135.21    4.56
   2  -9   4  131.06    4.14
   2  -9   4  133.55    4.22
  -3   9  -4   41.59    1.63
   3  -9   4   42.47    1.94
   3  -9   4   44.27    2.06
   4  -9   4   50.34    2.20
   4  -9   4   49.87    2.34
   6   8  -4    5.83    0.67
  -6  -8   4    8.29    1.09
   5   8  -4    6.11    0.66
  -5  -8   4    5.28    0.91
   4   8  -4   46.40    1.91
  -4  -8   4   43.60    2.22
   3   8  -4   70.13    2.52
   3   8  -4   70.77    2.50
  -3  -8   4   69.79    2.08
  -3  -8   4   68.78    2.01
   2   8  -4   15.62    1.01
   2   8  -4   15.11    1.00
  -2  -8   4   16.11    0.86
  -2  -8   4   15.46    0.84
   1   8  -4  121.08    3.83
   1   8  -4  130.09    3.66
  -1  -8   4  123.39    3.75
  -1  -8   4  122.32    3.58
  -1  -8   4  128.62    3.42
  -1  -8   4  122.13    3.48
   0   8  -4   14.71    1.13
   0   8  -4   14.54    0.91
   0   8  -4   14.20    0.94
   0  -8   4   12.30    0.85
   0  -8   4   13.62    0.92
   0  -8   4   13.42    0.83
   0  -8   4   12.24    0.83
  -1   8  -4   17.70    0.97
  -1   8  -4   15.12    0.99
  -1   8  -4   17.52    1.25
   1  -8   4   19.01    1.11
   1  -8   4   16.54    1.02
   1  -8   4   17.86    1.04
  -2   8  -4   57.62    1.93
  -2   8  -4   57.01    2.47
  -2   8  -4   52.77    2.04
   2  -8   4   55.87    2.15
   2  -8   4   54.36    2.16
   2  -8   4   54.72    2.14
  -3   8  -4   71.53    2.23
  -3   8  -4   74.83    3.00
   3  -8   4   72.88    2.70
   3  -8   4   69.36    2.60
   3  -8   4   72.21    2.71
   4  -8   4   16.88    1.11
   4  -8   4   15.56    1.21
   5  -8   4   41.17    1.90
   5  -8   4   42.07    2.14
   6   7  -4   39.19    1.63
  -6  -7   4   37.94    2.24
   5   7  -4   27.99    1.32
  -5  -7   4   27.77    1.77
   4   7  -4   51.30    1.91
   4   7  -4   47.98    1.93
  -4  -7   4   46.52    2.25
   3   7  -4   45.16    1.78
   3   7  -4   41.56    1.72
  -3  -7   4   42.02    1.38
  -3  -7   4   43.34    1.27
   2   7  -4  223.02    6.21
   2   7  -4  226.94    5.85
  -2  -7   4  230.92    5.45
  -2  -7   4  237.70    5.83
  -2  -7   4  221.31    6.00
  -2  -7   4  236.10    5.55
   1   7  -4  149.62    4.38
   1   7  -4  151.99    4.11
  -1  -7   4  151.07    3.96
  -1  -7   4  152.98    4.31
  -1  -7   4  150.13    3.90
  -1  -7   4  150.15    4.16
   0   7  -4  104.47    3.19
   0   7  -4  102.83    2.96
   0  -7   4   99.52    3.06
   0  -7   4   99.65    2.91
   0  -7   4   99.26    3.17
   0  -7   4   98.27    2.93
  -1   7  -4    0.70    0.24
  -1   7  -4    0.29    0.21
  -1   7  -4    0.51    0.34
   1  -7   4    0.26    0.19
   1  -7   4    0.25    0.23
   1  -7   4    0.65    0.28
  -2   7  -4    3.04    0.43
  -2   7  -4    3.16    0.40
  -2   7  -4    3.97    0.64
   2  -7   4    2.99    0.49
   2  -7   4    2.82    0.50
   2  -7   4    2.98    0.46
  -3   7  -4    3.24    0.40
  -3   7  -4    2.70    0.60
  -3   7  -4    4.05    0.43
   3  -7   4    2.88    0.52
   3  -7   4    2.54    0.45
   3  -7   4    4.25    0.60
  -4   7  -4   17.12    1.33
  -4   7  -4   16.65    0.81
   4  -7   4   17.41    1.07
   4  -7   4   17.19    1.15
   4  -7   4   17.95    1.24
   5  -7   4   18.98    1.16
   5  -7   4   18.66    1.34
   6  -7   4   25.05    1.39
   6  -7   4   26.29    1.70
   7   6  -4   91.45    2.75
  -7  -6   4   80.45    3.70
   6   6  -4   37.87    1.74
   6   6  -4   38.58    1.51
  -6  -6   4   37.90    2.18
   5   6  -4   54.44    2.07
   5   6  -4   54.70    1.92
  -5  -6   4   55.66    2.56
   4   6  -4   17.83    0.94
   4   6  -4   16.50    0.99
  -4  -6   4   16.04    1.21
  -4  -6   4   17.29    0.60
   3   6  -4  109.73    3.12
   3   6  -4  104.17    3.09
   3   6  -4  100.28    3.13
  -3  -6   4  102.87    2.64
   2   6  -4   51.74    1.89
   2   6  -4   54.80    1.89
  -2  -6   4   53.77    1.44
  -2  -6   4   53.31    1.59
  -2  -6   4   54.70    1.66
  -2  -6   4   50.65    1.70
   1   6  -4  105.01    3.17
   1   6  -4  110.10    3.03
  -1  -6   4  102.87    2.96
  -1  -6   4   97.74    3.05
  -1  -6   4  103.26    2.86
  -1  -6   4  106.76    2.78
   0   6  -4    2.68    0.38
   0   6  -4    2.72    0.40
   0  -6   4    1.94    0.35
   0  -6   4    1.86    0.31
   0  -6   4    3.35    0.41
   0  -6   4    3.66    0.41
  -1   6  -4   42.84    1.86
  -1   6  -4   43.83    1.66
  -1   6  -4   42.87    1.53
   1  -6   4   42.84    1.63
   1  -6   4   45.29    1.68
   1  -6   4   46.08    1.66
  -2   6  -4   41.53    1.90
  -2   6  -4   46.88    1.53
  -2   6  -4   41.99    1.61
   2  -6   4   42.78    1.67
   2  -6   4   41.59    1.72
   2  -6   4   48.19    1.76
  -3   6  -4   74.71    2.83
  -3   6  -4   76.31    2.20
  -3   6  -4   78.37    2.38
   3  -6   4   77.23    2.67
   3  -6   4   75.29    2.54
   3  -6   4   78.04    2.57
  -4   6  -4    4.70    0.71
  -4   6  -4    4.29    0.39
   4  -6   4    5.04    0.67
   4  -6   4    4.28    0.52
   4  -6   4    4.67    0.59
  -5   6  -4    6.16    0.83
   5  -6   4    6.43    0.64
   5  -6   4    5.74    0.71
   5  -6   4    4.74    0.72
   6  -6   4   24.11    1.56
   6  -6   4   25.33    1.33
   7  -6   4   97.77    3.74
   7  -6   4   97.42    3.27
   7   5  -4  117.76    3.30
   7   5  -4  120.64    3.58
  -7  -5   4  117.43    4.58
   6   5  -4   94.14    2.94
   6   5  -4   94.27    2.71
  -6  -5   4   91.67    3.70
   5   5  -4    4.57    0.54
   5   5  -4    4.47    0.42
  -5  -5   4    3.51    0.69
   4   5  -4    1.06    0.23
   4   5  -4    1.41    0.36
   4   5  -4    1.18    0.27
  -4  -5   4    0.72    0.37
   3   5  -4   19.79    0.90
   3   5  -4   16.39    0.85
   3   5  -4   19.51    0.99
  -3  -5   4   18.57    0.69
   2   5  -4   24.64    1.11
   2   5  -4   26.12    1.08
   2   5  -4   23.24    1.06
  -2  -5   4   25.36    0.95
  -2  -5   4   25.31    0.72
  -2  -5   4   23.98    0.92
   1   5  -4   36.28    1.41
   1   5  -4   36.39    1.37
  -1  -5   4   36.47    1.28
  -1  -5   4   37.54    1.28
  -1  -5   4   37.49    1.17
  -1  -5   4   37.55    1.36
   0   5  -4   33.77    1.33
   0   5  -4   32.68    1.24
   0  -5   4   32.19    1.17
   0  -5   4   31.84    1.23
   0  -5   4   29.53    1.20
   0  -5   4   32.99    1.25
   0  -5   4   32.83    1.30
  -1   5  -4   30.34    1.25
  -1   5  -4   31.79    1.17
   1  -5   4   30.77    1.24
   1  -5   4   30.10    1.16
   1  -5   4   29.05    1.22
   1  -5   4   31.43    1.27
  -2   5  -4   96.04    2.82
  -2   5  -4   94.00    2.57
  -2   5  -4   93.80    3.11
   2  -5   4   93.57    2.88
   2  -5   4   95.97    2.59
   2  -5   4   91.82    2.81
   2  -5   4   97.30    2.89
  -3   5  -4  145.92    3.92
  -3   5  -4  144.46    4.41
  -3   5  -4  148.28    3.63
   3  -5   4  146.04    4.19
   3  -5   4  143.40    4.01
   3  -5   4  141.38    4.10
   3  -5   4  146.65    3.62
  -4   5  -4   30.58    1.63
  -4   5  -4   34.13    1.11
   4  -5   4   32.62    1.48
   4  -5   4   30.72    1.36
   4  -5   4   30.57    1.54
  -5   5  -4   14.73    1.14
   5  -5   4   13.36    1.06
   5  -5   4   15.48    1.03
   5  -5   4   13.98    0.88
  -6   5  -4   30.78    1.80
   6  -5   4   35.54    1.85
   6  -5   4   30.20    1.42
   7  -5   4    2.45    0.46
   7  -5   4    2.67    0.66
  -8  -4   4   16.90    1.57
   7   4  -4   88.39    2.77
  -7  -4   4   87.15    3.68
   6   4  -4    0.27    0.14
   6   4  -4    0.49    0.25
  -6  -4   4   -0.01    0.26
   5   4  -4   73.96    2.12
   5   4  -4   74.40    2.36
  -5  -4   4   75.43    2.99
   4   4  -4    0.19    0.11
   4   4  -4    0.12    0.12
   4   4  -4    0.03    0.15
  -4  -4   4    0.18    0.24
   3   4  -4   47.83    1.60
   3   4  -4   51.87    1.72
   3   4  -4   51.75    1.61
  -3  -4   4   48.88    1.32
   2   4  -4    0.81    0.23
   2   4  -4    1.35    0.26
   2   4  -4    1.20    0.22
  -2  -4   4    0.93    0.12
  -2  -4   4    1.27    0.28
  -2  -4   4    0.96    0.19
  -2  -4   4    0.95    0.17
  -2  -4   4    0.93    0.13
   1   4  -4   65.02    2.12
   1   4  -4   71.79    2.12
  -1  -4   4   66.58    2.05
  -1  -4   4   67.38    1.99
  -1  -4   4   71.70    2.09
  -1  -4   4   70.52    1.84
   0   4  -4   35.23    1.30
   0   4  -4   32.76    1.19
   0  -4   4   34.06    1.22
   0  -4   4   33.27    1.26
   0  -4   4   32.16    1.13
   0  -4   4   31.79    1.20
  -1   4  -4  341.42    8.65
  -1   4  -4  339.64    7.89
   1  -4   4  342.61    8.64
   1  -4   4  343.43    8.29
   1  -4   4  355.15    8.85
   1  -4   4  355.30    7.93
  -2   4  -4  221.54    6.10
  -2   4  -4  229.82    5.40
  -2   4  -4  235.22    5.93
   2  -4   4  230.10    5.41
   2  -4   4  236.69    6.00
   2  -4   4  226.21    5.85
  -3   4  -4   23.63    1.29
  -3   4  -4   26.70    0.96
  -3   4  -4   26.91    1.02
   3  -4   4   26.76    0.96
   3  -4   4   27.27    1.27
   3  -4   4   27.39    1.16
  -4   4  -4   23.74    1.33
  -4   4  -4   24.47    0.87
  -4   4  -4   24.71    0.77
   4  -4   4   22.96    1.07
   4  -4   4   23.04    0.86
   4  -4   4   26.26    1.32
  -5   4  -4   28.77    1.56
   5  -4   4   29.09    0.95
   5  -4   4   32.76    1.50
   5  -4   4   31.51    1.59
   5  -4   4   29.86    1.29
  -6   4  -4    2.07    0.57
   6  -4   4    2.02    0.47
   6  -4   4    2.57    0.55
   6  -4   4    2.18    0.37
  -7   4  -4    2.54    0.62
   7  -4   4    1.98    0.40
   7  -4   4    3.19    0.66
  -8  -3   4    4.14    0.88
   7   3  -4    0.10    0.21
  -7  -3   4    0.22    0.37
   6   3  -4    8.26    0.64
  -6  -3   4   10.36    1.03
   5   3  -4   48.96    1.35
   5   3  -4   49.70    1.70
  -5  -3   4   45.67    2.15
   4   3  -4  133.13    3.57
   4   3  -4  142.09    3.48
   4   3  -4  134.68    3.48
  -4  -3   4  132.24    4.29
   3   3  -4  250.68    6.03
   3   3  -4  263.31    6.27
   3   3  -4  246.70    6.26
  -3  -3   4  254.50    5.55
  -3  -3   4  255.21    6.06
  -3  -3   4  247.43    6.95
   2   3  -4  267.00    6.80
   2   3  -4  286.82    6.79
   2   3  -4  276.18    6.41
  -2  -3   4  265.71    6.66
  -2  -3   4  270.21    6.42
   1   3  -4    3.77    0.32
   1   3  -4    3.57    0.35
   1   3  -4    4.20    0.36
  -1  -3   4    3.75    0.36
  -1  -3   4    3.83    0.30
  -1  -3   4    3.48    0.25
  -1  -3   4    4.11    0.33
  -1  -3   4    4.13    0.30
   0   3  -4  176.38    4.48
   0   3  -4  169.42    4.15
   0   3  -4  166.45    4.49
   0  -3   4  169.34    4.20
   0  -3   4  168.68    4.43
   0  -3   4  177.24    4.47
   0  -3   4  168.21    4.54
   0  -3   4  175.28    4.17
  -1   3  -4   60.50    1.88
  -1   3  -4   59.57    1.73
  -1   3  -4   58.37    1.87
   1  -3   4   58.90    1.86
   1  -3   4   64.74    1.92
   1  -3   4   63.56    1.95
   1  -3   4   58.05    1.83
   1  -3   4   59.37    1.73
  -2   3  -4  232.88    5.80
  -2   3  -4  231.38    5.30
  -2   3  -4  227.91    5.95
   2  -3   4  228.66    5.88
   2  -3   4  223.96    5.29
   2  -3   4  223.74    5.73
   2  -3   4  225.25    5.84
  -3   3  -4   10.10    0.52
  -3   3  -4    9.64    0.73
  -3   3  -4    9.75    0.51
   3  -3   4   10.21    0.52
   3  -3   4   10.23    0.72
   3  -3   4   10.52    0.62
   3  -3   4   10.31    0.64
  -4   3  -4   27.16    1.37
   4  -3   4   30.75    1.40
   4  -3   4   29.45    1.20
   4  -3   4   25.83    1.12
   4  -3   4   28.90    0.95
  -5   3  -4   13.77    1.00
   5  -3   4   15.35    0.82
   5  -3   4   15.01    0.83
   5  -3   4   15.79    1.06
   5  -3   4   15.59    0.60
  -6   3  -4   85.53    3.06
   6  -3   4   83.29    2.59
   6  -3   4   81.10    2.99
  -7   3  -4   21.73    1.42
   7  -3   4   21.87    1.27
   7  -3   4   23.59    1.50
   7  -3   4   21.93    1.08
  -8   3  -4   29.10    1.80
   8  -3   4   27.78    1.74
   8  -3   4   28.04    1.30
  -8  -2   4    3.11    0.80
   7   2  -4   22.68    1.05
  -7  -2   4   21.23    1.58
   6   2  -4    4.56    0.35
   6   2  -4    4.05    0.43
  -6  -2   4    5.28    0.77
   5   2  -4   43.45    1.50
   5   2  -4   43.29    1.22
  -5  -2   4   42.38    2.00
   4   2  -4  212.31    5.25
   4   2  -4  219.34    4.99
   4   2  -4  214.83    4.96
  -4  -2   4  218.81    5.28
  -4  -2   4  226.08    6.29
   3   2  -4  131.86    3.37
   3   2  -4  133.53    3.34
   3   2  -4  135.80    3.33
  -3  -2   4  126.80    3.93
  -3  -2   4  129.57    3.38
   2   2  -4  227.22    5.51
   2   2  -4  241.25    5.81
   2   2  -4  237.98    5.34
   2   2  -4  237.83    5.83
  -2  -2   4  228.85    5.52
   1   2  -4  103.59    2.86
   1   2  -4   98.93    2.70
   1   2  -4  108.41    2.93
   1   2  -4  109.84    2.84
   1   2  -4  107.02    2.60
  -1  -2   4  102.90    2.83
  -1  -2   4  109.33    2.75
  -1  -2   4  109.02    2.58
  -1  -2   4  102.65    2.72
  -1  -2   4  101.78    2.72
   0   2  -4   29.37    1.05
   0   2  -4   29.14    1.08
   0   2  -4   31.21    1.02
   0   2  -4   30.67    1.12
   0   2  -4   30.38    1.04
   0  -2   4   29.12    1.03
   0  -2   4   29.18    0.99
   0  -2   4   32.08    1.08
   0  -2   4   30.26    1.09
   0  -2   4   30.50    1.04
  -1   2  -4    1.15    0.20
  -1   2  -4    0.62    0.16
  -1   2  -4    0.70    0.19
  -1   2  -4    0.73    0.20
   1  -2   4    0.88    0.20
   1  -2   4    0.75    0.19
   1  -2   4    0.71    0.20
   1  -2   4    0.88    0.20
   1  -2   4    0.81    0.19
  -2   2  -4   47.48    1.44
  -2   2  -4   45.26    1.46
  -2   2  -4   47.38    1.37
   2  -2   4   44.63    1.49
   2  -2   4   43.45    1.53
   2  -2   4   45.05    1.57
   2  -2   4   44.91    1.34
   2  -2   4   46.28    1.52
  -3   2  -4    0.50    0.14
  -3   2  -4    0.55    0.14
  -3   2  -4    0.78    0.18
  -3   2  -4    0.31    0.20
   3  -2   4    0.75    0.21
   3  -2   4    0.46    0.21
   3  -2   4    0.29    0.14
   3  -2   4    0.48    0.14
  -4   2  -4   29.59    1.37
   4  -2   4   30.84    1.40
   4  -2   4   31.96    1.19
   4  -2   4   32.97    1.23
   4  -2   4   31.81    1.00
  -5   2  -4   74.21    2.63
   5  -2   4   81.03    2.40
   5  -2   4   75.53    1.96
   5  -2   4   75.28    2.32
   5  -2   4   78.82    2.69
  -6   2  -4   33.14    1.62
   6  -2   4   31.94    1.26
   6  -2   4   31.96    1.63
  -7   2  -4    5.72    0.71
   7  -2   4    3.42    0.63
   7  -2   4    4.36    0.45
  -8   2  -4   34.42    1.86
   8  -2   4   36.55    1.95
   8  -2   4   35.86    1.45
   8  -2   4   34.66    1.66
  -8  -1   4  162.26    5.71
   7   1  -4   12.35    0.78
  -7  -1   4   12.64    1.21
   6   1  -4  124.28    3.31
   6   1  -4  123.78    3.27
  -6  -1   4  125.54    4.30
   5   1  -4    8.42    0.54
  -5  -1   4    7.88    0.80
   4   1  -4  196.13    4.74
   4   1  -4  204.00    5.31
  -4  -1   4  192.36    5.67
  -4  -1   4  196.90    4.76
   3   1  -4    7.72    0.34
   3   1  -4    7.08    0.31
   3   1  -4    7.08    0.46
   3   1  -4    7.45    0.32
  -3  -1   4    7.56    0.48
   2   1  -4    7.20    0.33
   2   1  -4    6.36    0.35
   2   1  -4    6.61    0.44
   2   1  -4    7.24    0.36
  -2  -1   4    6.20    0.42
   1   1  -4    5.18    0.33
   1   1  -4    5.01    0.37
   1   1  -4    4.66    0.29
   1   1  -4    4.93    0.35
   1   1  -4    4.78    0.34
  -1  -1   4    5.28    0.37
  -1  -1   4    4.71    0.31
  -1  -1   4    4.93    0.28
  -1  -1   4    4.63    0.27
  -1  -1   4    5.02    0.29
   0   1  -4  517.05   12.61
   0   1  -4  521.38   11.78
   0   1  -4  504.11   12.39
   0   1  -4  505.54   12.34
   0   1  -4  491.43   11.33
   0  -1   4  521.53   11.35
   0  -1   4  517.03   12.58
   0  -1   4  540.12   12.37
   0  -1   4  504.35   12.32
   0  -1   4  508.14   11.75
   0  -1   4  537.65   12.36
  -1   1  -4  201.34    5.17
  -1   1  -4  202.34    4.90
  -1   1  -4  208.66    5.03
  -1   1  -4  195.31    5.03
  -1   1  -4  200.82    4.64
   1  -1   4  189.63    4.86
   1  -1   4  195.29    5.13
   1  -1   4  196.66    5.02
   1  -1   4  197.30    4.63
   1  -1   4  200.82    5.05
  -2   1  -4  233.02    5.58
  -2   1  -4  225.98    5.17
  -2   1  -4  221.69    5.60
   2  -1   4  224.80    5.78
   2  -1   4  219.18    5.64
   2  -1   4  224.89    5.16
   2  -1   4  227.51    5.68
   2  -1   4  213.93    5.53
  -3   1  -4    6.98    0.54
  -3   1  -4    7.16    0.36
  -3   1  -4    7.47    0.37
   3  -1   4    7.03    0.48
   3  -1   4    7.10    0.46
   3  -1   4    6.52    0.39
   3  -1   4    6.60    0.55
   3  -1   4    6.96    0.46
  -4   1  -4  147.37    4.04
   4  -1   4  142.18    3.44
   4  -1   4  134.57    3.99
   4  -1   4  143.00    3.82
   4  -1   4  153.02    3.90
  -5   1  -4  162.33    4.57
   5  -1   4  160.57    4.29
   5  -1   4  160.95    3.83
   5  -1   4  169.50    4.37
   5  -1   4  160.26    4.60
  -6   1  -4   52.72    2.09
   6  -1   4   56.64    2.21
   6  -1   4   52.29    1.49
   6  -1   4   55.82    1.78
  -7   1  -4    0.22    0.28
   7  -1   4    0.67    0.36
   7  -1   4    0.45    0.19
  -8   1  -4   20.84    1.33
   8  -1   4   21.79    1.03
   8  -1   4   19.75    1.40
  -8   0   4   71.24    3.26
   7   0  -4   53.91    1.93
  -7   0   4   54.50    2.58
   6   0  -4   13.40    0.67
  -6   0   4   11.15    1.03
   5   0  -4   17.97    0.79
  -5   0   4   20.89    1.26
  -5   0   4   18.56    0.81
   4   0  -4   15.04    0.89
   4   0  -4   14.55    0.67
  -4   0   4   13.96    0.93
  -4   0   4   13.18    0.65
  -4   0   4   15.42    0.55
   3   0  -4    0.56    0.16
   3   0  -4    0.84    0.25
  -3   0   4    0.42    0.12
  -3   0   4    0.42    0.15
  -3   0   4    0.29    0.19
   2   0  -4   42.45    1.29
   2   0  -4   42.57    1.20
   2   0  -4   42.58    1.21
   2   0  -4   42.78    1.20
  -2   0   4   41.32    1.28
  -2   0   4   39.06    1.48
   1   0  -4  169.29    3.99
   1   0  -4  159.59    4.15
   1   0  -4  158.93    3.91
   1   0  -4  168.57    4.16
   1   0  -4  169.66    4.27
  -1   0   4  164.17    3.93
  -1   0   4  163.43    4.06
  -1   0   4  164.56    3.96
  -1   0   4  171.32    4.08
   0   0  -4    0.52    0.15
   0   0  -4    0.26    0.11
   0   0  -4    0.36    0.13
   0   0  -4    0.53    0.15
   0   0  -4    1.10    0.20
   0   0   4    0.68    0.17
   0   0   4    0.27    0.11
   0   0   4    0.31    0.13
   0   0   4    0.32    0.11
   0   0   4    0.29    0.11
  -1   0  -4  220.18    5.16
  -1   0  -4  211.47    4.87
  -1   0  -4  198.99    5.36
  -1   0  -4  209.44    5.29
  -1   0  -4  216.64    5.26
   1   0   4  203.33    5.11
   1   0   4  216.44    5.30
   1   0   4  212.21    5.40
   1   0   4  209.59    4.86
   1   0   4  204.85    5.25
  -2   0  -4  125.50    3.15
  -2   0  -4  122.32    3.18
   2   0   4  119.16    3.23
   2   0   4  116.00    3.19
   2   0   4  118.70    3.23
   2   0   4  120.75    2.97
   2   0   4  124.19    3.31
  -3   0  -4   11.69    0.64
  -3   0  -4   11.57    0.45
   3   0   4   11.31    0.54
   3   0   4   11.34    0.59
   3   0   4   11.48    0.70
   3   0   4   12.35    0.63
   3   0   4   11.84    0.58
  -4   0  -4   35.75    1.35
   4   0   4   36.74    1.47
   4   0   4   37.07    1.26
   4   0   4   33.58    1.19
   4   0   4   34.66    1.12
  -5   0  -4    7.01    0.59
   5   0   4    6.82    0.46
   5   0   4    6.78    0.42
   5   0   4    5.82    0.61
   5   0   4    7.44    0.49
  -6   0  -4    0.45    0.24
   6   0   4    0.04    0.23
   6   0   4    0.06    0.11
   6   0   4   -0.05    0.10
  -7   0  -4   45.23    1.85
   7   0   4   42.16    1.50
   7   0   4   41.96    1.95
  -8   0  -4   29.08    1.59
   8   0   4   29.66    1.21
   8   0   4   30.49    1.70
  -8   1   4   17.94    1.51
  -7   1   4    0.01    0.29
   6  -1  -4   94.72    2.50
  -6   1   4   99.19    3.53
   5  -1  -4   45.41    1.44
  -5   1   4   51.40    1.49
  -5   1   4   49.26    1.42
  -5   1   4   50.01    2.10
   4  -1  -4   49.23    1.48
   4  -1  -4   55.70    1.98
  -4   1   4   49.20    1.49
  -4   1   4   51.92    1.45
  -4   1   4   50.31    1.96
   3  -1  -4    6.85    0.42
   3  -1  -4    7.09    0.29
   3  -1  -4    7.53    0.30
   3  -1  -4    7.40    0.58
  -3   1   4    7.53    0.59
  -3   1   4    7.47    0.40
  -3   1   4    6.75    0.42
   2  -1  -4  227.57    5.89
   2  -1  -4  237.41    5.71
   2  -1  -4  233.61    5.71
   2  -1  -4  233.12    5.39
  -2   1   4  240.97    5.41
  -2   1   4  234.65    6.12
   1  -1  -4  485.65   10.95
   1  -1  -4  465.32   11.43
   1  -1  -4  487.09   11.44
   1  -1  -4  468.25   10.54
   1  -1  -4  488.48   11.68
  -1   1   4  471.61   11.33
  -1   1   4  491.58   11.35
  -1   1   4  467.40   10.53
   0  -1  -4  319.72    8.18
   0  -1  -4  352.22    7.89
   0  -1  -4  347.75    8.38
   0  -1  -4  335.86    8.18
   0   1   4  337.04    7.55
   0   1   4  339.06    8.16
   0   1   4  330.93    8.17
   0   1   4  337.93    7.85
   0   1   4  331.79    8.34
  -1  -1  -4   24.49    0.93
  -1  -1  -4   24.98    0.91
  -1  -1  -4   26.30    0.90
  -1  -1  -4   26.33    0.96
   1   1   4   25.85    0.89
   1   1   4   23.40    0.88
   1   1   4   24.85    0.94
   1   1   4   25.03    0.91
   1   1   4   23.70    0.93
  -2  -1  -4    2.57    0.24
  -2  -1  -4    2.61    0.27
  -2  -1  -4    2.20    0.25
   2   1   4    2.93    0.31
   2   1   4    2.03    0.26
   2   1   4    2.44    0.26
   2   1   4    2.04    0.30
   2   1   4    2.11    0.25
  -3  -1  -4   31.74    0.92
  -3  -1  -4   30.23    1.07
   3   1   4   30.26    1.21
   3   1   4   29.51    1.06
   3   1   4   30.07    1.13
   3   1   4   33.38    1.12
  -4  -1  -4   -0.04    0.11
   4   1   4    0.32    0.13
   4   1   4    0.18    0.18
   4   1   4    0.12    0.12
  -5  -1  -4    1.55    0.29
   5   1   4    2.02    0.28
   5   1   4    1.86    0.25
   5   1   4    1.45    0.35
  -6  -1  -4    6.05    0.55
   6   1   4    4.77    0.60
   6   1   4    6.49    0.46
  -7  -1  -4    1.09    0.35
   7   1   4    0.78    0.35
   7   1   4    0.78    0.22
   8   1   4   34.39    1.77
   8   1   4   31.96    1.27
   8  -2  -4    0.46    0.34
  -7   2   4   23.11    1.56
  -6   2   4    9.57    0.91
  -5   2   4  225.92    5.24
  -5   2   4  230.91    5.36
  -5   2   4  224.11    6.47
   4  -2  -4   43.12    1.75
  -4   2   4   43.33    1.29
  -4   2   4   41.93    1.73
  -4   2   4   43.36    1.36
   3  -2  -4   23.66    0.77
   3  -2  -4   25.00    0.78
   3  -2  -4   23.79    1.13
  -3   2   4   22.89    1.06
  -3   2   4   25.00    0.89
  -3   2   4   23.57    0.85
   2  -2  -4    9.98    0.46
   2  -2  -4    9.23    0.62
   2  -2  -4   10.05    0.46
  -2   2   4   10.54    0.57
  -2   2   4    9.96    0.51
  -2   2   4   10.91    0.52
   1  -2  -4   60.55    1.81
   1  -2  -4   61.81    1.73
   1  -2  -4   59.60    1.71
   1  -2  -4   56.81    1.70
  -1   2   4   60.17    1.66
  -1   2   4   59.14    1.63
  -1   2   4   59.12    1.63
   0  -2  -4  206.43    5.17
   0  -2  -4  201.48    5.18
   0  -2  -4  208.69    5.30
   0  -2  -4  210.80    5.02
   0   2   4  203.75    4.79
   0   2   4  199.72    4.99
   0   2   4  213.82    5.17
   0   2   4  204.50    5.14
  -1  -2  -4  151.29    3.93
  -1  -2  -4  150.53    3.94
  -1  -2  -4  147.67    4.01
  -1  -2  -4  154.76    3.92
   1   2   4  156.55    3.94
   1   2   4  149.83    4.03
   1   2   4  149.06    3.91
   1   2   4  153.87    3.85
  -2  -2  -4   20.44    0.80
  -2  -2  -4   22.16    0.80
  -2  -2  -4   20.25    0.83
   2   2   4   20.44    0.82
   2   2   4   23.16    0.94
   2   2   4   21.77    0.86
   2   2   4   22.98    0.90
  -3  -2  -4   89.33    2.34
  -3  -2  -4   90.10    2.45
  -3  -2  -4   93.61    2.34
   3   2   4   91.46    2.56
   3   2   4   85.98    2.50
   3   2   4   89.37    2.63
   3   2   4   91.59    2.55
   3   2   4   93.01    2.63
  -4  -2  -4  139.51    3.51
   4   2   4  135.54    3.81
   4   2   4  140.16    3.71
   4   2   4  135.94    3.65
  -5  -2  -4   17.71    0.79
   5   2   4   18.87    1.03
   5   2   4   16.84    0.78
   5   2   4   17.39    0.78
  -6  -2  -4   17.28    0.85
   6   2   4   18.87    1.09
   6   2   4   17.58    0.81
  -7  -2  -4    0.06    0.18
   7   2   4    0.08    0.14
   7   2   4    0.44    0.30
   8   2   4   17.74    1.23
   8   2   4   17.14    0.87
   5  -3  -4   52.74    1.47
   5  -3  -4   54.24    1.49
  -5   3   4   53.16    1.72
  -5   3   4   53.86    1.49
  -5   3   4   52.38    2.14
   4  -3  -4   67.53    1.84
   4  -3  -4   67.69    1.85
  -4   3   4   69.54    2.01
  -4   3   4   65.63    2.32
  -4   3   4   65.65    1.80
   3  -3  -4  102.43    2.76
   3  -3  -4  106.99    2.76
   3  -3  -4  107.82    3.19
  -3   3   4  106.06    2.76
  -3   3   4  103.34    3.06
  -3   3   4  100.61    2.61
   2  -3  -4    2.69    0.36
   2  -3  -4    2.26    0.24
   2  -3  -4    1.74    0.22
  -2   3   4    2.01    0.25
  -2   3   4    2.13    0.28
  -2   3   4    2.01    0.24
   1  -3  -4   41.28    1.35
   1  -3  -4   41.87    1.43
   1  -3  -4   42.60    1.36
  -1   3   4   42.42    1.27
  -1   3   4   41.80    1.22
  -1   3   4   40.50    1.28
  -1   3   4   43.60    1.29
  -1   3   4   43.51    1.34
   0  -3  -4   14.02    0.65
   0  -3  -4   13.43    0.62
   0  -3  -4   13.83    0.65
   0   3   4   14.24    0.63
   0   3   4   15.15    0.66
  -1  -3  -4   82.29    2.28
  -1  -3  -4   77.10    2.35
  -1  -3  -4   79.41    2.07
  -1  -3  -4   80.89    2.28
   1   3   4   79.71    2.28
   1   3   4   84.51    2.32
   1   3   4   78.58    2.26
  -2  -3  -4   15.43    0.68
  -2  -3  -4   15.33    0.66
  -2  -3  -4   16.21    0.72
   2   3   4   16.59    0.74
   2   3   4   14.98    0.70
   2   3   4   16.72    0.73
   2   3   4   14.62    0.75
   2   3   4   16.20    0.76
  -3  -3  -4   23.82    0.78
  -3  -3  -4   22.30    0.84
   3   3   4   24.23    0.95
   3   3   4   22.91    0.93
   3   3   4   22.67    1.02
   3   3   4   24.12    0.99
  -4  -3  -4   48.42    1.26
   4   3   4   44.34    1.51
   4   3   4   48.91    1.58
   4   3   4   44.13    1.66
  -5  -3  -4    0.42    0.14
   5   3   4    0.42    0.16
   5   3   4    0.25    0.21
   5   3   4    0.16    0.14
   5   3   4    0.25    0.14
   6   3   4    3.76    0.37
   6   3   4    3.93    0.54
   7   3   4    0.70    0.35
   7   3   4    1.06    0.26
   8   3   4    8.11    0.85
   8   3   4    7.40    0.58
   7  -4  -4   71.15    2.08
   6  -4  -4   15.25    0.87
   6  -4  -4   16.31    0.71
  -6   4   4   17.06    0.95
  -6   4   4   17.11    1.22
   5  -4  -4   52.65    1.58
   5  -4  -4   48.11    1.70
  -5   4   4   50.49    1.42
  -5   4   4   53.86    2.16
  -5   4   4   51.36    1.77
   4  -4  -4    1.70    0.23
   4  -4  -4    1.83    0.24
  -4   4   4    1.93    0.32
  -4   4   4    1.83    0.24
  -4   4   4    1.76    0.39
   3  -4  -4   44.62    1.73
   3  -4  -4   42.84    1.37
   3  -4  -4   40.29    1.37
  -3   4   4   41.27    1.28
  -3   4   4   43.59    1.48
  -3   4   4   40.42    1.64
   2  -4  -4   24.51    0.95
   2  -4  -4   24.35    0.95
   2  -4  -4   23.66    1.11
  -2   4   4   23.07    0.88
  -2   4   4   23.74    1.08
  -2   4   4   24.03    0.99
  -2   4   4   25.34    0.75
   1  -4  -4   60.17    1.89
   1  -4  -4   62.27    1.89
   1  -4  -4   64.37    1.97
  -1   4   4   61.49    1.92
  -1   4   4   63.55    1.83
  -1   4   4   61.37    1.80
  -1   4   4   63.48    1.87
   0  -4  -4   28.94    1.04
   0  -4  -4   28.71    1.08
   0   4   4   28.77    1.07
   0   4   4   29.38    1.08
   0   4   4   28.09    1.04
  -1  -4  -4   24.93    0.83
  -1  -4  -4   26.93    1.02
  -1  -4  -4   26.12    1.05
   1   4   4   25.18    0.80
   1   4   4   24.33    0.98
   1   4   4   25.58    1.02
  -2  -4  -4   19.85    0.87
  -2  -4  -4   20.00    0.83
  -2  -4  -4   20.91    0.85
   2   4   4   18.49    0.85
   2   4   4   22.06    0.91
   2   4   4   19.22    0.89
   2   4   4   21.69    0.85
  -3  -4  -4   95.25    2.69
  -3  -4  -4   95.14    2.58
  -3  -4  -4   99.33    2.58
   3   4   4   94.69    2.76
   3   4   4   96.54    2.80
   3   4   4   98.06    2.87
   3   4   4   99.40    2.80
   4   4   4   46.06    1.66
   4   4   4   47.62    1.58
   4   4   4   43.83    1.54
   5   4   4   56.25    1.99
   5   4   4   58.36    1.85
   5   4   4   51.76    1.79
   6   4   4   11.04    0.67
   6   4   4   11.90    0.85
   7   4   4   25.57    1.33
   7   4   4   23.19    1.07
   8   4   4    1.08    0.40
   8   4   4    0.56    0.23
   7  -5  -4   17.23    1.01
   7  -5  -4   15.59    0.81
   6  -5  -4    1.36    0.28
   6  -5  -4    1.65    0.38
  -6   5   4    1.40    0.45
   5  -5  -4   12.29    0.79
   5  -5  -4   12.51    0.69
  -5   5   4   12.07    0.81
  -5   5   4   12.86    0.56
  -5   5   4   13.75    1.05
   4  -5  -4    3.62    0.36
   4  -5  -4    3.69    0.45
   4  -5  -4    3.98    0.38
  -4   5   4    3.77    0.32
  -4   5   4    4.15    0.48
  -4   5   4    4.36    0.58
   3  -5  -4    0.91    0.21
   3  -5  -4    0.61    0.29
   3  -5  -4    0.25    0.15
  -3   5   4    0.74    0.29
  -3   5   4    0.42    0.20
  -3   5   4    0.60    0.18
   2  -5  -4   35.44    1.29
   2  -5  -4   33.29    1.27
   2  -5  -4   36.13    1.10
   2  -5  -4   34.88    1.46
  -2   5   4   35.02    1.10
  -2   5   4   35.39    1.33
  -2   5   4   34.44    1.08
  -2   5   4   31.56    1.37
   1  -5  -4   20.08    0.95
   1  -5  -4   20.36    0.89
   1  -5  -4   19.45    0.89
  -1   5   4   18.57    0.79
  -1   5   4   18.53    0.89
  -1   5   4   20.21    0.92
   0  -5  -4   25.62    1.06
   0  -5  -4   27.03    1.04
   0   5   4   27.28    1.00
   0   5   4   25.72    1.04
   0   5   4   28.63    1.10
  -1  -5  -4   14.63    0.60
  -1  -5  -4   13.15    0.69
   1   5   4   12.72    0.70
   1   5   4   14.15    0.73
  -2  -5  -4   79.25    2.35
  -2  -5  -4   81.18    2.45
   2   5   4   82.37    2.32
   2   5   4   79.64    2.40
   2   5   4   85.82    2.50
   2   5   4   75.94    2.40
  -3  -5  -4    2.63    0.30
  -3  -5  -4    2.57    0.27
   3   5   4    2.88    0.38
   3   5   4    2.27    0.32
   3   5   4    2.25    0.32
  -4  -5  -4    9.36    0.42
   4   5   4   10.02    0.63
   4   5   4    9.75    0.68
   4   5   4   10.94    0.66
   5   5   4   42.67    1.55
   5   5   4   43.54    1.66
   5   5   4   40.54    1.53
   6   5   4   62.04    2.05
   6   5   4   59.21    2.16
   7   5   4   57.73    2.20
   7   5   4   59.21    2.02
   8   5   4    2.83    0.54
   8   5   4    3.31    0.46
   7  -6  -4   25.60    1.20
   7  -6  -4   26.96    1.37
   6  -6  -4    8.43    0.64
   6  -6  -4    8.17    0.73
  -6   6   4    7.35    0.92
   5  -6  -4   13.74    0.90
   5  -6  -4   14.46    0.82
  -5   6   4   17.97    1.23
   4  -6  -4    8.01    0.59
   4  -6  -4    9.18    0.70
   4  -6  -4    9.26    0.64
  -4   6   4    8.69    0.50
  -4   6   4    7.02    0.76
   3  -6  -4   84.28    2.60
   3  -6  -4   85.44    2.62
   3  -6  -4   85.18    2.59
  -3   6   4   84.50    2.62
  -3   6   4   84.46    2.87
   2  -6  -4  143.77    4.06
   2  -6  -4  147.92    4.22
   2  -6  -4  156.51    3.80
  -2   6   4  140.10    3.78
  -2   6   4  142.11    4.15
  -2   6   4  148.62    3.94
   1  -6  -4  102.82    3.05
   1  -6  -4  107.89    3.08
  -1   6   4  100.29    3.00
  -1   6   4  104.39    2.93
  -1   6   4  101.62    2.90
   0  -6  -4   30.35    1.16
   0  -6  -4   27.02    1.15
   0   6   4   27.28    1.08
   0   6   4   27.50    1.14
   0   6   4   28.66    1.19
  -1  -6  -4   12.19    0.57
  -1  -6  -4   11.09    0.66
   1   6   4   11.16    0.68
   1   6   4   10.54    0.52
   1   6   4   11.00    0.68
  -2  -6  -4   38.09    1.40
  -2  -6  -4   42.01    1.51
   2   6   4   39.00    1.49
   2   6   4   39.80    1.43
  -3  -6  -4    2.84    0.31
  -3  -6  -4    3.75    0.37
   3   6   4    3.13    0.41
   3   6   4    2.75    0.36
  -4  -6  -4   33.80    1.13
   4   6   4   35.36    1.41
   4   6   4   37.04    1.44
   5   6   4    3.04    0.41
   5   6   4    3.39    0.45
   6   6   4    0.25    0.18
   6   6   4    0.63    0.29
   7   6   4   47.03    1.82
   7   6   4   47.65    1.92
   6  -7  -4   66.05    2.31
   6  -7  -4   64.61    2.46
   5  -7  -4    6.53    0.60
   5  -7  -4    7.31    0.70
  -5   7   4    7.99    0.90
   4  -7  -4   47.37    1.77
   4  -7  -4   45.88    1.81
  -4   7   4   45.74    2.07
  -4   7   4   43.37    1.44
   3  -7  -4   17.11    1.00
   3  -7  -4   17.68    0.95
  -3   7   4   19.24    1.17
   2  -7  -4    0.44    0.21
   2  -7  -4    0.73    0.18
   2  -7  -4    0.72    0.31
  -2   7   4    0.45    0.27
  -2   7   4    0.36    0.16
   1  -7  -4    3.21    0.41
   1  -7  -4    2.85    0.43
  -1   7   4    3.67    0.46
  -1   7   4    3.48    0.38
  -1   7   4    3.17    0.44
   0  -7  -4   18.38    0.91
   0  -7  -4   17.14    0.92
   0   7   4   17.49    0.87
   0   7   4   16.81    0.89
   0   7   4   18.09    0.95
  -1  -7  -4   45.18    1.48
  -1  -7  -4   45.24    1.69
   1   7   4   47.47    1.48
   1   7   4   47.16    1.69
   1   7   4   47.12    1.71
  -2  -7  -4    7.59    0.61
  -2  -7  -4    7.56    0.56
   2   7   4    8.20    0.62
   2   7   4    7.33    0.60
  -3  -7  -4  106.52    3.14
  -3  -7  -4  104.69    3.08
  -3  -7  -4  105.52    2.95
  -3  -7  -4  104.10    2.96
   3   7   4  102.20    2.95
   3   7   4  102.93    3.17
  -4  -7  -4   21.47    0.87
   4   7   4   24.05    1.08
   4   7   4   22.79    1.13
   5   7   4   38.78    1.56
   5   7   4   36.93    1.55
   5   7   4   36.54    1.43
   6   7   4    6.96    0.65
   6   7   4    5.97    0.60
   7   7   4   13.04    0.89
   7   7   4   12.63    0.92
   6  -8  -4   15.10    1.01
   5  -8  -4   36.18    1.61
   4  -8  -4   67.23    2.41
   4  -8  -4   67.39    2.42
  -4   8   4   67.93    2.73
   3  -8  -4    1.61    0.42
   3  -8  -4    1.91    0.40
  -3   8   4    2.55    0.53
   2  -8  -4   19.89    1.10
  -2   8   4   21.56    0.94
  -2   8   4   23.60    1.27
   1  -8  -4    2.12    0.39
   1  -8  -4    1.59    0.39
  -1   8   4    1.55    0.31
  -1   8   4    1.31    0.36
   0  -8  -4    9.44    0.71
   0  -8  -4    9.53    0.68
   0   8   4    8.85    0.65
   0   8   4   10.14    0.71
  -1  -8  -4   47.72    1.82
   1   8   4   51.11    1.88
   1   8   4   49.74    1.63
  -2  -8  -4    0.86    0.26
  -2  -8  -4    0.83    0.27
  -2  -8  -4    0.65    0.20
   2   8   4    0.82    0.28
   2   8   4    0.83    0.19
  -3  -8  -4   16.93    0.90
  -3  -8  -4   14.49    0.85
  -3  -8  -4   15.45    0.81
   3   8   4   17.55    1.00
  -4  -8  -4   17.70    1.04
  -4  -8  -4   16.11    0.78
   4   8   4   17.08    1.01
   5   8   4   32.42    1.50
   6   8   4    1.52    0.40
   7   8   4    1.14    0.36
   5  -9  -4   13.78    1.01
   4  -9  -4    2.28    0.46
  -4   9   4    3.86    0.69
   3  -9  -4   25.56    1.35
  -3   9   4   27.26    1.56
   2  -9  -4   28.79    1.41
  -2   9   4   27.80    1.48
   1  -9  -4   43.68    1.81
  -1   9   4   43.54    1.81
  -1   9   4   44.05    1.69
   0  -9  -4   10.34    0.80
   0  -9  -4   12.08    0.82
   0   9   4   12.00    0.80
   0   9   4   11.64    0.81
  -1  -9  -4   73.89    2.53
   1   9   4   75.00    2.57
   1   9   4   73.99    2.29
  -2  -9  -4    6.90    0.64
  -2  -9  -4    5.77    0.55
   2   9   4    5.22    0.60
  -3  -9  -4   25.94    1.20
  -3  -9  -4   25.39    1.23
   3   9   4   25.44    1.32
  -4  -9  -4    1.58    0.41
  -4  -9  -4    1.91    0.32
   4   9   4    1.69    0.42
  -5  -9  -4   32.55    1.69
   5   9   4   34.80    1.63
   6   9   4    4.34    0.60
   4 -10  -4    3.86    0.61
   3 -10  -4   18.04    1.18
  -3  10   4   20.50    1.39
   2 -10  -4    0.37    0.25
  -2  10   4    0.72    0.36
   1 -10  -4   49.12    2.08
  -1  10   4   52.59    1.98
  -1  10   4   55.73    2.17
   0 -10  -4   -0.03    0.19
   0  10   4    0.00    0.22
   0  10   4    0.62    0.27
  -1 -10  -4   26.05    1.33
   1  10   4   26.23    1.36
  -2 -10  -4    7.04    0.64
   2  10   4    8.00    0.76
  -3 -10  -4    0.19    0.19
   3  10   4    0.29    0.26
  -4 -10  -4   46.83    1.69
   4  10   4   47.10    2.04
   5  10   4    9.15    0.85
   3 -11  -4   34.15    1.76
   2 -11  -4    6.07    0.75
  -2  11   4    5.39    0.76
   1 -11  -4   38.81    1.84
  -1  11   4   38.66    1.83
   0 -11  -4    0.60    0.32
   0  11   4    0.23    0.23
  -1 -11  -4    2.43    0.51
   1  11   4    3.75    0.57
   2  11   4    8.92    0.85
  -3 -11  -4    0.45    0.26
   3  11   4    0.85    0.35
  -4 -11  -4    8.39    0.64
   4  11   4    9.36    0.91
   1 -12  -4   11.49    1.02
   0 -12  -4   27.21    1.52
   1  12   4    7.55    0.82
   2  12   4  129.00    4.25
   3  10  -5    1.43    0.46
  -3 -10   5    2.37    0.31
   2  10  -5    1.50    0.45
  -2 -10   5    1.81    0.39
   1  10  -5   13.71    1.11
  -1 -10   5   14.96    1.03
  -1 -10   5   17.08    1.08
   0  10  -5    3.20    0.62
   0 -10   5    3.69    0.61
  -1  10  -5   71.04    2.73
   1 -10   5   72.88    2.75
   1 -10   5   73.29    2.67
   2 -10   5   12.80    1.08
   2 -10   5   14.51    1.11
   4   9  -5    1.12    0.40
  -4  -9   5    1.97    0.63
   3   9  -5   13.30    1.04
  -3  -9   5   13.46    0.64
   2   9  -5    0.05    0.23
  -2  -9   5    0.13    0.18
  -2  -9   5    0.72    0.27
   1   9  -5   19.64    1.24
  -1  -9   5   17.17    1.06
  -1  -9   5   22.08    1.19
   0   9  -5    2.67    0.53
   0   9  -5    2.54    0.50
   0   9  -5    2.99    0.69
   0  -9   5    2.84    0.52
   0  -9   5    2.21    0.44
   0  -9   5    2.19    0.47
   0  -9   5    2.62    0.47
  -1   9  -5   64.49    2.32
  -1   9  -5   65.03    2.50
  -1   9  -5   64.67    2.84
   1  -9   5   69.00    2.51
   1  -9   5   64.73    2.40
   1  -9   5   66.12    2.48
  -2   9  -5    0.04    0.21
  -2   9  -5    0.08    0.22
   2  -9   5    0.06    0.25
   2  -9   5    0.05    0.21
   3  -9   5   35.68    1.79
   3  -9   5   37.78    1.90
   4  -9   5    3.03    0.62
   4  -9   5    2.34    0.64
   5   8  -5   34.69    1.66
  -5  -8   5   33.59    2.08
   4   8  -5    8.81    0.80
  -4  -8   5    8.09    0.97
   3   8  -5   60.49    2.30
  -3  -8   5   56.19    1.68
   2   8  -5    0.69    0.30
   2   8  -5    1.07    0.38
  -2  -8   5    1.35    0.33
  -2  -8   5    0.77    0.26
   1   8  -5   90.84    2.87
   1   8  -5   85.69    2.99
  -1  -8   5   88.40    2.55
  -1  -8   5   82.89    2.83
  -1  -8   5   86.78    2.74
  -1  -8   5   88.31    2.72
   0   8  -5   19.52    1.18
   0   8  -5   23.08    1.20
   0  -8   5   22.22    1.19
   0  -8   5   24.46    1.26
   0  -8   5   20.91    1.13
   0  -8   5   20.48    1.06
  -1   8  -5   10.13    1.01
  -1   8  -5    9.68    0.81
  -1   8  -5    8.23    0.71
   1  -8   5    9.80    0.82
   1  -8   5    9.46    0.77
   1  -8   5    9.50    0.78
   1  -8   5    9.21    0.83
  -2   8  -5    0.86    0.31
  -2   8  -5    0.56    0.35
  -2   8  -5    0.22    0.21
   2  -8   5    0.08    0.27
   2  -8   5    1.03    0.35
   2  -8   5    1.12    0.40
  -3   8  -5   22.27    1.60
  -3   8  -5   23.12    1.11
   3  -8   5   20.27    1.27
   3  -8   5   20.72    1.32
   4  -8   5   21.90    1.44
   4  -8   5   21.24    1.32
   5  -8   5   14.43    1.10
   5  -8   5   12.22    1.17
   6   7  -5    0.25    0.23
  -6  -7   5   -0.01    0.43
   5   7  -5   91.57    3.02
  -5  -7   5   90.94    3.70
   4   7  -5    0.29    0.21
  -4  -7   5    0.42    0.34
   3   7  -5   23.41    1.25
   3   7  -5   21.87    1.20
  -3  -7   5   23.27    0.96
   2   7  -5    3.14    0.48
   2   7  -5    3.55    0.50
  -2  -7   5    3.45    0.43
  -2  -7   5    3.18    0.38
   1   7  -5  132.46    3.69
   1   7  -5  121.94    3.86
  -1  -7   5  128.34    3.64
  -1  -7   5  121.92    3.76
  -1  -7   5  130.19    3.39
  -1  -7   5  131.41    3.54
   0   7  -5    1.61    0.39
   0   7  -5    1.95    0.39
   0  -7   5    1.86    0.40
   0  -7   5    1.53    0.34
   0  -7   5    1.39    0.33
   0  -7   5    1.23    0.34
  -1   7  -5    1.66    0.39
  -1   7  -5    1.84    0.37
  -1   7  -5    1.96    0.53
   1  -7   5    1.04    0.33
   1  -7   5    1.08    0.35
   1  -7   5    1.37    0.38
   1  -7   5    1.91    0.39
  -2   7  -5    6.03    0.79
  -2   7  -5    5.17    0.53
  -2   7  -5    5.10    0.55
   2  -7   5    5.10    0.60
   2  -7   5    6.18    0.68
   2  -7   5    5.74    0.65
  -3   7  -5    4.72    0.72
  -3   7  -5    4.05    0.46
  -3   7  -5    4.23    0.49
   3  -7   5    4.05    0.56
   3  -7   5    4.50    0.63
   3  -7   5    2.88    0.57
  -4   7  -5  171.01    5.45
   4  -7   5  169.84    5.03
   4  -7   5  168.14    5.10
   5  -7   5    8.43    0.95
   5  -7   5    6.57    0.73
   6  -7   5   85.64    3.08
   6  -7   5   83.92    3.38
   6   6  -5    6.18    0.58
  -6  -6   5    6.16    0.94
   5   6  -5   29.09    1.31
   5   6  -5   31.49    1.49
  -5  -6   5   26.37    1.74
   4   6  -5   19.00    1.10
   4   6  -5   19.52    1.04
  -4  -6   5   17.13    1.27
   3   6  -5   32.71    1.47
   3   6  -5   33.95    1.47
  -3  -6   5   35.90    1.19
   2   6  -5    2.16    0.38
   2   6  -5    2.51    0.42
  -2  -6   5    1.54    0.31
  -2  -6   5    2.26    0.26
  -2  -6   5    2.18    0.31
  -2  -6   5    2.24    0.21
   1   6  -5   12.52    0.81
   1   6  -5   13.07    0.85
  -1  -6   5   13.13    0.76
  -1  -6   5   13.03    0.72
  -1  -6   5   12.76    0.77
  -1  -6   5   13.56    0.66
   0   6  -5   41.42    1.57
   0   6  -5   41.83    1.68
   0  -6   5   42.46    1.59
   0  -6   5   40.53    1.56
   0  -6   5   41.82    1.49
   0  -6   5   42.05    1.66
  -1   6  -5    2.22    0.38
  -1   6  -5    1.89    0.36
   1  -6   5    1.64    0.39
   1  -6   5    1.95    0.37
   1  -6   5    1.86    0.39
   1  -6   5    2.44    0.41
  -2   6  -5   78.93    2.34
  -2   6  -5   75.77    2.87
  -2   6  -5   77.20    2.54
   2  -6   5   79.19    2.71
   2  -6   5   75.09    2.54
   2  -6   5   78.18    2.60
   2  -6   5   78.58    2.61
  -3   6  -5   18.22    0.88
  -3   6  -5   14.26    1.13
  -3   6  -5   16.03    0.87
   3  -6   5   19.15    1.14
   3  -6   5   14.94    0.96
   3  -6   5   16.91    1.07
  -4   6  -5   17.30    0.82
  -4   6  -5   13.59    1.18
   4  -6   5   15.60    1.13
   4  -6   5   15.20    1.07
   4  -6   5   17.46    1.04
  -5   6  -5   23.22    1.58
   5  -6   5   23.22    1.48
   5  -6   5   25.38    1.33
   6  -6   5   82.58    2.92
   6  -6   5   83.31    3.27
   7   5  -5  126.26    3.65
  -7  -5   5  135.89    5.02
   6   5  -5    5.32    0.49
   6   5  -5    4.81    0.58
  -6  -5   5    3.37    0.75
   5   5  -5    0.90    0.32
   5   5  -5    0.61    0.22
  -5  -5   5    0.65    0.37
   4   5  -5    5.74    0.51
   4   5  -5    6.11    0.60
  -4  -5   5    5.30    0.72
  -4  -5   5    6.14    0.30
   3   5  -5   12.25    0.81
   3   5  -5   12.88    0.74
   3   5  -5   11.54    0.73
  -3  -5   5   11.19    0.55
   2   5  -5  107.62    3.10
   2   5  -5  108.17    3.22
  -2  -5   5  109.90    3.18
  -2  -5   5  105.04    3.00
  -2  -5   5  110.54    2.83
  -2  -5   5  108.98    2.58
   1   5  -5   14.95    0.84
   1   5  -5   16.68    0.91
  -1  -5   5   15.82    0.67
  -1  -5   5   14.60    0.85
  -1  -5   5   15.38    0.74
  -1  -5   5   14.34    0.78
  -1  -5   5   14.96    0.79
   0   5  -5  161.34    4.58
   0   5  -5  168.94    4.27
   0  -5   5  166.67    4.28
   0  -5   5  168.91    4.49
   0  -5   5  162.17    4.60
   0  -5   5  161.75    4.24
  -1   5  -5   63.39    1.96
  -1   5  -5   60.67    2.10
   1  -5   5   59.73    1.94
   1  -5   5   60.36    2.01
   1  -5   5   60.42    2.06
   1  -5   5   61.47    2.14
  -2   5  -5  650.96   16.37
  -2   5  -5  679.86   14.96
  -2   5  -5  659.05   16.38
   2  -5   5  671.85   16.45
   2  -5   5  677.91   15.83
   2  -5   5  690.82   14.99
   2  -5   5  677.10   16.80
  -3   5  -5   29.82    1.15
  -3   5  -5   31.48    1.61
  -3   5  -5   30.39    1.23
   3  -5   5   29.56    1.44
   3  -5   5   30.75    1.17
   3  -5   5   30.54    1.36
  -4   5  -5   29.79    1.66
  -4   5  -5   33.20    1.19
   4  -5   5   32.33    1.44
   4  -5   5   33.65    1.63
   4  -5   5   32.22    1.18
  -5   5  -5   23.63    1.51
   5  -5   5   21.49    1.29
   5  -5   5   21.74    1.18
   5  -5   5   22.01    1.39
  -6   5  -5   12.08    1.15
   6  -5   5   11.10    1.05
   6  -5   5   11.17    0.87
   7  -5   5    8.01    1.00
   7  -5   5    7.75    0.75
   7   4  -5   23.55    1.24
   7   4  -5   23.00    0.93
  -7  -4   5   24.68    1.80
   6   4  -5    8.51    0.73
   6   4  -5    8.11    0.52
  -6  -4   5    8.91    1.02
   5   4  -5    0.24    0.16
   5   4  -5    0.30    0.21
  -5  -4   5    0.24    0.30
   4   4  -5  120.42    3.20
   4   4  -5  114.96    3.21
   4   4  -5  113.09    3.25
  -4  -4   5  106.32    3.83
   3   4  -5    3.62    0.36
   3   4  -5    3.44    0.43
   3   4  -5    3.56    0.38
  -3  -4   5    4.04    0.30
  -3  -4   5    2.84    0.43
   2   4  -5   85.12    2.66
   2   4  -5   87.91    2.61
   2   4  -5   90.81    2.65
  -2  -4   5   90.66    2.32
  -2  -4   5   95.27    2.34
  -2  -4   5   91.90    2.66
  -2  -4   5   86.56    2.47
   1   4  -5   21.78    1.03
   1   4  -5   23.06    1.03
  -1  -4   5   23.50    0.93
  -1  -4   5   22.48    0.97
  -1  -4   5   24.58    0.84
  -1  -4   5   24.34    1.06
   0   4  -5   69.20    2.24
   0   4  -5   70.20    2.09
   0  -4   5   68.83    2.02
   0  -4   5   67.58    2.13
   0  -4   5   70.29    2.23
   0  -4   5   69.98    2.11
  -1   4  -5    2.83    0.35
  -1   4  -5    3.49    0.41
   1  -4   5    3.16    0.37
   1  -4   5    3.53    0.39
   1  -4   5    3.11    0.39
   1  -4   5    3.57    0.41
  -2   4  -5  205.21    4.95
  -2   4  -5  207.18    5.42
  -2   4  -5  207.92    5.64
   2  -4   5  208.94    4.97
   2  -4   5  196.74    5.43
   2  -4   5  201.67    5.59
   2  -4   5  202.43    5.34
  -3   4  -5    1.80    0.29
  -3   4  -5    2.30    0.47
  -3   4  -5    1.68    0.27
   3  -4   5    1.63    0.40
   3  -4   5    1.86    0.36
   3  -4   5    1.63    0.27
   3  -4   5    1.99    0.35
  -4   4  -5    0.25    0.29
  -4   4  -5    0.18    0.15
   4  -4   5    0.17    0.26
   4  -4   5    0.40    0.16
   4  -4   5    0.40    0.21
  -5   4  -5   79.18    2.93
   5  -4   5   71.66    2.48
   5  -4   5   74.32    2.78
  -6   4  -5    4.21    0.70
   6  -4   5    4.05    0.52
   6  -4   5    5.17    0.74
   6  -4   5    3.71    0.61
  -7   4  -5   70.71    3.00
   7  -4   5   68.42    2.48
   7  -4   5   70.84    2.95
   7   3  -5   -0.08    0.19
  -7  -3   5   -0.01    0.34
   6   3  -5   32.75    1.41
   6   3  -5   35.14    1.10
  -6  -3   5   31.17    1.90
   5   3  -5   34.76    1.40
   5   3  -5   33.27    1.12
  -5  -3   5   32.01    1.79
   4   3  -5  608.82   14.31
   4   3  -5  604.21   14.33
   4   3  -5  590.99   13.46
  -4  -3   5  579.70   15.46
  -4  -3   5  596.48   13.50
   3   3  -5    5.86    0.42
   3   3  -5    5.17    0.41
   3   3  -5    5.58    0.50
  -3  -3   5    6.42    0.53
   2   3  -5  358.66    9.08
   2   3  -5  378.42    9.07
   2   3  -5  358.01    8.48
  -2  -3   5  374.55    8.28
  -2  -3   5  363.83    8.97
  -2  -3   5  367.67    8.51
   1   3  -5  103.31    3.04
   1   3  -5  113.03    3.04
   1   3  -5  106.36    3.12
   1   3  -5  104.26    2.89
  -1  -3   5  110.45    2.93
  -1  -3   5  108.84    3.02
  -1  -3   5  104.29    2.88
  -1  -3   5  107.87    2.71
   0   3  -5   51.10    1.63
   0   3  -5   47.63    1.70
   0  -3   5   49.96    1.63
   0  -3   5   51.92    1.57
   0  -3   5   53.49    1.66
   0  -3   5   49.73    1.70
  -1   3  -5   35.95    1.25
  -1   3  -5   34.71    1.33
   1  -3   5   33.94    1.23
   1  -3   5   34.79    1.29
   1  -3   5   35.07    1.30
   1  -3   5   34.09    1.34
  -2   3  -5    5.99    0.44
  -2   3  -5    5.23    0.44
   2  -3   5    5.55    0.52
   2  -3   5    4.80    0.45
   2  -3   5    5.20    0.48
   2  -3   5    5.07    0.41
  -3   3  -5   52.24    1.60
  -3   3  -5   52.72    1.68
  -3   3  -5   50.75    2.00
   3  -3   5   51.67    1.59
   3  -3   5   50.73    1.80
   3  -3   5   54.18    1.96
   3  -3   5   54.31    1.90
  -4   3  -5    4.50    0.60
   4  -3   5    5.79    0.55
   4  -3   5    5.44    0.41
   4  -3   5    4.94    0.48
   4  -3   5    5.07    0.60
  -5   3  -5   79.50    2.89
   5  -3   5   79.55    2.87
   5  -3   5   80.02    2.56
   5  -3   5   80.74    2.15
  -6   3  -5    3.01    0.56
   6  -3   5    3.07    0.43
   6  -3   5    3.84    0.63
  -7   3  -5   94.70    3.50
   7  -3   5   96.42    3.50
   7  -3   5   92.49    3.01
  -8  -2   5   81.44    3.70
   7   2  -5   -0.13    0.17
  -7  -2   5    0.19    0.34
   6   2  -5   77.06    2.37
  -6  -2   5   72.42    3.08
   5   2  -5    6.56    0.34
   5   2  -5    6.94    0.34
   5   2  -5    6.68    0.32
   5   2  -5    6.36    0.54
  -5  -2   5    6.28    0.77
   4   2  -5   66.60    1.89
   4   2  -5   69.40    2.11
   4   2  -5   69.87    1.90
  -4  -2   5   62.53    2.54
  -4  -2   5   68.84    2.12
  -4  -2   5   68.94    1.60
   3   2  -5   16.24    0.52
   3   2  -5   16.54    0.70
   3   2  -5   15.84    0.80
   3   2  -5   15.12    0.68
   3   2  -5   18.10    0.71
  -3  -2   5   17.08    1.03
  -3  -2   5   16.68    0.83
   2   2  -5    4.53    0.35
   2   2  -5    4.47    0.26
   2   2  -5    3.79    0.35
   2   2  -5    4.00    0.39
  -2  -2   5    4.05    0.40
   1   2  -5   75.84    2.18
   1   2  -5   73.17    2.21
   1   2  -5   75.21    2.13
   1   2  -5   73.51    2.25
   1   2  -5   73.01    1.98
  -1  -2   5   72.98    2.13
  -1  -2   5   71.98    2.05
  -1  -2   5   73.15    1.96
  -1  -2   5   77.32    2.08
  -1  -2   5   73.27    2.14
   0   2  -5   10.83    0.61
   0   2  -5   12.21    0.63
   0   2  -5   11.26    0.58
   0   2  -5   13.13    0.69
   0   2  -5   11.36    0.64
   0  -2   5   11.08    0.63
   0  -2   5   11.57    0.63
   0  -2   5   11.69    0.59
   0  -2   5   11.15    0.59
  -1   2  -5   61.48    1.96
  -1   2  -5   63.01    1.82
   1  -2   5   63.28    1.82
   1  -2   5   59.93    1.91
   1  -2   5   63.73    2.00
   1  -2   5   60.71    1.90
  -2   2  -5   11.00    0.62
  -2   2  -5   12.45    0.62
   2  -2   5   10.93    0.64
   2  -2   5   10.58    0.68
   2  -2   5   12.25    0.70
   2  -2   5   10.99    0.67
   2  -2   5   10.97    0.59
  -3   2  -5  304.72    7.86
  -3   2  -5  309.99    7.08
  -3   2  -5  314.02    7.66
   3  -2   5  297.40    7.78
   3  -2   5  298.09    7.68
   3  -2   5  308.00    7.06
   3  -2   5  326.74    8.03
   3  -2   5  312.48    7.85
  -4   2  -5    1.64    0.17
  -4   2  -5    1.57    0.17
  -4   2  -5    1.62    0.38
   4  -2   5    1.31    0.29
   4  -2   5    1.65    0.30
   4  -2   5    1.37    0.23
   4  -2   5    1.68    0.40
   4  -2   5    1.62    0.33
  -5   2  -5  338.84    8.96
   5  -2   5  344.13    8.89
   5  -2   5  356.97    8.88
   5  -2   5  356.87    7.86
   5  -2   5  342.42    8.79
  -6   2  -5   -0.21    0.22
   6  -2   5    0.47    0.32
   6  -2   5    0.16    0.17
  -7   2  -5   49.62    2.18
   7  -2   5   44.92    2.17
   7  -2   5   48.52    1.82
  -8   2  -5   -0.03    0.33
   8  -2   5    0.10    0.18
   8  -2   5    0.29    0.37
  -8  -1   5   87.32    3.79
  -7  -1   5    9.14    1.06
   6   1  -5   60.48    1.81
   6   1  -5   57.84    1.90
  -6  -1   5   57.27    2.59
   5   1  -5    0.53    0.21
  -5  -1   5    0.50    0.21
  -5  -1   5    1.43    0.48
   4   1  -5   14.21    0.54
   4   1  -5   12.91    0.71
   4   1  -5   13.71    0.52
   4   1  -5   13.25    0.51
  -4  -1   5   12.71    0.71
  -4  -1   5   12.89    0.48
  -4  -1   5   11.50    0.91
   3   1  -5    2.29    0.23
   3   1  -5    2.70    0.22
   3   1  -5    2.71    0.24
   3   1  -5    2.34    0.32
  -3  -1   5    2.54    0.32
  -3  -1   5    2.07    0.39
   2   1  -5    5.99    0.34
   2   1  -5    6.29    0.39
   2   1  -5    6.37    0.46
   2   1  -5    5.69    0.39
  -2  -1   5    6.13    0.46
   1   1  -5  377.76    8.53
   1   1  -5  360.57    9.03
   1   1  -5  373.22    9.20
   1   1  -5  362.44    8.35
   1   1  -5  376.93    9.00
  -1  -1   5  388.47    8.89
  -1  -1   5  361.29    8.48
  -1  -1   5  361.72    8.86
  -1  -1   5  356.41    9.09
  -1  -1   5  359.34    8.35
   0   1  -5    0.28    0.15
   0   1  -5    0.04    0.11
   0   1  -5    0.14    0.11
   0   1  -5    0.14    0.14
   0   1  -5    0.21    0.14
   0  -1   5    0.11    0.13
   0  -1   5    0.03    0.11
   0  -1   5    0.10    0.10
   0  -1   5    0.00    0.10
   0  -1   5    0.29    0.13
  -1   1  -5  543.13   12.70
  -1   1  -5  525.29   11.66
  -1   1  -5  521.57   12.73
   1  -1   5  512.27   12.69
   1  -1   5  531.34   12.74
   1  -1   5  531.44   11.66
   1  -1   5  532.53   12.98
   1  -1   5  501.98   12.15
  -2   1  -5   10.36    0.56
  -2   1  -5   10.77    0.59
   2  -1   5   11.08    0.62
   2  -1   5    9.79    0.55
   2  -1   5   10.83    0.64
   2  -1   5   10.23    0.59
   2  -1   5   10.45    0.67
  -3   1  -5  170.11    4.34
  -3   1  -5  162.93    4.53
   3  -1   5  164.44    4.52
   3  -1   5  176.12    4.63
   3  -1   5  167.74    4.47
   3  -1   5  171.84    4.53
   3  -1   5  164.65    4.06
  -4   1  -5   13.17    0.84
   4  -1   5   14.76    0.81
   4  -1   5   13.57    0.65
   4  -1   5   13.24    0.88
   4  -1   5   12.83    0.72
   4  -1   5   14.98    0.79
  -5   1  -5  217.45    5.94
   5  -1   5  219.26    5.78
   5  -1   5  233.00    5.89
   5  -1   5  217.32    6.00
   5  -1   5  220.25    5.19
  -6   1  -5   25.30    1.33
   6  -1   5   23.55    1.07
   6  -1   5   22.57    1.35
  -7   1  -5    2.18    0.48
   7  -1   5    2.71    0.41
   7  -1   5    2.35    0.61
  -8   1  -5    5.37    0.79
   8  -1   5    5.99    0.84
   8  -1   5    5.38    0.56
  -8   0   5   17.59    1.54
  -7   0   5    6.22    0.90
   6   0  -5    0.04    0.13
  -6   0   5   -0.18    0.26
   5   0  -5   48.97    1.59
  -5   0   5   49.71    1.61
  -5   0   5   47.05    2.13
  -5   0   5   49.56    1.34
   4   0  -5    1.13    0.24
   4   0  -5    1.00    0.13
   4   0  -5    1.02    0.13
  -4   0   5    0.67    0.15
  -4   0   5    0.99    0.24
  -4   0   5    1.22    0.37
   3   0  -5  197.48    4.68
   3   0  -5  191.81    4.68
   3   0  -5  195.31    4.82
   3   0  -5  196.22    4.82
  -3   0   5  196.95    4.71
  -3   0   5  188.06    5.43
   2   0  -5    7.46    0.41
   2   0  -5    7.99    0.43
   2   0  -5    6.78    0.41
   2   0  -5    6.08    0.44
  -2   0   5    6.99    0.48
   1   0  -5  567.48   13.97
   1   0  -5  594.64   13.96
   1   0  -5  599.05   13.30
   1   0  -5  562.33   12.86
   1   0  -5  598.54   14.25
  -1   0   5  576.76   12.87
  -1   0   5  577.12   13.82
  -1   0   5  557.55   13.24
  -1   0   5  605.53   13.84
   0   0  -5   94.18    2.69
   0   0  -5   91.63    2.64
   0   0  -5   89.86    2.47
   0   0  -5   96.31    2.55
   0   0  -5   97.05    2.62
   0   0   5   90.70    2.56
   0   0   5   95.71    2.68
   0   0   5   92.34    2.51
   0   0   5   92.32    2.48
   0   0   5   97.42    2.60
  -1   0  -5  878.72   21.22
  -1   0  -5  866.18   19.38
  -1   0  -5  922.16   21.18
   1   0   5  888.64   19.38
   1   0   5  910.65   21.22
   1   0   5  869.78   20.25
   1   0   5  877.42   21.17
   1   0   5  918.81   21.24
   1   0   5  886.64   21.60
  -2   0  -5    7.21    0.48
  -2   0  -5    6.44    0.44
   2   0   5    6.07    0.51
   2   0   5    8.33    0.54
   2   0   5    6.96    0.49
   2   0   5    6.80    0.44
   2   0   5    6.97    0.47
  -3   0  -5   66.15    2.12
  -3   0  -5   70.08    1.98
   3   0   5   67.01    2.22
   3   0   5   71.39    2.20
   3   0   5   69.16    1.94
   3   0   5   70.29    2.14
   3   0   5   68.63    2.10
  -4   0  -5    0.28    0.20
   4   0   5    0.24    0.15
   4   0   5   -0.06    0.15
   4   0   5    0.71    0.19
   4   0   5    0.86    0.25
   4   0   5    0.29    0.15
  -5   0  -5    3.78    0.48
   5   0   5    4.17    0.43
   5   0   5    3.95    0.36
   5   0   5    3.46    0.54
   5   0   5    4.42    0.42
  -6   0  -5   20.69    1.13
   6   0   5   21.54    1.29
   6   0   5   20.10    0.96
   6   0   5   20.83    0.86
  -7   0  -5    3.72    0.54
   7   0   5    4.20    0.67
   7   0   5    3.58    0.43
   8   0   5   74.22    2.44
   8   0   5   73.10    2.94
  -8   1   5    5.13    0.91
  -7   1   5   29.09    1.82
   6  -1  -5    4.97    0.42
  -6   1   5    4.94    0.43
  -6   1   5    2.95    0.62
   5  -1  -5  267.85    6.25
  -5   1   5  265.93    6.25
  -5   1   5  265.34    7.54
  -5   1   5  269.23    6.10
   4  -1  -5   31.86    0.95
   4  -1  -5   32.20    1.15
   4  -1  -5   32.02    0.96
  -4   1   5   33.83    1.08
  -4   1   5   29.79    1.47
  -4   1   5   31.94    1.15
   3  -1  -5  270.04    6.94
   3  -1  -5  267.60    6.27
   3  -1  -5  276.63    6.59
   3  -1  -5  268.85    6.60
  -3   1   5  266.38    6.28
  -3   1   5  273.55    6.15
  -3   1   5  267.79    7.22
   2  -1  -5   20.97    0.85
   2  -1  -5   21.88    0.84
   2  -1  -5   21.62    0.81
   2  -1  -5   21.29    0.82
  -2   1   5   21.63    0.96
  -2   1   5   22.54    0.88
   1  -1  -5  335.90    7.83
   1  -1  -5  344.25    8.10
   1  -1  -5  364.09    8.67
   1  -1  -5  326.70    8.43
   1  -1  -5  356.27    8.46
  -1   1   5  335.13    7.82
  -1   1   5  362.08    8.35
  -1   1   5  337.77    8.31
   0  -1  -5   68.51    2.09
   0  -1  -5   73.61    2.17
   0  -1  -5   68.90    2.10
   0  -1  -5   74.48    2.09
   0   1   5   70.57    2.04
   0   1   5   74.07    2.08
   0   1   5   70.31    2.03
   0   1   5   71.56    2.00
   0   1   5   72.47    2.14
  -1  -1  -5  113.99    3.19
  -1  -1  -5  121.02    3.18
   1   1   5  116.00    3.17
   1   1   5  113.84    2.98
   1   1   5  124.11    3.22
   1   1   5  115.39    3.28
   1   1   5  117.45    3.15
  -2  -1  -5    2.94    0.31
  -2  -1  -5    3.02    0.30
  -2  -1  -5    2.28    0.29
   2   1   5    3.27    0.33
   2   1   5    3.06    0.37
   2   1   5    3.06    0.35
   2   1   5    2.28    0.28
   2   1   5    2.88    0.31
   2   1   5    3.04    0.33
  -3  -1  -5    1.64    0.26
  -3  -1  -5    1.95    0.23
  -3  -1  -5    2.22    0.24
   3   1   5    1.44    0.25
   3   1   5    1.48    0.26
   3   1   5    1.85    0.26
   3   1   5    1.59    0.32
   3   1   5    1.51    0.28
  -4  -1  -5  234.06    5.98
   4   1   5  252.87    6.32
   4   1   5  234.58    6.10
   4   1   5  234.33    5.63
   4   1   5  244.10    6.16
   4   1   5  233.05    6.15
  -5  -1  -5   24.48    1.08
   5   1   5   23.64    1.02
   5   1   5   22.58    1.22
   5   1   5   25.49    1.08
   5   1   5   25.30    1.00
  -6  -1  -5  142.74    3.97
   6   1   5  137.92    3.89
   6   1   5  144.12    4.26
   6   1   5  140.03    3.59
  -7  -1  -5    2.10    0.42
   7   1   5    1.33    0.45
   7   1   5    1.73    0.34
   8   1   5  126.22    4.17
   8   1   5  125.55    3.66
  -8   2   5    3.37    0.79
  -7   2   5   62.14    2.79
  -6   2   5   18.16    1.27
   5  -2  -5  370.90    8.70
  -5   2   5  372.57    8.28
  -5   2   5  353.05    8.25
  -5   2   5  358.36    9.84
   4  -2  -5   13.49    0.55
   4  -2  -5   13.51    0.55
   4  -2  -5   11.88    0.62
  -4   2   5   12.94    0.65
  -4   2   5   12.33    0.86
  -4   2   5   13.34    0.65
   3  -2  -5  158.22    4.27
   3  -2  -5  172.49    4.30
   3  -2  -5  175.08    4.71
  -3   2   5  172.16    4.13
  -3   2   5  167.82    4.75
  -3   2   5  172.88    4.11
   2  -2  -5    7.63    0.44
   2  -2  -5    7.17    0.43
   2  -2  -5    8.20    0.60
  -2   2   5    7.77    0.51
  -2   2   5    6.65    0.46
   1  -2  -5   83.18    2.39
   1  -2  -5   86.51    2.39
   1  -2  -5   83.76    2.47
  -1   2   5   83.41    2.28
  -1   2   5   89.16    2.31
  -1   2   5   82.71    2.28
   0  -2  -5   61.52    1.98
   0  -2  -5   70.76    2.02
   0  -2  -5   70.07    2.09
   0   2   5   65.87    1.91
   0   2   5   68.08    1.98
   0   2   5   64.80    1.94
   0   2   5   71.00    2.00
  -1  -2  -5    3.34    0.38
  -1  -2  -5    2.69    0.31
  -1  -2  -5    2.89    0.32
   1   2   5    3.15    0.32
   1   2   5    2.89    0.32
   1   2   5    3.02    0.31
   1   2   5    2.76    0.30
   1   2   5    2.85    0.33
  -2  -2  -5  221.78    5.69
  -2  -2  -5  227.62    5.82
   2   2   5  237.66    5.78
   2   2   5  214.57    5.61
   2   2   5  221.21    5.90
   2   2   5  223.28    5.72
  -3  -2  -5    5.30    0.36
  -3  -2  -5    5.12    0.36
  -3  -2  -5    5.20    0.39
   3   2   5    5.40    0.44
   3   2   5    6.29    0.52
   3   2   5    5.94    0.48
   3   2   5    4.89    0.41
   3   2   5    5.55    0.45
  -4  -2  -5  150.84    3.88
   4   2   5  149.34    4.22
   4   2   5  148.82    4.08
   4   2   5  158.07    4.16
   4   2   5  155.11    4.26
  -5  -2  -5    0.12    0.14
   5   2   5    0.00    0.12
   5   2   5    0.44    0.25
   5   2   5    0.26    0.17
  -6  -2  -5   21.28    0.97
   6   2   5   19.25    0.94
   6   2   5   22.76    1.26
   7   2   5    0.28    0.18
   7   2   5    0.21    0.29
   8   2   5   33.19    1.78
   8   2   5   31.34    1.35
   7  -3  -5   97.25    2.60
   6  -3  -5   13.77    0.60
  -6   3   5   13.67    0.78
  -6   3   5   16.24    1.18
   5  -3  -5   51.74    1.54
  -5   3   5   50.91    2.11
  -5   3   5   50.83    1.54
  -5   3   5   51.74    1.70
   4  -3  -5    6.29    0.40
   4  -3  -5    6.58    0.41
  -4   3   5    6.61    0.61
  -4   3   5    6.14    0.44
  -4   3   5    6.68    0.50
   3  -3  -5    6.27    0.42
   3  -3  -5    6.65    0.41
   3  -3  -5    6.30    0.59
  -3   3   5    5.78    0.50
  -3   3   5    6.69    0.45
  -3   3   5    6.71    0.49
   2  -3  -5  296.45    7.50
   2  -3  -5  302.83    7.38
   2  -3  -5  289.16    7.38
  -2   3   5  304.34    6.89
  -2   3   5  301.56    6.86
  -2   3   5  291.77    7.57
   1  -3  -5    0.38    0.15
   1  -3  -5    0.39    0.15
   1  -3  -5    0.16    0.16
  -1   3   5    0.27    0.14
  -1   3   5    0.32    0.12
  -1   3   5    0.94    0.17
  -1   3   5    0.43    0.14
   0  -3  -5  113.01    3.03
   0  -3  -5  111.79    3.14
   0  -3  -5  114.25    3.24
   0   3   5  115.02    2.95
   0   3   5  116.18    3.13
   0   3   5  110.69    3.07
  -1  -3  -5   56.90    1.78
  -1  -3  -5   55.01    1.82
   1   3   5   53.97    1.75
   1   3   5   57.13    1.79
   1   3   5   56.78    1.80
  -2  -3  -5  596.83   14.18
  -2  -3  -5  594.19   14.45
   2   3   5  558.10   14.16
   2   3   5  581.79   14.51
   2   3   5  611.42   14.24
   2   3   5  579.94   13.68
  -3  -3  -5   29.56    1.10
  -3  -3  -5   29.94    1.05
  -3  -3  -5   29.31    0.90
   3   3   5   29.85    1.22
   3   3   5   27.64    1.13
   3   3   5   29.20    1.24
   3   3   5   32.37    1.20
  -4  -3  -5  355.35    8.20
   4   3   5  342.61    8.65
   4   3   5  339.59    8.75
   4   3   5  355.98    9.00
   4   3   5  362.33    8.83
  -5  -3  -5   20.16    0.76
   5   3   5   21.45    1.00
   5   3   5   19.51    0.93
   5   3   5   22.32    1.02
   5   3   5   18.56    1.07
  -6  -3  -5    1.33    0.25
   6   3   5    0.82    0.25
   6   3   5    0.74    0.33
   7   3   5    1.75    0.34
   7   3   5    2.49    0.56
   8   3   5   14.28    1.12
   8   3   5   13.99    0.86
   7  -4  -5   45.10    1.52
   6  -4  -5   15.76    0.74
  -6   4   5   17.59    0.96
   5  -4  -5   19.83    0.84
  -5   4   5   18.10    0.76
  -5   4   5   18.20    0.96
   4  -4  -5   21.64    0.91
   4  -4  -5   21.62    0.89
  -4   4   5   21.36    0.87
  -4   4   5   20.91    1.09
  -4   4   5   21.70    1.01
   3  -4  -5   26.08    1.31
   3  -4  -5   26.61    1.04
   3  -4  -5   27.38    1.04
  -3   4   5   26.54    1.11
  -3   4   5   26.15    1.00
  -3   4   5   26.89    1.11
   2  -4  -5  442.67   10.45
   2  -4  -5  431.29   10.46
   2  -4  -5  411.21   10.42
  -2   4   5  429.51   10.12
  -2   4   5  419.88   10.53
  -2   4   5  412.38    9.57
  -2   4   5  431.82    9.68
   1  -4  -5   20.90    0.97
   1  -4  -5   21.90    0.92
   1  -4  -5   20.41    0.90
  -1   4   5   20.63    0.82
  -1   4   5   19.98    0.66
  -1   4   5   20.59    0.92
   0  -4  -5   34.86    1.37
   0  -4  -5   36.66    1.34
   0  -4  -5   38.64    1.39
   0  -4  -5   37.35    1.29
   0   4   5   37.74    1.30
  -1  -4  -5   46.72    1.59
  -1  -4  -5   47.08    1.66
  -1  -4  -5   49.27    1.43
   1   4   5   48.51    1.39
   1   4   5   46.20    1.62
   1   4   5   48.16    1.60
  -2  -4  -5   26.78    1.05
  -2  -4  -5   26.74    1.10
  -2  -4  -5   26.23    0.79
  -2  -4  -5   26.92    1.06
   2   4   5   24.58    1.06
   2   4   5   25.90    1.01
   2   4   5   26.28    1.12
  -3  -4  -5    1.01    0.23
  -3  -4  -5    1.10    0.21
   3   4   5    1.10    0.26
   3   4   5    0.87    0.23
   3   4   5    1.12    0.31
   3   4   5    0.98    0.27
  -4  -4  -5  122.77    3.43
   4   4   5  139.94    3.75
   4   4   5  132.23    3.75
   4   4   5  135.07    3.86
   4   4   5  129.51    3.69
   5   4   5   25.92    1.14
   5   4   5   25.05    1.14
   5   4   5   27.99    1.33
   6   4   5    1.24    0.37
   6   4   5    1.43    0.32
   7   4   5   51.51    1.87
   7   4   5   50.60    2.12
   8   4   5   17.48    1.25
   8   4   5   19.06    1.04
   7  -5  -5    9.69    0.65
   6  -5  -5   48.83    1.70
   5  -5  -5   17.20    0.85
   4  -5  -5  131.29    3.56
   4  -5  -5  119.77    3.51
  -4   5   5  124.20    3.20
  -4   5   5  125.46    3.52
  -4   5   5  133.04    4.00
   3  -5  -5    0.58    0.20
   3  -5  -5    1.04    0.24
  -3   5   5    0.81    0.26
  -3   5   5    1.04    0.25
  -3   5   5    0.07    0.19
   2  -5  -5  434.26   10.36
   2  -5  -5  401.91   10.34
   2  -5  -5  417.97   10.34
  -2   5   5  426.02    9.64
  -2   5   5  422.32   10.05
  -2   5   5  406.45   10.25
  -2   5   5  413.84    9.46
   1  -5  -5    3.16    0.39
   1  -5  -5    3.31    0.37
  -1   5   5    3.26    0.40
  -1   5   5    3.13    0.31
   0  -5  -5  239.64    6.27
   0  -5  -5  246.11    6.05
   0   5   5  242.26    6.19
   0   5   5  240.28    5.84
  -1  -5  -5   24.29    1.11
  -1  -5  -5   25.35    0.92
  -1  -5  -5   24.44    1.06
   1   5   5   25.08    1.06
  -2  -5  -5   47.17    1.61
  -2  -5  -5   44.43    1.22
  -2  -5  -5   46.75    1.65
   2   5   5   48.07    1.49
   2   5   5   44.69    1.65
   2   5   5   46.68    1.65
  -3  -5  -5    7.27    0.52
  -3  -5  -5    7.39    0.49
   3   5   5    7.30    0.56
   3   5   5    6.74    0.58
  -4  -5  -5   22.46    0.87
   4   5   5   22.57    1.13
   4   5   5   23.73    1.08
   5   5   5   46.57    1.84
   5   5   5   48.66    1.76
   6   5   5    6.40    0.57
   6   5   5    5.86    0.65
   7   5   5  111.08    3.52
   7   5   5  106.49    3.31
   8   5   5    0.90    0.32
   8   5   5    0.24    0.28
   7  -6  -5    0.81    0.29
   6  -6  -5   35.82    1.46
   5  -6  -5    2.89    0.40
  -5   6   5    3.26    0.61
   4  -6  -5   42.73    1.60
  -4   6   5   42.87    1.42
  -4   6   5   44.72    1.96
   3  -6  -5    0.19    0.16
  -3   6   5    0.05    0.13
  -3   6   5    0.11    0.23
   2  -6  -5   76.60    2.51
   2  -6  -5   79.86    2.68
  -2   6   5   81.16    2.25
  -2   6   5   77.63    2.59
  -2   6   5   82.84    2.51
   1  -6  -5   11.60    0.73
   1  -6  -5   11.43    0.76
  -1   6   5   11.47    0.76
  -1   6   5   12.29    0.74
  -1   6   5   11.52    0.65
   0  -6  -5   10.61    0.66
   0  -6  -5   10.23    0.67
   0   6   5   10.66    0.71
   0   6   5    9.61    0.63
  -1  -6  -5  166.85    4.21
  -1  -6  -5  160.99    4.52
   1   6   5  171.05    4.32
   1   6   5  166.54    4.55
  -2  -6  -5    0.14    0.14
  -2  -6  -5    0.07    0.15
   2   6   5    0.17    0.16
  -3  -6  -5   75.98    2.26
  -3  -6  -5   76.29    2.37
   3   6   5   71.86    2.40
   3   6   5   72.34    2.39
  -4  -6  -5   72.91    2.19
  -4  -6  -5   77.69    2.06
   4   6   5   73.06    2.45
   4   6   5   72.62    2.43
   5   6   5   29.87    1.39
   5   6   5   29.85    1.34
   6   6   5    2.43    0.42
   6   6   5    2.34    0.46
   7   6   5   82.87    2.74
   7   6   5   79.08    2.83
   6  -7  -5  126.09    3.82
   5  -7  -5   10.28    0.77
  -5   7   5   10.87    1.04
   4  -7  -5   86.35    2.79
  -4   7   5   88.17    2.54
  -4   7   5   83.06    3.10
   3  -7  -5   20.32    1.08
  -3   7   5   23.03    1.29
   2  -7  -5    5.85    0.57
  -2   7   5    6.23    0.64
  -2   7   5    7.10    0.47
   1  -7  -5    9.89    0.72
   1  -7  -5    8.12    0.65
  -1   7   5    9.56    0.69
  -1   7   5    7.83    0.56
   0  -7  -5    6.16    0.57
   0  -7  -5    6.95    0.57
   0   7   5    6.97    0.52
   0   7   5    7.24    0.57
  -1  -7  -5  134.41    3.50
  -1  -7  -5  133.49    3.94
  -1  -7  -5  130.70    3.80
   1   7   5  131.03    3.83
  -2  -7  -5    0.23    0.17
  -2  -7  -5    0.00    0.14
   2   7   5    0.06    0.16
   2   7   5    0.34    0.21
  -3  -7  -5   37.45    1.51
  -3  -7  -5   41.41    1.47
  -3  -7  -5   40.21    1.45
   3   7   5   38.92    1.60
  -4  -7  -5   11.44    0.64
   4   7   5   11.28    0.79
   4   7   5   11.06    0.81
   5   7   5   79.54    2.62
   5   7   5   75.30    2.62
   6   7   5    0.07    0.24
   6   7   5   -0.03    0.18
   7   7   5    1.73    0.46
   7   7   5    0.89    0.31
   6  -8  -5    1.77    0.44
   5  -8  -5   21.87    1.20
   4  -8  -5    0.03    0.19
  -4   8   5    0.87    0.40
   3  -8  -5   73.05    2.56
  -3   8   5   74.80    2.76
   2  -8  -5    9.53    0.76
  -2   8   5    9.96    0.82
  -2   8   5    8.78    0.57
   1  -8  -5    5.88    0.63
   1  -8  -5    5.78    0.60
  -1   8   5    7.09    0.64
  -1   8   5    7.09    0.56
   0  -8  -5    9.62    0.69
   0  -8  -5    9.42    0.73
   0   8   5    9.18    0.65
   0   8   5    9.76    0.70
  -1  -8  -5  198.62    5.46
  -1  -8  -5  201.20    5.07
   1   8   5  196.44    5.48
   1   8   5  197.75    5.01
  -2  -8  -5   38.36    1.63
  -2  -8  -5   39.17    1.55
   2   8   5   38.22    1.62
  -3  -8  -5  124.55    3.57
  -3  -8  -5  126.01    3.72
  -3  -8  -5  126.47    3.57
   3   8   5  122.07    3.79
  -4  -8  -5    8.28    0.58
   4   8   5    8.52    0.74
   5   8   5   20.24    1.18
   6   8   5    5.30    0.64
   6   8   5    4.71    0.63
   5  -9  -5    4.49    0.63
   4  -9  -5   10.22    0.88
  -4   9   5   10.89    1.05
   3  -9  -5   69.95    2.60
  -3   9   5   74.30    2.83
   2  -9  -5    0.27    0.24
  -2   9   5    0.71    0.35
   1  -9  -5  104.05    3.45
  -1   9   5  112.57    3.31
  -1   9   5  108.48    3.40
   0  -9  -5    2.61    0.44
   0  -9  -5    2.26    0.43
   0   9   5    2.86    0.43
   0   9   5    2.60    0.43
  -1  -9  -5    1.00    0.30
   1   9   5    1.27    0.30
   1   9   5    1.43    0.39
  -2  -9  -5    3.25    0.49
  -2  -9  -5    2.40    0.41
   2   9   5    1.76    0.42
  -3  -9  -5    0.84    0.29
   3   9   5    0.32    0.25
  -4  -9  -5   23.77    1.10
   4   9   5   26.03    1.38
   5   9   5   13.12    0.99
   6   9   5   13.33    1.03
   4 -10  -5    7.90    0.82
   3 -10  -5   66.45    2.58
  -3  10   5   65.40    2.73
   2 -10  -5    1.64    0.45
  -2  10   5    0.74    0.40
   1 -10  -5   63.22    2.50
  -1  10   5   69.62    2.51
   0 -10  -5   26.00    1.38
   0  10   5   27.71    1.31
   0  10   5   26.50    1.35
  -1 -10  -5    1.07    0.33
   1  10   5    1.52    0.41
  -2 -10  -5    4.98    0.59
   2  10   5    4.16    0.60
  -3 -10  -5    3.61    0.52
   3  10   5    2.81    0.54
  -4 -10  -5   62.25    2.17
   4  10   5   65.91    2.54
   5  10   5    0.26    0.29
   3 -11  -5    0.29    0.29
   2 -11  -5   -0.04    0.22
  -2  11   5    0.72    0.43
   1 -11  -5   17.60    1.21
   0 -11  -5   41.14    1.90
   0  11   5   43.48    1.88
  -1 -11  -5    0.24    0.23
   1  11   5   -0.08    0.21
   2  11   5   42.25    1.94
   3  11   5   15.37    1.14
   0 -12  -5   27.72    1.57
   1  12   5   -0.07    0.25
   1  10  -6    9.04    0.93
  -1 -10   6    8.29    0.79
   0  10  -6   17.60    1.26
  -1  10  -6   57.73    2.44
   3   9  -6   40.04    1.94
   2   9  -6    5.94    0.75
  -2  -9   6    5.78    0.57
   1   9  -6   71.64    2.85
  -1  -9   6   81.33    2.67
  -1  -9   6   76.83    2.71
   0   9  -6    6.73    0.76
   0  -9   6    6.71    0.73
   0  -9   6    5.42    0.69
  -1   9  -6   53.19    2.23
   1  -9   6   51.78    2.10
   1  -9   6   53.67    2.20
  -2   9  -6    5.97    0.67
   2  -9   6    4.40    0.67
   2  -9   6    5.77    0.74
   3  -9   6   17.96    1.26
   3  -9   6   17.42    1.28
   5   8  -6   39.47    1.85
  -5  -8   6   38.66    2.36
   4   8  -6   25.19    1.42
  -4  -8   6   23.50    1.68
   3   8  -6   40.47    1.87
   2   8  -6    1.84    0.47
  -2  -8   6    2.05    0.42
  -2  -8   6    2.07    0.36
   1   8  -6   32.34    1.63
  -1  -8   6   32.25    1.46
  -1  -8   6   34.25    1.51
   0   8  -6    1.57    0.45
   0   8  -6    0.83    0.34
   0  -8   6    0.79    0.30
   0  -8   6    1.28    0.36
   0  -8   6    1.20    0.39
   0  -8   6    1.50    0.42
  -1   8  -6    0.68    0.29
  -1   8  -6    0.28    0.24
  -1   8  -6   -0.16    0.34
   1  -8   6    0.32    0.30
   1  -8   6    0.36    0.24
   1  -8   6    0.65    0.31
  -2   8  -6    6.88    0.71
  -2   8  -6    6.08    0.65
   2  -8   6    6.26    0.71
   2  -8   6    6.99    0.76
  -3   8  -6   27.31    1.28
   3  -8   6   23.57    1.45
   3  -8   6   26.20    1.49
   4  -8   6   96.76    3.53
   4  -8   6   96.70    3.43
   5   7  -6   83.89    2.91
  -5  -7   6   81.37    3.55
   4   7  -6    0.06    0.21
  -4  -7   6    0.85    0.44
   3   7  -6   34.08    1.60
   2   7  -6   44.37    1.79
   2   7  -6   38.99    1.75
  -2  -7   6   38.29    1.48
  -2  -7   6   39.59    1.50
   1   7  -6    1.17    0.35
   1   7  -6    0.66    0.29
  -1  -7   6    0.57    0.26
  -1  -7   6    0.20    0.16
  -1  -7   6    0.99    0.30
  -1  -7   6    0.78    0.23
   0   7  -6    1.76    0.44
   0   7  -6    2.43    0.45
   0  -7   6    3.37    0.49
   0  -7   6    3.08    0.45
   0  -7   6    2.53    0.44
   0  -7   6    2.18    0.39
  -1   7  -6    0.32    0.35
  -1   7  -6    0.60    0.26
  -1   7  -6    0.55    0.27
   1  -7   6    0.20    0.19
   1  -7   6    0.36    0.25
   1  -7   6    0.69    0.30
   1  -7   6    0.33    0.25
  -2   7  -6    2.13    0.43
  -2   7  -6    2.11    0.41
  -2   7  -6    2.67    0.63
   2  -7   6    3.61    0.54
   2  -7   6    2.99    0.53
   2  -7   6    3.37    0.53
  -3   7  -6    0.98    0.31
  -3   7  -6    1.55    0.56
   3  -7   6    1.19    0.42
   3  -7   6    1.14    0.37
   4  -7   6  109.33    3.74
   4  -7   6  107.14    3.60
   5  -7   6   13.08    1.17
   5  -7   6   10.88    0.95
   6   6  -6    9.01    0.74
  -6  -6   6    8.54    1.16
   5   6  -6    0.43    0.25
  -5  -6   6    1.65    0.59
   4   6  -6   23.75    1.23
   4   6  -6   25.94    1.39
  -4  -6   6   23.70    1.57
   3   6  -6   14.33    0.96
   3   6  -6   12.88    0.88
  -3  -6   6   12.87    0.68
   2   6  -6   63.55    2.20
   2   6  -6   57.56    2.20
  -2  -6   6   58.81    1.90
  -2  -6   6   60.97    1.95
   1   6  -6   25.01    1.28
   1   6  -6   26.83    1.27
  -1  -6   6   24.98    1.17
  -1  -6   6   25.67    1.10
  -1  -6   6   25.07    1.15
  -1  -6   6   23.93    0.97
   0   6  -6  129.70    4.01
   0   6  -6  134.27    3.73
   0  -6   6  136.91    3.67
   0  -6   6  133.64    3.87
   0  -6   6  136.35    3.76
   0  -6   6  132.94    4.00
  -1   6  -6   42.47    1.61
  -1   6  -6   40.33    1.70
   1  -6   6   41.62    1.64
   1  -6   6   39.88    1.69
   1  -6   6   41.64    1.69
   1  -6   6   40.43    1.73
  -2   6  -6  113.47    3.18
  -2   6  -6  111.36    3.80
  -2   6  -6  107.61    3.39
   2  -6   6  110.24    3.46
   2  -6   6  109.33    3.40
   2  -6   6  108.43    3.40
   2  -6   6  111.16    3.31
  -3   6  -6   72.55    2.27
  -3   6  -6   69.00    2.40
  -3   6  -6   72.41    2.90
   3  -6   6   71.06    2.57
   3  -6   6   74.20    2.67
   3  -6   6   73.05    2.63
   3  -6   6   75.47    2.31
  -4   6  -6   60.77    2.64
  -4   6  -6   55.93    1.88
   4  -6   6   59.83    2.27
   4  -6   6   54.55    2.35
   5  -6   6   12.52    1.11
   5  -6   6   12.11    0.95
   6  -6   6    3.09    0.57
   6  -6   6    2.97    0.70
   6   5  -6   15.86    0.90
  -6  -5   6   15.08    1.40
   5   5  -6    4.32    0.48
   5   5  -6    4.76    0.60
  -5  -5   6    4.41    0.77
   4   5  -6    1.55    0.41
   4   5  -6    2.39    0.39
  -4  -5   6    2.29    0.56
   3   5  -6    8.91    0.73
   3   5  -6    7.75    0.64
  -3  -5   6    7.30    0.48
   2   5  -6   91.16    2.91
   2   5  -6   93.71    2.84
  -2  -5   6   94.61    2.27
  -2  -5   6   93.73    2.59
  -2  -5   6   88.57    2.64
   1   5  -6   60.95    2.05
   1   5  -6   58.90    2.12
  -1  -5   6   59.28    2.02
  -1  -5   6   60.18    1.75
  -1  -5   6   59.20    1.92
   0   5  -6  103.52    3.20
   0   5  -6  100.73    2.97
   0  -5   6  100.37    3.06
   0  -5   6  105.53    3.07
   0  -5   6  102.54    3.16
   0  -5   6  104.80    2.90
  -1   5  -6   75.37    2.55
  -1   5  -6   74.32    2.35
   1  -5   6   82.09    2.42
   1  -5   6   77.20    2.52
   1  -5   6   76.68    2.43
   1  -5   6   75.61    2.59
  -2   5  -6   69.35    2.15
  -2   5  -6   66.75    2.59
  -2   5  -6   66.77    2.30
   2  -5   6   66.86    2.33
   2  -5   6   67.10    2.13
   2  -5   6   67.58    2.35
   2  -5   6   68.15    2.43
  -3   5  -6  118.36    3.39
  -3   5  -6  115.12    3.14
  -3   5  -6  114.21    3.85
   3  -5   6  107.29    3.54
   3  -5   6  113.80    3.53
   3  -5   6  115.60    3.15
  -4   5  -6    0.93    0.38
  -4   5  -6    0.43    0.20
   4  -5   6    0.30    0.22
   4  -5   6    0.52    0.20
   4  -5   6    1.25    0.44
  -5   5  -6    4.82    0.79
   5  -5   6    4.91    0.73
   5  -5   6    3.45    0.53
   6  -5   6    0.06    0.32
   6  -5   6    0.25    0.25
   7   4  -6   12.65    0.73
  -7  -4   6   14.32    1.42
   6   4  -6   28.69    1.39
   6   4  -6   25.62    1.11
  -6  -4   6   25.99    1.78
   5   4  -6   77.32    2.36
   5   4  -6   72.02    2.46
  -5  -4   6   73.11    3.09
   4   4  -6  140.23    3.94
   4   4  -6  144.54    3.95
  -4  -4   6  146.54    3.27
  -4  -4   6  131.10    4.57
   3   4  -6   91.10    2.66
   3   4  -6   81.34    2.63
   3   4  -6   86.88    2.67
   2   4  -6   81.51    2.44
   2   4  -6   71.05    2.42
  -2  -4   6   76.86    2.03
  -2  -4   6   77.91    1.92
  -2  -4   6   76.03    2.21
   1   4  -6   29.28    1.32
   1   4  -6   31.70    1.32
  -1  -4   6   31.95    1.19
  -1  -4   6   35.40    1.38
  -1  -4   6   34.20    1.30
  -1  -4   6   34.13    1.11
   0   4  -6    6.65    0.56
   0   4  -6    6.43    0.57
   0  -4   6    6.42    0.54
   0  -4   6    6.05    0.53
   0  -4   6    6.03    0.50
   0  -4   6    6.31    0.49
  -1   4  -6  184.92    5.19
  -1   4  -6  196.97    4.82
   1  -4   6  192.39    4.81
   1  -4   6  192.14    5.31
   1  -4   6  184.21    4.94
   1  -4   6  194.99    5.17
  -2   4  -6   23.02    1.02
  -2   4  -6   23.90    1.12
   2  -4   6   22.67    1.15
   2  -4   6   22.08    1.11
   2  -4   6   25.15    1.21
   2  -4   6   23.58    1.04
  -3   4  -6   15.67    0.84
  -3   4  -6   15.45    0.81
  -3   4  -6   15.85    1.11
   3  -4   6   17.53    0.84
   3  -4   6   14.35    0.99
   3  -4   6   15.70    0.93
  -4   4  -6    5.32    0.73
  -4   4  -6    6.17    0.50
   4  -4   6    6.36    0.60
   4  -4   6    5.89    0.70
   4  -4   6    6.78    0.51
  -5   4  -6   42.18    2.05
   5  -4   6   41.16    1.72
   5  -4   6   40.46    1.94
  -6   4  -6   11.42    1.10
   6  -4   6   13.06    1.12
   6  -4   6   12.04    0.89
   7  -4   6   49.52    2.42
   7  -4   6   50.15    2.06
   7   3  -6   12.52    0.90
   7   3  -6   12.76    0.66
  -7  -3   6   15.35    1.43
   6   3  -6   15.73    0.75
   6   3  -6   15.66    0.97
  -6  -3   6   16.07    1.36
   5   3  -6  123.97    3.40
   5   3  -6  126.58    3.54
  -5  -3   6  119.28    4.29
   4   3  -6   33.34    1.40
   4   3  -6   32.72    1.24
  -4  -3   6   34.35    1.75
   3   3  -6  244.59    6.06
   3   3  -6  254.08    6.31
   3   3  -6  240.54    6.32
  -3  -3   6  244.06    6.08
   2   3  -6   32.82    1.24
   2   3  -6   30.06    1.26
   2   3  -6   29.93    1.24
  -2  -3   6   30.55    0.92
  -2  -3   6   30.82    1.04
   1   3  -6   21.58    1.04
   1   3  -6   21.23    1.01
   1   3  -6   22.00    0.85
   1   3  -6   21.90    1.01
  -1  -3   6   21.53    0.82
  -1  -3   6   21.77    0.87
  -1  -3   6   20.76    0.93
  -1  -3   6   21.57    1.02
   0   3  -6   15.77    0.83
   0   3  -6   15.25    0.85
   0  -3   6   15.00    0.77
   0  -3   6   16.14    0.84
   0  -3   6   15.99    0.76
   0  -3   6   16.56    0.84
  -1   3  -6  106.24    2.89
  -1   3  -6  102.72    3.10
   1  -3   6  107.53    3.00
   1  -3   6  103.41    2.88
   1  -3   6  104.20    3.15
   1  -3   6  103.93    3.06
  -2   3  -6   40.58    1.52
  -2   3  -6   40.11    1.42
   2  -3   6   40.47    1.54
   2  -3   6   38.27    1.39
   2  -3   6   40.88    1.61
   2  -3   6   40.16    1.57
  -3   3  -6   76.16    2.71
  -3   3  -6   78.19    2.39
  -3   3  -6   79.62    2.27
   3  -3   6   74.64    2.50
   3  -3   6   82.41    2.64
   3  -3   6   77.43    2.60
   3  -3   6   75.51    2.23
  -4   3  -6   24.49    1.38
  -4   3  -6   25.19    0.97
   4  -3   6   26.22    1.03
   4  -3   6   25.91    1.21
   4  -3   6   23.99    1.33
  -5   3  -6  117.98    3.90
   5  -3   6  120.07    3.11
   5  -3   6  114.53    3.57
   5  -3   6  123.47    3.87
  -6   3  -6   50.36    2.27
   6  -3   6   51.48    1.99
   6  -3   6   53.12    2.33
  -7   3  -6   16.08    1.30
   7  -3   6   13.75    0.96
   7  -3   6   13.68    1.21
   7   2  -6   30.69    1.41
  -7  -2   6   27.98    1.91
   6   2  -6   35.17    1.47
   6   2  -6   34.03    1.13
  -6  -2   6   33.94    1.98
   5   2  -6    7.20    0.45
   5   2  -6    8.03    0.64
  -5  -2   6    6.96    0.85
   4   2  -6   44.47    1.48
   4   2  -6   45.30    1.65
   4   2  -6   48.82    1.49
   4   2  -6   42.11    1.47
  -4  -2   6   46.01    2.05
  -4  -2   6   45.17    1.65
   3   2  -6   76.49    1.94
   3   2  -6   77.61    2.34
   3   2  -6   71.55    2.26
   3   2  -6   79.37    2.27
  -3  -2   6   77.89    2.36
   2   2  -6   10.46    0.49
   2   2  -6   11.30    0.69
   2   2  -6   11.65    0.63
   2   2  -6    9.90    0.61
  -2  -2   6    9.40    0.64
   1   2  -6   42.93    1.51
   1   2  -6   43.11    1.37
   1   2  -6   46.69    1.62
   1   2  -6   42.53    1.55
   1   2  -6   45.16    1.53
  -1  -2   6   43.24    1.39
  -1  -2   6   45.40    1.54
  -1  -2   6   42.53    1.48
  -1  -2   6   42.12    1.33
   0   2  -6   50.41    1.75
   0   2  -6   50.85    1.79
   0   2  -6   50.50    1.66
   0  -2   6   48.57    1.60
   0  -2   6   51.09    1.74
   0  -2   6   51.77    1.68
   0  -2   6   52.02    1.67
  -1   2  -6   36.77    1.32
  -1   2  -6   34.72    1.37
   1  -2   6   37.34    1.36
   1  -2   6   35.60    1.40
   1  -2   6   37.04    1.31
   1  -2   6   34.85    1.34
  -2   2  -6    6.59    0.50
  -2   2  -6    6.60    0.52
   2  -2   6    6.78    0.53
   2  -2   6    6.39    0.48
   2  -2   6    5.52    0.53
   2  -2   6    5.56    0.52
  -3   2  -6   67.01    2.40
  -3   2  -6   69.58    2.04
  -3   2  -6   69.08    2.13
   3  -2   6   67.92    2.33
   3  -2   6   70.29    2.03
   3  -2   6   69.11    2.36
   3  -2   6   66.48    2.22
  -4   2  -6   11.49    0.57
  -4   2  -6   10.67    0.85
   4  -2   6   11.55    0.64
   4  -2   6   12.15    0.90
   4  -2   6   11.24    0.74
  -5   2  -6   26.33    1.44
   5  -2   6   27.73    1.48
   5  -2   6   28.72    1.07
   5  -2   6   25.78    1.22
  -6   2  -6    5.75    0.72
   6  -2   6    4.64    0.53
   6  -2   6    5.27    0.72
  -7   2  -6    0.43    0.35
   7  -2   6    0.27    0.35
   7  -2   6    0.12    0.20
  -7  -1   6   14.31    1.32
   6   1  -6    5.80    0.35
   6   1  -6    5.57    0.55
  -6  -1   6    5.97    0.57
  -6  -1   6    5.29    0.80
   5   1  -6    3.61    0.29
   5   1  -6    3.54    0.43
  -5  -1   6    4.00    0.46
  -5  -1   6    3.28    0.25
  -5  -1   6    3.26    0.61
   4   1  -6   13.00    0.59
   4   1  -6   11.44    0.57
   4   1  -6   11.11    0.70
   4   1  -6   11.82    0.53
  -4  -1   6   13.59    0.77
  -4  -1   6   12.70    0.53
  -4  -1   6   11.09    0.91
   3   1  -6   20.81    0.84
   3   1  -6   19.93    0.85
   3   1  -6   21.80    0.98
   3   1  -6   20.95    0.76
  -3  -1   6   20.14    1.14
  -3  -1   6   21.34    0.99
   2   1  -6   27.74    1.10
   2   1  -6   28.38    1.10
   2   1  -6   24.71    1.09
   2   1  -6   30.87    1.11
   2   1  -6   30.31    1.00
  -2  -1   6   30.62    1.18
   1   1  -6  291.35    7.61
   1   1  -6  303.28    7.58
   1   1  -6  307.91    7.19
   1   1  -6  303.66    7.10
   1   1  -6  306.52    7.78
  -1  -1   6  303.13    7.43
  -1  -1   6  311.65    7.12
  -1  -1   6  295.78    7.13
  -1  -1   6  303.10    7.65
   0   1  -6  214.08    5.11
   0   1  -6  201.40    5.48
   0   1  -6  212.84    5.45
   0   1  -6  222.24    5.63
   0  -1   6  217.55    5.11
   0  -1   6  204.42    5.53
   0  -1   6  201.98    5.38
   0  -1   6  206.85    5.18
  -1   1  -6   76.68    2.42
  -1   1  -6   84.21    2.31
   1  -1   6   78.21    2.36
   1  -1   6   77.09    2.37
   1  -1   6   80.19    2.47
   1  -1   6   81.27    2.28
  -2   1  -6   13.98    0.73
  -2   1  -6   14.24    0.75
   2  -1   6   13.44    0.71
   2  -1   6   15.96    0.84
   2  -1   6   13.71    0.75
   2  -1   6   14.43    0.82
  -3   1  -6   44.65    1.73
  -3   1  -6   45.42    1.53
   3  -1   6   45.65    1.70
   3  -1   6   44.62    1.49
   3  -1   6   45.53    1.75
   3  -1   6   45.77    1.63
  -4   1  -6   27.40    1.35
   4  -1   6   29.91    1.28
   4  -1   6   34.71    1.20
   4  -1   6   30.37    1.47
   4  -1   6   33.61    1.40
  -5   1  -6    3.62    0.52
   5  -1   6    4.13    0.40
   5  -1   6    3.98    0.46
   5  -1   6    3.47    0.55
  -6   1  -6   25.60    1.39
   6  -1   6   24.49    1.45
   6  -1   6   24.12    1.18
  -7   1  -6    1.46    0.46
   7  -1   6    1.71    0.39
   7  -1   6    2.08    0.57
   8  -1   6   43.73    2.21
   8  -1   6   38.99    1.70
  -7   0   6   16.78    1.42
   6   0  -6    8.60    0.63
  -6   0   6    7.96    0.61
  -6   0   6    9.08    0.98
   5   0  -6   46.70    1.41
   5   0  -6   51.09    1.69
  -5   0   6   48.60    1.38
  -5   0   6   46.39    1.64
  -5   0   6   48.96    2.20
   4   0  -6   51.58    1.57
   4   0  -6   52.43    1.55
   4   0  -6   52.01    1.72
  -4   0   6   51.99    1.49
  -4   0   6   51.80    1.73
  -4   0   6   51.72    2.14
   3   0  -6    9.88    0.63
   3   0  -6   10.87    0.57
   3   0  -6   11.39    0.56
   3   0  -6   10.70    0.55
  -3   0   6   10.10    0.77
  -3   0   6   11.24    0.67
   2   0  -6    8.67    0.52
   2   0  -6    9.49    0.59
   2   0  -6    8.72    0.51
   2   0  -6    9.73    0.53
  -2   0   6    9.94    0.61
   1   0  -6   88.73    2.58
   1   0  -6   83.74    2.41
   1   0  -6   87.44    2.48
   1   0  -6   84.07    2.49
   1   0  -6   80.05    2.48
  -1   0   6   84.80    2.34
  -1   0   6   84.32    2.34
  -1   0   6   84.78    2.41
  -1   0   6   92.62    2.41
   0   0  -6    4.83    0.42
   0   0  -6    4.72    0.43
   0   0  -6    5.23    0.44
   0   0  -6    4.97    0.41
   0   0   6    4.44    0.38
   0   0   6    4.81    0.41
   0   0   6    4.92    0.43
   0   0   6    4.42    0.39
  -1   0  -6   17.44    0.82
  -1   0  -6   18.86    0.89
   1   0   6   19.52    0.89
   1   0   6   18.65    0.84
   1   0   6   18.84    0.90
   1   0   6   16.40    0.80
  -2   0  -6   13.60    0.71
  -2   0  -6   13.25    0.73
   2   0   6   12.58    0.70
   2   0   6   11.98    0.66
   2   0   6   11.56    0.71
   2   0   6   12.47    0.76
  -3   0  -6   22.50    1.06
  -3   0  -6   23.27    0.95
   3   0   6   23.50    0.96
   3   0   6   22.21    1.12
   3   0   6   21.84    1.01
   3   0   6   24.33    1.11
  -4   0  -6   53.17    1.91
   4   0   6   50.63    1.81
   4   0   6   57.92    1.98
   4   0   6   52.19    2.01
   4   0   6   54.26    1.69
  -5   0  -6   32.08    1.42
   5   0   6   33.02    1.34
   5   0   6   31.13    1.53
   5   0   6   30.48    1.17
  -6   0  -6   41.55    1.78
   6   0   6   45.42    2.02
   6   0   6   44.25    1.69
   6   0   6   45.51    1.60
  -7   0  -6   62.54    2.36
   7   0   6   61.99    2.20
   7   0   6   63.77    2.62
   8   0   6   20.83    1.47
   8   0   6   18.44    1.08
  -7   1   6   13.76    1.28
   6  -1  -6   87.09    2.50
   6  -1  -6   87.47    2.31
  -6   1   6   85.73    2.57
  -6   1   6   85.18    3.34
   5  -1  -6   95.65    2.53
   5  -1  -6   93.29    2.64
  -5   1   6   93.34    3.36
  -5   1   6   90.63    2.63
  -5   1   6   95.48    2.48
   4  -1  -6   20.53    0.79
   4  -1  -6   19.39    0.90
   4  -1  -6   19.54    0.78
  -4   1   6   20.75    0.93
  -4   1   6   20.16    1.18
  -4   1   6   19.14    0.81
   3  -1  -6  106.46    2.86
   3  -1  -6  106.28    2.87
   3  -1  -6  104.43    2.84
   3  -1  -6  102.12    3.21
  -3   1   6  103.71    3.28
  -3   1   6  103.24    2.84
  -3   1   6  104.49    2.71
   2  -1  -6   37.57    1.35
   2  -1  -6   38.88    1.33
   2  -1  -6   39.25    1.33
  -2   1   6   39.67    1.38
   1  -1  -6    2.76    0.33
   1  -1  -6    3.01    0.35
   1  -1  -6    3.16    0.33
   1  -1  -6    3.01    0.33
  -1   1   6    3.01    0.35
  -1   1   6    2.59    0.25
  -1   1   6    3.49    0.30
   0  -1  -6  206.79    5.22
   0  -1  -6  196.26    5.24
   0  -1  -6  194.15    5.22
   0  -1  -6  206.16    5.36
   0   1   6  202.14    5.03
   0   1   6  197.98    5.14
   0   1   6  203.50    5.31
  -1  -1  -6    0.45    0.18
   1   1   6    0.37    0.15
   1   1   6    0.63    0.20
   1   1   6    0.27    0.15
   1   1   6    0.60    0.21
  -2  -1  -6    6.28    0.49
  -2  -1  -6    6.39    0.49
   2   1   6    6.23    0.52
   2   1   6    6.42    0.49
   2   1   6    6.13    0.53
   2   1   6    7.35    0.52
  -3  -1  -6   58.12    1.82
   3   1   6   57.55    1.80
   3   1   6   56.94    1.89
   3   1   6   56.61    2.02
   3   1   6   59.92    2.02
  -4  -1  -6   54.64    1.57
  -4  -1  -6   53.16    1.82
   4   1   6   56.98    1.99
   4   1   6   51.92    1.84
   4   1   6   54.98    1.75
   4   1   6   52.72    2.02
   4   1   6   57.45    1.98
  -5  -1  -6   18.43    0.96
   5   1   6   19.04    0.96
   5   1   6   21.70    1.23
   5   1   6   21.07    0.94
   5   1   6   21.58    1.05
  -6  -1  -6   99.98    3.05
   6   1   6  101.17    2.78
   6   1   6   95.64    3.30
   6   1   6   97.45    2.99
   7   1   6    3.07    0.61
   7   1   6    2.43    0.40
   8   1   6   28.60    1.38
   8   1   6   32.99    1.85
   7  -2  -6   10.38    0.51
  -7   2   6    9.92    1.08
   6  -2  -6   15.35    0.65
  -6   2   6   16.23    1.24
   5  -2  -6    0.95    0.20
  -5   2   6    0.94    0.25
  -5   2   6    1.07    0.39
  -5   2   6    0.59    0.21
   4  -2  -6   26.23    0.99
   4  -2  -6   27.09    1.07
   4  -2  -6   27.45    1.00
  -4   2   6   27.65    1.06
  -4   2   6   26.36    1.07
  -4   2   6   27.87    1.39
   3  -2  -6    2.70    0.30
   3  -2  -6    3.24    0.31
   3  -2  -6    3.54    0.50
  -3   2   6    3.14    0.36
  -3   2   6    3.67    0.37
  -3   2   6    3.25    0.42
   2  -2  -6   18.94    0.81
   2  -2  -6   16.86    0.78
   2  -2  -6   16.78    0.93
  -2   2   6   17.26    0.86
  -2   2   6   19.03    0.85
   1  -2  -6   61.83    1.89
   1  -2  -6   59.16    1.90
   1  -2  -6   61.42    1.97
  -1   2   6   59.65    1.83
  -1   2   6   58.86    1.75
   0  -2  -6  113.21    3.30
   0  -2  -6  125.86    3.33
   0  -2  -6  122.59    3.43
   0   2   6  119.43    3.24
   0   2   6  121.28    3.15
   0   2   6  111.40    3.19
  -1  -2  -6  148.51    4.10
   1   2   6  151.61    4.01
   1   2   6  148.87    4.04
   1   2   6  153.86    4.21
   1   2   6  152.53    3.84
  -2  -2  -6  107.95    3.14
  -2  -2  -6  111.35    3.09
   2   2   6  103.23    3.09
   2   2   6  108.66    3.21
   2   2   6  109.69    2.94
   2   2   6  109.04    3.10
  -3  -2  -6   74.03    2.28
  -3  -2  -6   73.11    2.20
   3   2   6   75.06    2.21
   3   2   6   69.96    2.37
   3   2   6   80.13    2.46
   3   2   6   74.18    2.31
  -4  -2  -6   77.89    2.33
  -4  -2  -6   81.86    2.18
   4   2   6   80.67    2.38
   4   2   6   87.72    2.69
   4   2   6   80.35    2.66
   4   2   6   80.91    2.52
  -5  -2  -6   30.26    1.17
   5   2   6   31.68    1.36
   5   2   6   28.87    1.26
   5   2   6   31.63    1.51
   5   2   6   28.43    1.19
  -6  -2  -6   22.27    1.03
   6   2   6   26.77    1.12
   6   2   6   22.20    1.33
   6   2   6   22.21    1.10
   7   2   6    0.99    0.29
   7   2   6    2.40    0.57
   8   2   6   25.48    1.57
   8   2   6   22.44    1.19
   7  -3  -6   13.14    0.67
  -7   3   6   14.87    1.26
   6  -3  -6   21.33    0.87
  -6   3   6   19.95    1.36
   5  -3  -6    0.93    0.23
  -5   3   6    1.12    0.29
  -5   3   6    0.83    0.23
  -5   3   6    0.89    0.37
   4  -3  -6   24.68    0.98
   4  -3  -6   24.13    0.96
  -4   3   6   24.52    1.06
  -4   3   6   24.47    1.25
  -4   3   6   24.54    1.01
   3  -3  -6   62.98    2.01
   3  -3  -6   66.74    2.01
  -3   3   6   65.45    1.97
  -3   3   6   69.39    2.03
  -3   3   6   65.51    2.22
   2  -3  -6   36.28    1.36
   2  -3  -6   42.55    1.42
   2  -3  -6   39.88    1.59
  -2   3   6   38.12    1.40
  -2   3   6   39.79    1.38
  -2   3   6   40.95    1.41
   1  -3  -6   22.74    1.05
   1  -3  -6   23.05    0.97
   1  -3  -6   21.68    0.96
   1  -3  -6   23.39    1.03
  -1   3   6   21.82    0.86
  -1   3   6   23.79    0.99
   0  -3  -6   56.45    1.88
   0  -3  -6   53.33    1.78
   0   3   6   53.87    1.72
   0   3   6   50.71    1.69
  -1  -3  -6    3.75    0.40
  -1  -3  -6    3.67    0.39
   1   3   6    3.53    0.39
   1   3   6    3.85    0.38
   1   3   6    3.41    0.40
  -2  -3  -6  188.80    5.06
  -2  -3  -6  195.39    5.19
   2   3   6  189.38    5.07
   2   3   6  187.27    5.02
   2   3   6  199.87    5.28
  -3  -3  -6  189.43    5.14
  -3  -3  -6  195.74    4.73
  -3  -3  -6  195.94    5.03
   3   3   6  190.91    5.12
   3   3   6  196.68    5.33
   3   3   6  190.26    5.13
  -4  -3  -6  144.91    3.74
  -4  -3  -6  147.00    3.71
   4   3   6  151.57    4.23
   4   3   6  152.80    4.30
   4   3   6  144.78    4.10
  -5  -3  -6    9.36    0.51
   5   3   6    8.65    0.64
   5   3   6    9.32    0.79
   6   3   6    0.53    0.21
   6   3   6    0.39    0.28
   7   3   6    5.16    0.54
   7   3   6    4.74    0.70
   8   3   6   29.51    1.40
   8   3   6   31.12    1.73
   7  -4  -6   10.17    0.65
   6  -4  -6    8.23    0.56
   5  -4  -6   18.27    0.87
  -5   4   6   19.26    0.86
  -5   4   6   18.31    1.15
  -5   4   6   19.70    1.01
   4  -4  -6    4.52    0.41
  -4   4   6    4.14    0.47
  -4   4   6    4.47    0.51
  -4   4   6    3.52    0.38
   3  -4  -6   75.57    2.35
   3  -4  -6   80.94    2.37
  -3   4   6   81.13    2.37
  -3   4   6   74.28    2.22
  -3   4   6   76.22    2.43
   2  -4  -6  314.90    7.72
   2  -4  -6  293.57    7.69
   2  -4  -6  306.16    7.79
  -2   4   6  303.61    7.14
  -2   4   6  300.48    7.71
  -2   4   6  302.94    7.35
  -2   4   6  312.04    7.22
   1  -4  -6  221.19    5.81
   1  -4  -6  221.88    5.77
  -1   4   6  222.29    5.40
  -1   4   6  223.74    5.59
  -1   4   6  222.02    5.64
   0  -4  -6   70.44    2.32
   0  -4  -6   72.24    2.16
   0  -4  -6   67.49    2.22
   0   4   6   72.07    2.17
  -1  -4  -6    7.81    0.61
  -1  -4  -6    6.73    0.44
  -1  -4  -6    6.57    0.52
   1   4   6    7.01    0.57
   1   4   6    6.46    0.50
  -2  -4  -6   63.22    2.06
  -2  -4  -6   58.98    1.97
  -2  -4  -6   60.83    1.68
   2   4   6   57.56    1.97
   2   4   6   61.61    2.06
  -3  -4  -6  111.32    2.62
  -3  -4  -6  105.92    2.63
  -3  -4  -6  107.34    3.13
  -3  -4  -6  105.45    3.01
   3   4   6  106.05    3.28
   3   4   6  108.97    3.22
   3   4   6  104.36    3.14
  -4  -4  -6    2.43    0.30
   4   4   6    2.78    0.39
   4   4   6    3.03    0.48
   5   4   6   14.97    0.88
   5   4   6   17.16    1.05
   6   4   6   41.09    1.83
   6   4   6   38.76    1.60
   7   4   6   88.84    3.14
   7   4   6   87.96    2.87
   7  -5  -6   13.50    0.82
   6  -5  -6   27.32    1.18
   5  -5  -6   19.11    0.96
   4  -5  -6   27.41    1.19
  -4   5   6   28.51    1.11
   3  -5  -6  147.40    4.05
   3  -5  -6  135.80    4.01
  -3   5   6  147.27    3.75
  -3   5   6  148.79    3.93
   2  -5  -6  167.47    4.83
   2  -5  -6  172.68    4.72
  -2   5   6  173.54    4.36
  -2   5   6  173.38    4.36
  -2   5   6  177.53    4.51
   1  -5  -6   48.65    1.79
   1  -5  -6   53.79    1.89
  -1   5   6   52.91    1.69
  -1   5   6   53.37    1.82
   0  -5  -6   13.77    0.83
   0  -5  -6   15.09    0.82
   0  -5  -6   14.86    0.79
   0   5   6   14.64    0.76
  -1  -5  -6    7.77    0.61
  -1  -5  -6    6.98    0.56
  -1  -5  -6    8.87    0.51
   1   5   6    7.59    0.57
   1   5   6    7.63    0.35
  -2  -5  -6   48.52    1.73
  -2  -5  -6   49.31    1.39
  -2  -5  -6   48.55    1.79
  -2  -5  -6   47.69    1.71
   2   5   6   50.38    1.77
   2   5   6   48.13    1.79
   2   5   6   48.83    1.57
  -3  -5  -6   10.29    0.67
  -3  -5  -6   10.59    0.63
   3   5   6   10.94    0.72
   3   5   6    8.92    0.71
  -4  -5  -6   48.29    1.60
   4   5   6   46.82    1.85
   4   5   6   47.21    1.78
   5   5   6   14.03    0.98
   5   5   6   12.88    0.84
   6   5   6  143.14    4.19
   6   5   6  142.31    4.28
   7   5   6   62.60    2.29
   7   5   6   64.19    2.50
   6  -6  -6   52.84    1.94
   5  -6  -6    8.57    0.67
   4  -6  -6   67.29    2.29
  -4   6   6   68.82    2.07
   3  -6  -6   60.89    2.09
  -3   6   6   56.11    1.86
   2  -6  -6    5.78    0.55
  -2   6   6    6.05    0.52
  -2   6   6    6.07    0.40
   1  -6  -6   14.92    0.86
   1  -6  -6   15.18    0.92
  -1   6   6   15.91    0.78
   0  -6  -6   17.09    0.88
   0  -6  -6   15.04    0.88
   0   6   6   15.50    0.83
   0   6   6   16.30    0.95
  -1  -6  -6  100.05    3.11
  -1  -6  -6  105.83    2.85
   1   6   6  101.80    3.09
   1   6   6  107.41    3.05
  -2  -6  -6  146.99    4.26
  -2  -6  -6  149.14    4.15
  -2  -6  -6  147.92    3.61
   2   6   6  153.23    3.89
   2   6   6  141.18    4.18
  -3  -6  -6   26.23    1.19
  -3  -6  -6   27.93    1.15
   3   6   6   25.01    1.22
   3   6   6   27.20    1.29
  -4  -6  -6   11.18    0.65
   4   6   6   10.76    0.82
   4   6   6    9.91    0.75
   5   6   6   77.74    2.65
   5   6   6   78.65    2.70
   6   6   6   32.32    1.58
   6   6   6   30.73    1.47
   7   6   6    7.72    0.84
   7   6   6    7.89    0.74
   6  -7  -6   -0.08    0.17
   5  -7  -6    8.68    0.73
   4  -7  -6    0.68    0.28
  -4   7   6    1.82    0.52
   3  -7  -6    2.95    0.45
  -3   7   6    3.54    0.57
  -3   7   6    3.18    0.44
   2  -7  -6   37.97    1.60
  -2   7   6   37.66    1.30
   1  -7  -6    4.96    0.57
   1  -7  -6    4.66    0.52
  -1   7   6    4.34    0.43
   0  -7  -6  204.87    5.31
   0  -7  -6  196.27    5.52
   0   7   6  203.47    5.44
  -1  -7  -6  177.51    5.20
  -1  -7  -6  187.57    4.68
  -1  -7  -6  180.35    5.05
   1   7   6  181.90    5.03
  -2  -7  -6  146.86    4.21
  -2  -7  -6  151.13    4.39
  -2  -7  -6  148.80    3.63
   2   7   6  149.37    4.31
  -3  -7  -6   13.40    0.85
  -3  -7  -6   14.53    0.82
   3   7   6   15.90    0.96
  -4  -7  -6   69.33    2.25
   4   7   6   70.29    2.49
   4   7   6   72.09    2.50
   5   7   6    3.69    0.55
   5   7   6    3.34    0.52
   6   7   6   29.47    1.45
   6   7   6   26.56    1.43
   5  -8  -6   40.57    1.79
   4  -8  -6  110.04    3.56
  -4   8   6  113.74    3.87
   3  -8  -6   37.94    1.67
  -3   8   6   34.03    1.44
  -3   8   6   35.47    1.74
   2  -8  -6   17.30    1.07
  -2   8   6   19.28    1.14
   1  -8  -6   22.29    1.19
   1  -8  -6   21.39    1.21
  -1   8   6   23.31    1.09
   0  -8  -6   43.08    1.80
   0  -8  -6   43.88    1.69
   0   8   6   44.62    1.72
  -1  -8  -6   22.72    1.17
  -1  -8  -6   22.77    0.98
   1   8   6   22.17    1.17
  -2  -8  -6   50.89    2.00
  -2  -8  -6   51.42    1.91
   2   8   6   49.79    1.98
  -3  -8  -6   15.53    0.95
   3   8   6   15.57    1.01
  -4  -8  -6   51.91    1.84
   4   8   6   51.92    2.09
   5   8   6   15.33    1.05
   6   8   6   18.24    1.17
   6   8   6   17.54    1.15
   4  -9  -6  110.94    3.66
   3  -9  -6   36.60    1.74
  -3   9   6   39.05    1.89
   2  -9  -6  142.12    4.36
  -2   9   6  141.18    4.32
   1  -9  -6   16.32    1.07
  -1   9   6   17.54    0.97
  -1   9   6   18.80    1.08
   0  -9  -6   50.48    2.04
   0   9   6   49.29    1.92
  -1  -9  -6    3.69    0.53
   1   9   6    4.79    0.58
  -2  -9  -6   12.26    0.85
   2   9   6   11.18    0.89
  -3  -9  -6   11.84    0.87
   3   9   6   14.00    1.00
  -4  -9  -6   31.89    1.37
   4   9   6   31.25    1.59
  -5  -9  -6   61.29    1.83
   5   9   6   68.39    2.56
   3 -10  -6   12.51    1.01
  -3  10   6   12.16    1.09
   2 -10  -6   25.05    1.44
  -2  10   6   24.99    1.45
   1 -10  -6    0.94    0.36
  -1  10   6    1.15    0.39
   0 -10  -6   33.51    1.65
   0  10   6   34.23    1.57
  -1 -10  -6   45.24    1.94
   1  10   6   46.55    1.96
   2  10   6   11.43    0.94
   3  10   6   64.25    2.53
  -4 -10  -6    3.41    0.47
   4  10   6    3.68    0.63
   2 -11  -6    8.91    0.91
  -2  11   6    8.08    0.88
   1 -11  -6   51.46    2.23
   0 -11  -6   16.00    1.17
  -1 -11  -6   62.30    2.48
   1  11   6   66.65    2.54
   2  11   6   17.43    1.21
   3  11   6   47.10    2.15
   2   9  -7    0.27    0.30
  -2  -9   7    0.85    0.29
   1   9  -7    5.53    0.74
  -1  -9   7    5.13    0.66
  -1  -9   7    5.48    0.64
   0   9  -7    2.67    0.59
   0  -9   7    1.90    0.50
  -1   9  -7    8.36    0.87
   2  -9   7    0.35    0.32
   2  -9   7    0.73    0.42
   4   8  -7   50.19    2.20
  -4  -8   7   50.14    2.62
   3   8  -7    0.23    0.27
   2   8  -7   14.70    1.10
  -2  -8   7   13.50    0.82
   1   8  -7    7.55    0.81
  -1  -8   7    8.24    0.77
  -1  -8   7    8.89    0.75
   0   8  -7   19.26    1.25
   0  -8   7   16.67    1.11
   0  -8   7   17.59    1.13
  -1   8  -7    5.43    0.69
   1  -8   7    5.98    0.68
   1  -8   7    5.40    0.66
  -2   8  -7    0.04    0.22
  -2   8  -7    0.35    0.28
   2  -8   7    0.47    0.36
   2  -8   7    0.04    0.25
  -3   8  -7   22.06    1.31
   3  -8   7   20.42    1.35
   3  -8   7   21.42    1.41
   5   7  -7   12.88    0.99
  -5  -7   7   10.30    1.22
   4   7  -7    0.11    0.22
  -4  -7   7    0.12    0.39
   3   7  -7    2.40    0.51
   2   7  -7    6.09    0.69
  -2  -7   7    4.94    0.49
  -2  -7   7    5.83    0.58
   1   7  -7   68.02    2.61
  -1  -7   7   70.38    2.36
  -1  -7   7   70.12    2.44
   0   7  -7    0.36    0.26
   0   7  -7    0.29    0.27
   0  -7   7    0.35    0.24
   0  -7   7    0.57    0.25
   0  -7   7    0.66    0.31
   0  -7   7    0.37    0.25
  -1   7  -7    3.37    0.53
  -1   7  -7    2.98    0.53
   1  -7   7    3.34    0.55
   1  -7   7    3.81    0.54
   1  -7   7    3.21    0.57
   1  -7   7    2.69    0.49
  -2   7  -7   47.95    2.38
  -2   7  -7   50.06    1.91
  -2   7  -7   48.39    2.01
   2  -7   7   47.65    2.01
   2  -7   7   48.33    2.05
  -3   7  -7   24.56    1.24
   3  -7   7   24.13    1.46
   3  -7   7   26.80    1.46
   4  -7   7    1.60    0.46
   4  -7   7    1.77    0.55
   5   6  -7    1.47    0.40
  -5  -6   7    0.40    0.42
   4   6  -7    3.18    0.51
  -4  -6   7    2.31    0.64
   3   6  -7   20.00    1.17
   2   6  -7   12.62    0.92
   2   6  -7   11.16    0.87
  -2  -6   7   13.18    0.73
  -2  -6   7   12.88    0.79
   1   6  -7   78.16    2.59
   1   6  -7   73.50    2.69
  -1  -6   7   79.94    2.24
  -1  -6   7   73.81    2.53
  -1  -6   7   75.53    2.44
  -1  -6   7   77.24    2.47
   0   6  -7    6.03    0.67
   0   6  -7    7.14    0.68
   0  -6   7    6.04    0.62
   0  -6   7    6.65    0.57
   0  -6   7    7.85    0.64
  -1   6  -7    0.99    0.33
  -1   6  -7    0.72    0.30
   1  -6   7    0.44    0.26
   1  -6   7    0.07    0.19
   1  -6   7    0.70    0.31
  -2   6  -7    7.86    0.68
  -2   6  -7    8.07    0.72
  -2   6  -7    6.55    0.86
   2  -6   7    7.20    0.71
   2  -6   7    7.88    0.75
  -3   6  -7    0.44    0.26
  -3   6  -7    0.13    0.34
  -3   6  -7   -0.06    0.17
   3  -6   7    0.21    0.29
   3  -6   7   -0.09    0.15
  -4   6  -7    1.04    0.33
   4  -6   7    0.69    0.40
   4  -6   7    0.62    0.29
   5  -6   7   43.43    2.15
   5  -6   7   40.23    1.91
   6   5  -7    0.63    0.29
  -6  -5   7    0.04    0.39
   5   5  -7    2.05    0.41
  -5  -5   7    2.61    0.66
   4   5  -7   20.55    1.21
   4   5  -7   18.22    1.04
  -4  -5   7   17.76    1.34
   3   5  -7   51.36    1.96
   3   5  -7   45.92    1.87
  -3  -5   7   48.84    1.57
   2   5  -7   14.16    0.93
   2   5  -7   14.07    0.93
  -2  -5   7   14.62    0.75
   1   5  -7   16.67    1.00
   1   5  -7   16.89    1.03
  -1  -5   7   18.92    0.81
  -1  -5   7   16.42    0.85
  -1  -5   7   17.73    0.94
   0   5  -7    8.50    0.74
   0   5  -7   10.06    0.75
   0  -5   7    9.42    0.64
   0  -5   7    8.49    0.69
   0  -5   7    9.05    0.67
  -1   5  -7    0.76    0.27
  -1   5  -7    0.67    0.27
   1  -5   7    0.19    0.23
   1  -5   7    0.76    0.27
   1  -5   7    0.73    0.28
  -2   5  -7  125.28    3.73
  -2   5  -7  125.79    3.47
   2  -5   7  124.64    3.70
   2  -5   7  115.80    3.71
  -3   5  -7   20.84    1.09
  -3   5  -7   21.77    1.43
  -3   5  -7   21.17    1.05
   3  -5   7   21.03    1.25
   3  -5   7   19.11    1.14
  -4   5  -7    2.20    0.58
  -4   5  -7    1.71    0.37
   4  -5   7    2.07    0.54
   4  -5   7    1.19    0.36
  -5   5  -7   -0.05    0.33
   5  -5   7    0.43    0.27
   5  -5   7    0.38    0.34
   6  -5   7   20.88    1.30
   6  -5   7   20.17    1.48
   6   4  -7    0.06    0.18
  -6  -4   7    0.14    0.40
   5   4  -7   18.25    1.11
   5   4  -7   16.48    0.93
  -5  -4   7   17.10    1.38
   4   4  -7    0.07    0.18
   4   4  -7    0.11    0.21
  -4  -4   7    0.21    0.31
   3   4  -7    0.37    0.22
   3   4  -7    0.54    0.25
   2   4  -7   -0.08    0.17
   2   4  -7    0.06    0.16
  -2  -4   7    0.30    0.15
  -2  -4   7    0.44    0.12
  -2  -4   7    0.10    0.10
   1   4  -7  117.38    3.34
   1   4  -7  113.96    3.50
  -1  -4   7  115.89    3.05
  -1  -4   7  113.34    3.22
  -1  -4   7  117.21    3.40
   0   4  -7    6.05    0.58
   0   4  -7    5.71    0.58
   0  -4   7    5.43    0.50
   0  -4   7    4.99    0.47
   0  -4   7    6.03    0.57
  -1   4  -7    9.33    0.73
  -1   4  -7    9.40    0.68
   1  -4   7    8.98    0.70
   1  -4   7    9.19    0.68
   1  -4   7    8.56    0.70
   1  -4   7    8.34    0.66
  -2   4  -7  150.82    3.93
  -2   4  -7  146.62    4.24
   2  -4   7  147.99    4.37
   2  -4   7  141.54    4.22
   2  -4   7  143.53    4.16
   2  -4   7  145.22    3.91
  -3   4  -7    2.53    0.40
  -3   4  -7    3.73    0.63
  -3   4  -7    2.68    0.40
   3  -4   7    1.66    0.34
   3  -4   7    2.15    0.43
   3  -4   7    3.09    0.51
  -4   4  -7   47.77    2.20
  -4   4  -7   49.60    1.70
   4  -4   7   47.68    1.68
   4  -4   7   47.78    2.08
   4  -4   7   49.00    1.96
  -5   4  -7    1.47    0.52
   5  -4   7    1.51    0.41
   5  -4   7    1.55    0.50
  -6   4  -7   42.16    2.15
   6  -4   7   36.17    1.99
   6  -4   7   38.53    1.77
   7   3  -7    2.27    0.37
  -7  -3   7    1.72    0.71
   6   3  -7   14.58    0.81
   6   3  -7   15.41    1.02
  -6  -3   7   15.54    1.38
   5   3  -7    0.73    0.32
   5   3  -7    0.77    0.24
  -5  -3   7    1.53    0.55
   4   3  -7   36.41    1.43
   4   3  -7   38.05    1.58
  -4  -3   7   36.03    1.88
   3   3  -7    3.50    0.41
   3   3  -7    3.19    0.46
   3   3  -7    3.70    0.44
   2   3  -7   13.86    0.62
   2   3  -7   13.66    0.83
   2   3  -7   13.42    0.85
  -2  -3   7   15.48    0.60
  -2  -3   7   14.39    0.53
   1   3  -7    5.93    0.56
   1   3  -7    4.85    0.51
  -1  -3   7    4.61    0.44
  -1  -3   7    4.47    0.51
  -1  -3   7    4.81    0.39
  -1  -3   7    4.88    0.40
   0   3  -7   16.51    0.90
   0   3  -7   16.59    0.94
   0  -3   7   15.44    0.80
   0  -3   7   17.36    0.86
   0  -3   7   16.52    0.91
   0  -3   7   16.30    0.91
  -1   3  -7   14.10    0.82
  -1   3  -7   15.31    0.90
   1  -3   7   14.06    0.82
   1  -3   7   13.48    0.81
   1  -3   7   14.14    0.82
   1  -3   7   15.41    0.90
  -2   3  -7   22.50    1.11
  -2   3  -7   22.93    1.08
   2  -3   7   22.74    1.18
   2  -3   7   24.08    1.20
   2  -3   7   24.34    1.17
   2  -3   7   23.96    1.08
  -3   3  -7   61.97    2.44
  -3   3  -7   61.22    2.12
  -3   3  -7   64.74    2.04
   3  -3   7   62.42    2.21
   3  -3   7   67.88    2.38
   3  -3   7   62.41    2.01
  -4   3  -7   65.07    2.59
   4  -3   7   66.37    2.37
   4  -3   7   66.20    2.52
   4  -3   7   69.82    2.10
  -5   3  -7   24.39    1.50
   5  -3   7   27.51    1.36
   5  -3   7   27.89    1.57
  -6   3  -7   10.70    1.03
   6  -3   7   10.92    0.86
   6  -3   7   11.95    1.10
  -7   3  -7    0.71    0.46
   7  -3   7    0.59    0.31
   7  -3   7    0.72    0.47
   7   2  -7   53.64    1.73
  -7  -2   7   51.92    2.77
   6   2  -7    0.09    0.14
   6   2  -7   -0.09    0.16
  -6  -2   7    0.04    0.33
   5   2  -7   20.49    0.92
   5   2  -7   21.46    1.12
   5   2  -7   18.50    0.90
  -5  -2   7   22.25    1.50
   4   2  -7   24.06    1.05
   4   2  -7   25.00    1.19
  -4  -2   7   22.46    1.42
   3   2  -7    0.23    0.17
   3   2  -7   -0.12    0.15
   3   2  -7    0.16    0.14
   2   2  -7   77.68    2.37
   2   2  -7   69.85    2.34
   2   2  -7   79.06    2.38
   2   2  -7   75.12    2.09
  -2  -2   7   74.30    2.37
   1   2  -7    0.48    0.22
   1   2  -7    0.88    0.25
  -1  -2   7    0.93    0.24
  -1  -2   7    1.38    0.25
  -1  -2   7    1.16    0.31
  -1  -2   7    0.91    0.20
   0   2  -7  264.28    6.71
   0   2  -7  251.21    6.06
   0   2  -7  235.94    6.49
   0  -2   7  240.00    6.35
   0  -2   7  243.81    6.04
   0  -2   7  245.26    6.11
   0  -2   7  254.32    6.58
  -1   2  -7   38.56    1.53
  -1   2  -7   39.28    1.46
   1  -2   7   38.03    1.54
   1  -2   7   39.13    1.48
   1  -2   7   38.92    1.45
   1  -2   7   38.53    1.49
  -2   2  -7   24.23    1.13
  -2   2  -7   24.52    1.09
   2  -2   7   27.11    1.24
   2  -2   7   23.72    1.07
   2  -2   7   24.94    1.15
   2  -2   7   24.40    1.18
  -3   2  -7    0.66    0.31
  -3   2  -7    0.68    0.23
  -3   2  -7    0.46    0.20
   3  -2   7    0.56    0.30
   3  -2   7    0.26    0.19
   3  -2   7    0.65    0.23
   3  -2   7    0.86    0.28
  -4   2  -7   12.51    0.98
  -4   2  -7   13.24    0.70
   4  -2   7   12.84    0.98
   4  -2   7   14.18    0.88
   4  -2   7   12.78    0.74
  -5   2  -7    0.44    0.31
   5  -2   7    0.05    0.16
   5  -2   7    0.05    0.28
   5  -2   7    0.32    0.23
  -6   2  -7   25.68    1.47
   6  -2   7   23.34    1.49
   6  -2   7   20.78    1.19
  -7   2  -7    0.12    0.34
   7  -2   7    0.60    0.31
   7  -2   7    0.70    0.46
   7   1  -7   -0.07    0.13
  -7  -1   7    0.32    0.40
   6   1  -7   10.66    0.59
   6   1  -7    9.67    0.75
  -6  -1   7    9.81    1.07
   5   1  -7    0.07    0.19
   5   1  -7   -0.01    0.12
  -5  -1   7    0.46    0.35
   4   1  -7   55.56    1.79
   4   1  -7   55.12    1.91
  -4  -1   7   53.53    2.32
   3   1  -7   54.49    1.77
   3   1  -7   56.33    1.61
   3   1  -7   53.94    1.85
   3   1  -7   52.07    1.78
   3   1  -7   50.15    1.76
  -3  -1   7   53.18    1.86
  -3  -1   7   53.04    2.17
   2   1  -7   53.81    1.69
   2   1  -7   51.17    1.77
   2   1  -7   49.73    1.77
   2   1  -7   54.03    1.77
  -2  -1   7   50.03    1.78
   1   1  -7   11.17    0.69
   1   1  -7   12.01    0.73
  -1  -1   7   11.24    0.64
  -1  -1   7   10.26    0.56
  -1  -1   7   10.85    0.70
  -1  -1   7   12.12    0.62
   0   1  -7   34.66    1.44
   0   1  -7   39.58    1.52
   0   1  -7   38.22    1.43
   0  -1   7   39.03    1.46
   0  -1   7   35.95    1.34
   0  -1   7   36.71    1.35
   0  -1   7   38.39    1.42
  -1   1  -7   12.35    0.76
  -1   1  -7   10.98    0.70
   1  -1   7   13.15    0.77
   1  -1   7   13.96    0.81
   1  -1   7   12.37    0.73
   1  -1   7   11.41    0.70
  -2   1  -7   10.31    0.66
  -2   1  -7   10.43    0.69
   2  -1   7    8.55    0.61
   2  -1   7    9.52    0.71
   2  -1   7    9.51    0.66
   2  -1   7   11.32    0.75
  -3   1  -7   23.79    1.05
   3  -1   7   20.67    0.98
   3  -1   7   22.01    1.08
   3  -1   7   24.11    1.21
   3  -1   7   24.53    1.19
  -4   1  -7    3.78    0.36
  -4   1  -7    4.49    0.56
   4  -1   7    4.70    0.50
   4  -1   7    3.53    0.40
   4  -1   7    3.45    0.54
  -5   1  -7   50.97    2.07
   5  -1   7   48.02    1.90
   5  -1   7   50.95    1.70
   5  -1   7   54.29    2.21
  -6   1  -7    3.49    0.58
   6  -1   7    4.71    0.56
   6  -1   7    4.09    0.67
  -7   1  -7   42.13    1.99
   7  -1   7   41.78    2.13
   7  -1   7   43.61    1.83
   7   0  -7    0.99    0.25
  -7   0   7    0.66    0.47
   6   0  -7   61.85    1.87
   6   0  -7   62.93    2.10
  -6   0   7   57.66    2.72
   5   0  -7    0.56    0.24
   5   0  -7    0.31    0.16
  -5   0   7    0.36    0.21
  -5   0   7    0.22    0.31
   4   0  -7   61.42    2.02
   4   0  -7   61.00    1.91
  -4   0   7   57.50    2.41
  -4   0   7   62.42    1.77
  -4   0   7   60.21    2.02
   3   0  -7    2.17    0.30
   3   0  -7    2.38    0.37
   3   0  -7    1.71    0.29
  -3   0   7    2.22    0.43
  -3   0   7    2.06    0.38
   2   0  -7   52.17    1.81
   2   0  -7   54.71    1.84
   2   0  -7   58.45    1.84
   1   0  -7   27.40    1.15
   1   0  -7   27.81    1.13
   1   0  -7   26.01    1.12
  -1   0   7   27.77    1.05
  -1   0   7   24.51    1.10
  -1   0   7   24.72    0.96
   0   0  -7   58.19    2.03
   0   0  -7   64.40    2.14
   0   0  -7   63.53    2.00
   0   0   7   62.79    1.98
   0   0   7   63.15    1.99
   0   0   7   63.89    2.08
   0   0   7   63.70    1.98
  -1   0  -7   25.33    1.08
  -1   0  -7   26.99    1.15
   1   0   7   24.92    1.08
   1   0   7   21.98    1.03
   1   0   7   24.91    1.13
   1   0   7   25.27    1.11
  -2   0  -7    1.08    0.27
  -2   0  -7    0.75    0.23
   2   0   7    0.60    0.21
   2   0   7    0.63    0.25
   2   0   7    0.67    0.22
   2   0   7    1.03    0.30
  -3   0  -7   25.22    1.09
   3   0   7   25.50    1.16
   3   0   7   24.61    1.21
   3   0   7   25.98    1.10
   3   0   7   26.04    1.28
  -4   0  -7   19.87    0.83
  -4   0  -7   19.11    1.06
   4   0   7   18.93    1.01
   4   0   7   20.43    1.18
   4   0   7   18.27    0.91
  -5   0  -7   99.88    3.18
   5   0   7  100.67    3.14
   5   0   7  101.30    3.36
   5   0   7  100.95    2.84
  -6   0  -7   14.26    0.98
   6   0   7   13.73    1.09
   6   0   7   12.80    0.87
   7   0   7   74.15    2.95
   7   0   7   72.64    2.57
   7  -1  -7    1.23    0.26
  -7   1   7    1.64    0.59
   6  -1  -7   41.52    1.37
   6  -1  -7   40.77    1.55
  -6   1   7   38.75    2.08
   5  -1  -7    7.81    0.61
   5  -1  -7    8.37    0.52
  -5   1   7    6.76    0.79
  -5   1   7    7.57    0.61
   4  -1  -7   13.40    0.79
   4  -1  -7   12.36    0.67
  -4   1   7   14.21    0.71
  -4   1   7   14.39    0.82
  -4   1   7   13.98    1.00
   3  -1  -7   17.49    0.82
   3  -1  -7   16.87    0.88
   3  -1  -7   17.78    0.83
  -3   1   7   17.30    1.03
  -3   1   7   16.80    0.89
   2  -1  -7    0.15    0.13
   2  -1  -7    0.06    0.11
   2  -1  -7    0.38    0.17
  -2   1   7   -0.05    0.13
   1  -1  -7    8.12    0.58
   1  -1  -7    7.64    0.55
   1  -1  -7    7.87    0.58
   1  -1  -7    9.41    0.69
  -1   1   7    8.45    0.48
  -1   1   7    8.32    0.60
   0  -1  -7   21.23    1.01
   0   1   7   22.67    0.95
   0   1   7   22.25    1.00
   0   1   7   21.27    0.97
  -1  -1  -7  122.82    3.58
   1   1   7  127.17    3.67
   1   1   7  130.68    3.39
   1   1   7  122.74    3.53
   1   1   7  126.76    3.51
  -2  -1  -7    7.57    0.58
  -2  -1  -7    7.94    0.59
   2   1   7    8.20    0.59
   2   1   7    7.66    0.58
   2   1   7    8.48    0.64
   2   1   7    8.53    0.67
  -3  -1  -7  135.26    3.67
   3   1   7  123.78    3.77
   3   1   7  127.61    3.73
   3   1   7  131.22    3.50
   3   1   7  136.19    3.93
  -4  -1  -7    2.16    0.27
  -4  -1  -7    2.32    0.38
   4   1   7    1.84    0.44
   4   1   7    2.03    0.37
   4   1   7    2.04    0.34
  -5  -1  -7   40.42    1.57
   5   1   7   37.62    1.54
   5   1   7   34.09    1.70
   5   1   7   36.88    1.42
  -6  -1  -7    7.13    0.66
   6   1   7    7.88    0.67
   6   1   7    7.66    0.61
   6   1   7    8.46    0.87
   7   1   7   26.63    1.62
   7   1   7   26.59    1.32
   7  -2  -7   25.35    1.02
  -7   2   7   25.05    1.72
   6  -2  -7   43.00    1.47
  -6   2   7   43.42    2.17
   5  -2  -7    3.25    0.36
  -5   2   7    4.28    0.64
  -5   2   7    3.51    0.41
  -5   2   7    3.25    0.43
   4  -2  -7   13.18    0.70
  -4   2   7   13.68    0.78
  -4   2   7   13.39    0.73
  -4   2   7   13.08    0.96
   3  -2  -7    8.04    0.55
   3  -2  -7    9.36    0.58
  -3   2   7    8.29    0.69
  -3   2   7    9.18    0.60
  -3   2   7    8.93    0.62
   2  -2  -7    0.58    0.20
   2  -2  -7    0.36    0.17
   2  -2  -7    0.40    0.24
  -2   2   7    0.10    0.18
  -2   2   7    0.34    0.20
   1  -2  -7  135.94    3.90
   1  -2  -7  145.81    4.06
  -1   2   7  143.67    3.74
  -1   2   7  142.04    3.72
   0  -2  -7    0.19    0.16
   0  -2  -7    0.19    0.15
   0  -2  -7    0.28    0.17
   0   2   7    0.24    0.15
   0   2   7    0.34    0.20
   0   2   7    0.38    0.19
  -1  -2  -7   47.57    1.70
   1   2   7   47.34    1.63
   1   2   7   46.61    1.73
   1   2   7   46.89    1.68
   1   2   7   44.34    1.62
  -2  -2  -7   60.82    1.99
  -2  -2  -7   59.03    2.02
   2   2   7   58.37    2.07
   2   2   7   58.99    1.92
   2   2   7   60.43    1.99
   2   2   7   55.58    2.01
  -3  -2  -7  132.06    3.70
  -3  -2  -7  130.54    3.60
   3   2   7  128.20    3.82
   3   2   7  121.36    3.65
   3   2   7  128.79    3.47
   3   2   7  126.89    3.74
  -4  -2  -7   21.86    0.87
  -4  -2  -7   20.11    0.94
   4   2   7   20.36    1.17
   4   2   7   21.27    1.02
   4   2   7   20.52    1.04
  -5  -2  -7   26.91    1.14
   5   2   7   26.21    1.23
   5   2   7   27.11    1.19
   5   2   7   27.23    1.44
   6   2   7    5.31    0.56
   6   2   7    6.64    0.76
   7   2   7    5.18    0.59
   7   2   7    5.11    0.76
   7  -3  -7    0.50    0.20
  -7   3   7    0.47    0.42
   6  -3  -7    0.27    0.17
  -6   3   7    0.24    0.34
   5  -3  -7   42.71    1.53
  -5   3   7   44.64    2.00
  -5   3   7   43.93    1.56
  -5   3   7   43.37    1.58
   4  -3  -7   -0.03    0.12
  -4   3   7    0.06    0.17
  -4   3   7    0.09    0.17
  -4   3   7    0.26    0.25
   3  -3  -7   43.60    1.55
   3  -3  -7   42.44    1.55
  -3   3   7   46.20    1.59
  -3   3   7   43.80    1.71
  -3   3   7   41.71    1.54
   2  -3  -7    1.83    0.39
   2  -3  -7    2.64    0.35
   2  -3  -7    1.48    0.30
  -2   3   7    2.52    0.35
  -2   3   7    2.10    0.35
  -2   3   7    2.13    0.18
  -2   3   7    2.37    0.19
   1  -3  -7  217.33    5.81
   1  -3  -7  221.75    5.78
   1  -3  -7  224.95    5.97
  -1   3   7  220.96    5.44
  -1   3   7  218.97    5.60
   0  -3  -7   56.91    1.96
   0  -3  -7   60.21    2.05
   0   3   7   56.42    1.87
   0   3   7   61.24    1.93
  -1  -3  -7   39.99    1.53
  -1  -3  -7   39.96    1.52
   1   3   7   38.11    1.52
   1   3   7   41.44    1.50
   1   3   7   40.97    1.50
  -2  -3  -7   34.88    1.37
  -2  -3  -7   34.45    1.41
   2   3   7   34.09    1.44
   2   3   7   32.54    1.35
   2   3   7   34.78    1.46
   2   3   7   34.20    1.36
  -3  -3  -7  133.78    3.82
  -3  -3  -7  129.76    3.71
   3   3   7  132.70    3.62
   3   3   7  134.46    3.87
   3   3   7  135.37    3.99
   3   3   7  131.57    3.81
  -4  -3  -7  179.31    4.61
  -4  -3  -7  176.45    4.48
   4   3   7  174.45    4.99
   4   3   7  173.74    4.91
   4   3   7  186.69    4.84
  -5  -3  -7   67.77    2.00
   5   3   7   67.63    2.52
   5   3   7   65.71    2.32
   6   3   7   33.12    1.51
   6   3   7   37.84    1.80
   7   3   7    4.99    0.60
   7   3   7    6.26    0.80
   7  -4  -7   25.47    1.15
   6  -4  -7    0.11    0.16
  -6   4   7    0.36    0.33
   5  -4  -7   57.76    1.95
  -5   4   7   55.56    2.28
   4  -4  -7   30.62    1.28
  -4   4   7   31.86    1.34
  -4   4   7   30.61    1.25
  -4   4   7   31.65    1.44
   3  -4  -7   77.32    2.48
   3  -4  -7   84.63    2.52
  -3   4   7   80.29    2.47
  -3   4   7   76.34    2.52
  -3   4   7   80.51    2.39
   2  -4  -7    0.06    0.14
   2  -4  -7    0.33    0.26
  -2   4   7    0.26    0.10
  -2   4   7    0.11    0.17
  -2   4   7   -0.11    0.13
  -2   4   7    0.25    0.17
   1  -4  -7   75.21    2.41
   1  -4  -7   69.12    2.31
   1  -4  -7   72.01    2.43
  -1   4   7   72.68    2.10
  -1   4   7   71.05    2.22
  -1   4   7   72.01    2.16
   0  -4  -7    0.04    0.15
   0  -4  -7    0.31    0.19
   0  -4  -7    0.15    0.16
   0   4   7    0.30    0.19
   0   4   7    0.16    0.14
  -1  -4  -7   23.69    0.98
  -1  -4  -7   21.99    1.08
   1   4   7   22.94    1.07
   1   4   7   24.65    1.16
   1   4   7   23.69    1.08
  -2  -4  -7   60.80    2.06
  -2  -4  -7   58.66    2.11
   2   4   7   61.19    2.13
   2   4   7   61.71    2.07
  -3  -4  -7   15.14    0.85
  -3  -4  -7   15.59    0.83
   3   4   7   15.09    0.96
   3   4   7   14.95    0.88
   3   4   7   15.86    0.96
  -4  -4  -7  208.52    5.60
  -4  -4  -7  213.23    5.03
  -4  -4  -7  211.42    5.40
   4   4   7  210.58    5.73
   4   4   7  211.46    5.72
   5   4   7    0.15    0.27
   5   4   7   -0.21    0.12
   6   4   7   97.62    3.34
   6   4   7   97.04    3.13
   7   4   7   14.44    1.13
   7   4   7   11.65    0.88
   6  -5  -7    5.44    0.55
   5  -5  -7   23.53    1.14
   4  -5  -7   10.19    0.71
  -4   5   7   10.02    0.72
  -4   5   7    8.99    0.65
   3  -5  -7  174.49    4.94
  -3   5   7  181.81    4.88
  -3   5   7  184.42    4.62
   2  -5  -7  133.75    3.95
  -2   5   7  140.65    3.68
  -2   5   7  141.04    3.73
   1  -5  -7   32.28    1.39
   1  -5  -7   36.15    1.49
   1  -5  -7   34.79    1.49
  -1   5   7   32.54    1.25
  -1   5   7   35.91    1.40
   0  -5  -7  114.35    3.32
   0  -5  -7  121.65    3.61
   0  -5  -7  111.98    3.46
   0   5   7  116.75    3.36
   0   5   7  119.95    3.30
  -1  -5  -7    0.60    0.24
  -1  -5  -7    0.39    0.19
  -1  -5  -7    0.15    0.18
   1   5   7    0.30    0.18
   1   5   7    0.12    0.11
  -2  -5  -7  115.39    3.41
  -2  -5  -7  114.80    3.50
  -2  -5  -7  114.54    3.40
  -2  -5  -7  116.43    3.00
   2   5   7  111.99    3.40
   2   5   7  115.01    3.44
  -3  -5  -7   47.10    1.68
  -3  -5  -7   46.69    1.76
   3   5   7   45.92    1.78
   3   5   7   47.36    1.87
  -4  -5  -7   11.99    0.71
   4   5   7   11.69    0.89
   4   5   7   12.07    0.82
   5   5   7   11.69    0.83
   5   5   7   10.95    0.91
   6   5   7  147.16    4.43
   6   5   7  152.63    4.56
   7   5   7    0.25    0.22
   7   5   7    0.22    0.30
   6  -6  -7    1.37    0.37
   5  -6  -7    0.29    0.22
   4  -6  -7   11.21    0.80
  -4   6   7   12.26    0.75
   3  -6  -7    0.72    0.27
  -3   6   7    0.74    0.26
   2  -6  -7   51.88    1.96
  -2   6   7   54.67    1.88
  -2   6   7   55.25    1.68
   1  -6  -7    1.91    0.39
   1  -6  -7    2.52    0.43
  -1   6   7    2.77    0.35
   0  -6  -7  111.53    3.38
   0  -6  -7  114.43    3.26
   0   6   7  107.26    3.24
  -1  -6  -7    4.32    0.50
  -1  -6  -7    4.82    0.43
   1   6   7    3.95    0.47
  -2  -6  -7  235.97    6.29
  -2  -6  -7  236.48    6.29
  -2  -6  -7  235.79    6.45
  -2  -6  -7  235.38    5.69
   2   6   7  230.84    6.30
  -3  -6  -7    0.30    0.20
  -3  -6  -7    0.21    0.17
   3   6   7    0.20    0.19
   3   6   7    0.39    0.26
  -4  -6  -7    0.91    0.26
   4   6   7    1.55    0.42
   4   6   7    1.25    0.36
   5   6   7    0.43    0.26
   5   6   7    0.33    0.27
   6   6   7   16.29    1.06
   6   6   7   17.11    1.18
   7   6   7   23.00    1.31
   5  -7  -7    2.72    0.49
   4  -7  -7   52.19    2.04
   3  -7  -7    5.44    0.60
   2  -7  -7   16.71    1.01
   1  -7  -7    6.92    0.67
   1  -7  -7    8.75    0.75
  -1   7   7    7.67    0.58
   0  -7  -7  102.75    3.05
   0  -7  -7   96.81    3.16
   0   7   7   99.53    3.05
  -1  -7  -7    0.72    0.23
  -1  -7  -7    0.56    0.26
   1   7   7    0.15    0.18
  -2  -7  -7  110.35    3.32
  -2  -7  -7  105.43    3.38
   2   7   7  102.04    3.30
  -3  -7  -7    0.36    0.24
  -3  -7  -7    0.47    0.23
   3   7   7    0.18    0.22
  -4  -7  -7    1.63    0.33
   4   7   7    1.38    0.39
   4   7   7    1.31    0.39
  -5  -7  -7   22.54    0.90
   5   7   7   23.15    1.29
   5   7   7   24.46    1.37
   6   7   7   10.69    0.88
   6   7   7    8.97    0.88
   5  -8  -7    0.51    0.31
   4  -8  -7  126.85    3.99
   3  -8  -7    3.97    0.56
   2  -8  -7   49.94    2.03
   1  -8  -7    2.30    0.46
  -1   8   7    2.68    0.39
   0  -8  -7   19.47    1.15
   0  -8  -7   20.49    1.09
   0   8   7   21.34    1.12
  -1  -8  -7   18.17    1.09
   1   8   7   21.70    1.15
  -2  -8  -7    5.09    0.57
   2   8   7    2.70    0.48
  -3  -8  -7   37.70    1.64
   3   8   7   36.25    1.69
  -4  -8  -7    9.27    0.69
   4   8   7    8.55    0.80
  -5  -8  -7   91.66    2.64
   5   8   7   93.11    3.22
   4  -9  -7   42.72    1.96
   3  -9  -7    2.21    0.50
   2  -9  -7    1.94    0.47
   1  -9  -7    3.55    0.56
   0  -9  -7    0.11    0.22
   0   9   7    0.23    0.20
  -1  -9  -7    6.69    0.70
   1   9   7    6.67    0.67
  -2  -9  -7    7.45    0.71
   2   9   7    7.25    0.74
   3   9   7   74.53    2.75
  -4  -9  -7    4.97    0.55
   4   9   7    5.66    0.70
  -5  -9  -7   74.68    2.29
   5   9   7   81.21    2.96
   3 -10  -7    3.45    0.62
   2 -10  -7    0.81    0.35
   1 -10  -7  102.18    3.51
   0 -10  -7    9.98    0.89
   0  10   7   11.26    0.87
  -1 -10  -7   85.94    3.06
   1  10   7   87.59    3.04
   2  10   7    8.68    0.84
   3  10   7   23.51    1.40
  -4 -10  -7    1.81    0.43
   4  10   7    1.70    0.47
   1 -11  -7   42.50    2.03
   0 -11  -7    9.42    0.91
  -1 -11  -7   34.85    1.75
   1  11   7   33.46    1.69
   2  11   7    4.59    0.69
   2   8  -8    9.18    0.93
  -2  -8   8    9.01    0.67
   1   8  -8   28.49    1.62
  -1  -8   8   27.03    1.42
  -1  -8   8   28.48    1.42
   0   8  -8    3.24    0.63
   0  -8   8    3.69    0.58
  -1   8  -8   20.44    1.33
   1  -8   8   19.09    1.21
   2  -8   8    2.75    0.58
   2  -8   8    1.55    0.49
   4   7  -8    3.27    0.60
  -4  -7   8    2.58    0.74
   3   7  -8   28.87    1.58
   2   7  -8   10.44    0.93
  -2  -7   8   10.47    0.69
   1   7  -8  108.08    3.68
  -1  -7   8  111.24    3.34
  -1  -7   8  107.10    3.45
   0   7  -8    1.25    0.40
   0  -7   8    1.65    0.44
   0  -7   8    1.92    0.48
  -1   7  -8   60.60    2.43
   1  -7   8   58.70    2.22
   1  -7   8   60.11    2.32
  -2   7  -8   18.10    1.19
   2  -7   8   19.16    1.24
   2  -7   8   20.68    1.26
  -3   7  -8   30.45    1.45
   3  -7   8   28.75    1.63
   3  -7   8   27.54    1.56
   5   6  -8   19.18    1.22
  -5  -6   8   20.66    1.67
   4   6  -8    0.04    0.17
  -4  -6   8    0.05    0.38
   3   6  -8   68.99    2.60
   2   6  -8   39.15    1.86
  -2  -6   8   46.91    1.71
  -2  -6   8   44.04    1.59
   1   6  -8  101.06    3.44
  -1  -6   8  102.89    3.23
   0   6  -8   17.14    1.15
   0   6  -8   19.31    1.15
   0  -6   8   18.66    1.12
   0  -6   8   17.83    0.96
   0  -6   8   18.25    1.04
  -1   6  -8   15.61    1.02
  -1   6  -8   14.32    1.04
   1  -6   8   15.14    0.98
   1  -6   8   15.86    1.07
   1  -6   8   16.44    1.04
  -2   6  -8    1.71    0.57
  -2   6  -8    2.72    0.51
  -2   6  -8    2.13    0.46
   2  -6   8    2.12    0.51
   2  -6   8    1.78    0.46
  -3   6  -8    2.63    0.47
   3  -6   8    2.54    0.55
   3  -6   8    2.86    0.54
   4  -6   8    1.17    0.49
   4  -6   8    1.93    0.52
   5   5  -8   78.32    2.77
  -5  -5   8   83.55    3.56
   4   5  -8    2.64    0.48
  -4  -5   8    2.67    0.68
   3   5  -8   42.11    1.82
   2   5  -8    7.93    0.75
   2   5  -8    7.36    0.74
  -2  -5   8    7.94    0.55
   1   5  -8   10.22    0.84
   1   5  -8   11.93    0.89
  -1  -5   8   11.55    0.66
  -1  -5   8   10.37    0.74
   0   5  -8    8.22    0.74
   0   5  -8    7.51    0.74
   0  -5   8    6.48    0.60
   0  -5   8    7.08    0.67
   0  -5   8    7.65    0.61
  -1   5  -8    3.90    0.56
  -1   5  -8    4.82    0.59
   1  -5   8    4.57    0.55
   1  -5   8    4.45    0.59
   1  -5   8    3.86    0.52
  -2   5  -8   16.59    1.00
  -2   5  -8   16.84    1.06
   2  -5   8   16.21    1.04
   2  -5   8   17.06    1.08
  -3   5  -8    1.34    0.53
  -3   5  -8    1.33    0.37
  -3   5  -8    1.09    0.33
   3  -5   8    1.57    0.49
   3  -5   8    1.68    0.43
  -4   5  -8    0.34    0.24
  -4   5  -8    1.48    0.59
   4  -5   8    0.69    0.39
   4  -5   8    0.88    0.35
   5  -5   8    0.80    0.34
   5  -5   8    0.11    0.34
   6   4  -8    6.59    0.64
  -6  -4   8    7.48    1.08
   5   4  -8   17.06    1.01
  -5  -4   8   15.95    1.42
   4   4  -8   16.01    0.99
  -4  -4   8   15.85    1.30
   3   4  -8   39.69    1.69
   3   4  -8   34.43    1.57
   2   4  -8    2.99    0.51
   2   4  -8    3.00    0.48
  -2  -4   8    3.41    0.35
  -2  -4   8    3.56    0.31
   1   4  -8   10.06    0.80
   1   4  -8   12.26    0.86
  -1  -4   8    9.75    0.63
  -1  -4   8   10.57    0.62
  -1  -4   8   10.62    0.72
   0   4  -8    1.42    0.38
   0   4  -8    1.41    0.37
   0  -4   8    1.35    0.36
   0  -4   8    2.34    0.38
   0  -4   8    2.48    0.38
  -1   4  -8   10.19    0.81
  -1   4  -8   10.16    0.76
   1  -4   8    9.66    0.73
   1  -4   8    9.65    0.74
   1  -4   8    9.60    0.78
  -2   4  -8  179.50    5.14
  -2   4  -8  181.79    4.77
   2  -4   8  179.88    5.14
   2  -4   8  179.24    5.01
  -3   4  -8    2.16    0.42
  -3   4  -8    2.35    0.59
  -3   4  -8    3.32    0.47
   3  -4   8    3.00    0.50
   3  -4   8    2.73    0.52
  -4   4  -8   29.49    1.30
  -4   4  -8   29.47    1.73
   4  -4   8   29.21    1.50
   4  -4   8   29.41    1.62
  -5   4  -8    0.51    0.42
   5  -4   8    1.79    0.56
   5  -4   8    0.62    0.31
   6  -4   8   28.59    1.78
   6  -4   8   26.48    1.48
   6   3  -8   18.18    0.98
  -6  -3   8   18.94    1.56
   5   3  -8    1.95    0.38
  -5  -3   8    2.93    0.68
   4   3  -8    1.48    0.36
   4   3  -8    1.64    0.43
  -4  -3   8    1.90    0.59
   3   3  -8    8.34    0.72
   3   3  -8    8.01    0.68
   2   3  -8   13.25    0.88
   2   3  -8   14.38    0.91
   1   3  -8    4.95    0.56
   1   3  -8    4.90    0.56
  -1  -3   8    5.21    0.43
  -1  -3   8    4.20    0.41
  -1  -3   8    4.63    0.47
   0   3  -8   36.05    1.59
   0   3  -8   38.30    1.55
   0  -3   8   38.05    1.42
   0  -3   8   37.28    1.46
   0  -3   8   36.42    1.54
  -1   3  -8   10.77    0.77
  -1   3  -8   11.23    0.81
   1  -3   8   10.15    0.75
   1  -3   8   12.74    0.86
   1  -3   8   11.74    0.78
  -2   3  -8   73.30    2.39
  -2   3  -8   74.08    2.56
   2  -3   8   78.33    2.68
   2  -3   8   73.99    2.53
   2  -3   8   73.85    2.54
  -3   3  -8    0.14    0.18
  -3   3  -8    0.15    0.20
  -3   3  -8    0.55    0.34
   3  -3   8   -0.03    0.16
   3  -3   8    0.66    0.32
  -4   3  -8   27.59    1.61
   4  -3   8   26.84    1.52
   4  -3   8   28.19    1.41
  -5   3  -8    8.90    0.94
   5  -3   8    9.54    0.82
   5  -3   8    7.79    0.90
  -6   3  -8    9.83    1.04
   6  -3   8    8.45    0.99
   6  -3   8    7.31    0.77
   6   2  -8    1.52    0.35
  -6  -2   8    1.71    0.60
   5   2  -8    1.90    0.42
   5   2  -8    1.47    0.34
  -5  -2   8    0.92    0.44
   4   2  -8  116.46    3.46
   4   2  -8  124.70    3.51
  -4  -2   8  109.20    4.01
   3   2  -8   21.59    1.12
   3   2  -8   19.19    1.01
   2   2  -8   57.55    2.06
   2   2  -8   58.48    2.05
   1   2  -8    1.55    0.35
   1   2  -8    1.79    0.38
  -1  -2   8    1.84    0.28
  -1  -2   8    2.08    0.34
  -1  -2   8    2.01    0.30
   0   2  -8   96.60    3.09
   0   2  -8  100.02    2.94
   0   2  -8   98.92    3.17
   0  -2   8   99.17    2.93
   0  -2   8   95.15    2.84
   0  -2   8   99.52    3.06
  -1   2  -8   12.82    0.82
  -1   2  -8   13.71    0.87
   1  -2   8   11.72    0.78
   1  -2   8   12.53    0.84
   1  -2   8   11.55    0.76
  -2   2  -8   11.68    0.79
  -2   2  -8   10.99    0.77
   2  -2   8   10.98    0.76
   2  -2   8   11.13    0.83
   2  -2   8   10.16    0.80
  -3   2  -8    0.60    0.24
   3  -2   8    0.63    0.33
   3  -2   8    0.20    0.18
  -4   2  -8    1.20    0.41
   4  -2   8    0.91    0.29
   4  -2   8    1.37    0.37
   4  -2   8    0.99    0.37
  -5   2  -8   73.83    2.79
   5  -2   8   74.20    2.82
   5  -2   8   64.68    2.49
  -6   2  -8    3.69    0.66
   6  -2   8    3.44    0.69
   6  -2   8    4.24    0.59
   6   1  -8   10.14    0.67
   6   1  -8   10.92    0.84
  -6  -1   8    9.59    1.13
   5   1  -8    3.75    0.44
   5   1  -8    4.63    0.56
  -5  -1   8    3.21    0.68
   4   1  -8  103.97    3.06
   4   1  -8   95.91    2.96
   4   1  -8   96.96    2.98
  -4  -1   8  100.85    3.60
   3   1  -8    1.10    0.34
   3   1  -8    0.74    0.25
   3   1  -8    0.60    0.22
   2   1  -8   75.98    2.42
   2   1  -8   74.52    2.47
   1   1  -8   47.31    1.79
   1   1  -8   49.54    1.79
  -1  -1   8   47.86    1.61
  -1  -1   8   49.09    1.70
  -1  -1   8   48.49    1.58
   0   1  -8    0.81    0.27
   0   1  -8    0.73    0.27
   0   1  -8    0.92    0.30
   0  -1   8    0.55    0.23
   0  -1   8    1.26    0.28
   0  -1   8    1.09    0.33
   0  -1   8    0.88    0.27
  -1   1  -8   19.25    1.04
  -1   1  -8   20.36    1.04
   1  -1   8   20.07    1.03
   1  -1   8   19.06    1.05
   1  -1   8   19.64    0.99
   1  -1   8   21.08    1.04
  -2   1  -8   35.30    1.50
  -2   1  -8   35.65    1.45
   2  -1   8   38.08    1.47
   2  -1   8   37.91    1.59
   2  -1   8   36.88    1.52
   2  -1   8   38.50    1.63
  -3   1  -8   47.57    1.80
   3  -1   8   50.23    1.77
   3  -1   8   47.56    1.86
   3  -1   8   52.76    2.03
  -4   1  -8   12.00    0.94
   4  -1   8   14.14    0.84
   4  -1   8   11.71    0.95
   4  -1   8   12.87    0.87
  -5   1  -8  100.28    3.37
   5  -1   8  100.40    3.45
   5  -1   8   99.52    3.24
  -6   1  -8    1.23    0.41
   6  -1   8    1.07    0.48
   6  -1   8    1.02    0.35
   7  -1   8   58.39    2.63
   7  -1   8   56.87    2.30
   7   0  -8   11.15    0.68
  -7   0   8    9.67    1.16
   6   0  -8   66.34    2.26
   6   0  -8   63.71    2.08
  -6   0   8   61.92    2.88
   5   0  -8    2.41    0.36
   5   0  -8    1.75    0.40
  -5   0   8    2.32    0.58
   4   0  -8    7.06    0.64
   4   0  -8    6.46    0.53
  -4   0   8    6.92    0.77
  -4   0   8    4.92    0.44
   3   0  -8   15.35    0.92
   3   0  -8   17.44    0.89
   3   0  -8   16.27    0.88
  -3   0   8   15.36    1.05
   2   0  -8    5.82    0.53
   2   0  -8    5.27    0.52
   2   0  -8    5.08    0.53
   1   0  -8   35.95    1.54
   1   0  -8   42.64    1.59
  -1   0   8   41.94    1.46
  -1   0   8   41.58    1.38
  -1   0   8   40.02    1.56
   0   0  -8    7.29    0.61
   0   0  -8    7.44    0.61
   0   0  -8    8.29    0.66
   0   0   8    8.33    0.57
   0   0   8    8.91    0.67
   0   0   8    8.00    0.62
   0   0   8    8.03    0.61
  -1   0  -8   75.44    2.39
  -1   0  -8   74.30    2.50
   1   0   8   79.88    2.47
   1   0   8   76.97    2.39
   1   0   8   75.77    2.57
   1   0   8   75.70    2.43
  -2   0  -8   32.56    1.36
  -2   0  -8   28.72    1.34
   2   0   8   30.86    1.32
   2   0   8   29.83    1.37
   2   0   8   30.65    1.30
   2   0   8   28.85    1.38
  -3   0  -8   11.25    0.74
   3   0   8   11.56    0.80
   3   0   8   11.66    0.88
   3   0   8   12.49    0.78
  -4   0  -8   25.33    1.09
  -4   0  -8   22.94    1.24
   4   0   8   25.44    1.38
   4   0   8   22.88    1.20
  -5   0  -8   32.97    1.60
   5   0   8   37.20    1.82
   5   0   8   38.61    1.63
  -6   0  -8    2.69    0.52
   6   0   8    1.24    0.46
   6   0   8    1.29    0.36
   7   0   8    1.78    0.46
   7   0   8    1.37    0.50
   7  -1  -8    0.29    0.20
  -7   1   8    0.96    0.55
   6  -1  -8    3.47    0.40
   6  -1  -8    3.22    0.49
  -6   1   8    3.20    0.72
   5  -1  -8   47.50    1.78
   5  -1  -8   45.56    1.65
  -5   1   8   48.93    2.26
   4  -1  -8    7.53    0.58
   4  -1  -8    7.65    0.65
  -4   1   8    7.19    0.79
  -4   1   8    9.01    0.60
   3  -1  -8   38.04    1.52
   3  -1  -8   39.98    1.48
   3  -1  -8   37.04    1.45
  -3   1   8   35.82    1.68
   2  -1  -8   42.69    1.62
   2  -1  -8   44.53    1.65
  -2   1   8   43.51    1.64
   1  -1  -8   38.83    1.55
   1  -1  -8   36.89    1.49
   1  -1  -8   37.66    1.52
  -1   1   8   41.46    1.37
  -1   1   8   43.03    1.57
   0  -1  -8   41.22    1.66
   0  -1  -8   40.82    1.64
   0   1   8   40.08    1.54
   0   1   8   42.23    1.51
   0   1   8   46.06    1.64
  -1  -1  -8  234.35    6.31
   1   1   8  237.80    6.23
   1   1   8  238.12    6.45
   1   1   8  235.68    6.09
   1   1   8  240.09    5.89
  -2  -1  -8    8.99    0.68
  -2  -1  -8    7.97    0.64
   2   1   8    8.27    0.70
   2   1   8    8.11    0.69
   2   1   8    8.34    0.64
   2   1   8    6.50    0.58
  -3  -1  -8   67.07    2.25
  -3  -1  -8   65.20    2.31
   3   1   8   71.19    2.53
   3   1   8   69.33    2.45
   3   1   8   69.17    2.34
   3   1   8   70.30    2.27
  -4  -1  -8    6.32    0.60
  -4  -1  -8    6.25    0.50
   4   1   8    5.89    0.59
   4   1   8    6.38    0.70
  -5  -1  -8    9.17    0.74
   5   1   8   11.16    0.96
   5   1   8   10.09    0.77
   6   1   8    0.71    0.42
   6   1   8    0.84    0.32
   7   1   8    1.42    0.40
   7   1   8    1.63    0.56
   6  -2  -8   10.31    0.67
  -6   2   8    9.88    1.04
   5  -2  -8   15.25    0.83
  -5   2   8   13.47    1.09
   4  -2  -8   40.30    1.54
  -4   2   8   41.84    1.89
  -4   2   8   43.48    1.54
   3  -2  -8   31.81    1.32
   3  -2  -8   31.92    1.31
  -3   2   8   32.84    1.30
  -3   2   8   32.70    1.46
  -3   2   8   31.69    1.49
   2  -2  -8    3.86    0.44
  -2   2   8    1.99    0.38
  -2   2   8    2.47    0.40
   1  -2  -8   57.77    2.03
  -1   2   8   57.40    1.81
  -1   2   8   59.57    1.98
   0  -2  -8   51.19    1.85
   0  -2  -8   43.40    1.72
   0  -2  -8   46.45    1.75
   0   2   8   45.16    1.67
   0   2   8   44.76    1.68
   0   2   8   47.74    1.64
  -1  -2  -8    2.92    0.43
   1   2   8    2.50    0.39
   1   2   8    3.48    0.47
   1   2   8    3.65    0.45
   1   2   8    2.82    0.43
  -2  -2  -8    7.35    0.63
  -2  -2  -8    6.92    0.60
   2   2   8    6.37    0.62
   2   2   8    6.98    0.60
   2   2   8    6.29    0.62
  -3  -2  -8   11.45    0.77
  -3  -2  -8   11.23    0.73
   3   2   8   11.52    0.87
   3   2   8   12.06    0.80
  -4  -2  -8    4.46    0.43
  -4  -2  -8    5.10    0.50
   4   2   8    4.37    0.61
   4   2   8    4.10    0.52
  -5  -2  -8   42.38    1.60
   5   2   8   42.44    1.93
   5   2   8   39.30    1.69
   6   2   8    2.39    0.47
   6   2   8    1.68    0.51
   7   2   8   41.36    1.81
   7   2   8   38.36    2.02
   6  -3  -8   17.64    0.93
  -6   3   8   16.69    1.29
   5  -3  -8   99.24    3.00
  -5   3   8  100.42    3.54
   4  -3  -8   11.13    0.73
  -4   3   8   10.64    0.88
  -4   3   8   11.59    0.77
   3  -3  -8   55.60    2.04
   3  -3  -8   49.56    1.84
  -3   3   8   53.46    1.85
  -3   3   8   50.50    1.87
  -3   3   8   53.75    2.01
   2  -3  -8    1.12    0.31
  -2   3   8    1.20    0.31
  -2   3   8    0.75    0.26
  -2   3   8    0.94    0.16
   1  -3  -8   73.80    2.50
   1  -3  -8   81.28    2.63
  -1   3   8   77.22    2.44
  -1   3   8   81.38    2.33
   0  -3  -8   30.80    1.38
   0  -3  -8   27.79    1.29
   0   3   8   31.73    1.36
   0   3   8   27.13    1.17
  -1  -3  -8    6.83    0.61
   1   3   8    6.46    0.61
   1   3   8    7.46    0.59
  -2  -3  -8    0.21    0.18
  -2  -3  -8    0.09    0.15
   2   3   8    0.29    0.19
   2   3   8    0.39    0.25
   2   3   8    0.31    0.26
  -3  -3  -8   84.98    2.70
  -3  -3  -8   88.16    2.79
   3   3   8   88.08    2.87
   3   3   8   83.45    2.76
  -4  -3  -8   50.48    1.68
  -4  -3  -8   52.78    1.85
   4   3   8   52.28    1.97
   4   3   8   48.96    2.06
   5   3   8   53.14    2.06
   5   3   8   56.94    2.31
   6   3   8    0.21    0.23
   6   3   8    0.72    0.40
   7   3   8   18.75    1.39
   7   3   8   20.77    1.21
   6  -4  -8   28.28    1.29
  -6   4   8   28.55    1.66
   5  -4  -8   22.22    1.11
  -5   4   8   24.73    1.39
   4  -4  -8    0.21    0.17
  -4   4   8   -0.09    0.20
   3  -4  -8    5.51    0.55
  -3   4   8    4.07    0.49
   2  -4  -8   59.34    2.12
  -2   4   8   63.06    2.03
   1  -4  -8   46.11    1.77
   1  -4  -8   46.04    1.83
  -1   4   8   48.06    1.59
  -1   4   8   47.01    1.56
   0  -4  -8   16.96    0.93
   0  -4  -8   16.66    0.99
   0  -4  -8   16.96    0.96
   0   4   8   16.27    0.87
  -1  -4  -8   52.66    1.94
  -1  -4  -8   50.87    1.93
  -1  -4  -8   55.93    1.82
   1   4   8   51.20    1.87
   1   4   8   53.93    1.98
  -2  -4  -8   13.92    0.88
  -2  -4  -8   12.91    0.83
   2   4   8   11.56    0.85
   2   4   8   12.53    0.82
  -3  -4  -8  156.01    4.29
  -3  -4  -8  157.87    4.40
   3   4   8  143.97    4.32
   3   4   8  146.30    4.36
  -4  -4  -8   48.42    1.77
   4   4   8   49.00    2.03
   4   4   8   47.37    1.88
   5   4   8    6.15    0.73
   5   4   8    7.31    0.68
   6   4   8   65.55    2.47
   6   4   8   69.02    2.70
   7   4   8   15.82    1.26
   7   4   8   14.30    1.02
   6  -5  -8    0.51    0.25
   5  -5  -8    0.99    0.30
   4  -5  -8   43.48    1.73
  -4   5   8   42.37    1.73
   3  -5  -8   47.33    1.83
  -3   5   8   47.59    1.69
   2  -5  -8   17.07    0.98
  -2   5   8   17.17    0.77
   1  -5  -8   86.44    2.84
   1  -5  -8   85.78    2.82
  -1   5   8   89.88    2.39
  -1   5   8   84.28    2.58
   0  -5  -8    1.28    0.35
   0  -5  -8    1.58    0.36
   0   5   8    0.96    0.27
  -1  -5  -8   56.35    1.89
  -1  -5  -8   58.83    2.13
   1   5   8   57.20    2.04
  -2  -5  -8   32.72    1.43
  -2  -5  -8   31.29    1.44
  -2  -5  -8   30.14    1.14
   2   5   8   31.11    1.39
   2   5   8   30.21    1.46
  -3  -5  -8   13.09    0.85
  -3  -5  -8   11.24    0.76
   3   5   8   12.63    0.86
   3   5   8   11.08    0.88
  -4  -5  -8   11.46    0.74
   4   5   8   10.00    0.80
   4   5   8    9.87    0.86
   5   5   8    0.22    0.22
   5   5   8    0.40    0.32
   6   5   8    0.03    0.27
   6   5   8    0.15    0.22
   5  -6  -8   16.17    1.02
   4  -6  -8    1.56    0.40
   3  -6  -8   94.17    3.06
   2  -6  -8    5.54    0.60
   1  -6  -8   39.47    1.67
  -1   6   8   39.59    1.48
   0  -6  -8  102.15    3.09
   0  -6  -8   98.38    3.19
   0   6   8  100.65    3.06
  -1  -6  -8   32.06    1.29
  -1  -6  -8   31.40    1.44
   1   6   8   31.98    1.40
  -2  -6  -8   46.36    1.83
  -2  -6  -8   46.71    1.83
   2   6   8   45.46    1.83
  -3  -6  -8   18.27    1.05
  -3  -6  -8   19.55    1.02
   3   6   8   15.94    1.02
   3   6   8   17.24    1.12
  -4  -6  -8    1.79    0.36
   4   6   8    2.11    0.44
   4   6   8    1.89    0.49
   5   6   8    9.29    0.88
   5   6   8    8.90    0.80
   6   6   8    0.06    0.20
   6   6   8   -0.10    0.26
   5  -7  -8   50.38    2.09
   4  -7  -8   37.96    1.73
   3  -7  -8    7.07    0.70
   2  -7  -8   12.49    0.91
   1  -7  -8    1.84    0.43
  -1   7   8    1.30    0.31
   0  -7  -8    0.20    0.22
   0  -7  -8    0.39    0.26
   0   7   8    0.19    0.19
  -1  -7  -8   70.70    2.53
   1   7   8   73.74    2.51
  -2  -7  -8    0.92    0.32
  -2  -7  -8    0.46    0.24
   2   7   8    0.32    0.22
  -3  -7  -8    3.19    0.49
   3   7   8    2.69    0.49
  -4  -7  -8   18.40    1.02
   4   7   8   17.61    1.19
   4   7   8   18.17    1.14
  -5  -7  -8   26.23    1.09
   5   7   8   26.02    1.49
   5   7   8   25.54    1.41
   6   7   8    5.77    0.71
   6   7   8    6.59    0.80
   4  -8  -8   15.57    1.10
   3  -8  -8    2.94    0.53
   2  -8  -8   20.36    1.23
   1  -8  -8    6.56    0.70
   0  -8  -8    1.92    0.46
   0   8   8    1.28    0.34
  -1  -8  -8    8.35    0.76
   1   8   8    9.21    0.78
  -2  -8  -8    2.57    0.49
   2   8   8    2.23    0.46
   3   8   8   52.39    2.14
  -4  -8  -8   13.83    0.91
   4   8   8   16.32    1.11
  -5  -8  -8   23.14    1.03
   5   8   8   23.90    1.40
   3  -9  -8   21.27    1.32
   2  -9  -8   18.91    1.23
   1  -9  -8   26.95    1.48
   0  -9  -8   12.96    0.99
   0   9   8   12.80    0.90
  -1  -9  -8   14.39    1.04
   1   9   8   16.33    1.06
  -2  -9  -8    8.98    0.81
   2   9   8    8.19    0.81
   3   9   8   56.75    2.33
  -4  -9  -8   10.92    0.83
   4   9   8   10.33    0.95
   2 -10  -8    8.49    0.89
   1 -10  -8   28.86    1.60
   0 -10  -8   23.81    1.42
  -1 -10  -8   15.57    1.11
   1  10   8   16.15    1.10
   2  10   8    2.12    0.53
   3  10   8    8.24    0.87
   2   7  -9   39.48    1.93
  -2  -7   9   36.30    1.45
   1   7  -9   15.86    1.21
  -1  -7   9   17.63    1.07
  -1  -7   9   16.76    1.12
   0   7  -9   17.71    1.26
   0  -7   9   17.86    1.17
  -1   7  -9    1.28    0.44
   1  -7   9    0.92    0.37
   2  -7   9   21.33    1.34
   2  -7   9   22.18    1.39
   3   6  -9   25.08    1.46
   2   6  -9   74.71    2.85
  -2  -6   9   76.47    2.41
   1   6  -9   -0.23    0.21
  -1  -6   9    0.15    0.22
   0   6  -9    3.62    0.63
   0  -6   9    4.63    0.61
  -1   6  -9    0.72    0.36
   1  -6   9    0.25    0.26
   1  -6   9    0.04    0.24
  -2   6  -9   12.96    1.01
   2  -6   9   11.50    0.95
   2  -6   9   10.61    0.92
   3  -6   9   44.79    2.07
   3  -6   9   47.36    2.15
   4   5  -9   10.20    0.88
  -4  -5   9   11.03    1.20
   3   5  -9    8.07    0.80
   2   5  -9    3.41    0.58
  -2  -5   9    4.20    0.42
   1   5  -9   52.11    2.15
  -1  -5   9   47.43    1.87
   0   5  -9   32.08    1.64
   0  -5   9   32.24    1.53
   0  -5   9   31.94    1.37
  -1   5  -9   99.18    3.40
  -1   5  -9  103.09    3.26
   1  -5   9   97.70    3.14
   1  -5   9   99.48    3.41
   1  -5   9  102.55    3.29
  -2   5  -9   37.65    1.68
  -2   5  -9   39.15    1.80
   2  -5   9   40.54    1.79
   2  -5   9   39.07    1.78
  -3   5  -9   41.33    1.74
   3  -5   9   39.13    1.89
   3  -5   9   40.32    1.87
   4  -5   9   73.01    2.90
   4  -5   9   70.23    2.76
   5   4  -9    0.32    0.25
  -5  -4   9    0.69    0.46
   4   4  -9    8.15    0.76
  -4  -4   9    8.87    1.04
   3   4  -9   29.02    1.47
   2   4  -9   43.61    1.89
   1   4  -9    5.46    0.65
   1   4  -9    5.53    0.65
  -1  -4   9    5.58    0.56
  -1  -4   9    5.21    0.47
   0   4  -9   85.88    2.77
   0   4  -9   75.93    2.82
   0  -4   9   78.30    2.52
   0  -4   9   82.32    2.66
   0  -4   9   82.69    2.80
  -1   4  -9  122.05    3.67
  -1   4  -9  122.68    3.95
   1  -4   9  124.65    3.68
   1  -4   9  127.18    3.97
   1  -4   9  125.58    3.82
  -2   4  -9   13.18    0.94
  -2   4  -9   13.71    0.97
   2  -4   9   11.81    0.92
   2  -4   9   12.36    0.91
  -3   4  -9   30.62    1.44
  -3   4  -9   32.94    1.85
   3  -4   9   29.67    1.52
   3  -4   9   31.63    1.62
  -4   4  -9    3.34    0.75
   4  -4   9    5.32    0.76
   4  -4   9    4.40    0.63
   5  -4   9    0.05    0.23
   5  -4   9    0.44    0.39
   5   3  -9   77.74    2.68
  -5  -3   9   78.37    3.42
   4   3  -9   40.11    1.73
  -4  -3   9   41.78    2.19
   3   3  -9  158.80    4.67
   2   3  -9   54.20    2.14
   2   3  -9   55.97    2.12
   1   3  -9   48.60    1.97
   1   3  -9   48.12    1.91
  -1  -3   9   47.35    1.63
  -1  -3   9   46.96    1.78
   0   3  -9   11.77    0.87
   0   3  -9   12.03    0.90
   0  -3   9   11.77    0.83
   0  -3   9   12.50    0.80
   0  -3   9   11.50    0.77
  -1   3  -9   52.58    2.10
  -1   3  -9   56.87    2.07
   1  -3   9   55.67    2.03
   1  -3   9   51.00    1.96
   1  -3   9   51.70    2.10
  -2   3  -9   31.00    1.40
  -2   3  -9   27.94    1.43
   2  -3   9   28.61    1.41
   2  -3   9   28.58    1.44
  -3   3  -9   30.25    1.42
  -3   3  -9   27.67    1.33
   3  -3   9   28.25    1.45
   3  -3   9   28.43    1.51
  -4   3  -9    6.73    0.85
   4  -3   9    8.45    0.88
   4  -3   9    8.34    0.79
  -5   3  -9   13.17    1.19
   5  -3   9   13.59    1.16
   5  -3   9   13.24    1.03
   6   2  -9   17.22    1.01
  -6  -2   9   17.57    1.53
   5   2  -9   69.85    2.47
  -5  -2   9   74.15    3.20
   4   2  -9   20.79    1.28
   4   2  -9   18.02    1.05
  -4  -2   9   18.60    1.36
   3   2  -9  106.20    3.32
   3   2  -9  104.95    3.28
   2   2  -9    1.13    0.35
   2   2  -9    0.24    0.22
   1   2  -9   10.34    0.80
   1   2  -9    8.95    0.77
  -1  -2   9   10.38    0.62
  -1  -2   9    8.94    0.62
  -1  -2   9   10.35    0.70
   0   2  -9   34.88    1.54
   0   2  -9   34.39    1.57
   0  -2   9   35.19    1.42
   0  -2   9   33.85    1.52
   0  -2   9   35.17    1.41
  -1   2  -9   22.03    1.22
  -1   2  -9   24.33    1.22
   1  -2   9   22.90    1.17
   1  -2   9   23.30    1.17
   1  -2   9   23.54    1.25
  -2   2  -9   18.09    1.03
  -2   2  -9   15.39    1.00
   2  -2   9   14.76    1.00
   2  -2   9   16.34    1.00
   2  -2   9   16.10    1.09
  -3   2  -9    1.03    0.31
   3  -2   9    1.08    0.35
   3  -2   9    1.40    0.42
  -4   2  -9   63.99    2.64
   4  -2   9   66.20    2.48
   4  -2   9   65.70    2.60
  -5   2  -9   20.45    1.40
   5  -2   9   18.52    1.19
   5  -2   9   19.89    1.37
  -6   2  -9   78.10    3.17
   6  -2   9   80.35    2.98
   6  -2   9   85.98    3.29
   6   1  -9    5.10    0.56
   6   1  -9    6.04    0.59
  -6  -1   9    3.86    0.85
   5   1  -9   32.51    1.44
   5   1  -9   32.13    1.42
   5   1  -9   35.56    1.66
  -5  -1   9   34.21    2.00
   4   1  -9   17.82    1.09
   4   1  -9   19.96    1.05
  -4  -1   9   15.47    1.25
   3   1  -9   59.86    2.18
   3   1  -9   58.45    2.15
   2   1  -9    2.14    0.44
   2   1  -9    1.71    0.39
   1   1  -9   15.98    0.98
   1   1  -9   17.13    1.01
  -1  -1   9   15.66    0.78
  -1  -1   9   15.80    0.84
   0   1  -9    9.22    0.75
   0   1  -9   10.79    0.81
   0  -1   9   10.49    0.72
   0  -1   9    9.85    0.67
   0  -1   9   10.01    0.74
  -1   1  -9    2.14    0.43
  -1   1  -9    2.14    0.43
   1  -1   9    2.18    0.42
   1  -1   9    1.68    0.35
   1  -1   9    2.45    0.43
  -2   1  -9   62.74    2.28
   2  -1   9   61.31    2.26
   2  -1   9   62.83    2.25
   2  -1   9   63.33    2.37
  -3   1  -9    0.16    0.20
   3  -1   9    0.95    0.35
   3  -1   9    0.10    0.20
  -4   1  -9   24.78    1.43
   4  -1   9   24.02    1.42
   4  -1   9   23.75    1.29
  -5   1  -9    3.82    0.65
   5  -1   9    4.68    0.62
   5  -1   9    4.73    0.73
   6  -1   9    3.51    0.72
   6  -1   9    3.82    0.61
   6   0  -9    0.86    0.27
  -6   0   9    0.50    0.43
   5   0  -9   21.72    1.08
   5   0  -9   20.41    1.17
  -5   0   9   20.39    1.48
   4   0  -9    8.34    0.74
   4   0  -9    8.70    0.69
  -4   0   9    8.19    0.89
   3   0  -9    1.65    0.38
   3   0  -9    1.58    0.40
   3   0  -9    2.15    0.39
  -3   0   9    1.14    0.42
   2   0  -9  119.93    3.73
   2   0  -9  130.80    3.65
   1   0  -9   28.13    1.35
   1   0  -9   30.15    1.38
  -1   0   9   28.98    1.13
  -1   0   9   29.77    1.24
   0   0  -9  185.15    5.31
   0   0  -9  199.04    5.05
   0   0   9  188.99    5.32
   0   0   9  191.83    5.14
   0   0   9  186.71    5.02
  -1   0  -9    1.39    0.38
   1   0   9    0.88    0.27
   1   0   9    1.08    0.34
   1   0   9    1.96    0.40
  -2   0  -9   25.10    1.27
  -2   0  -9   20.77    1.14
   2   0   9   22.64    1.23
   2   0   9   24.83    1.27
   2   0   9   20.29    1.12
  -3   0  -9    7.31    0.63
   3   0   9    7.54    0.74
   3   0   9    6.65    0.65
  -4   0  -9   36.35    1.71
   4   0   9   39.27    1.70
   4   0   9   38.94    1.84
  -5   0  -9   12.27    0.96
   5   0   9   13.21    1.10
   5   0   9   10.91    0.89
   6   0   9   10.18    0.89
   6   0   9   10.98    1.07
   6  -1  -9    3.97    0.50
  -6   1   9    4.40    0.84
   5  -1  -9    3.88    0.47
   5  -1  -9    3.51    0.52
  -5   1   9    4.44    0.74
   4  -1  -9   28.86    1.30
   4  -1  -9   30.58    1.41
  -4   1   9   29.68    1.65
   3  -1  -9   15.53    0.96
   3  -1  -9   14.26    0.88
  -3   1   9   14.36    1.03
   2  -1  -9    7.87    0.67
   2  -1  -9    6.88    0.64
   2  -1  -9    6.50    0.61
   1  -1  -9    7.42    0.66
   1  -1  -9    7.19    0.66
  -1   1   9    7.72    0.52
   0  -1  -9   97.94    3.12
   0   1   9   95.75    2.95
   0   1   9   99.31    2.94
  -1  -1  -9   14.65    0.93
   1   1   9   14.96    0.95
   1   1   9   13.85    0.90
   1   1   9   13.77    0.85
  -2  -1  -9   11.33    0.84
  -2  -1  -9   11.41    0.81
   2   1   9   11.91    0.87
   2   1   9   11.98    0.81
   2   1   9   12.91    0.90
  -3  -1  -9    3.20    0.46
  -3  -1  -9    2.56    0.42
   3   1   9    3.00    0.47
   3   1   9    2.53    0.50
  -4  -1  -9    2.18    0.45
   4   1   9    2.68    0.54
   4   1   9    2.13    0.44
  -5  -1  -9   17.98    1.09
   5   1   9   19.04    1.15
   5   1   9   15.20    1.17
   6   1   9    0.36    0.37
   6   1   9    0.68    0.30
   6  -2  -9   81.30    2.63
  -6   2   9   80.74    3.32
   5  -2  -9    0.18    0.20
  -5   2   9    0.73    0.40
   4  -2  -9   98.19    3.13
  -4   2   9  103.16    2.96
  -4   2   9  103.07    3.55
   3  -2  -9   15.40    0.92
  -3   2   9   17.37    1.10
   2  -2  -9   42.60    1.70
   1  -2  -9    9.86    0.75
   1  -2  -9    9.34    0.74
  -1   2   9    9.60    0.59
   0  -2  -9   28.17    1.35
   0   2   9   29.08    1.32
   0   2   9   27.24    1.19
  -1  -2  -9    4.79    0.55
   1   2   9    5.62    0.54
   1   2   9    4.80    0.57
  -2  -2  -9   46.26    1.87
  -2  -2  -9   44.06    1.80
   2   2   9   44.57    1.79
   2   2   9   47.18    1.89
   2   2   9   47.13    1.94
  -3  -2  -9   27.75    1.30
  -3  -2  -9   29.81    1.38
   3   2   9   30.06    1.49
   3   2   9   26.84    1.34
  -4  -2  -9   38.13    1.55
   4   2   9   37.56    1.80
   4   2   9   35.64    1.63
   5   2   9    4.10    0.65
   5   2   9    3.89    0.56
   6   2   9    6.84    0.73
   6   2   9    6.61    0.86
   6  -3  -9   40.35    1.66
  -6   3   9   39.36    2.10
   5  -3  -9    6.10    0.59
  -5   3   9    6.08    0.76
   4  -3  -9   35.79    1.52
  -4   3   9   36.06    1.74
   3  -3  -9   20.90    1.13
  -3   3   9   24.01    1.26
   2  -3  -9   30.87    1.39
  -2   3   9   30.83    1.38
   1  -3  -9   52.91    1.99
  -1   3   9   52.14    1.73
   0  -3  -9    1.33    0.36
   0  -3  -9    0.77    0.28
   0   3   9    0.66    0.22
  -1  -3  -9   16.80    1.03
   1   3   9   17.78    0.98
   1   3   9   19.42    1.09
  -2  -3  -9    0.09    0.19
  -2  -3  -9    0.14    0.20
   2   3   9    0.53    0.29
   2   3   9    0.12    0.20
  -3  -3  -9   50.09    1.94
  -3  -3  -9   48.67    1.87
   3   3   9   49.46    2.05
   3   3   9   48.65    1.93
  -4  -3  -9   12.54    0.83
   4   3   9   13.13    0.92
   4   3   9   12.29    0.97
   5   3   9    6.51    0.68
   5   3   9    5.67    0.75
   6   3   9   51.52    2.13
   6   3   9   49.48    2.32
   5  -4  -9   -0.12    0.16
  -5   4   9    0.03    0.26
   4  -4  -9    8.44    0.71
  -4   4   9   10.54    0.84
   3  -4  -9    4.83    0.56
  -3   4   9    5.71    0.59
   2  -4  -9   21.10    1.15
  -2   4   9   22.39    1.07
   1  -4  -9    2.36    0.43
  -1   4   9    1.06    0.28
  -1   4   9    1.07    0.27
   0  -4  -9   13.08    0.90
   0  -4  -9   12.06    0.84
   0   4   9   13.11    0.79
  -1  -4  -9    1.90    0.36
  -1  -4  -9    1.47    0.38
   1   4   9    1.60    0.36
   1   4   9    1.86    0.43
  -2  -4  -9   32.08    1.45
   2   4   9   30.25    1.49
   2   4   9   31.46    1.43
  -3  -4  -9    4.85    0.57
  -3  -4  -9    6.01    0.60
   3   4   9    5.76    0.62
   3   4   9    5.22    0.66
  -4  -4  -9    5.72    0.57
   4   4   9    5.30    0.62
   4   4   9    5.44    0.70
   5   4   9    2.69    0.57
   5   4   9    2.54    0.49
   6   4   9    0.46    0.28
   6   4   9   -0.13    0.29
   5  -5  -9    0.66    0.29
   4  -5  -9    5.22    0.62
   3  -5  -9   59.97    2.24
   2  -5  -9   11.08    0.83
   1  -5  -9   24.92    1.28
  -1   5   9   24.88    1.08
   0  -5  -9   32.36    1.43
   0  -5  -9   29.37    1.43
   0   5   9   29.86    1.32
  -1  -5  -9    9.47    0.78
  -1  -5  -9    9.93    0.70
  -1  -5  -9    9.94    0.79
   1   5   9    9.54    0.73
  -2  -5  -9   19.98    1.13
   2   5   9   18.67    1.08
   2   5   9   18.28    1.15
  -3  -5  -9   44.61    1.80
  -3  -5  -9   42.61    1.71
   3   5   9   39.50    1.75
   3   5   9   40.04    1.84
  -4  -5  -9   27.51    1.29
   4   5   9   25.17    1.36
   4   5   9   26.14    1.47
   5   5   9    2.00    0.54
   5   5   9    1.99    0.47
   6   5   9   28.44    1.68
   6   5   9   26.68    1.48
   5  -6  -9   10.86    0.87
   4  -6  -9   17.04    1.09
   3  -6  -9    5.44    0.63
   2  -6  -9   13.25    0.94
   1  -6  -9   12.50    0.92
   0  -6  -9    3.16    0.50
   0  -6  -9    1.96    0.43
   0   6   9    2.39    0.40
  -1  -6  -9    7.57    0.72
   1   6   9    6.45    0.63
  -2  -6  -9    6.61    0.68
   2   6   9    6.64    0.67
  -3  -6  -9   16.14    1.06
   3   6   9   17.56    1.17
   3   6   9   16.82    1.08
  -4  -6  -9    0.48    0.25
   4   6   9    0.39    0.30
   4   6   9    0.55    0.27
   5   6   9    0.70    0.35
   5   6   9    0.84    0.41
   4  -7  -9    9.05    0.84
   3  -7  -9   30.52    1.57
   2  -7  -9   29.24    1.50
   1  -7  -9    0.67    0.33
   0  -7  -9    0.54    0.30
   0   7   9    0.28    0.21
  -1  -7  -9   23.12    1.29
   1   7   9   22.25    1.22
  -2  -7  -9   43.64    1.86
  -2  -7  -9   43.48    1.87
   2   7   9   43.96    1.87
   3   7   9    3.01    0.54
  -4  -7  -9   42.78    1.78
   4   7   9   41.20    1.97
   4   7   9   43.31    1.95
  -5  -7  -9    8.48    0.62
   5   7   9    6.73    0.83
   5   7   9    7.61    0.82
   3  -8  -9    1.21    0.40
   2  -8  -9    0.62    0.33
   1  -8  -9    3.52    0.58
   0  -8  -9   50.40    2.12
  -1  -8  -9    0.95    0.37
   1   8   9    1.60    0.41
  -2  -8  -9   62.14    2.40
  -2  -8  -9   65.56    2.45
   2   8   9   62.02    2.42
   3   8   9    2.69    0.55
  -4  -8  -9  116.47    3.71
   4   8   9  112.22    3.82
   2  -9  -9   34.24    1.76
   1  -9  -9   -0.07    0.23
   0  -9  -9   77.09    2.89
  -1  -9  -9    7.82    0.82
   1   9   9    9.03    0.82
   2   9   9    4.60    0.67
   3   9   9    5.30    0.72
   0 -10  -9   15.08    1.17
  -1 -10  -9    0.37    0.31
   2   6 -10    0.05    0.26
  -2  -6  10   -0.01    0.16
   1   6 -10   37.17    1.94
  -1  -6  10   40.71    1.73
   0   6 -10    1.66    0.48
   0  -6  10    1.03    0.40
  -1   6 -10   43.32    2.07
   1  -6  10   41.93    1.88
   2  -6  10    0.29    0.32
   2  -6  10   -0.16    0.23
   3   5 -10   12.40    1.03
   2   5 -10    9.38    0.91
   1   5 -10   47.93    2.14
  -1  -5  10   45.08    1.84
   0   5 -10    8.09    0.86
   0  -5  10    7.51    0.74
  -1   5 -10   81.17    3.04
   1  -5  10   83.48    2.82
  -2   5 -10    0.47    0.31
   2  -5  10    0.26    0.29
   2  -5  10    0.00    0.23
   3  -5  10   33.99    1.77
   3  -5  10   33.17    1.74
   4   4 -10    9.04    0.86
  -4  -4  10    9.99    1.16
   3   4 -10  130.18    4.18
   2   4 -10    0.38    0.30
   1   4 -10   88.75    3.18
  -1  -4  10   90.47    2.93
   0   4 -10    8.23    0.83
   0  -4  10    8.57    0.71
   0  -4  10    9.45    0.80
  -1   4 -10   63.94    2.58
   1  -4  10   70.52    2.42
   1  -4  10   70.09    2.48
   1  -4  10   61.60    2.52
  -2   4 -10   22.20    1.32
   2  -4  10   21.40    1.28
   2  -4  10   21.34    1.27
   3  -4  10   35.80    1.78
   3  -4  10   38.07    1.87
   4  -4  10    0.80    0.42
   4  -4  10    1.19    0.41
   4   3 -10    1.11    0.38
  -4  -3  10    2.15    0.65
   3   3 -10   58.11    2.32
   2   3 -10    5.12    0.65
   1   3 -10   15.04    1.06
  -1  -3  10   14.18    0.82
  -1  -3  10   15.75    0.93
   0   3 -10    0.15    0.23
   0  -3  10    0.43    0.29
   0  -3  10    0.56    0.27
  -1   3 -10    0.36    0.26
   1  -3  10    0.21    0.21
   1  -3  10   -0.22    0.19
   1  -3  10    0.04    0.23
  -2   3 -10   22.48    1.30
  -2   3 -10   22.29    1.29
   2  -3  10   19.53    1.22
   2  -3  10   21.29    1.23
  -3   3 -10    5.02    0.64
   3  -3  10    5.92    0.70
   3  -3  10    4.34    0.68
  -4   3 -10   68.60    2.97
   4  -3  10   65.33    2.71
   4  -3  10   65.41    2.60
   5   2 -10   80.97    2.80
  -5  -2  10   79.80    3.49
   4   2 -10   11.51    0.88
  -4  -2  10   10.10    1.08
   3   2 -10   45.59    1.92
   2   2 -10    0.73    0.32
   1   2 -10    0.67    0.30
  -1  -2  10    0.21    0.21
   0   2 -10   60.33    2.37
   0   2 -10   66.56    2.35
   0  -2  10   62.49    2.16
   0  -2  10   57.60    2.10
   0  -2  10   60.62    2.27
  -1   2 -10    6.05    0.70
  -1   2 -10    8.27    0.77
   1  -2  10    6.79    0.65
   1  -2  10    7.70    0.73
   1  -2  10    7.02    0.71
  -2   2 -10   76.14    2.76
  -2   2 -10   78.12    2.63
   2  -2  10   77.31    2.74
   2  -2  10   75.80    2.70
  -3   2 -10   11.49    0.86
   3  -2  10    9.86    0.84
   3  -2  10    9.66    0.90
  -4   2 -10  100.00    3.71
   4  -2  10  108.30    3.58
   4  -2  10  107.33    3.68
  -5   2 -10    6.89    0.90
   5  -2  10    5.71    0.74
   5  -2  10    6.75    0.92
   5   1 -10    1.83    0.45
  -5  -1  10    1.74    0.63
   4   1 -10   14.11    0.98
  -4  -1  10   14.91    1.28
   3   1 -10    0.27    0.24
   2   1 -10   55.08    2.15
   2   1 -10   55.69    2.17
   1   1 -10   23.10    1.29
   1   1 -10   24.74    1.30
  -1  -1  10   23.41    1.11
   0   1 -10  106.96    3.29
   0   1 -10  101.24    3.41
   0  -1  10  105.74    3.19
   0  -1  10  104.62    3.15
   0  -1  10  103.60    3.35
  -1   1 -10    0.15    0.24
  -1   1 -10    0.25    0.25
   1  -1  10    0.05    0.18
   1  -1  10    0.09    0.19
   1  -1  10   -0.19    0.18
  -2   1 -10   21.94    1.25
   2  -1  10   20.98    1.25
   2  -1  10   24.85    1.28
  -3   1 -10    3.03    0.49
   3  -1  10    2.34    0.52
   3  -1  10    2.24    0.48
  -4   1 -10   22.75    1.44
   4  -1  10   25.05    1.50
   4  -1  10   24.69    1.39
  -5   1 -10    0.35    0.34
   5  -1  10    0.47    0.33
   5  -1  10   -0.03    0.30
   5   0 -10    0.12    0.23
   5   0 -10   -0.04    0.16
  -5   0  10   -0.17    0.30
   4   0 -10   28.42    1.38
   4   0 -10   27.72    1.39
  -4   0  10   29.13    1.75
   3   0 -10   12.08    0.94
   3   0 -10   11.09    0.86
  -3   0  10   11.76    1.02
   2   0 -10   90.90    2.91
   2   0 -10   81.64    2.90
   1   0 -10   13.96    0.97
   1   0 -10   18.26    1.09
  -1   0  10   14.56    0.88
   0   0 -10  197.08    5.27
   0   0 -10  197.11    5.62
   0   0  10  193.82    5.25
   0   0  10  195.61    5.32
  -1   0 -10    8.96    0.79
   1   0  10    8.46    0.70
   1   0  10    8.19    0.76
   1   0  10    9.08    0.77
  -2   0 -10    2.80    0.49
   2   0  10    3.21    0.50
   2   0  10    3.08    0.52
  -3   0 -10    9.96    0.79
   3   0  10    8.99    0.79
   3   0  10    9.21    0.88
  -4   0 -10    0.70    0.39
   4   0  10    1.98    0.56
   4   0  10    0.95    0.35
   5   0  10   12.61    1.12
   5   0  10   11.94    0.98
   5  -1 -10    3.73    0.53
  -5   1  10    3.93    0.76
   4  -1 -10   53.70    2.07
  -4   1  10   52.18    2.40
   3  -1 -10    0.26    0.23
   3  -1 -10   -0.09    0.18
   3  -1 -10    0.30    0.24
  -3   1  10    0.45    0.28
   2  -1 -10   24.97    1.30
   2  -1 -10   22.41    1.24
   1  -1 -10    2.32    0.46
   0  -1 -10   44.93    1.87
   0   1  10   43.97    1.76
   0   1  10   44.86    1.68
  -1  -1 -10   45.08    1.94
   1   1  10   48.67    1.98
   1   1  10   48.68    1.86
   1   1  10   46.80    1.89
  -2  -1 -10   22.74    1.26
   2   1  10   24.19    1.26
   2   1  10   25.06    1.33
  -3  -1 -10   52.77    2.02
   3   1  10   49.24    2.03
   3   1  10   51.51    2.15
  -4  -1 -10    1.29    0.40
   4   1  10    1.15    0.36
   4   1  10    0.57    0.36
   5   1  10   64.41    2.55
   5   1  10   68.20    2.76
   5  -2 -10    7.55    0.70
  -5   2  10    9.37    1.01
   4  -2 -10   32.06    1.49
  -4   2  10   32.38    1.74
   3  -2 -10    0.66    0.29
  -3   2  10    1.11    0.40
   2  -2 -10   13.74    0.94
   2  -2 -10   11.95    0.89
   1  -2 -10    6.04    0.65
   0  -2 -10   21.25    1.22
   0   2  10   19.18    1.02
   0   2  10   21.92    1.17
  -1  -2 -10   11.65    0.88
   1   2  10   12.91    0.85
   1   2  10   12.32    0.91
  -2  -2 -10   33.34    1.55
   2   2  10   31.84    1.49
   2   2  10   33.77    1.61
  -3  -2 -10  175.99    4.95
   3   2  10  170.28    5.00
   3   2  10  167.79    5.00
   4   2  10   13.59    1.09
   4   2  10   14.66    1.02
   5   2  10   46.89    2.07
   5   2  10   49.58    2.29
   6   2  10    1.51    0.46
   5  -3 -10   26.43    1.35
  -5   3  10   25.87    1.60
   4  -3 -10   17.30    1.07
  -4   3  10   20.13    1.28
   3  -3 -10   13.69    0.94
  -3   3  10   14.94    1.04
   2  -3 -10    0.28    0.22
  -2   3  10    1.24    0.36
   1  -3 -10  140.40    4.27
   1  -3 -10  141.42    4.29
   0  -3 -10    3.99    0.57
   0   3  10    4.35    0.49
  -1  -3 -10   58.91    2.28
   1   3  10   63.23    2.31
   1   3  10   59.30    2.17
  -2  -3 -10    0.10    0.20
   2   3  10    0.25    0.23
   2   3  10    0.29    0.28
  -3  -3 -10  144.76    4.32
   3   3  10  145.96    4.43
   3   3  10  148.61    4.49
   4   3  10    4.77    0.63
   4   3  10    5.50    0.74
   5   3  10   49.36    2.27
   5   3  10   48.62    2.10
   5  -4 -10    6.92    0.71
   4  -4 -10   16.67    1.07
   3  -4 -10   74.32    2.65
   2  -4 -10   66.79    2.48
  -2   4  10   69.78    2.57
   1  -4 -10  108.33    3.55
  -1   4  10  113.45    3.34
   0  -4 -10    1.20    0.36
   0  -4 -10    1.10    0.35
   0   4  10    0.87    0.27
  -1  -4 -10   85.38    2.97
   1   4  10   86.84    2.96
   1   4  10   87.14    2.87
  -2  -4 -10    4.94    0.61
   2   4  10    4.48    0.63
   2   4  10    5.13    0.61
  -3  -4 -10   26.50    1.33
   3   4  10   26.83    1.48
   3   4  10   24.58    1.35
  -4  -4 -10   15.38    1.00
   4   4  10   17.31    1.22
   4   4  10   17.13    1.12
   5   4  10    4.42    0.73
   5   4  10    3.82    0.62
   4  -5 -10    0.90    0.35
   3  -5 -10  127.31    4.01
   2  -5 -10   11.58    0.90
   1  -5 -10  108.22    3.52
   0  -5 -10    3.56    0.57
   0   5  10    3.54    0.47
  -1  -5 -10   29.97    1.52
   1   5  10   32.03    1.47
  -2  -5 -10   13.40    0.96
   2   5  10   14.43    0.98
   2   5  10   10.79    0.94
   3   5  10    2.64    0.56
   3   5  10    1.87    0.47
  -4  -5 -10    5.90    0.63
   4   5  10    4.61    0.71
   4   5  10    6.24    0.72
   5   5  10    4.54    0.74
   5   5  10    4.09    0.63
   4  -6 -10   12.45    0.98
   3  -6 -10   43.99    1.95
   2  -6 -10    7.64    0.78
   1  -6 -10    7.03    0.74
   0  -6 -10   62.67    2.46
   0   6  10   66.41    2.43
  -1  -6 -10    1.72    0.47
  -1  -6 -10    1.97    0.48
   1   6  10    1.88    0.44
  -2  -6 -10  120.07    3.76
   2   6  10  109.71    3.66
   3   6  10    0.98    0.35
   3   6  10    0.64    0.35
   4   6  10   34.77    1.83
   4   6  10   38.49    1.82
   5   6  10    6.44    0.76
   3  -7 -10    4.54    0.66
   2  -7 -10    3.70    0.60
   1  -7 -10    3.41    0.58
   0  -7 -10   27.96    1.51
  -1  -7 -10   56.36    2.32
  -1  -7 -10   56.98    2.32
   1   7  10   58.45    2.24
  -2  -7 -10   66.04    2.54
   2   7  10   65.39    2.51
   3   7  10    4.70    0.66
   4   7  10    2.67    0.62
   4   7  10    2.62    0.57
   2  -8 -10   46.76    2.11
   1  -8 -10    0.06    0.27
   0  -8 -10   61.73    2.49
  -1  -8 -10    0.20    0.28
   1   8  10    0.60    0.30
   2   8  10   19.73    1.26
   3   8  10    8.56    0.87
   0  -9 -10    5.41    0.74
  -1  -9 -10    4.08    0.68
   0   5 -11   28.73    1.68
   0  -5  11   27.77    1.49
   2   4 -11    8.55    0.90
   1   4 -11   51.78    2.29
  -1  -4  11   47.76    1.93
   0   4 -11    3.72    0.65
   0  -4  11    3.87    0.58
  -1   4 -11    0.69    0.37
   1  -4  11    0.68    0.36
  -2   4 -11   29.26    1.60
   2  -4  11   25.77    1.47
   2  -4  11   24.84    1.44
   3   3 -11   -0.03    0.23
   2   3 -11   12.28    1.03
   1   3 -11    0.29    0.28
   0   3 -11   16.24    1.18
   0  -3  11   16.00    1.00
   0  -3  11   18.08    1.13
  -1   3 -11   20.47    1.33
   1  -3  11   19.73    1.19
  -2   3 -11  156.08    4.81
   2  -3  11  156.87    4.64
   2  -3  11  145.05    4.64
   3  -3  11   48.12    2.19
   3  -3  11   47.81    2.14
   4   2 -11   21.37    1.31
  -4  -2  11   23.09    1.66
   3   2 -11    0.29    0.26
   2   2 -11   14.82    1.10
   1   2 -11   11.44    0.97
  -1  -2  11   13.09    0.84
   0   2 -11    1.11    0.41
   0  -2  11    0.71    0.31
   0  -2  11    0.20    0.23
  -1   2 -11   37.66    1.85
   1  -2  11   40.41    1.87
   1  -2  11   40.18    1.75
   1  -2  11   39.97    1.74
  -2   2 -11   26.51    1.47
   2  -2  11   23.92    1.36
   2  -2  11   24.58    1.40
   3  -2  11   16.04    1.17
   3  -2  11   12.54    1.02
   4  -2  11   36.70    1.83
   4  -2  11   37.10    1.95
   4   1 -11   42.75    1.92
  -4  -1  11   42.55    2.31
   3   1 -11   50.05    2.11
   2   1 -11   34.42    1.69
   1   1 -11   60.95    2.45
  -1  -1  11   62.77    2.17
   0   1 -11  147.77    4.60
   0  -1  11  148.15    4.24
   0  -1  11  147.89    4.48
  -1   1 -11   19.45    1.25
   1  -1  11   19.73    1.23
   1  -1  11   18.26    1.14
   1  -1  11   18.46    1.10
  -2   1 -11   35.56    1.75
   2  -1  11   36.54    1.69
   2  -1  11   36.55    1.73
   3  -1  11    0.10    0.29
   3  -1  11    1.03    0.37
  -4   1 -11   29.28    1.74
   4  -1  11   29.96    1.72
   4  -1  11   29.55    1.61
   4   0 -11   14.82    1.08
  -4   0  11   17.05    1.39
   3   0 -11   11.94    0.97
  -3   0  11   11.75    1.08
   2   0 -11   17.49    1.13
   1   0 -11   79.72    2.89
   0   0 -11   50.77    2.20
   0   0  11   57.77    2.11
  -1   0 -11   40.47    1.88
   1   0  11   39.23    1.71
   1   0  11   42.49    1.90
   1   0  11   44.59    1.86
  -2   0 -11    0.47    0.29
   2   0  11    0.71    0.36
   2   0  11    1.49    0.43
   3   0  11   15.49    1.18
   3   0  11   16.52    1.12
  -4   0 -11   54.03    2.33
   4   0  11   50.96    2.35
   4   0  11   51.75    2.23
   4  -1 -11   77.59    2.83
   4  -1 -11   77.47    2.80
  -4   1  11   82.00    3.25
   3  -1 -11    0.45    0.27
  -3   1  11    0.40    0.31
   2  -1 -11   77.55    2.82
   1  -1 -11   38.15    1.78
   0  -1 -11    7.13    0.76
   0   1  11    6.62    0.68
  -1  -1 -11   26.11    1.46
   1   1  11   28.31    1.37
   1   1  11   28.72    1.44
  -2  -1 -11   17.13    1.12
   2   1  11   14.38    1.08
   2   1  11   15.91    1.05
   3   1  11   34.69    1.76
   3   1  11   34.75    1.68
   4   1  11   16.29    1.15
   4   1  11   15.97    1.25
   5   1  11    6.49    0.89
   5   1  11    8.41    0.88
   4  -2 -11    0.25    0.28
  -4   2  11    1.11    0.46
   3  -2 -11   17.37    1.14
   3  -2 -11   15.27    1.09
  -3   2  11   17.73    1.23
   2  -2 -11   14.64    1.05
   2  -2 -11   14.79    1.04
   1  -2 -11   16.73    1.13
   0  -2 -11   47.68    2.04
   0   2  11   48.64    1.98
  -1  -2 -11   49.46    2.11
   1   2  11   49.98    2.07
   1   2  11   53.56    2.03
  -2  -2 -11   72.04    2.66
   2   2  11   68.77    2.55
   2   2  11   70.54    2.66
   3   2  11  109.31    3.63
   3   2  11  113.32    3.76
   4   2  11   51.09    2.29
   4   2  11   48.33    2.14
   5   2  11   34.81    1.93
   5   2  11   35.61    1.81
   4  -3 -11   10.25    0.87
   3  -3 -11   31.57    1.58
   2  -3 -11   39.31    1.84
   2  -3 -11   43.51    1.91
  -2   3  11   39.50    1.77
   1  -3 -11    7.74    0.77
   1  -3 -11    7.90    0.79
   0  -3 -11    5.42    0.69
  -1  -3 -11   24.24    1.39
   1   3  11   25.81    1.42
   1   3  11   27.81    1.35
  -2  -3 -11   10.34    0.89
   2   3  11    9.24    0.88
   2   3  11   10.55    0.86
   3   3  11    7.83    0.88
   3   3  11    8.89    0.83
   4   3  11   27.22    1.50
   4   3  11   27.34    1.64
   4  -4 -11   21.44    1.29
   3  -4 -11   79.36    2.87
   2  -4 -11   99.47    3.39
   1  -4 -11   94.30    3.33
   1  -4 -11   98.44    3.34
   0  -4 -11   20.32    1.27
  -1  -4 -11   16.61    1.12
   1   4  11   13.62    0.95
  -2  -4 -11   18.34    1.19
   2   4  11   19.73    1.28
   2   4  11   18.64    1.17
   3   4  11    1.82    0.52
   3   4  11    2.75    0.54
   4   4  11    4.65    0.76
   4   4  11    3.99    0.65
   3  -5 -11    0.21    0.23
   2  -5 -11   34.33    1.71
   1  -5 -11   -0.12    0.22
   0  -5 -11   13.32    1.05
   0  -5 -11   14.95    1.07
  -1  -5 -11    3.80    0.62
   1   5  11    5.70    0.64
  -2  -5 -11   16.90    1.13
   2   5  11   16.22    1.11
   2   5  11   17.42    1.22
   3   5  11   78.42    2.88
   3   5  11   77.10    2.96
   4   5  11   33.69    1.85
   4   5  11   33.27    1.72
   3  -6 -11    2.93    0.59
   2  -6 -11    1.43    0.43
   1  -6 -11    4.12    0.65
   0  -6 -11    1.76    0.49
   0  -6 -11    0.87    0.35
  -1  -6 -11   44.98    2.06
   1   6  11   48.04    1.97
  -2  -6 -11   14.62    1.08
   2   6  11   15.95    1.10
   3   6  11   14.36    1.17
   3   6  11   13.73    1.06
   2  -7 -11   19.67    1.32
   1  -7 -11   42.88    2.02
   0  -7 -11   31.75    1.71
  -1  -7 -11  158.69    4.99
  -1  -7 -11  162.27    4.99
   2   7  11   39.88    1.87
   0   3 -12    0.39    0.34
   0  -3  12    0.72    0.32
   2   2 -12    3.72    0.67
   1   2 -12   10.13    0.98
   0   2 -12    1.13    0.42
   0  -2  12    1.33    0.42
   0  -2  12    1.57    0.44
  -1   2 -12   42.93    2.09
   1  -2  12   44.51    1.95
  -2   2 -12    6.26    0.81
   2  -2  12    8.02    0.85
   2  -2  12    8.66    0.86
   2   1 -12    4.17    0.67
   1   1 -12    1.26    0.44
   0   1 -12    5.23    0.73
   0  -1  12    5.64    0.67
  -1   1 -12    0.60    0.34
   1  -1  12    0.26    0.30
  -2   1 -12    0.42    0.32
   2  -1  12    0.87    0.38
   2  -1  12    1.25    0.45
   3  -1  12    3.31    0.60
   3  -1  12    2.19    0.61
   3   0 -12   13.52    1.08
  -3   0  12   15.04    1.28
   2   0 -12   -0.26    0.19
   1   0 -12   39.61    1.94
   0   0 -12   47.72    2.17
   0   0  12   47.17    1.97
  -1   0 -12   12.16    1.04
   1   0  12   11.91    1.03
   1   0  12   12.42    0.98
  -2   0 -12   12.78    1.04
   2   0  12   12.77    0.98
   2   0  12   10.57    0.99
   3   0  12    4.56    0.68
   3   0  12    5.23    0.75
   3  -1 -12   12.31    1.02
  -3   1  12    9.36    0.99
   2  -1 -12    5.07    0.72
   1  -1 -12    1.88    0.52
   0  -1 -12   76.32    2.94
   0   1  12   78.65    2.76
  -1  -1 -12    7.79    0.86
   1   1  12    7.75    0.82
  -2  -1 -12   72.19    2.79
   2   1  12   71.74    2.70
   2   1  12   76.68    2.83
   3   1  12   -0.09    0.25
   3   1  12    0.22    0.32
   3  -2 -12    0.14    0.26
  -3   2  12    0.29    0.35
   2  -2 -12   16.43    1.18
  -2   2  12   14.66    1.16
   1  -2 -12    0.09    0.25
   0  -2 -12    8.22    0.86
  -1  -2 -12   11.54    1.01
   1   2  12   11.05    0.95
  -2  -2 -12   23.49    1.39
   2   2  12   25.12    1.46
   2   2  12   21.18    1.29
   3   2  12   -0.21    0.20
   3   2  12   -0.01    0.31
   3  -3 -12    1.11    0.39
   2  -3 -12   89.17    3.24
   2  -3 -12   87.81    3.21
   1  -3 -12    4.97    0.71
   0  -3 -12   30.00    1.63
  -1  -3 -12    4.24    0.68
   1   3  12    3.86    0.63
  -2  -3 -12   41.39    1.93
   2   3  12   40.25    1.83
   2   3  12   36.11    1.87
   3   3  12   20.65    1.42
   3   3  12   24.24    1.42
   2  -4 -12   24.98    1.50
   2  -4 -12   25.96    1.54
   1  -4 -12    0.39    0.31
   0  -4 -12    0.56    0.35
  -1  -4 -12   11.36    1.00
  -2  -4 -12    1.26    0.44
   2   4  12    3.01    0.63
   2   4  12    2.23    0.53
   3   4  12   64.44    2.58
   3   4  12   62.76    2.66
   1  -5 -12   29.96    1.69
   1  -5 -12   34.94    1.78
   0  -5 -12   10.68    0.99
  -1  -5 -12   64.73    2.63
  -2  -5 -12    3.00    0.61
   2   5  12    2.66    0.55
   0  -6 -12    2.80    0.62
   0  -6 -12    2.73    0.61
  -1  -6 -12   85.04    3.20
   0   0   0    0.00    0.00
;
_shelx_hkl_checksum              70763
loop_
_space_group_symop_operation_xyz
'x, y, z'
'-x, -y, -z'
loop_
_atom_site_label
_atom_site_type_symbol
_atom_site_fract_x
_atom_site_fract_y
_atom_site_fract_z
_atom_site_U_iso_or_equiv
_atom_site_adp_type
_atom_site_occupancy
_atom_site_site_symmetry_order
_atom_site_calc_flag
_atom_site_refinement_flags_posn
_atom_site_refinement_flags_adp
_atom_site_refinement_flags_occupancy
C1 C 0.1658(3) 0.3109(2) 0.2363(2) 0.0094(5) Uani 1 1 d . . .
C2 C 0.4955(3) 0.2499(2) 0.2376(2) 0.0093(5) Uani 1 1 d . . .
C3 C 0.3701(3) -0.2062(2) 0.2519(2) 0.0096(5) Uani 1 1 d . . .
C4 C 0.0450(3) -0.1489(2) 0.2265(2) 0.0089(5) Uani 1 1 d . . .
C5 C 0.3590(3) 0.3769(2) 0.4044(2) 0.0115(5) Uani 1 1 d . . .
H5A H 0.2533 0.3906 0.4564 0.017 Uiso 1 1 calc R U .
H5B H 0.3834 0.4582 0.3500 0.017 Uiso 1 1 calc R U .
H5C H 0.4599 0.3506 0.4585 0.017 Uiso 1 1 calc R U .
C6 C 0.3284(3) 0.2698(2) 0.3239(2) 0.0088(5) Uani 1 1 d . . .
C7 C 0.2911(3) 0.1397(2) 0.4045(2) 0.0075(5) Uani 1 1 d . . .
C8 C 0.2924(3) 0.1240(3) 0.5350(2) 0.0096(5) Uani 1 1 d . . .
H8 H 0.3195 0.1944 0.5784 0.012 Uiso 1 1 calc R U .
C9 C 0.2537(3) 0.0039(3) 0.6002(2) 0.0111(5) Uani 1 1 d . . .
H9 H 0.2546 -0.0087 0.6892 0.013 Uiso 1 1 calc R U .
C10 C 0.2135(3) -0.0984(2) 0.5363(2) 0.0102(5) Uani 1 1 d . . .
H10 H 0.1838 -0.1805 0.5807 0.012 Uiso 1 1 calc R U .
C11 C 0.2177(3) -0.0780(2) 0.4063(2) 0.0071(5) Uani 1 1 d . . .
C12 C 0.1904(3) -0.1878(2) 0.3265(2) 0.0082(5) Uani 1 1 d . . .
C13 C 0.1456(3) -0.3150(2) 0.4077(2) 0.0105(5) Uani 1 1 d . . .
H13A H 0.2414 -0.3421 0.4663 0.016 Uiso 1 1 calc R U .
H13B H 0.1314 -0.3830 0.3540 0.016 Uiso 1 1 calc R U .
H13C H 0.0354 -0.3015 0.4550 0.016 Uiso 1 1 calc R U .
N1 N 0.2567(3) 0.0389(2) 0.34346(19) 0.0070(4) Uani 1 1 d . . .
O1 O 0.1303(2) 0.23589(17) 0.15699(17) 0.0112(4) Uani 1 1 d . . .
O2 O 0.4911(2) 0.16391(17) 0.16316(17) 0.0110(4) Uani 1 1 d . . .
O3 O 0.4022(2) -0.11618(17) 0.16099(17) 0.0113(4) Uani 1 1 d . . .
O4 O 0.0509(2) -0.03910(17) 0.15744(16) 0.0103(4) Uani 1 1 d . . .
O5 O 0.0827(3) 0.41499(18) 0.24799(19) 0.0163(4) Uani 1 1 d . . .
O6 O 0.6238(2) 0.31697(18) 0.24577(18) 0.0135(4) Uani 1 1 d . . .
O7 O 0.4679(3) -0.30170(18) 0.2852(2) 0.0187(4) Uani 1 1 d . . .
O8 O -0.0681(2) -0.22881(18) 0.21451(18) 0.0153(4) Uani 1 1 d . . .
O9 O 0.2900(2) 0.08650(18) -0.03861(16) 0.0116(4) Uani 1 1 d . . .
H9X H 0.2141 0.1301 -0.0768 0.014 Uiso 1 1 d R U .
H9Y H 0.3844 0.1006 -0.0704 0.014 Uiso 1 1 d R U .
O10 O 0.6301(5) 0.6063(4) 0.0429(3) 0.0727(10) Uani 1 1 d . . .
O11 O -0.2630(5) 0.4139(4) -0.0582(5) 0.0623(18) Uani 0.711(8) 1 d . . P
O11A O -0.1111(10) 0.4273(7) -0.0208(7) 0.026(3) Uani 0.289(8) 1 d . . P
K1 K -0.17784(7) 0.17051(6) 0.05872(5) 0.01300(14) Uani 1 1 d . . .
K2 K 0.76302(13) 0.54405(9) 0.2727(2) 0.0150(5) Uani 0.634(6) 1 d . . P
K2A K 0.7645(2) 0.54681(18) 0.1932(5) 0.0234(11) Uani 0.366(6) 1 d . . P
Ni1 Ni 0.27157(4) 0.06399(3) 0.15485(3) 0.00627(10) Uani 1 1 d . . .
loop_
_atom_site_aniso_label
_atom_site_aniso_U_11
_atom_site_aniso_U_22
_atom_site_aniso_U_33
_atom_site_aniso_U_23
_atom_site_aniso_U_13
_atom_site_aniso_U_12
C1 0.0070(12) 0.0089(12) 0.0116(13) 0.0014(10) 0.0007(10) -0.0010(10)
C2 0.0088(13) 0.0084(12) 0.0095(12) 0.0035(10) -0.0020(10) 0.0011(10)
C3 0.0082(12) 0.0088(12) 0.0129(13) -0.0042(10) -0.0016(10) -0.0020(10)
C4 0.0072(12) 0.0106(12) 0.0091(12) -0.0035(10) 0.0021(10) 0.0019(10)
C5 0.0126(13) 0.0081(12) 0.0144(13) -0.0025(10) -0.0004(10) -0.0016(10)
C6 0.0086(12) 0.0066(12) 0.0114(13) -0.0014(10) -0.0012(10) -0.0006(10)
C7 0.0032(12) 0.0085(12) 0.0105(12) -0.0007(10) 0.0003(9) 0.0007(9)
C8 0.0065(12) 0.0108(13) 0.0121(13) -0.0039(10) -0.0014(10) 0.0011(10)
C9 0.0103(13) 0.0142(13) 0.0083(12) -0.0007(10) -0.0001(10) 0.0032(10)
C10 0.0080(12) 0.0090(12) 0.0125(13) 0.0015(10) 0.0002(10) 0.0013(10)
C11 0.0029(12) 0.0070(12) 0.0113(13) -0.0008(10) 0.0000(9) 0.0012(9)
C12 0.0081(12) 0.0065(12) 0.0101(12) -0.0012(10) -0.0012(10) 0.0000(9)
C13 0.0102(13) 0.0075(12) 0.0133(13) 0.0009(10) -0.0002(10) -0.0010(10)
N1 0.0034(10) 0.0076(10) 0.0098(11) -0.0013(8) -0.0010(8) 0.0005(8)
O1 0.0103(9) 0.0104(9) 0.0130(9) -0.0014(7) -0.0030(7) 0.0006(7)
O2 0.0101(9) 0.0111(9) 0.0122(9) -0.0024(7) 0.0006(7) -0.0025(7)
O3 0.0111(9) 0.0096(9) 0.0127(9) 0.0000(7) 0.0032(7) 0.0002(7)
O4 0.0089(9) 0.0101(9) 0.0116(9) 0.0001(7) -0.0009(7) -0.0017(7)
O5 0.0141(10) 0.0112(10) 0.0241(11) -0.0048(8) -0.0046(8) 0.0044(8)
O6 0.0097(9) 0.0131(9) 0.0179(10) -0.0017(8) -0.0005(7) -0.0047(7)
O7 0.0121(10) 0.0113(10) 0.0302(12) 0.0034(8) 0.0030(8) 0.0043(8)
O8 0.0131(10) 0.0114(9) 0.0215(10) -0.0001(8) -0.0055(8) -0.0044(8)
O9 0.0062(9) 0.0184(10) 0.0099(9) -0.0003(7) -0.0002(7) 0.0002(7)
O10 0.088(3) 0.062(2) 0.062(2) 0.0070(18) 0.0078(19) 0.008(2)
O11 0.036(3) 0.050(3) 0.084(3) 0.045(2) 0.015(2) 0.0138(19)
O11A 0.027(5) 0.021(4) 0.027(4) 0.005(3) -0.002(3) 0.002(3)
K1 0.0116(3) 0.0145(3) 0.0129(3) -0.0018(2) -0.0001(2) -0.0005(2)
K2 0.0110(5) 0.0096(5) 0.0243(14) -0.0023(4) 0.0003(4) -0.0007(3)
K2A 0.0168(10) 0.0139(9) 0.040(3) -0.0030(9) -0.0034(9) -0.0038(7)
Ni1 0.00620(17) 0.00609(17) 0.00648(17) -0.00041(12) -0.00042(12) -0.00100(12)
loop_
_atom_type_symbol
_atom_type_description
_atom_type_scat_dispersion_real
_atom_type_scat_dispersion_imag
_atom_type_scat_source
C C 0.0033 0.0016 'International Tables Vol C Tables 4.2.6.8 and 6.1.1.4'
H H 0.0000 0.0000 'International Tables Vol C Tables 4.2.6.8 and 6.1.1.4'
N N 0.0061 0.0033 'International Tables Vol C Tables 4.2.6.8 and 6.1.1.4'
O O 0.0106 0.0060 'International Tables Vol C Tables 4.2.6.8 and 6.1.1.4'
K K 0.2009 0.2494 'International Tables Vol C Tables 4.2.6.8 and 6.1.1.4'
Ni Ni 0.3393 1.1124 'International Tables Vol C Tables 4.2.6.8 and 6.1.1.4'
loop_
_geom_angle_atom_site_label_1
_geom_angle_atom_site_label_2
_geom_angle_atom_site_label_3
_geom_angle
_geom_angle_site_symmetry_1
_geom_angle_site_symmetry_3
O5 C1 O1 124.2(2) . .
O5 C1 C6 118.0(2) . .
O1 C1 C6 117.8(2) . .
O6 C2 O2 123.5(2) . .
O6 C2 C6 118.7(2) . .
O2 C2 C6 117.8(2) . .
O6 C2 K1 68.25(14) . 1_655
O2 C2 K1 55.37(13) . 1_655
C6 C2 K1 172.42(17) . 1_655
O7 C3 O3 125.4(2) . .
O7 C3 C12 118.8(2) . .
O3 C3 C12 115.8(2) . .
O8 C4 O4 122.6(2) . .
O8 C4 C12 118.4(2) . .
O4 C4 C12 119.0(2) . .
O8 C4 K1 88.55(15) . 2
O4 C4 K1 66.31(13) . 2
C12 C4 K1 114.12(15) . 2
C6 C5 H5A 109.5 . .
C6 C5 H5B 109.5 . .
H5A C5 H5B 109.5 . .
C6 C5 H5C 109.5 . .
H5A C5 H5C 109.5 . .
H5B C5 H5C 109.5 . .
C5 C6 C7 111.7(2) . .
C5 C6 C2 109.7(2) . .
C7 C6 C2 109.0(2) . .
C5 C6 C1 110.0(2) . .
C7 C6 C1 108.44(19) . .
C2 C6 C1 107.9(2) . .
N1 C7 C8 120.4(2) . .
N1 C7 C6 117.0(2) . .
C8 C7 C6 122.6(2) . .
C9 C8 C7 118.7(2) . .
C9 C8 H8 120.7 . .
C7 C8 H8 120.7 . .
C8 C9 C10 120.4(2) . .
C8 C9 H9 119.8 . .
C10 C9 H9 119.8 . .
C11 C10 C9 118.4(2) . .
C11 C10 H10 120.8 . .
C9 C10 H10 120.8 . .
N1 C11 C10 120.8(2) . .
N1 C11 C12 116.5(2) . .
C10 C11 C12 122.6(2) . .
C13 C12 C11 111.7(2) . .
C13 C12 C4 109.9(2) . .
C11 C12 C4 112.1(2) . .
C13 C12 C3 110.3(2) . .
C11 C12 C3 105.93(19) . .
C4 C12 C3 106.73(19) . .
C12 C13 H13A 109.5 . .
C12 C13 H13B 109.5 . .
H13A C13 H13B 109.5 . .
C12 C13 H13C 109.5 . .
H13A C13 H13C 109.5 . .
H13B C13 H13C 109.5 . .
C7 N1 C11 121.2(2) . .
C7 N1 Ni1 118.71(16) . .
C11 N1 Ni1 120.04(17) . .
C1 O1 Ni1 119.57(16) . .
C1 O1 K1 133.70(16) . .
Ni1 O1 K1 99.09(7) . .
C2 O2 Ni1 119.91(16) . .
C2 O2 K1 101.91(15) . 1_655
Ni1 O2 K1 138.15(8) . 1_655
C3 O3 Ni1 119.67(16) . .
C3 O3 K1 106.13(15) . 2
Ni1 O3 K1 88.70(6) . 2
C4 O4 Ni1 119.18(16) . .
C4 O4 K1 139.70(15) . .
Ni1 O4 K1 96.87(7) . .
C4 O4 K1 90.54(14) . 2
Ni1 O4 K1 92.65(6) . 2
K1 O4 K1 106.15(6) . 2
C1 O5 K2 148.06(17) . 1_455
C1 O5 K2A 141.84(18) . 1_455
K2 O5 K2A 17.88(7) 1_455 1_455
C2 O6 K2A 147.58(18) . .
C2 O6 K2 151.25(17) . .
K2A O6 K2 18.44(7) . .
C2 O6 K1 89.33(15) . 1_655
K2A O6 K1 99.99(11) . 1_655
K2 O6 K1 113.47(7) . 1_655
C3 O7 K2 154.49(18) . 1_545
C3 O7 K2A 140.6(2) . 1_545
K2 O7 K2A 16.98(6) 1_545 1_545
C4 O8 K2 155.44(17) . 1_445
C4 O8 K2A 163.71(17) . 1_445
K2 O8 K2A 17.96(7) 1_445 1_445
Ni1 O9 K1 94.60(7) . 2
Ni1 O9 H9X 117.7 . .
K1 O9 H9X 100.4 2 .
Ni1 O9 H9Y 117.5 . .
K1 O9 H9Y 113.3 2 .
H9X O9 H9Y 110.7 . .
K2A O10 K2 10.87(10) . .
O11A O11 K1 78.1(4) . .
O11A O11 K2A 63.1(4) . 1_455
K1 O11 K2A 93.50(14) . 1_455
O11 O11A K1 75.4(4) . .
O11 O11A K2A 94.0(5) . 1_455
K1 O11A K2A 100.8(2) . 1_455
O11 O11A K2A 125.4(5) . 2_665
K1 O11A K2A 111.5(3) . 2_665
K2A O11A K2A 133.5(3) 1_455 2_665
O11 K1 O2 88.55(9) . 1_455
O11 K1 O1 95.60(11) . .
O2 K1 O1 129.24(6) 1_455 .
O11 K1 O11A 26.50(18) . .
O2 K1 O11A 107.59(17) 1_455 .
O1 K1 O11A 69.33(17) . .
O11 K1 O4 155.83(10) . .
O2 K1 O4 113.89(5) 1_455 .
O1 K1 O4 63.69(5) . .
O11A K1 O4 130.34(17) . .
O11 K1 O9 134.73(12) . 2
O2 K1 O9 75.20(5) 1_455 2
O1 K1 O9 127.50(5) . 2
O11A K1 O9 156.80(17) . 2
O4 K1 O9 63.83(5) . 2
O11 K1 O4 100.77(12) . 2
O2 K1 O4 126.17(5) 1_455 2
O1 K1 O4 102.71(5) . 2
O11A K1 O4 102.60(17) . 2
O4 K1 O4 73.85(6) . 2
O9 K1 O4 60.75(5) 2 2
O11 K1 O6 72.46(11) . 1_455
O2 K1 O6 45.13(5) 1_455 1_455
O1 K1 O6 88.23(5) . 1_455
O11A K1 O6 76.03(17) . 1_455
O4 K1 O6 116.49(5) . 1_455
O9 K1 O6 116.57(5) 2 1_455
O4 K1 O6 167.81(5) 2 1_455
O11 K1 O3 77.13(13) . 2
O2 K1 O3 77.75(5) 1_455 2
O1 K1 O3 152.34(6) . 2
O11A K1 O3 99.16(17) . 2
O4 K1 O3 114.98(5) . 2
O9 K1 O3 58.36(5) 2 2
O4 K1 O3 53.92(5) 2 2
O6 K1 O3 114.05(5) 1_455 2
O11 K1 C2 80.31(10) . 1_455
O2 K1 C2 22.72(6) 1_455 1_455
O1 K1 C2 108.64(6) . 1_455
O11A K1 C2 92.20(17) . 1_455
O4 K1 C2 116.85(6) . 1_455
O9 K1 C2 95.86(6) 2 1_455
O4 K1 C2 148.40(6) 2 1_455
O6 K1 C2 22.42(6) 1_455 1_455
O3 K1 C2 96.54(6) 2 1_455
O11 K1 C4 78.20(12) . 2
O2 K1 C4 130.28(6) 1_455 2
O1 K1 C4 99.88(6) . 2
O11A K1 C4 80.12(17) . 2
O4 K1 C4 92.58(6) . 2
O9 K1 C4 80.98(6) 2 2
O4 K1 C4 23.15(6) 2 2
O6 K1 C4 150.19(6) 1_455 2
O3 K1 C4 52.65(6) 2 2
C2 K1 C4 145.66(6) 1_455 2
O11 K1 Ni1 123.02(10) . .
O2 K1 Ni1 137.35(4) 1_455 .
O1 K1 Ni1 33.22(4) . .
O11A K1 Ni1 97.05(16) . .
O4 K1 Ni1 33.30(4) . .
O9 K1 Ni1 95.36(4) 2 .
O4 K1 Ni1 79.14(4) 2 .
O6 K1 Ni1 113.04(4) 1_455 .
O3 K1 Ni1 132.58(4) 2 .
C2 K1 Ni1 127.03(5) 1_455 .
C4 K1 Ni1 87.26(5) 2 .
K2A K2 O6 78.30(16) . .
K2A K2 O10 25.52(17) . .
O6 K2 O10 80.42(11) . .
K2A K2 O7 95.65(17) . 1_565
O6 K2 O7 100.69(7) . 1_565
O10 K2 O7 70.35(10) . 1_565
K2A K2 O8 82.20(16) . 1_665
O6 K2 O8 160.04(12) . 1_665
O10 K2 O8 83.85(11) . 1_665
O7 K2 O8 85.37(6) 1_565 1_665
K2A K2 O5 82.28(16) . 1_655
O6 K2 O5 85.56(6) . 1_655
O10 K2 O5 107.80(12) . 1_655
O7 K2 O5 172.92(8) 1_565 1_655
O8 K2 O5 87.64(6) 1_665 1_655
K2A K2 K1 55.58(14) . 1_655
O6 K2 K1 35.44(5) . 1_655
O10 K2 K1 71.29(9) . 1_655
O7 K2 K1 125.46(7) 1_565 1_655
O8 K2 K1 126.80(8) 1_665 1_655
O5 K2 K1 58.68(5) 1_655 1_655
K2 K2A O10 143.6(2) . .
K2 K2A O6 83.26(19) . .
O10 K2A O6 96.76(16) . .
K2 K2A O8 79.84(18) . 1_665
O10 K2A O8 99.37(16) . 1_665
O6 K2A O8 162.6(2) . 1_665
K2 K2A O5 79.84(18) . 1_655
O10 K2A O5 136.5(2) . 1_655
O6 K2A O5 85.91(8) . 1_655
O8 K2A O5 86.91(8) 1_665 1_655
K2 K2A O11A 147.2(2) . 1_655
O10 K2A O11A 66.9(2) . 1_655
O6 K2A O11A 80.02(18) . 1_655
O8 K2A O11A 112.5(2) 1_665 1_655
O5 K2A O11A 70.98(17) 1_655 1_655
K2 K2A O7 67.37(18) . 1_565
O10 K2A O7 76.52(13) . 1_565
O6 K2A O7 96.35(10) . 1_565
O8 K2A O7 81.11(9) 1_665 1_565
O5 K2A O7 146.5(2) 1_655 1_565
O11A K2A O7 142.4(2) 1_655 1_565
K2 K2A O11A 124.3(2) . 2_665
O10 K2A O11A 87.4(2) . 2_665
O6 K2A O11A 119.30(18) . 2_665
O8 K2A O11A 68.21(16) 1_665 2_665
O5 K2A O11A 54.96(14) 1_655 2_665
O11A K2A O11A 46.5(3) 1_655 2_665
O7 K2A O11A 142.52(16) 1_565 2_665
K2 K2A O11 152.38(19) . 1_655
O10 K2A O11 50.63(17) . 1_655
O6 K2A O11 70.00(11) . 1_655
O8 K2A O11 126.05(18) 1_665 1_655
O5 K2A O11 91.15(12) 1_655 1_655
O11A K2A O11 22.87(17) 1_655 1_655
O7 K2A O11 121.08(13) 1_565 1_655
O11A K2A O11 67.05(19) 2_665 1_655
K2 K2A K1 115.07(17) . 1_655
O10 K2A K1 86.85(17) . 1_655
O6 K2A K1 43.13(6) . 1_655
O8 K2A K1 144.28(11) 1_665 1_655
O5 K2A K1 65.83(6) 1_655 1_655
O11A K2A K1 38.51(15) 1_655 1_655
O7 K2A K1 134.20(7) 1_565 1_655
O11A K2A K1 77.05(16) 2_665 1_655
O11 K2A K1 38.73(7) 1_655 1_655
K2 K2A K1 118.90(16) . 2_665
O10 K2A K1 77.86(16) . 2_665
O6 K2A K1 149.38(14) . 2_665
O8 K2A K1 42.78(7) 1_665 2_665
O5 K2A K1 78.39(7) 1_655 2_665
O11A K2A K1 70.08(17) 1_655 2_665
O7 K2A K1 111.24(7) 1_565 2_665
O11A K2A K1 31.42(14) 2_665 2_665
O11 K2A K1 84.07(12) 1_655 2_665
K1 K2A K1 106.26(9) 1_655 2_665
N1 Ni1 O2 88.94(8) . .
N1 Ni1 O4 87.76(8) . .
O2 Ni1 O4 176.68(7) . .
N1 Ni1 O1 88.11(8) . .
O2 Ni1 O1 87.60(7) . .
O4 Ni1 O1 92.68(7) . .
N1 Ni1 O3 89.34(8) . .
O2 Ni1 O3 95.28(7) . .
O4 Ni1 O3 84.29(7) . .
O1 Ni1 O3 176.12(7) . .
N1 Ni1 O9 178.89(8) . .
O2 Ni1 O9 91.00(7) . .
O4 Ni1 O9 92.28(7) . .
O1 Ni1 O9 93.00(7) . .
O3 Ni1 O9 89.56(7) . .
N1 Ni1 K1 104.30(6) . .
O2 Ni1 K1 131.65(5) . .
O4 Ni1 K1 49.83(5) . .
O1 Ni1 K1 47.69(5) . .
O3 Ni1 K1 130.41(5) . .
O9 Ni1 K1 76.56(5) . .
N1 Ni1 K1 128.10(6) . 2
O2 Ni1 K1 128.49(5) . 2
O4 Ni1 K1 53.85(5) . 2
O1 Ni1 K1 122.72(5) . 2
O3 Ni1 K1 57.12(5) . 2
O9 Ni1 K1 51.24(5) . 2
K1 Ni1 K1 78.226(15) . 2
loop_
_geom_bond_atom_site_label_1
_geom_bond_atom_site_label_2
_geom_bond_distance
_geom_bond_site_symmetry_2
C1 O5 1.240(3) .
C1 O1 1.270(3) .
C1 C6 1.579(3) .
C2 O6 1.234(3) .
C2 O2 1.277(3) .
C2 C6 1.571(4) .
C2 K1 3.235(3) 1_655
C3 O7 1.224(3) .
C3 O3 1.283(3) .
C3 C12 1.578(4) .
C4 O8 1.241(3) .
C4 O4 1.272(3) .
C4 C12 1.562(3) .
C4 K1 3.235(3) 2
C5 C6 1.525(3) .
C5 H5A 0.9800 .
C5 H5B 0.9800 .
C5 H5C 0.9800 .
C6 C7 1.533(3) .
C7 N1 1.344(3) .
C7 C8 1.392(4) .
C8 C9 1.382(4) .
C8 H8 0.9500 .
C9 C10 1.387(4) .
C9 H9 0.9500 .
C10 C11 1.386(4) .
C10 H10 0.9500 .
C11 N1 1.345(3) .
C11 C12 1.538(3) .
C12 C13 1.525(3) .
C13 H13A 0.9800 .
C13 H13B 0.9800 .
C13 H13C 0.9800 .
N1 Ni1 2.011(2) .
O1 Ni1 2.0315(18) .
O1 K1 2.7425(18) .
O2 Ni1 2.0122(18) .
O2 K1 2.7202(19) 1_655
O3 Ni1 2.0598(18) .
O3 K1 3.0787(19) 2
O4 Ni1 2.0250(18) .
O4 K1 2.8182(18) .
O4 K1 2.9625(19) 2
O5 K2 2.731(2) 1_455
O5 K2A 2.750(3) 1_455
O6 K2A 2.638(3) .
O6 K2 2.675(2) .
O6 K1 3.005(2) 1_655
O7 K2 2.693(2) 1_545
O7 K2A 2.904(3) 1_545
O8 K2 2.721(2) 1_445
O8 K2A 2.738(3) 1_445
O9 Ni1 2.0645(18) .
O9 K1 2.8673(19) 2
O9 H9X 0.8000 .
O9 H9Y 0.7955 .
O10 K2A 1.948(6) .
O10 K2 2.682(4) .
O11 O11A 1.251(9) .
O11 K1 2.713(4) .
O11 K2A 3.211(8) 1_455
O11A K1 2.744(7) .
O11A K2A 2.871(9) 1_455
O11A K2A 3.174(9) 2_665
K1 O2 2.7202(19) 1_455
K1 O9 2.8673(19) 2
K1 O4 2.9625(19) 2
K1 O6 3.005(2) 1_455
K1 O3 3.0787(19) 2
K1 C2 3.235(3) 1_455
K1 C4 3.235(3) 2
K1 Ni1 3.6617(6) .
K2 K2A 0.852(3) .
K2 O7 2.693(2) 1_565
K2 O8 2.721(2) 1_665
K2 O5 2.731(2) 1_655
K2 K1 4.7528(18) 1_655
K2A O8 2.738(3) 1_665
K2A O5 2.750(3) 1_655
K2A O11A 2.871(9) 1_655
K2A O7 2.904(3) 1_565
K2A O11A 3.174(9) 2_665
K2A O11 3.211(8) 1_655
K2A K1 4.329(3) 1_655
K2A K1 4.898(3) 2_665
Ni1 K1 3.6650(7) 2
