#------------------------------------------------------------------------------
#$Date: 2019-11-23 13:50:46 +0200 (Sat, 23 Nov 2019) $
#$Revision: 233508 $
#$URL: file:///home/coder/svn-repositories/cod/cif/4/34/89/4348956.cif $
#------------------------------------------------------------------------------
#
# This file is available in the Crystallography Open Database (COD),
# http://www.crystallography.net/
#
# All data on this site have been placed in the public domain by the
# contributors.
#
data_4348956
loop_
_publ_author_name
'Seco, Jose M.'
'Oyarzabal, Itziar'
'P\'erez-Y\'a\~nez, Sonia'
'Cepeda, Javier'
'Rodr\'iguez-Di\'eguez, Antonio'
_publ_contact_author
;
Javier Cepeda Ruiz. Departamento de Quimica Aplicada, 
Facultad de Quimica, Universidad del Pais Vasco, UPV/EHU,  
Paseo Manuel de Lardizabal, 3, E-20018, Donostia, Spain
;
_publ_section_title
;
 Designing Multifunctional 5-Cyanoisophthalate-Based Coordination Polymers
 as Single-Molecule Magnets, Adsorbents, and Luminescent Materials.
;
_journal_issue                   21
_journal_name_full               'Inorganic chemistry'
_journal_page_first              11230
_journal_page_last               11248
_journal_paper_doi               10.1021/acs.inorgchem.6b01845
_journal_volume                  55
_journal_year                    2016
_chemical_compound_source        'synthesis as described'
_chemical_formula_moiety         'C18 H12 Cu3 N2 O12'
_chemical_formula_structural     'C18 H12 Cu3 N2 O12'
_chemical_formula_sum            'C18 H12 Cu3 N2 O12'
_chemical_formula_weight         638.92
_chemical_name_systematic
;
Poly{[di(mu-aqua)bis(mu3-5-cyanoisophthalato-kO:kO':kO'')
bis(mu3-hydroxido)tricopper(II)]} 
;
_space_group_crystal_system      triclinic
_space_group_IT_number           2
_space_group_name_Hall           '-P 1'
_space_group_name_H-M_alt        'P -1'
_atom_sites_solution_hydrogens   geom
_atom_sites_solution_primary     direct
_atom_sites_solution_secondary   difmap
_audit_creation_method           SHELXL97
_cell_angle_alpha                65.924(3)
_cell_angle_beta                 81.885(3)
_cell_angle_gamma                86.470(3)
_cell_formula_units_Z            1
_cell_length_a                   5.7384(5)
_cell_length_b                   9.5708(9)
_cell_length_c                   10.0605(9)
_cell_measurement_reflns_used    10507
_cell_measurement_temperature    100(2)
_cell_measurement_theta_max      28.729
_cell_measurement_theta_min      2.235
_cell_volume                     499.41(8)
_computing_cell_refinement
;
CrysAlisPro, Agilent Technologies,
Version 1.171.35.15 (release 03-08-2011 CrysAlis171 .NET)
(compiled Aug  3 2011,13:03:54)
;
_computing_data_collection
;
CrysAlisPro, Agilent Technologies,
Version 1.171.35.15 (release 03-08-2011 CrysAlis171 .NET)
(compiled Aug  3 2011,13:03:54)
;
_computing_data_reduction
;
CrysAlisPro, Agilent Technologies,
Version 1.171.35.15 (release 03-08-2011 CrysAlis171 .NET)
(compiled Aug  3 2011,13:03:54)
;
_computing_molecular_graphics    'Ortep-3 (Farrugia, 1997)'
_computing_publication_material  'WinGX (Farrugia, 1999)'
_computing_structure_refinement  'SHELXL-97 (Sheldrick, 1997)'
_computing_structure_solution    'Sir92 (Altomare et al., 1993)'
_diffrn_ambient_temperature      100(2)
_diffrn_measured_fraction_theta_full 0.999
_diffrn_measured_fraction_theta_max 0.997
_diffrn_measurement_device_type  'Bruker Venture'
_diffrn_measurement_method       \w
_diffrn_radiation_monochromator  graphite
_diffrn_radiation_source         'fine-focus sealed tube'
_diffrn_radiation_type           MoK\a
_diffrn_radiation_wavelength     0.71073
_diffrn_reflns_av_R_equivalents  0.0545
_diffrn_reflns_av_unetI/netI     0.0484
_diffrn_reflns_Laue_measured_fraction_full 0.999
_diffrn_reflns_Laue_measured_fraction_max 0.997
_diffrn_reflns_limit_h_max       7
_diffrn_reflns_limit_h_min       -7
_diffrn_reflns_limit_k_max       12
_diffrn_reflns_limit_k_min       -12
_diffrn_reflns_limit_l_max       13
_diffrn_reflns_limit_l_min       -13
_diffrn_reflns_number            10507
_diffrn_reflns_point_group_measured_fraction_full 0.999
_diffrn_reflns_point_group_measured_fraction_max 0.997
_diffrn_reflns_theta_full        25.242
_diffrn_reflns_theta_max         28.729
_diffrn_reflns_theta_min         2.494
_diffrn_standards_decay_%        0
_diffrn_standards_interval_count 0
_diffrn_standards_interval_time  0
_diffrn_standards_number         0
_exptl_absorpt_coefficient_mu    3.241
_exptl_absorpt_correction_T_max  0.721
_exptl_absorpt_correction_T_min  0.515
_exptl_absorpt_correction_type   numerical
_exptl_absorpt_process_details
;
CrysAlisPro, Agilent Technologies,
Version 1.171.35.15 (release 03-08-2011 CrysAlis171 .NET)
(compiled Aug  3 2011,13:03:54)
Analytical numeric absorption correction using a multifaceted crystal
model based on expressions derived by R.C. Clark & J.S. Reid.
(Clark, R. C. & Reid, J. S. (1995). Acta Cryst. A51, 887-897)
;
_exptl_crystal_colour            colourless
_exptl_crystal_density_diffrn    2.124
_exptl_crystal_density_method    none
_exptl_crystal_description       prismatic
_exptl_crystal_F_000             317
_exptl_crystal_size_max          0.31
_exptl_crystal_size_mid          0.18
_exptl_crystal_size_min          0.10
_refine_diff_density_max         0.724
_refine_diff_density_min         -0.732
_refine_diff_density_rms         0.130
_refine_ls_extinction_method     none
_refine_ls_goodness_of_fit_ref   1.052
_refine_ls_hydrogen_treatment    constr
_refine_ls_matrix_type           full
_refine_ls_number_parameters     160
_refine_ls_number_reflns         2587
_refine_ls_number_restraints     0
_refine_ls_restrained_S_all      1.052
_refine_ls_R_factor_all          0.0585
_refine_ls_R_factor_gt           0.0373
_refine_ls_shift/su_max          0.000
_refine_ls_shift/su_mean         0.000
_refine_ls_structure_factor_coef Fsqd
_refine_ls_weighting_details
'w=1/[\s^2^(Fo^2^)+(0.0334P)^2^+0.8077P] where P=(Fo^2^+2Fc^2^)/3'
_refine_ls_weighting_scheme      calc
_refine_ls_wR_factor_gt          0.0754
_refine_ls_wR_factor_ref         0.0819
_reflns_Friedel_coverage         0.000
_reflns_number_gt                2040
_reflns_number_total             2587
_reflns_threshold_expression     'I > 2\s(I)'
_cod_data_source_file            ic6b01845_si_002.cif
_cod_data_source_block           Compound1
_cod_database_code               4348956
_shelx_space_group_comment
;
The symmetry employed for this shelxl refinement is uniquely defined
by the following loop, which should always be used as a source of
symmetry information in preference to the above space-group names.
They are only intended as comments.
;
_shelxl_version_number           2014-3
_shelx_res_file
;
TITL mo_AC2812_0m in P-1
CELL  0.71073   5.7384   9.5708  10.0605   65.924   81.885   86.470
ZERR     1.00   0.0005   0.0009   0.0009    0.003    0.003    0.003
LATT   1
SFAC  C    H    N    O    CU
UNIT  18   12   2    12   3
MERG   2
OMIT     0   0   1
EQIV  $1 X+1,Y,Z
EQIV  $2 X-1,Y,Z-1
EQIV  $3 X,Y,Z-1
HTAB  O1W N51A_$2
HTAB  O1W O32A_$1
HTAB  O1 N51A_$3
HTAB  O1 O32A_$1
FMAP   2
PLAN   10
ACTA
BOND   $H
L.S.  20
WGHT    0.033400    0.807700
FVAR       0.27484
CU1   5    0.517105    0.845040    0.129259    11.00000    0.00906    0.01032 =
         0.00720    0.00043   -0.00453   -0.00407
CU2   5    1.000000    1.000000    0.000000    10.50000    0.00724    0.01460 =
         0.00587   -0.00033   -0.00297   -0.00217
C1A   1    0.956209    0.746313    0.462919    11.00000    0.00990    0.00960 =
         0.00814   -0.00176   -0.00226   -0.00176
C11A  1    0.883283    0.816300    0.312199    11.00000    0.01300    0.01067 =
         0.00729   -0.00359   -0.00231   -0.00031
O11A  4    0.683771    0.780142    0.299691    11.00000    0.01479    0.01679 =
         0.01000    0.00161   -0.00883   -0.00738
O12A  4    1.027813    0.905587    0.210142    11.00000    0.01154    0.01961 =
         0.00735    0.00045   -0.00349   -0.00386
C2A   1    0.836131    0.618409    0.569541    11.00000    0.00805    0.01211 =
         0.01072   -0.00439   -0.00380   -0.00153
AFIX  43
H2A   2    0.713151    0.577672    0.545763    11.00000   -1.20000
AFIX   0
C3A   1    0.898605    0.550977    0.711457    11.00000    0.01000    0.01042 =
         0.00931   -0.00373   -0.00483   -0.00052
C31A  1    0.231069    0.588185    0.173821    11.00000    0.00925    0.01344 =
         0.00895   -0.00253   -0.00299    0.00002
O31A  4    0.368575    0.648524    0.225020    11.00000    0.01766    0.01532 =
         0.01128    0.00075   -0.00744   -0.00836
O32A  4    0.195968    0.634342    0.043899    11.00000    0.01434    0.01661 =
         0.00882   -0.00224   -0.00476   -0.00373
C4A   1    1.082569    0.612649    0.746714    11.00000    0.01148    0.01375 =
         0.00682   -0.00354   -0.00346   -0.00146
AFIX  43
H4A   2    1.126031    0.568636    0.840855    11.00000   -1.20000
AFIX   0
C5A   1    1.201257    0.741158    0.639502    11.00000    0.00901    0.01250 =
         0.01195   -0.00596   -0.00387   -0.00256
C51A  1    1.389237    0.805543    0.679096    11.00000    0.01391    0.01405 =
         0.01194   -0.00579   -0.00383   -0.00315
N51A  3    1.533771    0.854345    0.714448    11.00000    0.01717    0.02361 =
         0.01593   -0.00824   -0.00292   -0.00548
C6A   1    1.141981    0.808514    0.496653    11.00000    0.01063    0.01302 =
         0.00743   -0.00318   -0.00119   -0.00264
AFIX  43
H6A   2    1.224262    0.892774    0.425697    11.00000   -1.20000
AFIX   0
O1W   4    0.802868    0.788695   -0.026870    11.00000    0.01552    0.01983 =
         0.01434   -0.00888   -0.00613    0.00420
O1    4    1.332262    0.948642   -0.036639    11.00000    0.00863    0.00939 =
         0.00872   -0.00253   -0.00320   -0.00205
AFIX   1
H11W  2    0.752694    0.795344   -0.105077    11.00000   -1.50000
H12W  2    0.921032    0.726376   -0.017111    11.00000   -1.50000
H1    2    1.348000    0.875100   -0.082400    11.00000   -1.50000
AFIX   0
HKLF    4

REM  mo_AC2812_0m in P-1
REM R1 =  0.0373 for    2040 Fo > 4sig(Fo)  and  0.0585 for all    2587 data
REM    160 parameters refined using      0 restraints

END

WGHT      0.0324      0.9021

REM Highest difference peak  0.724,  deepest hole -0.732,  1-sigma level  0.130
Q1    1   1.0071  0.9009  0.0132  11.00000  0.05    0.72
Q2    1   0.5319  0.7543  0.1315  11.00000  0.05    0.55
Q3    1   0.4093  0.7664  0.2627  11.00000  0.05    0.53
Q4    1   0.4523  0.9194  0.1657  11.00000  0.05    0.52
Q5    1   0.6294  0.7791  0.0769  11.00000  0.05    0.50
Q6    1   0.4043  0.9023  0.1946  11.00000  0.05    0.47
Q7    1   0.8782  0.5935  0.6399  11.00000  0.05    0.46
Q8    1   1.4723  0.7830  0.7744  11.00000  0.05    0.45
Q9    1   1.0853  0.7233  0.2598  11.00000  0.05    0.45
Q10   1   1.2555  0.8999  0.3776  11.00000  0.05    0.44
;
_shelx_res_checksum              57300
_shelx_hkl_file
;
  -1   0   0    3.39    0.53
  -1   0   0    2.86    0.34
  -1   0   0    3.03    0.34
   1   0   0    3.52    0.53
   1   0   0    3.84    0.44
   1   0   0    3.39    0.41
  -2   0   0  192.68    4.61
  -2   0   0  182.47    3.83
  -2   0   0  188.54    3.86
   2   0   0  194.52    4.65
   2   0   0  194.03    4.16
   2   0   0  203.93    4.20
  -3   0   0   35.31    2.13
   3   0   0   33.88    2.15
   3   0   0   36.45    1.66
   3   0   0   32.89    1.65
  -4   0   0  104.05    4.10
   4   0   0  110.12    4.20
   4   0   0  103.31    3.39
   4   0   0  107.85    3.49
  -5   0   0    2.28    2.18
   5   0   0    1.53    2.03
   5   0   0    1.86    1.21
   5   0   0   -0.34    1.35
  -6   0   0  116.62    6.18
   6   0   0  105.45    6.10
   6   0   0  108.13    5.15
   6   0   0  101.18    4.81
  -7   0   0    5.96    4.81
   6  -1   0    3.87    1.99
   6  -1   0    3.69    1.83
   6  -1   0    5.65    4.60
   5  -1   0   11.81    1.70
   5  -1   0   16.22    2.56
   5  -1   0   15.40    2.06
  -5   1   0   10.65    2.26
   4  -1   0   78.89    2.65
   4  -1   0   84.38    3.65
   4  -1   0   79.80    2.70
  -4   1   0   87.04    3.55
   3  -1   0   48.33    1.60
   3  -1   0   48.01    1.61
   3  -1   0   53.15    2.44
  -3   1   0   50.11    2.31
   2  -1   0  331.68    6.98
  -2   1   0  314.65    6.87
   1  -1   0   53.77    1.73
  -1  -1   0   19.14    0.97
  -1  -1   0   15.33    1.06
  -1  -1   0   17.71    0.97
   1   1   0   17.37    0.96
   1   1   0   17.50    0.95
  -2  -1   0  327.07    6.80
  -2  -1   0  318.26    6.80
  -2  -1   0  315.01    7.20
   2   1   0  322.69    6.92
   2   1   0  332.15    6.92
   2   1   0  327.59    7.20
  -3  -1   0    5.48    0.87
  -3  -1   0    4.83    0.81
  -3  -1   0    4.21    1.05
   3   1   0    7.10    1.41
   3   1   0    4.87    0.89
   3   1   0    4.98    0.95
  -4  -1   0  146.91    3.90
  -4  -1   0  164.98    5.29
  -4  -1   0  154.63    3.93
   4   1   0  160.09    4.73
   4   1   0  157.97    4.70
   4   1   0  161.19    5.25
  -5  -1   0   27.91    3.57
   5   1   0   21.79    2.78
   5   1   0   21.29    2.66
  -6  -1   0  195.86    8.02
   6   1   0  203.04    6.92
  -7  -1   0    8.48    4.96
   7   1   0    8.09    4.14
   7  -2   0   37.55    5.23
   7  -2   0   60.69    7.95
   7  -2   0   46.79    5.25
   6  -2   0    5.81    1.90
   6  -2   0    6.22    1.80
   6  -2   0    2.73    5.71
   6  -2   0    2.24    3.13
   5  -2   0   71.11    2.90
   5  -2   0   80.49    4.40
   5  -2   0   73.18    2.94
   4  -2   0   15.41    1.17
   4  -2   0   17.23    2.19
   4  -2   0   11.43    1.21
   3  -2   0  172.60    5.05
   3  -2   0  164.47    4.67
   2  -2   0    4.06    0.80
   2  -2   0    4.68    0.90
   1  -2   0  342.17    7.07
  -1   2   0  329.67    7.09
   0  -2   0  102.50    2.52
   0   2   0  101.43    2.48
   0   2   0  104.13    2.48
  -1  -2   0   19.22    1.21
  -1  -2   0   19.88    1.21
   1   2   0   20.13    1.21
  -2  -2   0   56.93    2.22
  -2  -2   0   56.89    2.48
  -2  -2   0   60.47    2.27
   2   2   0   57.64    2.25
   2   2   0   59.37    2.29
  -3  -2   0  104.01    3.34
  -3  -2   0  104.66    3.39
  -3  -2   0  107.16    3.91
   3   2   0  105.71    3.58
   3   2   0  110.05    3.62
  -4  -2   0   67.74    2.85
  -4  -2   0   67.15    2.86
  -4  -2   0   70.99    3.73
   4   2   0   72.52    3.34
   4   2   0   74.44    3.38
  -5  -2   0    0.12    1.92
  -5  -2   0    2.18    1.22
  -5  -2   0    1.30    1.16
   5   2   0    0.20    1.67
   5   2   0    0.37    1.63
  -6  -2   0   14.56    3.92
   6   2   0   10.09    2.85
  -7  -2   0   -4.51    5.13
   7   2   0    7.96    3.95
   7  -3   0   16.51    3.10
   7  -3   0   13.06    5.26
   6  -3   0   16.55    4.49
   6  -3   0   13.97    2.03
   6  -3   0   19.14    2.63
   6  -3   0    8.77    3.34
   5  -3   0   99.57    4.71
   5  -3   0   87.28    4.85
   5  -3   0   85.69    2.80
   5  -3   0   89.71    2.83
   4  -3   0   61.52    3.27
   4  -3   0   54.19    3.37
   3  -3   0  318.66    7.91
   3  -3   0  310.39    7.42
   2  -3   0   53.76    2.39
  -2   3   0   48.70    2.41
   1  -3   0   90.39    2.26
   1  -3   0   91.46    2.25
   1  -3   0   89.36    2.79
  -1   3   0   91.62    2.89
   0  -3   0  103.77    2.86
   0  -3   0  103.00    2.85
   0   3   0  101.97    2.76
   0   3   0  106.32    2.77
  -1  -3   0  653.22   13.22
  -1  -3   0  660.28   13.24
   1   3   0  647.13   13.14
  -2  -3   0   79.36    3.14
  -2  -3   0   81.71    3.00
  -2  -3   0   84.61    3.03
   2   3   0   80.62    2.98
  -3  -3   0  243.14    6.40
  -3  -3   0  253.41    6.50
  -3  -3   0  250.60    6.87
   3   3   0  252.29    6.60
   3   3   0  250.43    6.61
  -4  -3   0    3.48    1.83
  -4  -3   0    2.47    1.20
  -4  -3   0    3.84    1.30
   4   3   0    2.40    1.30
   4   3   0    1.30    1.47
  -5  -3   0  137.59    4.94
  -5  -3   0  147.38    5.04
  -5  -3   0  151.14    6.37
   5   3   0  149.09    5.91
   5   3   0  150.21    5.80
  -6  -3   0    7.12    1.90
  -6  -3   0    6.36    3.34
  -6  -3   0    5.76    1.96
   6   3   0    7.50    2.92
  -7  -3   0   27.28    6.22
   7   3   0   27.04    4.96
   7   3   0   19.96    4.22
   7  -4   0  -10.25    5.48
   7  -4   0    1.94    4.94
   6  -4   0    4.64    1.38
   6  -4   0    4.70    1.62
   6  -4   0    1.67    3.35
   5  -4   0   24.17    3.33
   5  -4   0   26.70    3.18
   4  -4   0   -0.84    1.56
   4  -4   0    1.85    1.42
   3  -4   0  101.58    3.63
   3  -4   0   95.91    3.83
   2  -4   0    3.82    0.57
   2  -4   0    5.64    1.05
   2  -4   0    5.47    0.64
  -2   4   0    6.30    1.33
   1  -4   0   35.31    1.58
   1  -4   0   35.02    1.56
  -1   4   0   33.66    0.97
  -1   4   0   35.38    1.03
  -1   4   0   31.83    2.02
   0  -4   0   59.02    2.33
   0  -4   0   56.32    2.25
   0   4   0   56.10    2.12
   0   4   0   57.79    2.12
  -1  -4   0  469.63   10.25
  -1  -4   0  467.93   10.24
   1   4   0  471.20   10.16
   1   4   0  467.54   10.10
  -2  -4   0   51.77    2.57
  -2  -4   0   43.08    2.45
   2   4   0   46.71    2.47
  -3  -4   0  255.41    7.03
  -3  -4   0  264.82    7.09
  -3  -4   0  269.49    7.49
   3   4   0  259.25    7.07
   3   4   0  261.70    7.10
  -4  -4   0    1.13    2.61
  -4  -4   0    4.51    1.62
  -4  -4   0   -1.21    1.22
   4   4   0    1.35    1.47
  -5  -4   0   61.15    4.92
  -5  -4   0   60.45    3.95
  -5  -4   0   62.68    4.14
   5   4   0   61.31    4.55
  -6  -4   0   11.68    2.49
  -6  -4   0    7.36    2.49
  -6  -4   0   12.15    3.71
   6   4   0   12.61    3.32
  -7  -4   0   92.66    5.50
   7   4   0   71.89    7.58
   7   4   0  102.66    9.33
   6  -5   0   43.25    5.67
   6  -5   0   41.81    5.13
   5  -5   0    1.68    2.41
   5  -5   0   -0.52    2.50
   4  -5   0   35.05    3.56
   4  -5   0   36.80    3.38
   3  -5   0    2.46    1.53
   3  -5   0    3.34    0.69
   3  -5   0    2.48    0.65
   2  -5   0   14.41    1.33
   2  -5   0   13.99    1.96
   2  -5   0   12.80    1.26
  -2   5   0   14.94    2.17
   1  -5   0   25.65    1.70
  -1   5   0   23.24    1.16
  -1   5   0   22.35    1.05
  -1   5   0   22.39    2.04
   0  -5   0  266.45    6.51
   0  -5   0  254.28    6.43
   0   5   0  261.46    6.14
   0   5   0  259.19    6.15
  -1  -5   0    8.27    1.19
  -1  -5   0   11.48    1.64
   1   5   0   13.33    1.65
   1   5   0   14.26    1.75
  -2  -5   0    4.35    1.09
  -2  -5   0    3.31    1.07
   2   5   0    4.64    1.23
   2   5   0    6.20    1.22
  -3  -5   0   -0.24    1.26
  -3  -5   0    0.79    1.31
  -3  -5   0    0.99    1.55
   3   5   0    0.89    1.11
  -4  -5   0   13.97    2.28
  -4  -5   0   10.74    2.14
  -4  -5   0   13.60    2.38
   4   5   0   10.76    1.96
  -5  -5   0   35.40    4.09
  -5  -5   0   35.23    4.25
   5   5   0   22.00    2.99
   5   5   0   33.63    4.40
  -6  -5   0   -2.42    2.61
  -6  -5   0    2.83    4.07
  -6  -5   0   -2.62    2.61
   6   5   0    0.12    2.81
   6   5   0    9.43    3.64
   6  -6   0   45.78    5.95
   6  -6   0   35.23    5.08
   5  -6   0    6.17    3.27
   5  -6   0    7.53    3.07
   4  -6   0   27.17    3.53
   4  -6   0   27.26    1.76
   4  -6   0   32.17    4.08
   3  -6   0   68.70    2.60
   3  -6   0   70.84    4.01
  -3   6   0   66.78    4.23
   2  -6   0  195.86    5.09
  -2   6   0  195.79    6.38
   1  -6   0   91.71    3.41
   1  -6   0   93.03    3.43
  -1   6   0   95.99    3.99
  -1   6   0   91.77    2.49
  -1   6   0   91.21    2.59
   0  -6   0   95.81    3.70
   0  -6   0   91.00    3.63
   0   6   0   96.36    3.91
   0   6   0   95.88    3.36
   0   6   0   93.75    3.25
  -1  -6   0   33.89    2.47
  -1  -6   0   36.38    2.61
   1   6   0   33.80    2.44
   1   6   0   39.59    2.64
  -2  -6   0  101.44    4.26
  -2  -6   0  100.33    4.30
   2   6   0   97.38    4.10
   2   6   0  104.12    4.26
  -3  -6   0    1.31    1.77
  -3  -6   0   -0.51    1.38
  -3  -6   0    1.14    1.46
   3   6   0    1.10    1.31
   3   6   0   -0.70    1.29
  -4  -6   0   27.60    3.54
  -4  -6   0   31.36    3.97
  -4  -6   0   29.22    3.86
   4   6   0   25.98    3.26
   4   6   0   29.94    3.73
  -5  -6   0    1.65    2.45
  -5  -6   0   -0.39    3.42
  -5  -6   0    2.40    2.75
   5   6   0    2.70    2.56
   5   6   0    2.74    2.10
  -6  -6   0   27.27    7.21
  -6  -6   0   20.26    4.10
   6   6   0   18.29    3.79
   6   6   0   33.76    4.92
   6  -7   0    1.31    5.00
   6  -7   0   16.40    5.87
   5  -7   0    1.81    3.42
   5  -7   0    3.72    3.66
   4  -7   0   52.40    4.57
   4  -7   0   51.88    2.93
   4  -7   0   56.62    2.82
   4  -7   0   51.57    4.96
   3  -7   0    7.74    1.53
   3  -7   0    7.02    1.54
  -3   7   0    4.45    2.34
   2  -7   0  210.56    5.87
   2  -7   0  207.74    5.89
  -2   7   0  213.14    7.21
   1  -7   0    5.59    1.51
   1  -7   0    5.89    1.56
  -1   7   0    6.13    1.03
  -1   7   0    5.88    0.88
  -1   7   0    4.78    1.65
   0  -7   0   24.70    2.55
   0  -7   0   23.59    2.59
   0   7   0   27.63    2.22
   0   7   0   22.97    2.40
   0   7   0   28.58    2.87
  -1  -7   0   16.74    2.04
  -1  -7   0   17.27    2.49
   1   7   0   18.51    2.56
   1   7   0   16.41    2.02
  -2  -7   0  104.26    4.84
  -2  -7   0  106.43    4.74
   2   7   0  101.72    4.55
  -3  -7   0   29.11    3.52
  -3  -7   0   29.73    3.53
  -3  -7   0   27.19    3.37
   3   7   0   34.69    3.73
   3   7   0   32.00    3.35
  -4  -7   0  144.14    6.94
  -4  -7   0  149.85    6.75
  -4  -7   0  148.62    6.82
   4   7   0  142.74    6.30
   4   7   0  144.83    6.48
  -5  -7   0   42.67    4.69
  -5  -7   0   50.54    6.70
  -5  -7   0   42.49    5.82
   5   7   0   57.84    5.03
   5   7   0   45.22    5.77
  -6  -7   0   22.75    4.87
  -6  -7   0   25.61    5.10
   6   7   0   18.15    4.50
   5  -8   0   37.46    3.78
   5  -8   0   29.77    4.79
   5  -8   0   32.30    5.45
   5  -8   0   29.44    3.52
   4  -8   0    5.63    2.05
   4  -8   0   -0.02    1.98
   3  -8   0   22.17    3.24
   3  -8   0   35.82    3.45
  -3   8   0   25.78    4.16
   2  -8   0    4.35    1.86
   2  -8   0    1.28    1.66
  -2   8   0    4.39    3.78
   1  -8   0    5.34    1.84
   1  -8   0    5.15    1.88
  -1   8   0    7.08    1.21
  -1   8   0    7.87    1.05
  -1   8   0    7.05    2.27
   0  -8   0   18.64    2.62
   0   8   0   18.63    2.77
   0   8   0   16.10    1.97
   0   8   0   14.94    1.87
  -1  -8   0   22.72    3.08
   1   8   0   19.91    2.84
   1   8   0   18.71    2.41
  -2  -8   0   40.13    3.70
  -2  -8   0   38.22    4.06
   2   8   0   30.13    3.43
   2   8   0   31.53    3.93
  -3  -8   0   10.28    2.56
  -3  -8   0    8.21    2.26
  -3  -8   0    7.94    2.81
   3   8   0    6.73    2.42
   3   8   0    6.85    2.13
  -4  -8   0   75.23    5.77
  -4  -8   0   70.51    6.12
  -4  -8   0   60.23    6.12
   4   8   0   75.63    5.18
   4   8   0   65.51    5.95
  -5  -8   0    4.89    4.05
  -5  -8   0   -2.54    3.52
   5   8   0   -0.59    2.74
   4  -9   0    3.38    2.84
   4  -9   0    0.75    2.69
   3  -9   0   91.22    5.22
   3  -9   0   79.23    4.99
  -3   9   0   69.75    6.88
   2  -9   0    3.71    2.18
   2  -9   0    3.27    2.34
  -2   9   0    4.69    3.15
   1  -9   0   36.55    4.14
   1  -9   0   42.13    4.38
  -1   9   0   44.86    4.80
   0  -9   0   12.82    2.65
   0  -9   0    5.49    2.35
   0   9   0    5.41    1.73
   0   9   0    9.78    2.41
   0   9   0    7.42    1.99
  -1  -9   0   59.07    4.96
  -1  -9   0   59.95    4.70
   1   9   0   62.28    3.98
   1   9   0   58.96    4.89
   1   9   0   54.36    4.85
  -2  -9   0   -0.40    2.07
  -2  -9   0    4.24    2.51
   2   9   0    0.55    2.56
   2   9   0   -0.13    1.93
  -3  -9   0   35.28    4.97
  -3  -9   0   35.04    4.57
  -3  -9   0   36.86    4.36
   3   9   0   28.48    4.00
   3   9   0   30.04    3.82
  -4  -9   0    2.10    3.17
  -4  -9   0   -1.24    4.34
  -4  -9   0   -3.51    3.38
   4   9   0   -2.70    2.65
   4   9   0    1.32    3.80
  -5  -9   0   -8.36    7.27
   4 -10   0   10.51    4.71
   3 -10   0   17.41    3.68
   3 -10   0   21.73    4.04
  -3  10   0    7.93    5.04
   2 -10   0    6.19    3.23
   2 -10   0    5.30    3.12
  -2  10   0   12.61    4.19
   1 -10   0   99.82    6.46
   1 -10   0   86.92    6.25
  -1  10   0   86.58    6.42
   0 -10   0   13.36    3.14
   0 -10   0    9.27    3.17
   0  10   0   11.10    2.65
   0  10   0    6.69    2.12
   0  10   0    7.71    3.21
  -1 -10   0   59.10    5.90
  -1 -10   0   66.08    6.32
   1  10   0   60.19    5.81
   1  10   0   61.46    5.07
   1  10   0   61.43    4.57
  -2 -10   0   10.22    3.18
  -2 -10   0    5.04    3.00
   2  10   0   10.17    3.49
   2  10   0    7.21    2.72
  -3 -10   0   41.65    4.78
  -3 -10   0   49.99    6.09
   3  10   0   44.15    4.92
   3  10   0   40.79    5.20
   2 -11   0    9.85    4.25
   2 -11   0    4.80    4.38
  -2  11   0    1.62    5.33
   1 -11   0   35.84    4.75
   1 -11   0   52.17    5.64
  -1  11   0   38.31    5.35
   0 -11   0    4.83    3.88
   0 -11   0    8.61    4.10
   0  11   0    8.48    4.20
   0  11   0    5.50    3.00
   0  11   0    5.56    2.64
  -1 -11   0   29.29    4.70
  -1 -11   0   21.95    4.39
   1  11   0   20.40    3.46
   1  11   0   21.00    3.87
   1  11   0   32.70    5.12
  -2 -11   0    0.02    4.03
   2  11   0    5.03    3.35
   2  11   0   -0.37    4.50
   2  11   0    1.41    4.18
   1  11  -1    0.52    4.45
   1  11  -1    0.69    4.26
   1  11  -1   -1.24    2.97
  -1 -11   1    7.82    4.79
   0  11  -1   11.84    4.78
   0  11  -1    7.38    3.60
   0  11  -1   12.33    2.98
   0 -11   1   14.71    4.95
   0 -11   1   10.55    4.67
  -1  11  -1   11.22    5.14
   1 -11   1   -2.74    4.41
   1 -11   1    3.11    4.43
  -2  11  -1   36.77    6.51
   2 -11   1   34.48    5.39
   2 -11   1   26.61    5.33
   3  10  -1    1.53    3.87
   3  10  -1    1.09    5.07
  -3 -10   1    3.11    3.71
   2  10  -1    3.57    3.18
   2  10  -1    3.88    3.28
  -2 -10   1    4.54    3.48
  -2 -10   1    3.81    3.49
  -2 -10   1    3.15    3.84
   1  10  -1   27.95    4.58
   1  10  -1   21.65    3.48
   1  10  -1   33.49    4.67
  -1 -10   1   21.18    3.79
  -1 -10   1   30.58    4.48
   0  10  -1   -1.36    3.16
   0  10  -1   -0.33    2.00
   0  10  -1   -0.68    2.52
   0 -10   1    0.34    3.00
   0 -10   1    5.02    3.23
  -1  10  -1   39.93    5.97
   1 -10   1   44.35    6.20
   1 -10   1   45.63    4.81
  -2  10  -1   11.52    4.53
   2 -10   1   10.68    3.69
   2 -10   1    7.59    4.51
  -3  10  -1   12.77    5.42
   3 -10   1   14.94    4.14
   3 -10   1   17.35    4.01
   4   9  -1    0.78    3.22
  -4  -9   1   -0.08    3.85
   3   9  -1   48.87    5.49
   3   9  -1   52.43    6.77
  -3  -9   1   50.77    6.67
  -3  -9   1   44.13    5.86
  -3  -9   1   61.65    6.07
   2   9  -1   -0.12    2.99
   2   9  -1   -2.94    2.34
  -2  -9   1   -2.74    2.91
  -2  -9   1    0.33    2.42
  -2  -9   1    0.90    2.35
   1   9  -1  176.81    6.87
   1   9  -1  190.93    6.96
  -1  -9   1  176.11    7.54
  -1  -9   1  189.45    7.66
   0   9  -1    3.36    1.74
   0   9  -1    3.30    2.70
   0   9  -1    2.30    2.23
   0  -9   1    0.70    2.37
   0  -9   1    1.82    2.39
  -1   9  -1   70.65    2.54
  -1   9  -1   69.68    2.79
  -1   9  -1   73.69    5.53
   1  -9   1   77.88    5.62
   1  -9   1   69.67    5.27
  -2   9  -1   24.09    4.00
   2  -9   1   26.01    3.50
   2  -9   1   19.27    3.11
  -3   9  -1   -1.52    3.73
   3  -9   1    5.85    2.88
   4  -9   1    4.20    2.95
   4  -9   1   -0.21    3.16
   5   8  -1    6.34    3.82
  -5  -8   1   -3.98    4.04
   4   8  -1    8.75    3.45
   4   8  -1    8.46    2.84
  -4  -8   1    6.04    3.31
  -4  -8   1    7.51    3.23
  -4  -8   1   12.07    3.91
   3   8  -1   47.78    4.51
   3   8  -1   37.66    4.97
  -3  -8   1   39.02    5.08
  -3  -8   1   33.84    4.67
  -3  -8   1   47.88    5.03
   2   8  -1    2.24    2.20
   2   8  -1    1.05    1.94
  -2  -8   1    3.60    2.11
  -2  -8   1    2.18    1.97
   1   8  -1   66.39    5.07
   1   8  -1   63.66    4.04
  -1  -8   1   67.06    4.45
  -1  -8   1   65.13    4.53
   0   8  -1   -0.47    1.55
   0   8  -1    3.06    1.36
   0   8  -1   -0.56    1.91
   0  -8   1    0.17    1.70
   0  -8   1    2.99    1.98
  -1   8  -1   37.18    2.34
  -1   8  -1   40.89    3.95
  -1   8  -1   34.64    2.08
   1  -8   1   38.59    3.94
   1  -8   1   41.85    3.98
   2  -8   1    0.49    1.84
   2  -8   1   -0.64    1.82
  -3   8  -1   41.04    5.65
   3  -8   1   56.73    4.00
   3  -8   1   57.47    4.14
   4  -8   1    5.34    3.11
   4  -8   1   -2.73    2.16
   4  -8   1    3.71    2.27
   5  -8   1   46.53    5.07
   5  -8   1   40.11    4.57
   5  -8   1   42.87    5.39
   5   7  -1    2.26    2.99
   5   7  -1    2.95    3.32
  -5  -7   1    3.61    3.50
  -5  -7   1    3.80    4.03
  -5  -7   1   -0.74    3.26
   4   7  -1   72.41    5.03
   4   7  -1   62.75    5.39
  -4  -7   1   79.09    5.85
  -4  -7   1   64.19    5.41
  -4  -7   1   74.96    5.60
   3   7  -1    0.95    1.72
   3   7  -1    0.71    1.95
  -3  -7   1    1.92    1.90
  -3  -7   1    3.50    2.07
  -3  -7   1    2.29    2.40
   2   7  -1   33.49    3.88
   2   7  -1   30.00    3.49
  -2  -7   1   41.40    3.51
  -2  -7   1   38.31    3.39
   1   7  -1   -0.44    1.28
   1   7  -1    1.67    1.51
  -1  -7   1    1.88    1.41
  -1  -7   1    0.89    1.48
   0   7  -1   17.21    2.24
   0   7  -1   20.59    2.67
   0   7  -1   16.67    2.46
   0  -7   1   14.90    2.06
   0  -7   1   13.63    2.12
  -1   7  -1    4.19    0.98
  -1   7  -1    4.17    1.71
  -1   7  -1    6.44    1.20
   1  -7   1    3.81    1.61
   1  -7   1    2.81    1.53
  -2   7  -1   49.79    4.08
   2  -7   1   51.03    3.28
   2  -7   1   53.61    3.32
  -3   7  -1   29.55    3.92
   3  -7   1   33.95    2.99
   3  -7   1   34.33    2.90
   4  -7   1   -1.55    2.46
   4  -7   1    1.63    2.80
   4  -7   1    3.00    1.60
   4  -7   1   -0.50    1.60
   5  -7   1    7.64    1.86
   5  -7   1    7.18    3.58
   5  -7   1    7.30    1.89
   5  -7   1    9.15    3.95
   6  -7   1    0.05    5.19
   6  -7   1    0.96    5.88
   6   6  -1   34.63    4.47
  -6  -6   1   41.95    4.82
  -6  -6   1   50.80    6.80
   5   6  -1    5.25    2.56
   5   6  -1    1.47    2.75
  -5  -6   1    8.31    3.70
  -5  -6   1    3.02    2.66
  -5  -6   1    7.38    3.13
   4   6  -1  121.67    5.88
  -4  -6   1  123.48    5.98
  -4  -6   1  128.00    6.43
  -4  -6   1  124.44    6.08
   3   6  -1   17.07    2.26
  -3  -6   1   29.22    4.47
  -3  -6   1   15.84    2.32
  -3  -6   1   27.55    3.53
   2   6  -1   99.06    4.34
   2   6  -1   94.84    4.33
  -2  -6   1   92.60    4.30
  -2  -6   1   97.48    4.90
  -2  -6   1  103.70    4.58
   1   6  -1    0.17    1.28
   1   6  -1   -0.45    1.01
  -1  -6   1    0.79    1.26
  -1  -6   1    0.56    1.07
   0   6  -1  106.85    3.73
   0   6  -1  107.57    3.72
   0  -6   1  103.61    4.13
   0  -6   1  109.92    4.16
  -1   6  -1   14.43    2.06
  -1   6  -1   10.84    1.50
  -1   6  -1   11.45    1.24
   1  -6   1   15.28    1.82
   1  -6   1   13.77    2.00
  -2   6  -1  206.04    6.61
   2  -6   1  206.73    5.54
   2  -6   1  206.15    5.48
  -3   6  -1    2.38    1.95
   3  -6   1   -0.25    1.70
   3  -6   1   -0.50    1.10
   3  -6   1    0.15    1.08
   4  -6   1   60.29    2.60
   4  -6   1   64.36    4.59
   4  -6   1   53.85    2.50
   4  -6   1   59.72    3.86
   5  -6   1    9.52    3.37
   5  -6   1   10.53    3.01
   6  -6   1   17.45    4.08
   6  -6   1   11.15    5.02
   6   5  -1   10.04    3.99
  -6  -5   1   11.86    3.45
  -6  -5   1    8.80    4.74
  -6  -5   1    7.73    3.38
   5   5  -1    7.15    2.85
  -5  -5   1    6.32    2.46
  -5  -5   1    3.37    2.32
  -5  -5   1    7.86    3.05
   4   5  -1   61.20    4.15
   4   5  -1   64.45    4.19
  -4  -5   1   60.16    4.21
  -4  -5   1   54.35    4.30
  -4  -5   1   65.68    4.78
   3   5  -1   19.88    2.54
   3   5  -1   20.89    3.52
  -3  -5   1   21.94    3.25
  -3  -5   1   15.62    2.15
  -3  -5   1   15.31    2.11
   2   5  -1   29.65    2.54
  -2  -5   1   28.90    2.47
  -2  -5   1   31.98    2.50
  -2  -5   1   28.54    2.45
   1   5  -1   15.42    1.95
  -1  -5   1   18.74    2.05
  -1  -5   1   17.11    1.89
   0   5  -1  192.09    5.06
   0   5  -1  190.30    4.98
   0  -5   1  191.13    5.36
   0  -5   1  189.25    5.37
  -1   5  -1    1.46    0.58
  -1   5  -1    2.48    0.73
  -1   5  -1    0.64    1.00
   1  -5   1    1.14    0.82
   1  -5   1    1.35    0.86
  -2   5  -1  122.87    4.43
   2  -5   1  123.22    3.50
   2  -5   1  121.81    3.56
   3  -5   1    7.69    1.08
   3  -5   1   10.94    2.07
   3  -5   1    7.82    1.01
   4  -5   1   83.16    4.56
   4  -5   1   79.64    3.91
   5  -5   1    1.46    2.59
   5  -5   1    1.14    2.20
   6  -5   1   40.96    5.50
   6  -5   1   44.43    6.60
  -7  -4   1   47.39    6.53
   6   4  -1   -1.71    3.31
  -6  -4   1   -1.31    3.68
  -6  -4   1    1.74    2.50
   5   4  -1    6.30    2.31
   5   4  -1   11.34    2.52
  -5  -4   1    8.18    2.16
  -5  -4   1   11.40    3.11
  -5  -4   1    5.99    2.32
   4   4  -1    0.34    1.72
   4   4  -1    2.00    1.46
  -4  -4   1    1.07    1.49
  -4  -4   1    0.75    1.77
  -4  -4   1    1.97    1.52
   3   4  -1   42.24    2.94
   3   4  -1   45.87    2.87
  -3  -4   1   43.92    2.96
  -3  -4   1   40.11    2.84
  -3  -4   1   45.51    3.06
   2   4  -1    0.26    0.90
   2   4  -1   -0.43    0.87
  -2  -4   1   -0.07    0.70
  -2  -4   1    0.97    0.78
  -2  -4   1    0.61    0.90
   1   4  -1    4.65    1.02
   1   4  -1    4.09    0.99
  -1  -4   1    4.19    0.88
  -1  -4   1    3.49    0.94
   0   4  -1    0.32    0.65
   0   4  -1    0.29    0.64
   0  -4   1    0.29    0.73
   0  -4   1    0.31    0.69
  -1   4  -1   13.20    1.03
  -1   4  -1   13.51    0.90
  -1   4  -1   13.10    1.59
   1  -4   1   12.96    1.31
   1  -4   1   12.62    1.31
  -2   4  -1    1.23    0.93
   2  -4   1    1.09    0.58
   2  -4   1    0.02    0.77
   2  -4   1   -0.07    0.53
   3  -4   1    0.19    1.05
   3  -4   1   -1.01    1.02
   4  -4   1   32.36    2.83
   4  -4   1   27.69    3.09
   5  -4   1    0.64    2.11
   5  -4   1    2.20    2.12
   6  -4   1   43.56    5.35
   6  -4   1   51.33    5.69
   7  -4   1    7.89    5.31
   7  -4   1   -1.86    5.14
   7   3  -1   56.21    6.31
   6   3  -1   -1.46    2.76
   6   3  -1    1.56    2.83
  -6  -3   1   -1.70    3.60
  -6  -3   1    1.17    2.10
  -6  -3   1    0.70    2.03
   5   3  -1    2.45    1.94
   5   3  -1   -0.35    3.14
  -5  -3   1    0.40    1.64
  -5  -3   1   -1.61    1.47
  -5  -3   1    1.86    2.51
   4   3  -1  119.33    4.77
   4   3  -1  127.66    4.86
  -4  -3   1  116.24    4.46
  -4  -3   1  128.01    5.16
  -4  -3   1  116.58    4.50
   3   3  -1  180.50    5.49
   3   3  -1  180.76    5.41
  -3  -3   1  185.76    5.82
  -3  -3   1  182.21    5.41
  -3  -3   1  178.50    5.39
   2   3  -1   41.89    2.23
   2   3  -1   41.15    2.25
  -2  -3   1   38.23    2.17
  -2  -3   1   38.76    2.41
  -2  -3   1   39.89    2.25
   1   3  -1  783.01   15.64
   1   3  -1  774.27   15.51
  -1  -3   1  769.41   15.62
  -1  -3   1  774.27   15.65
   0   3  -1    2.53    0.66
   0  -3   1    1.97    0.65
   0  -3   1    2.12    0.64
  -1   3  -1    1.14    0.68
  -1   3  -1    1.00    0.34
  -1   3  -1    1.31    0.40
   1  -3   1    1.19    0.52
   1  -3   1    1.50    0.58
  -2   3  -1    0.72    0.87
   2  -3   1    0.49    0.76
   2  -3   1    1.05    0.39
   3  -3   1  176.42    5.10
   3  -3   1  174.09    4.65
   4  -3   1    3.20    1.61
   4  -3   1    4.23    1.39
   5  -3   1   25.26    2.80
   5  -3   1   25.00    1.70
   6  -3   1   -0.86    1.40
   6  -3   1    0.29    2.69
   6  -3   1   -2.03    1.54
   6  -3   1   -1.46    2.96
   7  -3   1    6.30    5.26
   7  -3   1   11.13    2.61
   7  -3   1   17.23    3.06
   7  -3   1   23.78    4.80
   7   2  -1   12.12    4.94
  -7  -2   1   18.54    6.21
   6   2  -1   -1.69    2.45
   6   2  -1    2.70    2.58
  -6  -2   1   -0.11    1.42
  -6  -2   1    2.20    1.43
  -6  -2   1   -1.83    3.27
   5   2  -1  111.44    4.90
   5   2  -1   97.38    6.27
  -5  -2   1  101.18    5.36
  -5  -2   1  104.31    3.90
  -5  -2   1  102.99    3.95
   4   2  -1    9.85    1.63
   4   2  -1   12.75    1.90
  -4  -2   1   10.96    2.03
  -4  -2   1    8.20    1.35
  -4  -2   1    9.93    1.49
   3   2  -1  329.55    7.77
   3   2  -1  316.30    7.77
  -3  -2   1  321.78    8.13
  -3  -2   1  319.05    7.57
  -3  -2   1  313.65    7.55
   2   2  -1   98.47    3.27
   2   2  -1  101.98    3.26
  -2  -2   1   96.96    3.46
  -2  -2   1   99.60    3.20
  -2  -2   1   97.78    3.22
   1   2  -1   33.09    1.67
   1   2  -1   33.17    1.65
  -1  -2   1   32.71    1.66
  -1  -2   1   32.41    1.62
  -1  -2   1   34.02    1.62
   0   2  -1    1.18    0.51
   0   2  -1    0.52    0.44
   0  -2   1    1.33    0.49
   0  -2   1    0.90    0.50
  -1   2  -1   61.13    1.99
   1  -2   1   60.68    1.67
   1  -2   1   61.77    1.94
   1  -2   1   62.38    1.65
   2  -2   1   12.20    1.11
   2  -2   1   10.77    1.32
   3  -2   1  257.32    5.98
   3  -2   1  248.74    6.42
   4  -2   1  109.34    3.88
   4  -2   1  108.74    2.71
   4  -2   1  115.06    4.39
   4  -2   1  103.53    2.71
   5  -2   1  132.16    5.58
   5  -2   1  122.07    4.95
   5  -2   1  125.99    3.71
   6  -2   1   -0.87    2.87
   6  -2   1   -1.63    1.49
   6  -2   1    0.20    2.95
   7  -2   1   35.72    4.40
   7  -2   1   57.21    7.28
   7  -2   1   39.51    5.02
   7  -2   1   39.12    5.37
   7   1  -1    7.28    4.22
   7   1  -1    5.80    3.59
  -7  -1   1   10.35    5.63
   6   1  -1   37.61    4.69
   6   1  -1   43.09    4.51
  -6  -1   1   38.20    4.45
   5   1  -1   24.91    3.33
   5   1  -1   23.86    2.92
   5   1  -1   19.88    2.44
  -5  -1   1   18.11    1.70
  -5  -1   1   19.64    1.73
  -5  -1   1   17.82    2.72
   4   1  -1   79.41    3.43
   4   1  -1   83.15    3.52
   4   1  -1   86.43    4.06
  -4  -1   1   83.50    4.00
  -4  -1   1   80.11    2.88
  -4  -1   1   76.24    2.80
   3   1  -1   19.15    1.69
   3   1  -1   18.98    2.02
   3   1  -1   16.41    1.64
  -3  -1   1   19.41    1.89
  -3  -1   1   15.90    1.45
  -3  -1   1   19.76    1.51
   2   1  -1   76.81    2.83
   2   1  -1   78.89    2.54
   2   1  -1   73.67    2.54
  -2  -1   1   77.50    2.48
  -2  -1   1   79.20    2.48
  -2  -1   1   75.85    2.79
   1   1  -1    0.15    0.66
   1   1  -1   -0.22    0.36
   1   1  -1    0.34    0.51
  -1  -1   1    0.85    0.66
  -1  -1   1    0.98    0.52
  -1  -1   1    0.71    0.46
   0   1  -1   16.11    0.83
   0   1  -1   14.23    0.84
   0  -1   1   16.15    0.85
   0  -1   1   13.56    0.84
  -1   1  -1  227.76    4.75
   1  -1   1  219.65    4.34
   1  -1   1  226.23    4.38
   1  -1   1  232.63    4.71
   2  -1   1    8.84    0.90
  -3   1  -1   41.97    1.97
   3  -1   1   39.08    1.39
   3  -1   1   42.65    1.39
   3  -1   1   43.65    2.04
  -4   1  -1   24.64    2.18
   4  -1   1   26.82    1.59
   4  -1   1   24.32    1.57
   4  -1   1   22.82    2.26
   5  -1   1   33.85    3.45
   5  -1   1   29.14    2.37
   5  -1   1   25.12    2.22
   6  -1   1    1.75    1.79
   6  -1   1    5.20    2.77
   7  -1   1   10.60    2.86
   7  -1   1   15.88    3.29
   7   0  -1   13.38    3.56
   7   0  -1   12.49    4.05
  -7   0   1   15.28    5.59
   6   0  -1  120.45    5.59
   6   0  -1  108.20    6.55
   6   0  -1  120.92    5.37
  -6   0   1  119.97    6.70
   5   0  -1    1.45    1.49
   5   0  -1   -0.46    1.48
   5   0  -1   -0.14    2.06
   4   0  -1  149.48    4.49
   4   0  -1  148.97    5.15
   4   0  -1  149.71    4.51
  -4   0   1  159.47    5.37
   3   0  -1    5.33    1.21
   3   0  -1    6.61    1.03
   3   0  -1    5.01    0.96
  -3   0   1    5.91    0.76
  -3   0   1    5.77    0.88
  -3   0   1    6.01    1.26
   2   0  -1  154.61    3.59
   2   0  -1  141.91    3.56
   2   0  -1  148.94    4.02
  -2   0   1  147.57    3.39
  -2   0   1  142.02    3.36
  -2   0   1  140.38    3.95
   1   0  -1   58.88    1.65
   1   0  -1   56.16    1.65
   1   0  -1   56.66    1.88
  -1   0   1   54.62    1.83
  -1   0   1   59.18    1.61
  -1   0   1   58.62    1.64
   0   0  -1    0.53    0.18
   0   0  -1    0.25    0.22
  -1   0  -1   29.99    0.83
  -1   0  -1   29.05    0.90
   1   0   1   29.38    0.91
   1   0   1   30.58    0.93
   1   0   1   28.21    0.90
  -2   0  -1   44.73    1.64
   2   0   1   44.15    1.41
   2   0   1   44.16    1.65
   2   0   1   46.42    1.42
  -3   0  -1    4.95    1.06
   3   0   1    3.14    0.70
   3   0   1    5.04    1.11
   3   0   1    4.30    0.75
  -4   0  -1  168.48    5.12
   4   0   1  164.07    4.48
   4   0   1  168.26    4.49
   4   0   1  177.19    5.19
  -5   0  -1    5.55    1.99
   5   0   1    5.08    1.42
   5   0   1    4.46    1.90
   5   0   1    4.98    1.39
  -6   0  -1   15.96    3.30
   6   0   1   10.62    2.34
   7   0   1   -5.61    2.59
   7   0   1    0.19    3.17
   7  -1  -1    0.66    3.58
   7  -1  -1    5.44    4.86
   7  -1  -1    0.62    3.08
   6  -1  -1   82.01    4.37
   6  -1  -1   86.09    4.64
   6  -1  -1   80.95    6.25
   5  -1  -1    4.38    1.49
   5  -1  -1    3.10    1.37
   5  -1  -1    0.84    2.05
  -5   1   1    4.31    2.25
   4  -1  -1   67.49    3.60
   4  -1  -1   68.78    2.70
   4  -1  -1   66.13    2.63
  -4   1   1   68.90    3.44
   3  -1  -1   14.76    1.23
   3  -1  -1   15.90    1.86
   3  -1  -1   16.78    1.21
  -3   1   1   18.10    1.79
   2  -1  -1  378.86    7.08
   2  -1  -1  338.32    7.03
   2  -1  -1  360.79    7.86
  -2   1   1  352.00    7.74
   1  -1  -1  154.75    2.93
   1  -1  -1  140.78    2.94
   1  -1  -1  136.34    3.37
  -1   1   1  134.01    2.83
   0  -1  -1  697.35   14.03
   0  -1  -1  705.61   13.94
   0  -1  -1  737.78   14.13
   0   1   1  721.75   13.70
   0   1   1  638.70   13.72
  -1  -1  -1    5.43    0.67
  -1  -1  -1    5.64    0.70
   1   1   1    4.40    0.67
   1   1   1    5.22    0.71
  -2  -1  -1  204.89    4.90
  -2  -1  -1  210.43    4.62
  -2  -1  -1  209.69    4.60
   2   1   1  211.08    4.76
  -3  -1  -1   21.08    1.27
  -3  -1  -1   18.67    1.74
  -3  -1  -1   21.86    1.26
   3   1   1   23.40    1.59
   3   1   1   20.48    1.52
  -4  -1  -1  231.54    5.08
  -4  -1  -1  241.35    6.59
  -4  -1  -1  236.98    5.13
   4   1   1  247.12    6.13
   4   1   1  247.47    6.19
  -5  -1  -1   45.60    3.77
   5   1   1   42.49    2.90
  -6  -1  -1  128.89    6.53
   6   1   1  131.81    5.64
  -7  -1  -1    1.08    4.36
   7   1   1    1.17    3.46
   7   1   1    0.50    2.99
   7  -2  -1   23.42    5.70
   7  -2  -1   24.94    3.40
   7  -2  -1   22.62    5.57
   7  -2  -1   20.77    4.14
   6  -2  -1   13.09    3.51
   6  -2  -1   13.21    3.33
   6  -2  -1   13.32    2.33
   6  -2  -1   15.29    2.37
   5  -2  -1   -0.57    1.10
   5  -2  -1    1.19    1.26
   5  -2  -1   -3.03    1.92
   4  -2  -1    0.48    0.75
   4  -2  -1    1.17    1.47
   4  -2  -1    0.80    0.81
   3  -2  -1   51.35    1.57
   3  -2  -1   47.13    1.56
   3  -2  -1   54.07    2.67
   2  -2  -1  431.74    9.46
   2  -2  -1  427.40    9.17
   1  -2  -1  867.17   16.45
   1  -2  -1  908.78   16.75
   1  -2  -1  911.94   17.32
  -1   2   1  896.87   17.36
   0  -2  -1  433.09    8.49
   0  -2  -1  435.12    8.45
   0   2   1  443.41    8.47
   0   2   1  433.65    8.68
   0   2   1  428.73    8.39
  -1  -2  -1    0.08    0.42
   1   2   1   -0.06    0.40
   1   2   1    0.16    0.44
  -2  -2  -1  103.14    3.05
  -2  -2  -1  107.47    3.26
  -2  -2  -1  107.74    3.08
   2   2   1  105.99    3.13
  -3  -2  -1   12.87    1.34
  -3  -2  -1   14.08    1.81
  -3  -2  -1   14.30    1.43
   3   2   1   14.00    1.53
  -4  -2  -1  187.27    5.83
  -4  -2  -1  185.56    4.92
  -4  -2  -1  186.74    4.92
   4   2   1  191.82    5.49
  -5  -2  -1   24.34    1.97
  -5  -2  -1   25.90    3.40
  -5  -2  -1   26.05    2.05
   5   2   1   28.06    3.02
  -6  -2  -1   71.12    5.75
   6   2   1   63.39    4.86
   6   2   1   55.59    4.50
  -7  -2  -1   -5.42    4.53
   7   2   1   -1.55    2.97
   7   2   1   -0.25    3.72
   7  -3  -1   22.08    3.17
   7  -3  -1    9.96    5.67
   7  -3  -1   24.65    5.65
   7  -3  -1   24.51    3.61
   6  -3  -1    3.63    1.98
   6  -3  -1    1.11    1.70
   6  -3  -1    2.54    3.42
   6  -3  -1    2.78    3.23
   5  -3  -1  139.11    4.01
   5  -3  -1  152.49    6.17
   5  -3  -1  136.56    4.02
   5  -3  -1  154.44    6.06
   4  -3  -1    5.51    1.64
   4  -3  -1    2.81    0.73
   4  -3  -1    2.92    0.74
   4  -3  -1    1.25    1.43
   3  -3  -1  228.07    6.39
   3  -3  -1  226.80    6.09
   2  -3  -1   84.27    3.11
   1  -3  -1   45.80    1.38
   1  -3  -1   50.62    2.04
   1  -3  -1   47.32    1.43
  -1   3   1   47.45    2.05
   0  -3  -1   32.25    1.42
   0  -3  -1   31.41    1.40
   0   3   1   32.82    1.36
   0   3   1   31.01    1.30
   0   3   1   32.61    1.62
  -1  -3  -1  295.79    6.69
   1   3   1  303.56    6.69
   1   3   1  302.58    6.68
  -2  -3  -1   46.38    2.15
  -2  -3  -1   42.26    2.11
   2   3   1   45.05    2.15
   2   3   1   47.64    2.15
  -3  -3  -1   35.94    2.21
  -3  -3  -1   36.16    2.15
  -3  -3  -1   35.90    2.47
   3   3   1   34.52    2.15
  -4  -3  -1   -0.13    1.12
  -4  -3  -1    1.51    1.45
  -4  -3  -1    1.13    1.00
   4   3   1    0.32    1.09
  -5  -3  -1   77.42    3.63
  -5  -3  -1   75.22    3.54
  -5  -3  -1   81.05    4.89
   5   3   1   77.61    4.44
  -6  -3  -1   17.93    2.11
  -6  -3  -1   15.66    3.69
  -6  -3  -1   18.53    2.67
   6   3   1   11.32    2.77
   6   3   1   20.09    3.17
  -7  -3  -1   13.55    5.30
   7   3   1    5.17    3.37
   7   3   1    6.00    4.13
   7  -4  -1    4.49    5.27
   6  -4  -1   10.70    4.05
   6  -4  -1   11.11    3.66
   6  -4  -1    9.67    1.78
   6  -4  -1   11.90    2.02
   5  -4  -1  101.33    5.47
   5  -4  -1   98.98    3.01
   5  -4  -1   99.76    5.23
   5  -4  -1   98.50    2.95
   4  -4  -1   10.46    2.25
   4  -4  -1   10.86    2.10
   3  -4  -1  164.31    5.03
   3  -4  -1  172.36    5.41
   2  -4  -1    6.42    0.72
   2  -4  -1    6.29    1.17
   2  -4  -1    7.65    0.80
  -2   4   1    8.07    1.49
   1  -4  -1   24.33    1.76
   1  -4  -1   24.63    1.31
   1  -4  -1   21.56    1.24
   0  -4  -1   30.36    1.64
   0  -4  -1   29.16    1.62
   0   4   1   28.07    1.83
   0   4   1   28.28    1.47
   0   4   1   27.94    1.44
  -1  -4  -1  704.46   14.60
  -1  -4  -1  706.81   14.43
   1   4   1  709.40   14.37
   1   4   1  709.25   14.37
  -2  -4  -1   21.22    1.83
  -2  -4  -1   22.15    1.83
   2   4   1   22.12    1.80
   2   4   1   21.21    1.83
  -3  -4  -1  170.07    5.16
  -3  -4  -1  171.07    5.45
  -3  -4  -1  181.34    5.31
   3   4   1  173.15    5.32
   3   4   1  167.65    5.20
  -4  -4  -1   48.79    3.19
  -4  -4  -1   54.77    3.55
  -4  -4  -1   44.75    2.94
   4   4   1   48.41    3.32
   4   4   1   40.52    3.07
  -5  -4  -1   61.15    4.65
  -5  -4  -1   59.03    3.85
  -5  -4  -1   60.50    3.85
   5   4   1   60.36    4.25
   5   4   1   59.16    5.89
  -6  -4  -1    1.89    2.01
  -6  -4  -1   -1.83    1.98
  -6  -4  -1   -1.55    3.15
   6   4   1   -0.17    2.65
   6   4   1   -2.96    2.22
  -7  -4  -1   92.85    4.90
  -7  -4  -1   89.34    4.70
  -7  -4  -1   93.34    9.45
   7   4   1  100.13    7.23
   7   4   1   94.72    8.77
   6  -5  -1   12.89    4.02
   6  -5  -1    8.02    1.50
   6  -5  -1   11.65    4.16
   5  -5  -1   28.20    4.51
   5  -5  -1   20.86    3.27
   4  -5  -1   -1.20    1.86
   4  -5  -1    1.36    1.89
   3  -5  -1    0.01    1.32
   3  -5  -1   -0.02    0.56
   3  -5  -1   -0.06    0.51
   2  -5  -1   13.13    1.78
   2  -5  -1   13.23    1.22
   2  -5  -1   11.77    1.16
  -2   5   1   14.10    2.09
   1  -5  -1   62.77    2.36
   1  -5  -1   65.85    2.41
  -1   5   1   63.30    1.68
  -1   5   1   64.39    1.71
   0  -5  -1   12.70    1.46
   0  -5  -1   14.05    1.54
   0   5   1   12.86    1.27
   0   5   1   15.58    1.42
   0   5   1   16.37    1.77
  -1  -5  -1  136.51    4.29
  -1  -5  -1  143.97    4.33
   1   5   1  134.09    4.15
   1   5   1  133.12    4.14
  -2  -5  -1   44.09    2.53
  -2  -5  -1   43.68    2.55
   2   5   1   42.78    2.51
   2   5   1   40.20    2.42
  -3  -5  -1  258.50    7.28
  -3  -5  -1  271.72    7.57
  -3  -5  -1  257.01    7.24
   3   5   1  261.08    7.29
   3   5   1  257.09    7.20
  -4  -5  -1   94.60    4.37
  -4  -5  -1   99.88    4.88
  -4  -5  -1  100.41    4.48
   4   5   1   88.26    4.34
   4   5   1   87.30    4.39
  -5  -5  -1  116.81    6.35
  -5  -5  -1  113.39    5.19
   5   5   1  105.69    5.70
   5   5   1  103.94    5.28
  -6  -5  -1   24.47    4.79
  -6  -5  -1   18.64    3.37
   6   5   1   19.05    3.62
   6   5   1   24.25    3.79
  -7  -5  -1   37.43    5.90
  -7  -5  -1   40.16    5.84
   7   5   1   45.57    5.17
   6  -6  -1   34.44    5.42
   6  -6  -1   33.23    5.27
   5  -6  -1    0.09    2.91
   5  -6  -1   -3.76    5.10
   4  -6  -1   42.23    1.81
   4  -6  -1   45.99    1.95
   4  -6  -1   43.66    4.23
   4  -6  -1   41.71    3.90
   3  -6  -1    0.07    1.52
   3  -6  -1   -0.71    0.85
   3  -6  -1   -0.03    0.81
   2  -6  -1   33.47    2.75
   2  -6  -1   39.67    2.09
   2  -6  -1   37.11    2.03
  -2   6   1   35.48    3.09
   1  -6  -1    1.16    0.96
   1  -6  -1    0.97    0.94
  -1   6   1    1.18    1.11
  -1   6   1    0.99    0.53
  -1   6   1    0.87    0.58
   0  -6  -1  103.41    3.69
   0   6   1   98.16    3.25
   0   6   1   98.53    3.37
   0   6   1  104.59    4.00
  -1  -6  -1   12.59    1.82
  -1  -6  -1   11.20    1.69
   1   6   1    7.39    1.29
   1   6   1    6.64    1.20
  -2  -6  -1   26.33    2.43
  -2  -6  -1   26.72    2.49
   2   6   1   28.60    2.44
   2   6   1   27.44    2.35
  -3  -6  -1    7.85    1.64
  -3  -6  -1    7.41    1.71
   3   6   1    6.77    1.67
   3   6   1    5.90    2.46
  -4  -6  -1   17.01    2.91
  -4  -6  -1   14.93    4.27
  -4  -6  -1   13.59    2.32
   4   6   1   10.78    2.04
   4   6   1   19.90    2.89
  -5  -6  -1    7.67    2.59
  -5  -6  -1    9.98    3.54
  -5  -6  -1   12.55    2.56
   5   6   1   16.23    2.70
   5   6   1   13.11    2.82
  -6  -6  -1    4.70    3.29
  -6  -6  -1   -3.35    3.04
  -6  -6  -1    1.30    4.31
   6   6   1    6.70    3.34
   6   6   1    5.47    2.84
   6  -7  -1    8.20    6.55
   6  -7  -1   16.49    5.21
   5  -7  -1    8.32    4.24
   5  -7  -1    6.19    3.68
   4  -7  -1   33.61    4.59
   4  -7  -1   40.24    4.74
   4  -7  -1   37.85    2.53
   4  -7  -1   40.70    2.43
   3  -7  -1   14.05    1.72
   3  -7  -1   15.02    2.16
   3  -7  -1   17.02    2.71
  -3   7   1   13.00    2.90
   2  -7  -1  156.95    4.77
   2  -7  -1  162.15    4.83
  -2   7   1  164.42    6.28
   1  -7  -1    3.25    1.23
  -1   7   1    4.21    1.59
  -1   7   1    4.99    0.91
  -1   7   1    4.12    0.78
   0  -7  -1   67.37    3.43
   0  -7  -1   68.67    3.38
   0   7   1   64.98    2.83
   0   7   1   67.96    3.03
   0   7   1   70.21    3.71
  -1  -7  -1   28.00    2.61
  -1  -7  -1   30.49    2.85
   1   7   1   28.09    2.69
   1   7   1   24.78    2.34
  -2  -7  -1   96.74    4.40
   2   7   1   98.90    4.34
   2   7   1  100.30    4.48
  -3  -7  -1   26.23    3.22
  -3  -7  -1   26.89    3.07
   3   7   1   28.06    3.17
   3   7   1   27.77    3.05
  -4  -7  -1   30.88    4.15
  -4  -7  -1   38.83    4.34
  -4  -7  -1   38.17    4.42
   4   7   1   37.59    3.79
   4   7   1   42.38    4.11
  -5  -7  -1   16.70    3.49
  -5  -7  -1   31.55    4.86
  -5  -7  -1   20.12    3.31
   5   7   1   23.61    3.49
   5   7   1   22.49    3.19
  -6  -7  -1   43.55    5.25
  -6  -7  -1   34.57    4.86
   6   7   1   38.31    5.07
   5  -8  -1   -2.56    4.38
   5  -8  -1    3.91    4.38
   5  -8  -1   -0.92    1.88
   4  -8  -1   11.77    3.42
   4  -8  -1   12.11    2.21
   4  -8  -1   12.85    3.46
   3  -8  -1    5.47    1.86
  -3   8   1    4.81    3.17
   2  -8  -1   17.91    2.22
   1  -8  -1    5.24    1.59
   1  -8  -1    2.25    1.49
  -1   8   1    1.13    1.78
  -1   8   1    3.77    0.99
  -1   8   1    2.71    0.86
   0  -8  -1   22.03    2.99
   0  -8  -1   25.80    3.15
   0   8   1   23.08    3.28
   0   8   1   19.82    2.36
   0   8   1   26.91    2.67
  -1  -8  -1    2.63    1.68
  -1  -8  -1    2.39    1.62
   1   8   1    1.94    1.58
   1   8   1    3.84    1.43
  -2  -8  -1  110.93    5.07
  -2  -8  -1  115.09    5.24
   2   8   1  113.12    5.18
   2   8   1  107.70    5.74
  -3  -8  -1   56.72    4.44
  -3  -8  -1   53.93    4.33
   3   8   1   49.94    4.03
   3   8   1   61.35    4.56
  -4  -8  -1   65.78    5.48
  -4  -8  -1   59.38    5.67
  -4  -8  -1   64.47    5.26
   4   8   1   53.10    4.71
   4   8   1   56.48    5.00
  -5  -8  -1    9.66    4.32
  -5  -8  -1   -0.58    3.45
  -5  -8  -1    0.37    3.32
   5   8   1    2.69    2.99
   5   8   1    2.56    2.84
   5  -9  -1   39.48    6.05
   4  -9  -1    0.71    2.58
   4  -9  -1   -0.17    2.37
   3  -9  -1   35.80    4.19
   3  -9  -1   23.22    2.77
  -3   9   1   22.75    4.64
   2  -9  -1    4.75    2.04
   2  -9  -1    5.28    2.28
  -2   9   1    2.90    2.77
   1  -9  -1   11.33    2.49
  -1   9   1    7.06    2.42
   0  -9  -1    1.42    2.23
   0  -9  -1    0.42    1.83
   0   9   1    2.31    2.08
   0   9   1    1.41    1.64
   0   9   1    2.40    1.40
  -1  -9  -1   14.64    2.54
  -1  -9  -1   17.24    2.95
   1   9   1   19.43    3.04
   1   9   1   13.81    2.16
   1   9   1   15.44    2.48
  -2  -9  -1    8.29    2.51
  -2  -9  -1    7.80    2.24
   2   9   1    7.11    2.68
   2   9   1    7.88    2.12
  -3  -9  -1    2.50    2.26
  -3  -9  -1    0.46    2.43
   3   9   1   -0.47    2.67
   3   9   1   -1.94    2.07
  -4  -9  -1    2.98    3.50
  -4  -9  -1   -1.02    2.84
  -4  -9  -1    1.99    3.21
   4   9   1    0.98    3.43
   4   9   1    0.16    2.67
  -5  -9  -1    3.36    4.00
   5   9   1   -1.39    4.22
   4 -10  -1   -1.97    3.49
   4 -10  -1   -4.34    3.13
   3 -10  -1   20.26    3.59
   3 -10  -1   13.16    3.33
  -3  10   1    6.71    4.68
   2 -10  -1   -0.85    2.47
   2 -10  -1    4.60    2.95
  -2  10   1    4.08    3.87
   1 -10  -1   58.55    5.12
   1 -10  -1   78.07    5.75
  -1  10   1   72.04    5.88
   0 -10  -1   -0.56    2.39
   0 -10  -1    5.30    2.80
   0  10   1    1.87    2.05
   0  10   1    0.84    2.69
   0  10   1    3.47    1.93
  -1 -10  -1   56.40    5.31
  -1 -10  -1   56.64    5.53
   1  10   1   51.04    4.42
   1  10   1   70.88    5.30
   1  10   1   55.98    5.46
  -2 -10  -1   12.42    3.26
  -2 -10  -1   14.05    2.78
   2  10   1   20.70    3.59
   2  10   1   14.00    2.75
  -3 -10  -1   86.64    6.62
  -3 -10  -1   76.34    6.51
   3  10   1   84.34    6.26
   3  10   1   74.84    7.21
  -4 -10  -1    5.07    4.23
   3 -11  -1   23.65    4.55
   3 -11  -1   27.38    4.78
  -3  11   1   15.62    6.96
   2 -11  -1   -4.58    3.47
   2 -11  -1   -2.34    3.69
  -2  11   1    0.16    4.81
   1 -11  -1   38.93    4.67
   1 -11  -1   31.11    4.45
  -1  11   1   46.90    6.92
   0 -11  -1   16.76    3.96
   0 -11  -1   17.64    3.93
   0  11   1   24.33    3.23
   0  11   1   29.55    4.46
   0  11   1   21.63    2.79
  -1 -11  -1   25.78    4.04
  -1 -11  -1   33.48    4.74
   1  11   1   24.95    3.91
   1  11   1   33.13    3.81
   1  11   1   30.99    4.75
  -2 -11  -1    1.58    3.61
   2  11   1    5.06    3.73
   2  11   1   -1.05    3.90
   2  11   1    2.10    2.84
   3  11   1   23.79    5.62
   3  11   1   23.47    4.02
   1 -12  -1    8.55    5.17
   1 -12  -1   -1.90    4.69
  -1  12   1    8.42    5.62
   0 -12  -1    4.72    4.78
   0  12   1    5.07    3.06
   0  12   1    3.72    4.71
  -1 -12  -1    4.40    4.83
   1  12   1   -4.40    7.73
   1  12   1    2.39    4.21
   1  12   1    9.97    3.52
   2  10  -2   -1.80    3.95
   2  10  -2   -4.22    3.58
  -2 -10   2   -1.23    5.21
  -2 -10   2    1.61    4.14
   1  10  -2    7.36    3.80
   1  10  -2    2.48    2.98
   1  10  -2    0.11    3.79
  -1 -10   2    4.63    3.71
  -1 -10   2   -0.12    4.02
  -1 -10   2    1.62    4.01
   0  10  -2   16.57    2.79
   0  10  -2   17.02    4.24
   0  10  -2   16.47    3.42
   0 -10   2   18.95    4.21
   0 -10   2   14.36    4.04
  -1  10  -2    0.98    3.79
   1 -10   2    2.78    3.73
   1 -10   2    6.53    3.79
  -2  10  -2   23.92    5.47
   2 -10   2   22.75    4.74
   2 -10   2   30.08    4.94
  -3  10  -2    4.24    6.12
   3 -10   2   26.17    5.20
   3 -10   2   19.36    4.78
   3   9  -2   25.68    4.04
   3   9  -2   19.73    4.68
  -3  -9   2   28.46    5.06
  -3  -9   2   25.49    4.35
   2   9  -2    5.67    3.28
   2   9  -2   -0.24    2.83
  -2  -9   2    1.12    2.77
  -2  -9   2   10.02    3.17
  -2  -9   2    2.67    4.06
   1   9  -2   49.39    4.74
   1   9  -2   41.36    5.16
  -1  -9   2   44.72    5.48
  -1  -9   2   53.47    5.68
  -1  -9   2   51.45    5.54
   0   9  -2    7.43    3.17
   0   9  -2   11.36    2.24
   0   9  -2    8.98    2.67
   0  -9   2   12.38    3.19
   0  -9   2   10.63    3.02
  -1   9  -2   17.83    1.91
  -1   9  -2   20.55    2.32
  -1   9  -2   19.76    3.73
   1  -9   2   19.36    3.30
   1  -9   2   22.91    3.88
  -2   9  -2   15.46    3.98
   2  -9   2    9.53    3.05
   2  -9   2   11.68    3.22
  -3   9  -2   23.63    5.27
   3  -9   2   22.77    3.79
   3  -9   2   19.87    3.79
   4  -9   2   15.30    4.28
   4  -9   2    6.63    3.78
   4  -9   2    9.94    3.80
   4   8  -2   16.31    5.01
   4   8  -2    1.02    3.03
  -4  -8   2    6.27    3.49
  -4  -8   2    6.88    3.55
  -4  -8   2   17.82    5.32
   3   8  -2   62.87    5.58
   3   8  -2   78.36    6.71
  -3  -8   2   81.43    6.50
  -3  -8   2   69.99    5.97
  -3  -8   2   75.13    6.06
   2   8  -2    7.66    2.53
   2   8  -2    9.74    2.39
  -2  -8   2    9.47    2.97
  -2  -8   2    6.53    2.36
  -2  -8   2    3.84    2.24
   1   8  -2  137.06    5.80
   1   8  -2  112.35    8.98
  -1  -8   2  136.99    6.41
  -1  -8   2  135.71    6.27
   0   8  -2   13.62    2.42
   0   8  -2   16.27    2.24
   0  -8   2   13.94    2.80
   0  -8   2   16.42    2.53
  -1   8  -2  118.78    5.87
  -1   8  -2  113.38    3.93
  -1   8  -2  113.05    3.65
   1  -8   2  113.58    5.49
   1  -8   2  124.32    5.82
   2  -8   2    1.64    2.20
  -3   8  -2   52.07    5.89
   3  -8   2   61.54    4.83
   3  -8   2   62.55    4.82
   4  -8   2    3.33    3.10
   4  -8   2    5.03    2.76
   4  -8   2    4.75    2.65
   5  -8   2   26.32    4.39
   5   7  -2    3.95    3.35
  -5  -7   2    9.73    4.53
  -5  -7   2   11.93    4.04
   4   7  -2    7.79    2.71
   4   7  -2   14.54    3.79
  -4  -7   2   12.93    4.12
  -4  -7   2   15.74    3.61
  -4  -7   2    9.14    2.96
   3   7  -2   54.25    4.57
   3   7  -2   68.18    5.33
  -3  -7   2   68.55    4.90
  -3  -7   2   64.94    5.02
  -3  -7   2   75.03    5.31
   2   7  -2   19.26    2.73
   2   7  -2   16.36    2.60
  -2  -7   2   15.87    2.97
  -2  -7   2   13.06    2.16
  -2  -7   2   20.32    3.06
   1   7  -2   68.71    4.08
   1   7  -2   71.51    4.02
  -1  -7   2   66.83    4.15
   0   7  -2    0.08    1.80
   0   7  -2   -0.43    1.28
   0   7  -2    2.29    1.61
   0  -7   2    2.58    1.69
   0  -7   2    0.42    1.70
  -1   7  -2   49.51    2.39
  -1   7  -2   50.85    2.68
  -1   7  -2   48.60    3.81
   1  -7   2   50.61    3.70
   1  -7   2   50.07    3.75
  -2   7  -2   26.73    3.58
   2  -7   2   21.28    3.01
   2  -7   2   25.67    3.17
  -3   7  -2   69.33    5.14
   3  -7   2   71.97    3.81
   3  -7   2   76.18    3.99
   4  -7   2   13.96    2.28
   4  -7   2   10.10    2.19
   4  -7   2   10.82    2.75
   5  -7   2   28.05    2.70
   5  -7   2   33.68    3.90
   5  -7   2   28.30    2.65
   5  -7   2   37.77    4.83
  -6  -6   2   12.83    4.90
  -6  -6   2   13.43    4.67
   5   6  -2   39.16    4.57
  -5  -6   2   31.34    4.46
  -5  -6   2   38.25    4.48
  -5  -6   2   37.28    4.48
   4   6  -2  108.26    6.02
  -4  -6   2  107.60    6.07
  -4  -6   2  118.59    6.40
  -4  -6   2  118.68    6.32
   3   6  -2    3.82    1.89
  -3  -6   2    2.52    1.59
  -3  -6   2    4.33    2.07
  -3  -6   2    6.19    2.54
   2   6  -2   46.66    3.65
  -2  -6   2   41.33    3.63
  -2  -6   2   38.70    3.32
   1   6  -2    9.30    1.73
  -1  -6   2    8.04    1.76
  -1  -6   2   11.26    1.97
   0   6  -2   62.69    3.07
   0   6  -2   62.17    3.20
   0  -6   2   58.64    3.44
   0  -6   2   62.39    3.49
  -1   6  -2   20.42    2.71
  -1   6  -2   20.78    1.64
  -1   6  -2   21.43    1.97
   1  -6   2   19.78    2.54
   1  -6   2   17.89    2.38
  -2   6  -2   30.82    3.29
   2  -6   2   32.80    2.70
   2  -6   2   30.09    2.58
  -3   6  -2    9.68    2.46
   3  -6   2   11.98    1.72
   3  -6   2   11.04    1.66
   4  -6   2    4.35    1.47
   4  -6   2    4.94    1.51
   4  -6   2    5.08    2.09
   5  -6   2   20.18    2.93
   5  -6   2   20.60    3.74
   5  -6   2   20.35    2.70
   5  -6   2   15.67    1.87
   6  -6   2    9.13    4.77
   6  -6   2    3.59    3.93
  -6  -5   2   96.70    7.14
  -6  -5   2   95.92    7.30
   5   5  -2   13.50    3.63
   5   5  -2   12.93    3.32
  -5  -5   2   12.35    3.53
  -5  -5   2    7.29    2.76
  -5  -5   2   11.31    3.00
   4   5  -2  179.29    6.93
   4   5  -2  167.85    6.67
  -4  -5   2  178.81    7.07
  -4  -5   2  182.18    6.91
  -4  -5   2  186.40    6.96
   3   5  -2   23.46    3.01
   3   5  -2   20.71    2.70
  -3  -5   2   20.93    2.63
  -3  -5   2   25.65    3.08
  -3  -5   2   19.70    2.89
   2   5  -2   68.62    3.62
   2   5  -2   64.64    3.58
  -2  -5   2   63.63    3.63
  -2  -5   2   64.89    3.88
  -2  -5   2   66.86    3.64
   1   5  -2    0.11    1.03
   1   5  -2    0.24    1.05
  -1  -5   2   -0.57    0.90
  -1  -5   2   -0.33    0.93
   0   5  -2  295.00    7.06
   0   5  -2  289.18    7.16
   0  -5   2  290.51    7.50
   0  -5   2  285.83    7.41
  -1   5  -2   53.81    2.21
  -1   5  -2   49.63    2.08
  -1   5  -2   54.29    2.87
   1  -5   2   53.99    2.71
   1  -5   2   53.91    2.72
  -2   5  -2  256.27    7.17
   2  -5   2  271.49    6.49
   2  -5   2  271.19    6.56
   3  -5   2   19.86    1.81
   3  -5   2   16.91    2.57
   3  -5   2   21.12    1.90
   4  -5   2   40.94    2.14
   4  -5   2   43.69    3.05
   4  -5   2   40.57    2.23
   4  -5   2   42.26    3.69
   5  -5   2    9.85    3.18
   5  -5   2   14.32    2.49
   5  -5   2   10.45    1.37
   5  -5   2   10.55    1.45
   6  -5   2   78.66    5.77
   6  -5   2   77.22    7.04
   6   4  -2   12.04    3.89
   6   4  -2   13.35    4.09
  -6  -4   2   14.63    3.43
  -6  -4   2   11.13    3.14
  -6  -4   2   11.68    4.76
   5   4  -2    3.03    2.48
   5   4  -2    3.69    2.40
  -5  -4   2    4.94    2.37
  -5  -4   2    1.01    2.62
  -5  -4   2    4.76    3.03
   4   4  -2   17.87    2.47
   4   4  -2   26.12    3.38
  -4  -4   2   20.45    3.14
  -4  -4   2   28.48    3.46
  -4  -4   2   26.46    3.38
   3   4  -2    0.93    1.14
   3   4  -2    0.07    1.16
  -3  -4   2    1.12    1.12
  -3  -4   2    0.14    1.11
  -3  -4   2    0.73    1.54
   2   4  -2  163.97    5.16
   2   4  -2  159.62    5.20
  -2  -4   2  163.31    5.38
  -2  -4   2  163.76    5.26
  -2  -4   2  161.87    5.24
   1   4  -2    2.19    1.01
   1   4  -2    1.02    0.81
  -1  -4   2    1.34    0.93
  -1  -4   2    0.01    0.90
  -1  -4   2    1.74    0.89
   0   4  -2  304.50    7.07
   0   4  -2  288.35    6.89
   0  -4   2  298.05    7.23
   0  -4   2  301.41    7.27
  -1   4  -2   36.79    1.70
  -1   4  -2   38.20    1.65
  -1   4  -2   34.80    2.11
   1  -4   2   35.72    2.02
   1  -4   2   37.09    2.05
  -2   4  -2  340.63    8.19
   2  -4   2  344.67    7.52
   2  -4   2  356.55    7.62
   3  -4   2    9.21    1.56
   3  -4   2    7.73    1.02
   3  -4   2    8.42    1.31
   3  -4   2    8.15    1.04
   4  -4   2  174.45    5.71
   4  -4   2  157.65    3.78
   4  -4   2  164.84    4.85
   4  -4   2  151.42    3.83
   5  -4   2    6.78    1.05
   5  -4   2    5.80    1.20
   5  -4   2    6.87    2.09
   6  -4   2   21.25    4.21
   6  -4   2   21.42    2.68
   6  -4   2   16.32    3.14
   6  -4   2   19.68    2.27
   7  -4   2   15.44    5.96
   7  -4   2   22.57    5.19
   7   3  -2   44.60    5.49
   6   3  -2   -3.52    3.34
   6   3  -2   -6.55    2.85
  -6  -3   2    2.82    4.11
  -6  -3   2    3.05    2.50
  -6  -3   2    1.88    2.40
   5   3  -2   65.00    4.74
   5   3  -2   63.43    4.87
  -5  -3   2   60.84    4.84
  -5  -3   2   65.82    4.13
  -5  -3   2   58.44    4.04
   4   3  -2   12.47    2.11
   4   3  -2    8.27    2.66
  -4  -3   2   10.36    2.04
  -4  -3   2   10.11    2.49
  -4  -3   2    7.66    1.68
   3   3  -2   69.50    3.39
   3   3  -2   62.27    3.27
  -3  -3   2   56.47    3.35
  -3  -3   2   64.44    3.23
  -3  -3   2   61.25    3.21
   2   3  -2    1.66    0.85
   2   3  -2    2.92    1.14
  -2  -3   2    2.20    0.92
  -2  -3   2    3.34    1.11
  -2  -3   2    2.22    1.05
   1   3  -2   16.62    1.67
   1   3  -2   16.98    1.64
  -1  -3   2   16.73    1.75
  -1  -3   2   15.81    1.65
  -1  -3   2   15.01    1.61
   0   3  -2    4.68    0.85
   0   3  -2    6.26    1.00
   0  -3   2    5.17    1.02
   0  -3   2    5.43    1.03
  -1   3  -2   10.42    1.33
  -1   3  -2    9.49    1.02
   1  -3   2   10.39    1.18
   1  -3   2    8.85    1.14
  -2   3  -2   38.23    2.09
   2  -3   2   38.74    1.95
   2  -3   2   39.13    1.60
   2  -3   2   35.87    1.59
   3  -3   2   21.02    1.14
   3  -3   2   19.37    1.21
   3  -3   2   20.52    1.99
   3  -3   2   21.15    1.64
   4  -3   2   65.99    3.45
   4  -3   2   67.45    2.95
   4  -3   2   64.29    1.96
   4  -3   2   61.66    2.06
   5  -3   2   -0.42    1.09
   5  -3   2    1.88    1.81
   5  -3   2    1.85    2.23
   5  -3   2    0.35    0.92
   6  -3   2   22.38    2.89
   6  -3   2   21.36    3.31
   6  -3   2   23.23    3.77
   6  -3   2   19.57    2.57
   7  -3   2   -2.04    2.34
   7  -3   2   -2.66    2.64
   7  -3   2    0.35    4.89
   7   2  -2   31.68    5.73
   7   2  -2   23.99    4.97
   6   2  -2   11.53    3.41
   6   2  -2   15.26    3.31
  -6  -2   2   10.51    4.14
  -6  -2   2   14.12    2.40
  -6  -2   2   14.32    2.19
   5   2  -2   73.56    4.87
   5   2  -2   76.16    4.55
  -5  -2   2   71.77    3.78
  -5  -2   2   66.89    3.66
  -5  -2   2   78.11    5.11
   4   2  -2   31.83    3.08
   4   2  -2   31.55    3.01
  -4  -2   2   32.76    2.58
  -4  -2   2   35.10    3.12
  -4  -2   2   32.02    2.68
   3   2  -2  329.97    8.18
   3   2  -2  330.03    8.25
  -3  -2   2  321.24    7.95
  -3  -2   2  329.42    8.02
  -3  -2   2  340.67    8.66
   2   2  -2  283.49    6.74
  -2  -2   2  268.60    6.67
  -2  -2   2  269.97    6.69
  -2  -2   2  270.14    6.91
   1   2  -2   71.27    2.66
   1   2  -2   70.04    2.57
  -1  -2   2   69.16    2.62
  -1  -2   2   70.30    2.59
  -1  -2   2   68.22    2.57
   0   2  -2    0.34    0.54
   0   2  -2   -0.03    0.45
   0  -2   2   -0.23    0.54
   0  -2   2   -0.39    0.52
   0  -2   2   -0.70    0.47
  -1   2  -2  141.95    3.27
  -1   2  -2  146.35    3.35
  -1   2  -2  144.34    3.50
   1  -2   2  146.21    3.59
   1  -2   2  149.85    3.55
   2  -2   2   66.59    1.89
   2  -2   2   70.33    2.39
   2  -2   2   71.00    1.98
   2  -2   2   68.32    1.92
   3  -2   2  162.30    3.58
   3  -2   2  167.07    3.66
   3  -2   2  161.07    4.63
   3  -2   2  162.64    4.05
   4  -2   2   24.92    1.50
   4  -2   2   26.25    1.42
   4  -2   2   26.02    2.17
   4  -2   2   24.39    2.42
   5  -2   2   44.06    2.39
   5  -2   2   40.58    2.27
   5  -2   2   46.36    3.38
   5  -2   2   45.07    3.69
   6  -2   2   23.14    3.27
   6  -2   2   21.04    3.04
   6  -2   2   19.69    3.31
   6  -2   2   19.27    2.76
   7  -2   2   20.65    3.16
   7  -2   2   12.75    4.43
   7   1  -2    5.33    4.64
   7   1  -2   12.30    4.03
  -7  -1   2   12.80   11.92
   6   1  -2   20.26    3.55
   6   1  -2   23.75    3.24
  -6  -1   2   27.74    4.77
   5   1  -2    1.53    1.81
   5   1  -2    2.12    2.28
   5   1  -2    1.09    1.96
  -5  -1   2    2.34    2.39
  -5  -1   2    2.44    1.24
  -5  -1   2    2.23    1.21
   4   1  -2    9.51    1.74
   4   1  -2   10.81    2.04
   4   1  -2   10.32    1.75
  -4  -1   2    9.84    1.89
  -4  -1   2   11.18    1.52
  -4  -1   2    9.88    1.42
   3   1  -2  278.84    6.97
   3   1  -2  283.07    6.92
   3   1  -2  269.91    7.35
  -3  -1   2  273.37    6.66
  -3  -1   2  280.83    7.32
  -3  -1   2  272.85    6.64
   2   1  -2    6.60    0.97
   2   1  -2    8.34    1.20
   2   1  -2    7.16    1.31
  -2  -1   2    8.10    1.11
  -2  -1   2    9.55    1.44
  -2  -1   2    5.91    0.97
   1   1  -2  245.47    5.55
   1   1  -2  244.08    5.67
   1   1  -2  235.00    5.63
  -1  -1   2  243.10    5.61
  -1  -1   2  251.94    5.61
  -1  -1   2  236.80    5.57
   0   1  -2   40.40    1.52
   0   1  -2   39.00    1.58
   0  -1   2   37.04    1.55
   0  -1   2   37.86    1.54
   0  -1   2   38.49    1.38
  -1   1  -2  449.53    8.84
  -1   1  -2  455.55    8.74
  -1   1  -2  464.96    8.79
   1  -1   2  462.77    8.70
   1  -1   2  446.82    8.98
   1  -1   2  456.16    8.93
   2  -1   2  121.08    2.83
   2  -1   2  116.40    2.68
   2  -1   2  118.34    2.75
   2  -1   2  117.99    3.15
   3  -1   2  396.12    8.33
   3  -1   2  401.54    8.05
   3  -1   2  401.26    7.99
   4  -1   2   82.10    2.61
   4  -1   2   81.56    3.17
   4  -1   2   82.20    2.69
   5  -1   2   72.13    3.00
   5  -1   2   79.20    3.84
   5  -1   2   73.68    3.14
   6  -1   2   -1.06    1.50
   6  -1   2   -0.15    1.88
   7  -1   2   36.38    5.28
   7  -1   2   44.49    5.05
   7  -1   2   39.27    4.77
   7   0  -2    2.02    4.16
   7   0  -2    3.24    3.62
  -7   0   2    6.28    5.44
   6   0  -2  134.23    7.31
   6   0  -2  134.12    6.16
   6   0  -2  124.90    6.30
  -6   0   2  133.19    7.34
   5   0  -2   13.36    2.11
   5   0  -2   12.68    2.32
  -5   0   2   18.70    3.07
   4   0  -2   55.17    2.91
   4   0  -2   58.06    3.03
   4   0  -2   58.96    3.56
  -4   0   2   55.76    3.53
  -4   0   2   56.63    2.15
  -4   0   2   54.64    2.16
   3   0  -2   12.70    1.63
   3   0  -2   11.87    1.61
   3   0  -2   10.75    1.56
  -3   0   2   12.04    1.31
  -3   0   2   10.67    1.46
  -3   0   2   12.67    1.30
   2   0  -2    0.91    0.80
   2   0  -2    1.98    0.77
   2   0  -2    0.95    0.64
  -2   0   2    2.00    0.66
  -2   0   2    1.54    0.86
  -2   0   2    1.01    0.61
   1   0  -2  335.67    6.79
   1   0  -2  312.45    6.94
  -1   0   2  320.34    6.94
  -1   0   2  329.85    6.78
  -1   0   2  319.52    6.79
   0   0  -2    1.00    0.42
   0   0  -2    0.83    0.41
   0   0  -2    0.82    0.50
   0   0   2    0.76    0.39
   0   0   2    1.10    0.46
   0   0   2    1.08    0.42
  -1   0  -2   25.55    1.03
  -1   0  -2   25.88    1.08
   1   0   2   25.50    1.05
   1   0   2   25.85    1.14
  -2   0  -2   49.46    1.54
  -2   0  -2   50.59    1.35
  -2   0  -2   51.41    1.37
   2   0   2   52.76    1.70
   2   0   2   50.02    1.62
  -3   0  -2   33.68    1.74
   3   0   2   33.41    1.56
   3   0   2   31.46    1.58
  -4   0  -2    4.59    1.38
   4   0   2    5.54    0.99
   4   0   2    4.95    1.07
  -5   0  -2   96.41    4.19
   5   0   2   99.66    3.64
   5   0   2   94.50    3.77
  -6   0  -2    1.79    2.45
   6   0   2    2.28    1.83
   6   0   2    0.96    1.83
   7   0   2   48.62    5.42
   7   0   2   45.03    4.94
   7  -1  -2   21.81    4.42
   7  -1  -2   23.75    4.01
   7  -1  -2   14.43    5.66
   6  -1  -2  118.07    7.24
   6  -1  -2  112.12    5.71
   6  -1  -2  114.22    5.49
   5  -1  -2    2.22    1.72
   5  -1  -2    1.95    1.50
   5  -1  -2    1.45    2.23
  -5   1   2   -0.36    2.22
   4  -1  -2  109.64    4.65
   4  -1  -2  114.87    3.83
   4  -1  -2  113.62    3.84
  -4   1   2  117.96    4.60
   3  -1  -2    1.69    0.76
   3  -1  -2    1.45    0.74
   3  -1  -2    1.68    1.10
  -3   1   2    1.43    1.04
  -3   1   2    1.20    0.41
  -3   1   2    1.43    0.45
   2  -1  -2  284.10    6.31
   2  -1  -2  300.67    7.02
   2  -1  -2  306.46    6.30
  -2   1   2  285.26    6.81
  -2   1   2  290.29    5.99
  -2   1   2  288.49    6.00
   1  -1  -2   60.13    2.10
   1  -1  -2   62.10    1.81
   1  -1  -2   58.77    1.84
  -1   1   2   61.87    1.77
  -1   1   2   57.53    1.76
   0  -1  -2  682.50   13.04
   0  -1  -2  671.69   12.93
   0  -1  -2  678.67   12.80
   0   1   2  686.96   12.95
   0   1   2  686.26   13.04
   0   1   2  677.22   12.82
  -1  -1  -2   24.31    1.14
  -1  -1  -2   22.32    1.09
   1   1   2   23.42    1.10
   1   1   2   22.86    1.15
  -2  -1  -2   55.10    1.81
  -2  -1  -2   55.30    1.91
  -2  -1  -2   53.59    1.81
   2   1   2   54.39    1.88
   2   1   2   54.02    1.94
  -3  -1  -2   36.62    1.52
  -3  -1  -2   35.38    1.49
  -3  -1  -2   35.98    1.96
   3   1   2   34.79    1.80
   3   1   2   38.60    1.90
  -4  -1  -2   32.30    2.38
  -4  -1  -2   31.94    1.19
   4   1   2   32.88    2.14
   4   1   2   34.02    2.19
  -5  -1  -2    3.57    1.90
   5   1   2    0.53    1.41
   5   1   2    2.93    1.31
  -6  -1  -2   -0.34    3.02
   6   1   2   -1.30    1.85
   6   1   2   -0.48    1.84
  -7  -1  -2    3.30    4.31
   7   1   2   -2.48    3.09
   7   1   2   -5.06    4.04
   7  -2  -2    5.49    5.76
   7  -2  -2    2.16    3.14
   7  -2  -2    5.91    3.83
   6  -2  -2   60.11    6.04
   6  -2  -2   49.06    4.37
   6  -2  -2   56.15    4.17
   5  -2  -2    1.73    1.35
   5  -2  -2    0.43    2.23
   5  -2  -2    1.43    1.43
   4  -2  -2   62.18    2.61
   4  -2  -2   59.37    2.62
   4  -2  -2   62.47    3.73
   3  -2  -2    1.03    0.66
   3  -2  -2    0.41    0.65
   3  -2  -2    0.31    0.98
   2  -2  -2  534.03   11.39
   2  -2  -2  529.22   11.15
   2  -2  -2  504.00   10.22
   2  -2  -2  521.06   10.17
   1  -2  -2  965.49   18.55
   1  -2  -2 1000.00   19.17
   1  -2  -2  999.89   18.50
  -1   2   2  982.46   18.38
  -1   2   2  991.78   18.33
   0  -2  -2  111.51    2.73
   0  -2  -2  110.35    2.83
   0  -2  -2  112.46    2.82
   0   2   2  111.18    2.84
   0   2   2  108.10    2.67
   0   2   2  111.42    2.80
  -1  -2  -2   32.77    1.46
  -1  -2  -2   30.03    1.41
   1   2   2   31.38    1.47
   1   2   2   32.91    1.41
  -2  -2  -2  429.36    8.96
   2   2   2  417.84    8.99
   2   2   2  434.96    9.12
  -3  -2  -2   35.71    1.82
  -3  -2  -2   33.54    1.86
  -3  -2  -2   33.22    2.14
   3   2   2   34.34    2.03
   3   2   2   32.94    1.91
  -4  -2  -2  273.67    6.45
  -4  -2  -2  276.77    7.33
  -4  -2  -2  284.77    6.50
   4   2   2  285.42    7.21
   4   2   2  270.94    7.00
  -5  -2  -2   72.28    4.22
  -5  -2  -2   75.66    2.63
  -5  -2  -2   79.40    2.69
   5   2   2   80.07    3.91
   5   2   2   82.14    3.85
  -6  -2  -2   77.29    5.66
   6   2   2   75.59    4.74
   6   2   2   70.35    4.48
  -7  -2  -2   -4.30    4.43
   7   2   2    0.36    2.88
   7   2   2    0.51    3.50
   7  -3  -2   17.01    4.33
   7  -3  -2   15.35    5.81
   7  -3  -2   16.98    3.48
   6  -3  -2    5.33    3.24
   6  -3  -2    0.72    3.68
   6  -3  -2    3.81    2.26
   6  -3  -2    0.80    1.98
   5  -3  -2   28.58    4.02
   5  -3  -2   23.03    2.60
   5  -3  -2   17.91    2.37
   5  -3  -2   32.32    3.82
   4  -3  -2   28.52    2.74
   4  -3  -2   24.95    2.95
   4  -3  -2   24.99    1.83
   4  -3  -2   21.65    1.81
   3  -3  -2   21.51    1.28
   3  -3  -2   25.05    2.35
   3  -3  -2   23.09    1.29
   3  -3  -2   23.25    2.09
   2  -3  -2   66.85    1.97
   2  -3  -2   67.49    2.90
   2  -3  -2   68.18    1.92
   1  -3  -2   14.42    0.92
   1  -3  -2   16.04    1.37
   1  -3  -2   15.24    0.99
  -1   3   2   15.73    0.78
  -1   3   2   15.65    1.44
  -1   3   2   14.94    0.76
   0  -3  -2  464.55    9.18
   0  -3  -2  463.85    9.29
   0   3   2  453.69    9.08
   0   3   2  462.36    9.21
   0   3   2  433.21    9.42
  -1  -3  -2   51.18    2.02
  -1  -3  -2   50.34    2.01
   1   3   2   49.04    2.01
   1   3   2   50.57    1.96
  -2  -3  -2  167.52    4.48
  -2  -3  -2  161.01    4.44
   2   3   2  172.62    4.58
   2   3   2  160.99    4.44
  -3  -3  -2    1.35    0.89
  -3  -3  -2    1.50    0.87
  -3  -3  -2    1.93    1.01
   3   3   2    1.75    0.94
   3   3   2    1.06    0.84
  -4  -3  -2  143.53    4.49
  -4  -3  -2  144.93    4.52
  -4  -3  -2  147.10    5.16
   4   3   2  139.07    4.73
   4   3   2  140.17    4.85
  -5  -3  -2   27.56    3.24
  -5  -3  -2   21.87    2.41
  -5  -3  -2   19.10    2.45
   5   3   2   21.73    2.60
   5   3   2   22.37    2.85
  -6  -3  -2   88.25    5.84
  -6  -3  -2   79.17    3.36
  -6  -3  -2   81.69    3.33
   6   3   2   78.97    5.52
   6   3   2   87.41    5.00
  -7  -3  -2    1.81    5.03
   7   3   2   -4.03    2.79
   7   3   2    1.35    3.44
   7  -4  -2   26.15    6.46
   6  -4  -2   19.19    2.38
   6  -4  -2   15.86    2.36
   6  -4  -2   20.08    4.40
   6  -4  -2   15.52    4.16
   5  -4  -2   62.38    2.93
   5  -4  -2   70.48    5.23
   5  -4  -2   62.83    2.83
   5  -4  -2   61.88    4.96
   4  -4  -2    0.30    1.84
   4  -4  -2    2.21    0.83
   4  -4  -2    0.97    1.72
   4  -4  -2    2.08    0.84
   3  -4  -2  290.27    7.70
   3  -4  -2  279.01    5.79
   3  -4  -2  273.33    7.34
   3  -4  -2  276.02    5.86
   2  -4  -2   23.00    1.96
   2  -4  -2   23.72    1.23
   2  -4  -2   22.93    1.24
  -2   4   2   24.87    2.17
   1  -4  -2  328.03    7.04
   1  -4  -2  337.44    6.97
   1  -4  -2  322.36    7.74
  -1   4   2  328.78    6.54
  -1   4   2  338.08    7.90
  -1   4   2  346.19    6.55
   0  -4  -2   17.99    1.37
   0  -4  -2   17.54    1.31
   0   4   2   16.94    1.21
   0   4   2   18.62    1.26
   0   4   2   18.67    1.58
  -1  -4  -2  232.05    5.74
  -1  -4  -2  234.91    6.66
   1   4   2  231.59    5.66
   1   4   2  234.12    5.74
  -2  -4  -2    9.66    1.22
  -2  -4  -2   11.35    1.43
   2   4   2    8.66    1.22
   2   4   2   10.46    1.46
  -3  -4  -2   49.15    2.61
  -3  -4  -2   45.86    2.62
   3   4   2   43.25    2.50
   3   4   2   47.25    2.57
  -4  -4  -2    2.22    1.25
  -4  -4  -2    1.86    1.65
  -4  -4  -2    1.46    1.27
   4   4   2    4.09    1.37
   4   4   2    3.31    1.46
  -5  -4  -2   30.79    3.06
  -5  -4  -2   26.84    3.13
  -5  -4  -2   29.79    4.11
   5   4   2   29.61    3.28
   5   4   2   29.87    3.28
  -6  -4  -2   26.30    3.44
  -6  -4  -2   20.64    3.90
  -6  -4  -2   27.93    2.85
   6   4   2   29.51    3.77
   6   4   2   22.28    3.18
  -7  -4  -2    2.05    2.02
  -7  -4  -2   -1.85    1.88
  -7  -4  -2    1.04    5.22
   7   4   2   -3.53    3.19
   7   4   2    2.32    4.21
   6  -5  -2    0.41    1.83
   6  -5  -2    3.23    4.11
   6  -5  -2    3.58    3.31
   6  -5  -2   -0.38    3.91
   5  -5  -2  126.47    3.80
   5  -5  -2  126.26    3.79
   5  -5  -2  141.93    6.53
   5  -5  -2  129.48    6.93
   4  -5  -2   14.92    2.36
   4  -5  -2   12.35    1.56
   4  -5  -2   16.96    1.51
   4  -5  -2   16.76    2.67
   3  -5  -2   29.86    2.60
   3  -5  -2   27.06    1.49
   3  -5  -2   30.38    1.53
   2  -5  -2    1.49    0.72
   2  -5  -2    2.64    0.76
   2  -5  -2    3.39    1.13
  -2   5   2    3.28    1.26
   1  -5  -2  462.89    9.62
   1  -5  -2  463.33    9.72
   1  -5  -2  462.80   10.45
  -1   5   2  477.33    9.02
  -1   5   2  438.85    8.96
  -1   5   2  473.37   10.69
   0  -5  -2   50.20    2.29
   0  -5  -2   45.71    2.22
   0   5   2   47.50    2.11
   0   5   2   45.33    1.98
   0   5   2   51.10    2.60
  -1  -5  -2  391.79    8.87
  -1  -5  -2  384.12    8.86
   1   5   2  384.22    8.70
   1   5   2  377.79    8.75
  -2  -5  -2   79.69    3.30
  -2  -5  -2   77.03    3.27
   2   5   2   82.02    3.30
   2   5   2   80.25    3.28
  -3  -5  -2  114.94    4.33
  -3  -5  -2  118.08    4.43
   3   5   2  116.93    4.36
   3   5   2  115.17    4.30
  -4  -5  -2    6.91    2.39
  -4  -5  -2    6.41    1.71
  -4  -5  -2    5.27    1.69
   4   5   2    5.11    1.64
  -5  -5  -2   85.34    4.69
  -5  -5  -2   95.04    5.69
  -5  -5  -2   87.45    4.62
   5   5   2   79.43    5.05
   5   5   2   89.86    4.76
  -6  -5  -2    4.84    2.62
  -6  -5  -2    5.84    4.06
  -6  -5  -2    6.92    2.46
   6   5   2    1.99    2.76
   6   5   2   -0.03    2.75
  -7  -5  -2   42.61    4.17
  -7  -5  -2   57.63    5.29
  -7  -5  -2   51.78    7.38
   7   5   2   41.33    4.94
   7   5   2   54.15    6.91
   6  -6  -2    4.90    1.89
   6  -6  -2   -3.19    4.48
   6  -6  -2    9.82    4.76
   6  -6  -2    6.13    2.06
   5  -6  -2    5.11    3.24
   5  -6  -2   10.10    3.18
   5  -6  -2   15.50    2.15
   5  -6  -2    8.64    1.48
   4  -6  -2    4.08    2.28
   4  -6  -2    4.45    1.07
   4  -6  -2    6.57    2.32
   4  -6  -2    5.19    1.13
   3  -6  -2   36.06    2.03
   3  -6  -2   43.09    3.49
   3  -6  -2   38.21    1.98
   2  -6  -2    0.41    0.83
   2  -6  -2    1.17    1.10
   2  -6  -2    2.24    0.91
  -2   6   2    0.62    1.32
   1  -6  -2   93.47    3.31
   1  -6  -2   92.12    3.24
  -1   6   2   97.41    2.56
  -1   6   2   91.07    2.48
   0  -6  -2    2.50    0.99
   0  -6  -2    2.95    1.00
   0   6   2    2.71    0.90
   0   6   2    3.36    0.89
   0   6   2    1.68    1.13
  -1  -6  -2  197.34    5.75
   1   6   2  199.64    5.51
   1   6   2  197.26    5.59
  -2  -6  -2    7.97    1.45
  -2  -6  -2    7.46    1.37
   2   6   2    7.69    1.26
   2   6   2    8.64    1.45
  -3  -6  -2   17.40    2.53
  -3  -6  -2   23.52    2.62
   3   6   2   22.00    2.56
   3   6   2   24.39    2.74
  -4  -6  -2    0.01    1.54
  -4  -6  -2    0.58    1.47
  -4  -6  -2    2.33    1.91
   4   6   2   -1.26    1.32
   4   6   2    2.14    1.52
  -5  -6  -2  140.99    6.20
  -5  -6  -2  134.89    6.60
  -5  -6  -2  141.20    6.09
   5   6   2  118.90    6.10
   5   6   2  133.18    6.04
  -6  -6  -2    6.31    3.28
  -6  -6  -2    8.33    3.12
  -6  -6  -2   11.92    4.86
   6   6   2    1.61    3.30
   6   6   2    3.44    2.94
   6  -7  -2   12.73    5.34
   5  -7  -2    6.06    1.59
   5  -7  -2    5.06    3.83
   5  -7  -2    2.21    3.62
   5  -7  -2    6.34    1.63
   4  -7  -2   14.39    1.70
   4  -7  -2   14.88    3.05
   4  -7  -2   16.42    2.22
   3  -7  -2   -0.21    1.18
   3  -7  -2    0.66    1.17
   3  -7  -2    2.15    2.07
   2  -7  -2   75.37    4.00
   2  -7  -2   72.38    3.22
   2  -7  -2   78.84    3.24
  -2   7   2   75.06    4.35
   1  -7  -2   56.53    2.99
   1  -7  -2   54.30    2.96
  -1   7   2   51.55    1.89
  -1   7   2   51.49    1.98
  -1   7   2   52.74    3.33
   0  -7  -2   11.15    1.81
   0  -7  -2   10.38    1.59
   0   7   2   10.49    1.39
   0   7   2   12.88    2.14
   0   7   2   13.00    1.62
  -1  -7  -2    7.79    1.65
  -1  -7  -2    9.56    1.63
   1   7   2    8.48    1.47
   1   7   2    6.56    1.40
  -2  -7  -2  156.90    5.60
  -2  -7  -2  160.72    5.65
   2   7   2  167.27    5.48
   2   7   2  162.17    5.58
  -3  -7  -2  168.37    6.07
  -3  -7  -2  169.95    6.44
   3   7   2  165.83    6.04
   3   7   2  144.02    6.52
  -4  -7  -2   18.19    2.71
  -4  -7  -2   21.37    2.84
  -4  -7  -2   14.50    2.96
   4   7   2   15.28    2.39
   4   7   2   22.06    2.78
  -5  -7  -2    4.66    2.71
  -5  -7  -2    8.27    3.72
  -5  -7  -2    6.10    2.62
   5   7   2    2.91    2.25
   5   7   2    3.29    2.33
  -6  -7  -2    3.84    5.71
  -6  -7  -2    3.75    3.60
  -6  -7  -2    3.30    3.58
   6   7   2    6.06    5.69
   6   7   2   -1.18    3.31
   5  -8  -2    1.19    1.99
   5  -8  -2    6.35    2.09
   5  -8  -2    4.45    4.70
   5  -8  -2   -5.95    4.13
   4  -8  -2   86.12    3.93
   4  -8  -2   87.32    6.22
   4  -8  -2   86.21    3.95
   4  -8  -2   67.42    6.15
   3  -8  -2   39.28    3.19
   3  -8  -2   38.02    4.40
   3  -8  -2   34.89    3.18
  -3   8   2   39.03    4.96
   2  -8  -2  100.12    4.19
   2  -8  -2  102.36    4.29
  -2   8   2   95.66    6.69
   1  -8  -2    4.90    1.57
   1  -8  -2    5.27    1.54
  -1   8   2    3.73    0.95
  -1   8   2    5.31    1.68
  -1   8   2    4.30    0.97
   0  -8  -2  126.35    5.01
   0   8   2  132.52    4.46
   0   8   2  123.40    5.16
   0   8   2  132.94    4.27
  -1  -8  -2   10.14    1.89
   1   8   2   12.27    2.04
   1   8   2    9.63    1.68
  -2  -8  -2   48.15    3.40
   2   8   2   46.74    3.31
   2   8   2   43.95    3.66
  -3  -8  -2    7.88    2.08
  -3  -8  -2   11.44    2.29
   3   8   2    6.75    2.10
   3   8   2   13.15    2.48
  -4  -8  -2   61.84    5.21
  -4  -8  -2   63.17    5.14
  -4  -8  -2   63.34    5.31
   4   8   2   58.26    4.60
   4   8   2   61.33    4.98
  -5  -8  -2   -2.52    4.10
  -5  -8  -2    6.62    3.32
  -5  -8  -2    0.91    3.24
   5   8   2    1.29    2.64
   5   8   2    7.90    3.05
  -6  -8  -2   22.20    4.98
  -6  -8  -2   19.48    4.91
   5  -9  -2   -3.16    5.27
   4  -9  -2   28.52    3.21
   4  -9  -2   31.50    4.10
   4  -9  -2   29.20    4.84
   3  -9  -2    8.54    2.26
   3  -9  -2    3.57    2.31
  -3   9   2    1.30    3.42
   2  -9  -2   19.20    2.73
  -2   9   2   16.79    3.32
   1  -9  -2   -0.54    1.87
  -1   9   2    1.55    0.88
  -1   9   2    1.09    2.18
  -1   9   2    0.70    1.01
   0  -9  -2   34.70    3.82
   0  -9  -2   38.78    3.73
   0   9   2   35.33    3.18
   0   9   2   37.53    3.82
   0   9   2   32.57    2.90
  -1  -9  -2    1.21    1.88
  -1  -9  -2    0.87    1.77
   1   9   2    2.58    1.88
   1   9   2   -0.41    1.80
   1   9   2    0.71    1.53
  -2  -9  -2   75.24    4.71
  -2  -9  -2   57.09    4.32
   2   9   2   71.66    4.45
   2   9   2   73.87    4.77
  -3  -9  -2   60.20    4.88
  -3  -9  -2   60.82    4.75
   3   9   2   63.92    5.35
   3   9   2   73.25    4.73
  -4  -9  -2   34.10    4.19
  -4  -9  -2   37.18    4.28
  -4  -9  -2   42.10    5.58
   4   9   2   44.63    5.14
   4   9   2   46.05    5.69
  -5  -9  -2    2.56    4.24
  -5  -9  -2    7.49    4.12
   5   9   2    3.75    3.10
   4 -10  -2    3.77    3.40
   3 -10  -2    3.66    3.12
  -3  10   2    4.98    4.68
   2 -10  -2   -2.05    2.47
   2 -10  -2    4.95    2.43
  -2  10   2    0.30    3.48
   1 -10  -2   13.67    4.00
   1 -10  -2   21.03    3.07
  -1  10   2   24.81    3.87
   0 -10  -2    0.49    2.41
   0 -10  -2    1.04    2.40
   0  10   2   -2.92    2.44
   0  10   2   -1.02    1.97
   0  10   2   -0.30    1.56
  -1 -10  -2    5.18    2.58
  -1 -10  -2   -1.68    1.96
   1  10   2    2.05    2.46
   1  10   2    3.89    2.21
  -2 -10  -2    3.40    2.22
  -2 -10  -2    7.56    2.72
   2  10   2    6.75    3.00
   2  10   2    5.87    2.29
  -3 -10  -2    0.62    3.01
  -3 -10  -2    1.23    2.56
   3  10   2    1.84    3.03
   3  10   2    4.22    2.46
  -4 -10  -2    8.61    3.66
   4  10   2   12.02    3.19
   4  10   2    9.56    4.41
   3 -11  -2   29.13    4.46
   3 -11  -2   32.03    4.82
  -3  11   2   30.71    6.78
   2 -11  -2    0.90    3.59
   2 -11  -2   -3.80    3.30
  -2  11   2   11.36    4.91
   1 -11  -2   61.77    6.59
   1 -11  -2   41.64    6.08
  -1  11   2   65.01    6.89
   0 -11  -2    6.75    3.16
   0 -11  -2   13.35    3.82
   0  11   2    7.73    2.29
   0  11   2   13.30    3.55
   0  11   2   10.14    2.56
  -1 -11  -2   33.71    4.52
  -1 -11  -2   34.44    4.52
   1  11   2   40.80    4.61
   1  11   2   38.20    5.51
   1  11   2   33.17    4.54
  -2 -11  -2    1.58    3.24
  -2 -11  -2    4.32    3.06
   2  11   2    1.52    2.72
   2  11   2    6.19    3.50
   2  11   2   12.38    3.67
  -3 -11  -2   13.14    4.25
   3  11   2   12.55    3.43
   3  11   2   10.68    4.31
   1 -12  -2   26.62    5.34
   1 -12  -2   22.38    4.94
  -1  12   2   19.31    5.65
   0 -12  -2    2.40    4.23
   0 -12  -2    8.14    4.45
   0  12   2    6.14    2.67
   0  12   2   -0.82    4.40
   0  12   2    3.22    3.15
  -1 -12  -2   17.54    5.02
   1  12   2   18.55    3.87
   1  12   2   19.08    4.30
   1  12   2   14.12    4.62
   2  12   2    5.04    4.79
   2  12   2    4.45    3.84
   1  10  -3    2.57    4.65
   1  10  -3    0.82    3.59
   1  10  -3   -0.40    4.20
  -1 -10   3    1.91    4.05
  -1 -10   3    0.87    5.15
   0  10  -3   32.85    5.46
   0 -10   3   24.81    5.07
  -1  10  -3   15.28    4.66
   1 -10   3   15.82    4.74
   1 -10   3   13.89    4.89
  -2  10  -3   38.75    6.28
   2 -10   3   32.74    5.77
   2 -10   3   34.49    6.01
   3   9  -3    2.36    3.96
   2   9  -3    8.16    3.37
   2   9  -3    0.52    3.69
  -2  -9   3   -3.25    2.90
  -2  -9   3    7.80    4.35
   1   9  -3    5.48    3.07
  -1  -9   3   11.82    3.55
  -1  -9   3   13.19    4.17
  -1  -9   3   15.30    3.63
   0   9  -3    2.65    3.43
   0   9  -3    7.57    2.53
   0   9  -3    4.02    3.67
   0  -9   3    9.94    3.58
   0  -9   3    7.59    3.17
   0  -9   3    5.68    3.57
  -1   9  -3    4.36    1.73
  -1   9  -3    1.72    3.26
  -1   9  -3    7.01    2.02
   1  -9   3    2.11    3.20
   1  -9   3    4.79    3.28
  -2   9  -3    9.58    4.12
   2  -9   3   -1.40    3.50
   2  -9   3    4.38    3.47
  -3   9  -3    0.20    4.73
   3  -9   3    3.00    4.43
   3  -9   3    3.77    3.57
   4   8  -3   -2.69    4.02
  -4  -8   3    5.00    4.26
   3   8  -3   18.50    4.09
   3   8  -3   17.77    3.64
  -3  -8   3   20.68    3.62
  -3  -8   3   19.25    3.52
  -3  -8   3   22.06    4.77
   2   8  -3    7.36    2.77
   2   8  -3   11.33    3.24
  -2  -8   3    6.66    2.50
  -2  -8   3    9.45    3.66
  -2  -8   3   11.16    2.72
   1   8  -3  102.22    5.98
   1   8  -3   98.68    5.48
  -1  -8   3  100.71    6.31
  -1  -8   3   96.81    5.97
  -1  -8   3   91.70    6.08
   0   8  -3   19.34    2.88
   0   8  -3   19.77    3.36
   0   8  -3   14.85    2.57
   0  -8   3   20.29    3.42
   0  -8   3   13.45    3.08
  -1   8  -3   21.97    2.53
  -1   8  -3   21.41    3.05
   1  -8   3   18.55    3.09
   1  -8   3   22.13    3.34
   2  -8   3   11.17    2.93
  -3   8  -3    2.04    3.71
   3  -8   3    2.79    2.63
   3  -8   3   -0.24    2.61
   4  -8   3   -3.25    2.77
   4  -8   3   -6.45    2.94
  -5  -7   3   18.32    5.12
   4   7  -3   -1.39    3.97
  -4  -7   3    1.15    3.59
  -4  -7   3    2.46    3.68
  -4  -7   3   -1.59    3.74
   3   7  -3   57.10    5.66
  -3  -7   3   65.39    5.35
  -3  -7   3   63.86    5.25
  -3  -7   3   65.73    6.10
   2   7  -3   30.15    3.53
  -2  -7   3   23.16    2.93
  -2  -7   3   33.94    4.50
  -2  -7   3   29.98    3.90
   1   7  -3   61.73    4.26
  -1  -7   3   64.11    4.49
  -1  -7   3   61.95    4.56
  -1  -7   3   63.00    4.64
   0   7  -3   25.27    3.05
   0   7  -3   31.81    3.38
   0   7  -3   27.47    3.40
   0  -7   3   18.50    3.45
   0  -7   3   24.74    2.90
  -1   7  -3  158.58    4.66
  -1   7  -3  159.74    4.86
  -1   7  -3  163.10    6.06
   1  -7   3  157.06    6.10
   1  -7   3  155.36    6.18
  -2   7  -3   21.04    2.97
   2  -7   3   21.88    2.71
   2  -7   3   23.61    2.84
  -3   7  -3   86.25    5.67
   3  -7   3   86.31    4.77
   3  -7   3   87.70    4.78
   4  -7   3   25.51    2.91
   4  -7   3   22.62    2.94
   4  -7   3   26.82    3.00
   5  -7   3   21.86    3.20
   5  -7   3   19.83    3.17
   5  -7   3   23.39    3.04
   5   6  -3    4.87    3.89
  -5  -6   3    4.63    3.95
  -5  -6   3    9.00    4.10
   4   6  -3   15.22    3.43
   4   6  -3   11.27    3.33
  -4  -6   3   16.19    3.34
  -4  -6   3   19.28    3.99
  -4  -6   3   12.14    3.46
   3   6  -3   24.18    3.14
   3   6  -3   18.38    2.84
  -3  -6   3   30.32    3.88
  -3  -6   3   27.73    3.40
  -3  -6   3   37.05    4.42
   2   6  -3   14.37    2.66
   2   6  -3    9.50    2.03
  -2  -6   3   18.80    3.07
  -2  -6   3    8.71    2.15
  -2  -6   3    9.90    1.98
   1   6  -3   27.43    3.09
  -1  -6   3   33.39    3.25
  -1  -6   3   27.04    3.27
  -1  -6   3   28.79    3.13
   0   6  -3   16.92    2.06
   0   6  -3   18.73    2.57
   0  -6   3   21.24    2.54
   0  -6   3   17.70    2.39
  -1   6  -3   58.71    3.58
  -1   6  -3   53.04    2.66
  -1   6  -3   61.52    2.98
   1  -6   3   61.12    3.71
   1  -6   3   56.25    3.59
  -2   6  -3    2.16    1.79
   2  -6   3   -2.02    1.34
   2  -6   3   -1.08    1.46
   3  -6   3   42.42    3.33
   3  -6   3   44.45    3.28
   4  -6   3    5.62    1.85
   4  -6   3    1.95    1.74
   4  -6   3   -0.71    1.70
   5  -6   3   23.55    2.83
   5  -6   3   22.52    3.31
   5  -6   3   26.90    4.01
   5  -6   3   29.62    3.63
   6  -6   3   10.94    5.14
   6   5  -3   72.48    7.47
  -6  -5   3   65.23    8.11
  -6  -5   3   75.21    8.00
   5   5  -3    5.78    3.37
   5   5  -3    6.73    3.44
  -5  -5   3    0.55    3.13
  -5  -5   3   -1.76    3.09
  -5  -5   3    6.97    3.67
   4   5  -3  101.58    5.71
   4   5  -3  106.46    6.01
  -4  -5   3   99.56    5.81
  -4  -5   3  106.62    5.90
  -4  -5   3  111.23    5.98
   3   5  -3    0.96    1.80
   3   5  -3    1.35    1.95
  -3  -5   3    1.74    1.73
  -3  -5   3    2.06    2.19
  -3  -5   3    2.30    1.80
   2   5  -3   79.19    5.96
   2   5  -3   84.49    4.25
  -2  -5   3   81.01    4.24
  -2  -5   3   93.11    4.38
  -2  -5   3   85.18    4.42
   1   5  -3    2.46    1.50
   1   5  -3    2.11    1.23
  -1  -5   3    3.73    1.45
  -1  -5   3    1.36    1.55
  -1  -5   3    4.59    1.54
   0   5  -3  173.31    5.27
   0   5  -3  176.41    5.23
   0  -5   3  168.34    5.50
   0  -5   3  173.45    5.62
  -1   5  -3   17.68    1.78
  -1   5  -3   13.73    2.12
  -1   5  -3   15.04    1.91
   1  -5   3   15.90    2.23
   1  -5   3   14.69    1.88
  -2   5  -3   25.39    2.72
   2  -5   3   29.79    2.52
   2  -5   3   25.98    2.39
   3  -5   3    1.18    1.20
   3  -5   3    1.20    1.16
   4  -5   3   16.15    1.79
   4  -5   3   18.09    1.91
   4  -5   3   17.13    1.95
   4  -5   3   18.55    2.58
   5  -5   3   18.27    3.37
   5  -5   3   12.11    1.79
   5  -5   3   11.49    1.88
   5  -5   3   12.22    2.21
   6  -5   3    5.73    2.08
   6  -5   3    4.94    3.06
   6  -5   3    8.17    4.20
   6  -5   3    5.52    2.19
   6   4  -3   32.72    8.64
   6   4  -3   21.18    4.91
  -6  -4   3   18.30    4.06
  -6  -4   3   25.66    4.33
   5   4  -3   14.81    3.15
   5   4  -3   11.65    3.47
  -5  -4   3   11.72    3.02
  -5  -4   3    6.89    3.10
  -5  -4   3    8.03    2.74
   4   4  -3   84.29    4.92
   4   4  -3   78.47    5.06
  -4  -4   3   85.98    4.75
  -4  -4   3   91.59    5.18
  -4  -4   3   87.56    4.93
   3   4  -3    3.18    1.62
   3   4  -3    4.22    1.73
  -3  -4   3    3.33    1.80
  -3  -4   3    1.54    1.40
   2   4  -3  129.31    4.88
   2   4  -3  136.65    4.89
  -2  -4   3  129.59    5.00
  -2  -4   3  134.98    4.87
  -2  -4   3  125.18    4.88
   1   4  -3    3.25    1.13
   1   4  -3    2.49    1.08
  -1  -4   3    3.71    1.24
  -1  -4   3    3.18    1.38
  -1  -4   3    1.19    0.99
   0   4  -3  437.88    9.82
   0   4  -3  432.83    9.61
   0  -4   3  427.61   10.00
   0  -4   3  426.15    9.98
   0  -4   3  417.81    9.55
  -1   4  -3   91.26    3.33
  -1   4  -3   96.25    3.09
   1  -4   3   97.12    3.53
   1  -4   3   93.67    3.46
  -2   4  -3  202.01    5.59
   2  -4   3  217.69    5.56
   2  -4   3  207.60    5.41
   3  -4   3   -0.02    1.15
   3  -4   3   -0.23    0.99
   3  -4   3   -0.05    0.88
   3  -4   3    0.50    0.95
   4  -4   3   70.74    3.84
   4  -4   3   65.05    2.82
   4  -4   3   66.86    2.77
   4  -4   3   66.41    2.85
   5  -4   3    0.07    2.31
   5  -4   3    1.02    1.83
   5  -4   3   -1.13    1.38
   5  -4   3    2.42    1.35
   6  -4   3   62.41    3.38
   6  -4   3   81.35    6.60
   6  -4   3   64.16    4.11
   6  -4   3   68.62    4.78
   6   3  -3    5.45    4.26
   6   3  -3    7.23    3.82
  -6  -3   3    3.95    4.43
  -6  -3   3    4.10    3.13
   5   3  -3    6.27    2.29
   5   3  -3    4.58    2.70
  -5  -3   3    8.67    2.54
  -5  -3   3    5.72    2.84
   4   3  -3   26.73    3.59
  -4  -3   3   26.29    3.28
  -4  -3   3   21.76    3.19
  -4  -3   3   25.22    3.40
   3   3  -3    9.26    1.70
   3   3  -3   10.07    1.81
  -3  -3   3    8.65    1.80
  -3  -3   3   10.58    1.74
  -3  -3   3   10.61    2.04
   2   3  -3  160.82    5.21
   2   3  -3  163.54    5.16
  -2  -3   3  158.27    5.11
  -2  -3   3  159.10    5.21
  -2  -3   3  163.69    5.17
   1   3  -3    5.37    1.22
   1   3  -3    6.38    1.28
  -1  -3   3    5.35    1.25
  -1  -3   3    4.63    1.03
  -1  -3   3    6.45    1.25
   0   3  -3   72.58    2.93
   0   3  -3   76.19    2.82
   0  -3   3   74.65    2.99
   0  -3   3   73.07    2.73
   0  -3   3   73.98    2.95
  -1   3  -3    0.50    0.64
  -1   3  -3    0.84    0.76
  -1   3  -3   -0.35    0.66
   1  -3   3   -0.01    0.68
   1  -3   3    0.04    0.73
  -2   3  -3  122.07    3.61
   2  -3   3  118.78    3.46
   2  -3   3  121.36    3.56
   3  -3   3    3.28    1.11
   3  -3   3    1.87    0.82
   3  -3   3    2.79    0.89
   3  -3   3    1.54    0.78
   4  -3   3  168.38    4.47
   4  -3   3  182.29    5.54
   4  -3   3  171.08    4.29
   4  -3   3  169.19    4.45
   5  -3   3   -0.11    1.06
   5  -3   3    0.12    2.03
   5  -3   3    2.06    1.38
   5  -3   3    2.07    1.67
   6  -3   3  163.39    7.11
   6  -3   3  161.11    5.20
   6  -3   3  158.00    4.81
   7  -3   3    9.22    4.78
   6   2  -3    3.31    3.20
   6   2  -3   -1.36    4.00
  -6  -2   3    0.72    2.29
  -6  -2   3   -0.84    2.25
  -6  -2   3   -2.20    4.29
   5   2  -3   45.73    4.76
   5   2  -3   37.60    4.45
  -5  -2   3   37.61    3.58
  -5  -2   3   42.84    4.66
  -5  -2   3   44.02    3.74
   4   2  -3   -0.28    1.47
  -4  -2   3    2.79    1.55
  -4  -2   3   -0.24    1.98
  -4  -2   3    3.75    1.67
   3   2  -3  154.09    5.49
   3   2  -3  161.82    5.26
   3   2  -3  161.82    5.37
  -3  -2   3  157.99    5.11
  -3  -2   3  160.57    5.15
  -3  -2   3  159.53    5.46
   2   2  -3    2.28    0.95
   2   2  -3    2.38    0.87
   2   2  -3    1.01    1.27
  -2  -2   3    3.09    1.04
  -2  -2   3    0.69    0.78
  -2  -2   3    2.08    0.95
   1   2  -3  166.44    4.79
   1   2  -3  169.72    4.68
  -1  -2   3  170.99    4.71
  -1  -2   3  168.53    4.79
  -1  -2   3  168.43    4.77
   0   2  -3   -0.85    0.57
   0   2  -3    0.86    0.68
   0  -2   3    0.07    0.60
   0  -2   3    0.31    0.69
   0  -2   3    0.27    0.66
  -1   2  -3  430.94    8.93
  -1   2  -3  423.35    8.65
  -1   2  -3  437.40    8.85
   1  -2   3  430.07    9.17
   1  -2   3  440.85    9.15
   1  -2   3  426.39    8.45
   2  -2   3  165.77    3.98
   2  -2   3  163.73    4.07
   2  -2   3  165.88    3.33
   2  -2   3  165.36    4.15
   3  -2   3   61.91    1.90
   3  -2   3   63.47    2.60
   3  -2   3   62.17    2.27
   3  -2   3   60.54    2.08
   4  -2   3   18.79    2.32
   4  -2   3   17.09    1.69
   4  -2   3   19.08    1.62
   4  -2   3   19.60    1.83
   5  -2   3    3.26    1.23
   5  -2   3    0.90    1.87
   5  -2   3    3.63    1.40
   6  -2   3    4.54    1.74
   6  -2   3    5.35    1.97
   6  -2   3    2.84    2.78
   7  -2   3    0.16    4.47
   7  -2   3    6.61    2.68
   7  -2   3    6.56    3.15
   7   1  -3   19.36    5.74
   7   1  -3   19.38    4.68
   6   1  -3    5.59    3.43
   6   1  -3    5.27    3.01
  -6  -1   3    3.92    1.58
  -6  -1   3   -2.08    3.46
   5   1  -3  111.28    5.84
   5   1  -3  112.03    5.47
   5   1  -3  107.68    5.34
  -5  -1   3  104.28    4.16
  -5  -1   3  107.71    5.92
  -5  -1   3  108.94    4.24
   4   1  -3   36.80    3.29
   4   1  -3   36.08    3.15
   4   1  -3   33.66    3.54
  -4  -1   3   38.14    2.71
  -4  -1   3   33.96    2.72
   3   1  -3  271.92    7.55
   3   1  -3  267.71    7.05
   3   1  -3  271.04    7.17
  -3  -1   3  269.41    6.88
  -3  -1   3  267.51    6.89
  -3  -1   3  270.41    7.46
   2   1  -3  229.65    6.00
   2   1  -3  222.20    6.08
   2   1  -3  230.18    5.84
  -2  -1   3  220.54    5.97
  -2  -1   3  223.18    5.82
  -2  -1   3  224.47    5.81
   1   1  -3   33.51    1.96
   1   1  -3   37.20    2.01
   1   1  -3   35.92    1.88
  -1  -1   3   36.70    1.92
  -1  -1   3   35.91    1.93
  -1  -1   3   35.78    1.88
   0   1  -3    2.80    0.75
   0   1  -3    3.70    0.72
   0   1  -3    2.03    0.64
   0  -1   3    2.94    0.74
   0  -1   3    3.05    0.66
   0  -1   3    2.95    0.81
  -1   1  -3  324.50    6.90
  -1   1  -3  328.15    6.80
   1  -1   3  330.80    6.99
   1  -1   3  313.72    6.15
   1  -1   3  324.33    7.06
  -2   1  -3   82.68    2.02
  -2   1  -3   82.83    2.04
   2  -1   3   79.41    2.40
   2  -1   3   80.58    2.30
   2  -1   3   85.37    2.56
   3  -1   3  332.14    7.59
   3  -1   3  341.37    7.21
   3  -1   3  349.06    7.39
   4  -1   3   11.98    1.35
   4  -1   3   11.39    1.53
   5  -1   3   85.84    3.34
   5  -1   3   90.12    3.54
   6  -1   3    2.99    1.99
   6  -1   3   -1.08    2.61
   6  -1   3    2.75    1.83
   7  -1   3   38.36    4.03
   7  -1   3   56.51    7.11
   7  -1   3   41.32    4.80
   7   0  -3    5.15    4.05
   7   0  -3    9.89    5.12
   6   0  -3    1.44    2.83
   6   0  -3    4.73    3.69
   6   0  -3    3.95    3.09
  -6   0   3    1.69    3.52
   5   0  -3   12.48    2.43
   5   0  -3   11.90    2.37
   5   0  -3   17.56    3.50
  -5   0   3   11.73    1.71
  -5   0   3   12.19    2.79
  -5   0   3   13.33    1.81
   4   0  -3    7.16    1.95
   4   0  -3   13.47    1.97
   4   0  -3   12.99    1.99
  -4   0   3   14.95    1.83
  -4   0   3   12.02    1.49
  -4   0   3   14.67    2.21
   3   0  -3   26.65    2.17
   3   0  -3   24.06    2.22
   3   0  -3   23.22    2.40
  -3   0   3   24.64    1.80
  -3   0   3   20.93    1.82
  -3   0   3   26.58    2.39
   2   0  -3    1.89    0.84
   2   0  -3    0.88    0.78
   2   0  -3    1.23    0.92
  -2   0   3    0.96    0.74
  -2   0   3    0.23    0.70
  -2   0   3    0.67    0.82
   1   0  -3  153.38    4.13
   1   0  -3  160.28    4.06
   1   0  -3  150.52    4.13
  -1   0   3  157.93    4.07
  -1   0   3  161.85    4.17
  -1   0   3  155.62    4.10
   0   0  -3   35.90    1.41
   0   0  -3   36.14    1.68
   0   0  -3   38.19    1.62
   0   0   3   37.24    1.42
   0   0   3   35.70    1.61
   0   0   3   37.19    1.65
  -1   0  -3  100.48    2.17
  -1   0  -3  105.30    2.77
  -1   0  -3  106.51    2.89
   1   0   3  107.75    2.98
   1   0   3  111.12    2.88
  -2   0  -3  289.29    6.09
  -2   0  -3  303.75    6.12
  -2   0  -3  281.94    5.66
   2   0   3  299.14    6.48
   2   0   3  297.19    6.33
  -3   0  -3  303.92    6.52
   3   0   3  310.70    6.78
   3   0   3  315.09    6.92
  -4   0  -3   12.75    1.77
   4   0   3   15.49    1.59
   4   0   3   14.73    1.78
  -5   0  -3  153.52    5.02
   5   0   3  147.91    4.81
   5   0   3  150.77    4.70
  -6   0  -3    2.80    2.45
   6   0   3    1.53    2.00
   6   0   3    1.76    1.89
   7   0   3   43.09    5.37
   7   0   3   55.98    5.01
   7  -1  -3   25.91    6.49
   7  -1  -3   23.58    4.31
   7  -1  -3   22.29    5.02
   6  -1  -3    5.90    2.78
   6  -1  -3   10.44    3.13
   6  -1  -3   12.03    4.35
   5  -1  -3   10.56    3.08
   5  -1  -3    9.13    2.22
   5  -1  -3    5.69    1.88
  -5   1   3    6.53    2.50
   4  -1  -3   79.73    3.63
   4  -1  -3   85.93    4.29
   4  -1  -3   84.54    3.60
  -4   1   3   86.31    4.17
  -4   1   3   81.57    2.26
  -4   1   3   81.06    2.27
   3  -1  -3    1.11    0.92
   3  -1  -3    0.69    0.86
   3  -1  -3    0.20    1.27
  -3   1   3    1.22    0.72
  -3   1   3    1.13    0.93
  -3   1   3    0.29    0.67
   2  -1  -3  119.09    3.59
   2  -1  -3  124.63    4.00
   2  -1  -3  128.59    3.51
  -2   1   3  122.58    3.87
  -2   1   3  117.75    3.34
  -2   1   3  122.28    3.34
   1  -1  -3   -0.51    0.54
   1  -1  -3    0.19    0.66
   1  -1  -3   -0.02    0.46
  -1   1   3   -0.31    0.53
  -1   1   3    0.78    0.51
   0  -1  -3   68.25    2.14
   0  -1  -3   65.13    1.85
   0  -1  -3   65.31    2.19
   0   1   3   62.82    2.17
   0   1   3   68.77    2.18
  -1  -1  -3    0.91    0.53
  -1  -1  -3    0.60    0.45
   1   1   3    1.08    0.50
   1   1   3    1.15    0.50
  -2  -1  -3   42.26    1.73
  -2  -1  -3   42.16    1.72
   2   1   3   40.96    1.88
   2   1   3   42.80    1.82
  -3  -1  -3   40.24    1.95
  -3  -1  -3   39.33    1.64
  -3  -1  -3   40.16    1.67
   3   1   3   39.46    2.05
   3   1   3   41.23    1.94
  -4  -1  -3    2.23    1.20
   4   1   3    2.13    1.07
   4   1   3    3.89    1.13
  -5  -1  -3   55.41    3.49
   5   1   3   58.34    3.40
   5   1   3   51.43    3.13
  -6  -1  -3    1.63    2.58
   6   1   3   -0.62    1.87
   6   1   3   -1.07    1.90
  -7  -1  -3   68.55    6.83
   7   1   3   47.48    5.59
   7  -2  -3    8.39    6.51
   7  -2  -3   -1.78    4.15
   7  -2  -3    0.21    3.89
   6  -2  -3   70.89    5.56
   6  -2  -3   65.52    4.80
   6  -2  -3   68.74    6.88
   5  -2  -3    6.55    1.90
   5  -2  -3    4.40    2.34
   5  -2  -3   11.09    2.04
   4  -2  -3   47.54    3.74
   4  -2  -3   56.87    2.91
   4  -2  -3   55.64    2.92
   3  -2  -3   11.88    1.56
   3  -2  -3   10.99    1.32
   3  -2  -3   10.21    1.54
   2  -2  -3  668.62   13.88
   2  -2  -3  626.18   13.07
   2  -2  -3  656.49   13.98
   2  -2  -3  674.87   13.03
  -2   2   3  656.37   12.66
  -2   2   3  651.04   12.70
   1  -2  -3  203.45    4.61
   1  -2  -3  195.27    4.66
   1  -2  -3  194.20    4.92
  -1   2   3  191.60    4.54
  -1   2   3  197.79    4.48
   0  -2  -3   80.55    2.31
   0  -2  -3   78.73    2.35
   0  -2  -3   79.32    2.50
   0   2   3   77.89    2.33
   0   2   3   79.02    2.36
   0   2   3   80.11    2.48
  -1  -2  -3   93.33    2.74
  -1  -2  -3   94.47    2.83
   1   2   3   98.37    2.78
   1   2   3   96.10    2.88
  -2  -2  -3  179.16    4.52
  -2  -2  -3  178.13    4.54
   2   2   3  181.03    4.56
   2   2   3  185.08    4.71
  -3  -2  -3    6.46    0.99
  -3  -2  -3    6.22    1.04
  -3  -2  -3    5.14    1.12
   3   2   3    4.43    0.97
   3   2   3    6.36    1.16
  -4  -2  -3  127.28    4.35
  -4  -2  -3  128.02    3.71
  -4  -2  -3  129.31    3.73
   4   2   3  123.58    4.22
   4   2   3  128.28    4.36
  -5  -2  -3    9.26    1.10
  -5  -2  -3    9.78    2.16
  -5  -2  -3    9.40    1.12
   5   2   3    7.52    1.67
   5   2   3    7.70    1.84
  -6  -2  -3   46.09    6.67
   6   2   3   41.84    3.98
   6   2   3   39.56    4.32
  -7  -2  -3  -10.38    4.17
   7   2   3   -2.05    2.95
   7   2   3    6.55    3.57
   7  -3  -3   -2.45    5.49
   7  -3  -3   -1.57    3.97
   7  -3  -3   -1.34    3.53
   6  -3  -3   16.63    4.11
   6  -3  -3   29.67    3.96
   6  -3  -3   29.04    3.23
   5  -3  -3   24.32    3.85
   5  -3  -3   11.70    3.23
   5  -3  -3   12.66    2.04
   5  -3  -3   15.05    2.09
   4  -3  -3   58.45    3.84
   4  -3  -3   54.16    2.84
   4  -3  -3   57.33    2.80
   3  -3  -3   11.53    1.44
   3  -3  -3    9.15    1.18
   3  -3  -3    9.25    1.59
   3  -3  -3   13.26    1.94
   2  -3  -3  248.99    6.55
   2  -3  -3  238.97    5.61
   2  -3  -3  247.44    6.38
   2  -3  -3  248.44    5.55
   1  -3  -3   18.50    1.54
   1  -3  -3   21.44    1.32
   1  -3  -3   21.88    1.40
  -1   3   3   18.38    1.63
  -1   3   3   21.30    1.21
  -1   3   3   22.08    1.24
   0  -3  -3  184.32    4.53
   0  -3  -3  188.14    4.43
   0  -3  -3  188.34    4.58
   0   3   3  185.57    4.52
   0   3   3  177.73    4.31
   0   3   3  182.12    4.55
  -1  -3  -3    2.69    0.79
  -1  -3  -3    1.01    0.57
   1   3   3    3.10    0.85
   1   3   3    2.75    0.69
  -2  -3  -3   26.83    1.75
  -2  -3  -3   26.56    1.77
   2   3   3   28.01    1.74
   2   3   3   30.58    1.86
  -3  -3  -3  172.05    4.89
  -3  -3  -3  175.73    4.88
   3   3   3  173.68    4.97
   3   3   3  176.22    5.10
  -4  -3  -3  313.59    8.05
  -4  -3  -3  304.39    7.50
  -4  -3  -3  310.22    7.52
   4   3   3  305.19    7.93
   4   3   3  310.76    8.07
  -5  -3  -3  112.89    4.01
  -5  -3  -3  109.38    3.91
  -5  -3  -3  115.48    5.05
   5   3   3  111.84    4.99
   5   3   3  109.04    4.70
  -6  -3  -3   55.81    5.17
  -6  -3  -3   52.27    2.65
  -6  -3  -3   56.76    2.72
   6   3   3   53.40    5.84
   6   3   3   52.94    4.65
  -7  -3  -3   14.30    4.75
   7   3   3    4.90    3.35
   7   3   3   -1.39    3.78
   7  -4  -3   15.94    6.65
   6  -4  -3    0.78    4.07
   6  -4  -3    2.42    2.41
   6  -4  -3    1.77    3.83
   6  -4  -3    1.54    2.29
   5  -4  -3   59.07    3.34
   5  -4  -3   60.13    3.32
   5  -4  -3   63.24    5.05
   5  -4  -3   62.78    5.14
   4  -4  -3   10.31    1.40
   4  -4  -3    9.37    1.37
   4  -4  -3    7.46    2.41
   4  -4  -3   12.00    2.17
   3  -4  -3   37.09    1.96
   3  -4  -3   38.23    2.78
   3  -4  -3   39.03    2.82
   3  -4  -3   34.56    1.92
   2  -4  -3  143.28    3.67
   2  -4  -3  140.18    3.76
   2  -4  -3  142.04    4.66
   1  -4  -3    8.83    1.17
   1  -4  -3   12.28    1.59
   1  -4  -3   10.76    1.22
  -1   4   3   10.62    1.06
  -1   4   3   11.59    1.06
  -1   4   3   11.21    1.59
   0  -4  -3   72.82    2.54
   0  -4  -3   71.18    2.57
   0   4   3   71.54    2.38
   0   4   3   72.19    2.55
   0   4   3   73.61    2.77
  -1  -4  -3  208.24    5.26
  -1  -4  -3  194.61    5.24
   1   4   3  207.55    5.19
   1   4   3  209.69    5.35
  -2  -4  -3  165.26    4.89
  -2  -4  -3  180.31    4.97
   2   4   3  181.29    5.07
   2   4   3  178.18    4.93
  -3  -4  -3    4.46    1.27
  -3  -4  -3    4.31    1.05
   3   4   3    3.69    1.17
   3   4   3    3.64    1.15
  -4  -4  -3   66.12    3.43
  -4  -4  -3   67.96    3.85
  -4  -4  -3   72.63    3.40
   4   4   3   70.50    3.55
   4   4   3   63.32    3.59
  -5  -4  -3    1.64    1.51
  -5  -4  -3    1.31    1.46
   5   4   3    0.11    1.63
   5   4   3    3.71    1.93
  -6  -4  -3   45.07    5.50
  -6  -4  -3   43.55    3.67
  -6  -4  -3   39.00    3.46
   6   4   3   47.20    4.81
   6   4   3   34.93    4.60
  -7  -4  -3   -9.49    4.63
   7   4   3   -1.98    3.47
   7   4   3    2.06    4.02
   6  -5  -3    2.67    2.38
   6  -5  -3    2.23    2.26
   6  -5  -3    6.10    4.45
   6  -5  -3   -4.02    4.15
   5  -5  -3   73.22    5.41
   5  -5  -3   61.00    3.38
   5  -5  -3   70.22    5.68
   5  -5  -3   62.29    3.42
   4  -5  -3   30.62    2.36
   4  -5  -3   34.07    3.37
   4  -5  -3   32.68    2.29
   4  -5  -3   37.18    3.84
   3  -5  -3  172.79    5.83
   3  -5  -3  175.77    5.90
   3  -5  -3  171.67    4.46
   3  -5  -3  170.20    4.38
   2  -5  -3   12.85    1.47
   2  -5  -3   14.74    1.97
   2  -5  -3   11.37    1.33
  -2   5   3   10.72    1.76
   1  -5  -3  382.67    8.55
   1  -5  -3  392.19    9.22
   1  -5  -3  401.61    8.45
  -1   5   3  381.06    7.94
  -1   5   3  390.48    9.35
  -1   5   3  398.01    8.01
   0  -5  -3    0.21    0.74
   0  -5  -3    0.18    0.74
   0   5   3    0.46    0.59
   0   5   3    0.83    0.77
   0   5   3    0.95    0.70
  -1  -5  -3  101.88    3.50
  -1  -5  -3   94.71    3.42
   1   5   3   98.14    3.33
   1   5   3   97.98    3.44
  -2  -5  -3   13.31    1.78
  -2  -5  -3   11.63    1.69
   2   5   3   13.03    1.63
  -3  -5  -3  171.20    5.48
  -3  -5  -3  170.42    5.40
   3   5   3  177.40    5.61
   3   5   3  173.30    5.45
  -4  -5  -3    4.08    1.53
  -4  -5  -3    2.90    1.68
  -4  -5  -3    4.78    1.53
   4   5   3    4.73    1.67
   4   5   3    2.41    1.91
  -5  -5  -3   43.07    4.35
  -5  -5  -3   39.44    3.71
  -5  -5  -3   45.53    3.67
   5   5   3   39.67    3.92
   5   5   3   32.81    3.66
  -6  -5  -3    1.29    2.16
  -6  -5  -3    2.08    3.64
  -6  -5  -3    2.98    2.42
   6   5   3   -1.54    2.50
   6   5   3   -3.92    2.80
  -7  -5  -3    5.36    3.08
  -7  -5  -3    5.73    2.83
  -7  -5  -3    7.69    5.61
   7   5   3   10.26    4.63
   7   5   3   11.51    4.10
   6  -6  -3    7.26    5.11
   6  -6  -3    1.98    2.61
   6  -6  -3    7.04    5.56
   6  -6  -3    8.73    2.54
   5  -6  -3   39.67    5.30
   5  -6  -3   41.94    3.24
   5  -6  -3   46.14    3.15
   5  -6  -3   49.26    5.03
   4  -6  -3    1.14    1.28
   4  -6  -3    2.43    2.15
   4  -6  -3   -0.37    1.25
   4  -6  -3    1.49    2.53
   3  -6  -3   64.82    2.72
   3  -6  -3   59.29    4.45
   3  -6  -3   54.01    2.50
   2  -6  -3   14.18    1.70
   2  -6  -3   15.89    1.74
   2  -6  -3   17.92    2.20
  -2   6   3   11.87    1.98
   1  -6  -3  292.44    6.96
   1  -6  -3  297.07    7.75
   1  -6  -3  300.69    7.15
  -1   6   3  297.64    6.33
  -1   6   3  282.88    6.26
  -1   6   3  295.39    7.94
   0  -6  -3   49.49    2.52
   0  -6  -3   44.19    2.50
   0   6   3   43.42    2.61
   0   6   3   45.65    2.17
   0   6   3   43.64    2.34
  -1  -6  -3  299.21    7.52
  -1  -6  -3  299.51    7.63
   1   6   3  289.72    7.44
   1   6   3  302.68    7.37
  -2  -6  -3   25.85    2.29
   2   6   3   26.31    2.19
   2   6   3   26.66    2.28
  -3  -6  -3  189.30    6.13
  -3  -6  -3  193.84    6.23
   3   6   3  199.78    6.14
   3   6   3  187.02    6.14
  -4  -6  -3    0.21    1.60
  -4  -6  -3    2.17    2.24
   4   6   3   -0.65    1.48
  -5  -6  -3  114.93    6.33
  -5  -6  -3  123.82    5.86
  -5  -6  -3  125.50    5.92
   5   6   3  110.49    5.90
   5   6   3  120.88    5.85
  -6  -6  -3   39.35    4.93
  -6  -6  -3   37.00    4.16
  -6  -6  -3   54.07    6.35
   6   6   3   41.75    6.08
   6   6   3   39.24    4.64
  -7  -6  -3   32.14    4.32
  -7  -6  -3   32.20    4.68
   7   6   3   30.77    5.08
   6  -7  -3    2.09    5.87
   5  -7  -3    1.78    1.86
   5  -7  -3   -3.90    1.77
   5  -7  -3    2.88    3.88
   5  -7  -3    1.60    3.44
   4  -7  -3   13.77    2.80
   4  -7  -3   19.22    3.62
   4  -7  -3   15.18    1.82
   4  -7  -3   20.17    2.59
   3  -7  -3    9.28    2.25
   3  -7  -3   10.71    1.75
   3  -7  -3    9.09    1.58
   2  -7  -3   53.81    2.93
   2  -7  -3   54.99    4.53
   2  -7  -3   51.68    2.91
  -2   7   3   55.16    3.79
   1  -7  -3   25.42    2.35
   1  -7  -3   26.09    2.39
  -1   7   3   24.74    2.79
  -1   7   3   25.40    1.59
  -1   7   3   26.85    1.70
   0  -7  -3    2.51    1.25
   0  -7  -3    3.16    1.28
   0   7   3    2.74    1.15
   0   7   3    2.27    0.99
   0   7   3    2.50    1.24
  -1  -7  -3   98.68    4.03
  -1  -7  -3   86.17    3.88
   1   7   3   91.87    3.83
   1   7   3   90.07    3.62
   1   7   3   91.62    4.10
  -2  -7  -3    2.62    1.23
  -2  -7  -3    3.72    1.29
   2   7   3    2.38    1.48
   2   7   3    1.54    1.23
  -3  -7  -3   23.60    2.86
  -3  -7  -3   20.28    2.85
   3   7   3   24.34    2.72
   3   7   3   21.27    3.02
  -4  -7  -3    4.52    2.03
  -4  -7  -3    5.02    1.97
   4   7   3    1.85    1.73
   4   7   3    4.83    1.65
  -5  -7  -3   80.93    5.68
  -5  -7  -3   73.54    6.24
  -5  -7  -3   84.24    5.83
   5   7   3   87.89    5.40
   5   7   3   79.40    5.55
  -6  -7  -3   -1.03    3.45
  -6  -7  -3    3.39    5.05
  -6  -7  -3    1.77    3.24
   6   7   3    0.40    3.63
   6   7   3    8.55    3.18
   5  -8  -3    5.20    4.87
   5  -8  -3    7.75    4.74
   5  -8  -3    0.37    2.18
   4  -8  -3   60.71    5.96
   4  -8  -3   56.03    3.68
   4  -8  -3   51.20    3.68
   4  -8  -3   60.63    6.03
   3  -8  -3    8.19    1.92
   3  -8  -3    7.08    2.61
   3  -8  -3    8.74    1.96
  -3   8   3   12.10    3.01
   2  -8  -3   77.27    3.78
   2  -8  -3   78.87    3.90
  -2   8   3   87.42    5.07
   1  -8  -3    6.19    1.70
   1  -8  -3    5.71    1.72
  -1   8   3    7.70    1.17
  -1   8   3    3.18    1.67
  -1   8   3    8.81    1.16
   0  -8  -3   74.75    3.92
   0  -8  -3   67.79    3.83
   0   8   3   74.97    3.41
   0   8   3   72.94    4.05
   0   8   3   73.20    3.17
  -1  -8  -3    0.27    1.43
   1   8   3    0.78    1.24
   1   8   3   -1.30    1.19
   1   8   3    0.53    1.52
  -2  -8  -3   25.98    3.43
  -2  -8  -3   27.79    3.12
   2   8   3   27.60    2.84
  -3  -8  -3    0.92    1.45
  -3  -8  -3    0.91    1.69
   3   8   3    0.43    1.41
   3   8   3   -0.58    1.57
  -4  -8  -3   64.27    5.09
  -4  -8  -3   50.59    4.85
   4   8   3   68.99    4.55
   4   8   3   56.54    4.64
  -5  -8  -3    7.99    3.49
  -5  -8  -3   11.24    4.39
  -5  -8  -3    2.24    3.12
   5   8   3    7.51    2.52
   5   8   3    4.45    2.66
  -6  -8  -3   18.62    5.06
  -6  -8  -3   14.36    4.35
   6   8   3   20.26    3.76
   5  -9  -3   -0.95    5.65
   4  -9  -3   50.10    4.69
   4  -9  -3   63.24    4.64
   4  -9  -3   61.08    7.10
   4  -9  -3   49.01    6.91
   3  -9  -3   20.14    2.79
   3  -9  -3   20.51    2.60
  -3   9   3   14.93    3.62
   2  -9  -3    5.82    2.13
   2  -9  -3   10.53    2.41
  -2   9   3    6.14    2.89
   1  -9  -3   18.31    2.57
   1  -9  -3   19.81    2.65
  -1   9   3   17.30    2.80
  -1   9   3   16.94    1.80
  -1   9   3   17.15    1.80
   0  -9  -3  113.73    5.24
   0   9   3  117.27    4.31
   0   9   3  116.64    4.67
   0   9   3  120.77    5.49
  -1  -9  -3    2.45    1.97
  -1  -9  -3    4.21    1.77
   1   9   3    4.70    1.84
   1   9   3    3.33    1.86
   1   9   3    5.79    1.66
  -2  -9  -3  247.01    8.15
  -2  -9  -3  248.62    8.31
   2   9   3  250.86    7.71
   2   9   3  250.50    8.07
  -3  -9  -3   12.30    2.47
  -3  -9  -3   19.76    3.18
   3   9   3   15.25    2.96
   3   9   3   15.88    2.78
  -4  -9  -3   78.34    5.77
  -4  -9  -3   74.68    6.07
   4   9   3   86.44    5.34
   4   9   3   79.80    6.31
  -5  -9  -3    4.77    3.77
  -5  -9  -3   17.60    8.32
  -5  -9  -3    4.90    3.77
   5   9   3   10.72    2.96
   4 -10  -3    0.46    3.34
   4 -10  -3    1.93    3.03
   3 -10  -3    2.81    2.95
   3 -10  -3    1.98    4.80
  -3  10   3    5.79    4.19
   2 -10  -3   24.50    3.31
   2 -10  -3   23.38    3.19
  -2  10   3   24.85    4.53
   1 -10  -3   16.48    4.66
  -1  10   3   18.06    3.40
   0 -10  -3   14.60    2.65
   0 -10  -3   13.38    2.81
   0  10   3   15.56    2.76
   0  10   3   12.40    2.26
   0  10   3   16.41    2.17
  -1 -10  -3   37.66    4.73
  -1 -10  -3   33.03    4.78
   1  10   3   36.16    3.70
   1  10   3   40.27    4.38
   1  10   3   34.02    4.28
  -2 -10  -3   64.30    5.46
  -2 -10  -3   63.46    4.94
   2  10   3   72.63    5.46
   2  10   3   68.12    4.82
  -3 -10  -3   -0.10    2.35
  -3 -10  -3    4.57    2.81
   3  10   3    3.05    2.16
   3  10   3    6.21    3.12
  -4 -10  -3   31.86    4.84
  -4 -10  -3   30.48    4.24
   4  10   3   25.67    3.68
   4  10   3   29.78    4.26
  -5 -10  -3   -1.57    4.86
   3 -11  -3    8.83    4.36
  -3  11   3   10.08    5.88
   2 -11  -3    2.19    3.57
  -2  11   3    3.56    4.26
   1 -11  -3   28.04    3.82
   1 -11  -3   27.12    4.05
  -1  11   3   36.48    5.17
   0 -11  -3   -3.17    2.98
   0 -11  -3    2.99    2.94
   0  11   3    1.82    2.47
   0  11   3    1.15    2.91
   0  11   3    1.68    2.00
  -1 -11  -3    3.92    2.79
  -1 -11  -3    2.35    3.31
   1  11   3   10.21    3.17
   1  11   3    4.55    2.65
   1  11   3    2.98    2.68
  -2 -11  -3    0.94    2.62
  -2 -11  -3    1.58    3.14
   2  11   3    3.46    2.78
   2  11   3    2.63    3.57
   2  11   3    2.75    3.16
  -3 -11  -3   11.65    3.56
   3  11   3    6.43    3.97
   3  11   3    5.09    3.22
   4  11   3   10.53    6.02
   2 -12  -3   12.38    4.64
   2 -12  -3   11.92    4.90
  -2  12   3    9.00    6.22
   1 -12  -3   14.30    4.83
   1 -12  -3   17.31    4.62
  -1  12   3   16.36    5.00
   0 -12  -3   24.33    5.03
   0 -12  -3   21.03    4.59
   0  12   3   29.57    3.45
   0  12   3   22.52    4.68
   0  12   3   28.49    3.22
  -1 -12  -3   59.11    6.28
  -1 -12  -3   37.40    7.05
   1  12   3   45.30    7.18
   1  12   3   59.11    6.74
   1  12   3   57.51    6.05
  -2 -12  -3   16.41    4.39
   2  12   3   15.74    3.66
   2  12   3    9.04    4.84
   2  12   3    4.81    4.35
   2   9  -4   37.87    6.00
   2   9  -4   55.81    7.52
  -2  -9   4   55.78    7.02
   1   9  -4    4.74    4.23
   1   9  -4   -2.05    3.40
   1   9  -4   -3.03    3.92
  -1  -9   4   10.15    4.55
  -1  -9   4    5.66    3.74
   0   9  -4   45.48    5.17
   0   9  -4   41.21    5.38
   0   9  -4   41.28    4.38
   0  -9   4   49.43    5.62
   0  -9   4   28.25    4.49
   0  -9   4   37.87    4.86
  -1   9  -4   10.77    2.56
  -1   9  -4    6.67    1.98
  -1   9  -4   13.50    4.03
   1  -9   4   13.24    4.26
   1  -9   4    6.09    3.94
   1  -9   4    7.34    4.11
  -2   9  -4   49.41    7.53
   2  -9   4   47.09    5.57
   2  -9   4   54.73    7.75
   3   8  -4   18.38    4.62
  -3  -8   4   25.28    4.38
  -3  -8   4   21.05    5.28
   2   8  -4    2.25    3.16
   2   8  -4    1.05    3.80
  -2  -8   4    5.98    4.36
  -2  -8   4    4.29    3.14
  -2  -8   4    1.79    3.03
   1   8  -4    4.51    3.06
   1   8  -4    4.19    2.77
  -1  -8   4    5.90    3.25
  -1  -8   4    8.07    3.12
  -1  -8   4   13.77    3.57
   0   8  -4    7.96    3.06
   0   8  -4    9.79    3.90
   0   8  -4    6.65    2.64
   0  -8   4    8.23    3.27
   0  -8   4    9.11    3.22
   0  -8   4   10.37    3.51
  -1   8  -4   -2.20    3.08
  -1   8  -4    1.74    2.12
  -1   8  -4    4.27    1.78
   1  -8   4    0.79    2.94
   1  -8   4   -0.36    2.69
   1  -8   4   -0.97    2.75
   2  -8   4   12.09    3.42
   2  -8   4   13.31    3.41
   3  -8   4   -0.08    3.28
   3  -8   4   -0.53    3.11
   4  -8   4   18.16    4.03
   4  -8   4    6.73    4.46
  -4  -7   4   -4.67    3.77
   3   7  -4   65.67    6.63
  -3  -7   4   59.43    6.30
  -3  -7   4   66.26    6.86
  -3  -7   4   64.31    5.80
   2   7  -4   19.47    3.23
  -2  -7   4   19.73    3.00
  -2  -7   4   31.00    3.96
  -2  -7   4   29.36    4.27
   1   7  -4   62.38    5.13
  -1  -7   4   66.46    4.85
  -1  -7   4   65.06    5.18
  -1  -7   4   68.80    4.98
   0   7  -4   19.82    2.61
   0   7  -4   25.77    3.81
   0   7  -4   21.96    2.80
   0  -7   4   24.62    3.43
   0  -7   4   17.16    2.84
   0  -7   4   23.82    3.32
  -1   7  -4   10.82    2.18
  -1   7  -4   15.52    2.74
  -1   7  -4   12.39    1.96
   1  -7   4   12.57    2.78
   1  -7   4    9.64    2.46
   1  -7   4   11.80    2.45
  -2   7  -4    6.59    2.74
   2  -7   4    1.14    2.51
   2  -7   4    5.76    2.44
   3  -7   4   12.75    2.95
   3  -7   4   20.20    3.23
   4  -7   4    5.67    2.87
   4  -7   4    6.23    2.02
   5  -7   4   15.80    4.72
  -5  -6   4   78.94    8.99
  -5  -6   4   47.61    6.76
   4   6  -4    1.20    3.12
   4   6  -4    7.46    3.28
  -4  -6   4    5.59    3.42
  -4  -6   4    5.40    4.40
  -4  -6   4    8.99    3.44
   3   6  -4   48.19    5.05
   3   6  -4   42.02    5.14
  -3  -6   4   54.53    4.95
  -3  -6   4   49.01    5.30
  -3  -6   4   44.29    5.06
   2   6  -4   11.82    2.81
   2   6  -4   13.29    2.66
  -2  -6   4   16.36    3.23
  -2  -6   4   14.90    2.75
  -2  -6   4   13.29    2.63
   1   6  -4   86.78    4.84
  -1  -6   4   84.35    4.73
  -1  -6   4   81.67    4.88
  -1  -6   4   83.56    4.71
   0   6  -4   23.47    2.66
   0  -6   4   25.26    3.25
   0  -6   4   23.95    3.33
  -1   6  -4   16.59    2.06
  -1   6  -4   19.54    2.62
  -1   6  -4   18.81    2.44
   1  -6   4   16.09    2.76
   1  -6   4   17.32    2.55
   1  -6   4   16.94    2.22
  -2   6  -4   29.77    3.44
   2  -6   4   28.98    3.53
   2  -6   4   32.99    3.63
   3  -6   4   81.39    4.62
   3  -6   4   83.98    4.52
   4  -6   4    7.20    2.37
   4  -6   4    7.76    2.30
   4  -6   4    9.25    1.56
   5  -6   4   69.25    4.71
   5  -6   4   69.63    5.15
   5   5  -4   -0.80    3.71
  -5  -5   4    7.11    3.99
  -5  -5   4   12.52    4.05
   4   5  -4    7.00    3.07
   4   5  -4    9.42    2.71
  -4  -5   4    7.49    3.25
  -4  -5   4   11.44    2.93
  -4  -5   4    7.57    3.09
   3   5  -4    1.65    1.84
   3   5  -4    1.90    1.95
  -3  -5   4   -0.03    1.94
  -3  -5   4    3.78    2.71
  -3  -5   4   -0.48    1.89
   2   5  -4   -0.49    1.55
   2   5  -4   -0.51    1.55
  -2  -5   4    0.98    1.55
  -2  -5   4    1.80    2.10
  -2  -5   4   -0.50    1.55
   1   5  -4   22.11    3.11
   1   5  -4   26.29    3.17
  -1  -5   4   26.00    3.11
  -1  -5   4   20.48    2.84
  -1  -5   4   23.74    2.91
   0   5  -4   44.43    3.25
   0   5  -4   45.99    3.30
   0  -5   4   45.49    3.28
   0  -5   4   46.50    3.45
   0  -5   4   44.92    3.10
  -1   5  -4  262.99    6.55
  -1   5  -4  237.74    6.75
   1  -5   4  249.72    6.61
   1  -5   4  256.32    7.30
   1  -5   4  251.33    7.25
  -2   5  -4    2.95    1.64
   2  -5   4    0.29    1.30
   2  -5   4    2.27    1.55
   3  -5   4   23.02    2.72
   3  -5   4   23.32    2.85
   4  -5   4    5.42    1.17
   4  -5   4    4.82    1.92
   4  -5   4    3.63    1.68
   5  -5   4   24.63    3.40
   5  -5   4   29.54    3.67
   5  -5   4   28.27    3.76
   6  -5   4    0.83    2.98
   6  -5   4    0.71    4.15
   6   4  -4  117.26   10.19
  -6  -4   4   98.00    8.37
  -6  -4   4  132.17    8.89
   5   4  -4   17.03    3.58
   5   4  -4   18.61    4.23
  -5  -4   4   13.08    3.63
  -5  -4   4   22.84    4.43
  -5  -4   4   16.00    3.67
   4   4  -4   77.89    5.55
   4   4  -4   98.36    5.58
  -4  -4   4   95.17    5.66
  -4  -4   4   93.29    5.45
  -4  -4   4   87.23    5.34
   3   4  -4    3.19    1.98
   3   4  -4    6.54    1.84
  -3  -4   4    2.96    1.64
  -3  -4   4    3.83    1.87
  -3  -4   4    3.59    2.03
   2   4  -4  105.11    4.59
   2   4  -4   79.82    5.13
  -2  -4   4  101.53    4.56
  -2  -4   4   97.68    4.59
  -2  -4   4   93.96    4.74
   1   4  -4    0.62    1.21
   1   4  -4    3.31    1.25
  -1  -4   4    2.51    1.29
  -1  -4   4    1.97    1.21
  -1  -4   4    0.43    1.32
   0   4  -4   89.67    3.77
   0   4  -4   84.84    3.67
   0  -4   4   85.78    3.45
   0  -4   4   88.65    3.88
   0  -4   4   96.01    3.98
  -1   4  -4    6.64    1.26
  -1   4  -4    5.34    1.30
  -1   4  -4    6.47    1.36
   1  -4   4    6.03    1.26
   1  -4   4    5.13    1.40
   1  -4   4    3.78    1.32
  -2   4  -4   55.98    2.80
  -2   4  -4   56.04    1.71
  -2   4  -4   52.26    1.67
   2  -4   4   53.40    2.94
   2  -4   4   54.17    2.93
   3  -4   4   10.08    1.16
   3  -4   4    8.91    1.58
   3  -4   4    8.13    1.59
   4  -4   4   13.40    1.90
   4  -4   4   13.47    1.87
   4  -4   4   12.23    2.04
   5  -4   4    1.44    1.65
   5  -4   4    4.35    2.37
   5  -4   4   -1.77    1.77
   6  -4   4    2.39    2.56
   6  -4   4    8.95    3.86
   6  -4   4    4.38    2.44
   6   3  -4   71.11    7.46
   6   3  -4   53.47    8.81
  -6  -3   4   52.96    6.38
  -6  -3   4   51.32    6.60
   5   3  -4   13.47    2.88
   5   3  -4    8.92    3.62
  -5  -3   4   14.75    3.84
  -5  -3   4   11.72    2.96
  -5  -3   4   14.22    3.23
   4   3  -4   89.49    5.59
   4   3  -4   93.60    5.48
  -4  -3   4   95.87    5.32
  -4  -3   4   96.03    4.97
   3   3  -4    6.06    1.73
   3   3  -4    5.42    1.46
  -3  -3   4    5.51    2.06
  -3  -3   4    9.25    2.28
  -3  -3   4    6.82    2.02
   2   3  -4  198.04    6.05
   2   3  -4  193.94    6.27
  -2  -3   4  190.62    6.10
  -2  -3   4  205.47    6.20
  -2  -3   4  195.70    6.21
   1   3  -4    7.61    1.31
   1   3  -4   10.48    1.72
  -1  -3   4    6.62    1.25
  -1  -3   4   10.89    1.65
  -1  -3   4    9.71    1.70
   0   3  -4  315.99    7.67
   0   3  -4  321.91    7.85
   0  -3   4  313.08    7.39
   0  -3   4  323.00    8.00
   0  -3   4  314.05    7.92
  -1   3  -4  116.22    3.48
  -1   3  -4  132.96    3.86
  -1   3  -4  128.27    3.87
   1  -3   4  120.53    3.36
   1  -3   4  119.27    4.06
   1  -3   4  130.88    4.14
  -2   3  -4  171.88    3.88
  -2   3  -4  161.87    4.35
   2  -3   4  168.37    3.65
   2  -3   4  169.09    4.85
   2  -3   4  176.98    4.86
   3  -3   4    6.26    1.35
   3  -3   4    7.41    1.35
   4  -3   4   77.22    3.16
   4  -3   4   78.37    3.59
   4  -3   4   76.87    3.32
   5  -3   4   27.28    3.68
   5  -3   4   31.44    3.03
   5  -3   4   23.57    2.53
   6  -3   4   15.91    2.31
   6  -3   4   12.96    2.55
   6  -3   4   10.56    3.48
   7  -3   4    3.40    5.14
   6   2  -4    7.47    3.68
   6   2  -4   -1.59    4.40
  -6  -2   4    5.44    2.97
  -6  -2   4    6.25    4.86
  -6  -2   4    2.64    2.87
   5   2  -4   13.85    3.08
   5   2  -4   14.38    3.20
  -5  -2   4   10.36    2.53
  -5  -2   4   13.17    2.74
  -5  -2   4   16.00    3.59
   4   2  -4   40.38    5.51
   4   2  -4   39.85    4.03
  -4  -2   4   43.94    3.64
  -4  -2   4   43.08    3.89
  -4  -2   4   38.35    3.52
   3   2  -4    7.31    1.67
   3   2  -4    6.29    1.54
   3   2  -4   10.70    2.17
  -3  -2   4    9.52    1.72
  -3  -2   4    8.63    1.71
  -3  -2   4    9.73    1.98
   2   2  -4   68.83    3.42
   2   2  -4   63.01    3.24
   2   2  -4   69.13    3.23
  -2  -2   4   63.55    3.19
  -2  -2   4   66.78    3.25
  -2  -2   4   65.48    3.25
   1   2  -4   -0.10    0.74
   1   2  -4    0.64    0.87
  -1  -2   4    0.01    0.93
  -1  -2   4   -0.04    0.90
  -1  -2   4   -0.11    0.84
   0   2  -4  185.54    5.17
   0   2  -4  188.90    5.06
   0  -2   4  187.28    5.24
   0  -2   4  194.16    5.27
   0  -2   4  181.96    4.71
  -1   2  -4    0.67    0.65
  -1   2  -4    0.80    0.78
  -1   2  -4   -0.22    0.54
   1  -2   4    0.43    0.59
   1  -2   4    0.32    0.82
   1  -2   4   -0.33    0.74
  -2   2  -4  157.24    3.71
  -2   2  -4  153.04    3.73
   2  -2   4  155.87    4.41
   2  -2   4  152.84    4.29
   3  -2   4    9.02    1.24
   3  -2   4    9.90    1.47
   3  -2   4    9.00    1.34
   4  -2   4   98.28    3.59
   4  -2   4   96.22    3.22
   4  -2   4   97.48    3.77
   5  -2   4    2.07    1.53
   5  -2   4   -0.14    1.84
   5  -2   4    2.35    1.35
   6  -2   4  150.08    6.93
   6  -2   4  149.71    5.09
   6  -2   4  146.07    5.47
   7  -2   4    4.24    3.40
   7  -2   4   -5.42    4.34
   7  -2   4    4.21    2.97
   6   1  -4   -1.21    4.01
   6   1  -4    7.17    3.71
  -6  -1   4    4.43    2.16
  -6  -1   4    7.62    4.15
   5   1  -4  103.02    6.00
   5   1  -4   93.03    5.73
   5   1  -4   94.86    5.90
  -5  -1   4   88.59    5.81
  -5  -1   4   95.78    4.54
  -5  -1   4   87.87    4.50
   4   1  -4    3.11    3.56
   4   1  -4    0.90    1.84
   4   1  -4    0.35    1.85
  -4  -1   4    0.64    1.47
  -4  -1   4    1.57    1.46
  -4  -1   4    0.34    2.02
   3   1  -4  166.32    5.39
   3   1  -4  164.62    5.55
   3   1  -4  167.19    5.84
  -3  -1   4  168.63    5.36
  -3  -1   4  170.01    5.71
  -3  -1   4  165.39    5.30
   2   1  -4    0.58    0.84
   2   1  -4    0.10    1.01
   2   1  -4    0.70    1.05
  -2  -1   4    1.56    1.05
  -2  -1   4    0.87    0.93
  -2  -1   4    0.61    0.86
   1   1  -4   61.80    2.75
   1   1  -4   62.62    2.87
   1   1  -4   61.61    2.72
  -1  -1   4   62.09    2.66
  -1  -1   4   59.68    2.74
  -1  -1   4   64.93    2.81
   0   1  -4   28.72    1.68
   0   1  -4   28.27    1.90
   0   1  -4   29.93    1.88
   0  -1   4   27.97    1.86
   0  -1   4   28.65    1.85
   0  -1   4   29.50    1.60
  -1   1  -4  137.70    3.87
  -1   1  -4  137.69    3.76
   1  -1   4  139.31    3.94
   1  -1   4  136.34    4.00
  -2   1  -4   47.55    1.85
  -2   1  -4   47.37    1.81
   2  -1   4   46.16    2.19
   2  -1   4   48.53    2.10
   3  -1   4   71.52    2.82
   3  -1   4   66.79    2.48
   3  -1   4   67.19    2.46
   4  -1   4   67.66    3.05
   4  -1   4   63.26    2.97
   4  -1   4   65.91    2.74
   5  -1   4   51.79    3.18
   5  -1   4   54.34    2.95
   5  -1   4   58.20    3.62
   6  -1   4   28.58    3.89
   6  -1   4   35.09    3.37
   7  -1   4    1.86    4.23
   7  -1   4    7.35    2.96
   6   0  -4   -5.59    3.34
   6   0  -4   -2.27    4.10
   6   0  -4   -1.71    2.97
  -6   0   4   -2.01    4.03
   5   0  -4   97.97    5.46
   5   0  -4   96.24    5.46
   5   0  -4   95.36    5.88
  -5   0   4  102.87    3.95
  -5   0   4   94.49    3.76
  -5   0   4  104.22    5.79
   4   0  -4   55.95    3.82
   4   0  -4   56.49    3.76
   4   0  -4   52.20    3.90
  -4   0   4   51.08    3.86
  -4   0   4   58.15    3.17
  -4   0   4   50.19    3.00
   3   0  -4  192.42    5.60
   3   0  -4  192.08    6.25
   3   0  -4  200.22    5.95
  -3   0   4  193.11    5.53
  -3   0   4  195.18    5.50
  -3   0   4  189.57    6.09
   2   0  -4    3.45    1.02
   2   0  -4    3.42    0.96
   2   0  -4    3.45    1.16
  -2   0   4    4.64    1.13
  -2   0   4    3.63    1.02
  -2   0   4    3.51    1.10
   1   0  -4  170.49    4.79
   1   0  -4  179.42    4.93
   1   0  -4  178.35    4.78
  -1   0   4  185.35    4.90
  -1   0   4  183.35    4.84
  -1   0   4  182.44    4.93
   0   0  -4   70.39    2.34
   0   0  -4   70.34    2.67
   0   0  -4   71.98    2.62
   0   0   4   73.87    2.69
   0   0   4   70.51    2.64
   0   0   4   74.30    2.34
  -1   0  -4  768.57   14.75
  -1   0  -4  792.17   15.66
  -1   0  -4  799.04   15.55
   1   0   4  804.90   15.68
   1   0   4  787.24   15.82
  -2   0  -4   89.26    2.67
  -2   0  -4   87.09    2.83
   2   0   4   83.99    2.75
   2   0   4   88.41    3.01
  -3   0  -4  309.90    6.32
  -3   0  -4  308.52    6.14
   3   0   4  313.12    7.27
   3   0   4  310.03    7.04
  -4   0  -4    3.67    1.00
   4   0   4    2.70    1.13
   4   0   4    3.35    1.07
   5   0   4   33.30    2.75
   5   0   4   31.63    2.93
   6   0   4   -1.36    1.74
   6   0   4    2.22    2.10
   7   0   4   20.70    3.61
   7   0   4   19.79    3.42
   7  -1  -4   21.80    5.45
   7  -1  -4   20.19    5.25
   6  -1  -4   21.91    3.65
   6  -1  -4   24.92    3.75
   6  -1  -4   29.21    5.10
   5  -1  -4   15.00    3.13
   5  -1  -4   28.53    3.86
  -5   1   4   20.30    3.39
   4  -1  -4    1.23    1.41
   4  -1  -4    3.83    1.61
   4  -1  -4    3.75    2.06
  -4   1   4    4.31    1.20
  -4   1   4    5.25    1.91
  -4   1   4    3.95    1.22
   3  -1  -4    7.87    1.39
   3  -1  -4    7.56    1.63
   3  -1  -4    7.36    1.48
  -3   1   4    8.09    1.24
  -3   1   4    9.59    1.77
  -3   1   4    7.85    1.24
   2  -1  -4   12.24    1.78
   2  -1  -4   14.23    1.79
   2  -1  -4   12.89    1.68
  -2   1   4   13.05    1.59
  -2   1   4   12.74    1.63
  -2   1   4   11.83    1.52
   1  -1  -4  125.57    3.67
   1  -1  -4  118.51    3.75
   1  -1  -4  124.08    3.75
  -1   1   4  124.86    3.71
  -1   1   4  125.53    3.62
   0  -1  -4   34.56    1.78
   0  -1  -4   32.64    1.55
   0  -1  -4   32.15    1.39
   0  -1  -4   31.07    1.76
   0   1   4   34.27    1.76
   0   1   4   34.08    1.82
  -1  -1  -4  310.01    6.72
  -1  -1  -4  288.54    6.75
   1   1   4  301.56    6.72
   1   1   4  302.62    6.92
  -2  -1  -4   61.24    2.26
  -2  -1  -4   61.80    2.30
   2   1   4   58.77    2.47
   2   1   4   62.82    2.37
  -3  -1  -4  323.37    6.88
  -3  -1  -4  318.79    6.99
   3   1   4  327.98    7.64
   3   1   4  317.09    7.34
  -4  -1  -4    2.49    0.65
  -4  -1  -4    2.02    0.67
  -4  -1  -4    2.84    1.11
   4   1   4    1.76    1.18
   4   1   4    2.06    1.02
  -5  -1  -4   41.75    3.04
   5   1   4   44.83    3.03
   5   1   4   40.61    3.31
  -6  -1  -4    1.70    2.40
   6   1   4    2.44    1.90
   6   1   4   -0.53    2.14
  -7  -1  -4   94.59    6.63
   7   1   4   91.21    6.13
   7   1   4   79.32    6.47
   7  -2  -4    7.56    5.10
   7  -2  -4    1.89    4.32
   7  -2  -4   15.92    8.56
   6  -2  -4    9.01    5.05
   6  -2  -4   12.41    3.28
   6  -2  -4   11.36    3.40
   5  -2  -4   26.23    3.54
   5  -2  -4   25.67    3.78
   5  -2  -4   21.81    2.78
   4  -2  -4   43.78    3.84
   4  -2  -4   41.26    2.95
   4  -2  -4   45.14    3.15
   3  -2  -4   22.38    2.42
   3  -2  -4   16.99    1.89
   3  -2  -4   15.67    2.13
  -3   2   4   18.00    1.53
  -3   2   4   19.54    1.57
   2  -2  -4   51.47    2.33
   2  -2  -4   57.01    2.83
   2  -2  -4   47.89    2.32
  -2   2   4   50.84    2.13
  -2   2   4   49.96    2.16
   1  -2  -4    9.30    1.35
   1  -2  -4   11.67    1.45
   1  -2  -4    8.71    1.11
   1  -2  -4    8.90    1.41
  -1   2   4    7.91    1.05
  -1   2   4    9.22    1.26
   0  -2  -4    2.59    0.71
   0  -2  -4    1.50    0.62
   0  -2  -4    2.45    0.68
   0   2   4    2.03    0.74
   0   2   4    1.76    0.65
   0   2   4    2.24    0.70
  -1  -2  -4    0.59    0.61
  -1  -2  -4   -0.84    0.59
   1   2   4    0.12    0.44
   1   2   4   -0.80    0.56
   1   2   4   -0.06    0.55
  -2  -2  -4   82.35    2.86
  -2  -2  -4   85.33    2.96
   2   2   4   85.11    3.05
   2   2   4   84.87    2.90
  -3  -2  -4   40.24    2.06
  -3  -2  -4   37.26    1.98
   3   2   4   38.58    2.30
   3   2   4   39.16    2.16
  -4  -2  -4    4.31    1.44
  -4  -2  -4    4.99    1.10
  -4  -2  -4    4.62    1.09
   4   2   4    3.02    1.32
   4   2   4    5.75    1.36
  -5  -2  -4   22.77    2.98
  -5  -2  -4   22.76    1.61
  -5  -2  -4   24.93    1.69
   5   2   4   28.58    2.98
   5   2   4   27.39    3.16
  -6  -2  -4    3.40    2.68
   6   2   4   -0.10    2.33
   6   2   4    4.07    2.09
  -7  -2  -4   44.85    5.40
   7   2   4   40.42    4.38
   7   2   4   42.40    5.47
   6  -3  -4   22.31    3.35
   6  -3  -4   19.06    4.64
   6  -3  -4   26.93    4.27
   6  -3  -4   20.08    3.45
   5  -3  -4    2.30    2.67
   5  -3  -4    2.21    2.90
   5  -3  -4   -1.30    1.81
   5  -3  -4    1.03    1.93
   4  -3  -4   89.06    4.73
   4  -3  -4   75.92    4.45
   4  -3  -4   81.34    3.57
   4  -3  -4   80.76    3.69
   3  -3  -4   34.46    2.69
   3  -3  -4   27.96    2.20
   3  -3  -4   27.48    2.19
   3  -3  -4   23.03    2.62
   2  -3  -4  194.29    5.66
   2  -3  -4  194.40    4.94
   2  -3  -4  188.17    5.02
  -2   3   4  191.39    4.51
  -2   3   4  187.27    4.53
   1  -3  -4  108.11    3.30
   1  -3  -4  111.51    3.59
   1  -3  -4  109.62    3.43
  -1   3   4  112.21    3.22
  -1   3   4  105.97    3.21
   0  -3  -4  162.56    4.43
   0  -3  -4  163.62    4.24
   0  -3  -4  166.36    4.27
   0   3   4  163.64    4.37
   0   3   4  165.17    4.24
   0   3   4  157.80    4.23
  -1  -3  -4   -0.87    0.65
  -1  -3  -4    0.55    0.79
   1   3   4    0.95    0.68
   1   3   4    0.30    0.71
   1   3   4    0.74    0.65
  -2  -3  -4  201.84    5.23
  -2  -3  -4  190.92    5.21
   2   3   4  193.90    5.13
   2   3   4  198.85    5.36
  -3  -3  -4   15.89    1.72
   3   3   4   15.54    1.71
   3   3   4   16.92    1.95
  -4  -3  -4   91.94    3.56
  -4  -3  -4   95.60    4.02
  -4  -3  -4   97.13    3.65
   4   3   4  104.50    4.21
   4   3   4  100.43    3.98
  -5  -3  -4    6.31    1.45
  -5  -3  -4    6.61    1.47
  -5  -3  -4    5.87    2.06
   5   3   4    5.82    1.94
   5   3   4    7.44    1.76
  -6  -3  -4   71.12    2.66
  -6  -3  -4   69.97    2.69
  -6  -3  -4   78.13    5.36
   6   3   4   86.10    5.25
   6   3   4   77.98    5.23
  -7  -3  -4    5.65    4.62
   7   3   4   -0.06    3.44
   7   3   4   12.00    3.49
   6  -4  -4    1.57    4.35
   6  -4  -4    6.97    3.14
   6  -4  -4    2.37    2.83
   6  -4  -4   12.26    3.84
   5  -4  -4    2.92    1.89
   5  -4  -4    0.77    2.43
   5  -4  -4    3.83    2.00
   5  -4  -4    8.48    3.44
   4  -4  -4   58.25    4.13
   4  -4  -4   55.10    4.36
   4  -4  -4   57.65    3.08
   4  -4  -4   54.84    3.13
   3  -4  -4    5.44    1.86
   3  -4  -4    4.52    1.26
   3  -4  -4    5.76    1.17
   3  -4  -4    4.39    1.59
   2  -4  -4  209.61    5.20
   2  -4  -4  205.02    5.99
   2  -4  -4  202.44    5.28
  -2   4   4  204.84    4.46
  -2   4   4  207.29    4.45
   1  -4  -4   33.29    1.95
   1  -4  -4   29.81    2.04
   1  -4  -4   33.45    1.84
  -1   4   4   31.54    2.15
  -1   4   4   32.68    1.71
  -1   4   4   32.29    1.77
   0  -4  -4   86.07    3.04
   0  -4  -4   86.09    2.94
   0  -4  -4   87.08    3.08
   0   4   4   87.42    3.04
   0   4   4   87.21    2.82
   0   4   4   84.70    3.07
  -1  -4  -4    0.58    0.73
  -1  -4  -4    1.11    0.79
   1   4   4    0.51    0.78
   1   4   4    0.50    0.77
   1   4   4    0.84    0.65
  -2  -4  -4   61.59    2.80
  -2  -4  -4   65.32    2.82
   2   4   4   58.56    2.69
   2   4   4   62.97    2.88
  -3  -4  -4  132.25    4.39
   3   4   4  125.33    4.29
   3   4   4  130.00    4.54
  -4  -4  -4  198.86    5.97
  -4  -4  -4  205.15    6.04
  -4  -4  -4  200.54    6.25
   4   4   4  208.81    6.51
   4   4   4  203.43    6.18
  -5  -4  -4    8.76    1.89
  -5  -4  -4   15.59    2.90
  -5  -4  -4   14.42    2.07
   5   4   4    8.91    2.51
   5   4   4   14.82    2.30
  -6  -4  -4   48.29    5.29
  -6  -4  -4   50.75    3.76
  -6  -4  -4   44.91    3.67
   6   4   4   44.20    4.92
   6   4   4   57.28    4.85
  -7  -4  -4   -0.88    4.66
   7   4   4    2.34    3.75
   7   4   4    6.11    3.47
   6  -5  -4    2.43    3.09
   6  -5  -4    4.11    4.81
   6  -5  -4    0.16    2.83
   6  -5  -4    2.49    4.37
   5  -5  -4   24.22    3.48
   5  -5  -4   24.52    3.77
   5  -5  -4   26.21    3.56
   5  -5  -4   24.29    3.52
   4  -5  -4    1.82    1.51
   4  -5  -4    3.99    3.80
   4  -5  -4    1.27    1.43
   4  -5  -4    1.01    2.13
   3  -5  -4   24.20    2.87
   3  -5  -4   21.45    2.16
   3  -5  -4   23.68    2.85
   3  -5  -4   23.03    2.17
   2  -5  -4   35.13    2.20
   2  -5  -4   33.52    2.08
   2  -5  -4   34.07    2.57
   1  -5  -4   13.23    1.58
   1  -5  -4   13.04    1.49
   1  -5  -4   12.52    1.65
  -1   5   4   12.12    1.77
  -1   5   4   10.65    1.41
  -1   5   4   12.06    1.35
   0  -5  -4    6.97    1.06
   0  -5  -4   10.11    1.30
   0   5   4    9.33    1.27
   0   5   4    9.61    1.35
   0   5   4   10.51    1.56
  -1  -5  -4    4.02    1.04
  -1  -5  -4    4.21    1.02
   1   5   4    4.30    1.00
   1   5   4    3.36    0.97
   1   5   4    2.96    0.88
  -2  -5  -4    2.08    0.99
  -2  -5  -4    3.99    1.13
   2   5   4    1.88    0.88
   2   5   4    2.62    0.93
  -3  -5  -4    4.41    1.26
   3   5   4    3.87    1.16
   3   5   4    4.70    1.28
  -4  -5  -4   45.26    3.31
  -4  -5  -4   51.66    3.34
   4   5   4   50.91    3.30
  -5  -5  -4    8.14    2.06
  -5  -5  -4    3.41    2.54
  -5  -5  -4    6.32    1.91
   5   5   4    5.75    2.21
   5   5   4    7.79    2.33
  -6  -5  -4    6.89    2.59
  -6  -5  -4    5.02    3.46
  -6  -5  -4    8.66    2.34
   6   5   4    6.23    2.93
   6   5   4   10.08    2.90
  -7  -5  -4    0.33    5.26
  -7  -5  -4   -2.65    2.83
  -7  -5  -4    2.55    2.81
   7   5   4   -1.19    4.67
   6  -6  -4    3.97    5.48
   6  -6  -4   -1.54    3.16
   6  -6  -4    4.32    2.89
   5  -6  -4   65.96    5.82
   5  -6  -4   65.40    6.72
   5  -6  -4   58.45    3.98
   5  -6  -4   54.43    4.11
   4  -6  -4   16.33    3.46
   4  -6  -4   20.12    2.61
   4  -6  -4   16.87    2.93
   4  -6  -4   16.43    2.06
   3  -6  -4    1.73    1.27
   3  -6  -4    2.12    1.64
   3  -6  -4    3.20    1.24
   2  -6  -4   35.35    2.86
   2  -6  -4   34.30    2.25
   2  -6  -4   35.80    2.37
  -2   6   4   34.80    3.06
   1  -6  -4  137.52    4.27
   1  -6  -4  141.98    4.41
   1  -6  -4  138.96    4.76
  -1   6   4  141.80    5.01
  -1   6   4  141.01    3.83
  -1   6   4  138.05    3.78
   0  -6  -4    0.84    0.96
   0  -6  -4    0.42    0.86
   0   6   4    1.27    0.99
   0   6   4    0.23    0.68
   0   6   4    0.99    0.92
  -1  -6  -4  205.27    5.84
  -1  -6  -4  201.90    5.84
   1   6   4  198.40    5.77
   1   6   4  201.28    5.57
   1   6   4  203.14    5.89
  -2  -6  -4    6.11    1.35
  -2  -6  -4    8.82    1.58
   2   6   4    9.28    1.61
   2   6   4    7.09    1.34
  -3  -6  -4   95.20    4.24
  -3  -6  -4   91.29    4.16
   3   6   4   94.16    4.01
   3   6   4   92.95    4.25
  -4  -6  -4    1.89    1.70
   4   6   4    0.14    1.29
  -5  -6  -4   23.00    3.84
  -5  -6  -4   16.79    2.67
   5   6   4   16.43    2.53
   5   6   4   10.22    2.35
  -6  -6  -4    2.13    4.29
  -6  -6  -4    7.36    2.68
  -6  -6  -4    4.03    2.86
   6   6   4    0.87    3.17
  -7  -6  -4    3.12    3.99
  -7  -6  -4    6.02    4.06
  -7  -6  -4    4.74    6.43
   7   6   4   11.44    4.20
   6  -7  -4    7.47    5.83
   5  -7  -4   11.26    3.73
   5  -7  -4   12.92    2.46
   5  -7  -4    7.92    4.08
   5  -7  -4   11.31    2.48
   4  -7  -4   16.29    3.29
   4  -7  -4   13.85    2.10
   4  -7  -4   16.48    2.23
   4  -7  -4   21.75    3.11
   3  -7  -4  137.94    4.66
   3  -7  -4  140.39    5.87
   3  -7  -4  126.34    4.38
   2  -7  -4    0.60    1.29
   2  -7  -4   -0.06    1.19
   2  -7  -4   -0.45    1.65
  -2   7   4   -1.73    1.37
   1  -7  -4  141.93    4.76
   1  -7  -4  139.72    4.62
  -1   7   4  149.07    5.38
  -1   7   4  137.78    3.92
  -1   7   4  141.34    3.88
   0  -7  -4   68.64    3.33
   0  -7  -4   69.50    3.44
   0   7   4   65.40    3.14
   0   7   4   71.97    2.90
   0   7   4   68.36    3.59
  -1  -7  -4  210.05    6.32
  -1  -7  -4  207.56    6.24
   1   7   4  205.79    6.37
   1   7   4  205.36    5.88
   1   7   4  204.47    6.09
  -2  -7  -4    9.40    1.83
  -2  -7  -4   10.69    1.72
   2   7   4    6.56    1.47
   2   7   4    6.90    1.43
  -3  -7  -4   32.10    3.29
  -3  -7  -4   35.86    3.22
   3   7   4   40.34    3.08
   3   7   4   33.40    3.13
  -4  -7  -4   16.50    2.63
  -4  -7  -4   27.11    3.23
   4   7   4   19.33    2.72
   4   7   4   14.36    2.04
  -5  -7  -4   59.98    5.20
  -5  -7  -4   69.46    5.39
  -5  -7  -4   66.10    6.11
   5   7   4   52.16    5.24
   5   7   4   75.79    4.95
  -6  -7  -4   12.93    3.32
  -6  -7  -4   16.95    3.83
  -6  -7  -4   12.79    4.96
   6   7   4   15.58    3.11
   6   7   4    6.03    3.50
   5  -8  -4    2.47    2.61
   5  -8  -4    6.40    5.32
   5  -8  -4    8.22    5.05
   5  -8  -4    6.96    2.70
   4  -8  -4   12.86    2.37
   4  -8  -4    8.77    2.18
   4  -8  -4   12.65    3.51
   4  -8  -4   12.53    3.80
   3  -8  -4   13.66    2.62
   3  -8  -4   13.79    2.26
   3  -8  -4   14.39    2.19
   2  -8  -4   23.02    2.94
   2  -8  -4   17.66    2.28
   2  -8  -4   20.90    2.70
  -2   8   4   28.22    3.65
   1  -8  -4   35.08    3.14
   1  -8  -4   40.86    3.29
  -1   8   4   40.07    2.31
  -1   8   4   40.56    3.70
  -1   8   4   40.63    2.19
   0  -8  -4    4.58    1.67
   0  -8  -4    3.25    1.55
   0   8   4    4.33    1.47
   0   8   4    4.40    1.44
   0   8   4    3.80    1.20
  -1  -8  -4   34.01    3.18
  -1  -8  -4   36.90    3.69
   1   8   4   31.56    2.77
   1   8   4   35.02    3.07
   1   8   4   35.75    3.08
  -2  -8  -4   35.50    3.52
   2   8   4   35.67    3.14
   2   8   4   35.79    4.04
  -3  -8  -4   36.96    3.62
  -3  -8  -4   43.82    3.86
   3   8   4   37.75    3.32
   3   8   4   36.57    3.76
  -4  -8  -4   -1.81    2.04
  -4  -8  -4   -2.83    2.23
   4   8   4    2.79    1.89
   4   8   4    2.41    1.97
  -5  -8  -4   41.58    5.77
  -5  -8  -4   46.70    5.87
  -5  -8  -4   61.15    6.36
   5   8   4   46.28    5.70
   5   8   4   54.15    4.93
  -6  -8  -4   28.09    4.44
  -6  -8  -4   22.21    4.73
   6   8   4   29.91    4.47
   5  -9  -4    6.04    6.01
   4  -9  -4   33.77    4.55
   4  -9  -4   42.58    5.58
   4  -9  -4   38.36    5.03
   4  -9  -4   44.56    4.85
   3  -9  -4    6.24    2.36
   3  -9  -4    0.86    2.16
   3  -9  -4    5.33    2.94
  -3   9   4    4.17    3.09
   2  -9  -4   64.71    4.29
   2  -9  -4   64.74    4.27
  -2   9   4   70.24    5.36
   1  -9  -4    2.03    1.89
   1  -9  -4    0.37    1.84
  -1   9   4    0.41    1.20
  -1   9   4    2.67    2.07
  -1   9   4    0.13    1.10
   0  -9  -4   74.50    4.44
   0  -9  -4   69.79    4.41
   0   9   4   76.66    4.57
   0   9   4   71.33    3.43
   0   9   4   75.83    3.90
  -1  -9  -4    5.83    2.06
  -1  -9  -4    5.54    2.10
   1   9   4    1.71    1.60
   1   9   4    1.74    1.74
   1   9   4    5.75    1.94
  -2  -9  -4    1.12    2.04
  -2  -9  -4   -0.05    1.44
   2   9   4   -0.21    1.85
   2   9   4    0.69    1.69
  -3  -9  -4    7.14    2.38
  -3  -9  -4   10.20    2.66
   3   9   4    4.47    1.93
   3   9   4    2.42    2.02
  -4  -9  -4   39.43    5.39
  -4  -9  -4   33.17    3.71
   4   9   4   39.69    5.03
   4   9   4   45.11    4.52
  -5  -9  -4   24.79    4.27
  -5  -9  -4   27.81    4.62
  -5  -9  -4   26.69    4.87
   5   9   4   26.31    4.55
   5   9   4   27.30    4.15
   4 -10  -4   27.69    3.88
   4 -10  -4   14.89    5.39
   3 -10  -4    1.77    2.98
   3 -10  -4   12.59    3.91
  -3  10   4    5.40    4.24
   2 -10  -4   42.52    5.06
   2 -10  -4   42.57    5.01
  -2  10   4   46.39    5.76
   1 -10  -4    2.80    2.26
  -1  10   4    4.19    1.27
  -1  10   4    2.71    1.36
  -1  10   4    1.92    2.58
   0 -10  -4   44.78    4.81
   0 -10  -4   38.02    4.60
   0  10   4   41.68    4.44
   0  10   4   43.14    3.99
   0  10   4   41.78    3.32
  -1 -10  -4    5.12    2.78
   1  10   4    8.74    2.40
   1  10   4    5.63    2.41
   1  10   4    5.55    2.05
  -2 -10  -4   93.08    5.74
  -2 -10  -4   91.95    5.61
   2  10   4  102.43    5.35
   2  10   4   91.92    5.51
   2  10   4   92.49    5.83
  -3 -10  -4    3.83    2.96
  -3 -10  -4    0.73    2.15
   3  10   4    1.97    3.19
   3  10   4    0.36    1.99
  -4 -10  -4   54.05    6.17
  -4 -10  -4   48.30    6.53
   4  10   4   53.35    5.39
   4  10   4   52.13    7.11
  -5 -10  -4    0.86    4.33
   3 -11  -4    1.76    3.61
  -3  11   4   11.64    5.61
   2 -11  -4    3.85    3.70
   2 -11  -4    6.09    3.52
  -2  11   4   11.36    4.31
   1 -11  -4   17.17    3.55
   1 -11  -4   10.66    3.38
  -1  11   4    7.06    3.28
   0 -11  -4   40.31    5.82
   0  11   4   44.66    4.44
   0  11   4   35.39    3.87
   0  11   4   35.83    5.19
  -1 -11  -4    4.68    2.74
  -1 -11  -4    2.65    3.06
   1  11   4    3.14    2.86
   1  11   4    0.75    2.60
   1  11   4    1.23    2.27
  -2 -11  -4   51.06    5.85
  -2 -11  -4   41.42    5.66
   2  11   4   65.05    5.29
   2  11   4   62.58    6.25
   2  11   4   57.95    6.08
  -3 -11  -4    6.00    3.84
  -3 -11  -4   -2.20    2.79
   3  11   4    3.69    3.03
   3  11   4    9.00    3.78
  -4 -11  -4   11.49    7.04
   4  11   4    2.20    3.31
   2 -12  -4    9.18    4.60
  -2  12   4    7.23    9.33
   1 -12  -4   15.32    4.55
  -1  12   4    9.88    4.60
   0 -12  -4    4.21    3.75
   0 -12  -4    7.99    4.09
   0  12   4   10.33    3.33
   0  12   4    6.96    2.71
   0  12   4   -2.28    3.45
  -1 -12  -4    8.89    3.90
  -1 -12  -4   22.57    4.67
   1  12   4   14.66    4.21
   1  12   4   19.35    3.64
   1  12   4   15.39    3.72
  -2 -12  -4    6.15    4.08
   2  12   4    3.39    3.83
   2  12   4    5.63    4.60
   2  12   4    3.58    3.47
   3  12   4    2.24    3.91
   0   9  -5   20.58    4.79
   0   9  -5   15.67    5.03
   0   9  -5   12.52    4.01
   0  -9   5   26.58    5.40
   0  -9   5   27.60    5.54
   1  -9   5   11.43    5.15
   2   8  -5   19.23    4.98
   2   8  -5   11.73    4.36
  -2  -8   5   14.94    3.73
   1   8  -5   -4.16    3.40
   1   8  -5   -0.47    3.89
  -1  -8   5    1.54    3.22
  -1  -8   5    3.71    4.03
   0   8  -5  109.79    6.32
   0   8  -5  103.31    6.83
   0   8  -5  103.44    6.63
   0  -8   5  108.33    7.97
   0  -8   5   91.07    7.60
   0  -8   5   91.89    6.82
  -1   8  -5    7.52    2.42
  -1   8  -5    7.41    3.41
  -1   8  -5    4.96    2.77
   1  -8   5    5.36    3.87
   1  -8   5    1.56    3.68
   2  -8   5   33.89    5.06
   2  -8   5   45.74    5.04
   2  -8   5   30.97    4.41
   3  -8   5   -1.09    3.92
   3  -8   5    0.04    4.14
   3   7  -5   34.54    4.88
  -3  -7   5   42.24    5.86
  -3  -7   5   45.24    6.28
   2   7  -5    0.23    3.70
  -2  -7   5    3.53    3.54
  -2  -7   5   -1.67    2.77
  -2  -7   5   -3.73    2.99
   1   7  -5    4.09    3.03
  -1  -7   5    6.81    3.11
  -1  -7   5    6.32    3.04
  -1  -7   5   10.97    3.30
   0   7  -5    2.94    2.62
   0   7  -5   -1.37    2.68
   0   7  -5    0.49    3.74
   0  -7   5    2.05    2.88
   0  -7   5   -0.84    2.66
   0  -7   5    1.67    3.32
  -1   7  -5   31.68    3.93
  -1   7  -5   25.15    3.48
  -1   7  -5   19.58    2.44
   1  -7   5   28.28    3.23
   1  -7   5   18.39    3.23
   1  -7   5   25.32    3.76
  -2   7  -5    8.37    3.09
   2  -7   5   -0.85    2.86
   2  -7   5    6.52    3.28
   2  -7   5    6.81    2.20
   3  -7   5    4.23    3.18
   3  -7   5    7.63    3.19
   3  -7   5    3.32    2.34
   4  -7   5    7.00    3.64
   4  -7   5    1.33    3.53
   4   6  -5   -0.86    4.05
  -4  -6   5   -1.39    3.66
  -4  -6   5   -7.56    5.34
   3   6  -5   78.83    6.53
   3   6  -5   85.81    6.76
  -3  -6   5   90.97    6.55
  -3  -6   5   91.03    6.57
  -3  -6   5   76.66    7.06
   2   6  -5   40.70    5.21
   2   6  -5   50.71    5.43
  -2  -6   5   32.29    4.43
  -2  -6   5   42.62    5.00
  -2  -6   5   41.54    4.71
   1   6  -5  108.68    5.93
   1   6  -5  104.00    5.54
  -1  -6   5  112.94    5.49
  -1  -6   5  108.68    5.91
  -1  -6   5  100.00    5.61
   0   6  -5   10.51    2.92
   0  -6   5   15.62    2.70
   0  -6   5    9.46    2.43
   0  -6   5   13.02    2.77
  -1   6  -5   58.15    3.62
  -1   6  -5   64.77    3.98
  -1   6  -5   64.82    4.06
   1  -6   5   49.30    4.64
   1  -6   5   61.17    3.82
   1  -6   5   65.36    4.88
  -2   6  -5    0.23    2.17
   2  -6   5   -1.10    2.19
   2  -6   5   -0.70    2.11
   2  -6   5    1.61    1.60
   3  -6   5   54.83    4.86
   3  -6   5   66.05    4.87
   4  -6   5   13.78    3.00
   4  -6   5   12.63    3.06
   5  -6   5   13.55    3.24
   5  -6   5    8.69    4.00
  -5  -5   5   18.13    5.11
  -5  -5   5    9.06    5.08
   4   5  -5    0.50    3.37
   4   5  -5   -6.26    3.23
  -4  -5   5   -6.17    4.09
  -4  -5   5    1.68    3.38
  -4  -5   5   -6.13    3.19
   3   5  -5   23.84    3.17
   3   5  -5   38.49    4.64
  -3  -5   5   25.90    3.37
  -3  -5   5   36.93    5.02
  -3  -5   5   41.69    4.68
   2   5  -5   15.99    2.74
   2   5  -5   20.90    3.01
  -2  -5   5   12.34    2.44
  -2  -5   5   19.02    3.33
  -2  -5   5   11.68    2.27
   1   5  -5   78.85    4.52
  -1  -5   5   72.83    4.64
  -1  -5   5   79.63    4.52
  -1  -5   5   85.29    4.45
   0   5  -5   22.80    3.22
   0   5  -5   22.76    3.24
   0  -5   5   23.96    2.69
   0  -5   5   17.47    2.49
  -1   5  -5   31.47    3.06
  -1   5  -5   30.40    2.86
   1  -5   5   32.47    2.76
   1  -5   5   28.92    3.44
   1  -5   5   28.41    3.37
  -2   5  -5   58.66    2.33
  -2   5  -5   61.20    2.44
  -2   5  -5   62.79    3.43
   2  -5   5   61.78    4.00
   2  -5   5   55.35    3.94
   2  -5   5   57.59    2.71
   3  -5   5   78.83    4.46
   3  -5   5   83.51    4.36
   4  -5   5    8.80    2.52
   4  -5   5    6.01    2.15
   5  -5   5   92.75    5.27
   5  -5   5  107.76    5.82
   5   4  -5    6.72    3.82
  -5  -4   5    7.25    4.14
  -5  -4   5    7.69    3.98
   4   4  -5   15.72    2.96
   4   4  -5   14.10    3.28
  -4  -4   5    9.10    3.00
  -4  -4   5   10.93    2.91
  -4  -4   5   14.10    3.60
   3   4  -5    0.76    1.96
   3   4  -5    2.63    1.91
  -3  -4   5    1.71    2.25
  -3  -4   5   -1.57    2.19
  -3  -4   5    1.35    2.21
   2   4  -5   25.37    3.01
   2   4  -5   26.22    3.46
  -2  -4   5   26.07    3.18
  -2  -4   5   27.30    5.18
  -2  -4   5   27.03    3.39
   1   4  -5    0.73    1.45
   1   4  -5   -0.09    1.71
  -1  -4   5   -1.88    1.36
  -1  -4   5   -0.98    1.06
  -1  -4   5    1.00    1.53
   0   4  -5    3.25    1.58
   0   4  -5    2.06    1.54
   0  -4   5    6.17    1.81
   0  -4   5    1.91    1.34
   0  -4   5    1.02    1.30
  -1   4  -5    9.51    1.65
  -1   4  -5    9.42    1.58
  -1   4  -5    9.21    1.69
   1  -4   5   10.23    1.54
   1  -4   5    8.39    1.84
   1  -4   5    6.44    1.84
  -2   4  -5    3.72    1.14
  -2   4  -5    5.14    1.29
   2  -4   5    2.53    1.52
   2  -4   5    2.68    1.56
   2  -4   5    5.88    1.00
   3  -4   5   43.37    3.31
   3  -4   5   46.82    3.44
   4  -4   5   -0.63    1.80
   4  -4   5    0.34    1.68
   5  -4   5   22.14    2.75
   5  -4   5   24.07    3.04
   6  -4   5    2.36    3.12
   6  -4   5    2.02    2.85
   6  -4   5    3.58    4.27
   5   3  -5   15.86    3.94
   5   3  -5    8.70    3.51
  -5  -3   5   19.83    3.81
  -5  -3   5   10.40    4.39
  -5  -3   5   16.60    3.89
   4   3  -5   22.88    3.33
   4   3  -5   21.22    3.12
  -4  -3   5   20.90    3.33
  -4  -3   5   21.33    3.18
  -4  -3   5   31.51    4.47
   3   3  -5    7.83    2.23
   3   3  -5    3.18    1.93
  -3  -3   5   11.24    2.42
  -3  -3   5    9.92    2.40
  -3  -3   5    7.43    2.02
   2   3  -5  133.38    5.18
   2   3  -5  139.55    5.47
  -2  -3   5  133.76    5.27
  -2  -3   5  140.98    5.30
  -2  -3   5  133.06    5.34
   1   3  -5    2.88    1.38
   1   3  -5    5.58    1.63
  -1  -3   5    4.97    1.44
  -1  -3   5    4.42    1.48
  -1  -3   5    4.16    1.49
   0   3  -5  446.92   10.39
   0   3  -5  458.74   10.63
   0  -3   5  434.29    9.90
   0  -3   5  455.46   10.79
   0  -3   5  439.81   10.71
  -1   3  -5   17.97    2.23
  -1   3  -5   14.51    1.58
  -1   3  -5   14.54    2.11
   1  -3   5   14.38    1.91
   1  -3   5   12.81    1.72
   1  -3   5   16.13    1.50
  -2   3  -5   68.93    2.70
  -2   3  -5   70.80    2.70
   2  -3   5   72.71    3.43
   2  -3   5   74.61    3.47
   3  -3   5    1.72    1.43
   3  -3   5    1.75    1.36
   4  -3   5   26.50    2.84
   4  -3   5   26.53    2.96
   5  -3   5    2.05    1.98
   5  -3   5    5.94    2.15
   5  -3   5    3.77    1.93
   6  -3   5    3.64    2.58
   6  -3   5    3.55    3.15
   6  -3   5   -3.99    2.70
   6   2  -5   32.35    4.76
  -6  -2   5   23.67    4.32
  -6  -2   5   24.54    4.67
   5   2  -5   -0.06    3.37
   5   2  -5   -1.61    3.01
  -5  -2   5   -0.42    2.73
  -5  -2   5   -5.65    3.51
  -5  -2   5    4.73    3.00
   4   2  -5   96.66    5.24
   4   2  -5   96.47    5.58
  -4  -2   5   97.00    7.56
  -4  -2   5   97.44    5.52
  -4  -2   5  105.30    5.27
   3   2  -5    2.37    1.62
   3   2  -5    1.53    1.86
   3   2  -5   -0.84    1.45
  -3  -2   5    0.52    1.66
  -3  -2   5   -2.13    1.76
  -3  -2   5    1.19    1.86
   2   2  -5  136.52    5.17
   2   2  -5  139.50    5.16
   2   2  -5  140.42    5.07
  -2  -2   5  148.37    5.17
  -2  -2   5  138.47    5.15
  -2  -2   5  141.48    5.11
   1   2  -5  138.06    4.61
   1   2  -5  139.03    4.85
  -1  -2   5  139.94    4.86
  -1  -2   5  143.92    4.89
  -1  -2   5  137.09    4.48
   0   2  -5  404.94    9.56
   0   2  -5  397.46    9.32
   0  -2   5  403.04    8.86
   0  -2   5  404.36    9.61
   0  -2   5  402.45    9.66
  -1   2  -5    7.28    1.04
  -1   2  -5    6.37    1.29
  -1   2  -5    9.20    1.39
   1  -2   5    9.96    1.54
   1  -2   5    9.02    1.00
   1  -2   5    9.67    1.50
  -2   2  -5  121.06    3.66
  -2   2  -5  126.13    3.65
   2  -2   5  125.37    4.25
   2  -2   5  127.41    4.18
   3  -2   5   18.25    2.24
   3  -2   5   15.08    2.21
   4  -2   5   55.54    2.83
   4  -2   5   51.42    3.26
   4  -2   5   54.51    3.01
   5  -2   5   33.35    3.35
   5  -2   5   32.09    3.01
   5  -2   5   28.98    3.46
   6  -2   5  157.84    6.27
   6  -2   5  157.24    6.72
   6  -2   5  154.76    5.61
   7  -2   5   17.31    3.47
   7  -2   5   14.25    4.88
   6   1  -5    2.39    4.17
   6   1  -5    1.89    4.29
  -6  -1   5    0.55    2.75
  -6  -1   5    4.07    2.99
   5   1  -5   26.12    3.78
   5   1  -5   31.10    4.61
   5   1  -5   21.38    3.38
  -5  -1   5   34.94    4.47
  -5  -1   5   25.30    4.22
  -5  -1   5   19.01    2.87
   4   1  -5   30.07    3.99
   4   1  -5   30.17    4.14
   4   1  -5   33.61    3.75
  -4  -1   5   28.32    3.44
  -4  -1   5   30.38    3.68
  -4  -1   5   27.30    3.54
   3   1  -5   35.53    5.18
   3   1  -5   34.27    3.62
   3   1  -5   33.22    3.21
  -3  -1   5   32.94    3.12
  -3  -1   5   36.34    3.13
  -3  -1   5   39.81    5.50
   2   1  -5   42.07    2.77
   2   1  -5   42.13    2.97
   2   1  -5   40.94    3.00
  -2  -1   5   44.45    2.90
  -2  -1   5   41.11    2.81
  -2  -1   5   42.20    2.90
   1   1  -5   35.18    2.50
   1   1  -5   33.89    2.42
   1   1  -5   32.83    2.30
  -1  -1   5   30.97    2.36
  -1  -1   5   34.39    2.37
  -1  -1   5   34.13    2.23
   0   1  -5   42.26    2.16
   0   1  -5   42.06    2.40
   0   1  -5   44.23    2.48
   0  -1   5   44.13    2.42
   0  -1   5   44.31    2.41
   0  -1   5   41.75    2.06
  -1   1  -5   18.46    1.84
  -1   1  -5   20.93    1.80
   1  -1   5   20.04    1.83
   1  -1   5   18.67    1.79
  -2   1  -5  168.14    4.39
  -2   1  -5  167.89    4.50
   2  -1   5  158.32    4.67
   2  -1   5  167.61    4.88
  -3   1  -5    3.17    0.65
  -3   1  -5    2.57    0.61
   3  -1   5    0.55    1.09
   3  -1   5    2.10    1.05
   4  -1   5   53.11    2.69
   4  -1   5   52.10    3.11
   4  -1   5   51.36    2.63
   5  -1   5   76.35    3.58
   5  -1   5   71.58    3.84
   5  -1   5   71.34    4.06
   6  -1   5   61.38    4.65
   6  -1   5   57.44    4.88
   6  -1   5   59.52    4.04
   7  -1   5    0.34    2.89
   7  -1   5   -3.37    3.51
   7  -1   5    0.98    4.39
   6   0  -5    6.04    4.85
   6   0  -5   -4.61    3.93
   6   0  -5   -3.77    3.63
  -6   0   5   -6.27    4.87
   5   0  -5  100.99    5.92
   5   0  -5   89.55    5.75
   5   0  -5  104.79    6.66
  -5   0   5  108.59    6.26
  -5   0   5  112.57    4.73
  -5   0   5  101.36    4.69
   4   0  -5   18.27    2.77
   4   0  -5   19.60    2.70
   4   0  -5   27.68    3.59
  -4   0   5   17.52    2.23
  -4   0   5   19.23    2.34
  -4   0   5   29.52    3.41
   3   0  -5  124.69    5.14
   3   0  -5  126.77    4.70
   3   0  -5  125.55    5.00
  -3   0   5  125.31    4.71
  -3   0   5  126.08    4.95
  -3   0   5  129.40    4.70
   2   0  -5    3.54    1.34
   2   0  -5    6.14    1.37
   2   0  -5    2.98    1.21
  -2   0   5    2.80    1.19
  -2   0   5    5.52    1.50
  -2   0   5    1.89    1.08
   1   0  -5  344.33    8.30
   1   0  -5  352.45    8.56
   1   0  -5  355.71    8.38
  -1   0   5  369.64    8.56
  -1   0   5  358.64    8.56
  -1   0   5  356.64    8.30
   0   0  -5    3.74    0.96
   0   0  -5    5.23    1.19
   0   0  -5    4.69    1.00
   0   0   5    2.85    0.99
   0   0   5    3.26    1.05
  -1   0  -5   54.07    1.80
  -1   0  -5   56.33    2.42
  -1   0  -5   57.97    2.54
   1   0   5   57.30    2.56
   1   0   5   59.70    2.66
  -2   0  -5   17.70    1.56
  -2   0  -5   15.24    1.59
   2   0   5   16.66    1.63
   2   0   5   14.32    1.82
  -3   0  -5   97.01    2.89
  -3   0  -5   92.12    2.85
   3   0   5   95.89    3.59
   3   0   5   93.54    3.28
   4   0   5  136.09    4.39
   4   0   5  138.05    4.72
   5   0   5  132.38    5.12
   5   0   5  132.21    4.69
   6   0   5    7.05    2.55
   6   0   5   11.18    2.94
   6   0   5    9.06    2.53
   7   0   5    1.63    4.10
   7   0   5    3.74    3.63
   6  -1  -5    7.48    5.40
   6  -1  -5    0.10    3.37
   6  -1  -5   -0.20    3.80
   5  -1  -5   94.27    6.06
   5  -1  -5   93.51    6.10
   5  -1  -5   95.86    5.53
  -5   1   5   94.90    3.52
  -5   1   5   92.21    3.41
   4  -1  -5   14.84    2.32
   4  -1  -5   17.95    2.48
   4  -1  -5   16.73    3.24
  -4   1   5   14.03    2.51
  -4   1   5   12.39    1.82
  -4   1   5   17.68    2.60
   3  -1  -5  228.99    7.12
   3  -1  -5  233.39    6.57
   3  -1  -5  228.48    6.74
  -3   1   5  230.26    6.26
  -3   1   5  229.66    6.30
  -3   1   5  229.17    6.91
   2  -1  -5    1.68    1.04
   2  -1  -5    0.82    1.20
   2  -1  -5    2.17    1.24
  -2   1   5    2.47    1.23
  -2   1   5    1.05    1.06
  -2   1   5    1.56    1.03
   1  -1  -5  195.32    5.45
   1  -1  -5  198.09    5.28
   1  -1  -5  184.69    5.25
  -1   1   5  195.90    5.28
  -1   1   5  190.35    5.34
   0  -1  -5   26.69    1.74
   0  -1  -5   26.49    1.46
   0  -1  -5   28.25    1.94
   0  -1  -5   29.37    2.01
   0   1   5   30.75    1.95
   0   1   5   28.75    2.02
  -1  -1  -5  744.76   15.39
  -1  -1  -5  737.41   14.50
  -1  -1  -5  760.03   15.23
   1   1   5  775.09   15.37
   1   1   5  755.37   15.56
  -2  -1  -5   52.69    2.37
  -2  -1  -5   53.26    2.36
   2   1   5   51.47    2.36
   2   1   5   54.40    2.65
  -3  -1  -5  385.26    8.52
  -3  -1  -5  380.25    7.82
  -3  -1  -5  399.53    8.55
   3   1   5  392.99    9.19
   3   1   5  392.99    8.86
  -4  -1  -5    1.58    0.83
  -4  -1  -5   -0.27    0.75
  -4  -1  -5   -0.33    1.00
   4   1   5    0.35    1.07
   4   1   5    0.30    1.27
  -5  -1  -5  114.12    4.20
   5   1   5  132.68    4.75
   5   1   5  125.39    5.07
  -6  -1  -5    5.77    2.32
   6   1   5    2.10    3.32
   6   1   5    5.60    2.39
   7   1   5   67.28    6.05
   7   1   5   62.61    7.01
   6  -2  -5    5.62    3.72
   6  -2  -5    7.11    4.61
   6  -2  -5    6.08    4.35
   6  -2  -5    4.13    3.30
   5  -2  -5    3.55    2.58
   5  -2  -5    4.87    2.57
   5  -2  -5   -2.19    2.94
   4  -2  -5   11.01    2.07
   4  -2  -5    9.17    2.47
   4  -2  -5    9.84    2.08
  -4   2   5    7.11    1.26
  -4   2   5    6.41    1.33
   3  -2  -5   74.41    3.95
   3  -2  -5   76.86    3.56
   3  -2  -5   82.98    3.82
  -3   2   5   75.76    3.13
  -3   2   5   75.98    3.04
   2  -2  -5   18.38    2.01
   2  -2  -5   18.84    2.11
   2  -2  -5   20.19    2.11
   2  -2  -5   17.88    2.21
  -2   2   5   20.67    1.96
  -2   2   5   21.83    1.95
   1  -2  -5   77.16    3.02
   1  -2  -5   75.51    3.07
   1  -2  -5   75.22    2.97
   1  -2  -5   76.82    2.93
  -1   2   5   74.02    2.86
  -1   2   5   75.62    2.99
   0  -2  -5    8.48    1.04
   0  -2  -5    8.73    1.23
   0  -2  -5    8.23    1.33
   0   2   5    6.27    0.99
   0   2   5    5.82    1.02
  -1  -2  -5  403.58    9.13
  -1  -2  -5  418.23    9.01
   1   2   5  409.60    8.98
   1   2   5  398.82    9.18
   1   2   5  398.81    8.13
  -2  -2  -5    0.85    0.82
  -2  -2  -5   -0.15    0.80
   2   2   5    1.49    0.82
   2   2   5   -0.07    0.76
  -3  -2  -5  239.36    6.14
  -3  -2  -5  245.52    6.12
   3   2   5  238.85    6.26
   3   2   5  247.80    6.58
  -4  -2  -5   13.75    1.90
  -4  -2  -5   14.86    1.82
  -4  -2  -5   13.52    1.83
   4   2   5   15.24    2.12
   4   2   5   12.90    1.71
  -5  -2  -5   60.96    3.53
  -5  -2  -5   59.26    2.34
  -5  -2  -5   61.24    2.34
   5   2   5   60.16    3.66
   5   2   5   62.39    4.02
  -6  -2  -5   24.39    3.28
   6   2   5   19.39    3.03
   6   2   5   16.21    2.80
  -7  -2  -5  154.84    7.69
   7   2   5  142.18    7.98
   7   2   5  134.81    7.19
   6  -3  -5   62.52    6.42
   6  -3  -5   50.18    6.88
   6  -3  -5   53.86    6.18
   6  -3  -5   68.13    7.31
   5  -3  -5    7.27    2.55
   5  -3  -5    7.84    3.41
   5  -3  -5   11.27    2.93
   5  -3  -5   15.03    5.13
   4  -3  -5   24.81    3.20
   4  -3  -5   35.80    3.80
   4  -3  -5   23.36    3.13
   4  -3  -5   29.09    3.37
   3  -3  -5   25.05    2.88
   3  -3  -5   28.53    2.57
   3  -3  -5   27.80    2.54
   3  -3  -5   31.68    2.91
  -3   3   5   26.88    1.86
  -3   3   5   25.61    1.86
   2  -3  -5   78.89    3.16
   2  -3  -5   81.83    3.61
   2  -3  -5   80.60    3.59
   2  -3  -5   81.77    3.34
  -2   3   5   80.68    2.95
  -2   3   5   82.64    3.00
   1  -3  -5   23.71    1.92
   1  -3  -5   23.51    1.90
   1  -3  -5   25.74    1.91
  -1   3   5   26.28    1.87
  -1   3   5   23.22    1.84
   0  -3  -5  196.89    5.18
   0  -3  -5  198.08    4.99
   0  -3  -5  199.51    5.39
   0   3   5  199.64    5.34
   0   3   5  200.94    5.19
   0   3   5  200.33    5.09
  -1  -3  -5    3.65    1.04
  -1  -3  -5    1.87    0.87
   1   3   5    2.12    0.77
   1   3   5    1.52    0.76
   1   3   5    3.09    0.85
  -2  -3  -5   74.37    3.01
  -2  -3  -5   81.10    3.21
   2   3   5   80.22    3.22
   2   3   5   82.94    3.03
  -3  -3  -5   32.16    2.29
  -3  -3  -5   30.37    2.26
   3   3   5   35.91    2.57
   3   3   5   33.61    2.21
  -4  -3  -5    4.01    1.54
  -4  -3  -5    5.10    1.33
  -4  -3  -5    4.44    1.36
   4   3   5    4.13    1.37
   4   3   5    3.43    1.61
  -5  -3  -5   37.92    2.77
  -5  -3  -5   41.16    2.84
  -5  -3  -5   36.88    3.47
   5   3   5   39.59    3.39
  -6  -3  -5   11.91    3.04
   6   3   5   13.74    3.12
   6   3   5    8.60    2.47
  -7  -3  -5   28.42    4.99
   7   3   5   17.19    4.38
   7   3   5   21.11    4.00
   6  -4  -5   13.87    3.83
   6  -4  -5    8.25    3.52
   6  -4  -5   14.32    5.46
   5  -4  -5    1.12    2.23
   5  -4  -5    2.08    3.93
   5  -4  -5   -2.25    2.86
   5  -4  -5   -0.93    2.23
   4  -4  -5  136.04    5.93
   4  -4  -5  124.90    5.94
   4  -4  -5  133.51    4.98
   4  -4  -5  136.83    5.11
   3  -4  -5   92.24    4.53
   3  -4  -5   84.39    3.75
   3  -4  -5   90.03    4.41
   3  -4  -5   93.60    3.75
   2  -4  -5  208.65    6.37
   2  -4  -5  222.54    5.82
   2  -4  -5  224.81    6.01
   2  -4  -5  222.82    6.49
  -2   4   5  219.94    5.35
  -2   4   5  226.56    5.42
   1  -4  -5   37.62    2.33
   1  -4  -5   36.60    2.12
   1  -4  -5   34.88    2.29
  -1   4   5   35.86    2.09
  -1   4   5   35.03    2.35
  -1   4   5   34.80    2.01
   0  -4  -5  213.86    5.76
   0  -4  -5  209.79    5.52
   0  -4  -5  215.50    5.55
   0   4   5  218.64    5.51
   0   4   5  208.75    5.59
   0   4   5  221.18    5.73
  -1  -4  -5    2.76    0.99
  -1  -4  -5    1.77    0.86
   1   4   5    3.03    0.88
   1   4   5    3.84    0.97
   1   4   5    3.98    0.99
  -2  -4  -5  156.93    4.83
  -2  -4  -5  159.36    4.79
   2   4   5  157.26    4.70
   2   4   5  157.01    4.96
  -3  -4  -5   84.52    3.55
  -3  -4  -5   80.92    3.50
   3   4   5   79.27    3.43
   3   4   5   82.57    3.72
  -4  -4  -5  140.35    4.88
  -4  -4  -5  141.75    4.92
   4   4   5  141.49    5.37
   4   4   5  133.96    4.98
  -5  -4  -5   17.68    2.68
  -5  -4  -5    9.39    2.06
  -5  -4  -5   14.07    2.18
   5   4   5   12.69    2.71
   5   4   5   10.99    2.11
  -6  -4  -5   82.92    4.23
  -6  -4  -5   79.32    5.59
  -6  -4  -5   75.51    4.15
   6   4   5   67.84    5.82
   6   4   5   83.64    5.34
  -7  -4  -5    0.58    4.78
   7   4   5    0.98    3.50
   7   4   5   -4.70    3.99
   6  -5  -5   -0.07    3.84
   6  -5  -5    1.09    3.34
   6  -5  -5    7.78    5.36
   5  -5  -5    1.43    2.50
   5  -5  -5    5.00    2.65
   5  -5  -5    4.14    3.60
   5  -5  -5    7.00    3.53
   4  -5  -5   15.03    2.75
   4  -5  -5   16.19    3.10
   4  -5  -5   17.10    2.26
   4  -5  -5   17.22    2.31
   3  -5  -5    5.97    1.64
   3  -5  -5    6.92    1.97
   3  -5  -5    8.14    2.20
   3  -5  -5    8.98    1.72
   2  -5  -5   65.22    3.12
   2  -5  -5   65.04    2.94
   2  -5  -5   68.68    3.49
  -2   5   5   63.73    2.30
  -2   5   5   61.16    2.27
   1  -5  -5    0.41    0.87
   1  -5  -5    0.69    0.98
   1  -5  -5    0.55    0.96
  -1   5   5    0.84    1.06
  -1   5   5    1.06    0.90
  -1   5   5    0.13    0.83
   0  -5  -5   31.53    2.13
   0  -5  -5   35.59    2.29
   0   5   5   32.62    2.04
   0   5   5   31.91    2.15
   0   5   5   32.42    2.20
  -1  -5  -5    4.56    1.22
  -1  -5  -5    2.56    0.93
   1   5   5    2.69    0.99
   1   5   5    4.06    1.23
   1   5   5    3.65    0.98
  -2  -5  -5  241.68    6.55
  -2  -5  -5  232.67    6.54
   2   5   5  234.19    6.39
   2   5   5  237.30    6.70
  -3  -5  -5   82.64    3.82
  -3  -5  -5   79.49    3.66
   3   5   5   82.89    3.87
   3   5   5   77.24    3.53
  -4  -5  -5  363.61    9.59
  -4  -5  -5  390.97    9.71
   4   5   5  359.83    9.61
   4   5   5  382.38   10.22
  -5  -5  -5    1.84    1.87
  -5  -5  -5   -3.45    3.72
  -5  -5  -5   -0.64    1.80
   5   5   5   -0.20    2.07
   5   5   5    4.34    1.89
  -6  -5  -5   52.07    5.24
  -6  -5  -5   48.89    4.38
  -6  -5  -5   39.29    4.50
   6   5   5   51.69    5.17
   6   5   5   40.04    5.48
  -7  -5  -5   12.53    5.73
  -7  -5  -5   13.53    2.96
  -7  -5  -5   16.89    5.17
   7   5   5   12.89    4.73
   7   5   5   11.33    4.00
   6  -6  -5    1.04    6.71
   6  -6  -5    7.74    3.69
   6  -6  -5   -0.61    4.00
   5  -6  -5   49.17    5.74
   5  -6  -5   48.76    5.83
   5  -6  -5   32.59    4.68
   5  -6  -5   33.63    4.23
   4  -6  -5    4.07    3.22
   4  -6  -5    4.44    1.88
   4  -6  -5    0.08    2.40
   4  -6  -5    1.69    1.95
   3  -6  -5  108.99    4.32
   3  -6  -5  109.95    7.81
   3  -6  -5  109.18    5.05
   3  -6  -5  111.77    4.14
   2  -6  -5   13.87    2.31
   2  -6  -5   11.48    1.71
   2  -6  -5    8.43    1.60
  -2   6   5    7.45    1.62
  -2   6   5    9.99    1.06
   1  -6  -5   31.37    2.42
   1  -6  -5   27.09    2.42
   1  -6  -5   27.36    2.38
  -1   6   5   29.15    2.62
  -1   6   5   33.23    2.11
  -1   6   5   27.81    2.07
   0  -6  -5    8.28    1.35
   0  -6  -5    8.63    1.45
   0   6   5    7.30    1.19
   0   6   5    6.78    1.29
   0   6   5    9.20    1.50
  -1  -6  -5   -0.41    0.86
  -1  -6  -5    1.11    0.97
   1   6   5    1.58    1.08
   1   6   5    1.28    0.95
   1   6   5    1.16    1.06
  -2  -6  -5    2.43    1.35
  -2  -6  -5    2.76    1.19
   2   6   5    2.82    1.07
   2   6   5    3.84    1.34
  -3  -6  -5    5.41    1.60
  -3  -6  -5    4.99    1.58
   3   6   5    3.41    1.44
   3   6   5    2.39    1.27
  -4  -6  -5   34.36    5.68
  -4  -6  -5   33.17    3.39
   4   6   5   32.24    3.48
   4   6   5   31.20    3.17
  -5  -6  -5   -1.38    2.03
  -5  -6  -5    0.66    2.59
   5   6   5    1.70    2.21
   5   6   5    1.57    1.81
  -6  -6  -5   16.68    4.42
  -6  -6  -5   18.98    3.35
  -6  -6  -5   11.75    3.15
   6   6   5   13.77    3.69
   6   6   5   13.25    3.18
  -7  -6  -5   -1.80    5.88
   7   6   5    9.20    4.36
   5  -7  -5   41.76    4.72
   5  -7  -5   42.48    6.41
   5  -7  -5   51.04    4.90
   5  -7  -5   35.54    5.57
   4  -7  -5    6.10    2.12
   4  -7  -5    6.43    2.79
   4  -7  -5    1.39    2.92
   4  -7  -5    5.76    2.06
   3  -7  -5   70.59    4.79
   3  -7  -5   70.34    3.57
   3  -7  -5   71.99    3.85
   2  -7  -5   34.05    2.96
   2  -7  -5   34.21    3.38
   2  -7  -5   33.12    2.79
  -2   7   5   30.42    3.43
   1  -7  -5   63.85    3.44
   1  -7  -5   59.24    3.34
   1  -7  -5   60.30    3.44
  -1   7   5   61.30    3.69
  -1   7   5   59.43    2.73
  -1   7   5   58.15    2.73
   0  -7  -5   45.80    3.13
   0  -7  -5   48.76    3.08
   0   7   5   47.19    2.78
   0   7   5   46.22    2.62
   0   7   5   46.99    3.08
  -1  -7  -5  153.41    5.34
  -1  -7  -5  158.08    5.29
   1   7   5  149.46    5.35
   1   7   5  151.94    5.30
   1   7   5  150.64    4.92
  -2  -7  -5    8.35    1.65
  -2  -7  -5    9.13    1.89
   2   7   5   11.02    1.92
   2   7   5    6.16    1.62
  -3  -7  -5   88.52    4.51
   3   7   5   73.75    4.60
   3   7   5   90.08    4.52
  -4  -7  -5   27.33    3.26
  -4  -7  -5   18.53    2.72
   4   7   5   22.67    2.87
   4   7   5   21.08    3.05
  -5  -7  -5   16.81    3.87
  -5  -7  -5   12.73    3.20
  -5  -7  -5   21.27    3.28
   5   7   5   12.49    2.39
   5   7   5   11.06    2.61
  -6  -7  -5    8.67    4.78
  -6  -7  -5    2.71    3.57
  -6  -7  -5    2.16    3.36
   6   7   5    6.96    3.10
   6   7   5    6.82    3.31
   5  -8  -5   -0.26    3.05
   5  -8  -5    3.08    3.00
   5  -8  -5   -0.41    5.39
   4  -8  -5   -0.86    3.20
   4  -8  -5   -0.71    2.35
   4  -8  -5   -0.89    3.44
   4  -8  -5   -3.33    2.25
   3  -8  -5    7.46    2.14
   3  -8  -5    6.10    2.06
   3  -8  -5    4.05    2.58
   2  -8  -5    7.61    2.01
   2  -8  -5   10.12    2.07
   2  -8  -5    9.89    2.35
  -2   8   5    4.71    1.95
   1  -8  -5  144.28    5.34
   1  -8  -5  150.95    5.46
  -1   8   5  150.77    6.57
  -1   8   5  141.45    4.29
  -1   8   5  140.59    4.37
   0  -8  -5    5.82    1.81
   0  -8  -5    7.90    1.92
   0   8   5    7.32    1.70
   0   8   5    6.38    1.75
   0   8   5    8.44    1.58
  -1  -8  -5   93.02    4.56
  -1  -8  -5   80.57    6.78
   1   8   5  104.41    4.18
   1   8   5   99.95    4.70
   1   8   5  106.64    4.50
  -2  -8  -5    6.75    1.78
   2   8   5    2.99    1.69
   2   8   5    5.81    1.76
  -3  -8  -5   69.20    4.33
  -3  -8  -5   76.44    4.69
   3   8   5   73.29    4.25
   3   8   5   78.07    4.52
  -4  -8  -5   31.67    4.53
  -4  -8  -5   32.30    4.62
   4   8   5   31.42    3.77
   4   8   5   33.17    3.65
  -5  -8  -5  109.28    6.76
  -5  -8  -5  100.96    7.28
  -5  -8  -5  107.77    6.93
   5   8   5  111.94    5.97
   5   8   5  108.73    6.64
  -6  -8  -5   14.91    4.02
  -6  -8  -5   17.93    4.75
  -6  -8  -5   17.54    5.96
   6   8   5   20.39    3.65
   5  -9  -5   16.96    6.62
   4  -9  -5   44.89    6.31
   4  -9  -5   50.13    5.20
   4  -9  -5   54.15    5.24
   4  -9  -5   54.22    7.57
   3  -9  -5    4.36    2.52
   3  -9  -5    0.01    2.86
   3  -9  -5    3.00    2.60
   2  -9  -5   12.28    2.73
   2  -9  -5   10.79    2.49
  -2   9   5   13.35    2.73
   1  -9  -5   14.71    2.69
  -1   9   5   15.06    1.78
  -1   9   5   17.70    2.36
  -1   9   5   15.72    2.73
   0  -9  -5   21.63    3.01
   0  -9  -5   30.55    3.75
   0   9   5   22.65    2.50
   0   9   5   18.14    2.40
   0   9   5   19.04    2.69
  -1  -9  -5   32.05    3.65
  -1  -9  -5   26.77    3.46
   1   9   5   29.23    3.12
   1   9   5   28.91    3.63
   1   9   5   33.62    3.43
  -2  -9  -5   -3.20    2.04
   2   9   5   -0.76    1.83
   2   9   5    1.15    1.70
   2   9   5    1.07    1.84
  -3  -9  -5   12.56    2.41
  -3  -9  -5    8.99    2.83
   3   9   5   13.73    2.64
   3   9   5   14.00    2.99
  -4  -9  -5    0.35    2.24
  -4  -9  -5    4.43    2.92
   4   9   5    1.46    2.27
   4   9   5    2.73    2.56
  -5  -9  -5   49.88    6.92
  -5  -9  -5   50.51    5.58
  -5  -9  -5   57.78    6.42
   5   9   5   44.05    6.02
   5   9   5   49.49    5.51
   4 -10  -5   35.44    4.36
   4 -10  -5   57.68    6.41
   4 -10  -5   45.10    6.90
   3 -10  -5   10.90    3.26
   3 -10  -5   -3.50    2.91
   2 -10  -5   75.42    5.79
   2 -10  -5   77.38    5.43
  -2  10   5   88.76    6.43
   1 -10  -5    5.25    2.58
   1 -10  -5   -2.43    2.68
  -1  10   5   -2.34    2.27
  -1  10   5    2.03    1.50
  -1  10   5    2.35    1.41
   0 -10  -5   35.14    4.59
   0 -10  -5   37.45    4.66
   0  10   5   40.69    3.46
   0  10   5   39.66    3.80
   0  10   5   36.69    4.21
  -1 -10  -5    0.47    2.25
  -1 -10  -5    2.78    2.12
   1  10   5   -1.19    1.86
   1  10   5    0.07    2.98
   1  10   5    5.38    2.25
  -2 -10  -5   76.91    5.41
   2  10   5   71.59    5.59
   2  10   5   72.31    5.25
   2  10   5   74.07    4.88
  -3 -10  -5    1.14    3.05
  -3 -10  -5    7.82    2.66
   3  10   5    4.52    2.16
   3  10   5    2.31    2.90
  -4 -10  -5   22.13    4.18
  -4 -10  -5   35.42    4.98
   4  10   5   18.75    3.51
   4  10   5   23.87    3.45
  -5 -10  -5    5.76    4.49
   3 -11  -5    4.52    4.46
   3 -11  -5    9.68    4.07
  -3  11   5    3.22    4.93
   2 -11  -5   50.13    6.69
   2 -11  -5   48.70    5.17
  -2  11   5   69.34    7.04
   1 -11  -5   -6.88    2.96
   1 -11  -5   -4.47    3.17
  -1  11   5    1.59    3.29
   0 -11  -5   17.77    3.64
   0 -11  -5   19.39    3.63
   0  11   5   19.20    3.11
   0  11   5   16.82    2.63
   0  11   5   13.74    3.10
  -1 -11  -5   92.49    6.63
   1  11   5   81.66    6.15
   1  11   5  109.06    6.19
   1  11   5   98.06    5.44
  -2 -11  -5   50.16    5.81
  -2 -11  -5   48.79    5.33
   2  11   5   47.17    5.22
   2  11   5   47.81    5.40
   2  11   5   46.83    6.09
  -3 -11  -5   -1.55    2.65
  -3 -11  -5   -4.57    3.39
   3  11   5    4.48    2.73
   3  11   5   -1.16    3.41
   3  11   5    4.01    4.25
  -4 -11  -5   91.16    8.84
   4  11   5   92.21    7.40
   2 -12  -5    6.96    4.54
   2 -12  -5    1.92    4.88
   1 -12  -5   -3.53    4.29
   1 -12  -5    7.94    4.33
  -1  12   5    6.12    4.07
   0 -12  -5   47.01    5.51
   0  12   5   38.69    3.65
   0  12   5   46.36    5.39
   0  12   5   58.14    6.43
  -1 -12  -5    5.13    3.69
  -1 -12  -5    0.10    3.65
   1  12   5    9.98    3.05
   1  12   5    6.54    3.59
   1  12   5    6.13    3.35
  -2 -12  -5   31.17    4.78
   2  12   5   43.27    6.35
   2  12   5   31.04    4.64
   2  12   5   53.34    7.82
   3  12   5    4.57    3.96
   1   8  -6    2.42    5.07
   1   8  -6   -2.83    4.20
  -1  -8   6    6.39    5.01
   0   8  -6   31.10    4.82
   0   8  -6   25.35    4.88
   0   8  -6   27.50    4.38
   0  -8   6   31.28    4.88
   0  -8   6   20.73    4.93
  -1   8  -6   13.28    3.19
  -1   8  -6   23.58    4.58
   1  -8   6    8.37    4.50
   2  -8   6   57.76    6.32
   2  -8   6   53.28    6.49
   2   7  -6   11.01    4.72
   2   7  -6   12.36    4.64
  -2  -7   6   12.20    3.93
  -2  -7   6   14.51    4.57
   1   7  -6    4.83    3.87
  -1  -7   6    8.54    3.81
  -1  -7   6    5.85    3.49
  -1  -7   6    9.20    3.86
   0   7  -6   46.51    5.88
   0   7  -6   35.55    4.41
   0  -7   6   41.81    5.14
   0  -7   6   39.87    4.66
   0  -7   6   35.04    4.59
  -1   7  -6    3.86    2.95
  -1   7  -6    3.76    2.58
  -1   7  -6    5.46    2.95
   1  -7   6    0.49    3.09
   1  -7   6    7.04    3.65
   1  -7   6    0.45    2.66
   2  -7   6   39.96    3.75
   2  -7   6   32.79    4.49
   2  -7   6   35.59    4.61
   3  -7   6    8.92    4.02
   3  -7   6   16.27    4.43
   3   6  -6   28.10    4.71
  -3  -6   6   27.11    4.12
  -3  -6   6   27.42    4.99
   2   6  -6   -0.31    3.42
   2   6  -6   -4.74    3.19
  -2  -6   6    1.53    3.32
  -2  -6   6    0.85    3.05
  -2  -6   6   -2.83    2.67
   1   6  -6   47.89    5.66
   1   6  -6   46.39    5.59
  -1  -6   6   46.22    4.99
  -1  -6   6   43.65    5.39
  -1  -6   6   44.06    4.89
   0   6  -6    8.89    2.82
   0   6  -6    6.66    2.99
   0   6  -6    8.41    2.54
   0  -6   6    7.20    2.74
   0  -6   6    7.39    2.88
   0  -6   6    3.36    2.64
  -1   6  -6   15.97    2.89
  -1   6  -6   15.80    2.72
   1  -6   6   14.87    2.51
   1  -6   6   17.15    3.39
   1  -6   6   16.54    3.36
  -2   6  -6   20.18    2.86
  -2   6  -6   16.80    2.34
  -2   6  -6   16.92    2.01
   2  -6   6   13.48    3.11
   2  -6   6    8.65    3.11
   2  -6   6   16.99    2.11
   3  -6   6   14.80    3.35
   3  -6   6    9.09    3.17
   4  -6   6    3.97    3.37
   4  -6   6   16.95    3.85
   4   5  -6    6.27    3.66
  -4  -5   6    4.64    7.20
  -4  -5   6    5.80    6.82
  -4  -5   6    8.00    4.24
   3   5  -6   84.85    6.49
   3   5  -6   63.95    6.68
  -3  -5   6   55.06    6.03
  -3  -5   6   78.52    6.51
  -3  -5   6   54.24    6.10
   2   5  -6   46.05    5.13
   2   5  -6   29.59    3.55
  -2  -5   6   34.80    4.97
  -2  -5   6   24.88    3.23
  -2  -5   6   33.59    4.57
   1   5  -6  103.40    5.86
   1   5  -6  125.76    6.08
  -1  -5   6  109.47    5.62
  -1  -5   6  102.14    5.81
   0   5  -6   12.11    2.69
   0   5  -6   10.14    2.44
   0  -5   6   10.36    2.65
   0  -5   6   12.47    2.33
   0  -5   6    9.28    2.46
  -1   5  -6   22.22    2.67
  -1   5  -6   18.51    2.56
  -1   5  -6   20.10    2.92
   1  -5   6   14.45    2.79
   1  -5   6   17.44    2.77
   1  -5   6   22.07    2.30
  -2   5  -6   17.60    2.00
  -2   5  -6   19.84    2.38
  -2   5  -6   18.65    2.71
   2  -5   6   17.91    2.89
   2  -5   6   17.56    1.91
   3  -5   6   84.43    5.43
   3  -5   6   82.00    4.91
   4  -5   6    1.40    2.53
   4  -5   6    1.48    2.75
   5  -5   6   64.75    6.43
   5  -5   6   66.57    5.50
  -5  -4   6   16.56    5.36
  -5  -4   6   16.38    5.24
   4   4  -6   -3.49    3.18
   4   4  -6    6.96    3.51
  -4  -4   6    4.51    4.16
  -4  -4   6    0.76    3.31
  -4  -4   6    0.76    3.63
   3   4  -6   35.46    4.91
   3   4  -6   35.22    5.20
  -3  -4   6   46.89    5.07
  -3  -4   6   35.57    4.99
  -3  -4   6   39.56    5.03
   2   4  -6   -0.34    2.17
   2   4  -6    1.58    2.21
  -2  -4   6   -0.11    2.15
  -2  -4   6   -2.08    1.88
  -2  -4   6    1.15    1.97
   1   4  -6   44.12    4.27
   1   4  -6   35.34    3.87
  -1  -4   6   36.26    3.67
  -1  -4   6   34.54    3.81
  -1  -4   6   35.50    3.34
   0   4  -6   -1.13    1.87
   0   4  -6    1.50    1.92
   0  -4   6   -0.99    1.43
   0  -4   6   -1.38    1.90
   0  -4   6   -1.48    1.62
  -1   4  -6  133.42    5.04
  -1   4  -6  129.62    4.21
  -1   4  -6  137.62    5.02
   1  -4   6  133.93    5.55
   1  -4   6  125.55    4.04
   1  -4   6  134.72    5.51
  -2   4  -6    8.91    1.68
  -2   4  -6    7.90    1.65
   2  -4   6   11.17    2.14
   2  -4   6    9.33    4.04
   3  -4   6   91.86    5.53
   3  -4   6   88.99    4.58
   4  -4   6   30.62    3.82
   4  -4   6   35.03    3.87
   5  -4   6   32.05    6.66
   5  -4   6   35.28    4.64
   6  -4   6    7.09    3.92
   5   3  -6   -0.38    3.71
  -5  -3   6   -0.40    4.11
  -5  -3   6   -1.35    4.00
   4   3  -6   23.50    3.56
   4   3  -6   18.25    3.33
  -4  -3   6   28.20    3.92
  -4  -3   6   28.10    4.53
  -4  -3   6   23.01    3.60
   3   3  -6    1.50    2.16
   3   3  -6    3.38    2.51
  -3  -3   6    0.75    2.55
  -3  -3   6   -0.33    2.23
  -3  -3   6    8.13    2.95
   2   3  -6   35.26    3.73
   2   3  -6   34.85    3.69
  -2  -3   6   33.99    3.59
  -2  -3   6   32.76    4.36
  -2  -3   6   32.69    3.73
   1   3  -6   -0.22    1.50
   1   3  -6    1.59    1.57
  -1  -3   6    1.36    1.52
  -1  -3   6    4.22    1.56
  -1  -3   6    0.31    1.78
   0   3  -6   37.13    3.22
   0   3  -6   38.30    3.14
   0  -3   6   37.13    3.31
   0  -3   6   37.05    2.56
   0  -3   6   35.97    4.31
  -1   3  -6    0.65    0.98
  -1   3  -6    0.15    1.41
  -1   3  -6    0.88    1.47
   1  -3   6    0.42    0.95
   1  -3   6    1.23    1.45
   1  -3   6   -0.91    1.30
  -2   3  -6    9.83    1.56
  -2   3  -6    7.89    1.57
   2  -3   6    9.33    1.97
   2  -3   6    8.21    1.94
   3  -3   6   61.10    4.04
   3  -3   6   67.26    3.77
   4  -3   6   14.02    2.31
   4  -3   6   15.74    2.53
   5  -3   6   11.35    2.76
   5  -3   6    9.36    2.66
   6  -3   6   -3.14    3.10
   6  -3   6    3.57    3.15
   5   2  -6    2.75    3.54
   5   2  -6   -1.17    3.87
  -5  -2   6    8.78    3.59
  -5  -2   6    1.93    3.70
  -5  -2   6   -7.03    4.44
   4   2  -6   39.37    4.88
   4   2  -6   42.97    5.12
  -4  -2   6   41.58    5.12
  -4  -2   6   48.93    5.16
  -4  -2   6   40.00    4.95
   3   2  -6    1.97    2.33
   3   2  -6    5.85    2.13
  -3  -2   6    3.68    2.04
  -3  -2   6    1.69    2.10
  -3  -2   6    3.23    2.03
   2   2  -6   41.91    4.49
   2   2  -6   39.29    3.46
  -2  -2   6   40.51    3.47
  -2  -2   6   41.78    3.51
  -2  -2   6   41.45    3.52
   1   2  -6   63.70    3.64
   1   2  -6   62.84    3.65
  -1  -2   6   70.67    3.42
  -1  -2   6   64.00    3.70
  -1  -2   6   69.78    3.88
   0   2  -6  175.26    5.70
   0   2  -6  174.43    5.45
   0  -2   6  165.89    4.87
   0  -2   6  165.44    5.64
   0  -2   6  187.02    5.81
  -1   2  -6    1.02    1.19
  -1   2  -6   -0.77    1.17
   1  -2   6    0.83    1.27
   1  -2   6    1.62    1.17
   1  -2   6    0.71    0.78
  -2   2  -6   43.34    2.71
  -2   2  -6   52.74    2.83
   2  -2   6   54.54    3.09
   2  -2   6   46.74    3.20
  -3   2  -6    5.16    0.90
  -3   2  -6    6.92    0.89
   3  -2   6    6.62    1.79
   3  -2   6    7.30    1.66
   4  -2   6   51.84    3.60
   4  -2   6   54.69    3.84
   5  -2   6    3.48    2.21
   5  -2   6    1.66    2.33
   5  -2   6    2.07    1.72
   6  -2   6   21.29    3.27
   6  -2   6   21.98    3.29
   6  -2   6   13.78    5.50
   6   1  -6   31.21    6.00
  -6  -1   6   11.93    4.05
   5   1  -6   -4.50    4.07
   5   1  -6    5.59    3.46
   5   1  -6    1.63    3.44
  -5  -1   6   -1.98    2.88
  -5  -1   6    7.76    3.46
  -5  -1   6    9.13    3.74
   4   1  -6   14.89    2.95
   4   1  -6   12.71    2.86
   4   1  -6   21.63    3.90
  -4  -1   6   19.65    5.01
  -4  -1   6   13.68    3.29
  -4  -1   6   14.65    2.68
   3   1  -6    2.91    1.85
   3   1  -6   -0.44    1.82
  -3  -1   6   -0.75    1.80
  -3  -1   6    0.15    2.07
   2   1  -6  140.16    5.46
   2   1  -6  141.55    5.39
  -2  -1   6  145.48    5.41
  -2  -1   6  141.39    5.29
  -2  -1   6  136.87    5.32
   1   1  -6    3.29    1.34
   1   1  -6    4.08    1.45
   1   1  -6    5.85    1.70
  -1  -1   6    3.13    1.43
  -1  -1   6    3.98    1.31
  -1  -1   6    3.38    1.57
   0   1  -6  266.94    6.62
   0   1  -6  268.66    7.28
   0   1  -6  273.85    7.11
   0  -1   6  269.37    7.27
   0  -1   6  263.98    6.50
   0  -1   6  276.98    7.41
  -1   1  -6    1.88    1.17
  -1   1  -6    0.55    1.06
   1  -1   6   -0.51    1.00
   1  -1   6    1.39    1.04
  -2   1  -6   69.98    3.03
  -2   1  -6   65.21    3.07
   2  -1   6   69.29    3.33
   2  -1   6   71.52    3.46
  -3   1  -6   17.56    1.72
  -3   1  -6   16.52    1.68
   3  -1   6   17.63    2.39
   3  -1   6   15.25    2.02
   4  -1   6  106.02    4.27
   4  -1   6  110.79    4.69
   5  -1   6   29.39    3.41
   5  -1   6   28.95    2.95
   5  -1   6   26.89    3.11
   6  -1   6   81.25    6.61
   6  -1   6   95.21    5.06
   6  -1   6   91.31    5.24
   7  -1   6   -2.83    4.41
   7  -1   6    7.12    3.54
   7  -1   6    7.92    4.59
   6   0  -6   14.09    8.51
   6   0  -6    6.12    5.06
   6   0  -6    1.38    4.55
  -6   0   6    8.63    3.11
   5   0  -6   37.51    4.40
   5   0  -6   35.27    4.62
   5   0  -6   39.35    5.69
  -5   0   6   48.14    4.66
  -5   0   6   43.04    4.85
  -5   0   6   24.72    3.83
   4   0  -6    8.39    2.36
   4   0  -6    8.03    2.87
   4   0  -6    8.30    2.58
  -4   0   6    4.51    2.33
  -4   0   6    5.17    2.22
  -4   0   6    4.70    2.19
   3   0  -6   24.68    3.50
   3   0  -6   23.64    2.92
   3   0  -6   16.53    2.30
  -3   0   6   24.30    3.07
  -3   0   6   19.87    2.91
  -3   0   6   21.19    3.05
   2   0  -6    4.25    1.66
   2   0  -6    6.23    1.74
   2   0  -6    6.86    1.62
  -2   0   6    6.06    1.63
  -2   0   6    5.98    1.57
  -2   0   6    7.67    1.76
   1   0  -6   61.01    3.19
   1   0  -6   60.33    3.13
   1   0  -6   60.25    3.04
  -1   0   6   63.27    2.99
  -1   0   6   60.41    3.21
  -1   0   6   64.84    3.19
   0   0  -6   93.99    3.64
   0   0  -6   84.82    3.11
   0   0  -6   86.26    3.45
   0   0   6   85.82    3.50
   0   0   6   89.30    3.66
  -1   0  -6    1.24    1.02
  -1   0  -6    0.98    0.97
  -1   0  -6    1.23    0.83
   1   0   6    0.87    0.94
   1   0   6    2.33    1.03
  -2   0  -6   23.42    2.09
  -2   0  -6   25.43    2.07
   2   0   6   20.42    2.29
   2   0   6   24.97    2.24
  -3   0  -6   -1.61    1.01
  -3   0  -6    0.21    0.99
   3   0   6    2.11    1.25
   3   0   6    0.74    1.17
   4   0   6   60.64    3.69
   4   0   6   57.86    2.50
   4   0   6   58.78    3.18
   5   0   6   -0.25    1.95
   5   0   6   -0.35    1.55
   5   0   6    0.89    1.62
   6   0   6   15.96    2.92
   6   0   6   16.46    3.19
   6   0   6   14.98    3.01
   7   0   6   -4.89    3.90
   7   0   6    1.94    3.94
   7   0   6    6.98    3.60
   6  -1  -6   15.63    5.86
   6  -1  -6    5.30    4.78
   6  -1  -6    1.13    4.21
   5  -1  -6   90.62    6.22
   5  -1  -6   83.63    6.39
   5  -1  -6   83.70    6.16
  -5   1   6   77.34    4.34
  -5   1   6   77.16    4.28
   4  -1  -6    4.67    2.62
   4  -1  -6    5.91    2.30
  -4   1   6    6.91    1.96
  -4   1   6    6.69    1.99
   3  -1  -6  135.83    5.53
   3  -1  -6  133.72    5.45
   3  -1  -6  128.09    5.19
  -3   1   6  133.41    4.96
  -3   1   6  138.48    4.98
   2  -1  -6    9.41    1.80
   2  -1  -6    8.46    1.58
   2  -1  -6    8.20    2.00
  -2   1   6    9.58    1.72
  -2   1   6    8.90    1.56
   1  -1  -6   96.82    3.86
   1  -1  -6   93.09    3.63
   1  -1  -6   91.34    3.65
  -1   1   6   98.85    3.86
  -1   1   6   97.82    3.71
   0  -1  -6   -0.55    0.87
   0  -1  -6   -0.56    0.88
   0  -1  -6   -0.11    0.64
   0  -1  -6    0.52    0.94
   0   1   6    0.25    0.84
   0   1   6   -1.17    0.90
  -1  -1  -6  174.50    5.13
  -1  -1  -6  172.79    4.25
  -1  -1  -6  169.66    4.91
   1   1   6  172.08    5.20
   1   1   6  178.40    5.07
  -2  -1  -6    1.64    0.58
  -2  -1  -6    0.53    1.01
  -2  -1  -6    1.52    1.05
   2   1   6    1.63    1.07
   2   1   6    0.30    1.03
  -3  -1  -6   38.38    2.36
  -3  -1  -6   39.38    2.44
   3   1   6   38.72    2.50
   3   1   6   39.01    2.80
  -4  -1  -6   32.64    2.07
  -4  -1  -6   28.71    1.51
   4   1   6   29.38    3.08
   4   1   6   31.66    2.73
   5   1   6   25.93    3.61
   5   1   6   26.64    3.20
   6   1   6    8.38    2.65
   6   1   6    2.02    2.68
   7   1   6   17.52    3.81
   7   1   6   20.47    4.48
   6  -2  -6   -2.63    4.46
   6  -2  -6   -3.98    3.81
   6  -2  -6   -4.20    4.89
   5  -2  -6   52.29    5.94
   5  -2  -6   51.83    5.62
   5  -2  -6   57.59    5.67
   4  -2  -6   -0.77    2.11
   4  -2  -6    1.67    2.46
   4  -2  -6   -0.84    2.00
  -4   2   6    1.06    1.63
  -4   2   6    0.87    1.53
   3  -2  -6   73.76    4.11
   3  -2  -6   72.61    3.91
   3  -2  -6   66.34    4.23
  -3   2   6   70.37    3.47
  -3   2   6   67.63    3.47
   2  -2  -6   22.15    2.46
   2  -2  -6   25.74    2.63
   2  -2  -6   24.53    2.61
   2  -2  -6   21.44    2.56
  -2   2   6   20.54    2.37
  -2   2   6   25.30    2.44
   1  -2  -6   56.19    2.76
   1  -2  -6   52.76    2.64
   1  -2  -6   55.28    2.95
   1  -2  -6   53.91    2.92
  -1   2   6   56.19    2.91
  -1   2   6   59.10    2.78
   0  -2  -6  206.43    5.70
   0  -2  -6  204.37    5.07
   0  -2  -6  211.01    5.92
   0  -2  -6  220.70    5.57
   0   2   6  220.95    5.87
   0   2   6  219.47    6.01
  -1  -2  -6  343.49    8.10
  -1  -2  -6  341.44    8.25
   1   2   6  340.08    8.12
   1   2   6  342.76    8.42
  -2  -2  -6    2.21    1.01
  -2  -2  -6    2.97    1.13
   2   2   6    2.12    1.12
   2   2   6    2.93    1.02
  -3  -2  -6  475.76   10.43
  -3  -2  -6  455.95   10.33
   3   2   6  451.18   10.46
   3   2   6  459.31   10.91
  -4  -2  -6   30.46    2.28
  -4  -2  -6   29.63    2.41
   4   2   6   30.92    2.84
   4   2   6   31.37    3.12
  -5  -2  -6   69.37    2.68
  -5  -2  -6   64.57    3.43
  -5  -2  -6   68.39    2.66
   5   2   6   70.21    4.02
  -6  -2  -6   16.20    2.91
   6   2   6   17.17    2.93
   6   2   6   14.53    3.19
  -7  -2  -6   66.13    6.17
   7   2   6   69.27    6.44
   7   2   6   64.88    7.82
   6  -3  -6   13.85    4.26
   6  -3  -6    7.56    4.14
   6  -3  -6   12.01    6.68
   5  -3  -6   11.90    2.97
   5  -3  -6   15.68    4.13
   5  -3  -6   19.37    4.23
   5  -3  -6    7.31    3.63
   4  -3  -6   53.05    6.86
   4  -3  -6   52.97    4.59
   4  -3  -6   44.97    4.73
   4  -3  -6   46.58    4.14
  -4   3   6   43.68    2.35
  -4   3   6   43.85    2.32
   3  -3  -6   36.81    3.62
   3  -3  -6   37.51    3.37
   3  -3  -6   37.66    3.43
   3  -3  -6   36.55    3.21
  -3   3   6   34.17    2.55
  -3   3   6   34.30    2.52
   2  -3  -6    8.84    1.66
   2  -3  -6   10.98    1.63
   2  -3  -6    9.42    1.83
   2  -3  -6   15.47    2.35
  -2   3   6   11.34    1.64
  -2   3   6   10.82    1.62
   1  -3  -6   84.84    3.36
   1  -3  -6   79.19    3.44
   1  -3  -6   83.46    3.54
   1  -3  -6   81.46    3.26
  -1   3   6   82.08    3.31
  -1   3   6   81.91    3.41
   0  -3  -6   38.97    2.40
   0  -3  -6   43.85    2.11
   0  -3  -6   40.18    2.26
   0   3   6   41.63    2.47
   0   3   6   40.88    2.39
  -1  -3  -6  261.07    6.70
  -1  -3  -6  267.43    6.93
   1   3   6  259.30    5.99
   1   3   6  268.63    6.70
   1   3   6  259.21    6.95
  -2  -3  -6    0.84    1.07
  -2  -3  -6    0.98    1.00
   2   3   6    0.65    0.78
   2   3   6    0.10    0.68
   2   3   6    0.85    1.01
  -3  -3  -6   49.46    2.90
  -3  -3  -6   51.82    2.95
   3   3   6   46.81    2.73
   3   3   6   49.97    3.09
  -4  -3  -6   19.63    2.43
  -4  -3  -6   20.02    2.19
   4   3   6   21.67    2.62
   4   3   6   15.39    2.03
  -5  -3  -6   90.91    3.87
  -5  -3  -6   91.00    4.23
  -5  -3  -6   90.04    3.83
   5   3   6   89.49    4.52
   5   3   6   89.13    4.99
  -6  -3  -6    6.74    2.79
   6   3   6   14.02    3.12
   6   3   6    6.45    2.67
  -7  -3  -6   58.46    6.95
   7   3   6   61.22    6.42
   7   3   6   56.76    5.97
   6  -4  -6   44.60    6.69
   6  -4  -6   27.82    5.03
   6  -4  -6   39.04    4.99
   5  -4  -6   -0.59    2.71
   5  -4  -6   -5.97    3.30
   5  -4  -6    2.06    3.75
   5  -4  -6    1.69    3.05
   4  -4  -6   43.51    4.63
   4  -4  -6   42.08    4.13
   4  -4  -6   57.56    4.54
   4  -4  -6   44.84    4.02
   3  -4  -6    5.13    1.83
   3  -4  -6    3.16    1.93
   3  -4  -6    4.72    1.70
   3  -4  -6    0.08    1.80
  -3   4   6    2.00    1.12
  -3   4   6    2.91    1.17
   2  -4  -6   59.44    3.40
   2  -4  -6   58.69    3.29
   2  -4  -6   55.90    3.37
   2  -4  -6   60.67    3.17
  -2   4   6   58.88    2.86
  -2   4   6   56.51    2.83
   1  -4  -6    3.40    1.21
   1  -4  -6    2.65    1.13
   1  -4  -6    1.80    1.00
  -1   4   6    2.42    1.10
  -1   4   6    2.89    1.16
   0  -4  -6  268.10    6.99
   0  -4  -6  256.19    6.62
   0  -4  -6  261.32    6.49
   0   4   6  264.59    6.87
   0   4   6  266.36    6.65
   0   4   6  252.53    6.57
  -1  -4  -6   13.99    1.77
  -1  -4  -6   13.38    1.91
   1   4   6   15.62    1.85
   1   4   6   15.97    1.66
   1   4   6   14.86    1.54
  -2  -4  -6   84.20    3.61
  -2  -4  -6   85.61    3.59
   2   4   6   89.68    3.41
   2   4   6   88.19    3.08
   2   4   6   89.85    3.72
  -3  -4  -6    0.05    1.18
  -3  -4  -6    1.29    1.29
   3   4   6    0.38    1.18
   3   4   6    1.27    1.21
  -4  -4  -6   23.24    2.56
   4   4   6   23.38    2.62
  -5  -4  -6   19.74    2.65
  -5  -4  -6   15.68    2.28
  -5  -4  -6   22.42    3.16
   5   4   6   18.59    2.58
   5   4   6   23.41    3.06
  -6  -4  -6   36.69    3.57
  -6  -4  -6   35.15    3.71
   6   4   6   36.98    4.10
   6   4   6   43.26    4.77
  -7  -4  -6    7.90    4.92
   7   4   6    3.40    4.49
   7   4   6   13.90    4.23
   6  -5  -6   10.81    6.38
   6  -5  -6    9.45    4.28
   6  -5  -6    1.40    4.51
   5  -5  -6    4.43    3.00
   5  -5  -6    9.57    4.20
   5  -5  -6   13.17    3.89
   5  -5  -6   14.47    3.26
   4  -5  -6   27.74    3.87
   4  -5  -6   22.69    3.35
   4  -5  -6   19.50    3.12
   4  -5  -6   25.65    2.97
   3  -5  -6   23.58    3.14
   3  -5  -6   22.56    3.02
   3  -5  -6   28.77    3.30
   3  -5  -6   22.88    3.95
   2  -5  -6  131.97    5.08
   2  -5  -6  128.89    4.56
   2  -5  -6  128.29    5.08
   2  -5  -6  130.16    4.74
  -2   5   6  130.12    4.04
  -2   5   6  130.68    4.09
   1  -5  -6    0.01    1.17
   1  -5  -6    0.23    1.18
   1  -5  -6   -1.60    0.97
  -1   5   6   -0.03    1.11
  -1   5   6    0.09    0.97
  -1   5   6   -0.02    1.14
   0  -5  -6   76.58    3.27
   0  -5  -6   76.69    3.47
   0   5   6   78.25    3.38
   0   5   6   75.13    3.31
   0   5   6   78.55    3.20
  -1  -5  -6   29.59    2.24
  -1  -5  -6   26.42    2.20
   1   5   6   28.63    2.11
   1   5   6   23.52    1.95
   1   5   6   25.35    2.31
  -2  -5  -6  198.08    5.97
  -2  -5  -6  193.38    5.86
   2   5   6  197.15    5.53
   2   5   6  197.84    6.15
   2   5   6  195.52    5.75
  -3  -5  -6   17.38    2.24
  -3  -5  -6   17.48    2.44
   3   5   6   13.12    1.68
   3   5   6   15.79    2.05
  -4  -5  -6  142.99    5.43
   4   5   6  148.08    5.59
   4   5   6  151.21    5.92
  -5  -5  -6    9.50    2.84
  -5  -5  -6    6.00    2.23
  -5  -5  -6    4.41    2.20
   5   5   6    9.94    2.82
   5   5   6    9.57    2.43
  -6  -5  -6   43.56    4.84
  -6  -5  -6   39.65    4.56
  -6  -5  -6   30.98    3.54
   6   5   6   24.90    4.03
   6   5   6   28.07    3.80
  -7  -5  -6   -1.70    5.51
   7   5   6   -2.85    5.91
   7   5   6   -5.47    3.77
   5  -6  -6    9.13    3.82
   5  -6  -6    4.98    3.08
   5  -6  -6   -2.90    3.10
   5  -6  -6   -2.63    4.01
   4  -6  -6    2.03    2.31
   4  -6  -6    7.20    2.46
   4  -6  -6    2.03    2.38
   4  -6  -6    5.79    3.19
   3  -6  -6    0.93    1.70
   3  -6  -6    0.17    1.93
   3  -6  -6    4.58    1.88
   3  -6  -6    5.69    2.15
   2  -6  -6   45.30    3.08
   2  -6  -6   50.18    3.32
   2  -6  -6   40.82    5.17
  -2   6   6   47.24    2.40
  -2   6   6   48.92    2.48
   1  -6  -6    7.58    1.44
   1  -6  -6   11.59    1.84
   1  -6  -6   10.12    1.98
  -1   6   6    7.23    1.65
  -1   6   6    9.85    1.54
  -1   6   6   10.68    1.67
   0  -6  -6   24.42    2.42
   0  -6  -6   30.15    2.63
   0   6   6   24.08    2.41
   0   6   6   26.51    2.29
   0   6   6   26.62    2.50
  -1  -6  -6    2.69    1.20
  -1  -6  -6    3.99    1.25
   1   6   6    3.26    1.03
   1   6   6    3.44    1.31
   1   6   6    3.20    1.29
  -2  -6  -6  121.87    4.83
  -2  -6  -6  127.97    4.75
   2   6   6  129.21    4.91
   2   6   6  122.42    4.51
   2   6   6  124.91    4.53
  -3  -6  -6   19.09    2.82
  -3  -6  -6   18.92    2.48
   3   6   6   22.36    3.00
   3   6   6   22.37    2.51
  -4  -6  -6   76.09    4.52
  -4  -6  -6   74.71    4.35
   4   6   6   72.90    4.20
   4   6   6   74.88    4.55
  -5  -6  -6    3.56    2.27
  -5  -6  -6    0.97    2.61
  -5  -6  -6   -2.14    2.13
   5   6   6    2.26    2.47
   5   6   6    1.08    2.07
  -6  -6  -6   46.12    5.59
  -6  -6  -6   52.74    4.76
  -6  -6  -6   49.69    5.58
   6   6   6   36.76    4.48
   6   6   6   43.84    4.42
   5  -7  -6   18.18    3.60
   5  -7  -6   23.65    3.80
   5  -7  -6   25.29    5.84
   4  -7  -6    1.83    2.46
   4  -7  -6   -0.49    3.27
   4  -7  -6   -0.83    2.97
   4  -7  -6    0.93    2.56
   3  -7  -6   17.37    3.07
   3  -7  -6   14.70    2.39
   3  -7  -6   15.55    2.97
   3  -7  -6   17.98    2.61
   2  -7  -6    1.59    1.63
   2  -7  -6    3.30    1.70
   2  -7  -6   -2.20    1.61
  -2   7   6    0.35    0.96
  -2   7   6   -1.15    0.94
   1  -7  -6    9.75    1.87
   1  -7  -6   10.25    1.88
   1  -7  -6   11.30    1.97
  -1   7   6   13.53    2.21
  -1   7   6   11.19    1.76
  -1   7   6   12.88    1.68
   0  -7  -6   -0.68    1.29
   0  -7  -6    0.74    1.36
   0   7   6    0.45    1.28
   0   7   6    1.09    1.23
   0   7   6   -0.78    1.37
  -1  -7  -6   85.16    4.13
  -1  -7  -6   83.48    4.00
   1   7   6   93.57    4.25
   1   7   6   91.96    4.19
   1   7   6   89.65    3.79
  -2  -7  -6    7.12    1.83
  -2  -7  -6    6.77    2.18
   2   7   6    4.30    1.84
   2   7   6    5.70    1.79
   2   7   6    6.40    1.55
  -3  -7  -6   40.56    3.67
   3   7   6   37.95    3.13
   3   7   6   41.76    3.68
  -4  -7  -6   22.59    3.20
  -4  -7  -6   16.81    2.77
   4   7   6   15.12    2.77
   4   7   6   14.54    2.11
  -5  -7  -6    8.22    2.71
  -5  -7  -6    3.98    2.88
  -5  -7  -6   10.53    3.41
   5   7   6    4.40    2.28
   5   7   6   11.76    3.06
  -6  -7  -6    7.05    3.36
  -6  -7  -6   11.26    3.73
  -6  -7  -6   10.11    4.96
   6   7   6    6.93    3.03
   6   7   6    0.29    3.32
   5  -8  -6   27.20    4.05
   5  -8  -6   13.99    5.49
   5  -8  -6   16.69    3.82
   4  -8  -6   13.10    3.00
   4  -8  -6   18.04    4.17
   4  -8  -6   13.13    4.32
   3  -8  -6   75.16    5.34
   3  -8  -6   71.78    4.78
   3  -8  -6   72.53    4.59
   2  -8  -6   15.23    2.56
   2  -8  -6    9.91    2.14
   2  -8  -6    7.06    2.31
  -2   8   6   16.01    2.90
   1  -8  -6   41.58    3.66
   1  -8  -6   38.20    3.59
  -1   8   6   32.49    5.79
  -1   8   6   32.55    2.71
  -1   8   6   33.13    2.74
   0  -8  -6   69.56    4.12
   0   8   6   65.58    3.46
   0   8   6   68.22    3.77
   0   8   6   73.57    4.25
  -1  -8  -6   78.61    4.23
  -1  -8  -6   72.80    4.26
   1   8   6   77.34    3.77
   1   8   6   72.87    4.15
   1   8   6   72.71    4.09
  -2  -8  -6   14.48    2.20
  -2  -8  -6   18.27    2.64
   2   8   6   10.36    2.02
   2   8   6   17.88    2.65
  -3  -8  -6   48.04    4.13
  -3  -8  -6   40.06    4.01
   3   8   6   40.79    3.47
   3   8   6   35.72    3.86
  -4  -8  -6    3.34    2.31
  -4  -8  -6    6.17    2.50
   4   8   6    4.29    2.05
   4   8   6    4.82    1.80
  -5  -8  -6   26.18    3.84
  -5  -8  -6   30.34    4.23
   5   8   6   19.74    3.04
   5   8   6   39.01    4.30
  -6  -8  -6    2.94    4.07
  -6  -8  -6   -2.01    4.17
  -6  -8  -6   -3.43    5.84
   6   8   6   -2.20    3.34
   4  -9  -6    0.78    4.43
   4  -9  -6    2.35    5.81
   4  -9  -6   -6.86    3.11
   4  -9  -6   -0.28    3.06
   3  -9  -6    0.49    3.11
   3  -9  -6    4.11    2.65
   3  -9  -6   -1.28    2.61
   2  -9  -6   16.88    2.93
   2  -9  -6   19.73    2.90
  -2   9   6   11.37    2.89
   1  -9  -6   67.95    4.83
   1  -9  -6   72.44    4.82
  -1   9   6   74.83    3.67
  -1   9   6   75.96    3.55
  -1   9   6   80.97    5.14
   0  -9  -6    0.07    2.14
   0   9   6    2.34    1.96
   0   9   6   -0.37    1.69
   0   9   6   -0.09    1.54
  -1  -9  -6   19.75    2.98
  -1  -9  -6   21.72    3.06
   1   9   6   15.91    2.67
   1   9   6   26.74    3.13
  -2  -9  -6    3.35    2.06
  -2  -9  -6    5.26    2.23
   2   9   6    0.53    1.83
   2   9   6   -1.28    1.76
   2   9   6    1.33    1.94
  -3  -9  -6   37.59    4.49
   3   9   6   31.46    3.92
   3   9   6   29.11    4.19
  -4  -9  -6   21.20    3.47
  -4  -9  -6   12.94    3.03
   4   9   6   18.12    2.95
   4   9   6   21.80    3.04
  -5  -9  -6   48.13    5.02
  -5  -9  -6   58.80    6.79
   5   9   6   62.73    8.07
   5   9   6   61.21    5.87
   4 -10  -6    9.50    5.93
   4 -10  -6    7.38    4.20
   4 -10  -6   -1.36    4.09
   3 -10  -6    3.75    4.96
   3 -10  -6   -5.66    3.94
   3 -10  -6    0.27    3.27
   2 -10  -6   15.79    3.42
   2 -10  -6    8.38    2.89
  -2  10   6    7.86    3.30
   1 -10  -6    4.55    2.64
   1 -10  -6   10.28    3.10
  -1  10   6    7.82    1.89
  -1  10   6    7.84    1.86
  -1  10   6    3.01    2.61
   0 -10  -6   16.11    3.25
   0 -10  -6   16.01    3.05
   0  10   6   13.67    2.33
   0  10   6   14.24    2.68
   0  10   6   15.58    3.11
  -1 -10  -6    0.31    2.40
  -1 -10  -6    0.54    2.33
   1  10   6    3.77    2.00
   1  10   6    4.97    2.46
   1  10   6    2.51    2.27
  -2 -10  -6   13.63    2.86
  -2 -10  -6   12.30    2.90
   2  10   6    7.31    2.96
   2  10   6   10.16    2.64
   2  10   6    9.39    2.75
  -3 -10  -6    6.25    2.44
  -3 -10  -6   14.09    3.36
   3  10   6    8.33    2.87
   3  10   6    8.14    2.45
   3  10   6    8.96    3.15
  -4 -10  -6    2.45    3.36
  -4 -10  -6   -1.95    3.28
   4  10   6    5.23    2.53
   4  10   6    1.42    3.46
  -5 -10  -6   19.04    4.56
   3 -11  -6    4.92    4.40
   3 -11  -6    1.92    4.21
   2 -11  -6   48.42    6.98
   2 -11  -6   54.65    6.90
  -2  11   6   43.58    5.47
   1 -11  -6    0.96    3.48
   1 -11  -6    0.37    3.31
  -1  11   6    0.72    1.66
  -1  11   6    1.59    3.41
  -1  11   6    1.11    1.82
   0 -11  -6   34.64    4.28
   0 -11  -6   48.25    6.31
   0  11   6   53.52    5.37
   0  11   6   51.49    4.81
   0  11   6   44.07    4.34
  -1 -11  -6    7.53    3.12
  -1 -11  -6    5.52    3.26
   1  11   6   -2.49    2.83
   1  11   6    2.18    2.69
   1  11   6    1.87    2.38
  -2 -11  -6   56.94    6.14
   2  11   6   57.58    6.17
   2  11   6   47.32    5.17
   2  11   6   46.76    5.95
  -3 -11  -6    1.59    3.34
  -3 -11  -6   10.61    3.70
   3  11   6    4.95    3.66
   3  11   6    5.79    3.44
   3  11   6    2.16    3.13
  -4 -11  -6   11.12    4.36
   4  11   6   17.76    3.96
   2 -12  -6   12.12    5.18
   2 -12  -6   18.52    5.22
   1 -12  -6   -5.22    4.16
   1 -12  -6    5.63    4.66
  -1  12   6    4.02    4.45
   0 -12  -6   59.42    5.91
   0 -12  -6   55.00    7.77
   0  12   6   67.95    6.88
   0  12   6   53.64    6.22
   0  12   6   55.33    5.26
  -1 -12  -6   -2.60    3.94
   1  12   6   -4.56    2.77
   1  12   6    9.79    3.76
   1  12   6    3.83    3.49
  -2 -12  -6   28.81    4.97
   2  12   6   29.03    4.85
   2  12   6   26.92    4.83
   2  12   6   27.82    4.12
   3  12   6    6.64    4.13
   1   7  -7   -1.38    4.84
  -1  -7   7   -1.18    4.26
   0   7  -7   96.97   11.92
   0   7  -7  118.06    8.42
   0  -7   7  114.39    6.79
   0  -7   7  109.25    8.83
  -1   7  -7   12.78    4.06
  -1   7  -7    9.27    3.67
  -1   7  -7   19.12    7.25
   1  -7   7   -0.55    3.86
   1  -7   7   10.62    3.27
   2  -7   7   93.30    8.72
   2  -7   7  120.46    9.30
   2   6  -7   26.05    4.97
   2   6  -7   21.35    5.43
  -2  -6   7   18.81    4.55
  -2  -6   7   22.73    4.74
   1   6  -7    6.57    4.30
   1   6  -7    3.16    3.84
  -1  -6   7    4.88    3.39
  -1  -6   7    7.22    3.38
  -1  -6   7   12.72    3.76
   0   6  -7   23.87    4.03
   0   6  -7   28.52    3.56
   0   6  -7   29.81    4.46
   0  -6   7   18.77    3.67
   0  -6   7   22.96    3.96
  -1   6  -7    4.19    2.62
  -1   6  -7    4.42    4.19
   1  -6   7   -1.10    3.45
   1  -6   7    2.15    2.39
   1  -6   7    7.68    3.26
  -2   6  -7   47.23    3.31
  -2   6  -7   48.41    3.64
   2  -6   7   47.59    6.47
   2  -6   7   56.27    6.91
   3  -6   7   -3.04    3.51
   3  -6   7    2.20    4.13
   3   5  -7   25.40    4.52
  -3  -5   7   21.06    4.31
  -3  -5   7   35.20    5.57
   2   5  -7   -2.85    3.75
   2   5  -7    3.50    3.37
  -2  -5   7    2.71    3.18
  -2  -5   7   -0.14    3.02
  -2  -5   7    2.71    3.28
   1   5  -7   62.10    5.85
   1   5  -7   68.25    6.00
  -1  -5   7   46.77    5.27
  -1  -5   7   74.60    5.58
  -1  -5   7   55.85    4.89
   0   5  -7   13.35    3.19
   0   5  -7   13.13    3.19
   0  -5   7   10.92    2.59
   0  -5   7   17.36    3.29
   0  -5   7    4.76    2.85
  -1   5  -7   22.26    3.29
  -1   5  -7   24.61    3.21
  -1   5  -7   28.64    3.17
   1  -5   7   25.29    3.00
   1  -5   7   27.86    3.71
   1  -5   7   25.90    3.71
  -2   5  -7   -0.20    2.11
   2  -5   7   -1.24    2.91
   2  -5   7   -2.97    2.69
   3  -5   7   18.08    3.41
   3  -5   7   19.52    3.40
   4  -5   7   17.97    4.25
   4  -5   7   17.82    3.54
   4   4  -7   22.82    4.91
  -4  -4   7   24.18    5.19
  -4  -4   7   24.94    5.40
   3   4  -7  118.46    7.23
  -3  -4   7  138.49    7.82
  -3  -4   7  127.68    7.66
  -3  -4   7  139.93    8.11
   2   4  -7    6.64    3.19
   2   4  -7    8.98    3.34
  -2  -4   7    9.40    2.89
  -2  -4   7   12.54    3.21
  -2  -4   7    7.05    2.97
   1   4  -7   94.97    5.99
   1   4  -7   90.97    5.53
  -1  -4   7   81.77    5.33
  -1  -4   7   83.35    5.40
   0   4  -7    3.35    2.47
   0   4  -7    0.39    2.20
   0  -4   7    1.67    2.24
   0  -4   7    2.17    1.82
   0  -4   7    2.28    2.12
  -1   4  -7  112.83    3.85
  -1   4  -7  116.19    5.25
  -1   4  -7  125.54    5.45
   1  -4   7  108.56    4.00
   1  -4   7  108.93    5.86
   1  -4   7  110.89    5.84
  -2   4  -7   15.23    2.31
  -2   4  -7   12.96    2.23
   2  -4   7   15.65    2.84
   2  -4   7   17.02    2.87
   3  -4   7  146.04    6.33
   3  -4   7  145.38    6.78
   4  -4   7    1.43    3.09
   4  -4   7    2.16    2.79
   5  -4   7   33.92    4.15
   5  -4   7   30.75    4.45
   4   3  -7   -1.88    4.41
   4   3  -7    1.00    3.34
  -4  -3   7   -2.40    3.75
  -4  -3   7    3.27    3.87
  -4  -3   7    2.87    4.16
   3   3  -7   28.68    3.53
   3   3  -7   25.60    3.59
  -3  -3   7   41.15    5.62
  -3  -3   7   28.90    4.08
  -3  -3   7   25.93    3.76
   2   3  -7    3.32    2.42
   2   3  -7    0.32    2.06
  -2  -3   7    1.81    2.45
  -2  -3   7    3.29    2.18
  -2  -3   7    1.79    2.17
   1   3  -7   97.14    5.14
   1   3  -7  100.22    5.39
  -1  -3   7  106.71    5.33
  -1  -3   7   95.46    5.18
  -1  -3   7   94.69    4.54
   0   3  -7   12.90    2.37
   0   3  -7   14.60    2.47
   0  -3   7   15.00    2.14
   0  -3   7   11.52    2.51
   0  -3   7   15.81    2.62
  -1   3  -7   80.51    4.48
  -1   3  -7   84.21    4.34
   1  -3   7   78.74    3.05
   1  -3   7   82.09    4.64
  -2   3  -7    5.57    1.74
  -2   3  -7    5.68    1.83
   2  -3   7    4.99    2.16
   2  -3   7    0.41    1.66
   3  -3   7  145.99    5.91
   3  -3   7  155.99    6.37
   4  -3   7    4.88    2.56
   4  -3   7    4.81    2.57
   5  -3   7   50.36    5.61
   5  -3   7   36.03    4.81
   5   2  -7   -2.42    4.16
  -5  -2   7   -1.93    4.37
  -5  -2   7    6.76    4.45
   4   2  -7   37.61    4.48
   4   2  -7   31.27    4.26
  -4  -2   7   27.44    4.20
  -4  -2   7   33.27    4.53
  -4  -2   7   43.97    6.45
   3   2  -7   -0.18    2.21
   3   2  -7    0.78    2.21
  -3  -2   7   -0.06    2.70
  -3  -2   7   -1.46    2.37
  -3  -2   7    3.50    2.62
   2   2  -7   12.81    2.29
   2   2  -7   14.54    2.53
  -2  -2   7   15.63    2.53
  -2  -2   7   20.89    2.81
  -2  -2   7   14.49    2.70
   1   2  -7   10.69    2.30
   1   2  -7    7.86    2.82
  -1  -2   7    6.26    2.03
  -1  -2   7   11.17    2.28
  -1  -2   7   11.78    2.13
   0   2  -7   74.65    4.17
   0   2  -7   79.23    4.16
   0  -2   7   74.88    3.34
   0  -2   7   80.98    4.19
   0  -2   7   78.41    4.22
  -1   2  -7    9.70    1.98
  -1   2  -7   11.59    1.93
   1  -2   7   12.48    2.08
   1  -2   7   13.75    2.34
  -2   2  -7    3.66    1.66
  -2   2  -7    7.00    1.73
   2  -2   7    3.81    1.93
  -3   2  -7    1.66    1.23
  -3   2  -7   -1.51    1.21
   3  -2   7    0.95    1.85
   3  -2   7    2.94    2.96
   4  -2   7    3.81    2.21
   4  -2   7    2.30    3.16
   5  -2   7   53.65    5.40
   5  -2   7   47.76    4.87
   6  -2   7    1.09    3.55
   6  -2   7    2.99    3.88
   5   1  -7    3.89    5.18
   5   1  -7   -3.10    4.02
   5   1  -7    0.75    4.98
  -5  -1   7   -0.77    3.72
  -5  -1   7    0.81    3.80
   4   1  -7   65.76    6.40
   4   1  -7   62.24    5.76
   4   1  -7   53.18    6.03
  -4  -1   7   77.67    6.15
  -4  -1   7   65.87    5.64
  -4  -1   7   67.39    5.62
   3   1  -7   11.62    3.22
   3   1  -7   10.74    2.53
   3   1  -7    8.15    2.08
  -3  -1   7   11.19    2.58
  -3  -1   7   10.85    2.73
  -3  -1   7   11.63    2.69
   2   1  -7   70.04    4.23
   2   1  -7   73.88    4.75
   2   1  -7   72.08    4.49
  -2  -1   7   69.51    4.47
  -2  -1   7   60.56    6.58
   1   1  -7  323.44    8.68
   1   1  -7  322.08    8.83
   1   1  -7  329.62    9.12
  -1  -1   7  322.60    9.04
  -1  -1   7  336.27    8.50
  -1  -1   7  320.17    8.99
   0   1  -7   81.29    3.48
   0   1  -7   79.03    4.10
   0   1  -7   81.16    3.96
   0  -1   7   85.44    4.12
   0  -1   7   80.79    3.90
  -1   1  -7    2.87    1.43
  -1   1  -7   -0.79    1.42
   1  -1   7   -0.07    1.40
   1  -1   7    0.72    1.40
  -2   1  -7  123.81    4.58
  -2   1  -7  118.76    4.49
   2  -1   7  120.88    4.81
   2  -1   7  129.12    5.12
  -3   1  -7   -0.88    1.19
  -3   1  -7    0.66    1.35
   3  -1   7    1.88    1.82
   3  -1   7    1.90    1.69
   4  -1   7   51.41    4.48
   4  -1   7   55.57    3.98
   5  -1   7    1.48    2.43
   5  -1   7    0.84    2.24
   6  -1   7   37.25    4.05
   6  -1   7   36.00    4.63
   6  -1   7   38.81    4.54
   5   0  -7   -5.04    3.69
   5   0  -7   -6.46    4.68
   5   0  -7   -9.23    3.79
  -5   0   7    3.21    3.47
   4   0  -7    3.45    2.86
   4   0  -7    7.72    3.58
   4   0  -7    9.55    2.98
  -4   0   7    5.49    2.72
  -4   0   7    4.06    3.64
  -4   0   7    6.57    3.27
   3   0  -7   16.94    3.05
   3   0  -7   18.20    2.68
   3   0  -7   19.60    3.07
  -3   0   7   17.85    2.60
  -3   0   7   22.30    3.17
  -3   0   7   17.95    2.79
   2   0  -7  168.76    5.80
   2   0  -7  164.34    6.14
   2   0  -7  168.25    6.30
  -2   0   7  170.20    5.95
  -2   0   7  171.64    6.09
  -2   0   7  149.69    8.14
   1   0  -7    8.07    1.91
   1   0  -7    7.03    1.55
   1   0  -7    7.67    1.92
  -1   0   7    5.55    1.68
  -1   0   7    5.65    1.51
   0   0  -7  139.87    4.56
   0   0  -7  142.98    5.01
   0   0  -7  151.06    5.24
   0   0   7  153.87    5.32
   0   0   7  147.14    5.09
  -1   0  -7   24.09    2.52
  -1   0  -7   26.76    2.59
  -1   0  -7   22.22    1.76
   1   0   7   25.01    2.53
   1   0   7   25.52    2.42
  -2   0  -7   46.78    2.96
  -2   0  -7   45.72    2.89
   2   0   7   41.45    3.25
   2   0   7   48.92    3.11
  -3   0  -7    4.03    1.47
  -3   0  -7    8.96    1.62
   3   0   7    7.35    1.74
   3   0   7    8.79    1.88
  -4   0  -7  213.40    5.03
   4   0   7  218.00    7.17
   4   0   7  218.31    6.69
   5   0   7   67.10    4.95
   5   0   7   72.12    4.59
   6   0   7   40.81    4.39
   6   0   7   37.65    4.98
   6   0   7   44.50    4.17
   5  -1  -7    9.59    3.99
   5  -1  -7    0.45    3.88
   5  -1  -7    9.69    3.79
  -5   1   7    5.97    2.82
  -5   1   7   13.93    3.15
   4  -1  -7    0.69    2.93
   4  -1  -7    2.29    2.55
   4  -1  -7    4.37    3.39
  -4   1   7   -1.79    2.35
  -4   1   7    5.04    2.43
   3  -1  -7   40.19    4.14
   3  -1  -7   44.63    4.51
   3  -1  -7   33.99    3.83
  -3   1   7   40.20    3.65
  -3   1   7   34.56    3.73
   2  -1  -7   12.19    2.46
   2  -1  -7    9.21    2.41
   2  -1  -7    8.97    1.87
  -2   1   7    7.96    1.82
  -2   1   7    9.72    1.96
   1  -1  -7   50.88    3.26
   1  -1  -7   45.74    3.02
   1  -1  -7   46.38    3.10
   1  -1  -7   46.53    2.78
  -1   1   7   45.58    2.99
  -1   1   7   42.66    3.16
   0  -1  -7   33.48    2.77
   0  -1  -7   27.93    1.80
   0  -1  -7   28.45    2.28
   0  -1  -7   28.30    2.42
   0   1   7   29.46    2.51
   0   1   7   26.46    2.54
  -1  -1  -7   -1.52    1.07
  -1  -1  -7    2.16    1.26
  -1  -1  -7    0.52    0.86
   1   1   7   -0.31    1.11
   1   1   7    0.34    0.96
  -2  -1  -7   23.69    2.45
  -2  -1  -7   29.60    2.63
  -2  -1  -7   25.12    1.33
   2   1   7   27.07    2.67
   2   1   7   26.25    2.47
  -3  -1  -7    1.18    1.33
  -3  -1  -7   -0.56    1.28
   3   1   7    0.92    1.38
   3   1   7    0.33    1.42
  -4  -1  -7  106.93    3.81
  -4  -1  -7  108.49    3.80
   4   1   7  109.19    4.58
   4   1   7  104.48    5.03
   5   1   7    0.83    1.56
   5   1   7   -0.13    2.29
   5   1   7    2.79    2.02
   6   1   7   34.70    4.29
   6   1   7   46.73    4.94
   6   1   7   44.19    5.75
   7   1   7   18.92    4.22
   7   1   7   10.66    4.82
   7   1   7   26.43    6.55
   6  -2  -7   -2.92    4.66
   6  -2  -7    3.88    5.30
   5  -2  -7   70.17    7.94
   5  -2  -7   68.48    6.68
   5  -2  -7   88.97    7.62
   5  -2  -7   72.93    6.79
  -5   2   7   73.26    4.10
  -5   2   7   73.14    4.03
   4  -2  -7    3.40    2.79
   4  -2  -7    6.85    2.91
   4  -2  -7    4.64    3.17
   4  -2  -7    5.63    2.76
  -4   2   7    3.88    2.26
  -4   2   7    5.08    2.15
   3  -2  -7  110.39    5.59
   3  -2  -7  111.04    5.10
   3  -2  -7  117.47    5.71
   3  -2  -7  122.91    5.58
  -3   2   7  116.13    4.95
  -3   2   7  128.64    5.15
   2  -2  -7    0.84    1.33
   2  -2  -7    5.24    2.01
   2  -2  -7    2.51    1.62
   2  -2  -7    0.99    1.65
  -2   2   7    3.05    1.50
  -2   2   7    2.01    1.54
   1  -2  -7  143.84    4.60
   1  -2  -7  144.48    4.84
   1  -2  -7  136.83    4.91
   1  -2  -7  143.06    5.14
  -1   2   7  137.51    4.87
  -1   2   7  148.53    5.11
   0  -2  -7   38.58    2.00
   0  -2  -7   36.25    2.51
   0  -2  -7   37.27    2.49
   0  -2  -7   38.92    2.83
   0   2   7   40.87    2.75
   0   2   7   40.62    2.66
  -1  -2  -7  174.94    4.69
  -1  -2  -7  175.47    5.51
  -1  -2  -7  178.02    5.32
   1   2   7  177.15    5.38
   1   2   7  180.06    5.68
  -2  -2  -7   -1.00    1.18
  -2  -2  -7   -0.83    1.03
   2   2   7   -0.61    1.11
   2   2   7    0.08    1.05
  -3  -2  -7   32.63    2.73
  -3  -2  -7   26.99    2.65
   3   2   7   27.79    2.66
   3   2   7   29.65    2.92
  -4  -2  -7   26.63    2.84
  -4  -2  -7   30.44    2.75
  -4  -2  -7   26.14    1.91
   4   2   7   30.94    2.95
   4   2   7   27.36    3.58
  -5  -2  -7    5.52    1.50
  -5  -2  -7    2.44    1.35
  -5  -2  -7    5.52    1.68
   5   2   7    5.28    2.21
   5   2   7    6.75    2.31
  -6  -2  -7    4.70    2.21
   6   2   7    1.28    2.59
   6   2   7    2.94    3.45
   7   2   7   27.45    4.73
   7   2   7   32.03    5.44
   6  -3  -7   -7.03    5.39
   6  -3  -7    7.68    4.83
   5  -3  -7   72.90    7.03
   5  -3  -7   52.93    6.25
   5  -3  -7   64.96    6.87
   5  -3  -7   60.81    6.38
   4  -3  -7    2.54    2.73
   4  -3  -7    7.74    3.02
   4  -3  -7   -1.34    2.38
   4  -3  -7   -0.66    3.20
  -4   3   7    0.55    1.79
  -4   3   7    4.26    1.84
   3  -3  -7   61.94    4.40
   3  -3  -7   69.39    4.72
   3  -3  -7   65.28    4.49
   3  -3  -7   62.29    4.29
  -3   3   7   64.43    3.68
  -3   3   7   66.66    3.80
   2  -3  -7    2.54    2.09
   2  -3  -7    1.66    1.51
   2  -3  -7    2.06    1.54
   2  -3  -7    5.08    1.88
  -2   3   7    1.55    1.51
  -2   3   7    1.79    1.43
   1  -3  -7  230.61    6.76
   1  -3  -7  236.10    6.75
   1  -3  -7  222.94    6.26
   1  -3  -7  225.06    6.45
  -1   3   7  229.78    6.61
  -1   3   7  237.81    6.55
   0  -3  -7   44.55    2.64
   0  -3  -7   41.06    2.59
   0  -3  -7   47.81    2.33
   0  -3  -7   51.56    3.02
   0   3   7   45.76    2.93
   0   3   7   44.09    2.73
  -1  -3  -7  309.34    7.87
  -1  -3  -7  308.40    8.07
   1   3   7  313.26    7.89
   1   3   7  306.85    8.16
  -2  -3  -7   64.62    3.24
  -2  -3  -7   55.32    3.20
   2   3   7   62.13    3.35
   2   3   7   57.28    2.17
   2   3   7   63.96    3.09
  -3  -3  -7   22.78    2.69
  -3  -3  -7   23.11    2.69
   3   3   7   22.26    2.82
   3   3   7   29.20    2.47
  -4  -3  -7    7.37    1.87
  -4  -3  -7    6.89    1.65
  -4  -3  -7    5.37    1.73
   4   3   7    6.96    1.73
   4   3   7    8.22    2.24
  -5  -3  -7  140.08    5.08
  -5  -3  -7  136.79    5.03
  -5  -3  -7  140.72    4.94
   5   3   7  150.76    6.52
   5   3   7  155.16    6.10
  -6  -3  -7   19.19    3.27
   6   3   7   16.43    3.28
   6   3   7   14.00    3.66
  -7  -3  -7   87.60    8.93
   7   3   7   77.60    9.27
   7   3   7   84.05    7.82
   5  -4  -7   11.66    3.77
   5  -4  -7    4.49    4.63
   5  -4  -7    4.83    4.74
   5  -4  -7   13.68    3.69
   4  -4  -7    9.33    3.03
   4  -4  -7   11.96    3.43
   4  -4  -7   11.26    2.88
   4  -4  -7   13.25    4.21
   3  -4  -7   11.42    2.46
   3  -4  -7   11.64    2.52
   3  -4  -7   11.23    2.63
  -3   4   7    8.42    1.77
  -3   4   7    9.81    1.77
   2  -4  -7    4.17    2.07
   2  -4  -7    4.00    1.76
   2  -4  -7    6.76    1.76
   2  -4  -7    6.01    1.78
  -2   4   7    0.88    1.45
  -2   4   7    3.83    1.48
   1  -4  -7    1.29    1.33
   1  -4  -7    2.42    1.21
   1  -4  -7    0.76    1.34
   1  -4  -7    2.12    1.44
  -1   4   7    2.09    1.38
  -1   4   7    2.45    1.28
   0  -4  -7    1.78    1.03
   0  -4  -7    2.66    1.14
   0  -4  -7    5.07    1.38
   0   4   7    2.90    1.35
   0   4   7    2.32    1.11
  -1  -4  -7  167.16    5.48
  -1  -4  -7  167.69    5.26
   1   4   7  163.13    4.64
   1   4   7  167.63    5.47
   1   4   7  165.15    5.20
  -2  -4  -7   27.49    2.66
  -2  -4  -7   27.95    2.63
   2   4   7   26.98    2.29
   2   4   7   25.65    2.49
   2   4   7   25.59    1.90
  -3  -4  -7  157.65    5.43
  -3  -4  -7  153.95    5.37
   3   4   7  149.42    5.15
   3   4   7  149.20    5.56
  -4  -4  -7    1.03    1.72
  -4  -4  -7    3.83    1.83
   4   4   7    1.19    1.36
   4   4   7   -1.47    1.64
  -5  -4  -7  114.74    5.18
  -5  -4  -7  119.66    5.23
  -5  -4  -7  113.86    5.10
   5   4   7  127.10    6.38
   5   4   7  127.40    5.71
  -6  -4  -7   15.79    2.59
  -6  -4  -7   17.44    2.59
  -6  -4  -7   19.64    3.61
   6   4   7   22.29    4.18
   6   4   7   16.41    3.37
  -7  -4  -7   60.10    7.76
   7   4   7   58.58    5.98
   7   4   7   45.76    6.01
   5  -5  -7   -5.75    4.44
   5  -5  -7   12.78    5.07
   5  -5  -7    0.85    3.60
   5  -5  -7    1.92    4.53
   4  -5  -7   64.22    5.80
   4  -5  -7   82.49    5.51
   4  -5  -7   77.67    5.38
   4  -5  -7   72.29    5.87
   3  -5  -7    5.81    2.62
   3  -5  -7    6.20    2.55
   3  -5  -7    6.98    2.12
   3  -5  -7    6.99    2.29
  -3   5   7    2.39    1.38
  -3   5   7    5.60    1.46
   2  -5  -7  204.54    6.77
   2  -5  -7  210.78    6.41
   2  -5  -7  211.26    6.89
   2  -5  -7  206.65    6.63
  -2   5   7  209.46    5.98
  -2   5   7  191.06    5.87
   1  -5  -7    1.63    1.54
   1  -5  -7    0.00    1.31
   1  -5  -7   -1.28    1.18
  -1   5   7    3.29    1.48
  -1   5   7    0.34    1.21
   0  -5  -7  127.39    4.79
   0  -5  -7  128.81    4.56
   0  -5  -7  122.13    4.36
   0   5   7  129.71    4.50
   0   5   7  127.82    4.68
   0   5   7  129.76    4.56
  -1  -5  -7    1.47    1.31
  -1  -5  -7    0.58    1.22
   1   5   7    0.51    1.04
   1   5   7    0.20    1.06
   1   5   7    4.18    1.46
  -2  -5  -7   28.44    2.86
  -2  -5  -7   30.00    2.83
   2   5   7   32.93    2.57
   2   5   7   32.76    2.81
   2   5   7   29.33    2.24
  -3  -5  -7   51.17    3.53
  -3  -5  -7   42.72    3.44
   3   5   7   43.59    3.44
   3   5   7   42.55    3.02
  -4  -5  -7   49.58    3.99
  -4  -5  -7   59.80    4.20
   4   5   7   59.48    3.82
   4   5   7   58.41    4.35
  -5  -5  -7   -1.14    2.21
  -5  -5  -7    1.54    2.52
  -5  -5  -7    1.71    2.26
   5   5   7    1.67    2.08
   5   5   7    2.13    2.64
  -6  -5  -7    7.30    2.86
  -6  -5  -7    5.43    2.80
  -6  -5  -7    9.31    3.78
   6   5   7    8.16    2.81
   6   5   7    3.79    3.53
   5  -6  -7    5.56    4.05
   5  -6  -7    7.91    5.20
   5  -6  -7    3.03    3.85
   4  -6  -7   64.03    5.34
   4  -6  -7   66.90    5.31
   4  -6  -7   53.88    5.65
   4  -6  -7   60.86    6.07
   3  -6  -7   19.27    2.94
   3  -6  -7   21.54    3.17
   3  -6  -7   21.15    3.11
   2  -6  -7  111.83    4.72
   2  -6  -7  102.03    4.83
   2  -6  -7  101.07    5.85
   2  -6  -7  104.59    5.01
  -2   6   7  110.87    4.08
  -2   6   7  102.00    3.94
   1  -6  -7    0.35    1.59
   1  -6  -7    1.18    1.50
   1  -6  -7    0.95    1.70
  -1   6   7    0.19    1.56
  -1   6   7    1.13    1.35
  -1   6   7   -0.79    1.37
   0  -6  -7  118.00    4.52
   0  -6  -7  119.72    4.80
   0   6   7  122.96    4.48
   0   6   7  127.47    4.78
   0   6   7  116.68    4.61
  -1  -6  -7    8.63    1.82
  -1  -6  -7    8.15    1.65
   1   6   7    5.54    1.51
   1   6   7    7.84    1.83
   1   6   7    6.35    1.34
  -2  -6  -7  204.60    6.58
  -2  -6  -7  207.47    7.27
   2   6   7  193.63    7.53
   2   6   7  210.95    6.27
   2   6   7  210.78    6.17
  -3  -6  -7   21.76    3.21
  -3  -6  -7   23.63    3.32
   3   6   7   24.22    3.12
  -4  -6  -7  145.73    7.25
   4   6   7  164.79    6.59
   4   6   7  152.75    5.95
  -5  -6  -7   -1.99    2.53
  -5  -6  -7   -0.40    2.69
  -5  -6  -7   -0.28    2.65
   5   6   7    1.99    2.10
   5   6   7    1.97    2.97
  -6  -6  -7   42.32    5.28
  -6  -6  -7   32.99    4.25
  -6  -6  -7   42.74    5.82
   6   6   7   42.48    5.72
   6   6   7   29.91    4.66
   5  -7  -7   -3.36    6.15
   5  -7  -7    0.82    4.08
   5  -7  -7    5.44    4.06
   4  -7  -7   13.47    3.49
   4  -7  -7   22.07    4.60
   4  -7  -7    9.01    3.19
   4  -7  -7   16.90    3.50
   3  -7  -7   -1.39    2.53
   3  -7  -7    4.33    2.55
   3  -7  -7    1.19    2.25
   3  -7  -7    3.46    2.73
   2  -7  -7   11.30    2.52
   2  -7  -7   12.23    2.66
   2  -7  -7    9.81    2.43
  -2   7   7   13.80    1.76
  -2   7   7   13.43    1.80
   1  -7  -7    1.77    1.69
   1  -7  -7    1.01    1.54
   1  -7  -7    2.32    2.03
  -1   7   7    1.81    1.55
  -1   7   7   -1.12    1.52
  -1   7   7    1.72    1.55
   0  -7  -7   16.73    3.03
   0  -7  -7   20.84    2.60
   0   7   7   19.56    2.65
   0   7   7   21.14    2.85
   0   7   7   18.95    2.39
  -1  -7  -7    2.40    1.48
  -1  -7  -7    1.50    1.42
   1   7   7   -0.10    1.24
   1   7   7    2.67    1.72
   1   7   7    2.68    1.54
  -2  -7  -7  192.98    6.49
  -2  -7  -7  183.34    7.28
   2   7   7  191.03    6.11
   2   7   7  185.24    6.25
   2   7   7  192.67    6.69
  -3  -7  -7   28.83    3.66
  -3  -7  -7   35.50    3.74
   3   7   7   26.91    3.76
   3   7   7   34.75    3.21
  -4  -7  -7   18.04    2.74
   4   7   7   28.02    3.44
   4   7   7   23.82    3.24
  -5  -7  -7    1.38    2.57
  -5  -7  -7    0.50    2.97
   5   7   7   -2.34    2.93
   5   7   7    4.25    2.30
  -6  -7  -7   64.76    8.41
  -6  -7  -7   72.63    7.26
  -6  -7  -7   57.66    6.86
   6   7   7   88.48    6.89
   5  -8  -7    4.71    4.42
   5  -8  -7   10.63    4.49
   4  -8  -7    5.43    4.42
   4  -8  -7    4.91    4.68
   4  -8  -7   -1.21    3.15
   3  -8  -7   23.61    3.47
   3  -8  -7   18.06    2.96
   3  -8  -7   18.12    3.55
   3  -8  -7   22.66    3.71
   2  -8  -7    0.83    2.24
   2  -8  -7    1.00    2.19
   2  -8  -7    2.17    2.47
  -2   8   7   -1.83    1.23
  -2   8   7    1.58    1.23
   1  -8  -7   58.20    4.30
   1  -8  -7   48.30    4.12
  -1   8   7   48.24    3.43
  -1   8   7   54.76    4.35
  -1   8   7   50.96    3.47
   0  -8  -7   -0.12    1.77
   0  -8  -7    3.02    1.94
   0   8   7   -1.50    1.56
   0   8   7    2.08    1.63
   0   8   7   -1.22    1.68
  -1  -8  -7   36.43    3.51
  -1  -8  -7   37.12    3.86
   1   8   7   35.84    3.36
   1   8   7   34.03    3.38
  -2  -8  -7    5.32    2.06
  -2  -8  -7    2.52    1.66
   2   8   7    2.45    1.88
   2   8   7    2.96    1.79
   2   8   7    2.51    1.50
  -3  -8  -7    2.84    2.15
  -3  -8  -7    7.91    2.56
   3   8   7    2.80    2.07
   3   8   7    5.46    1.71
  -4  -8  -7   23.75    3.54
   4   8   7   13.12    2.31
   4   8   7   18.09    3.29
  -5  -8  -7   12.20    3.66
  -5  -8  -7   21.18    3.85
   5   8   7   15.25    2.75
   5   8   7    8.39    2.95
  -6  -8  -7   17.38    4.45
  -6  -8  -7    3.16    4.65
  -6  -8  -7   13.88    6.62
   6   8   7   14.27    4.90
   4  -9  -7    3.74    4.76
   4  -9  -7    4.31    3.82
   4  -9  -7   11.48    4.09
   3  -9  -7   30.84    4.15
   3  -9  -7   29.19    4.30
   3  -9  -7   25.37    3.54
   2  -9  -7   15.33    3.23
   2  -9  -7   13.83    4.23
   2  -9  -7   14.81    3.07
  -2   9   7   20.48    3.82
   1  -9  -7   96.54    5.60
   1  -9  -7   88.75    5.62
  -1   9   7   88.15    5.64
  -1   9   7   90.11    4.31
  -1   9   7   85.77    4.34
   0  -9  -7    2.04    2.41
   0  -9  -7    6.94    2.43
   0   9   7    3.60    1.97
   0   9   7    5.14    1.94
   0   9   7    0.66    2.13
  -1  -9  -7   61.28    4.66
  -1  -9  -7   57.86    4.60
   1   9   7   53.11    4.34
   1   9   7   53.90    4.40
  -2  -9  -7    4.25    2.37
  -2  -9  -7    7.49    2.47
   2   9   7    3.90    2.14
   2   9   7    8.18    2.28
   2   9   7    7.36    2.65
  -3  -9  -7   58.46    4.99
  -3  -9  -7   71.65    5.40
   3   9   7   61.22    5.11
   3   9   7   71.51    4.94
   3   9   7   67.76    5.28
  -4  -9  -7    1.26    3.06
  -4  -9  -7    4.40    2.92
   4   9   7    2.54    2.21
   4   9   7   -0.80    2.77
  -5  -9  -7   61.25    7.05
  -5  -9  -7   42.86    5.19
   5   9   7   65.21    5.77
   3 -10  -7   15.66    4.25
   3 -10  -7   19.87    4.07
   2 -10  -7   12.25    3.44
   2 -10  -7   12.96    3.60
  -2  10   7    7.17    3.48
   1 -10  -7    9.47    3.16
   1 -10  -7    3.71    3.06
  -1  10   7    6.81    2.13
  -1  10   7    9.78    3.00
  -1  10   7    7.54    2.28
   0 -10  -7    6.93    2.66
   0 -10  -7    8.19    2.74
   0  10   7    7.50    2.45
   0  10   7    3.02    2.36
   0  10   7    3.38    2.84
  -1 -10  -7   11.53    2.97
  -1 -10  -7   14.18    3.21
   1  10   7   10.25    2.55
   1  10   7    7.93    2.84
   1  10   7    9.86    2.62
  -2 -10  -7    7.81    2.67
  -2 -10  -7   13.04    2.59
   2  10   7    7.31    2.84
   2  10   7    6.82    2.74
   2  10   7    8.35    2.36
  -3 -10  -7   88.91    6.33
   3  10   7   82.50    5.85
   3  10   7   66.47    5.90
   3  10   7   70.89    5.97
  -4 -10  -7   24.28    4.34
  -4 -10  -7   22.52    4.02
   4  10   7   16.55    3.15
   4  10   7   25.78    4.58
  -5 -10  -7   47.73    6.27
   3 -11  -7   -1.39    4.67
   3 -11  -7    2.58    4.46
   2 -11  -7    5.99    4.03
   2 -11  -7   17.45    4.53
  -2  11   7   19.01    4.57
   1 -11  -7    4.71    3.96
   1 -11  -7    4.99    3.64
  -1  11   7    4.64    2.35
  -1  11   7    1.22    2.04
  -1  11   7    4.19    3.70
   0 -11  -7    8.26    3.57
   0 -11  -7    0.47    3.29
   0  11   7    1.63    2.62
   0  11   7   -0.78    3.16
   0  11   7    2.11    3.32
  -1 -11  -7    3.74    3.48
  -1 -11  -7    2.82    2.98
   1  11   7    0.81    3.03
   1  11   7    1.62    2.72
   1  11   7    4.32    3.05
  -2 -11  -7   10.20    3.69
   2  11   7    8.30    2.79
   2  11   7    6.02    3.43
   2  11   7    9.62    3.78
  -3 -11  -7   15.32    3.76
  -3 -11  -7   11.54    4.95
   3  11   7   16.83    3.83
   3  11   7    8.95    3.99
   3  11   7   11.50    4.02
  -4 -11  -7    2.14    4.56
   4  11   7   -2.24    4.25
   4  11   7   -0.67    3.46
   2 -12  -7   25.08    5.87
   2 -12  -7   24.01    5.74
   1 -12  -7    5.92    4.56
   1 -12  -7    4.67    4.76
  -1  12   7    7.59    4.39
   0 -12  -7   17.00    4.80
   0 -12  -7   12.46    4.63
   0  12   7   19.83    3.57
   0  12   7    7.31    4.07
  -1 -12  -7    8.82    4.38
  -1 -12  -7   12.74    4.76
   1  12   7   12.56    4.14
   1  12   7    9.47    3.61
   1  12   7    8.70    4.11
  -2 -12  -7   49.81    5.92
   2  12   7   57.54    6.84
   2  12   7   45.12    5.82
   3  12   7    9.62    5.78
   3  12   7    2.71    3.93
   1   6  -8   11.78    5.44
   1   6  -8    9.30    5.41
  -1  -6   8    7.28    4.34
   0   6  -8   49.06    5.62
   0   6  -8   53.11    5.90
   0   6  -8   58.31    5.75
   0  -6   8   54.82    5.68
   0  -6   8   53.75    7.24
  -1   6  -8    8.65    3.05
  -1   6  -8   14.57    4.16
   1  -6   8    9.55    4.56
   2  -6   8   39.31    8.46
   2  -6   8   26.55    5.26
  -2  -5   8   23.82    4.60
  -2  -5   8   30.05    5.04
   1   5  -8   25.44    4.50
   1   5  -8   24.53    4.67
  -1  -5   8   13.16    3.57
  -1  -5   8   27.27    4.05
   0   5  -8   23.29    4.11
   0   5  -8   21.01    3.07
   0   5  -8   17.81    4.25
   0  -5   8   12.93    3.20
   0  -5   8   17.46    4.20
   0  -5   8   18.41    4.19
  -1   5  -8    2.72    3.33
  -1   5  -8    5.68    3.38
   1  -5   8    2.96    3.63
   1  -5   8    7.58    3.54
   1  -5   8    5.73    2.16
  -2   5  -8   42.70    4.92
   2  -5   8   51.80    6.90
   2  -5   8   36.53    4.66
   3  -5   8   -2.16    3.63
   3  -5   8   -0.54    4.05
   3   4  -8   50.22    5.81
  -3  -4   8   32.27    4.87
  -3  -4   8   38.09    5.63
   2   4  -8   14.67    4.27
   2   4  -8   14.71    4.04
  -2  -4   8   13.60    3.83
  -2  -4   8    8.88    3.33
  -2  -4   8   16.44    3.66
   1   4  -8   24.86    3.97
   1   4  -8   27.22    4.21
  -1  -4   8   27.58    3.92
  -1  -4   8   22.25    3.52
  -1  -4   8   23.36    4.02
   0   4  -8   -1.31    2.97
   0   4  -8    2.04    2.95
   0  -4   8    5.57    3.15
   0  -4   8    3.68    2.20
   0  -4   8    1.54    3.02
  -1   4  -8   48.57    5.08
  -1   4  -8   50.47    5.75
   1  -4   8   50.90    5.43
   1  -4   8   33.59    3.98
  -2   4  -8    0.55    2.57
  -2   4  -8   -1.40    2.54
   2  -4   8   -1.12    2.84
   2  -4   8    1.69    2.70
   3  -4   8   20.61    3.68
   3  -4   8   25.35    4.12
   4  -4   8    1.48    3.30
   4  -4   8    8.53    4.21
  -4  -3   8   13.69    5.47
   3   3  -8  101.81    7.41
   3   3  -8   83.18    7.12
  -3  -3   8   90.54    8.01
  -3  -3   8   85.26    7.21
  -3  -3   8   97.25    7.60
   2   3  -8   -2.04    3.17
   2   3  -8    0.06    3.09
  -2  -3   8   -0.30    3.14
  -2  -3   8    1.29    2.88
  -2  -3   8   -3.14    2.71
   1   3  -8   37.65    4.70
   1   3  -8   33.24    4.78
  -1  -3   8   46.88    4.77
  -1  -3   8   30.86    4.51
   0   3  -8   -3.88    2.26
   0   3  -8    0.20    2.48
   0  -3   8    1.91    2.21
   0  -3   8   -3.31    2.39
   0  -3   8    2.00    1.84
  -1   3  -8  116.19    6.08
  -1   3  -8  129.15    5.95
   1  -3   8  129.17    6.17
   1  -3   8  130.16    6.44
  -2   3  -8   12.98    2.58
  -2   3  -8    8.26    2.44
   2  -3   8    5.63    2.60
   2  -3   8    5.90    2.51
  -3   3  -8  142.12    4.32
   3  -3   8  135.97    6.47
   3  -3   8  155.67    7.04
   4  -3   8   20.40    3.60
   4  -3   8   23.15    4.06
   5  -3   8   21.90    4.49
   5  -3   8   14.12    3.83
   4   2  -8    1.85    3.43
  -4  -2   8   11.76    4.52
  -4  -2   8    3.60    4.15
  -4  -2   8   10.16    4.52
   3   2  -8   11.04    3.47
   3   2  -8   14.71    3.77
  -3  -2   8    9.74    3.53
  -3  -2   8   12.25    3.89
  -3  -2   8   17.32    4.02
   2   2  -8   -1.17    2.10
   2   2  -8    2.57    2.67
  -2  -2   8   -1.85    2.58
  -2  -2   8   -1.16    2.29
  -2  -2   8    3.45    2.50
   1   2  -8   28.41    4.09
   1   2  -8   29.87    3.48
  -1  -2   8   29.86    3.62
  -1  -2   8   27.08    3.16
  -1  -2   8   27.63    3.31
   0   2  -8    1.43    1.98
   0   2  -8    0.40    2.18
   0  -2   8   -0.13    1.72
   0  -2   8    0.33    1.92
  -1   2  -8   81.54    4.69
  -1   2  -8   80.11    6.10
   1  -2   8   88.19    5.07
   1  -2   8   76.90    4.65
  -2   2  -8    2.10    2.05
  -2   2  -8   -0.64    1.93
   2  -2   8    1.56    1.99
   2  -2   8    0.64    1.96
  -3   2  -8  106.93    4.25
  -3   2  -8  109.45    4.32
   3  -2   8  108.75    5.33
   3  -2   8  105.07    5.84
   4  -2   8    0.32    2.75
   4  -2   8   -0.55    2.78
   5  -2   8   74.59    6.25
   5  -2   8   73.07    7.04
   4   1  -8   38.80    4.88
   4   1  -8   41.04    5.43
   4   1  -8   28.56    4.29
  -4  -1   8   29.51    4.32
  -4  -1   8   29.63    4.69
  -4  -1   8   29.94    4.58
   3   1  -8    0.97    2.69
   3   1  -8    0.84    3.24
  -3  -1   8   -0.36    2.69
  -3  -1   8    5.53    2.83
  -3  -1   8   -3.25    2.78
   2   1  -8   78.09    5.17
   2   1  -8   69.02    4.71
   2   1  -8   70.16    5.80
  -2  -1   8   68.40    4.74
  -2  -1   8   70.04    5.08
  -2  -1   8   68.03    5.22
   1   1  -8    2.70    2.24
   1   1  -8   -0.44    1.70
   1   1  -8    3.76    2.17
  -1  -1   8   -1.18    1.73
  -1  -1   8   -1.01    1.85
   0   1  -8   71.65    5.67
   0   1  -8   70.22    4.30
   0  -1   8   76.31    4.21
   0  -1   8   77.41    4.48
  -1   1  -8   12.21    2.22
  -1   1  -8   10.10    2.25
   1  -1   8   13.38    2.38
  -2   1  -8   32.19    3.47
  -2   1  -8   26.39    3.38
   2  -1   8   30.04    3.49
   2  -1   8   28.70    3.57
  -3   1  -8   -1.34    1.68
  -3   1  -8   -0.85    1.65
   3  -1   8    3.80    2.23
   3  -1   8   -1.11    1.88
   4  -1   8   10.89    4.41
   4  -1   8   10.88    2.80
   5  -1   8   32.81    3.99
   5  -1   8   50.89    5.42
   6  -1   8   10.35    4.65
   6  -1   8   21.85    4.16
   5   0  -8    2.44    4.49
   5   0  -8    6.65    6.82
  -5   0   8    4.03    4.57
  -5   0   8    0.28    4.22
   4   0  -8   19.27    4.01
   4   0  -8   18.56    3.73
   4   0  -8   21.12    5.17
  -4   0   8   12.30    3.54
  -4   0   8   19.48    3.81
   3   0  -8   12.23    3.43
   3   0  -8   16.20    2.91
   3   0  -8   13.84    2.91
  -3   0   8    9.45    2.95
  -3   0   8   20.06    3.47
   2   0  -8  224.80    7.65
   2   0  -8  195.72    7.04
   2   0  -8  206.18    8.06
  -2   0   8  208.61    7.42
  -2   0   8  211.33    7.46
   1   0  -8   -0.58    1.51
   1   0  -8    0.39    1.92
   1   0  -8    5.70    2.13
  -1   0   8    2.10    1.61
  -1   0   8    1.49    2.35
   0   0  -8   59.31    2.51
   0   0  -8   58.23    3.80
   0   0  -8   64.54    4.03
   0   0  -8   59.30    3.27
   0   0   8   58.77    3.73
   0   0   8   62.89    3.79
  -1   0  -8   21.33    2.18
  -1   0  -8   18.35    2.20
  -1   0  -8   21.91    3.10
   1   0   8   22.77    2.98
   1   0   8   21.42    2.78
  -2   0  -8   54.06    3.70
  -2   0  -8   58.37    3.67
   2   0   8   58.15    3.74
   2   0   8   57.30    3.94
  -3   0  -8    5.83    1.96
  -3   0  -8    8.26    2.01
   3   0   8    7.97    2.25
   3   0   8    6.59    2.15
  -4   0  -8  174.92    4.90
  -4   0  -8  176.20    4.91
   4   0   8  178.70    7.08
   4   0   8  160.39    8.16
   5   0   8    9.69    3.17
   5   0   8   13.35    3.06
   6   0   8   21.37    4.60
   6   0   8   15.16    3.85
   5  -1  -8   16.58    5.87
   5  -1  -8   12.59    4.65
   5  -1  -8    2.18    5.34
   4  -1  -8   13.06    4.14
   4  -1  -8    7.52    3.51
   4  -1  -8    6.43    3.49
  -4   1   8    9.08    3.34
  -4   1   8   10.22    3.25
   3  -1  -8    6.37    2.66
   3  -1  -8    8.95    3.02
   3  -1  -8   12.19    3.27
  -3   1   8    7.79    2.79
  -3   1   8    6.25    2.42
   2  -1  -8   -1.76    1.73
   2  -1  -8    0.94    2.02
   2  -1  -8   -3.05    2.12
  -2   1   8   -1.95    2.37
  -2   1   8   -3.05    1.80
   1  -1  -8   34.52    3.41
   1  -1  -8   25.83    3.19
   1  -1  -8   28.79    3.08
   1  -1  -8   28.95    2.63
  -1   1   8   31.02    3.20
  -1   1   8   29.65    3.24
   0  -1  -8   43.12    3.84
   0  -1  -8   41.42    2.18
   0  -1  -8   43.26    3.49
   0  -1  -8   44.64    2.93
   0   1   8   46.06    3.26
  -1  -1  -8    2.61    1.68
  -1  -1  -8   -0.56    1.40
  -1  -1  -8    1.85    1.21
   1   1   8    1.81    1.27
  -2  -1  -8   96.70    2.79
  -2  -1  -8  100.39    4.45
  -2  -1  -8  103.76    4.54
   2   1   8   98.64    4.41
  -3  -1  -8   28.76    3.20
  -3  -1  -8   33.98    3.14
   3   1   8   29.57    3.23
   3   1   8   32.15    3.66
  -4  -1  -8  190.11    5.69
  -4  -1  -8  185.00    5.64
   4   1   8  180.98    7.46
   4   1   8  183.80    6.99
   5   1   8   14.19    2.86
   5   1   8   12.89    3.21
   6   1   8   32.84    4.58
   6   1   8   37.76    4.30
   5  -2  -8    9.33    4.71
   5  -2  -8   16.79    5.28
   5  -2  -8    2.74    4.39
   5  -2  -8    6.98    5.33
  -5   2   8   12.71    3.32
  -5   2   8    8.40    3.10
   4  -2  -8   -1.70    2.88
   4  -2  -8   -0.73    3.64
   4  -2  -8   -1.46    3.35
   4  -2  -8    5.70    3.72
  -4   2   8    0.28    2.71
  -4   2   8    3.33    2.80
   3  -2  -8   96.90    5.77
   3  -2  -8   97.64    5.57
   3  -2  -8  104.42    5.82
   3  -2  -8   87.80    5.23
  -3   2   8   90.23    5.13
  -3   2   8   92.63    5.63
   2  -2  -8    0.90    1.71
   2  -2  -8    1.05    2.25
   2  -2  -8    2.49    1.76
   2  -2  -8   -1.64    2.15
  -2   2   8   -0.69    1.91
  -2   2   8    2.01    1.95
   1  -2  -8    6.35    1.65
   1  -2  -8    4.08    1.91
   1  -2  -8    5.75    1.62
   1  -2  -8    5.47    1.91
  -1   2   8    3.81    1.64
  -1   2   8    6.82    1.86
   0  -2  -8   -0.96    1.42
   0  -2  -8   -0.37    0.98
   0  -2  -8    1.24    1.50
   0  -2  -8   -0.46    1.21
   0   2   8    1.92    1.54
   0   2   8    0.39    1.40
  -1  -2  -8   19.53    2.11
  -1  -2  -8   18.22    2.53
  -1  -2  -8   19.42    2.72
   1   2   8   19.56    2.65
   1   2   8   20.01    2.46
  -2  -2  -8   46.05    3.27
  -2  -2  -8   50.30    3.45
  -2  -2  -8   46.17    2.25
   2   2   8   45.33    3.89
   2   2   8   43.71    3.27
  -3  -2  -8   14.13    1.41
  -3  -2  -8   17.85    2.37
  -3  -2  -8   14.99    2.32
   3   2   8   14.34    2.38
   3   2   8   17.23    2.37
  -4  -2  -8   -0.53    1.83
  -4  -2  -8    3.56    1.81
   4   2   8    0.14    1.99
   4   2   8   -2.62    2.94
  -5  -2  -8   -1.01    1.68
  -5  -2  -8    2.91    1.75
   5   2   8    2.44    2.68
   5   2   8    0.55    2.19
   6   2   8   30.62    4.60
   6   2   8   38.51    5.44
   5  -3  -8   43.07    6.06
   5  -3  -8   48.24    5.66
   5  -3  -8   48.19    5.69
   5  -3  -8   29.60    5.39
   4  -3  -8   -0.66    3.37
   4  -3  -8    9.73    3.47
   4  -3  -8    1.11    4.09
   4  -3  -8   -0.83    3.06
  -4   3   8    2.83    2.39
  -4   3   8    1.38    2.42
   3  -3  -8   41.03    4.75
   3  -3  -8   23.25    3.49
   3  -3  -8   38.23    4.16
   3  -3  -8   34.48    4.77
  -3   3   8   25.95    3.76
  -3   3   8   32.95    3.87
   2  -3  -8   -0.59    1.81
   2  -3  -8    0.55    2.20
   2  -3  -8    0.22    1.77
   2  -3  -8    0.41    2.22
  -2   3   8    0.40    1.78
   1  -3  -8  125.05    4.64
   1  -3  -8  132.22    5.31
   1  -3  -8  130.28    5.27
  -1   3   8  136.55    5.25
  -1   3   8  138.85    5.08
   0  -3  -8   17.52    2.18
   0  -3  -8   21.63    2.53
   0  -3  -8   23.60    1.96
   0  -3  -8   24.65    2.55
   0   3   8   21.63    2.57
   0   3   8   23.14    2.70
  -1  -3  -8  124.33    4.65
  -1  -3  -8  121.16    4.75
  -1  -3  -8  118.19    4.12
   1   3   8  118.11    4.62
   1   3   8  115.92    4.85
  -2  -3  -8   25.90    2.82
  -2  -3  -8   18.57    2.73
   2   3   8   19.48    2.51
   2   3   8   20.79    2.95
  -3  -3  -8  183.22    6.09
  -3  -3  -8  168.38    5.98
   3   3   8  185.00    6.05
   3   3   8  184.86    6.53
  -4  -3  -8    1.07    1.53
  -4  -3  -8   -0.55    1.83
  -4  -3  -8    0.33    1.88
   4   3   8   -0.77    1.49
   4   3   8   -0.51    1.98
  -5  -3  -8   35.87    3.85
  -5  -3  -8   38.15    3.72
  -5  -3  -8   35.45    3.21
   5   3   8   50.72    5.23
   5   3   8   52.81    4.52
  -6  -3  -8    7.08    2.73
   6   3   8   13.78    3.54
   6   3   8   14.19    4.03
   5  -4  -8   21.36    7.63
   5  -4  -8   18.59    5.97
   5  -4  -8   20.82    5.01
   5  -4  -8   26.55    4.76
   4  -4  -8    2.63    3.74
   4  -4  -8   11.21    4.31
   4  -4  -8    6.30    3.42
   4  -4  -8    7.19    3.20
  -4   4   8   12.31    3.56
  -4   4   8    9.57    2.16
   3  -4  -8    8.10    2.94
   3  -4  -8   13.86    2.76
   3  -4  -8    9.39    2.84
   3  -4  -8    9.02    2.89
  -3   4   8    9.54    2.19
  -3   4   8    6.24    2.11
   2  -4  -8    0.13    1.75
   2  -4  -8    0.27    1.90
   2  -4  -8   -0.04    1.78
  -2   4   8   -1.31    1.84
  -2   4   8    1.46    1.74
   1  -4  -8  169.92    5.92
   1  -4  -8  168.18    5.54
   1  -4  -8  172.87    6.05
  -1   4   8  171.79    5.91
  -1   4   8  173.56    5.78
   0  -4  -8    9.18    1.64
   0  -4  -8    5.15    1.58
   0  -4  -8    6.23    1.84
   0   4   8    7.05    1.58
   0   4   8    8.36    1.91
  -1  -4  -8  152.91    5.60
  -1  -4  -8  161.15    5.45
   1   4   8  164.05    5.67
   1   4   8  153.89    4.65
   1   4   8  162.74    5.42
  -2  -4  -8   77.20    4.06
  -2  -4  -8   80.27    4.12
   2   4   8   77.46    3.72
   2   4   8   72.30    2.83
  -3  -4  -8   -3.02    1.63
  -3  -4  -8   -3.26    1.72
   3   4   8    0.33    1.70
   3   4   8    0.45    1.04
   3   4   8    1.05    1.26
  -4  -4  -8   24.37    2.93
  -4  -4  -8   27.13    3.79
   4   4   8   34.27    4.07
   4   4   8   37.13    3.41
  -5  -4  -8  159.07    5.73
  -5  -4  -8  180.61    6.40
  -5  -4  -8  159.50    6.22
   5   4   8  161.69    6.73
   5   4   8  160.83    7.58
  -6  -4  -8    9.49    3.38
  -6  -4  -8    7.95    2.56
  -6  -4  -8    7.08    2.66
   6   4   8    5.82    3.05
   6   4   8    3.34    3.87
   5  -5  -8    5.58    4.33
   5  -5  -8   -1.00    4.46
   5  -5  -8    4.99    5.96
   4  -5  -8   20.16    3.91
   4  -5  -8    6.63    3.64
   4  -5  -8   12.12    3.54
   4  -5  -8   16.16    3.87
   3  -5  -8    3.88    2.67
   3  -5  -8   -1.02    2.57
   3  -5  -8    0.21    2.39
   3  -5  -8    1.99    2.54
  -3   5   8    0.76    1.84
  -3   5   8   -0.17    1.83
   2  -5  -8   57.55    4.30
   2  -5  -8   51.08    4.11
   2  -5  -8   52.41    4.07
   2  -5  -8   57.31    4.35
  -2   5   8   57.26    3.78
  -2   5   8   53.63    3.75
   1  -5  -8   12.81    2.18
   1  -5  -8   10.38    2.78
   1  -5  -8   10.86    2.39
   1  -5  -8    7.54    2.02
  -1   5   8   10.04    1.98
  -1   5   8    7.43    1.88
   0  -5  -8   -0.17    1.46
   0  -5  -8    0.73    1.28
   0  -5  -8    0.41    2.14
   0   5   8    0.34    1.37
   0   5   8    1.08    1.45
  -1  -5  -8    5.75    2.09
  -1  -5  -8    5.14    1.69
   1   5   8    6.32    1.57
   1   5   8    3.78    1.64
   1   5   8    4.96    1.50
  -2  -5  -8    8.92    1.92
   2   5   8    6.86    1.51
   2   5   8    6.63    1.78
   2   5   8    7.99    1.82
  -3  -5  -8   24.13    3.43
  -3  -5  -8   28.29    3.45
   3   5   8   24.96    2.51
   3   5   8   27.88    3.21
   3   5   8   28.20    2.99
  -4  -5  -8    7.83    2.44
  -4  -5  -8    6.64    2.32
   4   5   8    7.08    2.04
   4   5   8    5.14    2.25
  -5  -5  -8   33.62    4.60
  -5  -5  -8   34.61    5.21
  -5  -5  -8   39.93    4.55
   5   5   8   38.35    5.24
   5   5   8   35.57    4.34
  -6  -5  -8    7.51    3.38
  -6  -5  -8    8.15    3.22
  -6  -5  -8    9.23    4.38
   6   5   8   12.22    4.53
   6   5   8    7.17    3.58
   5  -6  -8   11.16    4.76
   5  -6  -8   11.48    6.88
   5  -6  -8    0.89    4.73
   4  -6  -8   45.23    5.59
   4  -6  -8   55.49    6.08
   4  -6  -8   53.06    6.11
   3  -6  -8    6.05    2.84
   3  -6  -8   11.13    3.54
   3  -6  -8    3.72    2.57
   3  -6  -8    6.41    2.90
  -3   6   8    2.97    1.67
  -3   6   8    5.35    1.79
   2  -6  -8   50.73    4.40
   2  -6  -8   48.83    4.19
   2  -6  -8   47.60    4.00
   2  -6  -8   50.57    4.29
  -2   6   8   44.32    3.61
  -2   6   8   53.75    3.65
   1  -6  -8   11.80    2.40
   1  -6  -8    9.90    2.00
   1  -6  -8    9.87    2.18
  -1   6   8   11.21    2.07
  -1   6   8    7.86    1.99
   0  -6  -8   89.64    4.54
   0  -6  -8   95.08    4.47
   0   6   8   97.02    4.51
   0   6   8   92.40    4.27
   0   6   8   94.36    4.25
  -1  -6  -8   -0.91    1.49
  -1  -6  -8    2.11    1.51
   1   6   8   -1.64    1.38
   1   6   8    0.02    1.27
  -2  -6  -8  147.78    6.76
  -2  -6  -8  158.65    5.97
   2   6   8  156.83    7.08
   2   6   8  152.90    5.19
   2   6   8  164.43    6.17
  -3  -6  -8    2.13    2.06
  -3  -6  -8   -0.24    1.96
   3   6   8    1.11    1.51
   3   6   8    0.81    1.62
  -4  -6  -8   88.99    5.46
  -4  -6  -8   79.95    5.34
   4   6   8   84.63    4.75
   4   6   8   87.42    5.23
  -5  -6  -8    6.26    2.93
  -5  -6  -8    3.92    2.99
  -5  -6  -8    5.45    2.84
   5   6   8    2.46    3.04
   5   6   8    2.92    2.46
  -6  -6  -8   14.43    4.45
  -6  -6  -8   12.51    3.75
  -6  -6  -8    6.84    3.77
   6   6   8   13.88    3.72
   6   6   8    7.86    4.19
   5  -7  -8    0.19    4.96
   5  -7  -8   -9.90    4.64
   4  -7  -8   59.37    6.45
   4  -7  -8   55.78    7.14
   4  -7  -8   51.98    6.34
   4  -7  -8   51.71    7.04
   3  -7  -8    0.08    2.81
   3  -7  -8   -0.79    2.97
   3  -7  -8   -0.94    2.67
   3  -7  -8    2.28    3.16
   2  -7  -8   39.44    4.40
   2  -7  -8   42.54    4.00
   2  -7  -8   44.30    4.58
  -2   7   8   43.55    3.49
  -2   7   8   39.70    3.44
   1  -7  -8    0.81    2.00
   1  -7  -8    0.70    2.00
   1  -7  -8   -2.56    2.03
  -1   7   8   -0.32    1.71
  -1   7   8    1.59    1.85
  -1   7   8    1.84    1.90
   0  -7  -8   73.32    5.74
   0  -7  -8   74.81    4.28
   0   7   8   78.06    4.48
   0   7   8   86.91    4.52
   0   7   8   80.24    4.18
  -1  -7  -8    8.31    2.14
  -1  -7  -8   14.73    2.39
   1   7   8   12.84    2.51
   1   7   8   13.46    2.03
   1   7   8   13.17    2.23
  -2  -7  -8  239.18    7.77
  -2  -7  -8  252.75    7.98
   2   7   8  244.38    7.35
   2   7   8  244.77    8.02
   2   7   8  254.81    7.50
  -3  -7  -8   17.40    2.90
  -3  -7  -8   15.49    2.80
   3   7   8   12.94    2.01
   3   7   8   16.85    2.57
   3   7   8   16.54    2.71
  -4  -7  -8   63.95    5.35
  -4  -7  -8   44.77    4.76
   4   7   8   49.47    5.12
   4   7   8   50.83    4.19
  -5  -7  -8    4.48    3.39
  -5  -7  -8    5.64    3.19
   5   7   8    6.95    3.11
   5   7   8    3.36    2.80
  -6  -7  -8   69.77    7.45
  -6  -7  -8   51.06    5.60
  -6  -7  -8   56.40    6.83
   6   7   8   51.98    5.74
   4  -8  -8    0.94    4.52
   4  -8  -8    7.89    4.14
   3  -8  -8    5.02    3.26
   3  -8  -8    1.50    3.57
   3  -8  -8    1.43    2.89
   3  -8  -8    0.21    3.53
   2  -8  -8    6.15    3.10
   2  -8  -8    0.96    2.61
   2  -8  -8    3.77    2.62
  -2   8   8    4.04    1.79
  -2   8   8    3.65    1.91
   1  -8  -8   18.88    3.03
   1  -8  -8   22.98    3.06
  -1   8   8   13.27    2.72
  -1   8   8   18.41    2.62
  -1   8   8   18.74    2.46
   0  -8  -8   42.14    4.10
   0  -8  -8   47.92    4.27
   0   8   8   41.15    4.12
   0   8   8   44.68    3.71
   0   8   8   42.86    5.95
  -1  -8  -8    1.96    1.96
  -1  -8  -8   -0.77    1.81
   1   8   8    3.60    2.02
   1   8   8    1.77    2.13
   1   8   8   -0.42    2.01
  -2  -8  -8   57.29    4.44
  -2  -8  -8   54.56    4.41
   2   8   8   49.42    4.04
   2   8   8   54.17    4.73
   2   8   8   59.50    3.94
  -3  -8  -8    3.67    2.32
  -3  -8  -8    2.89    2.34
   3   8   8    0.56    3.35
   3   8   8    2.58    1.73
   3   8   8    4.70    2.17
  -4  -8  -8   20.51    3.33
   4   8   8   29.52    4.21
   4   8   8   16.98    2.81
  -5  -8  -8    2.49    3.61
  -5  -8  -8    0.07    3.52
   5   8   8   -3.52    3.42
   5   8   8    2.22    2.78
   4  -9  -8    2.65    8.30
   4  -9  -8   -0.71    4.48
   4  -9  -8   -1.93    4.56
   3  -9  -8    9.55    4.30
   3  -9  -8   18.84    3.98
   3  -9  -8   12.21    4.41
   3  -9  -8   15.26    3.92
   2  -9  -8   -3.79    2.90
   2  -9  -8    2.25    3.04
   2  -9  -8    2.77    3.22
  -2   9   8    3.81    1.59
  -2   9   8   -0.94    1.56
   1  -9  -8   45.21    5.16
   1  -9  -8   57.41    5.28
  -1   9   8   48.98    4.11
  -1   9   8   36.83    4.81
  -1   9   8   41.06    4.04
   0  -9  -8    4.69    2.59
   0  -9  -8    0.47    2.69
   0   9   8    3.66    2.57
   0   9   8    5.21    2.21
  -1  -9  -8   55.05    5.06
  -1  -9  -8   49.69    4.66
   1   9   8   50.82    4.46
   1   9   8   52.22    4.41
   1   9   8   43.10    4.89
  -2  -9  -8   18.15    3.20
  -2  -9  -8   19.46    3.10
   2   9   8   10.99    2.86
   2   9   8   13.32    2.91
   2   9   8   14.28    2.75
  -3  -9  -8    2.03    2.53
  -3  -9  -8    7.30    2.91
   3   9   8    3.71    2.60
   3   9   8    1.44    2.38
   3   9   8    3.64    2.49
  -4  -9  -8    2.10    3.46
   4   9   8   -0.55    2.86
   4   9   8    1.92    2.29
  -5  -9  -8   36.97    5.29
  -5  -9  -8   57.71    7.18
   5   9   8   49.22    6.13
   3 -10  -8   13.59    4.52
   3 -10  -8   25.88    5.90
   3 -10  -8   21.08    4.97
   2 -10  -8   -2.17    3.58
   2 -10  -8    7.23    3.73
   1 -10  -8   70.15    6.68
   1 -10  -8   82.42    6.37
  -1  10   8   84.50    6.66
  -1  10   8   75.34    4.77
  -1  10   8   78.78    4.92
   0 -10  -8    9.47    3.45
   0 -10  -8   11.71    3.17
   0  10   8    9.99    2.82
   0  10   8    8.10    3.07
   0  10   8    8.14    2.99
  -1 -10  -8   48.36    5.58
  -1 -10  -8   47.10    5.82
   1  10   8   35.24    4.98
   1  10   8   41.06    4.90
   1  10   8   42.29    4.79
  -2 -10  -8    1.97    2.63
  -2 -10  -8    7.46    2.86
   2  10   8    4.29    2.66
   2  10   8    4.20    2.99
   2  10   8   -1.59    2.70
  -3 -10  -8   71.88    6.39
  -3 -10  -8   76.99    6.46
   3  10   8   74.92    6.16
   3  10   8   59.41    6.34
   3  10   8   74.25    5.61
  -4 -10  -8    6.80    3.90
  -4 -10  -8    6.67    3.97
   4  10   8    6.53    2.85
   4  10   8    1.40    3.27
   2 -11  -8    3.45    4.44
   2 -11  -8   -6.09    4.51
  -2  11   8    4.06    4.26
   1 -11  -8   -1.54    4.03
   1 -11  -8   14.68    4.37
  -1  11   8   11.19    3.81
  -1  11   8    6.10    2.72
  -1  11   8    6.58    2.62
   0 -11  -8    3.03    3.45
   0 -11  -8    6.11    4.13
   0  11   8    1.55    4.38
   0  11   8    4.69    3.25
   0  11   8    1.57    3.37
  -1 -11  -8   11.46    3.64
  -1 -11  -8   15.04    4.15
   1  11   8    2.46    3.44
   1  11   8    4.90    3.04
   1  11   8    9.47    3.41
  -2 -11  -8   -0.81    3.10
  -2 -11  -8    8.72    3.23
   2  11   8   -1.21    2.78
   2  11   8    1.21    3.25
   2  11   8    1.96    3.45
  -3 -11  -8   69.30    7.06
   3  11   8   54.66    7.53
   3  11   8   67.49    6.42
   3  11   8   57.71    7.13
   4  11   8    3.68    4.56
   1 -12  -8   18.94    5.71
   1 -12  -8   12.28    5.26
  -1  12   8   17.83    6.72
   0 -12  -8   25.83    7.54
   0 -12  -8   22.02    5.12
   0  12   8   20.34    4.63
   0  12   8   22.62    4.38
   0  12   8   14.78    3.94
  -1 -12  -8   -2.41    4.31
   1  12   8   -1.64    3.56
   1  12   8   -0.46    3.99
   1  12   8   10.57    4.40
  -2 -12  -8   18.10    4.70
   2  12   8   12.80    4.07
   2  12   8   11.68    4.58
   2  12   8   17.03    4.93
   0   5  -9   71.76    8.08
   0   5  -9   60.80    7.75
   0   5  -9   68.61    8.40
   0  -5   9   47.75    6.98
   0  -5   9   54.22    7.22
  -1   5  -9   42.00    5.05
  -1   5  -9   39.27    5.24
   1  -5   9   26.20    5.06
   2  -5   9    6.89    4.56
   2   4  -9   11.50    5.01
  -2  -4   9   17.84    4.81
   1   4  -9   -0.02    4.23
   1   4  -9   -0.48    4.31
  -1  -4   9    6.34    3.49
  -1  -4   9    2.41    4.03
   0   4  -9   14.86    4.35
   0   4  -9    8.02    3.80
   0   4  -9   12.74    2.41
   0  -4   9   11.36    4.06
   0  -4   9   10.40    3.17
   0  -4   9   10.96    4.08
  -1   4  -9    4.00    3.67
  -1   4  -9   -0.23    3.48
   1  -4   9   -6.37    3.79
   1  -4   9   -1.76    3.68
  -2   4  -9   21.16    3.84
  -2   4  -9   24.70    3.73
   2  -4   9   21.81    4.35
   2  -4   9    9.51    3.92
   3  -4   9    0.60    3.61
   3  -4   9    0.74    4.43
  -3  -3   9   75.92    9.01
  -3  -3   9   93.28    8.72
   2   3  -9    0.15    4.08
   2   3  -9   -4.89    3.75
  -2  -3   9   -2.70    3.98
  -2  -3   9    5.02    3.60
  -2  -3   9    2.96    3.85
   1   3  -9   14.95    3.58
   1   3  -9   15.64    3.97
  -1  -3   9   27.07    3.75
  -1  -3   9   17.83    3.64
  -1  -3   9   18.90    3.98
   0   3  -9    1.40    3.16
   0   3  -9    1.81    3.07
   0  -3   9   -4.09    2.74
   0  -3   9   -0.62    2.84
  -1   3  -9  102.33    6.21
  -1   3  -9   89.91    6.48
   1  -3   9   96.60    6.69
   1  -3   9   89.53    6.37
  -2   3  -9    7.63    3.12
  -2   3  -9    2.83    3.38
   2  -3   9    2.04    2.94
   2  -3   9    2.26    3.22
  -3   3  -9   25.38    3.66
  -3   3  -9   28.35    3.93
   3  -3   9   29.64    4.74
   3  -3   9   25.82    3.89
   4  -3   9   -1.98    4.08
   4  -3   9   -3.39    3.82
   3   2  -9   18.85    4.43
  -3  -2   9   23.90    5.15
  -3  -2   9   20.84    4.78
  -3  -2   9   26.78    4.63
   2   2  -9    0.32    3.21
   2   2  -9    4.21    3.22
  -2  -2   9    2.49    3.40
  -2  -2   9   -4.10    3.22
  -2  -2   9    0.73    3.04
   1   2  -9   65.27    5.61
   1   2  -9   70.71    5.73
  -1  -2   9   58.16    5.65
  -1  -2   9   64.67    5.56
   0   2  -9    2.80    2.84
   0   2  -9    3.27    2.65
   0  -2   9   -2.09    2.32
   0  -2   9    4.38    2.46
  -1   2  -9  159.63    6.84
  -1   2  -9  162.61    6.61
   1  -2   9  150.24    6.67
   1  -2   9  161.79    7.19
  -2   2  -9   31.21    3.86
  -2   2  -9   37.02    4.69
   2  -2   9   38.49    5.06
   2  -2   9   27.43    3.69
  -3   2  -9   95.28    4.85
  -3   2  -9   92.55    4.85
   3  -2   9   88.90    6.77
   3  -2   9   78.26    5.92
   4  -2   9   -3.13    3.31
   4  -2   9    0.83    2.93
   5  -2   9   18.97    4.61
   5  -2   9   22.51    5.39
   4   1  -9   11.42    7.17
  -4  -1   9   18.17    5.32
  -4  -1   9    9.36    5.12
   3   1  -9   22.21    3.87
   3   1  -9   19.72    4.88
   3   1  -9   14.45    3.48
  -3  -1   9   14.51    3.83
  -3  -1   9   10.96    3.76
   2   1  -9    0.77    2.65
   2   1  -9    2.18    3.29
   2   1  -9    4.04    3.07
  -2  -1   9    1.80    3.10
  -2  -1   9    1.83    2.92
   1   1  -9   58.70    5.00
   1   1  -9   69.52    5.28
   1   1  -9   48.72    4.46
  -1  -1   9   56.67    4.98
  -1  -1   9   48.71    4.70
   0   1  -9   11.83    2.86
   0   1  -9   10.84    2.60
   0  -1   9   10.76    2.37
   0  -1   9   11.01    2.27
  -1   1  -9  109.85    5.37
  -1   1  -9  111.61    5.72
   1  -1   9  106.80    5.63
   1  -1   9   98.62    5.35
  -2   1  -9    5.54    2.42
  -2   1  -9   -0.82    2.84
   2  -1   9    2.11    2.32
   2  -1   9    0.13    2.32
  -3   1  -9   27.50    3.92
  -3   1  -9   28.18    4.02
   3  -1   9   20.99    3.38
   3  -1   9   31.48    3.72
   4  -1   9    1.27    3.30
   4  -1   9    5.41    3.08
   5  -1   9   29.57    4.51
   4   0  -9   10.35    5.52
   4   0  -9   12.81    4.32
  -4   0   9   21.91    4.89
  -4   0   9   13.17    4.47
   3   0  -9    4.31    3.24
   3   0  -9   -2.15    2.72
   3   0  -9    1.36    4.38
  -3   0   9   -1.91    2.97
  -3   0   9   -3.91    3.17
   2   0  -9   66.87    5.67
   2   0  -9   56.59    5.42
   2   0  -9   56.94    4.86
  -2   0   9   62.74    5.38
  -2   0   9   57.98    5.44
   1   0  -9   -2.38    2.14
   1   0  -9   -2.00    2.10
   1   0  -9    1.53    2.61
   1   0  -9    2.09    1.81
  -1   0   9   -4.91    2.08
  -1   0   9   -2.19    2.32
   0   0  -9   39.02    4.06
   0   0  -9   39.95    4.23
   0   0  -9   40.54    3.68
   0   0   9   39.48    3.79
   0   0   9   44.18    4.15
  -1   0  -9    0.13    1.55
  -1   0  -9   -1.24    2.15
  -1   0  -9    2.60    3.03
   1   0   9   -0.03    1.95
   1   0   9   -2.37    1.97
  -2   0  -9   73.61    5.11
  -2   0  -9   71.03    4.67
   2   0   9   73.75    4.96
   2   0   9   72.21    4.45
  -3   0  -9   35.26    3.99
  -3   0  -9   39.31    4.13
   3   0   9   30.21    4.27
   3   0   9   38.09    4.56
  -4   0  -9   25.19    3.45
  -4   0  -9   19.67    2.49
   4   0   9   17.69    3.24
   4   0   9   14.67    3.33
   5   0   9   35.95    4.68
   5   0   9   47.77    6.03
   6   0   9   14.33    4.57
   6   0   9    6.36    5.34
   4  -1  -9   47.93    5.72
   4  -1  -9   37.76    5.57
   4  -1  -9   39.95    5.05
   4  -1  -9   32.30    5.20
  -4   1   9   55.28    6.95
  -4   1   9   52.57    7.38
   3  -1  -9    6.56    3.26
   3  -1  -9    3.56    3.38
   3  -1  -9    3.12    3.11
   3  -1  -9    5.59    3.82
  -3   1   9   13.11    3.34
  -3   1   9    3.98    2.92
   2  -1  -9  238.31    8.57
   2  -1  -9  238.50    8.05
   2  -1  -9  250.93    8.78
   2  -1  -9  246.65    7.81
  -2   1   9  258.33    8.64
  -2   1   9  256.25    8.67
   1  -1  -9    2.36    2.12
   1  -1  -9   -0.18    2.26
   1  -1  -9   -1.76    1.84
   1  -1  -9   -0.77    1.67
  -1   1   9   -1.45    1.71
  -1   1   9   -0.91    2.07
   0  -1  -9   84.09    4.59
   0  -1  -9   78.68    2.98
   0  -1  -9   79.69    4.05
   0  -1  -9   98.58    5.06
   0   1   9   81.97    4.68
   0   1   9   83.98    4.50
  -1  -1  -9    9.38    1.80
  -1  -1  -9   11.34    2.93
  -1  -1  -9    7.69    2.09
   1   1   9   13.83    2.36
   1   1   9    5.92    1.75
  -2  -1  -9   61.56    4.25
  -2  -1  -9   48.31    4.93
  -2  -1  -9   54.06    2.27
   2   1   9   52.94    4.35
   2   1   9   58.17    3.99
  -3  -1  -9    8.55    2.46
  -3  -1  -9   10.57    2.37
   3   1   9    9.03    2.63
   3   1   9    6.57    2.30
  -4  -1  -9  131.84    5.32
  -4  -1  -9  138.03    5.39
   4   1   9  133.49    6.29
   4   1   9  115.19    6.61
   5   1   9   -3.35    3.17
   5   1   9   -0.58    3.07
   6   1   9   24.78    4.64
   6   1   9   27.40    5.50
   4  -2  -9   17.00    4.31
   4  -2  -9   14.64    4.21
   4  -2  -9   30.70    6.10
  -4   2   9   22.74    4.26
  -4   2   9   23.44    3.95
   3  -2  -9    2.78    3.34
   3  -2  -9    3.04    2.83
   3  -2  -9   -1.88    3.06
   3  -2  -9    2.11    2.77
  -3   2   9   -4.82    2.60
  -3   2   9    0.47    2.93
   2  -2  -9   40.48    4.08
   2  -2  -9   45.78    4.33
   2  -2  -9   54.36    4.83
   2  -2  -9   48.10    4.82
  -2   2   9   49.96    4.70
  -2   2   9   41.93    4.59
   1  -2  -9   20.45    3.20
   1  -2  -9   19.36    2.45
   1  -2  -9   18.72    2.79
   1  -2  -9   26.16    3.23
  -1   2   9   25.98    3.75
  -1   2   9   20.84    2.71
   0  -2  -9   19.05    2.14
   0  -2  -9   20.55    2.46
   0  -2  -9   18.97    2.48
   0  -2  -9   23.66    3.01
   0   2   9   16.94    2.41
   0   2   9   22.32    3.27
  -1  -2  -9    1.86    1.56
  -1  -2  -9    2.35    1.52
  -1  -2  -9    3.70    2.16
   1   2   9    3.66    1.87
   1   2   9    2.80    1.69
  -2  -2  -9  122.97    5.65
  -2  -2  -9  120.69    3.83
   2   2   9  143.55    5.52
   2   2   9  133.45    5.77
  -3  -2  -9   22.03    2.88
  -3  -2  -9   15.22    2.73
   3   2   9   17.58    2.62
   3   2   9   19.90    3.08
  -4  -2  -9  106.53    5.28
  -4  -2  -9  104.20    5.06
   4   2   9  100.20    5.58
   4   2   9   88.58    5.79
  -5  -2  -9    6.46    2.26
  -5  -2  -9   10.91    2.21
   5   2   9    7.09    3.42
   5   2   9   14.20    3.26
   6   2   9   62.29    8.05
   6   2   9   47.41    5.28
   5  -3  -9   29.93    6.00
   4  -3  -9    2.67    4.16
   4  -3  -9    5.30    4.54
   4  -3  -9   12.35    3.97
   4  -3  -9    9.83    4.22
  -4   3   9    7.23    3.53
  -4   3   9    4.36    3.33
   3  -3  -9   -1.30    3.47
   3  -3  -9    6.11    3.33
   3  -3  -9    1.92    3.01
   3  -3  -9    0.97    3.13
  -3   3   9   -3.41    2.58
   2  -3  -9    7.82    2.70
   2  -3  -9   14.43    3.19
   2  -3  -9   10.73    2.72
   2  -3  -9    9.86    2.68
  -2   3   9    8.70    2.43
   1  -3  -9   16.88    2.87
   1  -3  -9   15.79    2.23
   1  -3  -9   18.10    2.55
   1  -3  -9   15.86    2.52
  -1   3   9   17.92    2.83
   0  -3  -9    9.43    1.80
   0  -3  -9   11.27    3.29
   0  -3  -9    9.64    1.69
   0  -3  -9    9.22    2.20
   0   3   9   11.21    3.01
   0   3   9   10.01    2.11
  -1  -3  -9   28.35    2.77
  -1  -3  -9   28.14    3.13
  -1  -3  -9   26.66    2.98
   1   3   9   25.77    3.28
  -2  -3  -9    3.15    1.99
  -2  -3  -9    3.28    1.99
  -2  -3  -9    5.53    1.54
   2   3   9   -0.75    1.55
   2   3   9    6.58    1.88
  -3  -3  -9    5.04    4.10
  -3  -3  -9    7.19    2.30
   3   3   9    8.74    2.42
   3   3   9    7.98    2.20
  -4  -3  -9   20.70    2.95
  -4  -3  -9   18.38    2.31
  -4  -3  -9   31.21    4.25
   4   3   9   28.67    3.94
   4   3   9   21.19    3.46
  -5  -3  -9    3.15    2.53
   5   3   9   -2.14    2.75
   5   3   9    0.70    3.11
   6   3   9   24.29    4.18
   6   3   9   30.07    5.26
   5  -4  -9   18.51    7.27
   5  -4  -9   16.36    5.69
   4  -4  -9    6.69    3.98
   4  -4  -9    1.81    4.48
   4  -4  -9    2.58    3.93
   4  -4  -9   -0.54    4.83
  -4   4   9   -4.65    2.54
  -4   4   9    2.27    2.88
   3  -4  -9   43.45    5.77
   3  -4  -9   33.11    5.20
   3  -4  -9   35.52    5.20
   3  -4  -9   43.22    4.97
  -3   4   9   32.24    4.62
  -3   4   9   37.91    4.56
   2  -4  -9   27.06    3.91
   2  -4  -9   30.69    4.45
   2  -4  -9   30.29    4.20
   2  -4  -9   23.78    3.55
  -2   4   9   22.03    3.12
   1  -4  -9  103.97    5.32
   1  -4  -9  110.77    5.45
   1  -4  -9  107.48    4.95
   1  -4  -9  101.10    4.54
  -1   4   9  110.37    5.34
  -1   4   9  117.28    5.15
   0  -4  -9    9.64    1.76
   0  -4  -9    7.12    1.97
   0  -4  -9   10.28    3.36
   0  -4  -9   11.46    2.18
   0   4   9    8.17    2.06
   0   4   9    8.80    1.89
  -1  -4  -9  107.20    7.05
  -1  -4  -9  120.25    5.01
   1   4   9  122.15    5.23
  -2  -4  -9    6.08    2.05
  -2  -4  -9    9.03    2.46
   2   4   9    9.13    1.90
   2   4   9    9.21    2.29
  -3  -4  -9   19.52    3.16
  -3  -4  -9   14.57    2.77
   3   4   9   19.25    1.97
   3   4   9   21.33    2.89
   3   4   9   18.96    2.45
  -4  -4  -9    0.99    2.48
  -4  -4  -9    4.00    2.56
   4   4   9    2.16    2.07
   4   4   9   -1.20    2.09
   4   4   9   -1.37    1.26
  -5  -4  -9   51.51    5.12
  -5  -4  -9   50.01    4.02
   5   4   9   51.16    6.11
   5   4   9   45.98    5.03
  -6  -4  -9    6.25    3.00
  -6  -4  -9    0.74    2.87
  -6  -4  -9   -0.82    2.98
   6   4   9    4.67    4.60
   4  -5  -9   -2.60    4.53
   4  -5  -9    5.99    4.16
   4  -5  -9   -0.50    4.25
   4  -5  -9    2.26    4.36
  -4   5   9    2.25    2.22
  -4   5   9    5.12    2.15
   3  -5  -9   35.11    4.31
   3  -5  -9   26.02    3.99
   3  -5  -9   32.18    4.08
   3  -5  -9   32.04    4.89
  -3   5   9   23.84    3.18
   2  -5  -9    0.86    2.28
   2  -5  -9   -0.78    2.18
   2  -5  -9    3.21    2.67
   2  -5  -9   -2.43    2.31
  -2   5   9   -4.80    2.25
  -2   5   9   -1.16    2.23
   1  -5  -9   90.04    4.55
   1  -5  -9   86.60    4.76
   1  -5  -9   94.47    5.12
  -1   5   9   97.10    4.83
   0  -5  -9   33.92    3.63
   0  -5  -9   40.16    3.27
   0   5   9   38.51    3.62
   0   5   9   41.48    3.55
  -1  -5  -9   46.77    3.70
  -1  -5  -9   51.33    4.22
   1   5   9   50.85    3.15
   1   5   9   54.57    3.85
  -2  -5  -9   29.32    3.74
  -2  -5  -9   22.07    2.87
   2   5   9   18.98    2.47
   2   5   9   22.54    2.41
   2   5   9   21.11    3.08
  -3  -5  -9   87.36    4.95
  -3  -5  -9   81.37    5.13
   3   5   9   86.45    4.97
   3   5   9   93.27    4.76
   3   5   9   85.24    3.60
  -4  -5  -9   24.10    3.44
  -4  -5  -9   25.67    3.56
   4   5   9   26.31    2.95
   4   5   9   28.34    3.74
   4   5   9   24.47    3.37
  -5  -5  -9   39.61    4.88
  -5  -5  -9   52.48    5.54
   5   5   9   55.84    5.26
   5   5   9   55.18    6.31
  -6  -5  -9   47.91    6.10
  -6  -5  -9   35.80    7.23
   6   5   9   59.86    7.36
   6   5   9   52.20    6.70
   4  -6  -9   12.54    4.49
   4  -6  -9   10.92    5.18
   4  -6  -9    6.95    4.98
   4  -6  -9   15.81    4.36
   3  -6  -9   -4.56    3.22
   3  -6  -9    2.14    3.15
   3  -6  -9    5.40    3.53
   3  -6  -9   -0.09    3.10
  -3   6   9   -3.25    2.21
  -3   6   9    1.08    2.33
   2  -6  -9   55.50    4.99
   2  -6  -9   61.75    4.89
   2  -6  -9   63.39    5.32
   2  -6  -9   58.83    4.94
  -2   6   9   50.73    4.42
  -2   6   9   49.77    4.44
   1  -6  -9   19.18    2.76
   1  -6  -9   14.73    2.58
   1  -6  -9   23.12    3.36
  -1   6   9   20.95    2.77
  -1   6   9   26.88    3.87
   0  -6  -9    3.61    2.21
   0  -6  -9    0.94    1.84
   0   6   9    3.33    2.00
   0   6   9    2.55    1.93
  -1  -6  -9    8.87    2.10
  -1  -6  -9    7.57    2.26
   1   6   9    8.83    2.13
   1   6   9   11.80    2.16
   1   6   9    5.92    2.00
  -2  -6  -9   19.35    2.58
  -2  -6  -9   23.04    2.85
   2   6   9   20.08    2.67
   2   6   9   18.60    2.51
   2   6   9   16.94    2.29
  -3  -6  -9    8.93    2.64
  -3  -6  -9    9.82    2.57
   3   6   9    7.06    2.40
   3   6   9    8.63    2.04
   3   6   9   11.28    2.27
  -4  -6  -9    2.86    2.73
  -4  -6  -9   -1.67    2.72
   4   6   9   -0.28    1.81
   4   6   9    4.22    2.86
  -5  -6  -9   67.01    6.01
   5   6   9   58.88    6.60
   5   6   9   58.91    5.34
  -6  -6  -9    4.98    4.21
  -6  -6  -9    3.97    4.59
   6   6   9    5.49    3.68
   4  -7  -9   33.24    5.55
   4  -7  -9   53.50    7.67
   4  -7  -9   64.30    8.12
   3  -7  -9    0.03    3.33
   3  -7  -9   -1.52    3.25
   3  -7  -9    2.60    3.36
   3  -7  -9   -1.56    3.90
  -3   7   9    0.15    2.00
  -3   7   9    0.57    1.84
   2  -7  -9   35.30    5.01
   2  -7  -9   32.94    5.11
   2  -7  -9   34.78    3.91
   2  -7  -9   35.18    4.38
  -2   7   9   31.13    4.25
  -2   7   9   36.83    4.26
   1  -7  -9   18.87    2.83
   1  -7  -9   16.88    2.68
   1  -7  -9   16.14    2.91
  -1   7   9   21.99    2.97
  -1   7   9   14.69    2.81
   0  -7  -9   42.20    4.01
   0  -7  -9   45.70    4.21
   0   7   9   48.19    4.33
   0   7   9   43.14    4.85
   0   7   9   42.68    3.89
  -1  -7  -9    3.46    1.99
  -1  -7  -9    9.95    2.44
   1   7   9    5.37    1.89
   1   7   9    4.20    2.34
   1   7   9    8.58    2.22
  -2  -7  -9   40.54    4.51
  -2  -7  -9   50.38    4.47
   2   7   9   46.55    3.51
   2   7   9   47.67    4.48
   2   7   9   54.80    4.05
  -3  -7  -9    8.15    2.74
  -3  -7  -9    1.58    2.64
   3   7   9    5.12    1.97
   3   7   9    1.73    2.13
   3   7   9    1.01    1.93
  -4  -7  -9   26.18    3.97
  -4  -7  -9   23.82    3.60
   4   7   9   22.65    3.06
   4   7   9   29.33    3.98
   4   7   9   28.02    3.79
  -5  -7  -9    0.08    3.39
  -5  -7  -9    0.93    3.15
   5   7   9    4.31    3.07
   5   7   9   -1.42    3.48
  -6  -7  -9   23.34    5.45
  -6  -7  -9   25.69    6.37
   4  -8  -9    9.53    5.19
   4  -8  -9   24.25    5.32
   3  -8  -9    3.70    4.30
   3  -8  -9   -2.83    3.63
   3  -8  -9    6.94    4.45
   3  -8  -9    1.22    3.48
   2  -8  -9    9.31    3.18
   2  -8  -9   18.56    3.79
   2  -8  -9   13.59    3.62
   2  -8  -9   10.92    3.65
  -2   8   9   14.40    2.69
  -2   8   9    9.66    2.67
   1  -8  -9   -0.30    2.72
   1  -8  -9    1.85    2.56
  -1   8   9   -0.10    2.51
  -1   8   9    4.95    2.39
   0  -8  -9   80.26    5.27
   0  -8  -9   76.77    5.40
   0   8   9   79.56    5.33
   0   8   9   78.83    5.84
   0   8   9   75.63    5.11
  -1  -8  -9    3.89    2.23
  -1  -8  -9    4.15    2.47
   1   8   9    4.08    2.10
   1   8   9    4.93    2.24
   1   8   9    5.58    2.64
  -2  -8  -9  113.24    5.90
  -2  -8  -9  114.75    5.95
   2   8   9  116.40    5.39
   2   8   9  118.37    6.31
   2   8   9  128.57    5.85
  -3  -8  -9    4.80    3.14
  -3  -8  -9   -1.73    2.52
   3   8   9    3.57    2.65
   3   8   9    1.50    2.64
   3   8   9    6.11    1.91
  -4  -8  -9   35.96    4.88
  -4  -8  -9   40.94    4.92
   4   8   9   32.26    4.60
   4   8   9   35.57    4.57
   4   8   9   24.17    3.84
  -5  -8  -9    7.68    4.09
  -5  -8  -9   -3.24    3.62
   5   8   9    2.17    3.29
   3  -9  -9   -0.10    4.21
   3  -9  -9    8.14    4.39
   3  -9  -9   -1.51    4.62
   3  -9  -9   -0.32    8.27
   2  -9  -9    6.91    3.51
   2  -9  -9    1.87    3.72
   2  -9  -9    1.90    3.56
  -2   9   9   -2.41    2.27
  -2   9   9    4.71    2.17
   1  -9  -9   23.81    4.00
   1  -9  -9   19.43    3.97
  -1   9   9   21.43    3.01
  -1   9   9   19.62    3.35
  -1   9   9   16.01    3.36
   0  -9  -9   45.28    5.41
   0  -9  -9   32.40    4.05
   0   9   9   26.60    3.26
   0   9   9   34.80    4.81
   0   9   9   33.94    3.89
  -1  -9  -9   -3.19    2.51
  -1  -9  -9    4.00    2.47
   1   9   9   -0.15    2.42
   1   9   9    1.23    2.71
   1   9   9   -2.37    2.29
  -2  -9  -9   28.98    3.86
  -2  -9  -9   35.54    4.11
   2   9   9   32.02    4.27
   2   9   9   26.86    4.28
   2   9   9   34.11    4.75
  -3  -9  -9    2.23    2.95
  -3  -9  -9    0.39    2.97
   3   9   9   -2.45    2.60
   3   9   9    6.83    2.59
   3   9   9    1.55    3.00
  -4  -9  -9   33.43    4.85
  -4  -9  -9   29.67    4.72
   4   9   9   32.41    4.37
   4   9   9   32.90    4.06
  -5  -9  -9   -8.65    4.27
  -5  -9  -9    2.78    4.97
   3 -10  -9   25.04    5.57
   3 -10  -9   16.66    5.28
   2 -10  -9   -0.22    4.17
   2 -10  -9   -6.80    4.05
   1 -10  -9   52.58    6.96
   1 -10  -9   37.57    4.64
  -1  10   9   38.60    4.96
  -1  10   9   51.62    6.63
  -1  10   9   47.46    5.05
   0 -10  -9   -3.81    3.35
   0 -10  -9   -3.19    3.32
   0  10   9    3.00    3.50
   0  10   9    3.75    2.69
   0  10   9    3.26    2.96
  -1 -10  -9   24.10    3.83
  -1 -10  -9   21.76    3.59
   1  10   9   23.07    3.92
   1  10   9   20.87    3.57
   1  10   9   24.91    4.15
  -2 -10  -9   11.52    3.55
  -2 -10  -9   19.54    3.58
   2  10   9    8.81    3.21
   2  10   9   12.14    3.80
   2  10   9    7.81    3.03
  -3 -10  -9   18.14    3.73
  -3 -10  -9   13.46    3.76
   3  10   9   15.97    3.85
   3  10   9   14.94    4.01
  -4 -10  -9    0.99    4.30
   4  10   9   -5.47    3.50
   4  10   9    2.11    3.14
   2 -11  -9    2.37    5.40
   2 -11  -9   -4.29    4.97
   1 -11  -9   15.62    4.65
   1 -11  -9    9.61    5.03
  -1  11   9    7.18    4.73
  -1  11   9   15.64    3.48
  -1  11   9   15.30    3.39
   0 -11  -9    3.88    4.05
   0 -11  -9    0.97    4.20
   0  11   9    2.84    3.85
   0  11   9    3.25    3.17
   0  11   9    2.01    3.45
  -1 -11  -9   16.10    4.28
  -1 -11  -9   11.51    4.02
   1  11   9    2.58    3.56
   1  11   9   10.47    3.72
   1  11   9    7.92    3.59
  -2 -11  -9   14.93    4.01
   2  11   9    8.36    3.87
   2  11   9    7.46    3.78
   2  11   9   15.61    4.31
  -3 -11  -9   51.58    7.49
   3  11   9   34.80    5.49
   3  11   9   61.25    6.94
   0 -12  -9    1.92    5.24
   0  12   9    7.64    4.11
   0  12   9    2.55    4.72
   0  12   9    6.58    4.36
  -1 -12  -9   36.67    5.69
   1  12   9   18.73    5.33
   1  12   9   16.32    5.13
   1  12   9   23.86    4.82
   2  12   9  -10.46    5.08
   2  12   9    2.41    4.65
   2  12   9    1.83    4.40
   0   4 -10   32.31    5.76
   0   4 -10   42.82    6.09
  -1   4 -10    8.74    4.91
  -1   4 -10   -2.51    4.87
   1  -4  10   -4.95    5.91
   1   3 -10   -0.08    4.77
  -1  -3  10    6.18    4.72
   0   3 -10    3.56    4.38
   0   3 -10   -2.36    4.32
   0  -3  10   -3.02    3.85
  -1   3 -10    1.53    4.25
  -1   3 -10    1.78    4.07
   1  -3  10   -6.52    3.63
   1  -3  10    0.10    5.88
  -2   3 -10   10.90    4.11
  -2   3 -10   11.33    4.22
   2  -3  10   13.54    4.90
   2  -3  10   13.86    4.28
  -3   3 -10   -0.44    3.84
   3  -3  10    5.73    4.36
   3  -3  10   -0.78    7.09
   2   2 -10    1.95    4.10
  -2  -2  10   -5.35    4.26
   1   2 -10   31.27    4.81
   1   2 -10   45.83    6.72
  -1  -2  10   40.11    4.88
   0   2 -10    0.73    3.70
   0   2 -10    1.80    3.52
   0  -2  10    0.60    3.09
   0  -2  10   13.36    3.79
  -1   2 -10   67.89    6.44
  -1   2 -10   62.58    6.31
   1  -2  10   69.61    6.21
   1  -2  10   66.06    6.61
  -2   2 -10    0.58    3.57
  -2   2 -10    2.55    3.44
   2  -2  10    0.46    3.57
   2  -2  10   -0.32    3.22
  -3   2 -10   24.67    3.61
  -3   2 -10   23.60    3.68
   3  -2  10   21.11    4.18
   3  -2  10   17.61    4.37
   4  -2  10   14.96    4.92
   4  -2  10   -1.91    4.02
  -3  -1  10   11.99    5.37
   2   1 -10   -0.35    3.66
  -2  -1  10    4.21    3.97
  -2  -1  10    2.84    3.73
   1   1 -10   49.53    4.08
   1   1 -10   43.19    6.10
   1   1 -10   55.58    5.94
  -1  -1  10   40.20    5.56
  -1  -1  10   45.36    5.87
   0   1 -10    2.30    3.13
   0   1 -10    2.44    2.92
   0  -1  10   -0.15    2.77
   0  -1  10   -1.92    2.56
  -1   1 -10  188.86    7.88
  -1   1 -10  173.26    7.47
   1  -1  10  186.09    7.61
   1  -1  10  165.67    7.83
  -2   1 -10   23.64    3.73
  -2   1 -10   21.97    3.52
   2  -1  10   18.68    3.35
   2  -1  10   29.10    4.43
  -3   1 -10   60.82    5.57
  -3   1 -10   54.94    5.18
   3  -1  10   73.00    6.05
   3  -1  10   51.16    6.46
  -4   1 -10    5.33    2.07
  -4   1 -10    2.01    2.23
   4  -1  10    2.84    3.71
   4  -1  10    5.21    4.33
   3   0 -10    8.67    3.97
   3   0 -10    5.17    5.39
  -3   0  10    2.51    4.64
  -3   0  10   -4.26    4.19
   2   0 -10   29.62    4.92
   2   0 -10   24.06    3.73
   2   0 -10   27.27    3.99
   2   0 -10   27.21    4.12
  -2   0  10   17.32    3.78
  -2   0  10   16.39    3.74
   1   0 -10   13.58    3.09
   1   0 -10   11.48    2.52
   1   0 -10   17.50    3.63
  -1   0  10   10.46    2.96
  -1   0  10   12.25    3.30
   0   0 -10    6.39    3.19
   0   0 -10    3.39    2.64
   0   0 -10    6.85    2.66
   0   0  10   -1.71    2.67
   0   0  10    1.40    2.37
  -1   0 -10   23.19    3.42
  -1   0 -10   15.84    3.30
   1   0  10   22.79    3.07
   1   0  10   12.58    2.48
  -2   0 -10   -2.82    2.94
  -2   0 -10    0.07    2.86
   2   0  10    4.94    2.91
   2   0  10   -2.89    2.20
  -3   0 -10   58.98    7.99
  -3   0 -10   66.19    5.38
   3   0  10   56.55    6.11
   3   0  10   60.29    5.52
  -4   0 -10    3.88    2.69
  -4   0 -10   -0.80    2.45
   4   0  10   -1.59    3.84
   4   0  10    0.97    3.17
   5   0  10    8.83    4.93
   5   0  10   22.06    4.78
   4  -1 -10   51.62    8.52
   4  -1 -10   32.58    6.30
  -4   1  10   39.64    6.29
  -4   1  10   34.95    6.09
   3  -1 -10   14.98    3.94
   3  -1 -10    4.14    4.73
   3  -1 -10   10.16    4.22
   3  -1 -10    8.01    3.72
  -3   1  10    8.94    4.07
  -3   1  10   10.10    4.15
   2  -1 -10   78.11    6.55
   2  -1 -10   70.61    6.16
   2  -1 -10   88.50    6.10
   2  -1 -10   85.17    6.59
  -2   1  10   91.37    6.47
  -2   1  10   93.90    6.53
   1  -1 -10   -1.17    2.01
   1  -1 -10    0.13    3.62
   1  -1 -10    0.50    2.37
   1  -1 -10    1.46    2.76
  -1   1  10   -2.98    2.63
  -1   1  10   -1.69    2.33
   0  -1 -10   72.35    5.08
   0  -1 -10   85.29    5.62
   0  -1 -10   75.73    4.76
   0   1  10   81.51    5.07
   0   1  10   76.19    4.97
  -1  -1 -10    1.88    2.34
  -1  -1 -10    0.01    1.84
  -1  -1 -10    3.39    2.53
   1   1  10   -2.05    2.11
   1   1  10    5.64    2.00
  -2  -1 -10   51.61    4.87
  -2  -1 -10   48.58    4.75
   2   1  10   37.35    4.29
   2   1  10   45.80    4.86
  -3  -1 -10    1.65    3.08
  -3  -1 -10    1.07    2.82
   3   1  10    1.75    2.76
   3   1  10    0.34    2.73
  -4  -1 -10   17.83    3.13
  -4  -1 -10   23.23    3.35
   4   1  10   14.84    3.46
   4   1  10   13.68    3.97
   5   1  10   -0.22    3.96
   5   1  10   -1.95    3.86
   4  -2 -10   38.86    6.07
   4  -2 -10   69.76    9.51
   4  -2 -10   49.53    7.21
  -4   2  10   68.10    8.53
  -4   2  10   64.34    8.88
   3  -2 -10    3.41    3.62
   3  -2 -10    4.85    3.95
   3  -2 -10   -2.50    4.68
   3  -2 -10    8.03    4.46
  -3   2  10    0.42    3.61
  -3   2  10   12.05    4.08
   2  -2 -10   51.50    5.56
   2  -2 -10   36.31    4.84
   2  -2 -10   34.48    4.84
   2  -2 -10   46.48    5.56
  -2   2  10   40.25    5.41
  -2   2  10   54.71    5.79
   1  -2 -10   16.02    4.58
   1  -2 -10    9.38    2.17
   1  -2 -10    7.26    2.65
   1  -2 -10   10.65    2.86
  -1   2  10    9.21    2.87
  -1   2  10    7.21    2.47
   0  -2 -10   64.13    5.13
   0  -2 -10   69.32    4.42
   0  -2 -10   71.31    4.79
   0  -2 -10   71.03    3.12
   0   2  10   72.01    4.58
   0   2  10   72.25    5.01
  -1  -2 -10    9.64    2.80
  -1  -2 -10    2.61    2.37
  -1  -2 -10    8.34    2.20
   1   2  10    5.86    2.09
   1   2  10    6.06    2.18
  -2  -2 -10  215.86    5.80
  -2  -2 -10  236.14    8.10
  -2  -2 -10  233.98    7.91
   2   2  10  231.48    7.78
   2   2  10  234.19    8.32
  -3  -2 -10   30.87    4.24
  -3  -2 -10   32.92    4.78
   3   2  10   34.45    3.68
   3   2  10   34.18    4.32
  -4  -2 -10  175.32    6.83
  -4  -2 -10  158.59    7.00
   4   2  10  147.94    7.74
   4   2  10  157.13    7.38
  -5  -2 -10    1.79    2.82
   5   2  10   -0.85    3.54
   5   2  10   -7.41    3.81
   4  -3 -10   -3.03    5.27
   4  -3 -10    4.48    5.62
   4  -3 -10    6.08    5.79
  -4   3  10    6.77    4.26
  -4   3  10   10.05    4.80
   3  -3 -10   38.23    5.86
   3  -3 -10   25.95    4.19
   3  -3 -10   45.34    5.87
  -3   3  10   24.65    4.33
  -3   3  10   32.09    4.59
   2  -3 -10   57.30    5.90
   2  -3 -10   59.81    4.73
   2  -3 -10   46.35    5.05
   2  -3 -10   59.45    6.12
  -2   3  10   53.83    5.54
  -2   3  10   59.59    5.61
   1  -3 -10    7.20    2.71
   1  -3 -10    3.73    2.31
   1  -3 -10   10.97    4.46
   1  -3 -10    4.54    2.11
  -1   3  10    2.84    2.34
  -1   3  10    6.06    2.65
   0  -3 -10    9.29    2.27
   0  -3 -10   10.89    2.59
   0  -3 -10    9.82    1.80
   0  -3 -10    6.88    2.63
   0   3  10    5.61    2.38
   0   3  10    5.89    2.26
  -1  -3 -10    7.83    2.44
  -1  -3 -10    4.08    2.16
  -1  -3 -10    5.77    2.62
   1   3  10    4.57    2.19
   1   3  10    6.84    2.10
  -2  -3 -10   91.13    5.33
  -2  -3 -10   93.27    5.56
  -2  -3 -10   93.07    3.99
   2   3  10   95.43    4.95
   2   3  10   90.55    5.35
  -3  -3 -10   10.27    3.18
  -3  -3 -10   12.63    3.04
  -3  -3 -10   16.29    1.88
   3   3  10   16.12    3.05
   3   3  10   13.27    3.10
  -4  -3 -10  101.27    6.05
   4   3  10   92.81    6.18
   4   3  10   81.31    6.28
  -5  -3 -10    1.07    3.21
   5   3  10    0.20    3.95
   5   3  10   -5.36    3.40
   4  -4 -10   -0.59    4.94
   4  -4 -10   -1.12    5.42
   4  -4 -10   17.67    5.17
   4  -4 -10    6.27    5.64
  -4   4  10    1.41    5.24
  -4   4  10    4.06    4.46
   3  -4 -10   10.44    4.12
   3  -4 -10   10.55    4.50
   3  -4 -10    9.59    4.33
   3  -4 -10   14.21    3.62
  -3   4  10    8.61    3.76
  -3   4  10    6.17    3.42
   2  -4 -10    0.75    3.21
   2  -4 -10    6.48    2.85
   2  -4 -10    2.46    2.64
   2  -4 -10   14.01    3.70
  -2   4  10    6.75    3.21
  -2   4  10    5.13    2.94
   1  -4 -10   41.38    4.09
   1  -4 -10   38.14    4.70
   1  -4 -10   33.38    3.74
   1  -4 -10   35.12    4.84
  -1   4  10   37.80    4.41
  -1   4  10   35.77    4.80
   0  -4 -10    0.46    2.27
   0  -4 -10    9.29    2.63
   0  -4 -10    3.31    1.95
   0  -4 -10    3.89    1.71
   0   4  10    5.94    2.19
   0   4  10    2.84    2.22
  -1  -4 -10   27.78    4.10
  -1  -4 -10   35.77    3.99
  -1  -4 -10   32.23    3.42
   1   4  10   35.12    3.77
   1   4  10   36.30    4.06
  -2  -4 -10    3.04    2.55
  -2  -4 -10    3.08    2.38
  -2  -4 -10    4.86    1.96
   2   4  10    0.20    1.96
   2   4  10    1.54    1.80
  -3  -4 -10   31.50    3.88
  -3  -4 -10   31.45    4.57
   3   4  10   31.19    4.10
   3   4  10   34.91    4.38
  -4  -4 -10   14.17    3.45
  -4  -4 -10   23.67    3.69
   4   4  10   12.97    3.16
   4   4  10   11.24    3.07
  -5  -4 -10   20.17    4.97
  -5  -4 -10   17.51    2.59
   5   4  10   16.58    4.15
   5   4  10   17.98    4.09
   6   4  10    5.83    4.44
   4  -5 -10   12.24    5.21
   4  -5 -10    6.05    6.37
   4  -5 -10   18.44    5.72
   4  -5 -10    2.52    5.08
  -4   5  10    1.57    5.35
  -4   5  10    0.96    3.33
   3  -5 -10    4.87    3.54
   3  -5 -10   20.06    4.53
   3  -5 -10    9.75    4.24
   3  -5 -10   22.33    4.51
  -3   5  10   11.85    4.06
   2  -5 -10   10.00    3.24
   2  -5 -10    5.32    3.27
   2  -5 -10   11.90    2.99
   2  -5 -10   12.59    3.34
  -2   5  10    8.92    2.90
  -2   5  10    7.31    3.10
   1  -5 -10   83.72    5.70
   1  -5 -10   78.32    4.97
   1  -5 -10   85.61    4.77
   1  -5 -10   83.02    5.65
  -1   5  10   79.24    5.33
  -1   5  10   83.80    5.26
   0  -5 -10   35.64    3.85
   0  -5 -10   31.59    3.98
   0  -5 -10   28.15    3.33
   0   5  10   27.31    4.00
   0   5  10   26.76    3.03
  -1  -5 -10   88.92    4.94
  -1  -5 -10   76.36    5.05
   1   5  10   77.70    4.88
   1   5  10   83.41    4.75
  -2  -5 -10   21.25    3.02
  -2  -5 -10   20.21    2.96
   2   5  10   11.28    2.40
   2   5  10   12.43    2.45
  -3  -5 -10   78.68    5.51
  -3  -5 -10   56.77    5.56
   3   5  10   77.48    4.92
   3   5  10   77.34    3.37
   3   5  10   71.85    5.07
  -4  -5 -10   10.45    3.33
  -4  -5 -10   15.38    3.47
   4   5  10   15.29    3.27
   4   5  10   12.48    2.06
   4   5  10   11.03    2.98
  -5  -5 -10   61.64    6.34
  -5  -5 -10   66.00    5.35
   5   5  10   69.75    6.27
   5   5  10   62.45    7.67
   5   5  10   64.29    4.30
   4  -6 -10    2.62    5.26
   4  -6 -10    1.38    5.27
   3  -6 -10   11.99    4.33
   3  -6 -10    1.38    4.57
   3  -6 -10    3.47    3.99
   3  -6 -10    3.44    4.10
  -3   6  10   -2.27    3.15
  -3   6  10    2.91    3.11
   2  -6 -10    0.17    3.14
   2  -6 -10    7.66    3.50
   2  -6 -10    0.52    2.88
   2  -6 -10   -2.22    3.04
  -2   6  10   -5.16    4.19
  -2   6  10    5.56    3.14
   1  -6 -10   49.79    4.44
   1  -6 -10   49.04    4.99
   1  -6 -10   56.80    4.64
   1  -6 -10   54.51    5.22
  -1   6  10   55.57    4.98
  -1   6  10   55.26    4.79
   0  -6 -10    7.40    2.49
   0  -6 -10    5.30    2.39
   0   6  10    8.63    2.59
   0   6  10    4.48    2.34
  -1  -6 -10   43.70    4.21
  -1  -6 -10   41.87    4.33
   1   6  10   39.96    4.27
   1   6  10   32.43    4.01
  -2  -6 -10    6.17    2.55
  -2  -6 -10    4.54    2.53
   2   6  10    4.37    2.24
   2   6  10    1.55    1.88
   2   6  10    3.76    1.84
  -3  -6 -10   92.43    5.87
  -3  -6 -10   86.49    6.06
   3   6  10   92.58    5.22
   3   6  10   85.29    4.23
   3   6  10   97.71    5.78
  -4  -6 -10   31.17    4.23
  -4  -6 -10   32.07    4.40
   4   6  10   33.42    4.36
   4   6  10   32.49    3.94
   4   6  10   26.14    3.54
  -5  -6 -10   62.89    7.09
   5   6  10   48.19    4.69
   5   6  10   44.92    5.35
   5   6  10   55.75    5.77
   3  -7 -10    2.16    4.51
   3  -7 -10   -6.40    3.98
   3  -7 -10   -5.73    3.99
   3  -7 -10   -5.05    4.86
  -3   7  10   -3.81    2.72
  -3   7  10    2.94    2.90
   2  -7 -10    8.08    3.52
   2  -7 -10   11.12    3.82
   2  -7 -10   13.42    4.07
   2  -7 -10   10.79    3.67
  -2   7  10    9.25    3.21
  -2   7  10    6.98    3.17
   1  -7 -10   -0.02    2.81
   1  -7 -10   -4.04    2.88
   1  -7 -10    1.96    3.24
   1  -7 -10    1.63    2.69
  -1   7  10   -0.42    2.76
  -1   7  10    1.34    2.81
   0  -7 -10   22.45    3.28
   0  -7 -10   20.72    3.40
   0   7  10   21.01    3.06
   0   7  10   20.00    3.31
  -1  -7 -10   23.58    3.13
  -1  -7 -10   32.60    4.45
   1   7  10   29.44    4.10
   1   7  10   18.96    3.29
   1   7  10   21.90    3.48
  -2  -7 -10   22.84    3.17
  -2  -7 -10   26.42    3.84
   2   7  10   23.85    3.22
   2   7  10   27.05    3.42
   2   7  10   21.92    3.70
  -3  -7 -10    3.58    2.92
  -3  -7 -10    5.75    3.15
   3   7  10   -0.37    2.49
   3   7  10    0.01    2.40
   3   7  10   -1.49    2.01
  -4  -7 -10    1.29    3.51
  -4  -7 -10    4.43    3.54
   4   7  10    3.17    2.66
   4   7  10    3.71    3.01
   4   7  10    0.95    2.51
  -5  -7 -10   12.50    4.05
   5   7  10   21.69    4.02
   5   7  10    6.89    4.99
   3  -8 -10   -3.92    4.25
   3  -8 -10    3.47    5.14
   3  -8 -10    5.53    4.50
   3  -8 -10    3.46    4.56
   2  -8 -10   55.53    6.86
   2  -8 -10   57.11    6.83
   2  -8 -10   52.12    6.35
   2  -8 -10   57.99    6.63
  -2   8  10   56.35    5.63
  -2   8  10   48.93    5.35
   1  -8 -10    5.13    3.50
   1  -8 -10    9.80    3.06
  -1   8  10    0.50    2.88
  -1   8  10    7.03    3.08
   0  -8 -10    6.76    3.08
   0  -8 -10   16.49    3.52
   0   8  10    8.73    2.76
   0   8  10   15.51    3.35
   0   8  10   10.83    2.88
  -1  -8 -10   74.41    5.74
  -1  -8 -10   76.24    5.79
   1   8  10   74.44    5.87
   1   8  10   68.26    5.36
   1   8  10   70.85    5.68
  -2  -8 -10   37.94    4.24
  -2  -8 -10   28.49    3.78
   2   8  10   33.31    4.68
   2   8  10   43.72    5.24
   2   8  10   32.04    4.09
  -3  -8 -10   21.03    3.94
  -3  -8 -10   10.46    3.25
   3   8  10   18.38    3.84
   3   8  10    8.46    2.64
   3   8  10   16.70    2.99
  -4  -8 -10   51.52    7.26
  -4  -8 -10   62.53    6.99
   4   8  10   52.19    5.22
   4   8  10   66.81    5.47
   4   8  10   73.72    7.01
  -5  -8 -10    8.35    4.62
   5   8  10   18.03    5.54
   5   8  10    5.44    3.55
   3  -9 -10    0.06    5.08
   3  -9 -10    3.28    5.37
   2  -9 -10   14.97    4.47
   2  -9 -10   10.97    4.49
   2  -9 -10    6.83    4.20
   2  -9 -10    6.70    4.52
  -2   9  10    1.29    3.15
  -2   9  10    4.09    2.95
   1  -9 -10   -2.39    3.61
   1  -9 -10    1.19    3.57
  -1   9  10    4.56    3.29
  -1   9  10   -3.61    3.90
   0  -9 -10   94.98    6.90
   0  -9 -10  125.97    7.35
   0   9  10   96.35    6.47
   0   9  10  106.55    6.88
   0   9  10  101.04    6.32
  -1  -9 -10   27.84    3.82
  -1  -9 -10   17.86    3.45
   1   9  10   25.07    4.32
   1   9  10   20.67    3.50
   1   9  10   21.52    3.50
  -2  -9 -10   28.79    3.89
  -2  -9 -10   32.89    4.30
   2   9  10   36.49    4.55
   2   9  10   29.76    3.91
   2   9  10   35.39    4.81
  -3  -9 -10    7.46    4.03
  -3  -9 -10    3.85    3.62
   3   9  10    2.52    3.58
   3   9  10    6.11    3.12
   3   9  10    0.11    2.89
  -4  -9 -10   65.03    6.49
  -4  -9 -10   58.36    8.16
   4   9  10   51.18    5.79
   4   9  10   45.66    5.84
   2 -10 -10    3.98    4.92
   2 -10 -10   -2.75    5.10
  -2  10  10   -4.41    4.02
   1 -10 -10   18.13    4.93
   1 -10 -10   -4.55    4.08
  -1  10  10    3.98    3.96
   0 -10 -10    4.34    4.07
   0 -10 -10    3.31    4.48
   0  10  10    7.03    3.64
   0  10  10   14.42    4.12
   0  10  10    3.99    3.99
  -1 -10 -10    7.14    3.57
  -1 -10 -10    7.08    3.87
   1  10  10    2.93    3.25
   1  10  10    7.51    3.63
   1  10  10   -0.77    3.68
  -2 -10 -10   13.25    3.89
  -2 -10 -10   17.17    4.08
   2  10  10    8.89    4.40
   2  10  10    5.32    3.54
   2  10  10   13.12    3.67
  -3 -10 -10    9.35    4.29
   3  10  10    3.94    3.91
   3  10  10    7.64    3.90
   3  10  10    0.92    5.68
  -4 -10 -10   -4.24    6.15
   4  10  10   -0.27    3.93
   1 -11 -10   35.98    5.93
  -1  11  10   42.72    6.62
  -1  11  10   37.64    7.70
  -1  11  10   31.74    4.66
   0 -11 -10    5.33    4.51
   0  11  10    6.99    4.13
   0  11  10   12.12    4.48
   0  11  10    6.14    4.04
  -1 -11 -10   42.16    5.45
   1  11  10   28.26    5.03
   1  11  10   43.89    4.99
   1  11  10   45.12    6.94
  -2 -11 -10    3.19    4.18
   2  11  10   -1.36    4.11
   2  11  10    0.29    4.36
   2  11  10    6.59    4.13
   3  11  10   41.60    5.72
   3  11  10   51.79    6.51
   0   2 -11    7.32    5.13
   0   2 -11   10.55    4.91
   0  -2  11    6.85    4.56
  -1   2 -11    2.43    4.77
  -1   2 -11   -7.46    4.52
   1  -2  11    0.09    4.12
  -2   2 -11    6.57    4.82
  -2   2 -11   -4.04    4.66
   2  -2  11   -4.16    4.11
   2   1 -11   10.49    4.49
   1   1 -11   13.97    3.15
   1   1 -11   14.68    4.27
  -1  -1  11   16.19    4.64
   0   1 -11   27.81    5.03
   0   1 -11   27.98    4.68
  -1   1 -11   26.11    4.70
  -1   1 -11   26.98    4.54
   1  -1  11   34.05    5.09
   1  -1  11   27.65    4.09
  -2   1 -11   -0.21    3.82
  -2   1 -11   12.02    4.37
   2  -1  11    1.43    4.05
   2  -1  11    4.94    3.67
  -3   1 -11   49.89    6.95
  -3   1 -11   56.45    7.00
   3  -1  11   37.93    5.42
   2   0 -11   -2.26    3.68
   2   0 -11   -0.05    4.80
   2   0 -11   13.21    4.57
  -2   0  11   -1.50    4.80
   1   0 -11   54.31    6.34
   1   0 -11   58.69    6.66
   1   0 -11   45.15    4.29
   1   0 -11   63.02    7.21
  -1   0  11   46.31    6.75
  -1   0  11   40.81    5.04
   0   0 -11   21.89    4.21
   0   0 -11   13.27    3.95
   0   0  11   18.25    3.83
   0   0  11   10.83    3.14
  -1   0 -11   74.65    6.34
  -1   0 -11   74.79    6.95
   1   0  11   66.96    6.02
   1   0  11   76.92    5.97
  -2   0 -11    9.64    3.88
  -2   0 -11   15.52    4.03
   2   0  11   11.94    3.43
   2   0  11   11.16    3.82
  -3   0 -11   45.96    6.55
  -3   0 -11   29.71    4.39
   3   0  11   29.08    4.35
   3   0  11   39.90    5.18
  -4   0 -11    3.92    3.34
  -4   0 -11    9.25    4.22
   4   0  11    9.89    4.55
   4   0  11    4.71    6.47
   3  -1 -11    3.26    5.04
   3  -1 -11   14.35    6.57
  -3   1  11   14.71    5.72
  -3   1  11    5.11    5.16
   2  -1 -11    3.45    3.69
   2  -1 -11    7.96    4.35
   2  -1 -11   10.27    4.89
  -2   1  11    8.06    4.51
  -2   1  11   10.12    4.70
   1  -1 -11    8.86    3.44
   1  -1 -11   16.44    4.05
   1  -1 -11   10.44    2.71
   1  -1 -11    6.70    3.98
  -1   1  11   22.59    4.20
  -1   1  11   10.60    3.76
   0  -1 -11    5.46    3.78
   0  -1 -11    8.37    3.30
   0  -1 -11    7.76    3.20
   0   1  11    4.53    2.86
   0   1  11    9.84    3.40
  -1  -1 -11   23.61    3.11
  -1  -1 -11   10.15    3.79
  -1  -1 -11   15.42    3.36
   1   1  11   13.13    2.87
   1   1  11   23.08    3.24
  -2  -1 -11   14.07    3.65
  -2  -1 -11    7.58    3.71
   2   1  11    9.60    3.43
   2   1  11    9.28    3.36
  -3  -1 -11   23.99    4.21
  -3  -1 -11   18.57    3.94
   3   1  11   30.68    4.38
   3   1  11   22.37    4.28
  -4  -1 -11    6.78    3.83
  -4  -1 -11    6.54    5.26
   4   1  11   -0.58    4.17
   4   1  11   -2.23    3.98
   3  -2 -11   -9.43    4.53
   3  -2 -11   -5.74    5.21
   3  -2 -11   -0.24    5.94
  -3   2  11   -8.10    4.56
  -3   2  11   -0.31    5.15
   2  -2 -11   34.04    5.13
   2  -2 -11   35.15    4.71
   2  -2 -11   30.38    4.33
   2  -2 -11   38.72    5.18
  -2   2  11   35.76    4.84
  -2   2  11   31.91    4.94
   1  -2 -11    0.90    2.30
   1  -2 -11    2.41    3.55
   1  -2 -11   -0.92    2.79
  -1   2  11   -0.16    3.38
  -1   2  11    8.77    3.63
   0  -2 -11   49.95    4.77
   0  -2 -11   74.47    6.44
   0  -2 -11   48.95    5.26
   0   2  11   58.18    5.71
   0   2  11   54.49    5.07
  -1  -2 -11    0.25    2.78
  -1  -2 -11   -0.60    2.28
  -1  -2 -11    2.70    3.11
   1   2  11    1.66    2.59
   1   2  11   -0.62    2.66
  -2  -2 -11   39.90    3.18
  -2  -2 -11   54.92    6.04
  -2  -2 -11   39.58    5.59
   2   2  11   38.07    5.48
   2   2  11   43.56    5.05
  -3  -2 -11    9.27    3.40
  -3  -2 -11    4.57    3.56
   3   2  11   -4.35    3.19
   3   2  11   -3.95    3.00
  -4  -2 -11    9.48    3.92
  -4  -2 -11    0.35    3.70
   4   2  11   -0.82    3.83
   4   2  11    0.47    3.81
  -5  -2 -11   -1.86    4.96
   5   2  11    0.55    4.56
   3  -3 -11   10.96    5.20
   3  -3 -11    8.73    5.14
   3  -3 -11    1.20    4.72
  -3   3  11    1.29    4.82
  -3   3  11    4.05    4.72
   2  -3 -11   49.60    6.01
   2  -3 -11   49.09    5.34
   2  -3 -11   43.27    5.25
  -2   3  11   44.89    5.15
  -2   3  11   50.92    7.05
   1  -3 -11    1.90    2.88
   1  -3 -11    1.26    3.36
   1  -3 -11    1.28    2.39
   1  -3 -11   -1.35    3.41
  -1   3  11    2.55    2.95
  -1   3  11    0.92    3.34
   0  -3 -11   61.12    4.93
   0  -3 -11   77.92    5.87
   0   3  11   66.84    5.72
   0   3  11   58.83    5.24
  -1  -3 -11    3.00    2.88
  -1  -3 -11    0.99    2.38
  -1  -3 -11   -4.05    2.86
   1   3  11   -1.16    2.43
  -2  -3 -11  117.11    7.03
  -2  -3 -11  110.50    6.46
  -2  -3 -11  110.87    4.51
   2   3  11  101.98    6.27
   2   3  11  119.54    5.91
  -3  -3 -11   13.00    3.78
  -3  -3 -11   19.03    2.51
  -3  -3 -11   23.44    3.98
   3   3  11   15.34    3.13
   3   3  11   16.77    3.43
  -4  -3 -11   53.35    6.39
  -4  -3 -11   53.61    6.59
   4   3  11   31.73    4.33
   4   3  11   34.45    4.38
  -5  -3 -11   14.42    7.75
   5   3  11    2.99    4.24
   3  -4 -11    6.80    4.49
   3  -4 -11    3.44    5.74
   3  -4 -11   13.23    5.25
  -3   4  11    0.39    4.56
  -3   4  11    0.53    4.54
   2  -4 -11   18.60    4.58
   2  -4 -11   25.26    4.71
   2  -4 -11   14.47    3.50
   2  -4 -11   14.38    3.96
  -2   4  11    8.44    3.79
  -2   4  11   10.31    4.14
   1  -4 -11   26.32    4.26
   1  -4 -11   12.75    3.63
   1  -4 -11   20.97    3.09
   1  -4 -11   22.71    3.19
  -1   4  11   15.54    3.55
  -1   4  11   24.36    3.67
   0  -4 -11   51.12    5.77
   0  -4 -11   45.03    4.45
   0   4  11   41.17    5.32
   0   4  11   32.33    4.76
  -1  -4 -11    0.79    2.52
  -1  -4 -11    3.53    3.04
  -1  -4 -11   -0.15    2.71
   1   4  11    2.71    2.41
   1   4  11   -0.87    2.42
  -2  -4 -11   37.71    3.85
  -2  -4 -11   38.17    4.41
  -2  -4 -11   26.10    3.81
   2   4  11   37.03    4.49
   2   4  11   33.72    4.05
  -3  -4 -11    1.70    2.14
  -3  -4 -11    3.37    3.35
  -3  -4 -11    1.78    3.65
   3   4  11   -4.10    2.43
   3   4  11    3.19    2.73
  -4  -4 -11   80.62    3.69
  -4  -4 -11   90.87    7.16
  -4  -4 -11   78.23    7.00
   4   4  11   79.27    7.15
   4   4  11   90.90    6.67
  -5  -4 -11   14.59    4.67
  -5  -4 -11   19.79    4.44
   5   4  11    8.03    4.36
   3  -5 -11   74.44    8.86
   3  -5 -11   92.57    9.36
   3  -5 -11   65.36    7.29
  -3   5  11   57.58    7.38
  -3   5  11   54.50    7.66
   2  -5 -11    1.42    3.53
   2  -5 -11    1.67    3.52
   2  -5 -11    2.74    4.36
   2  -5 -11   -1.41    4.22
  -2   5  11   -8.67    3.53
  -2   5  11   -0.86    3.52
   1  -5 -11    9.29    3.43
   1  -5 -11   15.11    3.60
   1  -5 -11    5.11    3.07
   1  -5 -11   12.43    3.78
  -1   5  11   16.95    3.68
  -1   5  11    9.62    3.35
   0  -5 -11    6.11    3.03
   0  -5 -11    8.70    3.05
   0   5  11    5.25    2.73
   0   5  11   14.07    3.07
  -1  -5 -11   50.11    5.07
  -1  -5 -11   38.26    4.45
  -1  -5 -11   35.83    4.32
   1   5  11   37.04    4.67
   1   5  11   44.19    4.62
  -2  -5 -11   -0.06    2.41
  -2  -5 -11   -3.62    2.89
  -2  -5 -11    2.84    2.83
   2   5  11   -1.06    2.40
   2   5  11   -2.20    2.45
  -3  -5 -11   24.14    3.92
  -3  -5 -11   13.01    4.09
   3   5  11   19.40    3.12
   3   5  11   21.38    3.42
  -4  -5 -11   13.92    4.11
  -4  -5 -11    5.79    3.81
   4   5  11   14.88    4.07
   4   5  11    9.90    3.49
  -5  -5 -11   17.03    4.80
  -5  -5 -11   10.19    4.88
   5   5  11    8.33    4.33
   3  -6 -11   16.00    5.42
   3  -6 -11   13.65    5.38
   3  -6 -11   26.76    5.67
  -3   6  11    9.39    4.33
  -3   6  11   12.68    4.67
   2  -6 -11    6.23    3.80
   2  -6 -11    2.07    3.78
   2  -6 -11    9.70    4.30
   2  -6 -11    2.31    4.28
  -2   6  11   12.96    4.04
  -2   6  11    0.90    3.81
   1  -6 -11   68.37    5.03
   1  -6 -11   64.32    5.70
   1  -6 -11   68.95    6.37
   1  -6 -11   60.38    6.18
  -1   6  11   57.19    5.92
  -1   6  11   70.80    5.84
   0  -6 -11   15.23    2.89
   0  -6 -11   14.85    3.63
   0  -6 -11   14.01    3.53
   0   6  11   15.51    2.99
   0   6  11    9.14    2.98
  -1  -6 -11   32.27    4.21
  -1  -6 -11   32.52    4.52
   1   6  11   27.91    3.82
   1   6  11   27.73    3.86
  -2  -6 -11    0.23    3.13
  -2  -6 -11    3.64    3.41
   2   6  11    4.16    2.70
   2   6  11   -5.18    2.49
  -3  -6 -11   62.94    6.83
  -3  -6 -11   88.38    6.89
   3   6  11   83.01    6.29
   3   6  11   80.12    4.18
   3   6  11   75.44    5.74
  -4  -6 -11    2.64    3.74
  -4  -6 -11    9.68    4.30
   4   6  11   -0.65    3.41
   4   6  11    2.16    2.28
   4   6  11    3.60    3.36
  -5  -6 -11   22.18    5.23
  -5  -6 -11   29.93    4.49
  -5  -6 -11   39.07    6.06
   5   6  11   24.22    4.89
   3  -7 -11    4.17    5.20
   3  -7 -11   12.24    5.85
   3  -7 -11    4.34    7.44
  -3   7  11   11.46    5.97
  -3   7  11   -5.76    3.82
   2  -7 -11    8.44    4.92
   2  -7 -11    0.75    4.11
   2  -7 -11    0.91    4.04
   2  -7 -11    6.45    4.02
  -2   7  11   -6.23    3.69
  -2   7  11    4.87    3.82
   1  -7 -11   10.28    4.49
   1  -7 -11   16.57    3.36
   1  -7 -11   14.78    4.02
   1  -7 -11   21.99    4.27
  -1   7  11   15.71    3.59
  -1   7  11   12.48    3.81
   0  -7 -11    9.29    2.85
   0  -7 -11   -0.45    3.16
   0   7  11   -2.62    2.82
   0   7  11    2.16    3.28
  -1  -7 -11    5.96    3.17
  -1  -7 -11    2.00    3.00
   1   7  11    2.29    3.13
   1   7  11    1.62    2.78
  -2  -7 -11    3.31    3.03
  -2  -7 -11    2.81    3.38
   2   7  11   -3.09    2.78
   2   7  11    0.96    2.61
   2   7  11   -3.40    2.30
  -3  -7 -11   24.24    3.97
  -3  -7 -11   26.43    4.45
   3   7  11   29.94    4.53
   3   7  11   26.69    3.79
   3   7  11   35.20    4.04
  -4  -7 -11    2.27    4.23
  -4  -7 -11    7.91    4.67
   4   7  11   11.67    2.91
   4   7  11    6.01    3.16
  -5  -7 -11   91.65    8.97
   5   7  11   93.39    7.20
   2  -8 -11   11.01    4.80
   2  -8 -11    9.51    4.43
   2  -8 -11    9.28    4.69
   2  -8 -11    3.15    4.50
  -2   8  11   10.82    4.28
  -2   8  11    3.18    4.40
   1  -8 -11   -5.48    3.90
   1  -8 -11   -2.88    4.45
   1  -8 -11   -0.34    3.89
  -1   8  11   -3.74    3.58
  -1   8  11    1.76    3.41
   0  -8 -11   46.97    5.82
   0  -8 -11   35.29    4.56
   0   8  11   37.84    4.78
   0   8  11   43.11    5.95
  -1  -8 -11   23.60    3.87
  -1  -8 -11   14.71    3.37
   1   8  11   11.94    3.63
   1   8  11   18.11    3.63
  -2  -8 -11   27.06    3.88
  -2  -8 -11   16.24    4.42
   2   8  11   30.82    4.73
   2   8  11   23.12    3.56
   2   8  11   17.89    3.85
  -3  -8 -11    1.23    3.70
  -3  -8 -11   -1.22    4.07
   3   8  11   -0.96    2.83
   3   8  11    0.90    3.25
   3   8  11   -0.28    3.21
  -4  -8 -11    7.11    4.59
  -4  -8 -11    0.49    4.69
   4   8  11    2.73    3.73
   2  -9 -11   24.17    6.14
   2  -9 -11   18.67    5.44
   2  -9 -11   10.18    5.83
  -2   9  11   15.67    4.47
  -2   9  11   18.22    4.96
   1  -9 -11   -4.45    4.48
   1  -9 -11    9.52    4.45
  -1   9  11   -1.52    3.66
  -1   9  11    2.41    4.08
   0  -9 -11   45.26    5.30
   0  -9 -11   61.99    7.08
   0   9  11   41.04    5.36
   0   9  11   49.17    6.58
  -1  -9 -11   13.86    3.78
  -1  -9 -11    4.27    3.90
   1   9  11   18.83    4.51
   1   9  11    7.79    3.59
   1   9  11   15.13    3.76
  -2  -9 -11    6.03    4.26
  -2  -9 -11   17.08    3.84
   2   9  11   12.10    3.62
   2   9  11   14.48    3.65
   2   9  11   14.45    4.55
  -3  -9 -11   11.89    4.38
   3   9  11    6.70    3.45
   3   9  11    3.87    3.61
  -4  -9 -11   30.45    5.59
   4   9  11   30.26    4.65
   1 -10 -11   17.77    5.55
  -1  10  11    8.95    4.08
  -1  10  11    4.64    4.73
   0 -10 -11   12.10    4.47
   0  10  11    3.62    4.44
   0  10  11    7.77    4.62
   0  10  11    0.45    4.21
  -1 -10 -11   -7.33    4.04
   1  10  11   14.87    4.14
   1  10  11    5.16    4.53
   1  10  11    6.95    3.94
   2  10  11   17.38    5.22
   2  10  11   19.43    4.60
   2  10  11   14.56    4.26
   3  10  11    6.19    4.13
   3  10  11    4.76    4.77
   0  11  11    0.13    5.36
   0  11  11   -2.17    4.75
   0  11  11    1.12    4.83
   1  11  11    1.46    5.24
   1  11  11   -2.03    4.46
   1  11  11    7.08    4.84
   2  11  11    6.64    4.90
   0   0  12    9.24    6.58
  -1   0 -12   39.34    5.68
  -1   0 -12   29.51    5.38
  -2   0 -12   17.93    5.08
  -2   0 -12   16.23    5.39
   2   0  12   12.65    4.61
   1  -1 -12   20.71    5.30
   1  -1 -12   14.99    3.55
   1  -1 -12   12.75    5.56
  -1   1  12    6.98    4.90
   0  -1 -12   43.64    7.31
   0  -1 -12   33.69    5.19
   0  -1 -12   35.81    5.48
   0   1  12   32.89    4.73
  -1  -1 -12   35.98    5.21
  -1  -1 -12   57.05    7.25
   1   1  12   33.68    4.52
  -2  -1 -12   -0.77    4.53
  -2  -1 -12    6.12    4.53
  -3  -1 -12   54.28    5.83
  -3  -1 -12   69.84    8.36
   3   1  12   52.29    7.16
   2  -2 -12   11.73    4.32
   2  -2 -12    7.84    5.97
  -2   2  12    5.67    5.09
   1  -2 -12    1.45    4.89
   1  -2 -12   -3.16    4.78
   1  -2 -12   -2.16    2.93
  -1   2  12   -9.97    4.11
  -1   2  12   -2.44    5.31
   0  -2 -12    8.75    4.38
   0  -2 -12    4.64    5.00
   0  -2 -12    5.36    4.04
   0   2  12    2.82    3.58
   0   2  12   11.86    4.64
  -1  -2 -12   12.53    3.36
  -1  -2 -12   21.92    4.57
  -1  -2 -12   25.87    4.51
   1   2  12   14.19    3.57
   1   2  12   13.50    4.13
  -2  -2 -12   -3.77    4.01
  -2  -2 -12    2.30    4.04
   2   2  12   -1.00    3.45
   2   2  12   -1.03    3.50
  -3  -2 -12   21.23    4.99
  -3  -2 -12   18.27    4.78
   3   2  12   16.34    4.36
  -4  -2 -12    8.61    4.99
  -4  -2 -12   -3.56    4.70
   4   2  12   -3.76    4.66
   2  -3 -12   35.61    6.12
   2  -3 -12   41.96    6.08
   2  -3 -12   44.81    7.34
  -2   3  12   25.51    5.68
  -2   3  12   28.05    5.66
   1  -3 -12    3.54    2.94
   1  -3 -12   17.09    4.79
   1  -3 -12   -0.71    4.10
  -1   3  12    1.72    4.39
  -1   3  12    7.02    4.36
   0  -3 -12   56.35    5.92
   0  -3 -12   47.14    5.03
   0  -3 -12   64.90    7.32
   0   3  12   48.50    6.12
   0   3  12   55.15    6.95
  -1  -3 -12   -3.47    2.86
  -1  -3 -12    3.07    3.96
  -1  -3 -12   -1.48    4.14
   1   3  12   -1.87    3.19
   1   3  12    8.24    5.85
  -2  -3 -12   40.93    5.21
  -2  -3 -12   37.54    4.94
  -2  -3 -12   43.30    4.04
   2   3  12   39.92    5.36
  -3  -3 -12    1.23    4.51
  -3  -3 -12    1.27    4.03
   3   3  12    0.08    3.87
   3   3  12   -1.99    5.35
  -4  -3 -12   68.48    7.90
  -4  -3 -12   57.83    8.37
   4   3  12   50.86    7.54
   2  -4 -12   31.47    6.04
   2  -4 -12   27.67    5.56
   2  -4 -12   23.57    4.70
  -2   4  12   21.05    5.61
  -2   4  12   21.50    5.38
   1  -4 -12    4.39    3.59
   1  -4 -12    7.57    4.45
   1  -4 -12    6.11    4.65
   1  -4 -12   -3.84    3.83
  -1   4  12    1.15    3.87
  -1   4  12   10.15    4.57
   0  -4 -12   34.64    4.39
   0  -4 -12   46.33    6.66
   0  -4 -12   39.49    5.61
   0   4  12   42.96    4.83
   0   4  12   37.70    4.87
  -1  -4 -12   20.65    4.37
  -1  -4 -12   30.58    3.91
  -1  -4 -12   27.78    4.24
   1   4  12   17.22    3.40
   1   4  12   22.64    3.93
  -2  -4 -12   67.72    7.64
  -2  -4 -12   74.60    5.08
  -2  -4 -12   81.08    7.38
   2   4  12   75.50    6.37
   2   4  12   79.97    6.23
  -3  -4 -12   42.75    5.41
  -3  -4 -12   49.07    4.08
  -3  -4 -12   45.10    5.83
   3   4  12   41.40    5.09
   3   4  12   41.73    5.94
  -4  -4 -12   34.89    5.35
  -4  -4 -12   35.57    5.66
   4   4  12   27.55    5.13
   2  -5 -12   13.58    4.84
   2  -5 -12   14.42    5.41
   2  -5 -12    3.99    5.66
  -2   5  12    5.74    4.85
  -2   5  12    4.49    4.78
   1  -5 -12   18.47    3.61
   1  -5 -12   13.44    4.39
   1  -5 -12   20.33    4.90
   1  -5 -12    7.27    3.52
  -1   5  12    7.77    4.07
  -1   5  12   18.70    4.24
   0  -5 -12   33.43    4.70
   0  -5 -12   36.89    5.30
   0  -5 -12   29.85    4.59
   0   5  12   25.92    4.38
   0   5  12   22.67    4.32
  -1  -5 -12    4.96    3.61
  -1  -5 -12    1.36    3.72
  -1  -5 -12    5.54    3.58
   1   5  12    0.51    2.87
   1   5  12    1.00    3.19
  -2  -5 -12   50.24    7.16
  -2  -5 -12   57.29    6.86
  -2  -5 -12   54.42    5.15
   2   5  12   39.03    5.76
   2   5  12   52.06    5.75
  -3  -5 -12    2.00    4.25
  -3  -5 -12   -3.11    2.95
  -3  -5 -12    1.66    4.66
   3   5  12   -2.50    3.01
   3   5  12    0.79    3.49
  -4  -5 -12   22.38    3.25
  -4  -5 -12   24.34    5.39
  -4  -5 -12   30.08    5.34
   4   5  12   22.87    4.23
   2  -6 -12    0.55    4.61
   2  -6 -12   -5.98    5.87
   2  -6 -12    0.40    5.41
  -2   6  12   -5.26    4.88
  -2   6  12   10.22    5.08
   1  -6 -12   43.39    5.99
   1  -6 -12   44.83    5.55
   1  -6 -12   35.08    4.34
   1  -6 -12   34.69    4.92
  -1   6  12   22.42    4.70
  -1   6  12   35.63    4.74
   0  -6 -12    2.14    3.40
   0  -6 -12   -1.46    3.96
   0  -6 -12    1.88    3.89
   0   6  12    5.01    3.65
   0   6  12    3.33    3.66
  -1  -6 -12   37.54    4.55
  -1  -6 -12   24.77    3.96
  -1  -6 -12   24.62    4.33
   1   6  12   30.15    4.69
   1   6  12   25.02    4.09
  -2  -6 -12    5.52    4.24
  -2  -6 -12   11.34    4.53
  -2  -6 -12    2.55    3.92
   2   6  12    2.43    3.15
   2   6  12   -0.41    2.84
  -3  -6 -12   38.80    5.50
  -3  -6 -12   38.92    5.65
   3   6  12   35.78    4.49
  -4  -6 -12    2.94    4.82
  -4  -6 -12   13.90    5.34
   4   6  12    6.91    4.12
   2  -7 -12   17.30    5.70
   2  -7 -12   16.42    5.29
   2  -7 -12    9.48    5.65
  -2   7  12   19.62    5.60
  -2   7  12   12.51    5.20
   1  -7 -12   19.61    5.04
   1  -7 -12   29.26    5.90
  -1   7  12   30.46    4.72
  -1   7  12   19.37    4.97
   0  -7 -12   -1.51    3.99
   0  -7 -12    2.28    3.53
   0  -7 -12    7.43    3.50
   0   7  12    5.77    3.80
   0   7  12    9.81    4.14
  -1  -7 -12   71.04    6.92
  -1  -7 -12   63.20    6.94
   1   7  12   66.82    6.55
   1   7  12   77.84    7.47
  -2  -7 -12   10.04    4.20
  -2  -7 -12   -1.53    4.23
   2   7  12    3.49    3.45
   2   7  12   10.11    3.71
  -3  -7 -12   67.42    7.95
  -3  -7 -12   54.61    6.17
   3   7  12   52.26    4.85
   3   7  12   45.01    6.18
  -4  -7 -12   19.91    6.08
  -4  -7 -12   14.10    5.30
   1  -8 -12    5.46    4.64
   1  -8 -12   -0.08    4.92
  -1   8  12    0.15    4.32
  -1   8  12    3.96    4.88
   0  -8 -12   -5.47    4.24
   0  -8 -12   -2.51    4.97
   0   8  12   -2.45    4.21
   0   8  12   -1.37    3.71
  -1  -8 -12   11.44    4.20
  -1  -8 -12   28.46    6.18
   1   8  12   22.17    4.49
   1   8  12   18.40    4.34
  -2  -8 -12   -1.69    3.92
   2   8  12    3.37    3.42
   2   8  12    1.15    4.41
   2   8  12    0.03    3.56
  -3  -8 -12   41.12    5.73
   3   8  12   53.56    6.78
   3   8  12   57.46    5.71
   1  -9 -12   -0.29    5.63
   1  -9 -12   -4.31    5.53
  -1   9  12   -0.19    4.53
  -1   9  12    8.61    5.60
   0  -9 -12    1.23    4.31
   0   9  12    5.11    4.95
   0   9  12    3.64    4.36
  -1  -9 -12   15.72    4.47
   1   9  12   19.22    5.00
   1   9  12    6.27    4.25
  -2  -9 -12   19.28    4.90
   2   9  12   10.69    4.52
   2   9  12   16.77    4.29
   3   9  12    9.07    4.05
   0  10  12   86.80   10.37
   0  10  12   80.28    8.62
   1  10  12    2.68    4.82
   1  10  12    5.70    4.79
   1  10  12    1.00    5.85
   2  10  12   17.10    5.87
   0  -2 -13   17.72    5.68
  -1  -2 -13   29.45    6.39
  -1  -2 -13   29.29    5.00
  -2  -2 -13  -10.07    5.36
  -2  -2 -13   -5.36    5.68
   0  -3 -13    5.86    4.95
   0  -3 -13   27.03    7.75
   0   3  13   11.02    5.33
  -1  -3 -13   16.57    5.56
  -1  -3 -13    1.79    4.20
   1   3  13    1.60    4.67
  -2  -3 -13    5.22    5.41
  -2  -3 -13    0.54    5.46
   1  -4 -13    4.41    5.69
  -1   4  13   -0.36    5.32
   0  -4 -13   33.28    5.94
   0  -4 -13   40.25    5.73
   0   4  13   34.91    5.26
  -1  -4 -13   11.58    4.73
  -1  -4 -13   24.68    5.73
   1   4  13   -1.29    4.01
  -2  -4 -13   26.50    6.15
  -2  -4 -13   46.56    6.37
  -2  -4 -13   41.30    4.47
  -3  -4 -13    6.26    5.39
  -3  -4 -13   -7.20    6.25
   1  -5 -13    1.14    5.64
  -1   5  13    4.83    5.24
   0  -5 -13   33.16    6.08
   0  -5 -13   36.83    5.40
   0   5  13   29.76    5.18
  -1  -5 -13    2.92    4.57
  -1  -5 -13   -1.35    4.91
   1   5  13   15.30    4.30
  -2  -5 -13   63.08    9.30
  -2  -5 -13   56.63    6.38
   2   5  13   54.35    6.91
  -3  -5 -13  -12.04    5.32
  -3  -5 -13   -1.05    6.53
  -3  -5 -13   -4.31    4.53
   1  -6 -13   -0.09    6.32
  -1   6  13   -4.14    5.59
  -1   6  13   -3.37    4.91
   0  -6 -13    9.21    5.70
   0  -6 -13    0.59    5.12
   0   6  13    2.46    6.54
   0   6  13   -0.99    4.58
  -1  -6 -13    5.95    4.86
  -1  -6 -13    0.01    4.97
   1   6  13    4.42    4.13
  -2  -6 -13   -4.61    5.17
  -2  -6 -13    6.68    4.35
   2   6  13    0.94    3.87
  -3  -6 -13   -2.43    5.59
  -3  -6 -13   -0.66    4.56
   0  -7 -13   -3.41    5.23
   0   7  13   -6.09    4.76
   0   7  13   12.77    6.37
  -1  -7 -13   42.71    5.69
  -1  -7 -13   45.22    6.00
   1   7  13   33.81    5.32
  -2  -7 -13    0.66    5.13
  -2  -7 -13    0.95    4.70
   2   7  13   -2.36    4.73
   0  -8 -13   -6.59    5.46
   0   8  13    7.36    6.29
   0   8  13   -3.56    5.05
  -1  -8 -13   22.04    5.92
   1   8  13   24.86    5.39
   0   0   0    0.00    0.00
;
_shelx_hkl_checksum              61231
loop_
_space_group_symop_operation_xyz
'x, y, z'
'-x, -y, -z'
loop_
_atom_site_label
_atom_site_type_symbol
_atom_site_fract_x
_atom_site_fract_y
_atom_site_fract_z
_atom_site_U_iso_or_equiv
_atom_site_adp_type
_atom_site_occupancy
_atom_site_site_symmetry_order
_atom_site_calc_flag
_atom_site_refinement_flags_posn
_atom_site_refinement_flags_adp
_atom_site_refinement_flags_occupancy
Cu1 Cu 0.51711(6) 0.84504(4) 0.12926(4) 0.00961(11) Uani 1 1 d . . .
Cu2 Cu 1.0000 1.0000 0.0000 0.01017(13) Uani 1 2 d S . P
C1A C 0.9562(5) 0.7463(3) 0.4629(3) 0.0096(6) Uani 1 1 d . . .
C11A C 0.8833(5) 0.8163(3) 0.3122(3) 0.0102(6) Uani 1 1 d . . .
O11A O 0.6838(4) 0.7801(3) 0.2997(2) 0.0151(5) Uani 1 1 d . . .
O12A O 1.0278(4) 0.9056(3) 0.2101(2) 0.0144(5) Uani 1 1 d . . .
C2A C 0.8361(5) 0.6184(3) 0.5695(3) 0.0100(6) Uani 1 1 d . . .
H2A H 0.7132 0.5777 0.5458 0.012 Uiso 1 1 calc R U .
C3A C 0.8986(5) 0.5510(3) 0.7115(3) 0.0096(6) Uani 1 1 d . . .
C31A C 0.2311(5) 0.5882(4) 0.1738(3) 0.0110(6) Uani 1 1 d . . .
O31A O 0.3686(4) 0.6485(3) 0.2250(2) 0.0158(5) Uani 1 1 d . . .
O32A O 0.1960(4) 0.6343(3) 0.0439(2) 0.0137(5) Uani 1 1 d . . .
C4A C 1.0826(5) 0.6126(3) 0.7467(3) 0.0106(6) Uani 1 1 d . . .
H4A H 1.1260 0.5686 0.8409 0.013 Uiso 1 1 calc R U .
C5A C 1.2013(5) 0.7412(3) 0.6395(3) 0.0104(6) Uani 1 1 d . . .
C51A C 1.3892(6) 0.8055(4) 0.6791(3) 0.0128(6) Uani 1 1 d . . .
N51A N 1.5338(5) 0.8543(3) 0.7144(3) 0.0185(6) Uani 1 1 d . . .
C6A C 1.1420(5) 0.8085(3) 0.4967(3) 0.0106(6) Uani 1 1 d . . .
H6A H 1.2243 0.8928 0.4257 0.013 Uiso 1 1 calc R U .
O1W O 0.8029(4) 0.7887(3) -0.0269(2) 0.0157(5) Uani 1 1 d . . .
O1 O 1.3323(4) 0.9486(2) -0.0366(2) 0.0090(4) Uani 1 1 d . . .
H11W H 0.7527 0.7953 -0.1051 0.013 Uiso 1 1 d . U .
H12W H 0.9210 0.7264 -0.0171 0.013 Uiso 1 1 d . U .
H1 H 1.3480 0.8751 -0.0824 0.013 Uiso 1 1 d . U .
loop_
_atom_site_aniso_label
_atom_site_aniso_U_11
_atom_site_aniso_U_22
_atom_site_aniso_U_33
_atom_site_aniso_U_23
_atom_site_aniso_U_13
_atom_site_aniso_U_12
Cu1 0.0091(2) 0.01032(19) 0.00720(19) 0.00043(14) -0.00453(14) -0.00407(14)
Cu2 0.0072(3) 0.0146(3) 0.0059(3) -0.0003(2) -0.00297(19) -0.0022(2)
C1A 0.0099(15) 0.0096(14) 0.0081(14) -0.0018(11) -0.0023(11) -0.0018(11)
C11A 0.0130(15) 0.0107(14) 0.0073(14) -0.0036(11) -0.0023(11) -0.0003(12)
O11A 0.0148(12) 0.0168(12) 0.0100(11) 0.0016(9) -0.0088(9) -0.0074(9)
O12A 0.0115(11) 0.0196(12) 0.0073(10) 0.0005(9) -0.0035(8) -0.0039(9)
C2A 0.0081(14) 0.0121(15) 0.0107(14) -0.0044(12) -0.0038(11) -0.0015(11)
C3A 0.0100(15) 0.0104(14) 0.0093(14) -0.0037(12) -0.0048(11) -0.0005(11)
C31A 0.0093(15) 0.0134(15) 0.0089(14) -0.0025(12) -0.0030(11) 0.0000(12)
O31A 0.0177(12) 0.0153(11) 0.0113(11) 0.0008(9) -0.0074(9) -0.0084(9)
O32A 0.0143(11) 0.0166(11) 0.0088(11) -0.0022(9) -0.0048(9) -0.0037(9)
C4A 0.0115(15) 0.0138(15) 0.0068(14) -0.0035(12) -0.0035(11) -0.0015(12)
C5A 0.0090(14) 0.0125(15) 0.0119(15) -0.0060(12) -0.0039(11) -0.0026(12)
C51A 0.0139(16) 0.0141(15) 0.0119(15) -0.0058(12) -0.0038(12) -0.0031(12)
N51A 0.0172(15) 0.0236(16) 0.0159(14) -0.0082(12) -0.0029(11) -0.0055(12)
C6A 0.0106(15) 0.0130(15) 0.0074(14) -0.0032(12) -0.0012(11) -0.0026(12)
O1W 0.0155(12) 0.0198(12) 0.0143(11) -0.0089(10) -0.0061(9) 0.0042(9)
O1 0.0086(10) 0.0094(10) 0.0087(10) -0.0025(8) -0.0032(8) -0.0021(8)
loop_
_atom_type_symbol
_atom_type_description
_atom_type_scat_dispersion_real
_atom_type_scat_dispersion_imag
_atom_type_scat_source
C C 0.0033 0.0016 'International Tables Vol C Tables 4.2.6.8 and 6.1.1.4'
H H 0.0000 0.0000 'International Tables Vol C Tables 4.2.6.8 and 6.1.1.4'
N N 0.0061 0.0033 'International Tables Vol C Tables 4.2.6.8 and 6.1.1.4'
O O 0.0106 0.0060 'International Tables Vol C Tables 4.2.6.8 and 6.1.1.4'
Cu Cu 0.3201 1.2651 'International Tables Vol C Tables 4.2.6.8 and 6.1.1.4'
loop_
_geom_angle_atom_site_label_1
_geom_angle_atom_site_label_2
_geom_angle_atom_site_label_3
_geom_angle
_geom_angle_site_symmetry_1
_geom_angle_site_symmetry_3
O31A Cu1 O11A 85.52(9) . .
O31A Cu1 O1 101.72(9) . 1_455
O11A Cu1 O1 168.41(9) . 1_455
O31A Cu1 O1 177.72(9) . 2_775
O11A Cu1 O1 93.16(9) . 2_775
O1 Cu1 O1 79.30(9) 1_455 2_775
O31A Cu1 O1W 98.50(9) . .
O11A Cu1 O1W 98.74(9) . .
O1 Cu1 O1W 89.20(8) 1_455 .
O1 Cu1 O1W 83.52(8) 2_775 .
O12A Cu2 O12A 180.0 . 2_775
O12A Cu2 O1 91.96(9) . 2_775
O12A Cu2 O1 88.04(9) 2_775 2_775
O12A Cu2 O1 88.05(9) . .
O12A Cu2 O1 91.95(9) 2_775 .
O1 Cu2 O1 180.0 2_775 .
C2A C1A C6A 120.4(3) . .
C2A C1A C11A 119.3(3) . .
C6A C1A C11A 120.4(3) . .
O11A C11A O12A 126.4(3) . .
O11A C11A C1A 116.3(3) . .
O12A C11A C1A 117.3(3) . .
C11A O11A Cu1 130.4(2) . .
C11A O12A Cu2 127.5(2) . .
C3A C2A C1A 120.7(3) . .
C3A C2A H2A 119.6 . .
C1A C2A H2A 119.6 . .
C4A C3A C2A 119.4(3) . .
C4A C3A C31A 120.1(3) . 2_666
C2A C3A C31A 120.5(3) . 2_666
O32A C31A O31A 126.3(3) . .
O32A C31A C3A 119.7(3) . 2_666
O31A C31A C3A 114.0(3) . 2_666
C31A O31A Cu1 127.9(2) . .
C3A C4A C5A 119.5(3) . .
C3A C4A H4A 120.3 . .
C5A C4A H4A 120.3 . .
C6A C5A C4A 121.5(3) . .
C6A C5A C51A 119.8(3) . .
C4A C5A C51A 118.7(3) . .
N51A C51A C5A 177.9(3) . .
C5A C6A C1A 118.4(3) . .
C5A C6A H6A 120.8 . .
C1A C6A H6A 120.8 . .
Cu1 O1W H11W 112.8 . .
Cu1 O1W H12W 135.9 . .
H11W O1W H12W 104.3 . .
Cu2 O1 Cu1 120.25(10) . 1_655
Cu2 O1 Cu1 102.08(9) . 2_775
Cu1 O1 Cu1 100.70(9) 1_655 2_775
Cu2 O1 H1 110.5 . .
Cu1 O1 H1 100.9 1_655 .
Cu1 O1 H1 123.5 2_775 .
loop_
_geom_bond_atom_site_label_1
_geom_bond_atom_site_label_2
_geom_bond_distance
_geom_bond_site_symmetry_2
Cu1 O31A 1.918(2) .
Cu1 O11A 1.939(2) .
Cu1 O1 1.978(2) 1_455
Cu1 O1 1.999(2) 2_775
Cu1 O1W 2.303(2) .
Cu2 O12A 1.957(2) .
Cu2 O12A 1.957(2) 2_775
Cu2 O1 1.961(2) 2_775
Cu2 O1 1.961(2) .
C1A C2A 1.396(4) .
C1A C6A 1.397(4) .
C1A C11A 1.496(4) .
C11A O11A 1.254(4) .
C11A O12A 1.266(4) .
C2A C3A 1.396(4) .
C2A H2A 0.9300 .
C3A C4A 1.394(4) .
C3A C31A 1.512(4) 2_666
C31A O32A 1.240(4) .
C31A O31A 1.279(4) .
C31A C3A 1.512(4) 2_666
C4A C5A 1.398(4) .
C4A H4A 0.9300 .
C5A C6A 1.397(4) .
C5A C51A 1.451(4) .
C51A N51A 1.140(4) .
C6A H6A 0.9300 .
O1W H11W 0.8526 .
O1W H12W 0.8639 .
O1 Cu1 1.978(2) 1_655
O1 Cu1 1.999(2) 2_775
O1 H1 0.9800 .
loop_
_geom_hbond_atom_site_label_D
_geom_hbond_atom_site_label_H
_geom_hbond_atom_site_label_A
_geom_hbond_distance_DH
_geom_hbond_distance_HA
_geom_hbond_distance_DA
_geom_hbond_angle_DHA
_geom_hbond_site_symmetry_A
O1W H11W N51A 0.85 2.22 3.039(3) 161.9 1_454
O1W H12W O32A 0.86 1.82 2.639(3) 158.1 1_655
O1 H1 N51A 0.98 2.25 3.053(4) 138.9 1_554
O1 H1 O32A 0.98 2.29 2.905(3) 120.1 1_655
