#------------------------------------------------------------------------------
#$Date: 2019-11-23 09:14:20 +0200 (Sat, 23 Nov 2019) $
#$Revision: 232676 $
#$URL: file:///home/coder/svn-repositories/cod/cif/4/34/80/4348034.cif $
#------------------------------------------------------------------------------
#
# This file is available in the Crystallography Open Database (COD),
# http://www.crystallography.net/
#
# All data on this site have been placed in the public domain by the
# contributors.
#
data_4348034
loop_
_publ_author_name
'Axelson, Jordan C.'
'Gonzalez, Miguel I.'
'Meihaus, Katie R.'
'Chang, Christopher J.'
'Long, Jeffrey R.'
_publ_section_title
;
 Synthesis and Characterization of a Tetrapodal NO4(4-) Ligand and Its
 Transition Metal Complexes.
;
_journal_issue                   15
_journal_name_full               'Inorganic chemistry'
_journal_page_first              7527
_journal_page_last               7534
_journal_paper_doi               10.1021/acs.inorgchem.6b00908
_journal_volume                  55
_journal_year                    2016
_chemical_formula_moiety         'C13 H15 K2 N O11 Zn'
_chemical_formula_sum            'C13 H15 K2 N O11 Zn'
_chemical_formula_weight         504.84
_chemical_name_common            jaa19
_chemical_name_systematic        'K2[(C13H9NO8)Zn(H2O)] 2(H2O)'
_space_group_crystal_system      triclinic
_space_group_IT_number           2
_space_group_name_Hall           '-P 1'
_space_group_name_H-M_alt        'P -1'
_atom_sites_solution_hydrogens   mixed
_audit_creation_method           SHELXL-2014/7
_cell_angle_alpha                81.810(3)
_cell_angle_beta                 88.158(4)
_cell_angle_gamma                86.912(3)
_cell_formula_units_Z            2
_cell_length_a                   7.5984(16)
_cell_length_b                   10.346(2)
_cell_length_c                   10.831(7)
_cell_measurement_reflns_used    5164
_cell_measurement_temperature    100(2)
_cell_measurement_theta_max      25.45
_cell_measurement_theta_min      2.69
_cell_volume                     841.3(6)
_computing_cell_refinement       'Bruker APEX2 v. 2011.4'
_computing_data_collection       'Bruker APEX2 v. 2011.4'
_computing_data_reduction        'Bruker APEX2 v. 2011.4'
_computing_molecular_graphics    DIAMOND
_computing_publication_material  WinGX
_computing_structure_refinement  'SHELXL-2014/7 (Sheldrick, 2014)'
_computing_structure_solution    SIR-2004
_diffrn_ambient_temperature      100(2)
_diffrn_detector_area_resol_mean 8.366
_diffrn_measured_fraction_theta_full 0.997
_diffrn_measured_fraction_theta_max 0.994
_diffrn_measurement_device_type  'Bruker APEX-I CCD'
_diffrn_measurement_method       '\f and \w scans'
_diffrn_radiation_type           MoK\a
_diffrn_radiation_wavelength     0.71073
_diffrn_reflns_av_R_equivalents  0.0262
_diffrn_reflns_av_unetI/netI     0.0289
_diffrn_reflns_Laue_measured_fraction_full 0.997
_diffrn_reflns_Laue_measured_fraction_max 0.994
_diffrn_reflns_limit_h_max       9
_diffrn_reflns_limit_h_min       -9
_diffrn_reflns_limit_k_max       12
_diffrn_reflns_limit_k_min       -12
_diffrn_reflns_limit_l_max       13
_diffrn_reflns_limit_l_min       -13
_diffrn_reflns_number            21088
_diffrn_reflns_point_group_measured_fraction_full 0.997
_diffrn_reflns_point_group_measured_fraction_max 0.994
_diffrn_reflns_theta_full        25.000
_diffrn_reflns_theta_max         25.313
_diffrn_reflns_theta_min         1.900
_diffrn_source                   'fine-focus sealed tube'
_exptl_absorpt_coefficient_mu    2.019
_exptl_absorpt_correction_T_max  0.855
_exptl_absorpt_correction_T_min  0.712
_exptl_absorpt_correction_type   multi-scan
_exptl_absorpt_process_details
;
TWINABS-2012/1 (Bruker,2012) was used for absorption correction.
 
For component 1:
 wR2(int) was 0.0694 before and 0.0291 after correction.
 The Ratio of minimum to maximum transmission not present.
 The \l/2 correction factor is Not present
 
For component 2:
 wR2(int) was 0.0846 before and 0.0322 after correction.
 The Ratio of minimum to maximum transmission not present.
 The \l/2 correction factor is Not present

Final HKLF 4 output contains 21088 reflections, Rint = 0.0262
 (16796 with I > 3sig(I), Rint = 0.0254)
;
_exptl_crystal_colour            colorless
_exptl_crystal_density_diffrn    1.977
_exptl_crystal_description       block
_exptl_crystal_F_000             504
_exptl_crystal_size_max          0.180
_exptl_crystal_size_mid          0.160
_exptl_crystal_size_min          0.080
_refine_diff_density_max         0.726
_refine_diff_density_min         -0.606
_refine_diff_density_rms         0.084
_refine_ls_extinction_method     none
_refine_ls_goodness_of_fit_ref   1.073
_refine_ls_hydrogen_treatment    constr
_refine_ls_matrix_type           full
_refine_ls_number_parameters     276
_refine_ls_number_reflns         12504
_refine_ls_number_restraints     0
_refine_ls_restrained_S_all      1.073
_refine_ls_R_factor_all          0.0324
_refine_ls_R_factor_gt           0.0307
_refine_ls_shift/su_max          0.000
_refine_ls_shift/su_mean         0.000
_refine_ls_structure_factor_coef Fsqd
_refine_ls_weighting_details
'w=1/[\s^2^(Fo^2^)+(0.0356P)^2^+1.2899P] where P=(Fo^2^+2Fc^2^)/3'
_refine_ls_weighting_scheme      calc
_refine_ls_wR_factor_gt          0.0788
_refine_ls_wR_factor_ref         0.0802
_reflns_Friedel_coverage         0.000
_reflns_number_gt                11855
_reflns_number_total             12504
_reflns_threshold_expression     'I > 2\s(I)'
_cod_data_source_file            jaa19.cif
_cod_data_source_block           shelx
_cod_database_code               4348034
_shelx_shelxl_version_number     2014/7
_shelx_space_group_comment
;
The symmetry employed for this shelxl refinement is uniquely defined
by the following loop, which should always be used as a source of
symmetry information in preference to the above space-group names.
They are only intended as comments.
;
_shelx_estimated_absorpt_t_min   0.713
_shelx_estimated_absorpt_t_max   0.855
_shelx_res_file
;

    shelx.res created by SHELXL-2014/7

TITL twin4 in P-1
CELL  0.71073   7.5984  10.3465  10.8310   81.810   88.158   86.912
ZERR     2.00   0.0016   0.0021   0.0066    0.003    0.004    0.003
LATT   1
SFAC  C    H    N    O    K    ZN
UNIT  26 22 2 22 4 2
MERG   0
FMAP   2
PLAN   20
SIZE     0.080   0.160   0.180
ACTA    50.00
BOND   $H
LIST   4
WPDB  -2
L.S.   8
TEMP  -173.00
WGHT    0.035600    1.289900
BASF   0.39009
FVAR       0.78481   0.70307   0.74360
C1    1    0.630172    1.207479    0.747010    11.00000    0.01100    0.01037 =
         0.01230   -0.00536   -0.00085   -0.00333
C2    1    0.955889    1.148731    0.773082    11.00000    0.01193    0.01096 =
         0.00731   -0.00373    0.00187    0.00213
C3    1    0.834083    0.687565    0.763185    11.00000    0.00902    0.01016 =
         0.01168    0.00224    0.00175   -0.00275
C4    1    0.503224    0.749024    0.762157    11.00000    0.01395    0.00636 =
         0.01043    0.00228   -0.00239    0.00089
C5    1    0.854734    1.314820    0.592664    11.00000    0.01348    0.01001 =
         0.01271    0.00044    0.00061   -0.00171
AFIX 137
H5A   2    0.966197    1.301525    0.547033    11.00000   -1.50000
H5B   2    0.866339    1.383268    0.645374    11.00000   -1.50000
H5C   2    0.760598    1.341361    0.533164    11.00000   -1.50000
AFIX   0
C6    1    0.809898    1.188221    0.673899    11.00000    0.00889    0.00675 =
         0.01261   -0.00115   -0.00074   -0.00040
C7    1    0.782064    1.078586    0.595395    11.00000    0.00860    0.00917 =
         0.01154   -0.00198   -0.00201    0.00079
C8    1    0.787986    1.099692    0.465681    11.00000    0.01345    0.01091 =
         0.01354    0.00047    0.00216    0.00080
AFIX  43
H8    2    0.818630    1.181736    0.421458    11.00000   -1.20000
AFIX   0
C9    1    0.748127    0.998197    0.402740    11.00000    0.01341    0.01471 =
         0.00910   -0.00192    0.00102    0.00122
AFIX  43
H9    2    0.748140    1.011364    0.314125    11.00000   -1.20000
AFIX   0
C10   1    0.708266    0.877826    0.467159    11.00000    0.01236    0.01159 =
         0.01407   -0.00422    0.00048    0.00074
AFIX  43
H10   2    0.681171    0.807959    0.423955    11.00000   -1.20000
AFIX   0
C11   1    0.708810    0.861517    0.596920    11.00000    0.00589    0.01022 =
         0.01189   -0.00227   -0.00119    0.00023
C12   1    0.671194    0.730413    0.677595    11.00000    0.01166    0.00747 =
         0.00889    0.00008    0.00113   -0.00111
C13   1    0.640892    0.624810    0.596119    11.00000    0.01621    0.01148 =
         0.01242   -0.00329   -0.00286   -0.00110
AFIX 137
H13A  2    0.540968    0.652650    0.541967    11.00000   -1.50000
H13B  2    0.615367    0.542934    0.649493    11.00000   -1.50000
H13C  2    0.746931    0.611197    0.544705    11.00000   -1.50000
AFIX   0
N1    3    0.742211    0.962272    0.657605    11.00000    0.00682    0.00795 =
         0.00916   -0.00176   -0.00073    0.00100
O2    4    0.600494    1.122034    0.842933    11.00000    0.01201    0.00986 =
         0.01316   -0.00068    0.00220   -0.00120
O1    4    0.951413    1.038380    0.841665    11.00000    0.01031    0.01047 =
         0.01079    0.00013   -0.00157   -0.00238
O4    4    0.870015    0.758784    0.843537    11.00000    0.01403    0.01043 =
         0.01267   -0.00442   -0.00368    0.00048
O3    4    0.505755    0.833089    0.838351    11.00000    0.01075    0.01372 =
         0.01319   -0.00466    0.00242   -0.00341
O6    4    0.528891    1.299707    0.708380    11.00000    0.01307    0.01284 =
         0.02547    0.00306    0.00104    0.00393
O5    4    1.066863    1.229543    0.784373    11.00000    0.01451    0.01198 =
         0.02294   -0.00026   -0.00708   -0.00413
O8    4    0.917858    0.584109    0.748273    11.00000    0.01598    0.01202 =
         0.02188   -0.00640   -0.00392    0.00462
O7    4    0.376564    0.682869    0.753206    11.00000    0.01167    0.01397 =
         0.01800   -0.00373   -0.00033   -0.00418
O9    4    0.708698    0.909846    1.045087    11.00000    0.00768    0.01632 =
         0.01131    0.00054    0.00052   -0.00102
AFIX   3
H9X   2    0.598111    0.893242    1.079080    11.00000   -1.20000
H9Y   2    0.792311    0.866444    1.075881    11.00000   -1.20000
AFIX   0
O10   4    0.262800    0.586359    1.061172    31.00000    0.03807    0.04893 =
         0.08692    0.04517    0.02032    0.01263
O10A  4    0.111561    0.574718    1.023659   -31.00000    0.01710    0.01529 =
         0.01763    0.00818   -0.00058   -0.00043
O11   4    0.369250    0.396953    0.953783    11.00000    0.08883    0.05597 =
         0.05194    0.00270    0.00656    0.00859
K1    5    0.177090    0.827937    0.941230    11.00000    0.01318    0.01360 =
         0.01280   -0.00217    0.00007   -0.00059
K2    5    0.236747    0.456550    0.724596    21.00000    0.01320    0.01029 =
         0.02300   -0.00287    0.00015   -0.00098
K2A   5    0.233698    0.454232    0.805303   -21.00000    0.01660    0.01326 =
         0.03868   -0.00329   -0.00095   -0.00333
ZN1   6    0.725809    0.933832    0.852729    11.00000    0.01094    0.00829 =
         0.00842   -0.00135   -0.00051   -0.00105
HKLF    5

REM  twin4 in P-1
REM R1 =  0.0307 for   11855 Fo > 4sig(Fo)  and  0.0324 for all   12504 data
REM    276 parameters refined using      0 restraints

END

WGHT      0.0356      1.2899

REM Highest difference peak  0.726,  deepest hole -0.606,  1-sigma level  0.084
Q1    1   0.2416  0.5383  1.0153  11.00000  0.05    0.73
Q2    1   0.2770  0.6116  1.0727  11.00000  0.05    0.70
Q3    1   0.6432  0.6802  0.6399  11.00000  0.05    0.48
Q4    1   0.6892  0.7828  0.6402  11.00000  0.05    0.46
Q5    1   0.1291  0.5255  0.9615  11.00000  0.05    0.37
Q6    1   0.8482  0.9758  0.8468  11.00000  0.05    0.37
Q7    1   0.8284  1.2506  0.6387  11.00000  0.05    0.36
Q8    1   0.7600  1.1012  0.5350  11.00000  0.05    0.36
Q9    1   0.7301  0.9654  0.2388  11.00000  0.05    0.35
Q10   1   0.5936  0.8965  0.8510  11.00000  0.05    0.34
Q11   1   0.6649  0.6426  0.8519  11.00000  0.05    0.34
Q12   1   0.7895  1.1385  0.6349  11.00000  0.05    0.34
Q13   1   0.8861  1.1637  0.6998  11.00000  0.05    0.33
Q14   1   0.7579  0.7169  0.7044  11.00000  0.05    0.33
Q15   1   0.3333  0.6785  0.9370  11.00000  0.05    0.33
Q16   1   0.7202  1.1934  0.6929  11.00000  0.05    0.32
Q17   1   0.6020  0.7405  0.7247  11.00000  0.05    0.32
Q18   1   0.7974  1.2284  0.8489  11.00000  0.05    0.32
Q19   1   0.5959  0.9864  0.8505  11.00000  0.05    0.30
Q20   1   0.8318  0.8859  0.8555  11.00000  0.05    0.29
;
_shelx_res_checksum              66399
_shelx_hkl_file
;
   1   0   0 39.1236 1.64157  -2
  -1   0   0 39.1236 1.64157   1
   2   0   0 9999.99 189.136  -2
  -2   0   0 9999.99 189.136   1
   2   0   0 5812.26 113.491   1
  -3   0   0 11.5614 1.56093   1
  -3   0   0 11.0534 1.55847   1
   3   0   0 11.4335 1.01744   1
  -4   0   0 1160.41 25.9523   1
  -4   0   0 1163.73 26.2265   1
   4   0   0 1123.87 24.0524   1
  -5   0   0 164.213 7.09482   1
  -5   0   0 150.834 7.17868   1
   5   0   0 159.260 5.46707   1
  -6   0   0 158.184 7.35919   1
  -6   0   0 141.886 7.48119   1
   6   0   0 145.711 5.64332   1
  -7   0   0 0.19607 1.39480   1
   7   0   0 0.58272 1.00130   1
  -8   0   0 60.1255 6.11790   1
   8   0   0 63.4324 4.29322   1
  -9   0   0 670.979 23.5647   1
   9   0   0 685.420 24.7128   1
   9   0   0 685.788 18.9454   1
   9  -1   0 446.190 14.8352   1
   9  -1   0 426.550 18.9925   1
  -9   1   0 434.551 18.3932   1
   8  -1   0 18.1007 2.89791   1
  -8   1   0 17.7298 3.90328   1
   7  -1   0 81.9728 4.90377   1
  -7   1   0 80.0526 6.29156   1
  -6   1   0 1003.03 24.4555  -2
   6  -1   0 1003.03 24.4555   1
   6  -1   0 1014.15 26.5613  -2
  -6   1   0 1014.15 26.5613   1
   6  -1   0 1109.13 26.7065  -2
  -6   1   0 1109.13 26.7065   1
  -5   1   0 -0.4214 1.30522  -2
   5  -1   0 -0.4214 1.30522   1
   5  -1   0 -1.0619 1.66923  -2
  -5   1   0 -1.0619 1.66923   1
   5  -1   0 1.61876 1.69777  -2
  -5   1   0 1.61876 1.69777   1
  -4   1   0 7689.23 146.801  -2
   4  -1   0 7689.23 146.801   1
   4  -1   0 7499.02 145.352  -2
  -4   1   0 7499.02 145.352   1
   4  -1   0 7375.64 141.937  -2
  -4   1   0 7375.64 141.937   1
   3  -1   0 7.72168 1.06690   1
   3  -1   0 13.2607 1.77574  -2
  -3   1   0 13.2607 1.77574   1
   2  -1   0 1838.47 37.9565   1
   2  -1   0 3257.42 63.7884  -2
  -2   1   0 3257.42 63.7884   1
   1  -1   0 120.885 3.66093   1
  -1   1   0 127.826 3.06686   1
  -1   1   0 131.895 3.04208   1
  -1   1   0 131.669 3.85584   1
  -1   1   0 122.082 3.61277   1
   0  -1   0 2962.05 52.2498   1
   0  -1   0 2809.97 53.5568   1
   0  -1   0 2958.54 52.2237   1
   0  -1   0 2860.19 57.1504   1
   0  -1   0 2988.52 53.1378   1
   0  -1   0 2909.55 56.6785   1
   0   1   0 2960.35 55.3945   1
   0   1   0 2943.66 52.4198   1
   0   1   0 2910.96 51.5247   1
  -1  -1   0 109.920 3.26657   1
  -1  -1   0 108.589 2.89976   1
   1   1   0 110.070 3.29688   1
  -2  -1   0 560.119 12.5965   1
  -2  -1   0 591.730 13.0719   1
  -3  -1   0 770.690 17.6736   1
  -3  -1   0 802.669 17.9431   1
  -4  -1   0 72.2446 4.11436   1
  -4  -1   0 71.8982 3.93455   1
  -5  -1   0 732.256 19.2056   1
  -5  -1   0 738.987 18.7548   1
  -6  -1   0 327.250 11.1552   1
  -6  -1   0 313.114 11.5845   1
  -7  -1   0 989.980 26.8713   1
   8   1   1 171.029 9.77969  -2
  -8  -1   0 171.029 9.77969   1
   9   1   1 814.225 25.9276  -2
  -9  -1   0 814.225 25.9276   1
  -9  -1  -1 825.469 20.5954  -2
   9   1   0 825.469 20.5954   1
  -8   2   0 952.770 24.9893  -2
   8  -2   0 952.770 24.9893   1
   8  -2   0 873.523 26.8613  -2
  -8   2   0 873.523 26.8613   1
  -7   2   0 5.38886 2.58003  -2
   7  -2   0 5.38886 2.58003   1
   7  -2   0 3.11612 2.75364  -2
  -7   2   0 3.11612 2.75364   1
   6  -2   0 5759.12 115.683   1
   6  -2   0 9705.91 189.046  -2
  -6   2   0 9705.91 189.046   1
   5  -2   0 96.9404 4.97841   1
   5  -2   0 167.694 7.75839  -2
  -5   2   0 167.694 7.75839   1
   4  -2   0 5100.25 101.550   1
  -4   2   0 5053.20 101.434   1
  -4   2   0 5168.70 98.6702   1
   3  -2   0 1.41077 0.75889   1
  -3   2   0 0.72287 0.73813   1
  -3   2   0 1.82624 0.89858   1
   2  -2   0 6305.76 111.153   1
   2  -2   0 6435.57 112.225   1
   2  -2   0 6141.19 121.766   1
  -2   2   0 6274.28 119.823   1
  -2   2   0 6180.53 111.299   1
  -2   2   0 6218.85 110.463   1
  -2   2   0 6197.13 116.418   1
   1  -2   0 62.1064 2.48857   1
   1  -2   0 61.5037 2.83664   1
   1  -2   0 58.7289 2.49252   1
   1  -2   0 62.6212 2.50903   1
  -1   2   0 65.6693 2.38732   1
  -1   2   0 60.2532 2.48601   1
  -1   2   0 64.1278 2.36220   1
  -1   2   0 61.8150 2.86985   1
   0  -2   0 5.22771 0.66476   1
   0  -2   0 6.04944 0.73958   1
   0  -2   0 5.58744 0.76555   1
   0  -2   0 5.42847 0.81496   1
   0  -2   0 7.18717 0.91176   1
   0  -2   0 6.02361 0.54148   1
   0   2   0 6.43978 0.71743   1
   0   2   0 4.97945 0.86125   1
   0   2   0 5.56740 0.68385   1
  -1  -2   0 97.3955 2.53531   1
   1   2   0 96.0749 3.06010   1
   1   2   0 99.3622 3.62350   1
  -2  -2   0 637.869 13.5626   1
  -2  -2   0 643.095 14.6744   1
   2   2   0 631.610 14.6708   1
  -3  -2   0 3535.32 68.0371   1
  -3  -2   0 3326.54 65.8936   1
   3   2   0 3498.10 68.1374   1
   4   2   1 2682.17 54.4084  -2
  -4  -2   0 2682.17 54.4084   1
   5   2   1 861.502 21.1773  -2
  -5  -2   0 861.502 21.1773   1
   5   2   1 858.023 21.2458  -2
  -5  -2   0 858.023 21.2458   1
   6   2   1 39.7144 3.68589  -2
  -6  -2   0 39.7144 3.68589   1
   6   2   1 44.2444 3.73615  -2
  -6  -2   0 44.2444 3.73615   1
   7   2   1 441.268 15.2401  -2
  -7  -2   0 441.268 15.2401   1
   8   2   1 178.121 9.72844  -2
  -8  -2   0 178.121 9.72844   1
   9   2   1 3.39459 4.56140  -2
  -9  -2   0 3.39459 4.56140   1
   8  -3   0 370.850 16.3888   1
   8  -3   0 329.710 13.2866   1
  -8   3   0 352.933 15.6879   1
   7  -3   0 16.3365 2.99507   1
  -7   3   0 16.8847 3.66267   1
   6  -3   0 556.850 16.7620   1
  -6   3   0 559.684 18.4297   1
  -6   3   0 556.337 17.9713   1
   5  -3   0 22.9779 2.70099   1
  -5   3   0 18.5838 2.90201   1
  -5   3   0 26.2612 3.34209   1
   4  -3   0 152.757 6.49771   1
  -4   3   0 146.170 7.16942   1
  -4   3   0 155.306 6.99555   1
   3  -3   0 273.546 9.08244   1
   3  -3   0 287.633 8.14227   1
   3  -3   0 286.536 8.11979   1
  -3   3   0 290.906 7.01335   1
  -3   3   0 288.750 7.25503   1
  -3   3   0 305.158 7.53598   1
  -3   3   0 286.946 9.70848   1
  -3   3   0 272.035 9.06703   1
  -3   3   0 290.950 7.43083   1
   2  -3   0 531.543 12.3510   1
   2  -3   0 536.380 12.3410   1
   2  -3   0 523.812 13.7335   1
   2  -3   0 529.594 12.8187   1
  -2   3   0 525.845 12.8652   1
  -2   3   0 518.949 11.6929   1
  -2   3   0 530.891 13.8603   1
  -2   3   0 520.076 11.6939   1
   1  -3   0 1232.85 24.6041   1
   1  -3   0 1255.21 27.0587   1
   1  -3   0 1238.50 24.4999   1
   1  -3   0 1253.72 25.0465   1
   1  -3   0 1225.66 24.8054   1
  -1   3   0 1256.41 24.1492   1
  -1   3   0 1234.62 24.2656   1
  -1   3   0 1212.73 26.4574   1
  -1   3   0 1221.35 24.7630   1
   0   3   1 662.629 14.5959  -2
   0  -3   0 662.629 14.5959   1
   0   3   0 169.433 4.82737   1
   0   3   0 169.503 5.76644   1
   0   3   0 174.680 4.83363   1
   1   3   1 4252.25 75.7732  -2
  -1  -3   0 4252.25 75.7732   1
   1   3   1 4271.23 74.9230  -2
  -1  -3   0 4271.23 74.9230   1
   1   3   1 4079.16 74.3930  -2
  -1  -3   0 4079.16 74.3930   1
  -1  -3  -1 4098.53 81.1779  -2
   1   3   0 4098.53 81.1779   1
   2   3   1 1407.89 27.4454  -2
  -2  -3   0 1407.89 27.4454   1
  -2  -3  -1 1446.73 30.2541  -2
   2   3   0 1446.73 30.2541   1
  -2  -3  -1 1371.81 28.8934  -2
   2   3   0 1371.81 28.8934   1
  -3  -3   0 4015.92 75.9493   1
  -3  -3  -1 5754.31 102.618  -2
   3   3   0 5754.31 102.618   1
  -3  -3  -1 4733.79 101.690  -2
   3   3   0 4733.79 101.690   1
  -4  -3   0 259.048 8.31195   1
  -4  -3   0 267.735 8.93604   1
   4   3   0 252.144 8.92158   1
  -5  -3   0 929.255 22.8041   1
  -5  -3   0 925.704 22.2798   1
   5   3   0 907.309 23.0336   1
  -6  -3   0 99.7410 5.78441   1
  -6  -3   0 95.8202 5.71337   1
   6   3   0 99.0704 5.99474   1
  -7  -3   0 470.874 15.8475   1
  -8  -3   0 1.74898 1.63987   1
   8  -4   0 1061.92 29.6582   1
   8  -4   0 1060.89 32.2875   1
  -8   4   0 1010.60 30.9813   1
   7  -4   0 -0.0696 1.20709   1
   7  -4   0 0.15305 1.30741   1
  -7   4   0 -0.3061 1.47420   1
   6  -4   0 460.295 15.5042   1
   6  -4  -1 460.602 16.7927  -2
  -6   4   0 460.602 16.7927   1
   5  -4   0 66.4239 4.82770   1
   5  -4  -1 189.853 9.35143  -2
  -5   4   0 189.853 9.35143   1
  -4   4   1 537.466 15.6964  -2
   4  -4   0 537.466 15.6964   1
   4  -4  -1 518.249 11.9196  -2
  -4   4   0 518.249 11.9196   1
   4  -4  -1 522.507 11.2490  -2
  -4   4   0 522.507 11.2490   1
   4  -4  -1 521.239 16.1017  -2
  -4   4   0 521.239 16.1017   1
   4  -4  -1 520.780 15.1757  -2
  -4   4   0 520.780 15.1757   1
  -3   4   1 2861.85 56.2074  -2
   3  -4   0 2861.85 56.2074   1
  -3   4   1 2881.34 61.6831  -2
   3  -4   0 2881.34 61.6831   1
  -3   4   1 2900.53 55.9157  -2
   3  -4   0 2900.53 55.9157   1
  -3   4   1 2962.62 60.5011  -2
   3  -4   0 2962.62 60.5011   1
   3  -4  -1 2984.91 54.9187  -2
  -3   4   0 2984.91 54.9187   1
   3  -4  -1 2999.12 55.1445  -2
  -3   4   0 2999.12 55.1445   1
   3  -4  -1 3024.51 61.4355  -2
  -3   4   0 3024.51 61.4355   1
   3  -4  -1 2921.41 58.7055  -2
  -3   4   0 2921.41 58.7055   1
  -2   4   1 2219.72 42.8027  -2
   2  -4   0 2219.72 42.8027   1
  -2   4   1 2175.47 46.9417  -2
   2  -4   0 2175.47 46.9417   1
  -2   4   1 2229.80 42.4689  -2
   2  -4   0 2229.80 42.4689   1
  -2   4   1 2277.53 46.0834  -2
   2  -4   0 2277.53 46.0834   1
   2  -4  -1 2179.06 46.3604  -2
  -2   4   0 2179.06 46.3604   1
   2  -4  -1 2184.45 41.9532  -2
  -2   4   0 2184.45 41.9532   1
   2  -4  -1 2176.06 42.1732  -2
  -2   4   0 2176.06 42.1732   1
   2  -4  -1 2148.99 43.6411  -2
  -2   4   0 2148.99 43.6411   1
  -1   4   1 3088.29 58.6978  -2
   1  -4   0 3088.29 58.6978   1
  -1   4   1 3121.34 62.9027  -2
   1  -4   0 3121.34 62.9027   1
   1  -4  -1 3119.90 62.8278  -2
  -1   4   0 3119.90 62.8278   1
   0  -4   0 227.983 5.65361   1
   0  -4   0 230.796 6.61050   1
   0  -4   0 228.846 6.47163   1
   0  -4   0 239.759 7.68503   1
   0  -4   0 224.633 6.54736   1
   0  -4   0 232.462 6.90138   1
   0   4   0 231.644 6.55079   1
   0   4   0 222.460 7.66990   1
   0   4   0 226.664 6.50168   1
  -1  -4   0 229.986 5.61942   1
  -1  -4   0 230.198 5.66226   1
  -1  -4   0 227.285 5.87786   1
  -1  -4   0 222.386 6.31422   1
  -1  -4   0 234.396 5.40203   1
   1   4   0 220.689 7.73045   1
   1   4   0 234.459 6.17819   1
   1   4   0 225.471 6.00702   1
   1   4   0 227.723 6.21562   1
  -2  -4   0 205.434 5.07358   1
   2   4   0 195.936 7.25298   1
   2   4   0 193.948 6.31772   1
  -3  -4   0 810.960 17.1082   1
   3   4   0 782.627 17.6265   1
   3   4   0 757.560 19.5063   1
  -4  -4   0 2.00955 0.95267   1
   4   4   0 1.01312 0.60387   1
   4   4   0 1.43821 1.01583   1
  -5  -4   0 1.54916 1.05964   1
   5   4   0 0.06508 1.01265   1
  -6  -4   0 231.191 9.15654   1
   6   4   0 224.782 9.76953   1
  -7  -4   0 125.445 7.27017   1
  -8  -4   0 348.663 14.0626   1
  -8   5   1 44.9022 6.29217  -2
   8  -5   0 44.9022 6.29217   1
  -8   5   1 35.2217 5.00854  -2
   8  -5   0 35.2217 5.00854   1
   8  -5  -1 36.2689 6.47439  -2
  -8   5   0 36.2689 6.47439   1
  -7   5   1 853.588 25.6563  -2
   7  -5   0 853.588 25.6563   1
  -7   5   1 914.168 27.3720  -2
   7  -5   0 914.168 27.3720   1
  -7   5   1 873.447 23.3797  -2
   7  -5   0 873.447 23.3797   1
   7  -5  -1 816.260 25.4735  -2
  -7   5   0 816.260 25.4735   1
  -6   5   1 161.812 7.45319  -2
   6  -5   0 161.812 7.45319   1
  -6   5   1 139.578 8.31602  -2
   6  -5   0 139.578 8.31602   1
   6  -5  -1 142.911 8.36033  -2
  -6   5   0 142.911 8.36033   1
   6  -5  -1 152.912 8.80923  -2
  -6   5   0 152.912 8.80923   1
  -5   5   1 651.472 17.9919  -2
   5  -5   0 651.472 17.9919   1
  -5   5   1 650.028 19.7654  -2
   5  -5   0 650.028 19.7654   1
   5  -5  -1 637.463 20.2700  -2
  -5   5   0 637.463 20.2700   1
   5  -5  -1 679.296 14.4322  -2
  -5   5   0 679.296 14.4322   1
   5  -5  -1 659.343 19.3735  -2
  -5   5   0 659.343 19.3735   1
   4  -5   0 165.796 7.73462   1
   4  -5   0 164.316 6.93703   1
   4  -5   0 145.864 7.59417   1
  -4   5   0 154.625 7.56026   1
  -4   5   0 166.999 5.90776   1
  -4   5   0 164.842 5.60143   1
  -4   5   0 166.469 8.40029   1
   3  -5   0 860.065 19.8397   1
   3  -5   0 820.451 20.5598   1
   3  -5   0 811.446 19.7551   1
   3  -5   0 818.415 20.5670   1
   3  -5   0 837.118 22.1302   1
  -3   5   0 822.019 18.4953   1
  -3   5   0 825.074 20.4688   1
  -3   5   0 829.318 22.0165   1
  -3   5   0 819.420 18.6834   1
   2  -5   0 549.596 14.3728   1
   2  -5   0 553.293 14.2190   1
   2  -5   0 558.273 16.0833   1
   2  -5   0 570.766 14.8822   1
   2  -5   0 567.211 14.7445   1
   2  -5   0 555.167 14.3869   1
  -2   5   0 557.779 13.7770   1
  -2   5   0 554.384 13.7200   1
  -2   5   0 573.279 14.3504   1
  -2   5   0 560.982 16.0372   1
   1  -5   0 5527.99 109.075   1
   1  -5   0 5479.96 102.551   1
   1  -5   0 5374.22 101.403   1
   1  -5   0 5554.73 100.967   1
   1  -5   0 5542.86 100.164   1
   1  -5   0 5560.77 109.871   1
  -1   5   0 5528.03 100.605   1
  -1   5   0 5409.91 99.6542   1
  -1   5   0 5363.31 107.874   1
   0  -5   0 53.5711 2.98903   1
   0  -5   0 53.8971 3.26713   1
   0  -5   0 52.5572 3.01691   1
   0  -5   0 53.3733 2.71700   1
   0  -5   0 57.5013 3.66819   1
   0  -5   0 54.2873 2.34736   1
   0   5   0 53.7272 3.01707   1
   0   5   0 55.9700 3.11924   1
   0   5   0 45.6633 3.54501   1
  -1  -5   0 1307.08 24.9605   1
  -1  -5   0 1292.46 25.0730   1
  -1  -5   0 1278.27 25.2110   1
  -1  -5   0 1298.42 26.2063   1
  -1  -5   0 1273.17 24.6779   1
   1   5   0 1288.02 25.9153   1
   1   5   0 1282.06 25.7261   1
   1   5   0 1252.20 29.1851   1
  -2  -5   0 42.9151 1.71444   1
   2   5   0 42.3580 3.41675   1
   2   5   0 37.7907 2.77167   1
  -3  -5   0 165.223 5.00844   1
   3   5   0 158.963 5.95766   1
   3   5   0 152.714 7.02833   1
  -4  -5   0 193.416 6.38125   1
   4   5   0 178.495 8.04597   1
   4   5   0 181.437 6.43762   1
  -5  -5   0 64.0485 4.06132   1
  -5  -5  -2 937.760 24.9938  -2
   5   5   0 937.760 24.9938   1
  -6  -5  -2 469.154 15.5473  -2
   6   5   0 469.154 15.5473   1
  -6  -5  -2 366.990 10.3224  -2
   6   5   0 366.990 10.3224   1
   7  -6   0 125.517 7.45785   1
   7  -6   0 129.562 9.27828   1
   7  -6   0 129.802 8.75603   1
  -7   6   0 115.584 8.97966   1
   6  -6   0 119.422 8.24470   1
   6  -6   0 114.670 7.88446   1
   6  -6   0 114.693 6.76021   1
  -6   6   0 124.544 8.65374   1
  -6   6   0 116.691 8.10192   1
   5  -6   0 643.036 19.7255   1
   5  -6   0 606.600 20.0029   1
   5  -6   0 635.798 18.3850   1
  -5   6   0 631.863 20.7053   1
  -5   6   0 636.313 15.1704   1
  -5   6   0 633.960 19.4610   1
   4  -6   0 46.6859 4.13119   1
   4  -6   0 46.4311 4.47515   1
   4  -6   0 43.1972 3.73499   1
  -4   6   0 43.0287 3.17686   1
  -4   6   0 42.9180 4.24425   1
  -4   6   0 44.4964 4.53124   1
  -4   6   0 45.8058 3.17619   1
   3  -6   0 125.525 6.14596   1
   3  -6   0 130.666 6.57203   1
   3  -6   0 124.730 6.13486   1
   3  -6   0 116.256 5.94816   1
   3  -6   0 122.219 6.90395   1
   3  -6   0 124.164 6.18862   1
  -3   6   0 125.281 7.17931   1
  -3   6   0 127.443 6.26596   1
  -3   6   0 126.832 5.67089   1
  -3   6   0 118.619 5.44468   1
   2  -6   0 15.5350 2.07988   1
   2  -6   0 21.2552 2.90400   1
   2  -6   0 20.4084 2.58585   1
   2  -6   0 21.9893 2.47176   1
   2  -6   0 23.1300 2.73958   1
   2  -6   0 22.3525 2.31482   1
  -2   6   0 21.3492 2.33568   1
  -2   6   0 23.3690 2.49001   1
  -2   6   0 18.3215 2.30969   1
  -2   6   0 17.8889 2.73918   1
   1  -6   0 5.81567 1.40275   1
   1  -6   0 7.70751 1.72462   1
   1  -6   0 7.86406 2.16338   1
   1  -6   0 7.19167 1.26094   1
   1  -6   0 9.14719 1.63300   1
   1  -6   0 4.70400 1.39902   1
  -1   6   0 6.46343 1.57124   1
  -1   6   0 6.09954 1.58725   1
  -1   6   0 5.96777 1.71185   1
   0  -6   0 302.259 9.46813   1
   0  -6   0 294.545 8.50021   1
   0  -6   0 308.022 9.03499   1
   0  -6   0 310.276 7.83366   1
   0  -6   0 302.799 9.11101   1
   0  -6   0 322.554 10.7059   1
   0   6   0 306.527 10.9011   1
   0   6   0 315.941 9.22558   1
   0   6   0 308.829 9.24328   1
   1   6   2 896.594 18.8157  -2
  -1  -6   0 896.594 18.8157   1
   1   6   2 894.090 19.0223  -2
  -1  -6   0 894.090 19.0223   1
   1   6   0 5.22873 1.39735   1
   1   6   0 4.56669 1.22788   1
   1   6   0 8.49645 1.91633   1
   2   6   2 1115.34 22.8060  -2
  -2  -6   0 1115.34 22.8060   1
  -2  -6  -2 1125.75 23.9473  -2
   2   6   0 1125.75 23.9473   1
  -2  -6  -2 1066.86 27.1645  -2
   2   6   0 1066.86 27.1645   1
  -3  -6  -2 1220.24 29.9338  -2
   3   6   0 1220.24 29.9338   1
  -4  -6  -2 435.571 14.6877  -2
   4   6   0 435.571 14.6877   1
  -5  -6  -2 396.825 14.2310  -2
   5   6   0 396.825 14.2310   1
   6   6   0 1053.65 28.4390   1
   7  -7   0 678.739 21.4879   1
   7  -7   0 632.661 22.9118   1
   7  -7   0 696.772 23.8120   1
  -7   7   0 670.930 23.2765   1
   6  -7   0 29.9380 4.46617   1
   6  -7   0 27.1990 4.26278   1
   6  -7   0 22.1222 3.51258   1
  -6   7   0 17.4317 3.86012   1
  -6   7   0 28.1644 4.50468   1
   5  -7   0 626.441 19.9034   1
   5  -7   0 645.053 19.4239   1
   5  -7   0 655.942 21.3242   1
  -5   7   0 633.213 15.5363   1
  -5   7   0 667.578 20.1744   1
  -5   7   0 641.421 21.6424   1
  -5   7   0 625.784 16.1401   1
   4  -7   0 90.0140 5.82126   1
   4  -7   0 105.538 7.07572   1
   4  -7   0 103.433 6.33228   1
   4  -7  -2 106.951 7.62883  -2
  -4   7   0 106.951 7.62883   1
  -3   7   2 2454.42 54.8992  -2
   3  -7   0 2454.42 54.8992   1
  -3   7   2 2328.88 52.3589  -2
   3  -7   0 2328.88 52.3589   1
  -3   7   2 2369.96 50.3082  -2
   3  -7   0 2369.96 50.3082   1
  -3   7   2 2463.67 49.3336  -2
   3  -7   0 2463.67 49.3336   1
  -3   7   2 2427.98 49.4809  -2
   3  -7   0 2427.98 49.4809   1
   3  -7  -2 2396.44 54.2863  -2
  -3   7   0 2396.44 54.2863   1
   3  -7  -2 2322.38 47.9707  -2
  -3   7   0 2322.38 47.9707   1
   3  -7  -2 2370.92 48.2491  -2
  -3   7   0 2370.92 48.2491   1
  -2   7   2 93.3412 6.34035  -2
   2  -7   0 93.3412 6.34035   1
  -2   7   2 106.570 5.27334  -2
   2  -7   0 106.570 5.27334   1
  -2   7   2 89.3120 5.54483  -2
   2  -7   0 89.3120 5.54483   1
  -2   7   2 90.6170 5.42584  -2
   2  -7   0 90.6170 5.42584   1
  -2   7   2 100.535 5.55719  -2
   2  -7   0 100.535 5.55719   1
  -2   7   2 92.9594 5.50500  -2
   2  -7   0 92.9594 5.50500   1
   2  -7  -2 99.0474 5.44389  -2
  -2   7   0 99.0474 5.44389   1
   2  -7  -2 97.7091 6.56436  -2
  -2   7   0 97.7091 6.56436   1
   2  -7  -2 93.2410 5.45964  -2
  -2   7   0 93.2410 5.45964   1
  -1   7   2 310.179 10.0352  -2
   1  -7   0 310.179 10.0352   1
  -1   7   2 307.752 10.0013  -2
   1  -7   0 307.752 10.0013   1
  -1   7   2 303.233 10.4058  -2
   1  -7   0 303.233 10.4058   1
  -1   7   2 310.515 9.93226  -2
   1  -7   0 310.515 9.93226   1
   1  -7  -2 302.323 11.8328  -2
  -1   7   0 302.323 11.8328   1
   1  -7  -2 304.128 10.0134  -2
  -1   7   0 304.128 10.0134   1
   1  -7  -2 289.138 9.79396  -2
  -1   7   0 289.138 9.79396   1
   0   7   2 349.789 10.7339  -2
   0  -7   0 349.789 10.7339   1
   0   7   2 356.295 10.3023  -2
   0  -7   0 356.295 10.3023   1
   0   7   2 335.852 10.1205  -2
   0  -7   0 335.852 10.1205   1
   0  -7  -2 318.068 12.4249  -2
   0   7   0 318.068 12.4249   1
   0  -7  -2 345.125 10.7483  -2
   0   7   0 345.125 10.7483   1
   0  -7  -2 335.964 10.6126  -2
   0   7   0 335.964 10.6126   1
   1   7   2 1371.22 26.9514  -2
  -1  -7   0 1371.22 26.9514   1
   1   7   2 1304.44 26.9759  -2
  -1  -7   0 1304.44 26.9759   1
  -1  -7  -2 1291.02 32.6121  -2
   1   7   0 1291.02 32.6121   1
  -2  -7   0 736.327 16.6763   1
   2   7   0 708.105 20.4800   1
   3   7   0 147.222 8.00092   1
   4   7   0 16.0280 3.07829   1
   5   7   0 118.628 7.35824   1
   5   7   0 110.754 5.57511   1
   6   7   0 93.6802 5.15085   1
   6   7   0 97.2445 7.17348   1
  -6   8   2 20.0728 4.00478  -2
   6  -8   0 20.0728 4.00478   1
  -6   8   2 23.1517 4.81489  -2
   6  -8   0 23.1517 4.81489   1
  -6   8   2 18.2577 4.20947  -2
   6  -8   0 18.2577 4.20947   1
   6  -8  -2 26.6234 2.83792  -2
  -6   8   0 26.6234 2.83792   1
   6  -8  -2 16.3409 4.58597  -2
  -6   8   0 16.3409 4.58597   1
   6  -8  -2 16.6072 4.37353  -2
  -6   8   0 16.6072 4.37353   1
  -5   8   2 91.2497 6.39884  -2
   5  -8   0 91.2497 6.39884   1
  -5   8   2 109.846 7.48187  -2
   5  -8   0 109.846 7.48187   1
  -5   8   2 111.568 8.21476  -2
   5  -8   0 111.568 8.21476   1
   5  -8  -2 96.7977 5.08543  -2
  -5   8   0 96.7977 5.08543   1
   5  -8  -2 95.5541 5.50983  -2
  -5   8   0 95.5541 5.50983   1
   5  -8  -2 104.167 7.99769  -2
  -5   8   0 104.167 7.99769   1
   5  -8  -2 98.7238 7.11127  -2
  -5   8   0 98.7238 7.11127   1
  -4   8   2 278.301 11.3093  -2
   4  -8   0 278.301 11.3093   1
  -4   8   2 264.157 11.0340  -2
   4  -8   0 264.157 11.0340   1
   4  -8  -2 257.114 9.58827  -2
  -4   8   0 257.114 9.58827   1
   4  -8  -2 262.253 9.92923  -2
  -4   8   0 262.253 9.92923   1
   4  -8  -2 264.626 12.9190  -2
  -4   8   0 264.626 12.9190   1
  -3   8   2 670.225 18.9129  -2
   3  -8   0 670.225 18.9129   1
  -3   8   2 695.413 19.8142  -2
   3  -8   0 695.413 19.8142   1
   3  -8  -2 654.672 21.6960  -2
  -3   8   0 654.672 21.6960   1
   3  -8  -2 709.762 18.6309  -2
  -3   8   0 709.762 18.6309   1
   3  -8  -2 662.292 18.2269  -2
  -3   8   0 662.292 18.2269   1
  -2   8   2 215.299 9.02998  -2
   2  -8   0 215.299 9.02998   1
  -2   8   0 197.752 8.23437   1
  -2   8   0 182.181 7.95713   1
  -2   8   0 183.976 9.72303   1
   1  -8   0 227.146 8.83063   1
   1  -8   0 241.730 9.15987   1
   1  -8   0 238.156 8.70314   1
   1  -8   0 234.029 9.53388   1
  -1   8   0 241.049 9.12524   1
  -1   8   0 234.803 9.00938   1
  -1   8   0 234.741 10.7512   1
   0  -8   0 1081.92 24.8604   1
   0  -8   0 1109.41 25.9324   1
   0  -8   0 1087.09 24.6218   1
   0   8   0 1130.07 25.5078   1
   0   8   0 1077.28 28.9581   1
   0   8   0 1060.49 26.9145   1
  -1  -8   0 64.5805 3.73692   1
  -1  -8   0 65.4987 4.29658   1
  -1  -8   0 65.1385 3.47396   1
   1   8   0 58.8602 5.28969   1
  -2  -8   0 1486.08 30.9183   1
   2   8   0 1461.99 36.2251   1
   3   8   0 10.7282 2.78846   1
   4   8   0 285.573 12.5636   1
   5   8   0 84.2014 6.76093   1
   5   8   0 73.8638 5.06093   1
   6   8   0 17.2534 4.02206   1
   6   8   0 13.2073 2.78045   1
  -7  -8  -3 52.8159 4.98235  -2
   7   8   0 52.8159 4.98235   1
   5  -9   0 1.38131 1.61527   1
  -5   9   0 3.67775 2.44466   1
  -5   9   0 2.14564 1.46098   1
  -5   9   0 4.13588 1.70675   1
   4  -9   0 436.122 15.6777   1
   4  -9   0 449.397 15.6155   1
  -4   9   0 410.493 17.4905   1
  -4   9   0 421.046 13.7435   1
  -4   9   0 436.498 14.1721   1
   3  -9   0 14.1171 2.77722   1
   3  -9   0 11.3890 3.01691   1
   3  -9   0 9.90057 2.84138   1
  -3   9   0 7.70142 2.28069   1
  -3   9   0 9.68902 3.16393   1
  -3   9   0 9.98329 2.67998   1
   2  -9   0 73.5444 5.44767   1
   2  -9   0 68.7887 5.17684   1
   2  -9   0 71.4515 5.69843   1
  -2   9   0 76.0218 5.33204   1
  -2   9   0 62.7173 6.07092   1
  -2   9   0 79.6378 5.48075   1
   1  -9   0 140.348 7.42699   1
   1  -9   0 128.329 6.71840   1
   1  -9   0 129.559 6.84867   1
  -1   9   0 141.403 7.23945   1
  -1   9   0 130.385 8.34045   1
  -1   9   0 130.908 7.00596   1
   0  -9   0 143.953 6.72952   1
   0  -9   0 141.383 6.49294   1
   0  -9   0 140.772 7.23947   1
   0   9   0 141.136 8.77522   1
   1   9   3 584.042 16.4763  -2
  -1  -9   0 584.042 16.4763   1
   1   9   0 39.8232 4.76599   1
  -2  -9   0 11.3264 2.01639   1
   2   9   0 11.4074 3.16637   1
  -3  -9  -3 20.1427 4.75100  -2
   3   9   0 20.1427 4.75100   1
  -4  -9  -3 475.189 18.1591  -2
   4   9   0 475.189 18.1591   1
  -5  -9  -3 471.099 15.9934  -2
   5   9   0 471.099 15.9934   1
  -5  -9  -3 506.383 18.9906  -2
   5   9   0 506.383 18.9906   1
  -6  -9  -3 313.753 12.5440  -2
   6   9   0 313.753 12.5440   1
  -6  -9  -3 375.978 16.6036  -2
   6   9   0 375.978 16.6036   1
   4 -10   0 702.774 22.4596   1
   4 -10   0 743.401 22.1943   1
  -4  10   0 702.541 20.5705   1
  -4  10   0 732.084 25.6599   1
  -4  10   0 722.332 20.3796   1
   3 -10   0 24.8309 3.57368   1
   3 -10   0 16.7994 3.32115   1
   3 -10   0 16.7271 3.41700   1
  -3  10   0 14.8818 3.32939   1
  -3  10   0 20.2824 3.62117   1
  -3  10   0 15.4446 3.84440   1
  -2  10   3 872.032 23.6288  -2
   2 -10   0 872.032 23.6288   1
  -2  10   3 862.826 23.5028  -2
   2 -10   0 862.826 23.5028   1
  -2  10   3 870.396 24.6170  -2
   2 -10   0 870.396 24.6170   1
   2 -10  -3 841.698 27.4581  -2
  -2  10   0 841.698 27.4581   1
   2 -10  -3 892.679 23.8436  -2
  -2  10   0 892.679 23.8436   1
   2 -10  -3 881.118 23.6707  -2
  -2  10   0 881.118 23.6707   1
  -1  10   3 138.269 7.57051  -2
   1 -10   0 138.269 7.57051   1
  -1  10   3 141.605 7.73239  -2
   1 -10   0 141.605 7.73239   1
  -1  10   3 145.456 8.39804  -2
   1 -10   0 145.456 8.39804   1
   1 -10  -3 161.023 10.3505  -2
  -1  10   0 161.023 10.3505   1
   1 -10  -3 169.757 8.86482  -2
  -1  10   0 169.757 8.86482   1
   0  10   3 795.511 20.2961  -2
   0 -10   0 795.511 20.2961   1
   0  10   3 763.826 19.7075  -2
   0 -10   0 763.826 19.7075   1
   0  10   3 802.276 21.5556  -2
   0 -10   0 802.276 21.5556   1
   0 -10  -3 749.366 24.9995  -2
   0  10   0 749.366 24.9995   1
   1  10   3 23.4104 2.22769  -2
  -1 -10   0 23.4104 2.22769   1
   1  10   3 21.4095 2.49059  -2
  -1 -10   0 21.4095 2.49059   1
   1  10   3 27.8018 3.31598  -2
  -1 -10   0 27.8018 3.31598   1
  -1 -10  -3 18.5638 4.12722  -2
   1  10   0 18.5638 4.12722   1
   2  10   3 232.471 8.84994  -2
  -2 -10   0 232.471 8.84994   1
  -2 -10  -3 243.270 12.8018  -2
   2  10   0 243.270 12.8018   1
  -3 -10  -3 76.4388 7.87504  -2
   3  10   0 76.4388 7.87504   1
   4  10   0 7.56940 2.66990   1
   4  10   0 3.46223 2.45561   1
   5  10   0 232.107 12.6122   1
   5  10   0 235.409 10.8567   1
  -3  11   3 58.2420 6.17798  -2
   3 -11   0 58.2420 6.17798   1
  -3  11   3 60.0269 5.77564  -2
   3 -11   0 60.0269 5.77564   1
   3 -11  -3 60.2817 6.34622  -2
  -3  11   0 60.2817 6.34622   1
   3 -11  -3 53.7779 6.74664  -2
  -3  11   0 53.7779 6.74664   1
   3 -11  -3 59.1912 5.73226  -2
  -3  11   0 59.1912 5.73226   1
  -2  11   3 166.051 9.52973  -2
   2 -11   0 166.051 9.52973   1
  -2  11   3 164.401 9.04581  -2
   2 -11   0 164.401 9.04581   1
  -2  11   3 166.435 9.23054  -2
   2 -11   0 166.435 9.23054   1
   2 -11  -3 175.911 9.69809  -2
  -2  11   0 175.911 9.69809   1
   2 -11  -3 154.268 11.1576  -2
  -2  11   0 154.268 11.1576   1
   2 -11  -3 169.646 9.68121  -2
  -2  11   0 169.646 9.68121   1
  -1  11   3 498.128 16.1873  -2
   1 -11   0 498.128 16.1873   1
  -1  11   3 512.997 16.6890  -2
   1 -11   0 512.997 16.6890   1
  -1  11   3 538.526 17.9057  -2
   1 -11   0 538.526 17.9057   1
   1 -11  -3 524.600 21.0234  -2
  -1  11   0 524.600 21.0234   1
   1 -11  -3 548.296 18.0280  -2
  -1  11   0 548.296 18.0280   1
   0  11   3 173.617 8.22557  -2
   0 -11   0 173.617 8.22557   1
   0  11   0 -1.4249 1.90981   1
  -1 -11   0 53.2181 3.86139   1
  -1 -11   0 46.3505 4.52228   1
   1  11   0 55.1112 6.51622   1
  -2 -11   0 479.538 14.4338   1
   2  11   0 490.816 19.4678   1
   3  11   0 206.992 10.9982   1
   3  11   0 214.706 12.4962   1
   4  11   0 340.521 16.0931   1
   4  11   0 327.331 14.2535   1
   1 -12   0 87.8455 6.61444   1
   1 -12   0 83.7211 6.85930   1
   1 -12   0 85.6260 6.07637   1
   0 -12   0 10.0033 2.48207   1
   0 -12   0 12.7133 3.35728   1
   0 -12   0 13.1595 2.51182   1
   0  12   0 10.7471 3.88483   1
  -1 -12   0 358.862 13.4966   1
  -1 -12   0 356.110 11.2662   1
   1  12   0 391.156 16.7041   1
   1  12   0 346.586 17.1016   1
  -2 -12   0 10.2203 2.51579   1
   2  12   0 11.6270 3.49534   1
   2  12   0 9.97643 3.93226   1
   1  12  -1 221.230 13.2749   1
  -1 -12   1 201.184 9.93381   1
  -1 -12   1 214.515 8.36216   1
   0  12  -1 0.75086 2.91186   1
   0 -12   1 3.87329 1.69613   1
   0 -12   1 2.00199 1.29911   1
   0 -12   1 -1.0332 1.46763   1
   4  11  -1 10.1688 3.32839   1
   4  11  -1 17.4496 4.58404   1
   3  11  -1 3.19637 2.38884   1
   3  11  -1 8.34571 3.30388   1
   2  11  -1 98.9268 7.75623   1
   2  11  -1 88.1419 8.24677   1
  -2 -11   1 92.2599 5.80766   1
   1  11  -1 -0.5691 1.97687   1
   1  11  -1 3.46824 2.44754   1
  -1 -11   1 2.82472 1.59842   1
  -1 -11   1 0.94255 1.74803   1
   0  11  -1 445.531 18.7933   1
   0  11   4 442.446 14.4601  -2
   0 -11   1 442.446 14.4601   1
   1 -11  -4 355.921 13.9843  -2
  -1  11  -1 355.921 13.9843   1
   1 -11  -4 271.028 14.9644  -2
  -1  11  -1 271.028 14.9644   1
  -1  11   4 304.430 13.1868  -2
   1 -11   1 304.430 13.1868   1
  -1  11   4 298.719 12.2904  -2
   1 -11   1 298.719 12.2904   1
  -1  11   4 305.431 12.2312  -2
   1 -11   1 305.431 12.2312   1
   2 -11  -4 360.143 17.4896  -2
  -2  11  -1 360.143 17.4896   1
   2 -11  -4 360.549 14.3622  -2
  -2  11  -1 360.549 14.3622   1
   2 -11  -4 401.380 15.1860  -2
  -2  11  -1 401.380 15.1860   1
  -2  11   4 383.709 15.3387  -2
   2 -11   1 383.709 15.3387   1
  -2  11   4 369.446 14.2311  -2
   2 -11   1 369.446 14.2311   1
  -2  11   4 351.903 14.2086  -2
   2 -11   1 351.903 14.2086   1
   3 -11  -4 130.677 8.33503  -2
  -3  11  -1 130.677 8.33503   1
   3 -11  -4 147.014 9.03737  -2
  -3  11  -1 147.014 9.03737   1
  -3  11   4 151.046 9.14827  -2
   3 -11   1 151.046 9.14827   1
  -3  11   4 149.997 9.06335  -2
   3 -11   1 149.997 9.06335   1
   5  10  -1 359.766 14.7115   1
   5  10  -1 383.057 16.6546   1
   4  10  -1 101.651 8.21584   1
   4  10  -1 82.0139 6.57834   1
  -3 -10  -4 101.556 7.73807  -2
   3  10  -1 101.556 7.73807   1
  -3 -10  -4 104.132 8.83491  -2
   3  10  -1 104.132 8.83491   1
  -2 -10  -4 23.6326 4.48269  -2
   2  10  -1 23.6326 4.48269   1
  -2 -10  -4 24.0292 5.03056  -2
   2  10  -1 24.0292 5.03056   1
   2  10   4 28.8584 3.35248  -2
  -2 -10   1 28.8584 3.35248   1
  -1 -10  -4 171.733 10.4831  -2
   1  10  -1 171.733 10.4831   1
  -1 -10  -4 175.107 9.92696  -2
   1  10  -1 175.107 9.92696   1
   1  10   4 170.669 6.45156  -2
  -1 -10   1 170.669 6.45156   1
   1  10   4 171.881 7.09044  -2
  -1 -10   1 171.881 7.09044   1
   1  10   4 165.218 7.96177  -2
  -1 -10   1 165.218 7.96177   1
   0 -10  -4 492.276 17.9525  -2
   0  10  -1 492.276 17.9525   1
   0 -10  -4 445.914 17.9115  -2
   0  10  -1 445.914 17.9115   1
   0  10   4 445.509 15.0285  -2
   0 -10   1 445.509 15.0285   1
   0  10   4 422.618 13.7227  -2
   0 -10   1 422.618 13.7227   1
   0  10   4 445.459 13.6602  -2
   0 -10   1 445.459 13.6602   1
   1 -10  -4 312.860 12.3506  -2
  -1  10  -1 312.860 12.3506   1
   1 -10  -4 294.205 14.5109  -2
  -1  10  -1 294.205 14.5109   1
  -1  10   4 300.083 11.4713  -2
   1 -10   1 300.083 11.4713   1
  -1  10   4 304.144 11.6805  -2
   1 -10   1 304.144 11.6805   1
  -1  10   4 300.814 12.2736  -2
   1 -10   1 300.814 12.2736   1
   2 -10  -4 118.738 7.91048  -2
  -2  10  -1 118.738 7.91048   1
   2 -10  -4 123.147 8.12197  -2
  -2  10  -1 123.147 8.12197   1
   2 -10  -4 112.754 9.45229  -2
  -2  10  -1 112.754 9.45229   1
  -2  10   4 117.983 7.68604  -2
   2 -10   1 117.983 7.68604   1
  -2  10   4 111.881 7.62782  -2
   2 -10   1 111.881 7.62782   1
  -2  10   4 120.521 8.26003  -2
   2 -10   1 120.521 8.26003   1
  -3  10  -1 54.3693 5.30232   1
  -3  10  -1 58.1838 5.19073   1
  -3  10  -1 51.0108 6.23283   1
   3 -10   1 60.7775 5.22614   1
   3 -10   1 63.2379 5.64413   1
   3 -10   1 65.3661 5.71432   1
  -4  10  -1 46.4028 6.26172   1
  -4  10  -1 52.6550 5.38832   1
  -4  10  -1 46.4928 4.83032   1
   4 -10   1 55.6457 5.64475   1
  -6  -9  -4 78.9150 6.52419  -2
   6   9  -1 78.9150 6.52419   1
  -5  -9  -4 301.445 12.3799  -2
   5   9  -1 301.445 12.3799   1
  -5  -9  -4 310.453 14.2568  -2
   5   9  -1 310.453 14.2568   1
  -4  -9  -4 391.926 14.5529  -2
   4   9  -1 391.926 14.5529   1
  -4  -9  -4 394.127 16.0198  -2
   4   9  -1 394.127 16.0198   1
  -3  -9  -4 110.363 7.48953  -2
   3   9  -1 110.363 7.48953   1
  -3  -9  -4 111.934 8.50338  -2
   3   9  -1 111.934 8.50338   1
   2   9  -1 266.782 12.2263   1
   2   9  -1 259.282 11.2943   1
  -2  -9   1 269.777 9.41493   1
   1   9  -1 253.336 11.1990   1
   1   9  -1 271.863 12.4550   1
  -1  -9   1 268.260 8.94010   1
  -1  -9   1 255.625 9.88290   1
  -1  -9   1 254.203 8.25503   1
   0   9  -1 737.106 23.3076   1
   0   9  -1 793.775 23.0947   1
   0  -9   1 732.795 19.3118   1
   0  -9   1 772.142 20.7406   1
   0  -9   1 751.906 19.2188   1
  -1   9  -1 16.1129 3.51238   1
  -1   9  -1 23.4989 3.35639   1
  -1   9  -1 24.2554 3.52373   1
   1  -9   1 19.0808 3.06367   1
   1  -9   1 21.4921 3.31472   1
   1  -9   1 20.6613 2.93432   1
  -2   9  -1 471.485 15.0952   1
  -2   9  -1 492.790 15.2644   1
  -2   9  -1 477.615 18.1767   1
   2  -9   1 484.511 15.4100   1
   2  -9   1 475.065 15.8564   1
   2  -9   1 469.585 15.2287   1
  -3   9  -1 89.0011 6.07838   1
  -3   9  -1 86.1791 5.82976   1
  -3   9  -1 83.9506 7.45013   1
   3  -9   1 91.2567 6.22403   1
   3  -9   1 89.9596 6.29981   1
   3  -9   1 85.9525 6.26837   1
  -4   9  -1 38.3080 4.28155   1
  -4   9  -1 46.2122 5.80956   1
  -4   9  -1 40.8581 4.14128   1
   4  -9   1 45.7176 4.92520   1
   4  -9   1 50.5705 4.94253   1
  -5   9  -1 100.338 6.11092   1
  -5   9  -1 95.8021 5.72092   1
  -5   9  -1 90.9959 8.29554   1
   5  -9   1 102.747 7.28967   1
  -7  -8  -4 146.374 8.06430  -2
   7   8  -1 146.374 8.06430   1
   6   8  -1 81.2504 5.60999   1
   5   8  -1 -0.0184 1.26014   1
   5   8  -1 -0.9565 1.49162   1
   4   8  -1 265.746 10.4607   1
   4   8  -1 264.814 11.8125   1
   3   8  -1 52.8277 5.08815   1
   3   8  -1 42.6150 4.09986   1
   2   8  -1 156.771 8.66871   1
   2   8  -1 161.603 7.99439   1
  -2  -8   1 159.624 6.56335   1
   1   8  -1 83.7563 6.19044   1
  -1  -8   1 74.9293 4.24250   1
  -1  -8   1 76.0646 3.96002   1
  -1  -8   1 71.7011 4.70758   1
   0   8  -1 27.9761 3.94833   1
   0   8  -1 25.3433 3.10200   1
   0   8  -1 31.0220 3.71500   1
   0  -8   1 27.7728 2.96922   1
   0  -8   1 29.7661 3.26313   1
   0  -8   1 29.7208 2.92107   1
  -1   8  -1 47.2264 4.59320   1
  -1   8  -1 48.1063 4.09270   1
  -1   8  -1 44.7301 4.67044   1
  -1   8  -1 49.6632 4.15682   1
   1  -8   1 45.5509 4.20138   1
   1  -8   1 46.3719 3.59967   1
   1  -8   1 48.7378 4.06209   1
   1  -8   1 43.2852 3.79067   1
  -2   8  -1 10.0039 2.48047   1
  -2   8  -1 5.33646 1.84239   1
  -2   8  -1 2.61168 1.62477   1
   2  -8   1 6.16593 1.75513   1
   2  -8   1 9.46847 2.25668   1
   2  -8   1 6.31387 2.15181   1
   2  -8   1 9.53898 2.37235   1
   3  -8  -3 848.060 21.5484  -2
  -3   8  -1 848.060 21.5484   1
   3  -8  -3 851.652 25.9305  -2
  -3   8  -1 851.652 25.9305   1
   3  -8  -3 846.739 21.5495  -2
  -3   8  -1 846.739 21.5495   1
  -3   8   3 831.549 22.2024  -2
   3  -8   1 831.549 22.2024   1
  -3   8   3 820.490 22.9423  -2
   3  -8   1 820.490 22.9423   1
  -3   8   3 855.979 22.3923  -2
   3  -8   1 855.979 22.3923   1
   4  -8  -3 238.024 9.24598  -2
  -4   8  -1 238.024 9.24598   1
   4  -8  -3 254.781 9.83007  -2
  -4   8  -1 254.781 9.83007   1
   4  -8  -3 241.403 12.4543  -2
  -4   8  -1 241.403 12.4543   1
  -4   8   3 272.358 11.3161  -2
   4  -8   1 272.358 11.3161   1
  -4   8   3 237.271 10.4599  -2
   4  -8   1 237.271 10.4599   1
   5  -8  -3 515.945 14.9959  -2
  -5   8  -1 515.945 14.9959   1
   5  -8  -3 550.383 20.8066  -2
  -5   8  -1 550.383 20.8066   1
   5  -8  -3 528.549 14.4507  -2
  -5   8  -1 528.549 14.4507   1
  -5   8   3 563.519 18.8885  -2
   5  -8   1 563.519 18.8885   1
  -5   8   3 517.744 17.5321  -2
   5  -8   1 517.744 17.5321   1
  -5   8   3 547.103 20.0399  -2
   5  -8   1 547.103 20.0399   1
   6  -8  -3 300.672 15.2176  -2
  -6   8  -1 300.672 15.2176   1
   6  -8  -3 307.437 9.45471  -2
  -6   8  -1 307.437 9.45471   1
  -6   8   3 270.343 12.5217  -2
   6  -8   1 270.343 12.5217   1
  -6   8   3 302.338 14.7318  -2
   6  -8   1 302.338 14.7318   1
  -6   8   3 308.113 14.2078  -2
   6  -8   1 308.113 14.2078   1
   7   7  -1 106.151 5.91390   1
   6   7  -1 430.622 13.5325   1
   5   7  -1 67.7273 4.70521   1
   5   7  -1 73.4900 5.77665   1
   4   7  -1 644.774 19.3067   1
   4   7  -1 613.625 17.3921   1
   3   7  -1 304.554 11.7211   1
   3   7  -1 279.701 10.2120   1
   2   7  -1 809.993 22.6711   1
  -2  -7   1 844.394 19.1471   1
  -1  -7  -3 569.240 17.9322  -2
   1   7  -1 569.240 17.9322   1
   1   7   3 595.331 14.1835  -2
  -1  -7   1 595.331 14.1835   1
   1   7   3 579.062 15.3133  -2
  -1  -7   1 579.062 15.3133   1
   1   7   3 604.030 14.4795  -2
  -1  -7   1 604.030 14.4795   1
   0  -7  -3 199.559 7.65478  -2
   0   7  -1 199.559 7.65478   1
   0  -7  -3 175.761 8.89135  -2
   0   7  -1 175.761 8.89135   1
   0  -7  -3 189.016 7.51780  -2
   0   7  -1 189.016 7.51780   1
   0   7   3 186.744 7.31910  -2
   0  -7   1 186.744 7.31910   1
   0   7   3 194.772 7.83792  -2
   0  -7   1 194.772 7.83792   1
   0   7   3 185.448 7.17831  -2
   0  -7   1 185.448 7.17831   1
   1  -7  -3 184.611 7.48701  -2
  -1   7  -1 184.611 7.48701   1
   1  -7  -3 189.671 7.55587  -2
  -1   7  -1 189.671 7.55587   1
   1  -7  -3 170.979 8.43655  -2
  -1   7  -1 170.979 8.43655   1
   1  -7  -3 176.068 8.88314  -2
  -1   7  -1 176.068 8.88314   1
  -1   7   3 199.415 7.15710  -2
   1  -7   1 199.415 7.15710   1
  -1   7   3 177.986 7.33653  -2
   1  -7   1 177.986 7.33653   1
  -1   7   3 191.633 7.41580  -2
   1  -7   1 191.633 7.41580   1
  -1   7   3 186.967 7.77616  -2
   1  -7   1 186.967 7.77616   1
  -1   7   3 175.175 7.34945  -2
   1  -7   1 175.175 7.34945   1
   2  -7  -3 68.1681 4.67472  -2
  -2   7  -1 68.1681 4.67472   1
   2  -7  -3 64.4357 5.60505  -2
  -2   7  -1 64.4357 5.60505   1
   2  -7  -3 73.5246 4.90316  -2
  -2   7  -1 73.5246 4.90316   1
  -2   7   3 67.0451 4.95569  -2
   2  -7   1 67.0451 4.95569   1
  -2   7   3 65.9446 4.75830  -2
   2  -7   1 65.9446 4.75830   1
  -2   7   3 75.7983 4.67889  -2
   2  -7   1 75.7983 4.67889   1
  -2   7   3 68.7075 4.76687  -2
   2  -7   1 68.7075 4.76687   1
  -2   7   3 65.7749 4.60953  -2
   2  -7   1 65.7749 4.60953   1
  -2   7   3 79.4812 5.91604  -2
   2  -7   1 79.4812 5.91604   1
   3  -7  -3 1120.52 26.3482  -2
  -3   7  -1 1120.52 26.3482   1
   3  -7  -3 1133.08 26.3039  -2
  -3   7  -1 1133.08 26.3039   1
   3  -7  -3 1155.00 31.0571  -2
  -3   7  -1 1155.00 31.0571   1
  -3   7   3 1128.93 27.2458  -2
   3  -7   1 1128.93 27.2458   1
  -3   7   3 1194.11 27.7731  -2
   3  -7   1 1194.11 27.7731   1
  -3   7   3 1179.37 28.1796  -2
   3  -7   1 1179.37 28.1796   1
  -3   7   3 1164.27 28.8878  -2
   3  -7   1 1164.27 28.8878   1
  -3   7   3 1199.74 31.0647  -2
   3  -7   1 1199.74 31.0647   1
  -4   7  -1 86.2361 6.82612   1
  -4   7  -1 86.8566 5.04023   1
  -4   7  -1 81.0808 4.74908   1
   4  -7   1 77.2849 5.63484   1
   4  -7   1 100.285 6.98733   1
   4  -7   1 80.3749 5.49072   1
  -5   7  -1 580.213 15.3043   1
  -5   7  -1 577.783 14.5158   1
  -5   7  -1 574.579 20.8675   1
   5  -7   1 578.305 18.1423   1
   5  -7   1 606.599 19.4092   1
   5  -7   1 584.486 20.2086   1
  -6   7  -1 4.32784 2.42844   1
   6  -7   1 3.19193 2.30716   1
   6  -7   1 3.74468 1.97028   1
   6  -7   1 6.42362 2.27800   1
  -7   7  -1 404.267 18.5275   1
   7  -7   1 389.672 17.0712   1
   7  -7   1 403.369 17.2682   1
   7  -7   1 376.438 14.9689   1
   6   6  -1 236.818 8.52702   1
  -5  -6  -3 67.2514 5.82298  -2
   5   6  -1 67.2514 5.82298   1
  -5  -6  -3 62.2786 4.40777  -2
   5   6  -1 62.2786 4.40777   1
  -4  -6  -3 141.576 7.63955  -2
   4   6  -1 141.576 7.63955   1
  -4  -6  -3 135.781 6.17464  -2
   4   6  -1 135.781 6.17464   1
  -3  -6  -3 603.341 16.4914  -2
   3   6  -1 603.341 16.4914   1
  -3  -6  -3 634.441 18.2505  -2
   3   6  -1 634.441 18.2505   1
  -2  -6  -3 110.142 6.44584  -2
   2   6  -1 110.142 6.44584   1
   2   6   3 104.036 4.57676  -2
  -2  -6   1 104.036 4.57676   1
   1   6  -1 1149.91 24.4791   1
   1   6  -1 1167.75 24.6206   1
   1   6  -1 1127.76 27.9018   1
   1   6   3 2295.57 45.1515  -2
  -1  -6   1 2295.57 45.1515   1
   1   6   3 2327.36 43.9785  -2
  -1  -6   1 2327.36 43.9785   1
   1   6   3 2290.01 43.9442  -2
  -1  -6   1 2290.01 43.9442   1
   1   6   3 2220.26 44.1400  -2
  -1  -6   1 2220.26 44.1400   1
   0   6  -1 59.3552 3.65415   1
   0   6  -1 62.3195 3.68976   1
   0   6  -1 57.6514 4.46629   1
   0  -6   1 62.0267 3.93079   1
   0  -6   1 56.4385 3.57885   1
   0  -6   1 66.5942 3.38572   1
   0  -6   1 62.2792 3.25353   1
   0  -6   1 64.8225 4.50190   1
   0  -6   1 66.9885 3.76243   1
  -1   6  -1 679.405 16.8425   1
  -1   6  -1 692.312 16.8086   1
  -1   6  -1 696.517 19.5265   1
   1  -6   1 699.007 17.7583   1
   1  -6   1 667.461 17.4493   1
   1  -6   1 687.180 17.1010   1
   1  -6   1 689.954 17.1791   1
   1  -6   1 712.080 16.8295   1
   1  -6   1 711.927 19.2775   1
  -2   6  -1 438.736 13.9831   1
  -2   6  -1 424.660 14.4882   1
  -2   6  -1 432.373 12.1165   1
  -2   6  -1 415.610 11.9529   1
   2  -6   1 434.147 12.5299   1
   2  -6   1 414.701 12.5131   1
   2  -6   1 420.664 12.8965   1
   2  -6   1 418.387 12.9031   1
   2  -6   1 425.184 12.5445   1
   2  -6   1 451.939 14.4096   1
  -3   6  -1 1412.15 30.2838   1
  -3   6  -1 1468.46 35.4886   1
  -3   6  -1 1439.00 30.3878   1
   3  -6   1 1421.93 31.5495   1
   3  -6   1 1455.57 35.2862   1
   3  -6   1 1404.72 31.6102   1
   3  -6   1 1408.59 32.4311   1
   3  -6   1 1427.07 33.3065   1
  -4   6  -1 646.700 16.0704   1
  -4   6  -1 641.067 18.8440   1
  -4   6  -1 644.484 20.6117   1
  -4   6  -1 640.527 15.7885   1
   4  -6   1 626.505 18.6199   1
   4  -6   1 664.117 20.0659   1
   4  -6   1 619.352 18.0100   1
  -5   6  -1 346.325 14.6290   1
  -5   6  -1 362.020 13.7143   1
  -5   6  -1 345.955 9.85808   1
   5  -6   1 334.563 13.2763   1
   5  -6   1 334.962 12.1135   1
   5  -6   1 339.700 13.7283   1
  -6   6  -1 201.629 11.5639   1
  -6   6  -1 191.432 10.5109   1
   6  -6   1 201.342 10.5775   1
   6  -6   1 189.990 10.5694   1
   6  -6   1 196.739 9.17510   1
  -7   6  -1 351.761 15.6520   1
  -7   6  -1 353.783 16.6489   1
   7  -6   1 361.469 15.5026   1
   7  -6   1 345.297 13.2509   1
   7  -6   1 335.800 15.4914   1
  -6  -5  -3 584.597 15.0059  -2
   6   5  -1 584.597 15.0059   1
   5   5  -1 248.723 8.15067   1
   5   5  -1 264.252 10.0706   1
  -5  -5   1 259.576 9.06821   1
   4   5  -1 3.82991 1.25697   1
   4   5  -1 3.11821 1.33032   1
  -4  -5   1 2.90521 1.16539   1
   3   5  -1 187.585 7.82017   1
   3   5  -1 181.831 6.67766   1
  -3  -5   1 202.525 6.11568   1
   2   5  -1 -0.3390 0.64717   1
   2   5  -1 -0.1812 0.52678   1
  -2  -5   1 0.78316 0.53554   1
  -2  -5   1 0.49138 0.55852   1
   1   5  -1 897.777 19.5772   1
   1   5  -1 910.179 22.4006   1
   1   5  -1 924.165 19.5582   1
  -1  -5   1 924.449 18.7367   1
  -1  -5   1 921.142 18.9375   1
  -1  -5   1 915.589 19.0593   1
  -1  -5   1 912.901 19.2378   1
  -1  -5   1 931.506 18.5871   1
  -1  -5   1 906.810 19.9903   1
   0   5  -1 205.844 8.09916   1
   0   5  -1 208.093 6.72083   1
   0   5  -1 202.401 6.64330   1
   0  -5   1 207.911 6.75404   1
   0  -5   1 207.867 6.41664   1
   0  -5   1 199.351 6.47635   1
   0  -5   1 197.657 7.02245   1
   0  -5   1 212.577 7.95807   1
   0  -5   1 209.099 6.88153   1
  -1   5  -1 1282.87 26.9000   1
  -1   5  -1 1307.52 30.3630   1
  -1   5  -1 1305.89 27.1725   1
   1  -5   1 1317.17 30.4398   1
   1  -5   1 1294.50 27.5167   1
   1  -5   1 1317.28 29.2476   1
   1  -5   1 1337.82 27.5347   1
   1  -5   1 1290.25 27.5068   1
   1  -5   1 1292.31 28.0301   1
  -2   5  -1 10.1625 1.61268   1
  -2   5  -1 11.0467 1.74785   1
  -2   5  -1 11.5088 2.21946   1
  -2   5  -1 14.8385 2.25214   1
   2  -5   1 14.1955 2.01614   1
   2  -5   1 11.7806 1.84829   1
   2  -5   1 9.98697 1.65006   1
   2  -5   1 12.1100 1.91702   1
   2  -5   1 11.1310 1.89323   1
   2  -5   1 11.0146 2.13647   1
  -3   5  -1 616.687 14.8734   1
  -3   5  -1 627.151 18.4158   1
  -3   5  -1 630.612 16.8738   1
  -3   5  -1 623.692 14.8261   1
   3  -5   1 591.478 15.7840   1
   3  -5   1 607.170 16.6314   1
   3  -5   1 602.105 15.8431   1
   3  -5   1 600.479 17.6818   1
   3  -5   1 612.850 16.4418   1
   4  -5  -2 293.267 12.1312  -2
  -4   5  -1 293.267 12.1312   1
   4  -5   1 46.1062 4.16897   1
   4  -5   1 49.4272 4.26184   1
   4  -5   1 45.0080 3.55537   1
   5  -5  -2 10.2041 1.70195  -2
  -5   5  -1 10.2041 1.70195   1
   5  -5  -2 16.2054 3.43774  -2
  -5   5  -1 16.2054 3.43774   1
   5  -5  -2 11.7297 3.36086  -2
  -5   5  -1 11.7297 3.36086   1
  -5   5   2 10.3955 3.10804  -2
   5  -5   1 10.3955 3.10804   1
  -5   5   2 8.66295 2.65695  -2
   5  -5   1 8.66295 2.65695   1
  -5   5   2 9.13740 3.05312  -2
   5  -5   1 9.13740 3.05312   1
   6  -5  -2 229.759 10.9619  -2
  -6   5  -1 229.759 10.9619   1
   6  -5  -2 228.670 11.5770  -2
  -6   5  -1 228.670 11.5770   1
  -6   5   2 240.027 9.30709  -2
   6  -5   1 240.027 9.30709   1
  -6   5   2 226.014 10.7677  -2
   6  -5   1 226.014 10.7677   1
  -6   5   2 228.896 11.2972  -2
   6  -5   1 228.896 11.2972   1
   7  -5  -2 240.160 12.5735  -2
  -7   5  -1 240.160 12.5735   1
   7  -5  -2 244.603 12.1514  -2
  -7   5  -1 244.603 12.1514   1
  -7   5   2 246.312 9.97041  -2
   7  -5   1 246.312 9.97041   1
  -7   5   2 236.864 12.5207  -2
   7  -5   1 236.864 12.5207   1
  -7   5   2 226.869 11.2884  -2
   7  -5   1 226.869 11.2884   1
   8  -5  -2 239.977 13.2767  -2
  -8   5  -1 239.977 13.2767   1
  -8   5   2 252.974 12.5602  -2
   8  -5   1 252.974 12.5602   1
  -8   5   2 224.614 13.3243  -2
   8  -5   1 224.614 13.3243   1
  -8  -4   1 -0.4351 1.38703   1
  -7  -4   1 94.6053 6.34111   1
  -6  -4   1 184.525 8.33291   1
   5   4  -1 337.672 11.4037   1
  -5  -4   1 335.546 10.8807   1
   4   4  -1 151.840 6.70802   1
   4   4  -1 157.095 5.47328   1
   4   4  -1 155.541 5.59035   1
  -4  -4   1 158.088 6.05039   1
   3   4  -1 2152.41 44.2020   1
   3   4  -1 2126.45 44.7776   1
   3   4  -1 2112.60 43.9104   1
  -3  -4   1 2172.49 42.2473   1
   2   4  -1 2702.10 57.5344   1
   2   4  -1 2843.62 57.5852   1
  -2  -4   1 2960.61 54.0170   1
   1   4  -1 1867.20 35.8442   1
   1   4  -1 1857.51 35.5891   1
   1   4  -1 1844.79 39.4447   1
  -1  -4   1 1884.02 35.4708   1
  -1  -4   1 1904.07 36.4145   1
  -1  -4   1 1908.64 36.3275   1
  -1  -4   1 1882.75 34.9472   1
  -1  -4   1 1886.67 35.4578   1
  -1  -4   1 1893.01 34.9478   1
   0   4  -1 692.197 15.2237   1
   0   4  -1 682.704 15.0906   1
   0   4  -1 687.820 17.3123   1
   0   4   2 2410.22 48.9227  -2
   0  -4   1 2410.22 48.9227   1
   1  -4  -2 3557.50 71.6423  -2
  -1   4  -1 3557.50 71.6423   1
  -1   4   2 3572.81 67.0277  -2
   1  -4   1 3572.81 67.0277   1
  -1   4   2 3553.81 71.8793  -2
   1  -4   1 3553.81 71.8793   1
   2  -4  -2 3320.24 63.1287  -2
  -2   4  -1 3320.24 63.1287   1
   2  -4  -2 3378.53 69.1777  -2
  -2   4  -1 3378.53 69.1777   1
   2  -4  -2 3399.60 62.7437  -2
  -2   4  -1 3399.60 62.7437   1
   2  -4  -2 3431.22 69.5302  -2
  -2   4  -1 3431.22 69.5302   1
  -2   4   2 3376.69 64.2117  -2
   2  -4   1 3376.69 64.2117   1
  -2   4   2 3356.02 69.7014  -2
   2  -4   1 3356.02 69.7014   1
  -2   4   2 3322.02 66.0102  -2
   2  -4   1 3322.02 66.0102   1
  -2   4   2 3469.33 63.4526  -2
   2  -4   1 3469.33 63.4526   1
  -2   4   2 3477.60 64.0147  -2
   2  -4   1 3477.60 64.0147   1
  -2   4   2 3296.63 68.5301  -2
   2  -4   1 3296.63 68.5301   1
   3  -4  -2 62.2042 3.29847  -2
  -3   4  -1 62.2042 3.29847   1
   3  -4  -2 68.5765 4.25046  -2
  -3   4  -1 68.5765 4.25046   1
   3  -4  -2 62.3503 3.22631  -2
  -3   4  -1 62.3503 3.22631   1
   3  -4  -2 68.4225 4.77827  -2
  -3   4  -1 68.4225 4.77827   1
  -3   4   2 69.1462 4.36915  -2
   3  -4   1 69.1462 4.36915   1
  -3   4   2 63.5857 3.66473  -2
   3  -4   1 63.5857 3.66473   1
  -3   4   2 69.5445 4.02737  -2
   3  -4   1 69.5445 4.02737   1
  -3   4   2 71.2930 3.87686  -2
   3  -4   1 71.2930 3.87686   1
  -3   4   2 61.6779 3.68090  -2
   3  -4   1 61.6779 3.68090   1
  -3   4   2 62.8821 4.27853  -2
   3  -4   1 62.8821 4.27853   1
   4  -4  -2 658.390 19.6261  -2
  -4   4  -1 658.390 19.6261   1
   4  -4  -2 667.342 13.8984  -2
  -4   4  -1 667.342 13.8984   1
   4  -4  -2 689.506 14.8448  -2
  -4   4  -1 689.506 14.8448   1
   4  -4  -2 686.252 18.3986  -2
  -4   4  -1 686.252 18.3986   1
  -4   4   2 659.749 18.6330  -2
   4  -4   1 659.749 18.6330   1
  -4   4   2 654.536 18.5379  -2
   4  -4   1 654.536 18.5379   1
  -4   4   2 670.207 16.8649  -2
   4  -4   1 670.207 16.8649   1
   5  -4  -2 429.904 15.2897  -2
  -5   4  -1 429.904 15.2897   1
  -5   4   2 386.251 11.6814  -2
   5  -4   1 386.251 11.6814   1
  -6   4  -1 391.259 15.0745   1
  -6   4  -1 418.183 16.2640   1
   6  -4   1 410.441 15.4921   1
   6  -4   1 411.695 14.3798   1
  -7   4  -1 -0.5534 1.85667   1
  -7   4  -1 5.06412 2.74878   1
   7  -4   1 0.40330 1.19833   1
   7  -4   1 -0.3642 1.37340   1
  -8   4  -1 340.611 15.8544   1
   8  -4   1 363.437 14.6585   1
   8  -4   1 365.722 16.5525   1
  -8  -3   1 24.7030 3.90616   1
  -7  -3   1 260.936 11.1947   1
  -6  -3   1 435.180 14.1242   1
  -5  -3  -2 729.614 16.8573  -2
   5   3  -1 729.614 16.8573   1
  -5  -3   1 440.349 13.2214   1
  -4  -3  -2 478.896 11.6626  -2
   4   3  -1 478.896 11.6626   1
  -4  -3   1 75.4722 4.08894   1
  -3  -3  -2 1577.03 32.9079  -2
   3   3  -1 1577.03 32.9079   1
  -3  -3  -2 1458.71 32.0272  -2
   3   3  -1 1458.71 32.0272   1
   3   3   2 1590.67 31.5826  -2
  -3  -3   1 1590.67 31.5826   1
  -2  -3  -2 793.439 18.2887  -2
   2   3  -1 793.439 18.2887   1
  -2  -3  -2 812.802 18.6099  -2
   2   3  -1 812.802 18.6099   1
  -2  -3  -2 863.437 19.2428  -2
   2   3  -1 863.437 19.2428   1
   2   3   2 875.604 17.8045  -2
  -2  -3   1 875.604 17.8045   1
  -1  -3  -2 67.4305 3.51749  -2
   1   3  -1 67.4305 3.51749   1
   1   3   2 75.3575 2.52270  -2
  -1  -3   1 75.3575 2.52270   1
   1   3   2 77.4148 2.63515  -2
  -1  -3   1 77.4148 2.63515   1
   1   3   2 71.7239 2.97363  -2
  -1  -3   1 71.7239 2.97363   1
   1   3   2 78.5906 2.85428  -2
  -1  -3   1 78.5906 2.85428   1
   1   3   2 78.5714 2.98097  -2
  -1  -3   1 78.5714 2.98097   1
   1   3   2 75.2283 2.35819  -2
  -1  -3   1 75.2283 2.35819   1
   0   3  -1 400.416 10.4747   1
   0   3  -1 407.403 9.31072   1
   0   3  -1 405.936 9.26200   1
   0   3  -1 386.947 10.5888   1
   0   3   2 424.682 10.2902  -2
   0  -3   1 424.682 10.2902   1
   0   3   2 418.437 9.98707  -2
   0  -3   1 418.437 9.98707   1
  -1   3  -1 23.6406 1.74599   1
  -1   3  -1 24.7274 2.21694   1
  -1   3  -1 27.5098 2.17318   1
  -1   3  -1 24.0409 1.75222   1
   1  -3   1 22.8158 2.09868   1
   1  -3   1 24.0878 1.83741   1
   1  -3   1 24.4549 1.85897   1
   1  -3   1 27.8816 2.08304   1
   1  -3   1 23.4845 1.84527   1
   1  -3   1 23.8857 1.85079   1
  -2   3  -1 1115.24 25.5457   1
  -2   3  -1 1108.41 24.0325   1
  -2   3  -1 1104.85 22.0743   1
  -2   3  -1 1096.37 22.1510   1
  -2   3  -1 1141.62 24.8915   1
   2  -3   1 1079.49 23.9875   1
   2  -3   1 1060.58 24.9458   1
   2  -3   1 1106.69 22.8501   1
   2  -3   1 1133.79 24.1728   1
  -3   3  -1 868.981 22.4850   1
  -3   3  -1 898.298 18.0766   1
  -3   3  -1 911.187 18.3833   1
  -3   3  -1 929.361 21.4249   1
   3  -3   1 886.538 19.3656   1
   3  -3   1 899.509 21.4387   1
   3  -3   1 908.107 20.1931   1
   3  -3   1 877.668 21.6188   1
   3  -3   1 901.619 19.4519   1
  -4   3  -1 366.902 11.8293   1
  -4   3  -1 355.451 12.6548   1
   4  -3   1 337.967 11.7339   1
   4  -3   1 349.375 11.2716   1
  -5   3  -1 952.923 26.1063   1
  -5   3  -1 933.921 24.5424   1
   5  -3   1 933.537 23.9097   1
   5  -3   1 953.979 25.0927   1
  -6   3  -1 234.925 11.2734   1
  -6   3  -1 220.807 10.4554   1
   6  -3   1 223.729 9.41805   1
   6  -3   1 231.971 10.9773   1
  -7   3  -1 79.2817 6.65918   1
  -7   3  -1 85.5573 6.96234   1
   7  -3   1 69.3091 6.50553   1
   7  -3   1 75.6954 5.51822   1
  -8   3  -1 0.58623 2.16787   1
   8  -3   1 2.06324 1.75570   1
   8  -3   1 1.82311 2.16030   1
  -8  -2  -2 679.479 17.4092  -2
   8   2  -1 679.479 17.4092   1
   8   2   2 766.269 22.7991  -2
  -8  -2   1 766.269 22.7991   1
  -7  -2  -2 803.366 18.8015  -2
   7   2  -1 803.366 18.8015   1
   7   2   2 790.998 22.7130  -2
  -7  -2   1 790.998 22.7130   1
   6   2   2 144.548 7.33648  -2
  -6  -2   1 144.548 7.33648   1
  -5  -2  -2 1341.55 29.7811  -2
   5   2  -1 1341.55 29.7811   1
  -5  -2  -2 1317.48 27.7728  -2
   5   2  -1 1317.48 27.7728   1
   5   2   2 1323.02 30.1280  -2
  -5  -2   1 1323.02 30.1280   1
   5   2   2 1311.97 29.3271  -2
  -5  -2   1 1311.97 29.3271   1
  -4  -2  -2 3819.68 82.6763  -2
   4   2  -1 3819.68 82.6763   1
  -4  -2  -2 4365.46 83.3096  -2
   4   2  -1 4365.46 83.3096   1
   4   2   2 4489.08 82.8551  -2
  -4  -2   1 4489.08 82.8551   1
  -3  -2  -2 1046.40 22.2312  -2
   3   2  -1 1046.40 22.2312   1
  -3  -2   1 813.096 18.0121   1
   2   2  -1 671.654 14.4546   1
   2   2  -1 662.809 14.9185   1
   2   2  -1 642.122 14.7842   1
  -2  -2   1 691.258 14.6672   1
   1   2  -1 1027.07 21.5569   1
   1   2  -1 1016.79 21.4707   1
  -1  -2   1 1048.59 19.1422   1
  -1  -2   1 1069.53 20.6397   1
  -1  -2   1 1003.90 19.9354   1
  -1  -2   1 1034.99 18.8729   1
   0   2  -1 210.063 5.99971   1
   0   2  -1 202.749 5.13866   1
   0   2  -1 209.493 5.21138   1
   0   2  -1 204.034 5.87348   1
   0  -2   1 211.075 5.39065   1
   0  -2   1 208.397 5.51887   1
   0  -2   1 212.423 5.45474   1
   0  -2   1 205.272 5.56608   1
   0  -2   1 208.758 6.08625   1
   0  -2   1 214.712 5.64329   1
  -1   2  -1 61.8742 2.86225   1
  -1   2  -1 63.2667 2.48851   1
  -1   2  -1 61.9666 2.44863   1
   1  -2   1 60.9065 2.67885   1
   1  -2   1 61.2147 2.58073   1
   1  -2   1 56.8345 2.87538   1
   1  -2   1 62.7329 2.64102   1
   1  -2   1 59.3474 2.77456   1
  -2   2  -1 1588.28 33.3370   1
  -2   2  -1 1563.68 29.1941   1
  -2   2  -1 1573.39 29.1404   1
  -2   2  -1 1535.11 31.8200   1
  -2   2  -1 1607.12 29.3688   1
   2  -2   1 1588.65 29.7200   1
   2  -2   1 1569.67 31.6872   1
   2  -2   1 1509.47 32.7027   1
   2  -2   1 1505.81 31.8187   1
   2  -2   1 1504.02 30.2594   1
   2  -2   1 1554.50 29.8011   1
  -3   2  -1 331.414 9.87545   1
  -3   2  -1 322.724 10.6240   1
   3  -2   1 302.899 9.21319   1
   3  -2   1 320.829 9.90740   1
  -4   2  -1 816.006 21.6288   1
  -4   2  -1 788.508 20.1740   1
   4  -2   1 808.390 20.5221   1
   4  -2   1 802.821 19.5150   1
   5  -2  -1 953.788 24.9606  -2
  -5   2  -1 953.788 24.9606   1
   5  -2   1 453.576 13.2418   1
   5  -2   1 473.027 15.0530   1
   6  -2  -1 232.323 10.5370  -2
  -6   2  -1 232.323 10.5370   1
   6  -2   1 145.896 8.30485   1
   6  -2   1 150.513 6.95172   1
   7  -2  -1 286.651 12.5510  -2
  -7   2  -1 286.651 12.5510   1
   7  -2  -1 324.777 13.0254  -2
  -7   2  -1 324.777 13.0254   1
  -7   2   1 279.796 10.7327  -2
   7  -2   1 279.796 10.7327   1
   8  -2  -1 39.7562 5.11771  -2
  -8   2  -1 39.7562 5.11771   1
  -8   2   1 55.5624 6.45070  -2
   8  -2   1 55.5624 6.45070   1
  -8   2   1 44.2489 4.50931  -2
   8  -2   1 44.2489 4.50931   1
  -9  -1  -2 223.796 8.79062  -2
   9   1  -1 223.796 8.79062   1
   9   1   2 197.756 11.6549  -2
  -9  -1   1 197.756 11.6549   1
  -8  -1  -2 313.646 10.4178  -2
   8   1  -1 313.646 10.4178   1
   8   1   2 335.434 14.0124  -2
  -8  -1   1 335.434 14.0124   1
  -7  -1   1 79.0279 6.16337   1
   6   1  -1 332.114 9.41120   1
  -6  -1   1 326.984 12.1400   1
   5   1  -1 1.11256 0.67884   1
   5   1  -1 1.55851 0.76314   1
  -5  -1   1 1.46575 1.05078   1
  -5  -1   1 0.61165 0.77162   1
   4   1  -1 12.7493 1.35912   1
   4   1  -1 13.7436 1.27824   1
  -4  -1   1 15.7167 1.68037   1
  -4  -1   1 10.2261 1.74903   1
   3   1  -1 931.195 19.3981   1
   3   1  -1 912.106 19.8235   1
  -3  -1   1 934.139 20.7849   1
  -3  -1   1 970.057 20.0637   1
   2   1  -1 879.231 18.5339   1
   2   1  -1 891.513 18.4609   1
   2   1  -1 904.424 18.5645   1
  -2  -1   1 922.139 18.4775   1
  -2  -1   1 898.633 18.9330   1
   1   1  -1 925.664 18.8846   1
   1   1  -1 942.300 18.3491   1
   1   1  -1 851.351 19.0431   1
  -1  -1   1 932.993 18.4540   1
  -1  -1   1 947.491 17.1856   1
   0   1  -1 818.970 15.3394   1
   0   1  -1 810.252 15.1812   1
   0   1  -1 827.708 16.5358   1
   0   1  -1 816.059 16.8823   1
   0  -1   1 824.834 15.6410   1
   0  -1   1 812.675 15.3821   1
   0  -1   1 790.548 16.2977   1
   0  -1   1 779.257 16.8936   1
   0  -1   1 786.174 16.6782   1
  -1   1  -1 3198.24 56.6784   1
  -1   1  -1 3262.54 56.2292   1
  -1   1  -1 3247.28 61.3035   1
   1  -1   1 3086.48 59.2903   1
   1  -1   1 3025.48 57.5316   1
   1  -1   1 3113.33 56.3224   1
   1  -1   1 3152.66 61.3401   1
   1  -1   1 3095.67 61.7355   1
   1  -1   1 3206.93 56.8452   1
   2  -1  -1 168.420 6.05467  -2
  -2   1  -1 168.420 6.05467   1
   2  -1   1 113.562 3.80749   1
   2  -1   1 105.484 4.29508   1
   2  -1   1 112.350 3.86739   1
   3  -1  -1 894.977 21.5527  -2
  -3   1  -1 894.977 21.5527   1
   3  -1   1 640.869 14.6955   1
   4  -1  -1 157.378 6.92025  -2
  -4   1  -1 157.378 6.92025   1
   4  -1  -1 148.335 6.41400  -2
  -4   1  -1 148.335 6.41400   1
  -4   1   1 141.241 5.26576  -2
   4  -1   1 141.241 5.26576   1
   5  -1  -1 2260.59 47.6210  -2
  -5   1  -1 2260.59 47.6210   1
   5  -1  -1 2248.93 48.8332  -2
  -5   1  -1 2248.93 48.8332   1
  -5   1   1 2174.31 46.4497  -2
   5  -1   1 2174.31 46.4497   1
   6  -1  -1 98.2935 6.43140  -2
  -6   1  -1 98.2935 6.43140   1
   6  -1  -1 112.945 6.79081  -2
  -6   1  -1 112.945 6.79081   1
  -6   1   1 98.9025 5.12125  -2
   6  -1   1 98.9025 5.12125   1
   7  -1  -1 770.397 22.9187  -2
  -7   1  -1 770.397 22.9187   1
   7  -1   1 442.376 16.7131   1
   7  -1   1 442.988 13.4646   1
  -8   1  -1 56.8815 6.04472   1
   8  -1   1 58.2442 4.48146   1
   8  -1   1 56.3933 6.28896   1
  -9   1  -1 447.323 18.8193   1
   9  -1   1 451.346 14.9809   1
   9  -1   1 443.414 19.4813   1
   9   0  -1 173.797 8.10608   1
  -9   0   1 189.736 11.3632   1
   8   0  -1 150.137 7.05818   1
  -8   0   1 169.386 9.83611   1
   7   0  -1 169.157 7.01260   1
  -7   0   1 173.783 9.28407   1
   6   0  -1 408.028 11.4475   1
  -6   0   1 395.840 13.7562   1
   5   0  -1 4.78148 1.31428   1
   5   0  -1 1.89549 0.80484   1
  -5   0   1 7.52567 1.52148   1
  -5   0   1 -0.7663 0.73858   1
   4   0  -1 321.851 8.80216   1
   4   0  -1 327.338 8.64992   1
  -4   0   1 335.408 9.37971   1
  -4   0   1 323.067 10.2853   1
   3   0  -1 79.1715 3.05064   1
   3   0  -1 77.3526 3.14451   1
  -3   0   1 84.3432 3.42911   1
  -3   0   1 77.0052 3.88525   1
  -2   0  -1 16.3129 1.38015  -2
   2   0  -1 16.3129 1.38015   1
  -2   0   1 10.8054 1.27106   1
  -2   0   1 10.2558 0.94034   1
  -1   0  -1 3276.51 64.7353  -2
   1   0  -1 3276.51 64.7353   1
  -1   0   1 2453.23 42.4263   1
  -1   0   1 2392.63 45.4225   1
  -1   0   1 2380.22 42.3795   1
   0   0  -1 1812.98 37.3004  -2
   0   0  -1 1812.98 37.3004   1
   0   0  -1 1890.57 36.7311  -2
   0   0  -1 1890.57 36.7311   1
   0   0  -1 1842.32 34.2654  -2
   0   0  -1 1842.32 34.2654   1
   0   0  -1 1848.77 33.9905  -2
   0   0  -1 1848.77 33.9905   1
   0   0   1 1861.25 34.0526  -2
   0   0   1 1861.25 34.0526   1
   0   0   1 1846.31 34.4641  -2
   0   0   1 1846.31 34.4641   1
   0   0   1 1844.76 35.8657  -2
   0   0   1 1844.76 35.8657   1
   0   0   1 1856.52 34.3497  -2
   0   0   1 1856.52 34.3497   1
   0   0   1 1904.55 37.2582  -2
   0   0   1 1904.55 37.2582   1
   0   0   1 1911.02 37.4455  -2
   0   0   1 1911.02 37.4455   1
   1   0  -1 2903.82 58.0253  -2
  -1   0  -1 2903.82 58.0253   1
  -1   0   1 3077.04 59.2470  -2
   1   0   1 3077.04 59.2470   1
   2   0  -1 19.6593 1.95686  -2
  -2   0  -1 19.6593 1.95686   1
   2   0   1 12.1643 0.92144   1
   2   0   1 9.30903 1.20452   1
   2   0   1 11.1599 0.85278   1
  -3   0  -1 120.810 5.41804   1
  -3   0  -1 118.259 4.89768   1
   3   0   1 118.687 3.61644   1
   3   0   1 117.249 3.65420   1
  -4   0  -1 279.272 9.72203   1
  -4   0  -1 258.793 8.92098   1
   4   0   1 269.938 7.14686   1
  -5   0  -1 190.788 8.37668   1
  -5   0  -1 179.244 7.88967   1
   5   0   1 193.709 6.04127   1
  -6   0  -1 427.829 14.3406   1
  -6   0  -1 391.380 13.8003   1
   6   0   1 408.544 11.1061   1
  -7   0  -1 60.0341 5.13792   1
  -7   0  -1 51.3802 5.18712   1
   7   0   1 53.2898 5.43243   1
   7   0   1 48.3320 3.46739   1
  -8   0  -1 253.564 12.4768   1
   8   0   1 259.425 9.28019   1
   8   0   1 270.910 13.5392   1
  -9   0  -1 399.674 17.2535   1
   9   0   1 403.481 13.0621   1
   9   0   1 418.044 18.4807   1
   9  -1  -1 40.1681 4.25299   1
   8  -1  -1 1.38506 1.41773   1
  -8   1   1 0.30080 1.83467   1
   7  -1  -1 322.207 10.9823   1
  -7   1   1 315.604 13.0635   1
  -6   1  -1 158.695 6.80732  -2
   6  -1  -1 158.695 6.80732   1
   6  -1   1 153.363 8.15985  -2
  -6   1   1 153.363 8.15985   1
  -5   1  -1 2275.15 48.6217  -2
   5  -1  -1 2275.15 48.6217   1
   5  -1   1 2294.11 49.2018  -2
  -5   1   1 2294.11 49.2018   1
   5  -1   1 2397.26 48.6280  -2
  -5   1   1 2397.26 48.6280   1
  -4   1  -1 209.791 7.03011  -2
   4  -1  -1 209.791 7.03011   1
  -4   1  -1 229.385 7.09693  -2
   4  -1  -1 229.385 7.09693   1
   4  -1   1 222.946 7.43728  -2
  -4   1   1 222.946 7.43728   1
   4  -1   1 220.002 8.16076  -2
  -4   1   1 220.002 8.16076   1
   3  -1  -1 415.194 10.5142   1
   3  -1  -1 428.386 10.8564   1
   3  -1   1 842.798 18.8821  -2
  -3   1   1 842.798 18.8821   1
   2  -1  -1 90.8366 3.47933   1
   2  -1  -1 84.9130 3.23281   1
   2  -1   1 159.471 3.84952  -2
  -2   1   1 159.471 3.84952   1
   2  -1   1 164.260 4.81435  -2
  -2   1   1 164.260 4.81435   1
   1  -1  -1 2756.13 49.8017   1
   1  -1  -1 2791.50 49.7963   1
   1  -1  -1 2693.46 54.5127   1
  -1   1   1 2753.03 52.0705   1
  -1   1   1 2789.75 49.4278   1
  -1   1   1 2852.26 52.6142   1
  -1   1   1 2766.64 49.7688   1
   0  -1  -1 1.83829 0.39231   1
   0  -1  -1 0.94453 0.31744   1
   0  -1  -1 1.47920 0.37013   1
   0  -1  -1 1.47720 0.36022   1
   0  -1  -1 1.97959 0.34686   1
   0   1   1 1.37155 0.35976   1
   0   1   1 1.51247 0.35120   1
   0   1   1 1.87534 0.45979   1
   0   1   1 1.39358 0.35287   1
   0   1   1 1.84011 0.36564   1
   0   1   1 1.48448 0.40547   1
   1   1   1 984.262 18.1123   1
   1   1   1 882.964 18.3229   1
   1   1   1 886.498 18.1527   1
  -2  -1  -1 962.801 21.2403   1
  -2  -1  -1 980.985 20.0573   1
  -3  -1  -1 1627.87 34.6395   1
  -3  -1  -1 1631.97 33.2314   1
  -4  -1  -1 71.4582 4.07651   1
  -4  -1  -1 66.3060 4.17015   1
  -5  -1  -1 778.792 20.0087   1
  -5  -1  -1 785.169 20.6429   1
   6   1   0 209.287 8.90532  -2
  -6  -1  -1 209.287 8.90532   1
  -7  -1  -1 554.095 17.4121   1
  -7  -1  -1 537.216 17.6424   1
   8   1   0 203.510 10.8490  -2
  -8  -1  -1 203.510 10.8490   1
   9   1   0 681.328 23.4312  -2
  -9  -1  -1 681.328 23.4312   1
  -9  -1   0 836.185 26.9767  -2
   9   1   1 836.185 26.9767   1
  -9  -1   0 721.146 18.5452  -2
   9   1   1 721.146 18.5452   1
  -8   2  -1 34.1619 4.26898  -2
   8  -2  -1 34.1619 4.26898   1
   8  -2   1 32.7032 4.86594  -2
  -8   2   1 32.7032 4.86594   1
  -7   2  -1 338.275 12.2451  -2
   7  -2  -1 338.275 12.2451   1
   7  -2   1 327.421 13.5530  -2
  -7   2   1 327.421 13.5530   1
   6  -2  -1 104.194 5.74445   1
  -6   2   1 114.571 7.23469   1
   5  -2  -1 766.102 19.5220   1
  -5   2   1 781.167 20.2847   1
  -5   2   1 753.316 20.4750   1
   4  -2  -1 39.9515 2.99108   1
   4  -2  -1 38.5382 2.76520   1
  -4   2   1 45.1545 3.36568   1
  -4   2   1 41.0345 3.57008   1
   3  -2  -1 351.919 10.0764   1
  -3   2   1 340.988 9.85224   1
  -3   2   1 338.701 10.1258   1
  -3   2   1 358.811 7.33661   1
   2  -2  -1 333.020 9.53035   1
  -2   2   1 365.847 7.98117   1
  -2   2   1 348.593 9.25381   1
  -2   2   1 358.473 7.86482   1
  -2   2   1 365.739 9.25289   1
   1  -2  -1 133.498 4.12296   1
   1  -2  -1 124.956 4.48039   1
  -1   2   1 132.867 4.05667   1
  -1   2   1 137.661 4.27887   1
  -1   2   1 133.638 3.86346   1
  -1   2   1 131.955 3.81806   1
   0  -2  -1 0.88052 0.49313   1
   0  -2  -1 2.04046 0.49962   1
   0  -2  -1 1.49111 0.52100   1
   0  -2  -1 1.58869 0.46644   1
   0   2   1 2.08598 0.67986   1
   0   2   1 1.34715 0.46229   1
   0   2   1 2.59491 0.54803   1
   0   2   1 2.04734 0.53839   1
   0   2   1 2.21626 0.64989   1
   0   2   1 2.12588 0.39755   1
  -1  -2  -1 11.8590 1.29835   1
   1   2   1 11.0695 0.93250   1
   1   2   1 8.40334 1.13502   1
   1   2   1 9.73621 0.74026   1
   1   2   1 9.64876 0.92728   1
  -2  -2  -1 1457.97 27.9050   1
  -2  -2  -1 1379.51 29.8760   1
  -3  -2  -1 3153.76 60.5140   1
  -3  -2  -1 3145.57 63.2327   1
   4   2   0 4320.34 86.0394  -2
  -4  -2  -1 4320.34 86.0394   1
   5   2   0 819.299 20.3593  -2
  -5  -2  -1 819.299 20.3593   1
   5   2   0 823.527 21.1416  -2
  -5  -2  -1 823.527 21.1416   1
   6   2   0 56.3239 4.47587  -2
  -6  -2  -1 56.3239 4.47587   1
   6   2   0 46.0468 3.98826  -2
  -6  -2  -1 46.0468 3.98826   1
   7   2   0 301.925 12.0060  -2
  -7  -2  -1 301.925 12.0060   1
   7   2   0 327.463 12.4973  -2
  -7  -2  -1 327.463 12.4973   1
   8   2   0 286.115 12.8746  -2
  -8  -2  -1 286.115 12.8746   1
   9   2   0 -0.0324 4.56855  -2
  -9  -2  -1 -0.0324 4.56855   1
   9   2   1 11.2564 3.55770   1
   8  -3  -1 30.7774 3.94858   1
  -8   3   1 36.8997 5.29395   1
   7  -3  -1 22.8443 3.29633   1
  -7   3   1 26.5108 4.17353   1
   6  -3  -1 84.3355 5.53715   1
  -6   3   1 82.1316 6.13243   1
   5  -3  -1 569.713 16.6854   1
  -5   3   1 607.752 17.5527   1
  -5   3   1 572.192 17.1260   1
   4  -3  -1 3.75153 1.39338   1
  -4   3   1 3.03347 1.23378   1
  -4   3   1 1.64910 1.01956   1
   3  -3  -1 924.449 22.9353   1
   3  -3  -1 991.274 21.0180   1
  -3   3   1 924.149 19.3446   1
  -3   3   1 989.502 19.9231   1
  -3   3   1 986.870 22.4364   1
  -3   3   1 970.481 22.6700   1
  -3   3   1 967.890 19.2269   1
  -3   3   1 1016.11 19.8589   1
   2  -3  -1 167.070 5.57737   1
   2  -3  -1 166.503 6.30838   1
  -2   3   1 171.584 5.81360   1
  -2   3   1 177.566 6.14450   1
  -2   3   1 171.441 5.10050   1
  -2   3   1 172.544 5.21113   1
   1  -3  -1 963.809 20.0437   1
   1  -3  -1 975.932 21.3456   1
   1  -3  -1 986.325 19.9744   1
   1  -3  -1 956.986 22.0087   1
  -1   3   1 979.608 21.4355   1
  -1   3   1 978.423 19.9527   1
  -1   3   1 978.944 19.6311   1
  -1   3   1 1008.62 19.7753   1
   0  -3  -1 786.761 17.5645   1
   0  -3  -1 766.535 16.5830   1
   0  -3  -1 753.682 15.8045   1
   0  -3  -1 765.036 15.8772   1
   0   3   1 773.625 15.7849   1
   0   3   1 801.022 15.9226   1
   0   3   1 779.932 17.6011   1
   0   3   1 779.040 14.9258   1
   1   3   0 3611.16 65.3957  -2
  -1  -3  -1 3611.16 65.3957   1
   1   3   0 3713.38 66.1539  -2
  -1  -3  -1 3713.38 66.1539   1
   1   3   0 3765.83 65.4369  -2
  -1  -3  -1 3765.83 65.4369   1
  -1  -3   0 3564.77 71.8547  -2
   1   3   1 3564.77 71.8547   1
  -1  -3   0 3483.79 71.7082  -2
   1   3   1 3483.79 71.7082   1
  -1  -3   0 3706.82 71.7018  -2
   1   3   1 3706.82 71.7018   1
   2   3   0 905.340 20.4266  -2
  -2  -3  -1 905.340 20.4266   1
   2   3   0 889.293 17.6407  -2
  -2  -3  -1 889.293 17.6407   1
  -2  -3   0 865.677 18.6159  -2
   2   3   1 865.677 18.6159   1
  -2  -3   0 826.212 20.1522  -2
   2   3   1 826.212 20.1522   1
  -2  -3   0 886.364 18.6450  -2
   2   3   1 886.364 18.6450   1
   3   3   0 5407.68 106.333  -2
  -3  -3  -1 5407.68 106.333   1
  -3  -3   0 5485.91 106.769  -2
   3   3   1 5485.91 106.769   1
  -4  -3  -1 11.8163 1.93287   1
  -4  -3  -1 13.3508 1.77589   1
  -5  -3  -1 97.4840 5.14442   1
  -5  -3  -1 93.2932 5.51205   1
  -6  -3  -1 105.251 6.02749   1
  -6  -3  -1 115.650 6.56304   1
  -7  -3  -1 46.4962 4.67958   1
  -7  -3  -1 57.3367 4.89551   1
   7   3   1 56.5686 5.16891   1
  -8  -3  -1 0.61721 1.64222   1
   8   3   1 1.23347 1.85136   1
   8  -4  -1 1.37377 1.67629   1
  -8   4   1 -0.7124 2.28080   1
   7  -4  -1 0.42429 1.23925   1
  -7   4   1 0.68624 1.67966   1
   6  -4  -1 4.91733 1.88844   1
  -6   4   1 4.20955 2.03536   1
   5  -4  -1 169.747 8.09084   1
   5  -4   0 236.955 10.1340  -2
  -5   4   1 236.955 10.1340   1
  -4   4   0 705.179 19.2264  -2
   4  -4  -1 705.179 19.2264   1
   4  -4   0 711.517 14.4926  -2
  -4   4   1 711.517 14.4926   1
   4  -4   0 670.439 14.9335  -2
  -4   4   1 670.439 14.9335   1
   4  -4   0 704.240 18.6783  -2
  -4   4   1 704.240 18.6783   1
   4  -4   0 683.375 18.9710  -2
  -4   4   1 683.375 18.9710   1
  -3   4   0 2896.99 56.1126  -2
   3  -4  -1 2896.99 56.1126   1
  -3   4   0 2803.02 55.4087  -2
   3  -4  -1 2803.02 55.4087   1
  -3   4   0 2972.71 61.6609  -2
   3  -4  -1 2972.71 61.6609   1
  -3   4   0 2879.00 60.2520  -2
   3  -4  -1 2879.00 60.2520   1
   3  -4   0 2926.17 60.2321  -2
  -3   4   1 2926.17 60.2321   1
   3  -4   0 2970.78 54.6712  -2
  -3   4   1 2970.78 54.6712   1
   3  -4   0 3018.33 55.0000  -2
  -3   4   1 3018.33 55.0000   1
   3  -4   0 2947.88 58.3499  -2
  -3   4   1 2947.88 58.3499   1
  -2   4   0 3260.70 69.6087  -2
   2  -4  -1 3260.70 69.6087   1
  -2   4   0 3463.20 64.1753  -2
   2  -4  -1 3463.20 64.1753   1
  -2   4   0 3361.50 63.4850  -2
   2  -4  -1 3361.50 63.4850   1
  -2   4   0 3365.91 68.9307  -2
   2  -4  -1 3365.91 68.9307   1
   2  -4   0 3396.94 63.3134  -2
  -2   4   1 3396.94 63.3134   1
   2  -4   0 3368.46 65.5844  -2
  -2   4   1 3368.46 65.5844   1
   2  -4   0 3407.74 68.2042  -2
  -2   4   1 3407.74 68.2042   1
   2  -4   0 3549.46 63.0207  -2
  -2   4   1 3549.46 63.0207   1
   1  -4  -1 2233.93 42.9441   1
   1  -4  -1 2264.22 46.4525   1
   1  -4  -1 2238.45 43.3355   1
   1  -4  -1 2320.87 47.3426   1
   1  -4   0 3443.65 68.7072  -2
  -1   4   1 3443.65 68.7072   1
   0  -4  -1 1821.01 34.6956   1
   0  -4  -1 1780.05 34.7756   1
   0  -4  -1 1812.28 35.3689   1
   0  -4  -1 1783.34 36.9291   1
   0  -4  -1 1878.86 38.4298   1
   0   4   1 1810.93 34.9741   1
   0   4   1 1842.40 34.7243   1
   0   4   1 1801.95 38.0991   1
   0   4   1 1800.14 33.9416   1
  -1  -4  -1 356.873 8.42305   1
  -1  -4  -1 350.969 7.36561   1
  -1  -4  -1 335.423 7.33002   1
  -1  -4  -1 350.890 7.73822   1
  -1  -4  -1 346.191 7.72670   1
   1   4   1 338.736 8.28691   1
   1   4   1 345.398 8.77870   1
   1   4   1 333.053 8.15769   1
   1   4   1 324.675 10.0336   1
  -2  -4  -1 2403.48 42.6244   1
   2   4   1 2188.19 42.5275   1
   2   4   1 2246.94 45.9365   1
   2   4   1 2255.21 46.1553   1
   2   4   1 2247.61 47.2779   1
  -3  -4  -1 1.88947 0.69979   1
   3   4   1 3.43638 1.22599   1
   3   4   1 2.01432 0.65777   1
   3   4   1 4.47448 0.94041   1
  -4  -4  -1 111.780 4.72872   1
  -4  -4  -1 106.287 5.72077   1
   4   4   1 100.440 5.68309   1
  -5  -4  -1 20.2064 2.78002   1
  -5  -4  -1 20.3441 2.43516   1
   5   4   1 18.9732 2.86546   1
  -6  -4  -1 1122.97 26.9831   1
  -6  -4  -1 1135.11 28.5902   1
   6   4   1 1103.77 28.8174   1
  -7  -4  -1 240.504 10.7106   1
  -7  -4  -1 235.418 10.2901   1
   7   4   1 251.243 11.2689   1
   7   4   1 253.863 11.1598   1
  -8  -4  -1 533.765 19.8392   1
  -8   5   0 29.5267 4.71146  -2
   8  -5  -1 29.5267 4.71146   1
   8  -5   0 34.3392 6.07518  -2
  -8   5   1 34.3392 6.07518   1
  -7   5   0 881.247 26.2902  -2
   7  -5  -1 881.247 26.2902   1
   7  -5   0 898.740 26.7278  -2
  -7   5   1 898.740 26.7278   1
  -6   5   0 235.210 10.9624  -2
   6  -5  -1 235.210 10.9624   1
   6  -5   0 220.949 10.6698  -2
  -6   5   1 220.949 10.6698   1
  -5   5   0 630.523 19.1222  -2
   5  -5  -1 630.523 19.1222   1
   5  -5   0 609.815 18.9174  -2
  -5   5   1 609.815 18.9174   1
   5  -5   0 617.216 13.6060  -2
  -5   5   1 617.216 13.6060   1
   5  -5   0 603.805 18.3936  -2
  -5   5   1 603.805 18.3936   1
   4  -5  -1 9.95093 1.90192   1
   4  -5  -1 6.11467 1.92925   1
   4  -5   0 123.030 6.85569  -2
  -4   5   1 123.030 6.85569   1
   3  -5  -1 811.601 19.2068   1
   3  -5  -1 774.172 21.0886   1
   3  -5  -1 801.527 20.0598   1
  -3   5   1 809.805 21.0707   1
  -3   5   1 799.788 18.0418   1
  -3   5   1 789.852 19.5949   1
  -3   5   1 784.057 17.9044   1
   2  -5  -1 84.6878 4.40859   1
   2  -5  -1 80.7264 4.38639   1
   2  -5  -1 91.0639 4.62448   1
   2  -5  -1 85.8152 5.08133   1
  -2   5   1 93.7251 5.16406   1
  -2   5   1 90.9166 4.25455   1
  -2   5   1 85.7498 4.16811   1
  -2   5   1 84.2494 4.18559   1
   1  -5  -1 1014.52 22.7314   1
   1  -5  -1 1016.06 23.1952   1
   1  -5  -1 1032.45 24.6792   1
   1  -5  -1 1026.48 22.2032   1
   1  -5  -1 1031.45 22.1751   1
  -1   5   1 1003.22 21.1777   1
  -1   5   1 991.042 21.7294   1
  -1   5   1 1016.25 21.7891   1
  -1   5   1 1013.25 24.2130   1
   0  -5  -1 35.0289 2.10555   1
   0  -5  -1 34.7916 2.43691   1
   0  -5  -1 38.8255 2.72016   1
   0  -5  -1 37.6548 2.93034   1
   0  -5  -1 35.1077 2.38081   1
   0   5   1 35.0653 2.50795   1
   0   5   1 31.0072 2.90325   1
   0   5   1 33.5159 2.41838   1
  -1  -5  -1 41.7888 2.00383   1
  -1  -5  -1 40.9879 2.03831   1
  -1  -5  -1 42.3734 2.21428   1
  -1  -5  -1 39.9184 2.21216   1
  -1  -5  -1 41.2411 2.49181   1
   1   5   1 38.6861 2.42137   1
   1   5   1 39.0670 2.31443   1
   1   5   1 40.8547 2.48372   1
   1   5   1 35.3242 3.14895   1
   2   5   1 166.885 6.22983   1
   2   5   1 170.438 7.18401   1
  -3  -5  -1 469.952 10.5816   1
   3   5   1 442.121 13.9882   1
   3   5   1 442.960 11.9547   1
   3   5   1 463.718 10.7358   1
  -4  -5  -1 121.107 4.75293   1
   4   5   1 103.589 6.20771   1
   4   5   1 112.408 4.48349   1
  -5  -5  -1 864.748 20.4786   1
   5   5   1 849.461 23.3300   1
  -6  -5  -1 148.404 8.63300  -2
   6   5   1 148.404 8.63300   1
  -7  -5  -1 692.725 21.9379  -2
   7   5   1 692.725 21.9379   1
   7  -6  -1 177.939 9.14616   1
   7  -6  -1 185.416 10.5127   1
   7  -6  -1 178.970 10.7674   1
  -7   6   1 186.313 11.0238   1
   6  -6  -1 721.371 20.9582   1
   6  -6  -1 717.669 22.9636   1
  -6   6   1 730.300 22.4073   1
   5  -6  -1 466.847 16.5066   1
   5  -6  -1 451.347 14.6709   1
  -5   6   1 460.382 16.3909   1
  -5   6   1 457.514 10.9967   1
  -5   6   1 467.928 15.8813   1
  -5   6   1 465.594 11.9941   1
   4  -6  -1 705.323 20.7874   1
   4  -6  -1 672.886 18.9931   1
  -4   6   1 666.151 20.2314   1
  -4   6   1 691.175 19.2097   1
  -4   6   1 697.091 16.8390   1
  -4   6   1 681.700 16.3829   1
   3  -6  -1 69.3802 4.46885   1
   3  -6  -1 71.9639 4.57719   1
   3  -6  -1 73.5102 4.68868   1
   3  -6  -1 64.0179 5.03581   1
  -3   6   1 65.4217 3.92669   1
  -3   6   1 72.6418 5.24004   1
  -3   6   1 63.2007 3.98613   1
  -3   6   1 72.2163 4.55585   1
   2  -6  -1 700.323 19.3268   1
   2  -6  -1 661.972 16.4746   1
   2  -6  -1 668.819 17.1575   1
   2  -6  -1 677.452 17.7875   1
   2  -6  -1 675.032 17.2133   1
  -2   6   1 671.237 18.9540   1
  -2   6   1 683.352 16.6459   1
  -2   6   1 669.921 16.6034   1
  -2   6   1 700.128 16.7072   1
   1  -6  -1 0.56848 0.84973   1
   1  -6  -1 0.14354 0.95717   1
   1  -6  -1 0.83821 0.85969   1
   1  -6  -1 -0.1710 0.65991   1
   1  -6  -1 1.16135 0.69155   1
   1  -6  -1 1.67118 0.87306   1
  -1   6   1 -0.1393 0.68312   1
  -1   6   1 0.88468 0.82465   1
  -1   6   1 -0.2087 0.75286   1
  -1   6   1 2.34742 0.87741   1
   0  -6  -1 1191.76 26.1337   1
   0  -6  -1 1208.35 25.4321   1
   0  -6  -1 1165.17 25.8974   1
   0  -6  -1 1286.72 28.9224   1
   0  -6  -1 1195.69 25.4297   1
   0   6   1 1237.64 25.8454   1
   0   6   1 1205.95 28.9621   1
   0   6   1 1209.24 25.6897   1
   1   6   1 1250.39 24.8317  -2
  -1  -6  -1 1250.39 24.8317   1
   1   6   1 1213.32 24.3977  -2
  -1  -6  -1 1213.32 24.3977   1
   1   6   1 775.257 17.5038   1
   1   6   1 789.654 17.5658   1
   1   6   1 737.002 20.1460   1
   2   6   1 2202.89 41.8007  -2
  -2  -6  -1 2202.89 41.8007   1
  -2  -6  -1 2247.06 44.8818  -2
   2   6   1 2247.06 44.8818   1
  -2  -6  -1 2151.12 48.0949  -2
   2   6   1 2151.12 48.0949   1
  -3  -6  -1 513.104 16.0760  -2
   3   6   1 513.104 16.0760   1
  -4  -6  -1 1548.07 37.1096  -2
   4   6   1 1548.07 37.1096   1
  -5  -6  -1 679.166 20.8621  -2
   5   6   1 679.166 20.8621   1
  -6  -6  -1 1348.27 35.1048  -2
   6   6   1 1348.27 35.1048   1
   7   6   1 612.576 20.6383   1
   7  -7  -1 193.189 11.6821   1
   7  -7  -1 215.720 12.0415   1
   7  -7  -1 204.534 10.4204   1
  -7   7   1 195.177 11.7527   1
  -6   7   1 5.03458 3.67848  -2
   6  -7  -1 5.03458 3.67848   1
  -6   7   1 0.43370 2.10730   1
  -6   7   1 6.14950 1.44114   1
   5  -7  -1 139.183 8.67159   1
   5  -7  -1 121.579 7.65212   1
   5  -7  -1 126.422 7.28452   1
  -5   7   1 125.501 8.26973   1
  -5   7   1 125.191 5.75079   1
  -5   7   1 123.531 7.78744   1
  -5   7   1 121.033 5.23312   1
   4  -7  -1 4.07936 2.00378   1
   4  -7  -1 3.64414 1.52727   1
   4  -7  -1 1.93508 1.28942   1
  -4   7   1 2.09164 1.45709   1
  -4   7   1 3.60814 1.24424   1
  -4   7   1 3.64187 1.60018   1
  -4   7   1 1.99069 1.38006   1
  -3   7   1 121.138 6.50460  -2
   3  -7  -1 121.138 6.50460   1
  -3   7   1 118.211 6.65218  -2
   3  -7  -1 118.211 6.65218   1
  -3   7   1 132.960 7.93747  -2
   3  -7  -1 132.960 7.93747   1
  -3   7   1 122.061 6.68856  -2
   3  -7  -1 122.061 6.68856   1
  -3   7   1 123.793 6.45064  -2
   3  -7  -1 123.793 6.45064   1
   3  -7  -1 128.475 6.30889  -2
  -3   7   1 128.475 6.30889   1
   3  -7  -1 121.817 6.29891  -2
  -3   7   1 121.817 6.29891   1
   3  -7  -1 123.857 7.60451  -2
  -3   7   1 123.857 7.60451   1
   3  -7  -1 125.514 6.46026  -2
  -3   7   1 125.514 6.46026   1
  -2   7   1 180.141 7.47389  -2
   2  -7  -1 180.141 7.47389   1
  -2   7   1 177.873 7.63856  -2
   2  -7  -1 177.873 7.63856   1
  -2   7   1 175.329 7.49743  -2
   2  -7  -1 175.329 7.49743   1
  -2   7   1 167.562 6.62804  -2
   2  -7  -1 167.562 6.62804   1
  -2   7   1 166.074 7.58357  -2
   2  -7  -1 166.074 7.58357   1
  -2   7   1 188.496 8.93629  -2
   2  -7  -1 188.496 8.93629   1
   2  -7  -1 151.752 8.28907  -2
  -2   7   1 151.752 8.28907   1
   2  -7  -1 170.675 7.36301  -2
  -2   7   1 170.675 7.36301   1
   2  -7  -1 156.884 7.00508  -2
  -2   7   1 156.884 7.00508   1
   2  -7  -1 177.260 6.72955  -2
  -2   7   1 177.260 6.72955   1
  -1   7   1 493.097 13.6844  -2
   1  -7  -1 493.097 13.6844   1
  -1   7   1 493.734 14.2165  -2
   1  -7  -1 493.734 14.2165   1
  -1   7   1 497.661 13.6282  -2
   1  -7  -1 497.661 13.6282   1
  -1   7   1 472.263 13.4326  -2
   1  -7  -1 472.263 13.4326   1
   1  -7  -1 492.649 15.9780  -2
  -1   7   1 492.649 15.9780   1
   1  -7  -1 492.086 13.7082  -2
  -1   7   1 492.086 13.7082   1
   1  -7  -1 501.682 13.8309  -2
  -1   7   1 501.682 13.8309   1
   0   7   1 83.2982 4.57547  -2
   0  -7  -1 83.2982 4.57547   1
   0   7   1 74.1300 4.15033  -2
   0  -7  -1 74.1300 4.15033   1
   0   7   1 73.7267 4.58802  -2
   0  -7  -1 73.7267 4.58802   1
   0  -7  -1 84.1920 4.82845  -2
   0   7   1 84.1920 4.82845   1
   0  -7  -1 75.4899 5.55921  -2
   0   7   1 75.4899 5.55921   1
   0  -7  -1 77.6175 4.68765  -2
   0   7   1 77.6175 4.68765   1
   1   7   1 2473.65 48.5284  -2
  -1  -7  -1 2473.65 48.5284   1
   1   7   1 2454.04 46.6607  -2
  -1  -7  -1 2454.04 46.6607   1
   1   7   1 2501.40 46.9616  -2
  -1  -7  -1 2501.40 46.9616   1
  -1  -7  -1 2429.33 54.0715  -2
   1   7   1 2429.33 54.0715   1
   2   7   1 604.651 14.2030  -2
  -2  -7  -1 604.651 14.2030   1
   2   7   1 359.703 13.1912   1
   2   7   1 366.211 10.3196   1
   3   7   1 1881.37 43.3970   1
   4   7   1 147.853 8.23618   1
   5   7   1 339.365 13.4980   1
   6   7   1 46.0540 5.31129   1
   7   7   1 690.040 22.9813   1
  -6   8   1 381.132 15.7535  -2
   6  -8  -1 381.132 15.7535   1
  -6   8   1 371.030 14.7853  -2
   6  -8  -1 371.030 14.7853   1
  -6   8   1 368.457 16.4915  -2
   6  -8  -1 368.457 16.4915   1
   6  -8  -1 407.162 16.0292  -2
  -6   8   1 407.162 16.0292   1
   6  -8  -1 394.122 11.2073  -2
  -6   8   1 394.122 11.2073   1
  -5   8   1 78.2282 5.91040  -2
   5  -8  -1 78.2282 5.91040   1
  -5   8   1 60.6342 6.18769  -2
   5  -8  -1 60.6342 6.18769   1
  -5   8   1 73.7748 6.15419  -2
   5  -8  -1 73.7748 6.15419   1
   5  -8  -1 67.8807 4.54954  -2
  -5   8   1 67.8807 4.54954   1
   5  -8  -1 77.0510 6.23126  -2
  -5   8   1 77.0510 6.23126   1
   5  -8  -1 67.5785 4.19679  -2
  -5   8   1 67.5785 4.19679   1
   5  -8  -1 66.7510 6.35905  -2
  -5   8   1 66.7510 6.35905   1
  -4   8   1 776.305 22.1488  -2
   4  -8  -1 776.305 22.1488   1
   4  -8  -1 783.159 20.1187  -2
  -4   8   1 783.159 20.1187   1
   4  -8  -1 798.426 24.3919  -2
  -4   8   1 798.426 24.3919   1
   4  -8  -1 764.724 19.6239  -2
  -4   8   1 764.724 19.6239   1
  -3   8   1 528.108 16.2179  -2
   3  -8  -1 528.108 16.2179   1
  -3   8   1 525.395 16.4182  -2
   3  -8  -1 525.395 16.4182   1
   3  -8  -1 528.635 15.3737  -2
  -3   8   1 528.635 15.3737   1
   3  -8  -1 533.101 18.4417  -2
  -3   8   1 533.101 18.4417   1
   3  -8  -1 530.831 15.5119  -2
  -3   8   1 530.831 15.5119   1
   2  -8  -1 316.022 11.9841   1
   2  -8  -1 349.829 11.9436   1
   2  -8  -1 336.419 11.7091   1
   2  -8  -1 343.451 11.8418   1
  -2   8   1 343.601 11.4462   1
  -2   8   1 350.307 13.7005   1
  -2   8   1 338.919 11.3841   1
   1  -8  -1 687.623 17.9493   1
   1  -8  -1 667.195 18.0090   1
   1  -8  -1 676.700 17.9660   1
   1  -8  -1 699.495 18.8027   1
  -1   8   1 680.502 18.0906   1
  -1   8   1 720.874 21.2807   1
  -1   8   1 708.859 18.2108   1
   0  -8  -1 1116.75 25.3550   1
   0  -8  -1 1142.88 25.5323   1
   0  -8  -1 1131.20 26.5601   1
   0   8   1 1117.39 29.7843   1
   0   8   1 1204.38 26.4455   1
  -1  -8  -1 926.523 21.5146   1
  -1  -8  -1 895.479 19.4234   1
  -1  -8  -1 914.837 20.0449   1
   1   8   1 884.375 24.9408   1
  -2  -8  -1 1553.28 31.9635   1
   2   8   1 1556.68 38.1496   1
   3   8   1 438.619 15.9120   1
   4   8   1 55.4436 5.41314   1
   5   8   1 378.947 15.0683   1
   6   8   1 52.8396 5.84699   1
  -7  -8  -2 34.5851 4.14769  -2
   7   8   1 34.5851 4.14769   1
   5  -9  -1 516.972 17.7221   1
  -5   9   1 511.832 14.7106   1
  -5   9   1 486.721 14.9643   1
  -5   9   1 475.945 19.4178   1
   4  -9  -1 427.464 15.3282   1
   4  -9  -1 449.036 15.5131   1
  -4   9   1 408.889 13.4698   1
  -4   9   1 422.247 14.0809   1
  -4   9   1 439.531 17.4167   1
   3  -9  -1 1293.50 31.5675   1
   3  -9  -1 1302.24 32.6150   1
   3  -9  -1 1235.64 31.0632   1
  -3   9   1 1304.75 30.3515   1
  -3   9   1 1333.93 35.4879   1
  -3   9   1 1274.76 30.2676   1
   2  -9  -1 303.405 11.3887   1
   2  -9  -1 276.285 10.8700   1
   2  -9  -1 304.216 11.8776   1
  -2   9   1 296.353 11.0452   1
  -2   9   1 278.789 12.9372   1
  -2   9   1 291.973 10.9446   1
   1  -9  -1 804.242 21.8730   1
   1  -9  -1 803.939 20.9259   1
   1  -9  -1 802.943 20.9662   1
  -1   9   1 820.741 21.3434   1
  -1   9   1 851.361 21.6016   1
  -1   9   1 795.596 24.4274   1
   0  -9  -1 64.4487 4.34831   1
   0  -9  -1 62.8519 4.68356   1
   0  -9  -1 58.3478 3.97777   1
   0   9   1 51.7657 5.30395   1
  -1  -9  -1 1849.18 36.4799   1
  -1  -9  -1 1836.17 37.1139   1
  -1  -9  -1 1826.39 38.9620   1
   1   9   1 1853.45 44.7147   1
   2   9   2 241.869 8.38645  -2
  -2  -9  -1 241.869 8.38645   1
   2   9   1 21.4437 3.82543   1
  -3  -9  -2 148.746 9.59650  -2
   3   9   1 148.746 9.59650   1
  -4  -9  -2 704.428 23.5205  -2
   4   9   1 704.428 23.5205   1
  -5  -9  -2 1000.76 30.0589  -2
   5   9   1 1000.76 30.0589   1
  -6  -9  -2 509.639 20.0136  -2
   6   9   1 509.639 20.0136   1
  -5  10   1 434.808 14.1386   1
  -5  10   1 463.785 19.6997   1
  -5  10   1 448.306 14.8546   1
   4 -10  -1 497.886 17.4256   1
   4 -10  -1 516.482 17.4890   1
  -4  10   1 463.718 15.8665   1
  -4  10   1 469.196 15.3937   1
  -4  10   1 500.171 19.8702   1
  -3  10   2 564.198 18.3759  -2
   3 -10  -1 564.198 18.3759   1
  -3  10   1 493.334 19.3530   1
  -3  10   1 495.257 15.9163   1
  -3  10   1 483.605 15.8204   1
  -2  10   2 715.848 20.3845  -2
   2 -10  -1 715.848 20.3845   1
  -2  10   2 684.745 21.1294  -2
   2 -10  -1 684.745 21.1294   1
  -2  10   2 687.834 20.1850  -2
   2 -10  -1 687.834 20.1850   1
   2 -10  -2 763.455 21.1090  -2
  -2  10   1 763.455 21.1090   1
   2 -10  -2 729.260 20.8132  -2
  -2  10   1 729.260 20.8132   1
   2 -10  -2 713.879 24.3144  -2
  -2  10   1 713.879 24.3144   1
  -1  10   2 236.561 9.78998  -2
   1 -10  -1 236.561 9.78998   1
  -1  10   2 229.896 9.86500  -2
   1 -10  -1 229.896 9.86500   1
  -1  10   2 239.969 10.7079  -2
   1 -10  -1 239.969 10.7079   1
   1 -10  -2 236.629 12.3789  -2
  -1  10   1 236.629 12.3789   1
   1 -10  -2 250.141 10.7473  -2
  -1  10   1 250.141 10.7473   1
   0  10   2 831.055 21.0310  -2
   0 -10  -1 831.055 21.0310   1
   0  10   2 851.954 22.4906  -2
   0 -10  -1 851.954 22.4906   1
   0  10   2 845.117 20.7865  -2
   0 -10  -1 845.117 20.7865   1
   0 -10  -2 827.704 26.3840  -2
   0  10   1 827.704 26.3840   1
   1  10   2 1.25363 1.15501  -2
  -1 -10  -1 1.25363 1.15501   1
   1  10   2 4.38694 1.93015  -2
  -1 -10  -1 4.38694 1.93015   1
   1  10   2 2.42926 1.33937  -2
  -1 -10  -1 2.42926 1.33937   1
  -1 -10  -2 0.66142 2.59423  -2
   1  10   1 0.66142 2.59423   1
   2  10   2 311.617 10.2584  -2
  -2 -10  -1 311.617 10.2584   1
  -2 -10  -2 312.651 14.5533  -2
   2  10   1 312.651 14.5533   1
  -3 -10  -2 30.2318 6.07023  -2
   3  10   1 30.2318 6.07023   1
   4  10   1 568.726 20.9936   1
   5  10   1 57.9415 6.71755   1
  -3  11   2 77.3902 6.55543  -2
   3 -11  -1 77.3902 6.55543   1
  -3  11   2 80.3063 6.64834  -2
   3 -11  -1 80.3063 6.64834   1
   3 -11  -2 81.5690 6.86214  -2
  -3  11   1 81.5690 6.86214   1
   3 -11  -2 61.7726 6.91934  -2
  -3  11   1 61.7726 6.91934   1
   3 -11  -2 73.2236 6.41743  -2
  -3  11   1 73.2236 6.41743   1
  -2  11   2 167.271 9.29112  -2
   2 -11  -1 167.271 9.29112   1
  -2  11   2 181.754 10.1061  -2
   2 -11  -1 181.754 10.1061   1
  -2  11   2 166.103 8.97184  -2
   2 -11  -1 166.103 8.97184   1
   2 -11  -2 183.988 9.95243  -2
  -2  11   1 183.988 9.95243   1
   2 -11  -2 183.683 9.78852  -2
  -2  11   1 183.683 9.78852   1
   2 -11  -2 161.822 11.0772  -2
  -2  11   1 161.822 11.0772   1
  -1  11   2 744.740 22.2538  -2
   1 -11  -1 744.740 22.2538   1
  -1  11   2 741.319 21.1565  -2
   1 -11  -1 741.319 21.1565   1
  -1  11   2 768.728 21.2884  -2
   1 -11  -1 768.728 21.2884   1
   1 -11  -2 753.744 25.7569  -2
  -1  11   1 753.744 25.7569   1
   1 -11  -2 809.713 22.8375  -2
  -1  11   1 809.713 22.8375   1
   0  11   2 1079.17 25.4639  -2
   0 -11  -1 1079.17 25.4639   1
   0  11   2 1066.67 26.0652  -2
   0 -11  -1 1066.67 26.0652   1
   0  11   2 1104.76 28.0135  -2
   0 -11  -1 1104.76 28.0135   1
   0  11   1 501.510 19.6888   1
  -1 -11  -1 214.239 9.31539   1
  -1 -11  -1 204.267 7.76288   1
   1  11   1 198.165 11.7008   1
  -2 -11  -1 60.9134 4.44153   1
   2  11   1 54.4379 6.44983   1
   3  11   1 400.297 17.5190   1
   4  11   1 218.424 12.7685   1
   1 -12  -1 72.2760 6.45669   1
   1 -12  -1 64.7946 5.85242   1
   1 -12  -1 72.7718 5.55186   1
  -1  12   1 74.5918 8.10587   1
   0 -12  -1 408.406 15.0859   1
   0 -12  -1 416.744 13.7492   1
   0 -12  -1 416.071 12.9619   1
  -1 -12  -1 2.38141 1.46059   1
  -1 -12  -1 2.38608 1.58199   1
   1  12   1 4.10566 2.75058   1
  -2 -12  -1 641.578 17.6090   1
   2  12   1 632.443 23.9489   1
   3  11  -2 15.8066 4.16924   1
   3  11  -2 12.7242 4.09527   1
   2  11  -2 371.718 16.3278   1
   2  11  -2 383.789 16.9802   1
  -2 -11   2 372.043 13.0082   1
   1  11  -2 76.9939 7.75283   1
   1  11  -2 76.5355 7.15459   1
  -1 -11   2 65.2729 5.57593   1
  -1 -11   2 63.8493 4.54044   1
  -1 -11   2 63.6079 3.80094   1
   0  11  -2 191.681 12.0802   1
   0  11   5 358.651 12.9199  -2
   0 -11   2 358.651 12.9199   1
   1 -11  -5 581.185 22.9533  -2
  -1  11  -2 581.185 22.9533   1
   1 -11  -5 582.155 19.1636  -2
  -1  11  -2 582.155 19.1636   1
  -1  11   5 588.466 19.5759  -2
   1 -11   2 588.466 19.5759   1
  -1  11   5 551.893 18.0259  -2
   1 -11   2 551.893 18.0259   1
  -1  11   5 539.288 17.5233  -2
   1 -11   2 539.288 17.5233   1
   2 -11  -5 322.004 13.5731  -2
  -2  11  -2 322.004 13.5731   1
   2 -11  -5 318.637 13.3452  -2
  -2  11  -2 318.637 13.3452   1
  -2  11   5 272.511 13.0393  -2
   2 -11   2 272.511 13.0393   1
  -2  11   5 275.938 12.6693  -2
   2 -11   2 275.938 12.6693   1
  -2  11   5 292.171 12.7336  -2
   2 -11   2 292.171 12.7336   1
   3 -11  -5 -1.7151 3.98811  -2
  -3  11  -2 -1.7151 3.98811   1
   3 -11  -5 -0.9866 3.57349  -2
  -3  11  -2 -0.9866 3.57349   1
  -3  11   5 4.57604 4.12783  -2
   3 -11   2 4.57604 4.12783   1
   5  10  -2 10.9114 3.16743   1
   4  10  -2 4.28123 2.52185   1
   4  10  -2 2.39002 2.79465   1
  -3 -10  -5 115.238 9.54758  -2
   3  10  -2 115.238 9.54758   1
  -3 -10  -5 129.439 8.98249  -2
   3  10  -2 129.439 8.98249   1
  -2 -10  -5 96.1474 7.67564  -2
   2  10  -2 96.1474 7.67564   1
  -2 -10  -5 93.1650 8.28095  -2
   2  10  -2 93.1650 8.28095   1
   2  10   5 91.0409 5.80078  -2
  -2 -10   2 91.0409 5.80078   1
  -1 -10  -5 210.112 11.7596  -2
   1  10  -2 210.112 11.7596   1
  -1 -10  -5 213.742 11.3330  -2
   1  10  -2 213.742 11.3330   1
   1  10   5 207.447 8.25225  -2
  -1 -10   2 207.447 8.25225   1
   1  10   5 207.055 7.55827  -2
  -1 -10   2 207.055 7.55827   1
   1  10   5 205.609 9.31873  -2
  -1 -10   2 205.609 9.31873   1
   0 -10  -5 239.974 12.8591  -2
   0  10  -2 239.974 12.8591   1
   0  10   5 230.844 9.26674  -2
   0 -10   2 230.844 9.26674   1
   0  10   5 242.764 9.83924  -2
   0 -10   2 242.764 9.83924   1
   0  10   5 213.261 10.0784  -2
   0 -10   2 213.261 10.0784   1
   1 -10  -5 633.766 23.3018  -2
  -1  10  -2 633.766 23.3018   1
   1 -10  -5 689.859 20.1858  -2
  -1  10  -2 689.859 20.1858   1
  -1  10   5 644.722 19.0138  -2
   1 -10   2 644.722 19.0138   1
  -1  10   5 636.637 18.8680  -2
   1 -10   2 636.637 18.8680   1
  -1  10   5 667.515 20.3072  -2
   1 -10   2 667.515 20.3072   1
   2 -10  -5 -6.5627 4.13767  -2
  -2  10  -2 -6.5627 4.13767   1
   2 -10  -5 3.64830 3.70155  -2
  -2  10  -2 3.64830 3.70155   1
   2 -10  -5 6.70364 4.16339  -2
  -2  10  -2 6.70364 4.16339   1
  -2  10   5 -1.7944 3.48679  -2
   2 -10   2 -1.7944 3.48679   1
  -2  10   5 2.31426 3.32164  -2
   2 -10   2 2.31426 3.32164   1
  -2  10   5 0.48655 3.43758  -2
   2 -10   2 0.48655 3.43758   1
  -3  10  -2 15.6893 3.67255   1
  -3  10  -2 14.9970 4.08533   1
  -3  10  -2 20.2331 3.70480   1
   3 -10   2 10.2102 2.97862   1
   3 -10   2 17.7377 3.61899   1
  -4  10  -2 4.23243 2.46354   1
  -4  10  -2 3.46323 2.89553   1
  -4  10  -2 6.41545 2.45266   1
   4 -10   2 6.02492 2.46927   1
  -6  -9  -5 278.809 12.4671  -2
   6   9  -2 278.809 12.4671   1
  -5  -9  -5 610.705 19.8714  -2
   5   9  -2 610.705 19.8714   1
  -4  -9  -5 420.964 16.6331  -2
   4   9  -2 420.964 16.6331   1
  -4  -9  -5 374.516 15.0494  -2
   4   9  -2 374.516 15.0494   1
  -3  -9  -5 63.6085 6.24897  -2
   3   9  -2 63.6085 6.24897   1
  -3  -9  -5 73.7791 7.27735  -2
   3   9  -2 73.7791 7.27735   1
   2   9  -2 60.2207 5.48756   1
   2   9  -2 61.4449 5.98467   1
  -2  -9   2 59.4989 4.24433   1
   1   9  -2 17.6432 3.62511   1
   1   9  -2 15.8834 3.29132   1
  -1  -9   2 16.6640 2.19202   1
  -1  -9   2 17.5793 2.80419   1
  -1  -9   2 18.5853 2.52616   1
   0   9  -2 704.450 22.7750   1
   0   9  -2 734.961 22.4815   1
   0  -9   2 679.835 19.7970   1
   0  -9   2 719.004 18.9062   1
   0  -9   2 693.910 18.8165   1
  -1   9  -2 1.58336 1.39182   1
  -1   9  -2 0.04589 1.40646   1
  -1   9  -2 2.13919 1.59687   1
   1  -9   2 0.49620 1.29811   1
   1  -9   2 0.93454 1.50446   1
   1  -9   2 2.14450 1.40785   1
  -2   9  -2 292.194 11.5021   1
  -2   9  -2 294.047 11.4424   1
  -2   9  -2 296.562 14.0759   1
   2  -9   2 322.318 12.0865   1
   2  -9   2 310.362 12.0179   1
   2  -9   2 315.628 12.6887   1
  -3   9  -2 7.67855 2.99959   1
  -3   9  -2 7.78470 2.36667   1
  -3   9  -2 10.1150 2.69212   1
   3  -9   2 10.2205 2.59689   1
   3  -9   2 9.58704 2.71844   1
   3  -9   2 12.2852 3.24284   1
  -4   9  -2 225.088 9.76633   1
  -4   9  -2 249.838 13.6569   1
  -4   9  -2 226.732 9.97304   1
   4  -9   2 243.428 11.7105   1
   4  -9   2 244.665 11.1957   1
  -5   9  -2 0.30746 1.94581   1
  -5   9  -2 2.67994 1.42089   1
  -5   9  -2 0.72535 1.26780   1
   5  -9   2 0.28829 1.55501   1
   6   8  -2 19.7294 3.67150   1
   5   8  -2 462.582 16.5328   1
   5   8  -2 441.839 15.3132   1
   4   8  -2 235.750 10.4595   1
   4   8  -2 254.358 11.4191   1
   3   8  -2 178.344 9.41786   1
   3   8  -2 177.120 8.78438   1
   2   8  -2 31.9066 3.73788   1
   2   8  -2 30.4551 4.08028   1
  -2  -8   2 28.7948 2.95158   1
  -2  -8   2 33.7736 2.17536   1
   1   8  -2 322.073 12.5479   1
   1   8  -2 338.490 13.3361   1
  -1  -8   2 321.694 10.2155   1
  -1  -8   2 314.716 9.65336   1
  -1  -8   2 324.780 11.1802   1
   0   8  -2 41.6494 3.82633   1
   0   8  -2 39.9417 4.32302   1
   0   8  -2 38.0089 4.51990   1
   0  -8   2 43.1261 3.66050   1
   0  -8   2 38.9857 3.38955   1
   0  -8   2 36.7636 3.75944   1
  -1   8  -2 2.10107 1.35853   1
  -1   8  -2 1.43188 1.77627   1
  -1   8  -2 3.06342 1.77320   1
  -1   8  -2 2.90693 1.87307   1
   1  -8   2 4.05191 1.52684   1
   1  -8   2 2.31875 1.56073   1
   1  -8   2 1.44134 1.23151   1
   1  -8   2 1.35954 1.21789   1
  -2   8  -2 205.558 8.69891   1
  -2   8  -2 199.555 10.6402   1
  -2   8  -2 210.945 8.86285   1
   2  -8   2 186.893 8.72615   1
   2  -8   2 194.378 9.20187   1
   2  -8   2 201.115 8.86213   1
   2  -8   2 197.545 8.79488   1
   3  -8  -4 376.878 15.9922  -2
  -3   8  -2 376.878 15.9922   1
   3  -8  -4 379.930 12.6820  -2
  -3   8  -2 379.930 12.6820   1
   3  -8  -4 353.951 12.4299  -2
  -3   8  -2 353.951 12.4299   1
  -3   8   4 371.133 13.4313  -2
   3  -8   2 371.133 13.4313   1
  -3   8   4 381.235 13.7051  -2
   3  -8   2 381.235 13.7051   1
  -3   8   4 357.421 13.1410  -2
   3  -8   2 357.421 13.1410   1
   4  -8  -4 786.946 20.5710  -2
  -4   8  -2 786.946 20.5710   1
   4  -8  -4 798.184 20.9517  -2
  -4   8  -2 798.184 20.9517   1
   4  -8  -4 833.006 26.6010  -2
  -4   8  -2 833.006 26.6010   1
  -4   8   4 817.929 23.5210  -2
   4  -8   2 817.929 23.5210   1
  -4   8   4 792.458 23.0938  -2
   4  -8   2 792.458 23.0938   1
   5  -8  -4 741.747 25.7955  -2
  -5   8  -2 741.747 25.7955   1
   5  -8  -4 717.858 19.1249  -2
  -5   8  -2 717.858 19.1249   1
   5  -8  -4 761.041 18.7060  -2
  -5   8  -2 761.041 18.7060   1
  -5   8   4 708.799 22.0282  -2
   5  -8   2 708.799 22.0282   1
  -5   8   4 772.360 23.5733  -2
   5  -8   2 772.360 23.5733   1
  -5   8   4 762.671 24.9594  -2
   5  -8   2 762.671 24.9594   1
   6  -8  -4 78.3875 8.24303  -2
  -6   8  -2 78.3875 8.24303   1
   6  -8  -4 68.5995 4.33224  -2
  -6   8  -2 68.5995 4.33224   1
  -6   8   4 66.7838 6.95622  -2
   6  -8   2 66.7838 6.95622   1
  -6   8   4 57.2210 5.86684  -2
   6  -8   2 57.2210 5.86684   1
  -6   8   4 59.0815 6.52729  -2
   6  -8   2 59.0815 6.52729   1
   7   7  -2 45.4374 4.45428   1
   6   7  -2 364.785 12.8342   1
   5   7  -2 32.6115 3.75841   1
   5   7  -2 40.3242 4.47131   1
   4   7  -2 397.352 13.3203   1
   4   7  -2 394.607 14.0108   1
   3   7  -2 17.5497 3.01394   1
   3   7  -2 14.6225 2.60561   1
   2   7  -2 101.632 6.47476   1
   2   7  -2 101.103 5.99951   1
   2   7   4 179.642 5.51491  -2
  -2  -7   2 179.642 5.51491   1
  -1  -7  -4 234.340 9.98518  -2
   1   7  -2 234.340 9.98518   1
  -1  -7  -4 213.149 10.0182  -2
   1   7  -2 213.149 10.0182   1
   1   7   4 221.987 7.47841  -2
  -1  -7   2 221.987 7.47841   1
   1   7   4 233.269 7.81386  -2
  -1  -7   2 233.269 7.81386   1
   1   7   4 210.849 8.19571  -2
  -1  -7   2 210.849 8.19571   1
   0  -7  -4 460.783 13.2738  -2
   0   7  -2 460.783 13.2738   1
   0  -7  -4 469.586 13.3367  -2
   0   7  -2 469.586 13.3367   1
   0  -7  -4 460.002 15.2767  -2
   0   7  -2 460.002 15.2767   1
   0  -7  -4 460.323 15.6832  -2
   0   7  -2 460.323 15.6832   1
   0   7   4 446.809 12.8950  -2
   0  -7   2 446.809 12.8950   1
   0   7   4 441.902 12.9321  -2
   0  -7   2 441.902 12.9321   1
   0   7   4 476.137 13.9397  -2
   0  -7   2 476.137 13.9397   1
   1  -7  -4 44.0799 4.29627  -2
  -1   7  -2 44.0799 4.29627   1
   1  -7  -4 35.7779 4.26979  -2
  -1   7  -2 35.7779 4.26979   1
   1  -7  -4 45.0780 3.72628  -2
  -1   7  -2 45.0780 3.72628   1
   1  -7  -4 34.7988 3.33788  -2
  -1   7  -2 34.7988 3.33788   1
  -1   7   4 40.5316 3.72791  -2
   1  -7   2 40.5316 3.72791   1
  -1   7   4 41.9960 3.41976  -2
   1  -7   2 41.9960 3.41976   1
  -1   7   4 43.7451 3.41708  -2
   1  -7   2 43.7451 3.41708   1
  -1   7   4 39.9335 3.57669  -2
   1  -7   2 39.9335 3.57669   1
  -1   7   4 38.1337 3.41182  -2
   1  -7   2 38.1337 3.41182   1
   2  -7  -4 520.952 14.7449  -2
  -2   7  -2 520.952 14.7449   1
   2  -7  -4 522.473 17.6434  -2
  -2   7  -2 522.473 17.6434   1
   2  -7  -4 502.870 14.5177  -2
  -2   7  -2 502.870 14.5177   1
  -2   7   4 519.498 15.1892  -2
   2  -7   2 519.498 15.1892   1
  -2   7   4 512.068 15.3673  -2
   2  -7   2 512.068 15.3673   1
  -2   7   4 473.884 14.6754  -2
   2  -7   2 473.884 14.6754   1
  -2   7   4 495.265 14.8547  -2
   2  -7   2 495.265 14.8547   1
  -2   7   4 514.226 15.5491  -2
   2  -7   2 514.226 15.5491   1
   3  -7  -4 30.2992 3.78116  -2
  -3   7  -2 30.2992 3.78116   1
   3  -7  -4 37.6877 5.30236  -2
  -3   7  -2 37.6877 5.30236   1
   3  -7  -4 38.4840 4.33099  -2
  -3   7  -2 38.4840 4.33099   1
  -3   7   4 29.9519 3.86770  -2
   3  -7   2 29.9519 3.86770   1
  -3   7   4 38.0561 4.47615  -2
   3  -7   2 38.0561 4.47615   1
  -3   7   4 40.5362 4.33438  -2
   3  -7   2 40.5362 4.33438   1
  -3   7   4 37.4692 4.37617  -2
   3  -7   2 37.4692 4.37617   1
  -3   7   4 31.0043 4.81550  -2
   3  -7   2 31.0043 4.81550   1
   4  -7  -4 454.275 17.8317  -2
  -4   7  -2 454.275 17.8317   1
   4  -7   2 215.871 10.0219   1
   4  -7   2 206.241 9.27901   1
   4  -7   2 215.972 10.5730   1
  -5   7  -2 47.7694 3.72752   1
  -5   7  -2 50.1412 3.32824   1
  -5   7  -2 50.6514 5.90661   1
   5  -7   2 55.5508 5.39722   1
   5  -7   2 50.6757 5.39589   1
   5  -7   2 46.2235 4.56943   1
  -6   7  -2 54.3339 6.61373   1
   6  -7   2 53.2348 5.86904   1
   6  -7   2 45.1181 5.29710   1
   6  -7   2 47.6573 4.80015   1
   7  -7   2 40.5048 5.26649   1
   7   6  -2 283.080 10.5008   1
  -6  -6  -4 3.46188 2.60028  -2
   6   6  -2 3.46188 2.60028   1
  -5  -6  -4 59.1102 4.60728  -2
   5   6  -2 59.1102 4.60728   1
  -5  -6  -4 75.2123 6.17503  -2
   5   6  -2 75.2123 6.17503   1
  -4  -6  -4 330.533 12.0337  -2
   4   6  -2 330.533 12.0337   1
  -4  -6  -4 306.621 10.8398  -2
   4   6  -2 306.621 10.8398   1
  -3  -6  -4 266.609 9.84509  -2
   3   6  -2 266.609 9.84509   1
  -3  -6  -4 259.062 10.2445  -2
   3   6  -2 259.062 10.2445   1
  -2  -6  -4 1071.55 27.3337  -2
   2   6  -2 1071.55 27.3337   1
  -2  -6  -4 1045.33 26.7661  -2
   2   6  -2 1045.33 26.7661   1
   2   6   4 1103.16 21.7441  -2
  -2  -6   2 1103.16 21.7441   1
   2   6   4 1133.46 21.3596  -2
  -2  -6   2 1133.46 21.3596   1
   2   6   4 1152.17 23.9097  -2
  -2  -6   2 1152.17 23.9097   1
   2   6   4 1151.34 24.3466  -2
  -2  -6   2 1151.34 24.3466   1
   1   6  -2 582.221 14.5889   1
   1   6  -2 599.092 17.2158   1
   1   6  -2 573.447 14.5344   1
   1   6  -2 567.186 16.4993   1
   1   6   4 680.542 16.8695  -2
  -1  -6   2 680.542 16.8695   1
   1   6   4 673.799 15.7500  -2
  -1  -6   2 673.799 15.7500   1
   1   6   4 669.180 16.0052  -2
  -1  -6   2 669.180 16.0052   1
   1   6   4 656.357 15.9234  -2
  -1  -6   2 656.357 15.9234   1
   0   6  -2 311.091 9.47055   1
   0   6  -2 298.072 10.7759   1
   0   6  -2 307.970 9.41673   1
   0   6  -2 287.324 10.9590   1
   0   6   4 381.852 11.7101  -2
   0  -6   2 381.852 11.7101   1
  -1   6  -2 1098.63 23.9443   1
  -1   6  -2 1082.22 23.8795   1
  -1   6  -2 1019.24 26.8931   1
  -1   6  -2 1036.75 26.5953   1
   1  -6   2 1058.32 24.2801   1
   1  -6   2 1036.05 23.9380   1
   1  -6   2 1034.34 25.1850   1
   1  -6   2 1076.00 27.1220   1
   1  -6   2 1051.15 24.7759   1
   1  -6   2 1087.01 24.5346   1
  -2   6  -2 62.0948 4.05730   1
  -2   6  -2 63.9044 5.21571   1
  -2   6  -2 65.1252 4.14419   1
   2  -6   2 62.8644 4.42388   1
   2  -6   2 60.1805 4.93473   1
   2  -6   2 62.5931 4.32127   1
   2  -6   2 63.2450 4.27996   1
   2  -6   2 65.1405 4.30514   1
   2  -6   2 62.1396 4.20733   1
  -3   6  -2 550.420 14.6965   1
  -3   6  -2 547.704 14.7350   1
  -3   6  -2 547.870 18.2730   1
   3  -6   2 571.280 16.5754   1
   3  -6   2 559.555 15.8303   1
   3  -6   2 568.145 17.5652   1
   3  -6   2 532.442 16.0247   1
   3  -6   2 552.676 15.7169   1
  -4   6  -2 18.0113 3.46856   1
  -4   6  -2 13.3034 2.24674   1
  -4   6  -2 15.1791 2.15757   1
   4  -6   2 14.5979 2.87025   1
   4  -6   2 21.2378 2.81454   1
   4  -6   2 21.2263 3.07815   1
  -5   6  -2 83.6397 7.02540   1
  -5   6  -2 81.2952 4.23248   1
   5  -6   2 79.4697 6.30157   1
   5  -6   2 78.0432 5.40913   1
   5  -6   2 79.1155 6.18001   1
  -6   6  -2 15.9182 3.92150   1
   6  -6   2 16.5893 3.63901   1
   6  -6   2 12.4978 2.82111   1
   6  -6   2 15.5146 3.36622   1
  -7   6  -2 20.3394 4.85531   1
   7  -6   2 21.4973 3.65257   1
   7  -6   2 25.8645 4.19066   1
   7  -6   2 19.1629 4.25612   1
  -7  -5  -4 290.264 10.4934  -2
   7   5  -2 290.264 10.4934   1
  -6  -5  -4 421.313 13.0483  -2
   6   5  -2 421.313 13.0483   1
   5   5  -2 197.536 8.42208   1
   5   5  -2 187.737 7.46403   1
  -5  -5   2 187.822 7.72268   1
   4   5  -2 359.433 11.9314   1
   4   5  -2 349.318 11.0890   1
  -4  -5   2 385.088 10.9823   1
   3   5  -2 28.0262 2.90852   1
   3   5  -2 23.9926 2.62619   1
  -3  -5   2 33.2506 2.53047   1
   2   5  -2 596.059 16.2546   1
   2   5  -2 603.390 16.5973   1
  -2  -5   2 621.436 14.6217   1
  -2  -5   2 636.173 14.6303   1
   1   5  -2 68.9231 3.60356   1
   1   5  -2 74.2105 4.39048   1
   1   5  -2 68.9154 4.43990   1
   1   5  -2 64.3699 3.45843   1
  -1  -5   2 72.2740 3.58070   1
  -1  -5   2 74.2991 3.30238   1
  -1  -5   2 72.1921 4.95070   1
  -1  -5   2 72.3387 3.47379   1
  -1  -5   2 69.7593 3.81441   1
  -1  -5   2 70.9374 3.60215   1
   0   5  -2 259.465 7.94854   1
   0   5  -2 254.134 9.36906   1
   0   5  -2 261.107 7.99229   1
   0   5  -2 257.845 9.15781   1
   0  -5   2 253.189 7.86351   1
   0  -5   2 248.183 8.35908   1
   0  -5   2 243.483 7.97214   1
   0  -5   2 253.939 9.33234   1
   0  -5   2 257.409 8.10310   1
   0  -5   2 251.634 8.21499   1
  -1   5  -2 1117.65 23.8290   1
  -1   5  -2 1128.28 23.9495   1
  -1   5  -2 1080.53 26.9122   1
  -1   5  -2 1111.82 26.6377   1
   1  -5   2 1093.51 24.1579   1
   1  -5   2 1107.41 24.8061   1
   1  -5   2 1116.39 24.8796   1
   1  -5   2 1073.85 25.5437   1
   1  -5   2 1085.34 24.1810   1
   1  -5   2 1095.09 26.9907   1
  -2   5  -2 399.647 13.5759   1
  -2   5  -2 410.225 11.2125   1
  -2   5  -2 408.842 13.1181   1
  -2   5  -2 408.228 11.1981   1
   2  -5   2 416.380 13.4342   1
   2  -5   2 394.181 12.1001   1
   2  -5   2 399.726 12.0604   1
   2  -5   2 395.570 11.6803   1
   2  -5   2 428.459 11.9333   1
   2  -5   2 404.038 12.1832   1
  -3   5  -2 100.383 4.82238   1
  -3   5  -2 108.420 6.70910   1
  -3   5  -2 96.5672 4.67958   1
   3  -5   2 96.5161 5.18750   1
   3  -5   2 97.9008 5.63406   1
   3  -5   2 99.9813 5.31329   1
   3  -5   2 97.3574 5.87883   1
   3  -5   2 95.0942 5.56387   1
   3  -5   2 102.492 5.37507   1
   4  -5  -3 94.9085 6.91285  -2
  -4   5  -2 94.9085 6.91285   1
   4  -5  -3 97.7362 4.41062  -2
  -4   5  -2 97.7362 4.41062   1
   4  -5   2 51.2546 4.51253   1
   4  -5   2 52.4086 3.86534   1
   4  -5   2 50.4702 4.39906   1
   5  -5  -3 430.093 10.4092  -2
  -5   5  -2 430.093 10.4092   1
   5  -5  -3 436.293 16.8478  -2
  -5   5  -2 436.293 16.8478   1
  -5   5   3 412.769 15.2508  -2
   5  -5   2 412.769 15.2508   1
  -5   5   3 437.417 15.2544  -2
   5  -5   2 437.417 15.2544   1
  -5   5   3 405.377 13.2075  -2
   5  -5   2 405.377 13.2075   1
   6  -5  -3 123.591 8.77549  -2
  -6   5  -2 123.591 8.77549   1
  -6   5   3 137.551 6.95499  -2
   6  -5   2 137.551 6.95499   1
  -6   5   3 125.129 7.84444  -2
   6  -5   2 125.129 7.84444   1
  -6   5   3 132.946 8.67144  -2
   6  -5   2 132.946 8.67144   1
   7  -5  -3 869.089 27.8455  -2
  -7   5  -2 869.089 27.8455   1
  -7   5   3 807.709 25.2931  -2
   7  -5   2 807.709 25.2931   1
  -7   5   3 857.928 22.9863  -2
   7  -5   2 857.928 22.9863   1
  -7   5   3 838.948 26.8096  -2
   7  -5   2 838.948 26.8096   1
  -8  -4   2 211.283 10.7766   1
  -7  -4   2 392.314 14.2661   1
   6   4  -2 499.705 14.2666   1
  -6  -4   2 535.557 16.0799   1
   5   4  -2 596.945 16.4099   1
   5   4  -2 603.016 15.6080   1
  -5  -4   2 605.753 16.6480   1
   4   4  -2 132.081 5.93793   1
   4   4  -2 129.086 5.47150   1
  -4  -4   2 134.584 5.87510   1
   3   4  -2 110.745 4.92240   1
   3   4  -2 112.069 5.08739   1
   3   4  -2 112.156 5.18680   1
  -3  -4   2 113.889 4.84915   1
   2   4  -2 6.71180 1.49018   1
   2   4  -2 5.85790 1.33893   1
   2   4  -2 4.88085 1.34194   1
  -2  -4   2 9.73460 1.27768   1
  -2  -4   2 6.55184 1.22802   1
   1   4  -2 49.0320 2.64732   1
   1   4  -2 48.2636 3.29877   1
   1   4  -2 48.1861 2.65074   1
   1   4  -2 47.1974 3.20751   1
  -1  -4   2 48.2926 2.89038   1
  -1  -4   2 44.8272 2.73954   1
  -1  -4   2 50.6846 2.64439   1
  -1  -4   2 44.8415 2.65553   1
   0   4  -2 574.531 15.4143   1
   0   4  -2 582.222 13.6362   1
   0   4  -2 602.900 15.5175   1
   0   4  -2 583.639 13.5819   1
   0   4   3 1408.27 29.6878  -2
   0  -4   2 1408.27 29.6878   1
   1  -4  -3 46.7979 3.83807  -2
  -1   4  -2 46.7979 3.83807   1
  -1   4   3 47.9708 3.31492  -2
   1  -4   2 47.9708 3.31492   1
  -1   4   3 44.1670 3.14473  -2
   1  -4   2 44.1670 3.14473   1
  -1   4   3 48.0627 3.17543  -2
   1  -4   2 48.0627 3.17543   1
   2  -4  -3 131.208 5.18074  -2
  -2   4  -2 131.208 5.18074   1
   2  -4  -3 124.467 4.99766  -2
  -2   4  -2 124.467 4.99766   1
   2  -4  -3 132.699 6.31556  -2
  -2   4  -2 132.699 6.31556   1
   2  -4  -3 129.144 6.58236  -2
  -2   4  -2 129.144 6.58236   1
  -2   4   3 131.754 5.90530  -2
   2  -4   2 131.754 5.90530   1
  -2   4   3 123.550 5.49616  -2
   2  -4   2 123.550 5.49616   1
  -2   4   3 128.163 6.18752  -2
   2  -4   2 128.163 6.18752   1
  -2   4   3 130.321 5.45535  -2
   2  -4   2 130.321 5.45535   1
  -2   4   3 126.807 5.38168  -2
   2  -4   2 126.807 5.38168   1
  -2   4   3 127.146 5.34094  -2
   2  -4   2 127.146 5.34094   1
   3  -4  -3 667.185 19.0364  -2
  -3   4  -2 667.185 19.0364   1
   3  -4  -3 648.117 14.8855  -2
  -3   4  -2 648.117 14.8855   1
   3  -4  -3 675.150 15.1956  -2
  -3   4  -2 675.150 15.1956   1
  -3   4   3 647.437 16.4601  -2
   3  -4   2 647.437 16.4601   1
  -3   4   3 652.333 17.9816  -2
   3  -4   2 652.333 17.9816   1
  -3   4   3 650.385 15.9168  -2
   3  -4   2 650.385 15.9168   1
  -3   4   3 666.617 17.6699  -2
   3  -4   2 666.617 17.6699   1
  -3   4   3 552.806 15.6393  -2
   3  -4   2 552.806 15.6393   1
  -3   4   3 635.153 15.8149  -2
   3  -4   2 635.153 15.8149   1
   4  -4  -3 46.6523 2.87999  -2
  -4   4  -2 46.6523 2.87999   1
   4  -4  -3 44.7513 2.32282  -2
  -4   4  -2 44.7513 2.32282   1
   4  -4  -3 42.1650 4.58628  -2
  -4   4  -2 42.1650 4.58628   1
  -4   4   3 49.0587 4.41391  -2
   4  -4   2 49.0587 4.41391   1
  -4   4   3 43.9054 4.16872  -2
   4  -4   2 43.9054 4.16872   1
  -4   4   3 50.9084 3.57307  -2
   4  -4   2 50.9084 3.57307   1
   5  -4  -3 82.2766 6.71923  -2
  -5   4  -2 82.2766 6.71923   1
   5  -4   2 1.45611 1.06956   1
   5  -4   2 2.51703 1.43043   1
   5  -4   2 3.25727 1.54348   1
  -6   4  -2 191.292 10.0783   1
  -6   4  -2 190.819 10.8817   1
   6  -4   2 192.112 7.68054   1
   6  -4   2 190.133 9.29018   1
   6  -4   2 206.430 10.4492   1
  -7   4  -2 209.431 12.1007   1
  -7   4  -2 199.450 11.1340   1
   7  -4   2 204.301 10.0931   1
   7  -4   2 215.231 11.6050   1
  -8   4  -2 -0.6305 2.21133   1
   8  -4   2 -1.4181 1.35401   1
   8  -4   2 0.37884 1.62013   1
  -8  -3   2 88.6652 6.91937   1
   7   3  -2 30.6328 3.02529   1
  -7  -3   2 28.4255 3.81635   1
   6   3  -2 288.286 9.73802   1
  -6  -3   2 304.974 11.3754   1
   5   3  -2 21.7974 2.25831   1
   5   3  -2 27.0221 2.72853   1
  -5  -3   2 25.1784 2.86963   1
  -4  -3  -3 396.307 10.8506  -2
   4   3  -2 396.307 10.8506   1
  -4  -3  -3 384.391 11.0938  -2
   4   3  -2 384.391 11.0938   1
  -4  -3   2 389.931 11.5599   1
  -3  -3  -3 1205.59 25.9223  -2
   3   3  -2 1205.59 25.9223   1
  -3  -3  -3 1129.96 26.1326  -2
   3   3  -2 1129.96 26.1326   1
  -3  -3  -3 1178.56 25.8734  -2
   3   3  -2 1178.56 25.8734   1
   3   3   3 1189.33 25.4767  -2
  -3  -3   2 1189.33 25.4767   1
  -2  -3  -3 163.631 5.77115  -2
   2   3  -2 163.631 5.77115   1
  -2  -3  -3 146.722 5.69323  -2
   2   3  -2 146.722 5.69323   1
  -2  -3  -3 157.005 5.64173  -2
   2   3  -2 157.005 5.64173   1
   2   3   3 160.881 5.51280  -2
  -2  -3   2 160.881 5.51280   1
  -1  -3  -3 950.678 19.6633  -2
   1   3  -2 950.678 19.6633   1
  -1  -3  -3 1003.94 22.4296  -2
   1   3  -2 1003.94 22.4296   1
  -1  -3  -3 939.519 19.7497  -2
   1   3  -2 939.519 19.7497   1
  -1  -3  -3 979.509 21.9183  -2
   1   3  -2 979.509 21.9183   1
   1   3   3 990.705 19.9765  -2
  -1  -3   2 990.705 19.9765   1
   1   3   3 1006.64 20.1902  -2
  -1  -3   2 1006.64 20.1902   1
   1   3   3 1010.28 21.5262  -2
  -1  -3   2 1010.28 21.5262   1
   1   3   3 1002.12 20.6747  -2
  -1  -3   2 1002.12 20.6747   1
   0   3  -2 239.521 7.73271   1
   0   3  -2 248.342 6.75475   1
   0   3  -2 243.415 7.79599   1
   0   3  -2 245.199 6.74503   1
   0   3   3 261.034 7.68177  -2
   0  -3   2 261.034 7.68177   1
   0   3   3 268.787 7.48381  -2
   0  -3   2 268.787 7.48381   1
   0   3   3 271.610 7.74109  -2
   0  -3   2 271.610 7.74109   1
   0   3   3 278.292 8.22279  -2
   0  -3   2 278.292 8.22279   1
   0   3   3 270.216 7.48358  -2
   0  -3   2 270.216 7.48358   1
  -1   3  -2 629.064 14.1367   1
  -1   3  -2 641.038 16.2754   1
  -1   3  -2 660.767 16.0337   1
  -1   3  -2 624.640 14.0639   1
   1  -3   2 636.041 14.8348   1
   1  -3   2 627.234 15.2723   1
   1  -3   2 642.293 15.3765   1
   1  -3   2 633.724 16.1641   1
   1  -3   2 650.960 14.5299   1
   1  -3   2 632.986 14.4875   1
  -2   3  -2 1012.52 24.4396   1
  -2   3  -2 1015.46 20.9720   1
  -2   3  -2 1010.67 20.8878   1
  -2   3  -2 1071.30 23.7742   1
   2  -3   2 1025.76 21.9404   1
   2  -3   2 1015.23 21.4277   1
   2  -3   2 991.889 21.5284   1
   2  -3   2 990.471 22.9263   1
   2  -3   2 999.538 22.6065   1
   2  -3   2 990.644 23.7485   1
  -3   3  -2 2403.07 45.3864   1
  -3   3  -2 2356.63 52.2792   1
  -3   3  -2 2586.64 45.3946   1
  -3   3  -2 2404.61 45.4110   1
  -3   3  -2 2535.86 45.4639   1
   3  -3   2 2379.11 49.8820   1
   3  -3   2 2456.34 46.6672   1
   3  -3   2 2363.31 49.9305   1
   3  -3   2 2347.59 51.2698   1
   3  -3   2 2414.97 46.8810   1
  -4   3  -2 1051.26 27.2783   1
  -4   3  -2 1010.43 25.2957   1
   4  -3   2 1005.21 25.0966   1
   4  -3   2 1047.99 25.6155   1
   4  -3   2 1039.76 23.0465   1
  -5   3  -2 838.163 24.5372   1
  -5   3  -2 840.555 22.7295   1
   5  -3   2 802.988 21.7540   1
   5  -3   2 838.243 23.0181   1
  -6   3  -2 460.906 16.4231   1
  -6   3  -2 507.923 18.4067   1
   6  -3   2 476.680 15.3825   1
   6  -3   2 486.416 17.0978   1
  -7   3  -2 34.4644 4.84146   1
  -7   3  -2 32.4190 4.63432   1
   7  -3   2 35.2938 4.84987   1
   7  -3   2 38.7939 4.08823   1
  -8   3  -2 45.5361 6.04519   1
   8  -3   2 49.5180 4.85025   1
   8  -3   2 52.5139 6.28186   1
  -8  -2  -3 309.529 10.4742  -2
   8   2  -2 309.529 10.4742   1
   8   2   3 321.357 13.6812  -2
  -8  -2   2 321.357 13.6812   1
  -7  -2  -3 141.746 6.15601  -2
   7   2  -2 141.746 6.15601   1
   7   2   3 140.488 8.13910  -2
  -7  -2   2 140.488 8.13910   1
  -6  -2  -3 281.128 9.09470  -2
   6   2  -2 281.128 9.09470   1
   6   2   3 277.208 10.8366  -2
  -6  -2   2 277.208 10.8366   1
  -5  -2  -3 88.3756 4.48889  -2
   5   2  -2 88.3756 4.48889   1
   5   2   3 96.5641 5.54987  -2
  -5  -2   2 96.5641 5.54987   1
  -4  -2  -3 268.259 8.63049  -2
   4   2  -2 268.259 8.63049   1
  -4  -2  -3 291.813 8.84293  -2
   4   2  -2 291.813 8.84293   1
  -4  -2   2 31.0701 2.76712   1
  -3  -2  -3 219.800 7.19336  -2
   3   2  -2 219.800 7.19336   1
  -3  -2   2 214.752 7.22307   1
   2   2  -2 87.6387 3.39298   1
   2   2  -2 90.4005 3.73542   1
   2   2  -2 89.4088 3.97842   1
  -2  -2   2 92.8403 3.93889   1
   1   2  -2 5.18208 0.76542   1
   1   2  -2 4.17319 0.70848   1
   1   2  -2 3.79037 0.92772   1
   1   2  -2 4.00239 0.84939   1
  -1  -2   2 3.95367 0.93607   1
  -1  -2   2 3.94659 0.91437   1
  -1  -2   2 5.49613 0.75801   1
  -1  -2   2 6.13698 0.90016   1
   0   2  -2 1919.09 35.4432   1
   0   2  -2 1885.86 38.1322   1
   0   2  -2 1880.06 35.1397   1
   0  -2   2 1852.39 38.5118   1
   0  -2   2 1911.43 35.9124   1
   0  -2   2 1911.25 39.0511   1
   0  -2   2 1909.05 37.6793   1
   0  -2   2 1845.59 35.9852   1
   0  -2   2 1839.68 35.4793   1
  -1   2  -2 2667.11 53.1205   1
  -1   2  -2 2602.96 52.7401   1
  -1   2  -2 2584.09 48.0950   1
  -1   2  -2 2591.56 48.5768   1
   1  -2   2 2556.33 52.6388   1
   1  -2   2 2627.92 48.8362   1
   1  -2   2 2631.01 49.1021   1
   1  -2   2 2640.12 53.3531   1
   1  -2   2 2627.94 51.1584   1
   1  -2   2 2639.98 48.4330   1
  -2   2  -2 18.9107 1.53858   1
  -2   2  -2 16.3259 1.40583   1
  -2   2  -2 20.4510 2.34053   1
   2  -2   2 18.1126 1.60511   1
   2  -2   2 19.0795 1.92694   1
   2  -2   2 16.4624 1.52311   1
   2  -2   2 18.2113 1.96891   1
   2  -2   2 24.8802 1.94130   1
   2  -2   2 16.6177 1.43984   1
  -3   2  -2 97.2402 5.09326   1
  -3   2  -2 92.4980 5.42785   1
  -3   2  -2 100.826 3.24713   1
   3  -2   2 99.5189 5.12558   1
   3  -2   2 105.321 4.00457   1
   3  -2   2 99.7856 4.64566   1
   3  -2   2 99.2238 3.44067   1
  -4   2  -2 69.3612 5.19349   1
  -4   2  -2 84.9076 5.03383   1
   4  -2   2 73.0696 4.15695   1
   4  -2   2 59.6860 4.39757   1
   5  -2  -2 551.135 17.5050  -2
  -5   2  -2 551.135 17.5050   1
   5  -2   2 245.320 8.81370   1
   5  -2   2 250.640 10.2798   1
   6  -2  -2 179.421 9.64101  -2
  -6   2  -2 179.421 9.64101   1
   6  -2   2 151.547 7.17823   1
   6  -2   2 171.297 8.99647   1
   7  -2  -2 127.564 8.34249  -2
  -7   2  -2 127.564 8.34249   1
   7  -2  -2 144.912 9.00838  -2
  -7   2  -2 144.912 9.00838   1
  -7   2   2 136.162 9.11161  -2
   7  -2   2 136.162 9.11161   1
  -7   2   2 140.984 7.31291  -2
   7  -2   2 140.984 7.31291   1
   8  -2  -2 68.2656 6.62167  -2
  -8   2  -2 68.2656 6.62167   1
  -8   2   2 80.9170 7.78772  -2
   8  -2   2 80.9170 7.78772   1
  -8   2   2 82.8942 5.97179  -2
   8  -2   2 82.8942 5.97179   1
  -8  -1  -3 121.894 6.40162  -2
   8   1  -2 121.894 6.40162   1
   8   1   3 118.009 8.44917  -2
  -8  -1   2 118.009 8.44917   1
   7   1  -2 13.3136 2.24166   1
  -7  -1   2 11.7479 2.89983   1
   6   1  -2 5.90148 1.51537   1
  -6  -1   2 6.35174 1.94777   1
   5   1  -2 279.043 8.99632   1
   5   1  -2 266.119 9.08107   1
  -5  -1   2 263.381 9.96448   1
  -5  -1   2 300.246 9.21743   1
   4   1  -2 541.655 13.3180   1
   4   1  -2 521.846 13.9641   1
   4   1  -2 554.218 12.8951   1
  -4  -1   2 564.589 12.8083   1
  -4  -1   2 531.609 14.7793   1
   3   1  -2 3566.21 67.4466   1
   3   1  -2 3522.58 69.9553   1
   3   1  -2 3377.53 70.4422   1
  -3  -1   2 3628.03 68.5095   1
   2   1  -2 9.31115 1.24155   1
   2   1  -2 8.29286 0.79596   1
   2   1  -2 8.96145 1.19947   1
  -2  -1   2 10.7631 1.40614   1
   1   1  -2 2783.91 52.7271   1
   1   1  -2 2761.62 50.1590   1
   1   1  -2 2764.69 49.8382   1
   1   1  -2 2675.42 55.1292   1
  -1  -1   2 2792.59 50.8303   1
  -1  -1   2 2744.39 50.0140   1
  -1  -1   2 2732.66 49.8291   1
  -1  -1   2 2848.05 53.2205   1
   0   1  -2 1773.20 36.2269   1
   0   1  -2 1794.03 35.1417   1
   0   1  -2 1814.52 32.7874   1
   0   1  -2 1797.66 33.0186   1
   0  -1   2 1769.16 33.4569   1
   0  -1   2 1731.19 35.2189   1
   0  -1   2 1743.75 35.8819   1
   0  -1   2 1766.86 33.3129   1
   0  -1   2 1721.62 36.2398   1
   0  -1   2 1750.36 32.9630   1
  -1   1  -2 557.453 13.0967   1
  -1   1  -2 546.423 13.4953   1
  -1   1  -2 563.496 11.7287   1
  -1   1  -2 537.585 11.7302   1
   1  -1   2 549.340 12.2918   1
   1  -1   2 523.255 12.8806   1
   1  -1   2 557.785 11.6690   1
   1  -1   2 548.339 11.9128   1
   1  -1   2 564.008 11.7014   1
   1  -1   2 564.063 13.0499   1
   2  -1  -2 6523.13 118.178  -2
  -2   1  -2 6523.13 118.178   1
   2  -1  -2 6776.77 128.553  -2
  -2   1  -2 6776.77 128.553   1
   2  -1   2 3316.87 64.7752   1
   2  -1   2 3225.41 66.4799   1
   3  -1  -2 2017.77 43.9932  -2
  -3   1  -2 2017.77 43.9932   1
   3  -1  -2 1969.15 41.6777  -2
  -3   1  -2 1969.15 41.6777   1
  -3   1   2 2138.33 42.4809  -2
   3  -1   2 2138.33 42.4809   1
   4  -1  -2 290.962 9.83566  -2
  -4   1  -2 290.962 9.83566   1
   4  -1  -2 296.668 10.6923  -2
  -4   1  -2 296.668 10.6923   1
  -4   1   2 278.396 8.52987  -2
   4  -1   2 278.396 8.52987   1
  -4   1   2 288.456 8.60109  -2
   4  -1   2 288.456 8.60109   1
  -4   1   2 275.736 9.94888  -2
   4  -1   2 275.736 9.94888   1
   5  -1  -2 503.877 15.7971  -2
  -5   1  -2 503.877 15.7971   1
   5  -1  -2 477.245 14.7437  -2
  -5   1  -2 477.245 14.7437   1
  -5   1   2 470.191 12.9647  -2
   5  -1   2 470.191 12.9647   1
  -5   1   2 472.536 15.1730  -2
   5  -1   2 472.536 15.1730   1
   6  -1  -2 431.108 15.1194  -2
  -6   1  -2 431.108 15.1194   1
   6  -1  -2 414.310 14.3836  -2
  -6   1  -2 414.310 14.3836   1
  -6   1   2 398.357 12.1463  -2
   6  -1   2 398.357 12.1463   1
  -6   1   2 399.680 14.8001  -2
   6  -1   2 399.680 14.8001   1
   7  -1  -2 375.330 14.6437  -2
  -7   1  -2 375.330 14.6437   1
   7  -1   2 29.7109 4.31741   1
   7  -1   2 28.4587 3.13479   1
  -8   1  -2 88.2344 7.35760   1
   8  -1   2 113.627 6.28316   1
   8  -1   2 107.466 8.47046   1
   8   0  -2 8.77008 2.39220   1
  -8   0   2 3.68690 2.12811   1
   7   0  -2 23.2379 2.71776   1
  -7   0   2 24.6432 3.85432   1
   6   0  -2 0.62664 0.91333   1
  -6   0   2 -0.0535 1.15642   1
   5   0  -2 1002.52 23.6835   1
  -5   0   2 1035.93 25.2455   1
  -4   0  -2 565.713 14.2285  -2
   4   0  -2 565.713 14.2285   1
  -4   0   2 123.577 5.98693   1
  -4   0   2 132.880 4.48789   1
   3   0  -2 172.646 5.77476   1
   3   0  -2 174.091 6.12822   1
  -3   0   2 179.889 4.69642   1
  -3   0   2 172.821 6.44279   1
  -2   0  -2 1573.42 33.1101  -2
   2   0  -2 1573.42 33.1101   1
  -2   0   2 1267.03 26.9611   1
  -1   0  -2 61.2864 2.49636  -2
   1   0  -2 61.2864 2.49636   1
  -1   0  -2 59.3997 3.01209  -2
   1   0  -2 59.3997 3.01209   1
  -1   0  -2 60.0896 2.51715  -2
   1   0  -2 60.0896 2.51715   1
   1   0   2 63.6562 2.28898  -2
  -1   0   2 63.6562 2.28898   1
   1   0   2 66.6871 2.41220  -2
  -1   0   2 66.6871 2.41220   1
   1   0   2 63.1939 2.99539  -2
  -1   0   2 63.1939 2.99539   1
   0   0  -2 3633.39 67.4213  -2
   0   0  -2 3633.39 67.4213   1
   0   0  -2 3665.14 73.5373  -2
   0   0  -2 3665.14 73.5373   1
   0   0  -2 3753.96 66.9618  -2
   0   0  -2 3753.96 66.9618   1
   0   0  -2 3628.69 71.3737  -2
   0   0  -2 3628.69 71.3737   1
   0   0   2 3560.60 70.5856  -2
   0   0   2 3560.60 70.5856   1
   0   0   2 3773.27 73.3834  -2
   0   0   2 3773.27 73.3834   1
   0   0   2 3805.24 67.9975  -2
   0   0   2 3805.24 67.9975   1
   0   0   2 3786.96 73.6779  -2
   0   0   2 3786.96 73.6779   1
   0   0   2 3803.09 67.7553  -2
   0   0   2 3803.09 67.7553   1
   0   0   2 3747.51 67.1018  -2
   0   0   2 3747.51 67.1018   1
   1   0  -2 38.3786 1.66855  -2
  -1   0  -2 38.3786 1.66855   1
   1   0  -2 40.4079 2.48493  -2
  -1   0  -2 40.4079 2.48493   1
  -1   0   2 39.7114 2.19374  -2
   1   0   2 39.7114 2.19374   1
   2   0  -2 1226.92 27.7904  -2
  -2   0  -2 1226.92 27.7904   1
  -2   0   2 1342.83 27.3141  -2
   2   0   2 1342.83 27.3141   1
   3   0  -2 190.625 7.48644  -2
  -3   0  -2 190.625 7.48644   1
   3   0   2 88.0725 3.50801   1
   3   0   2 87.0377 4.40305   1
   3   0   2 83.7977 3.25502   1
  -4   0  -2 899.210 21.4633   1
  -4   0  -2 881.789 22.8545   1
   4   0   2 855.908 19.4680   1
   4   0   2 899.703 21.7088   1
   4   0   2 857.751 19.3225   1
  -5   0  -2 326.691 11.4615   1
  -5   0  -2 333.686 12.3152   1
   5   0   2 322.926 11.6587   1
   5   0   2 309.245 8.95973   1
   5   0   2 325.563 9.06160   1
  -6   0  -2 854.189 23.5086   1
  -6   0  -2 873.835 24.7779   1
   6   0   2 859.552 20.3772   1
   6   0   2 885.659 24.2767   1
  -7   0  -2 936.365 26.6851   1
  -7   0  -2 992.466 27.8050   1
   7   0   2 978.229 23.1998   1
   7   0   2 984.942 27.8568   1
  -8   0  -2 686.426 22.4524   1
   8   0   2 691.504 18.3039   1
   8   0   2 702.091 23.4860   1
  -9   0  -2 17.3242 4.23302   1
   9   0   2 15.8821 2.98098   1
   9   0   2 12.1034 3.92513   1
   8  -1  -2 30.7300 3.63699   1
  -8   1   2 29.0849 4.61446   1
  -7   1  -2 565.704 16.7957  -2
   7  -1  -2 565.704 16.7957   1
  -7   1   2 536.450 18.1742   1
  -6   1  -2 415.780 12.8347  -2
   6  -1  -2 415.780 12.8347   1
   6  -1   2 402.309 14.3015  -2
  -6   1   2 402.309 14.3015   1
  -5   1  -2 634.233 16.7514  -2
   5  -1  -2 634.233 16.7514   1
   5  -1   2 636.744 17.9698  -2
  -5   1   2 636.744 17.9698   1
  -4   1  -2 485.953 12.6674  -2
   4  -1  -2 485.953 12.6674   1
  -4   1  -2 459.119 12.5581  -2
   4  -1  -2 459.119 12.5581   1
   4  -1   2 447.696 11.3890  -2
  -4   1   2 447.696 11.3890   1
   4  -1   2 434.502 13.0936  -2
  -4   1   2 434.502 13.0936   1
  -3   1  -2 1957.32 41.1082  -2
   3  -1  -2 1957.32 41.1082   1
  -3   1  -2 1955.61 41.4141  -2
   3  -1  -2 1955.61 41.4141   1
   3  -1   2 2003.32 39.1529  -2
  -3   1   2 2003.32 39.1529   1
   2  -1  -2 5439.75 109.255   1
   2  -1   2 7818.00 148.661  -2
  -2   1   2 7818.00 148.661   1
   2  -1   2 7783.21 139.250  -2
  -2   1   2 7783.21 139.250   1
   2  -1   2 7793.25 138.148  -2
  -2   1   2 7793.25 138.148   1
   1  -1  -2 30.9829 1.84645   1
   1  -1  -2 28.4613 1.81588   1
   1  -1  -2 28.0650 1.98634   1
  -1   1   2 27.6970 1.53441   1
  -1   1   2 26.8341 1.55459   1
  -1   1   2 26.8602 1.80164   1
  -1   1   2 27.5231 1.86090   1
  -1   1   2 27.9798 1.22383   1
   0  -1  -2 29.5176 1.62751   1
   0  -1  -2 28.4084 1.55497   1
   0  -1  -2 32.8382 1.62345   1
   0   1   2 30.7787 1.71710   1
   0   1   2 29.9680 1.85810   1
   0   1   2 29.6906 1.83474   1
   0   1   2 29.8615 1.62878   1
   0   1   2 30.3746 1.62119   1
   0   1   2 27.2982 1.56477   1
  -1  -1  -2 120.824 4.38948   1
  -1  -1  -2 118.675 3.22762   1
  -1  -1  -2 113.123 2.68286   1
  -1  -1  -2 117.084 2.70856   1
   1   1   2 112.406 3.85463   1
   1   1   2 115.884 3.97453   1
   1   1   2 110.844 3.79146   1
  -2  -1  -2 2501.96 51.2479   1
   2   1   2 2538.04 49.9616   1
   2   1   2 2568.14 49.2192   1
   2   1   2 2519.30 49.7650   1
  -3  -1  -2 105.758 4.73013   1
  -3  -1  -2 115.759 5.49322   1
   3   1   2 108.809 4.84735   1
   3   1   2 111.626 3.69565   1
   3   1   2 108.768 3.36923   1
  -4  -1  -2 715.878 17.8303   1
  -4  -1  -2 694.533 18.9188   1
   4   1   2 698.035 18.0056   1
  -5  -1  -2 5.28958 1.62811   1
  -5  -1  -2 7.37049 1.96687   1
   5   1   2 4.83038 1.73824   1
   6   1  -1 235.172 9.96536  -2
  -6  -1  -2 235.172 9.96536   1
   6   1   2 6.85730 2.15637   1
   7   1  -1 72.3950 5.89860  -2
  -7  -1  -2 72.3950 5.89860   1
   7   1   2 2.09958 1.78546   1
   8   1  -1 340.527 14.3766  -2
  -8  -1  -2 340.527 14.3766   1
  -8  -1   1 347.509 15.2914  -2
   8   1   2 347.509 15.2914   1
   9   1  -1 133.660 9.45143  -2
  -9  -1  -2 133.660 9.45143   1
  -9  -1   1 132.737 6.23723  -2
   9   1   2 132.737 6.23723   1
  -9  -1   1 148.303 10.9161  -2
   9   1   2 148.303 10.9161   1
  -8   2  -2 96.6734 6.73296  -2
   8  -2  -2 96.6734 6.73296   1
   8  -2   2 70.0179 6.69139  -2
  -8   2   2 70.0179 6.69139   1
  -7   2  -2 130.265 7.29630  -2
   7  -2  -2 130.265 7.29630   1
   7  -2   2 124.290 8.08585  -2
  -7   2   2 124.290 8.08585   1
   6  -2  -2 3.15080 1.49654   1
  -6   2   2 1.97065 1.66201   1
   5  -2  -2 443.702 13.7650   1
  -5   2   2 451.365 14.7064   1
  -5   2   2 513.714 13.7421   1
   4  -2  -2 1.23337 0.82377   1
  -4   2   2 2.08669 0.86876   1
  -4   2   2 1.10900 0.94698   1
   3  -2  -2 70.4216 3.43581   1
   3  -2  -2 72.6949 3.42160   1
   3  -2  -2 62.5278 3.66693   1
  -3   2   2 72.3669 2.90687   1
  -3   2   2 73.0307 2.57047   1
  -3   2   2 72.3751 3.36874   1
  -3   2   2 71.1209 4.03463   1
   2  -2  -2 3311.45 60.4157   1
   2  -2  -2 3187.77 66.0987   1
  -2   2   2 3176.43 65.4746   1
  -2   2   2 3199.59 62.9938   1
  -2   2   2 3326.78 59.6996   1
  -2   2   2 3358.22 59.3543   1
  -2   2   2 3384.76 63.2918   1
   1  -2  -2 793.380 16.7231   1
   1  -2  -2 788.405 18.4186   1
  -1   2   2 813.308 17.0760   1
  -1   2   2 805.904 17.1916   1
  -1   2   2 825.469 18.3565   1
  -1   2   2 815.933 16.4881   1
  -1   2   2 819.383 16.4080   1
   0  -2  -2 183.782 5.66612   1
   0  -2  -2 195.715 5.08964   1
   0  -2  -2 181.980 5.01072   1
   0  -2  -2 189.997 5.04399   1
   0   2   2 188.891 5.15264   1
   0   2   2 189.600 5.12137   1
   0   2   2 181.736 5.71209   1
   0   2   2 191.706 5.34692   1
   0   2   2 182.941 5.50376   1
   0   2   2 190.280 5.16036   1
  -1  -2  -2 2802.07 54.9753   1
  -1  -2  -2 2752.43 49.1799   1
  -1  -2  -2 2792.07 50.6697   1
   1   2   2 2834.03 52.5473   1
   1   2   2 2761.37 55.0162   1
   1   2   2 2716.64 54.9814   1
  -2  -2  -2 2160.93 44.7702   1
  -2  -2   1 2537.43 50.6469  -2
   2   2   2 2537.43 50.6469   1
  -3  -2  -2 495.366 13.8623   1
  -3  -2  -2 509.141 12.5944   1
   3   2   2 488.730 12.6449   1
   4   2  -1 4461.52 89.1575  -2
  -4  -2  -2 4461.52 89.1575   1
   4   2   2 2830.83 57.4209   1
   5   2  -1 1090.26 25.7485  -2
  -5  -2  -2 1090.26 25.7485   1
   5   2  -1 1117.70 27.3144  -2
  -5  -2  -2 1117.70 27.3144   1
  -5  -2   1 1111.39 26.6890  -2
   5   2   2 1111.39 26.6890   1
   6   2  -1 214.314 9.63871  -2
  -6  -2  -2 214.314 9.63871   1
   6   2  -1 214.799 9.06010  -2
  -6  -2  -2 214.799 9.06010   1
  -6  -2   1 216.274 9.64855  -2
   6   2   2 216.274 9.64855   1
   7   2  -1 521.561 17.2649  -2
  -7  -2  -2 521.561 17.2649   1
   7   2  -1 513.884 16.6585  -2
  -7  -2  -2 513.884 16.6585   1
  -7  -2   1 497.412 17.4110  -2
   7   2   2 497.412 17.4110   1
   8   2  -1 561.232 18.9285  -2
  -8  -2  -2 561.232 18.9285   1
  -8  -2   1 581.757 20.6263  -2
   8   2   2 581.757 20.6263   1
  -9  -2  -2 30.3412 5.00136   1
  -9  -2   1 192.556 12.3890  -2
   9   2   2 192.556 12.3890   1
   8  -3  -2 497.375 17.2211   1
  -8   3   2 491.817 18.8964   1
   7  -3  -2 1.82056 1.67437   1
  -7   3   2 2.72419 2.00575   1
   6  -3  -2 12.3023 2.44941   1
  -6   3   2 14.0960 2.93493   1
   5  -3  -2 7.88662 1.91966   1
  -5   3   2 10.1896 2.01424   1
  -5   3   2 12.4553 2.53818   1
   4  -3  -2 22.1176 2.63373   1
  -4   3   2 25.2085 1.52423   1
  -4   3   2 29.5847 1.84127   1
  -4   3   2 22.4213 2.76212   1
  -4   3   2 27.5388 2.60369   1
   3  -3  -2 8.10040 1.48764   1
   3  -3  -2 6.49227 1.57866   1
  -3   3   2 8.61469 1.66679   1
  -3   3   2 7.97371 1.02055   1
  -3   3   2 8.20657 1.23591   1
  -3   3   2 9.05522 1.18953   1
  -3   3   2 9.97140 1.42616   1
  -3   3   2 8.73336 1.43486   1
   2  -3  -2 1458.44 32.8521   1
   2  -3  -2 1479.07 30.0250   1
  -2   3   2 1500.72 30.9738   1
  -2   3   2 1490.28 31.0093   1
  -2   3   2 1519.66 28.9575   1
  -2   3   2 1498.40 29.0618   1
   1  -3  -2 19.6434 1.75367   1
   1  -3  -2 22.9356 1.79353   1
   1  -3  -2 20.3570 1.71406   1
   1  -3  -2 20.1091 1.95253   1
  -1   3   2 21.4741 1.86139   1
  -1   3   2 20.2440 1.57377   1
  -1   3   2 22.8622 2.03561   1
  -1   3   2 19.4230 1.60243   1
  -1   3   2 20.4321 1.64834   1
   0   3  -1 243.410 6.45581  -2
   0  -3  -2 243.410 6.45581   1
   0  -3   1 265.172 7.20306  -2
   0   3   2 265.172 7.20306   1
   1   3  -1 51.4677 2.04912  -2
  -1  -3  -2 51.4677 2.04912   1
   1   3  -1 55.9362 1.95618  -2
  -1  -3  -2 55.9362 1.95618   1
   1   3  -1 47.0817 1.52399  -2
  -1  -3  -2 47.0817 1.52399   1
   1   3  -1 56.6271 2.45976  -2
  -1  -3  -2 56.6271 2.45976   1
  -1  -3   1 52.1560 3.22559  -2
   1   3   2 52.1560 3.22559   1
  -1  -3   1 53.6734 2.31335  -2
   1   3   2 53.6734 2.31335   1
  -1  -3   1 54.6212 2.83389  -2
   1   3   2 54.6212 2.83389   1
   2   3  -1 815.476 19.7365  -2
  -2  -3  -2 815.476 19.7365   1
  -2  -3   1 811.570 18.1668  -2
   2   3   2 811.570 18.1668   1
  -2  -3   1 842.266 20.0649  -2
   2   3   2 842.266 20.0649   1
  -2  -3   1 845.882 18.1504  -2
   2   3   2 845.882 18.1504   1
  -2  -3   1 819.135 17.4363  -2
   2   3   2 819.135 17.4363   1
   3   3  -1 1012.81 24.1724  -2
  -3  -3  -2 1012.81 24.1724   1
  -3  -3   1 1020.44 21.6454  -2
   3   3   2 1020.44 21.6454   1
  -4  -3  -2 646.511 17.9248   1
  -4  -3  -2 656.279 16.1346   1
   4   3   2 648.063 16.3213   1
  -5  -3  -2 420.320 12.7216   1
  -5  -3  -2 419.583 13.9354   1
   5   3   2 416.680 13.0430   1
  -6  -3  -2 2.78400 1.70089   1
  -6  -3  -2 2.72354 1.41467   1
   6   3   2 2.45249 1.51542   1
  -7  -3  -2 1176.76 30.1346   1
  -7  -3  -2 1201.20 31.5432   1
   7   3   2 1196.17 31.1031   1
  -8  -3  -2 64.7865 5.83538   1
   8   3   2 70.0332 6.45185   1
   8  -4  -2 221.714 11.1527   1
  -8   4   2 251.886 13.2359   1
   7  -4  -2 75.3675 6.02849   1
  -7   4   2 81.0916 6.77934   1
   6  -4  -2 279.135 11.5960   1
  -6   4   2 277.413 12.0321   1
  -5   4  -1 482.668 15.6075  -2
   5  -4  -2 482.668 15.6075   1
   5  -4   1 475.234 15.0375  -2
  -5   4   2 475.234 15.0375   1
  -4   4  -1 904.580 22.9812  -2
   4  -4  -2 904.580 22.9812   1
   4  -4   1 837.449 21.4983  -2
  -4   4   2 837.449 21.4983   1
   4  -4   1 860.353 21.7880  -2
  -4   4   2 860.353 21.7880   1
   4  -4   1 834.631 17.4519  -2
  -4   4   2 834.631 17.4519   1
   4  -4   1 847.155 18.0528  -2
  -4   4   2 847.155 18.0528   1
  -3   4  -1 78.9002 4.20974  -2
   3  -4  -2 78.9002 4.20974   1
  -3   4  -1 85.9836 4.43518  -2
   3  -4  -2 85.9836 4.43518   1
  -3   4  -1 89.3726 5.17872  -2
   3  -4  -2 89.3726 5.17872   1
   3  -4   1 85.3210 4.64760  -2
  -3   4   2 85.3210 4.64760   1
   3  -4   1 88.5240 3.96508  -2
  -3   4   2 88.5240 3.96508   1
   3  -4   1 89.1866 3.83587  -2
  -3   4   2 89.1866 3.83587   1
   3  -4   1 89.3670 4.72237  -2
  -3   4   2 89.3670 4.72237   1
  -2   4  -1 4128.77 84.2957  -2
   2  -4  -2 4128.77 84.2957   1
  -2   4  -1 3942.35 77.0587  -2
   2  -4  -2 3942.35 77.0587   1
  -2   4  -1 4123.21 76.5854  -2
   2  -4  -2 4123.21 76.5854   1
  -2   4  -1 4213.45 83.5041  -2
   2  -4  -2 4213.45 83.5041   1
   2  -4   1 4237.55 76.0873  -2
  -2   4   2 4237.55 76.0873   1
   2  -4   1 4053.17 79.0513  -2
  -2   4   2 4053.17 79.0513   1
   2  -4   1 4229.02 76.5788  -2
  -2   4   2 4229.02 76.5788   1
   2  -4   1 4182.19 81.7402  -2
  -2   4   2 4182.19 81.7402   1
  -1   4  -1 3021.52 61.0585  -2
   1  -4  -2 3021.52 61.0585   1
   1  -4   1 2985.79 60.3901  -2
  -1   4   2 2985.79 60.3901   1
   0  -4  -2 2781.58 52.0612   1
   0  -4  -2 2761.17 52.4117   1
   0  -4  -2 2894.13 57.5617   1
   0  -4  -2 2782.89 55.9282   1
   0   4   2 2795.05 52.2465   1
   0   4   2 2770.93 56.5932   1
   0   4   2 2759.34 56.7264   1
   0   4   2 2831.00 52.3670   1
   0   4   2 2884.20 52.8412   1
   0   4   2 2818.37 57.4995   1
  -1  -4  -2 147.491 4.27239   1
  -1  -4  -2 150.861 3.89479   1
  -1  -4  -2 151.262 4.71167   1
  -1  -4  -2 145.067 4.17054   1
  -1  -4  -2 144.832 3.98528   1
   1   4   2 142.742 6.04824   1
   1   4   2 144.345 5.42746   1
   1   4   2 149.099 4.76649   1
   1   4   2 141.547 4.69037   1
   1   4   2 147.220 4.56844   1
   2   4   2 383.407 11.7667   1
   2   4   2 398.413 10.4005   1
   2   4   2 403.526 10.4855   1
   2   4   2 393.660 9.04146   1
  -3  -4  -2 349.716 11.6375   1
   3   4   2 368.992 9.53518   1
   3   4   2 362.002 9.41636   1
   3   4   2 364.837 9.35229   1
   3   4   2 360.378 11.8311   1
  -4  -4  -2 205.618 8.79246   1
  -4  -4  -2 224.274 7.46137   1
   4   4   2 220.359 9.20906   1
   4   4   2 231.008 7.74552   1
  -5  -4  -2 314.497 10.1932   1
  -5  -4  -2 311.178 11.7850   1
   5   4   2 303.640 11.8305   1
   5   4   2 312.686 10.4732   1
  -6  -4  -2 75.3399 5.23329   1
  -6  -4  -2 81.8784 5.96752   1
   6   4   2 81.2831 5.54103   1
   6   4   2 94.4346 6.51784   1
  -7  -4  -2 162.442 8.31023   1
  -7  -4  -2 171.234 9.31309   1
   7   4   2 172.863 9.58884   1
   7   4   2 174.327 9.05469   1
   8  -5   1 195.427 11.7694  -2
  -8   5   2 195.427 11.7694   1
  -7   5  -1 161.299 9.43128  -2
   7  -5  -2 161.299 9.43128   1
   7  -5   1 184.838 10.3408  -2
  -7   5   2 184.838 10.3408   1
  -6   5  -1 282.694 12.3567  -2
   6  -5  -2 282.694 12.3567   1
   6  -5   1 285.111 12.2888  -2
  -6   5   2 285.111 12.2888   1
  -5   5  -1 12.1322 3.31734  -2
   5  -5  -2 12.1322 3.31734   1
   5  -5   1 10.9521 2.86340  -2
  -5   5   2 10.9521 2.86340   1
   5  -5   1 6.55794 3.19259  -2
  -5   5   2 6.55794 3.19259   1
   5  -5   1 10.3478 1.64060  -2
  -5   5   2 10.3478 1.64060   1
   4  -5  -2 368.365 11.8621   1
   4  -5  -2 361.661 12.9530   1
   4  -5   1 390.157 13.0189  -2
  -4   5   2 390.157 13.0189   1
   3  -5  -2 52.3445 3.66840   1
   3  -5  -2 49.9680 4.09211   1
   3  -5  -2 55.5452 3.89342   1
  -3   5   2 51.8484 3.77682   1
  -3   5   2 54.0131 4.00777   1
  -3   5   2 51.0914 3.31867   1
  -3   5   2 50.2731 3.17604   1
   2  -5  -2 586.127 16.8553   1
   2  -5  -2 596.260 15.2136   1
   2  -5  -2 600.435 15.8503   1
  -2   5   2 626.029 16.4250   1
  -2   5   2 591.254 14.7970   1
  -2   5   2 609.985 14.6149   1
  -2   5   2 597.672 14.6649   1
   1  -5  -2 1809.30 38.6501   1
   1  -5  -2 1822.66 36.5411   1
   1  -5  -2 1824.33 40.1013   1
   1  -5  -2 1778.31 36.1392   1
  -1   5   2 1789.54 35.8060   1
  -1   5   2 1847.30 36.3001   1
  -1   5   2 1840.13 36.0618   1
  -1   5   2 1816.05 39.1777   1
   0  -5  -2 9.16235 1.38497   1
   0  -5  -2 12.0193 1.26673   1
   0  -5  -2 12.4616 1.58573   1
   0  -5  -2 11.7164 1.76340   1
   0   5   2 11.9016 1.57848   1
   0   5   2 11.5542 0.95889   1
   0   5   2 9.70523 1.47976   1
   0   5   2 10.0934 1.89647   1
  -1  -5  -2 1260.41 24.2357   1
  -1  -5  -2 1235.87 23.8174   1
  -1  -5  -2 1224.73 25.0954   1
  -1  -5  -2 1212.70 24.0167   1
  -1  -5  -2 1241.99 23.8808   1
   1   5   2 1227.19 25.0700   1
   1   5   2 1243.57 28.6455   1
   1   5   2 1246.00 27.8425   1
   1   5   2 1216.48 26.5592   1
   1   5   2 1224.94 25.2163   1
   2   5   2 50.4880 3.22771   1
   2   5   2 47.8763 3.80475   1
   2   5   2 45.1859 2.98610   1
   3   5   2 1058.85 23.6434   1
   3   5   2 1052.00 21.9566   1
   3   5   2 1086.34 24.0061   1
   3   5   2 1043.49 26.3051   1
   4   5   2 2.75896 0.93220   1
   4   5   2 1.79704 0.81144   1
   4   5   2 4.70906 1.70928   1
   4   5   2 3.86915 1.17424   1
   5   5   0 1385.44 33.9388  -2
  -5  -5  -2 1385.44 33.9388   1
  -5  -5   0 1373.40 34.2011  -2
   5   5   2 1373.40 34.2011   1
   6   5   0 569.435 18.4491  -2
  -6  -5  -2 569.435 18.4491   1
  -6  -5   0 558.250 18.7950  -2
   6   5   2 558.250 18.7950   1
   7   5   0 696.879 22.0252  -2
  -7  -5  -2 696.879 22.0252   1
  -7  -5   0 712.394 22.8321  -2
   7   5   2 712.394 22.8321   1
   7  -6  -2 86.7963 6.59913   1
   7  -6  -2 95.4076 7.47540   1
  -7   6   2 90.8373 7.69116   1
   6  -6  -2 671.159 21.6167   1
   6  -6  -2 660.430 20.0931   1
  -6   6   2 668.455 21.3541   1
   5  -6  -2 18.5558 3.32374   1
   5  -6  -2 20.4175 3.12817   1
  -5   6   2 20.3098 3.49026   1
  -5   6   2 18.8554 2.08817   1
  -5   6   2 19.0724 3.15631   1
  -5   6   2 25.7440 1.99587   1
   4  -6  -2 103.863 5.89921   1
   4  -6  -2 95.9458 6.47038   1
  -4   6   2 105.816 4.85343   1
  -4   6   2 95.9153 4.90167   1
  -4   6   2 118.545 6.43239   1
  -4   6   2 96.6911 6.19836   1
   3  -6  -2 14.8997 2.19709   1
   3  -6  -2 13.9516 2.46047   1
   3  -6  -2 16.5266 2.35938   1
   3  -6  -2 15.2430 2.63289   1
  -3   6   2 13.9212 2.03521   1
  -3   6   2 19.4233 2.59492   1
  -3   6   2 12.6492 2.37752   1
  -3   6   2 11.7681 2.08337   1
   2  -6  -2 150.875 6.52562   1
   2  -6  -2 140.457 6.40085   1
   2  -6  -2 146.632 7.29653   1
   2  -6  -2 147.654 6.46624   1
  -2   6   2 151.271 6.22155   1
  -2   6   2 146.033 6.19583   1
  -2   6   2 149.674 5.96119   1
  -2   6   2 148.669 7.13832   1
   1  -6  -2 13.1579 1.93821   1
   1  -6  -2 14.3805 2.00140   1
   1  -6  -2 9.35999 2.18064   1
   1  -6  -2 13.5726 1.83827   1
  -1   6   2 10.7008 1.82697   1
  -1   6   2 11.8861 1.45583   1
  -1   6   2 12.3175 1.90981   1
  -1   6   2 12.7243 2.22617   1
   0  -6  -2 17.6706 2.30632   1
   0  -6  -2 17.3901 1.89607   1
   0  -6  -2 15.8151 1.49154   1
   0  -6  -2 16.0842 2.07514   1
   0  -6  -2 16.7734 1.98895   1
   0   6   2 17.7494 2.49797   1
   0   6   2 18.3357 2.15099   1
   0   6   2 17.6430 2.07208   1
   1   6   0 1354.03 27.3812  -2
  -1  -6  -2 1354.03 27.3812   1
   1   6   0 1469.93 29.2453  -2
  -1  -6  -2 1469.93 29.2453   1
   1   6   2 1377.93 28.7792   1
   1   6   2 1372.91 30.2884   1
   1   6   2 1388.18 28.5490   1
   1   6   2 1337.51 32.3334   1
   2   6   0 924.685 18.8138  -2
  -2  -6  -2 924.685 18.8138   1
  -2  -6   0 933.425 20.2737  -2
   2   6   2 933.425 20.2737   1
  -2  -6   0 854.733 23.5548  -2
   2   6   2 854.733 23.5548   1
  -3  -6   0 917.571 24.5593  -2
   3   6   2 917.571 24.5593   1
  -4  -6   0 255.235 11.1233  -2
   4   6   2 255.235 11.1233   1
  -5  -6   0 237.185 11.2385  -2
   5   6   2 237.185 11.2385   1
  -6  -6   0 1016.84 28.9837  -2
   6   6   2 1016.84 28.9837   1
  -7  -6   0 33.4351 5.89837  -2
   7   6   2 33.4351 5.89837   1
   7  -7  -2 54.9069 6.44175   1
   7  -7  -2 57.1792 5.68522   1
  -7   7   2 49.1594 6.45153   1
  -6   7   0 90.5449 7.09383  -2
   6  -7  -2 90.5449 7.09383   1
  -6   7   2 73.2613 3.66502   1
  -6   7   2 85.6058 6.92820   1
  -5   7   0 516.940 16.8221  -2
   5  -7  -2 516.940 16.8221   1
  -5   7   2 100.437 4.70214   1
  -5   7   2 107.088 5.33287   1
  -5   7   2 111.357 7.19748   1
  -5   7   2 105.179 7.22658   1
   4  -7  -2 1.84659 1.30200   1
   4  -7  -2 1.58583 1.34856   1
  -4   7   2 4.47700 1.93680   1
  -4   7   2 1.24058 1.02760   1
  -4   7   2 2.66190 1.40402   1
  -4   7   2 4.27088 1.72622   1
  -3   7   0 2488.40 55.5824  -2
   3  -7  -2 2488.40 55.5824   1
  -3   7   0 2639.30 52.7354  -2
   3  -7  -2 2639.30 52.7354   1
  -3   7   0 2549.58 52.0534  -2
   3  -7  -2 2549.58 52.0534   1
  -3   7   0 2635.78 58.1671  -2
   3  -7  -2 2635.78 58.1671   1
   3  -7   0 2528.56 50.8774  -2
  -3   7   2 2528.56 50.8774   1
   3  -7   0 2517.41 52.5548  -2
  -3   7   2 2517.41 52.5548   1
   3  -7   0 2488.63 51.0512  -2
  -3   7   2 2488.63 51.0512   1
   3  -7   0 2594.09 56.6383  -2
  -3   7   2 2594.09 56.6383   1
  -2   7   0 65.0883 4.54898  -2
   2  -7  -2 65.0883 4.54898   1
  -2   7   0 65.9207 4.62118  -2
   2  -7  -2 65.9207 4.62118   1
  -2   7   0 62.7520 5.19419  -2
   2  -7  -2 62.7520 5.19419   1
  -2   7   0 55.2107 4.06107  -2
   2  -7  -2 55.2107 4.06107   1
   2  -7   0 57.1223 4.39143  -2
  -2   7   2 57.1223 4.39143   1
   2  -7   0 59.0775 3.71805  -2
  -2   7   2 59.0775 3.71805   1
   2  -7   0 53.4246 4.77725  -2
  -2   7   2 53.4246 4.77725   1
   2  -7   0 54.7963 4.15591  -2
  -2   7   2 54.7963 4.15591   1
  -1   7   0 425.486 13.1077  -2
   1  -7  -2 425.486 13.1077   1
  -1   7   0 467.043 13.0536  -2
   1  -7  -2 467.043 13.0536   1
  -1   7   0 468.513 12.9586  -2
   1  -7  -2 468.513 12.9586   1
  -1   7   0 431.457 12.6670  -2
   1  -7  -2 431.457 12.6670   1
   1  -7   0 448.423 12.9333  -2
  -1   7   2 448.423 12.9333   1
   1  -7   0 464.125 13.1354  -2
  -1   7   2 464.125 13.1354   1
   1  -7   0 457.538 15.0163  -2
  -1   7   2 457.538 15.0163   1
   0   7   0 514.763 14.2887  -2
   0  -7  -2 514.763 14.2887   1
   0   7   0 492.075 13.2385  -2
   0  -7  -2 492.075 13.2385   1
   0   7   0 516.398 13.6516  -2
   0  -7  -2 516.398 13.6516   1
   0  -7   0 515.645 16.2876  -2
   0   7   2 515.645 16.2876   1
   0  -7   0 541.411 14.3343  -2
   0   7   2 541.411 14.3343   1
   0  -7   0 549.386 14.3665  -2
   0   7   2 549.386 14.3665   1
   1   7   0 2066.87 40.0671  -2
  -1  -7  -2 2066.87 40.0671   1
   1   7   0 2038.68 40.2152  -2
  -1  -7  -2 2038.68 40.2152   1
   1   7   0 2117.97 42.0532  -2
  -1  -7  -2 2117.97 42.0532   1
  -1  -7   0 2164.40 47.5179  -2
   1   7   2 2164.40 47.5179   1
  -2  -7   0 481.039 13.0785  -2
   2   7   2 481.039 13.0785   1
   3   7   2 636.386 19.5106   1
   4   7   2 -0.1674 1.13353   1
   5   7   2 3.47266 2.23942   1
   6   7   2 679.929 22.3305   1
   7   7   2 8.64079 3.24851   1
  -6   8   0 5.08573 3.83081  -2
   6  -8  -2 5.08573 3.83081   1
  -6   8   0 9.35504 3.46299  -2
   6  -8  -2 9.35504 3.46299   1
   6  -8   0 8.37376 3.79688  -2
  -6   8   2 8.37376 3.79688   1
   6  -8   0 10.0133 2.28053  -2
  -6   8   2 10.0133 2.28053   1
  -5   8   0 74.5221 5.98833  -2
   5  -8  -2 74.5221 5.98833   1
  -5   8   0 70.1755 6.69595  -2
   5  -8  -2 70.1755 6.69595   1
   5  -8   0 90.8398 6.57573  -2
  -5   8   2 90.8398 6.57573   1
   5  -8   0 81.7290 5.01225  -2
  -5   8   2 81.7290 5.01225   1
   5  -8   0 71.3732 6.40655  -2
  -5   8   2 71.3732 6.40655   1
   5  -8   0 72.7158 4.39453  -2
  -5   8   2 72.7158 4.39453   1
  -4   8   0 210.921 9.80899  -2
   4  -8  -2 210.921 9.80899   1
  -4   8   0 228.536 10.1342  -2
   4  -8  -2 228.536 10.1342   1
   4  -8   0 207.569 8.65948  -2
  -4   8   2 207.569 8.65948   1
   4  -8   0 241.228 11.5187  -2
  -4   8   2 241.228 11.5187   1
   4  -8   0 232.866 9.24362  -2
  -4   8   2 232.866 9.24362   1
  -3   8   0 883.052 23.6247  -2
   3  -8  -2 883.052 23.6247   1
  -3   8   0 856.077 22.6454  -2
   3  -8  -2 856.077 22.6454   1
  -3   8   0 871.904 22.8919  -2
   3  -8  -2 871.904 22.8919   1
   3  -8   0 879.626 21.8830  -2
  -3   8   2 879.626 21.8830   1
   3  -8   0 853.155 21.7271  -2
  -3   8   2 853.155 21.7271   1
   3  -8   0 852.945 25.0827  -2
  -3   8   2 852.945 25.0827   1
   2  -8  -2 3.46987 1.42134   1
   2  -8  -2 5.53987 1.87587   1
   2  -8  -2 9.12657 2.71352   1
   2  -8  -2 3.21198 1.64592   1
  -2   8   2 5.92001 1.78615   1
  -2   8   2 3.86699 1.54555   1
  -2   8   2 4.81489 1.99493   1
   1  -8  -2 105.157 5.61950   1
   1  -8  -2 97.1956 5.88867   1
   1  -8  -2 107.409 5.55095   1
   1  -8  -2 94.5314 5.50281   1
  -1   8   2 100.158 5.64842   1
  -1   8   2 96.3895 5.61245   1
  -1   8   2 109.420 6.95916   1
   0  -8  -2 355.238 11.4954   1
   0  -8  -2 335.479 10.6813   1
   0  -8  -2 361.620 10.7064   1
   0   8   2 362.202 11.3838   1
   0   8   2 339.925 13.2282   1
  -1  -8  -2 7.48182 1.28794   1
  -1  -8  -2 7.06878 1.51240   1
  -1  -8  -2 6.90500 1.69191   1
   1   8   2 4.72860 2.06785   1
   2   8   2 1305.64 33.4030   1
   2   8   2 1290.55 29.6404   1
   3   8   2 53.0534 5.14290   1
   4   8   2 1061.46 29.5076   1
   5   8   2 23.0377 3.97937   1
   6   8   2 936.461 28.3256   1
  -7  -8  -1 19.8336 6.25965  -2
   7   8   2 19.8336 6.25965   1
   5  -9  -2 604.663 19.9103   1
  -5   9   2 594.725 21.6204   1
  -5   9   2 595.497 16.4712   1
  -5   9   2 582.126 16.9413   1
   4  -9  -2 29.6430 4.11616   1
   4  -9  -2 20.6980 3.40896   1
  -4   9   2 21.6203 3.39772   1
  -4   9   2 24.5946 3.38493   1
  -4   9   2 21.4833 4.16680   1
   3  -9  -2 350.464 12.8294   1
   3  -9  -2 318.678 12.6336   1
   3  -9  -2 361.250 13.1246   1
  -3   9   2 339.208 12.1035   1
  -3   9   2 332.254 12.0597   1
  -3   9   2 359.214 14.8456   1
   2  -9  -2 26.7708 3.44051   1
   2  -9  -2 30.5766 3.73005   1
   2  -9  -2 25.4403 3.81099   1
  -2   9   2 30.8874 3.64103   1
  -2   9   2 28.6772 3.60235   1
  -2   9   2 30.7919 4.16362   1
   1  -9  -2 23.0987 3.13919   1
   1  -9  -2 31.5176 3.36487   1
   1  -9  -2 31.2362 3.84088   1
  -1   9   2 26.5630 4.03190   1
  -1   9   2 29.6366 3.59962   1
  -1   9   2 28.3141 3.67286   1
   0  -9  -2 213.946 8.19699   1
   0  -9  -2 211.091 8.89546   1
   0  -9  -2 199.506 7.72619   1
   0   9   2 207.768 10.5596   1
  -1  -9  -2 5.49172 1.46515   1
  -1  -9  -2 6.28350 1.23096   1
  -1  -9  -2 5.78028 1.81240   1
   1   9   2 10.6886 2.83702   1
   2   9   1 399.330 11.4806  -2
  -2  -9  -2 399.330 11.4806   1
   2   9   2 355.633 14.5199   1
  -3  -9  -1 104.168 8.45125  -2
   3   9   2 104.168 8.45125   1
  -3  -9  -1 107.746 5.78217  -2
   3   9   2 107.746 5.78217   1
  -4  -9  -1 884.389 27.2306  -2
   4   9   2 884.389 27.2306   1
  -5  -9  -1 599.874 21.5485  -2
   5   9   2 599.874 21.5485   1
  -6  -9  -1 400.853 17.7843  -2
   6   9   2 400.853 17.7843   1
  -5  10   2 30.2514 4.17554   1
   4 -10  -2 363.798 14.3278   1
   4 -10  -2 370.290 14.5608   1
  -4  10   2 367.543 13.4264   1
  -4  10   2 366.929 16.5772   1
  -4  10   2 350.445 12.9306   1
  -3  10   1 430.865 15.2632  -2
   3 -10  -2 430.865 15.2632   1
  -3  10   2 68.2388 5.44121   1
  -3  10   2 70.9702 6.74128   1
  -3  10   2 70.2499 5.69094   1
  -2  10   1 921.280 24.6327  -2
   2 -10  -2 921.280 24.6327   1
  -2  10   1 954.369 25.9162  -2
   2 -10  -2 954.369 25.9162   1
  -2  10   1 942.979 24.9523  -2
   2 -10  -2 942.979 24.9523   1
   2 -10  -1 948.984 24.9527  -2
  -2  10   2 948.984 24.9527   1
   2 -10  -1 984.107 25.3603  -2
  -2  10   2 984.107 25.3603   1
   2 -10  -1 923.586 28.7245  -2
  -2  10   2 923.586 28.7245   1
  -1  10   1 178.681 9.02629  -2
   1 -10  -2 178.681 9.02629   1
  -1  10   1 165.589 7.96865  -2
   1 -10  -2 165.589 7.96865   1
  -1  10   1 179.630 8.45568  -2
   1 -10  -2 179.630 8.45568   1
   1 -10  -1 177.248 9.03844  -2
  -1  10   2 177.248 9.03844   1
   1 -10  -1 167.476 10.4940  -2
  -1  10   2 167.476 10.4940   1
   0  10   1 1261.22 28.7390  -2
   0 -10  -2 1261.22 28.7390   1
   0  10   1 1260.80 28.4655  -2
   0 -10  -2 1260.80 28.4655   1
   0  10   1 1249.88 30.1494  -2
   0 -10  -2 1249.88 30.1494   1
   0 -10  -1 1316.71 35.3052  -2
   0  10   2 1316.71 35.3052   1
   1  10   1 2.55061 1.15116  -2
  -1 -10  -2 2.55061 1.15116   1
   1  10   1 4.54862 1.45439  -2
  -1 -10  -2 4.54862 1.45439   1
   1  10   1 0.78160 1.77610  -2
  -1 -10  -2 0.78160 1.77610   1
  -1 -10  -1 3.42356 2.66390  -2
   1  10   2 3.42356 2.66390   1
   2  10   1 329.944 10.4740  -2
  -2 -10  -2 329.944 10.4740   1
  -2 -10  -1 325.213 14.9162  -2
   2  10   2 325.213 14.9162   1
  -3 -10  -1 42.7894 6.61454  -2
   3  10   2 42.7894 6.61454   1
  -4 -10  -1 1779.02 46.5651  -2
   4  10   2 1779.02 46.5651   1
   5  10   2 1.95976 2.52218   1
  -3  11   1 53.9108 5.77840  -2
   3 -11  -2 53.9108 5.77840   1
  -3  11   1 51.3932 5.54826  -2
   3 -11  -2 51.3932 5.54826   1
   3 -11  -1 48.6928 5.64878  -2
  -3  11   2 48.6928 5.64878   1
   3 -11  -1 56.0487 5.57545  -2
  -3  11   2 56.0487 5.57545   1
   3 -11  -1 54.2833 6.60635  -2
  -3  11   2 54.2833 6.60635   1
  -2  11   1 179.984 9.47516  -2
   2 -11  -2 179.984 9.47516   1
  -2  11   1 179.581 10.1930  -2
   2 -11  -2 179.581 10.1930   1
  -2  11   1 172.087 9.24195  -2
   2 -11  -2 172.087 9.24195   1
   2 -11  -1 187.592 9.94775  -2
  -2  11   2 187.592 9.94775   1
   2 -11  -1 208.565 10.3164  -2
  -2  11   2 208.565 10.3164   1
   2 -11  -1 207.587 12.2773  -2
  -2  11   2 207.587 12.2773   1
  -1  11   1 529.553 16.5387  -2
   1 -11  -2 529.553 16.5387   1
  -1  11   1 493.312 15.7314  -2
   1 -11  -2 493.312 15.7314   1
  -1  11   1 503.307 17.2644  -2
   1 -11  -2 503.307 17.2644   1
   1 -11  -1 536.418 20.8943  -2
  -1  11   2 536.418 20.8943   1
   0  11   1 1190.02 29.7648  -2
   0 -11  -2 1190.02 29.7648   1
   0  11   2 904.367 28.3734   1
  -1 -11  -2 2.17727 1.10367   1
  -1 -11  -2 0.42108 1.19333   1
   1  11   2 0.71877 1.63331   1
  -2 -11  -2 19.3370 2.75964   1
   2  11   2 19.2103 4.46838   1
   3  11   2 8.31795 3.59859   1
   4  11   2 0.79580 2.29126   1
   1 -12  -2 2.17649 1.90189   1
   1 -12  -2 -0.1911 1.17849   1
   1 -12  -2 3.24374 1.95514   1
  -1  12   2 -0.3268 1.91172   1
   0 -12  -2 469.248 14.8010   1
   0 -12  -2 485.109 14.2403   1
   0 -12  -2 469.413 16.4280   1
   0  12   2 492.179 20.3515   1
  -1 -12  -2 9.09561 2.56505   1
  -1 -12  -2 7.52568 1.93123   1
   1  12   2 1.85451 1.98249   1
   2  12   2 388.789 18.1244   1
   3  11  -3 75.1511 7.21896   1
   3  11  -3 75.9077 7.91570   1
   2  11  -3 7.95636 3.98525   1
   2  11  -3 9.18820 3.55881   1
  -2 -11   3 9.42259 2.56870   1
   1  11  -3 437.153 18.9678   1
  -1 -11   3 436.233 13.6308   1
  -1 -11   3 421.160 15.3822   1
  -1 -11   3 440.276 12.1568   1
   0  11  -3 30.2274 5.77958   1
   0 -11   3 32.9090 4.00815   1
   0 -11   3 28.9046 3.43268   1
   0 -11   3 37.6439 4.82010   1
   1 -11  -6 551.216 18.5365  -2
  -1  11  -3 551.216 18.5365   1
   1 -11  -6 508.633 21.8356  -2
  -1  11  -3 508.633 21.8356   1
  -1  11   6 487.399 17.1157  -2
   1 -11   3 487.399 17.1157   1
  -1  11   6 512.659 17.3381  -2
   1 -11   3 512.659 17.3381   1
  -1  11   6 514.174 18.6251  -2
   1 -11   3 514.174 18.6251   1
   2 -11  -6 25.7152 6.85382  -2
  -2  11  -3 25.7152 6.85382   1
   2 -11  -6 42.1922 6.12600  -2
  -2  11  -3 42.1922 6.12600   1
   2 -11  -6 46.4288 6.86020  -2
  -2  11  -3 46.4288 6.86020   1
  -2  11   6 48.0125 6.27664  -2
   2 -11   3 48.0125 6.27664   1
  -2  11   6 49.3008 6.08369  -2
   2 -11   3 49.3008 6.08369   1
  -2  11   6 46.0445 5.75996  -2
   2 -11   3 46.0445 5.75996   1
   4  10  -3 40.1462 5.43164   1
   4  10  -3 58.6178 6.75017   1
  -3 -10  -6 894.306 27.9398  -2
   3  10  -3 894.306 27.9398   1
  -3 -10  -6 910.679 28.5449  -2
   3  10  -3 910.679 28.5449   1
  -2 -10  -6 257.181 13.4399  -2
   2  10  -3 257.181 13.4399   1
  -2 -10  -6 264.922 13.2818  -2
   2  10  -3 264.922 13.2818   1
   2  10   6 250.701 10.3147  -2
  -2 -10   3 250.701 10.3147   1
  -1 -10  -6 1005.38 30.2890  -2
   1  10  -3 1005.38 30.2890   1
  -1 -10  -6 1063.19 30.7456  -2
   1  10  -3 1063.19 30.7456   1
   1  10   6 942.984 25.4334  -2
  -1 -10   3 942.984 25.4334   1
   1  10   6 934.492 23.6137  -2
  -1 -10   3 934.492 23.6137   1
   1  10   6 982.752 22.9130  -2
  -1 -10   3 982.752 22.9130   1
   0 -10  -6 168.959 11.1813  -2
   0  10  -3 168.959 11.1813   1
   0  10   6 171.983 8.51124  -2
   0 -10   3 171.983 8.51124   1
   0  10   6 154.214 8.65404  -2
   0 -10   3 154.214 8.65404   1
   0  10   6 181.964 8.44721  -2
   0 -10   3 181.964 8.44721   1
   1 -10  -6 537.094 21.0795  -2
  -1  10  -3 537.094 21.0795   1
   1 -10  -6 529.706 17.3634  -2
  -1  10  -3 529.706 17.3634   1
  -1  10   6 515.408 16.8525  -2
   1 -10   3 515.408 16.8525   1
  -1  10   6 495.198 16.3458  -2
   1 -10   3 495.198 16.3458   1
  -1  10   6 506.908 17.6703  -2
   1 -10   3 506.908 17.6703   1
   2 -10  -6 124.356 8.42046  -2
  -2  10  -3 124.356 8.42046   1
   2 -10  -6 133.175 8.60832  -2
  -2  10  -3 133.175 8.60832   1
   2 -10  -6 97.1851 9.73266  -2
  -2  10  -3 97.1851 9.73266   1
  -2  10   6 131.274 8.58288  -2
   2 -10   3 131.274 8.58288   1
  -2  10   6 118.822 8.00965  -2
   2 -10   3 118.822 8.00965   1
  -2  10   6 136.424 8.98958  -2
   2 -10   3 136.424 8.98958   1
  -3  10  -3 98.2647 7.14544   1
  -3  10  -3 99.8605 9.07619   1
  -3  10  -3 101.456 7.10708   1
   3 -10   3 108.688 7.54358   1
   3 -10   3 102.794 7.61355   1
  -4  10  -3 25.9915 3.94018   1
  -4  10  -3 27.8075 4.53954   1
   4 -10   3 36.7882 5.13261   1
   4 -10   3 33.0226 4.76683   1
  -5  -9  -6 689.912 22.4127  -2
   5   9  -3 689.912 22.4127   1
  -4  -9  -6 164.154 10.1797  -2
   4   9  -3 164.154 10.1797   1
  -4  -9  -6 157.931 9.58061  -2
   4   9  -3 157.931 9.58061   1
  -3  -9  -6 476.061 17.7313  -2
   3   9  -3 476.061 17.7313   1
  -3  -9  -6 494.239 18.3069  -2
   3   9  -3 494.239 18.3069   1
   2   9  -3 1.98173 1.72915   1
   2   9  -3 -0.2832 1.32008   1
   2   9   6 65.2025 3.86132  -2
  -2  -9   3 65.2025 3.86132   1
   2   9   6 56.1604 4.83359  -2
  -2  -9   3 56.1604 4.83359   1
   1   9  -3 17.1784 3.59996   1
   1   9  -3 25.1501 4.22869   1
  -1  -9   3 20.9827 2.68588   1
  -1  -9   3 22.1872 2.56372   1
  -1  -9   3 19.0415 3.02604   1
   0   9  -3 150.862 9.52288   1
   0  -9   3 148.726 8.14241   1
   0  -9   3 161.060 7.79802   1
   0  -9   3 154.207 7.45747   1
  -1   9  -3 184.828 10.8863   1
  -1   9  -3 192.180 9.10072   1
  -1   9  -3 181.517 8.83613   1
   1  -9   3 185.178 8.79660   1
   1  -9   3 187.400 9.41665   1
   1  -9   3 184.522 8.70053   1
  -2   9  -3 467.528 18.5208   1
  -2   9  -3 464.531 15.1342   1
  -2   9  -3 450.647 15.0434   1
   2  -9   3 440.451 16.0053   1
   2  -9   3 450.025 15.3853   1
   2  -9   3 456.078 15.4838   1
  -3   9  -3 6.35291 2.94987   1
  -3   9  -3 7.12069 2.43392   1
  -3   9  -3 3.42414 2.00472   1
   3  -9   3 3.50668 1.62811   1
   3  -9   3 7.09781 2.64877   1
   3  -9   3 4.56361 2.22523   1
  -4   9  -3 447.496 15.1373   1
  -4   9  -3 444.338 19.5122   1
  -4   9  -3 445.164 14.7913   1
   4  -9   3 446.887 16.4067   1
  -5   9  -3 5.29439 1.77821   1
  -5   9  -3 3.55869 1.70376   1
   5  -9   3 4.70174 2.09044   1
   6   8  -3 26.5013 4.06448   1
   5   8  -3 679.040 21.1026   1
   4   8  -3 8.50185 2.73816   1
   4   8  -3 5.05843 2.18714   1
   3   8  -3 292.536 12.2801   1
   3   8  -3 301.189 12.6614   1
   2   8  -3 15.9590 3.40496   1
   2   8  -3 14.9483 3.05018   1
  -2  -8   3 17.6225 1.96544   1
  -2  -8   3 16.8679 2.49523   1
   1   8  -3 205.406 10.2482   1
   1   8  -3 210.043 10.1561   1
  -1  -8   3 195.583 7.42709   1
  -1  -8   3 187.603 7.74917   1
  -1  -8   3 196.836 8.62218   1
   0   8  -3 4.26124 2.06863   1
   0   8  -3 2.81135 1.72798   1
   0   8  -3 2.81486 1.82962   1
   0  -8   3 3.17515 1.65940   1
   0  -8   3 3.49400 1.39306   1
   0  -8   3 2.88447 1.31426   1
  -1   8  -3 15.9728 2.94231   1
  -1   8  -3 16.9588 3.00075   1
  -1   8  -3 13.0466 3.30967   1
   1  -8   3 13.5781 2.60677   1
   1  -8   3 15.0156 2.70167   1
   1  -8   3 11.4342 2.56906   1
  -2   8  -3 292.366 11.0065   1
  -2   8  -3 303.109 11.0209   1
  -2   8  -3 281.640 13.2946   1
   2  -8   3 295.030 11.2390   1
   2  -8   3 287.449 11.3921   1
   2  -8   3 294.045 11.3152   1
   2  -8   3 272.592 11.4327   1
   3  -8  -5 401.689 13.3551  -2
  -3   8  -3 401.689 13.3551   1
   3  -8  -5 389.920 16.6477  -2
  -3   8  -3 389.920 16.6477   1
   3  -8  -5 357.762 12.8788  -2
  -3   8  -3 357.762 12.8788   1
  -3   8   5 391.029 13.8397  -2
   3  -8   3 391.029 13.8397   1
  -3   8   5 390.807 13.7772  -2
   3  -8   3 390.807 13.7772   1
  -3   8   5 402.672 14.1598  -2
   3  -8   3 402.672 14.1598   1
   4  -8  -5 704.429 19.5737  -2
  -4   8  -3 704.429 19.5737   1
   4  -8  -5 710.343 24.9072  -2
  -4   8  -3 710.343 24.9072   1
   4  -8  -5 712.717 19.1402  -2
  -4   8  -3 712.717 19.1402   1
  -4   8   5 706.629 21.5722  -2
   4  -8   3 706.629 21.5722   1
  -4   8   5 711.676 22.2310  -2
   4  -8   3 711.676 22.2310   1
   5  -8  -5 97.3143 8.75385  -2
  -5   8  -3 97.3143 8.75385   1
   5  -8  -5 100.426 5.33409  -2
  -5   8  -3 100.426 5.33409   1
   5  -8  -5 92.4214 5.65941  -2
  -5   8  -3 92.4214 5.65941   1
  -5   8   5 100.550 6.95088  -2
   5  -8   3 100.550 6.95088   1
  -5   8   5 107.556 7.80895  -2
   5  -8   3 107.556 7.80895   1
   6  -8  -5 25.3670 6.00814  -2
  -6   8  -3 25.3670 6.00814   1
   6  -8  -5 35.1494 3.30857  -2
  -6   8  -3 35.1494 3.30857   1
  -6   8   5 29.6869 5.41973  -2
   6  -8   3 29.6869 5.41973   1
  -6   8   5 17.5590 4.23525  -2
   6  -8   3 17.5590 4.23525   1
  -6   8   5 28.2838 4.95523  -2
   6  -8   3 28.2838 4.95523   1
   7   7  -3 78.6895 6.21400   1
   6   7  -3 40.8412 4.55614   1
   5   7  -3 528.967 17.0729   1
   4   7  -3 166.368 8.41723   1
   4   7  -3 185.602 8.96533   1
   3   7  -3 50.1528 4.48972   1
   3   7  -3 46.8365 4.60450   1
   2   7  -3 1657.29 39.6429   1
   2   7  -3 1648.34 39.3205   1
   2   7   5 1819.27 35.5699  -2
  -2  -7   3 1819.27 35.5699   1
  -1  -7  -5 500.104 16.5543  -2
   1   7  -3 500.104 16.5543   1
  -1  -7  -5 435.250 15.7163  -2
   1   7  -3 435.250 15.7163   1
   1   7   5 467.400 13.9012  -2
  -1  -7   3 467.400 13.9012   1
   1   7   5 470.025 13.1589  -2
  -1  -7   3 470.025 13.1589   1
   1   7   5 488.459 13.1691  -2
  -1  -7   3 488.459 13.1691   1
   0  -7  -5 1665.76 35.4925  -2
   0   7  -3 1665.76 35.4925   1
   0  -7  -5 1663.34 35.2515  -2
   0   7  -3 1663.34 35.2515   1
   0  -7  -5 1664.83 39.7525  -2
   0   7  -3 1664.83 39.7525   1
   0  -7  -5 1647.06 39.8259  -2
   0   7  -3 1647.06 39.8259   1
   0   7   5 1542.96 35.7750  -2
   0  -7   3 1542.96 35.7750   1
   0   7   5 1646.18 35.2977  -2
   0  -7   3 1646.18 35.2977   1
   0   7   5 1661.57 35.4740  -2
   0  -7   3 1661.57 35.4740   1
   1  -7  -5 25.3382 3.19550  -2
  -1   7  -3 25.3382 3.19550   1
   1  -7  -5 21.7796 3.57100  -2
  -1   7  -3 21.7796 3.57100   1
   1  -7  -5 21.6528 3.44358  -2
  -1   7  -3 21.6528 3.44358   1
   1  -7  -5 22.6912 2.97671  -2
  -1   7  -3 22.6912 2.97671   1
  -1   7   5 20.5579 2.94124  -2
   1  -7   3 20.5579 2.94124   1
  -1   7   5 23.1607 2.99717  -2
   1  -7   3 23.1607 2.99717   1
  -1   7   5 22.5145 2.62017  -2
   1  -7   3 22.5145 2.62017   1
  -1   7   5 22.5569 2.84813  -2
   1  -7   3 22.5569 2.84813   1
  -1   7   5 16.6156 2.64382  -2
   1  -7   3 16.6156 2.64382   1
   2  -7  -5 222.613 9.03763  -2
  -2   7  -3 222.613 9.03763   1
   2  -7  -5 230.498 11.3866  -2
  -2   7  -3 230.498 11.3866   1
   2  -7  -5 225.844 9.16239  -2
  -2   7  -3 225.844 9.16239   1
  -2   7   5 239.889 9.95574  -2
   2  -7   3 239.889 9.95574   1
  -2   7   5 233.698 9.76287  -2
   2  -7   3 233.698 9.76287   1
  -2   7   5 228.136 9.48700  -2
   2  -7   3 228.136 9.48700   1
  -2   7   5 231.296 9.46755  -2
   2  -7   3 231.296 9.46755   1
  -2   7   5 221.267 9.36667  -2
   2  -7   3 221.267 9.36667   1
   3  -7  -5 61.9534 6.53488  -2
  -3   7  -3 61.9534 6.53488   1
   3  -7  -5 62.9861 5.06072  -2
  -3   7  -3 62.9861 5.06072   1
   3  -7  -5 60.7205 4.87657  -2
  -3   7  -3 60.7205 4.87657   1
  -3   7   5 56.7591 5.05477  -2
   3  -7   3 56.7591 5.05477   1
  -3   7   5 60.0982 5.32469  -2
   3  -7   3 60.0982 5.32469   1
  -3   7   5 64.2022 6.25891  -2
   3  -7   3 64.2022 6.25891   1
  -3   7   5 63.1732 5.18871  -2
   3  -7   3 63.1732 5.18871   1
  -3   7   5 59.8129 5.33858  -2
   3  -7   3 59.8129 5.33858   1
   4  -7  -5 1762.20 37.5317  -2
  -4   7  -3 1762.20 37.5317   1
   4  -7   3 1225.78 33.4772   1
   4  -7   3 1223.14 31.3181   1
   4  -7   3 1216.04 31.4591   1
  -5   7  -3 1.54817 1.21579   1
  -5   7  -3 1.79496 1.03326   1
  -5   7  -3 1.08659 1.83854   1
   5  -7   3 0.82032 1.40475   1
   5  -7   3 1.39842 1.53676   1
   5  -7   3 0.82386 1.53082   1
  -6   7  -3 52.0732 6.62511   1
   6  -7   3 73.8594 6.93365   1
   6  -7   3 68.1120 5.88149   1
   6  -7   3 64.3815 6.49859   1
   7   6  -3 25.9618 3.84676   1
  -6  -6  -5 34.5081 4.66605  -2
   6   6  -3 34.5081 4.66605   1
  -5  -6  -5 204.005 9.19723  -2
   5   6  -3 204.005 9.19723   1
  -4  -6  -5 247.079 10.0125  -2
   4   6  -3 247.079 10.0125   1
  -4  -6  -5 256.201 10.3788  -2
   4   6  -3 256.201 10.3788   1
  -3  -6  -5 471.316 14.8826  -2
   3   6  -3 471.316 14.8826   1
  -3  -6  -5 452.857 14.6102  -2
   3   6  -3 452.857 14.6102   1
  -2  -6  -5 1483.41 34.8507  -2
   2   6  -3 1483.41 34.8507   1
  -2  -6  -5 1456.59 35.2013  -2
   2   6  -3 1456.59 35.2013   1
   2   6   5 1527.15 32.0445  -2
  -2  -6   3 1527.15 32.0445   1
   2   6   5 1497.21 32.0366  -2
  -2  -6   3 1497.21 32.0366   1
   2   6   5 1495.24 29.3876  -2
  -2  -6   3 1495.24 29.3876   1
   1   6  -3 54.8652 4.42221   1
   1   6  -3 54.7487 3.75857   1
   1   6  -3 57.6698 4.53806   1
   1   6   5 808.308 20.1120  -2
  -1  -6   3 808.308 20.1120   1
   1   6   5 842.351 19.5264  -2
  -1  -6   3 842.351 19.5264   1
   1   6   5 808.111 20.5854  -2
  -1  -6   3 808.111 20.5854   1
   1   6   5 846.736 19.6378  -2
  -1  -6   3 846.736 19.6378   1
   0   6  -3 695.225 17.0548   1
   0   6  -3 672.851 17.0388   1
   0   6  -3 700.935 19.5499   1
   0   6  -3 676.079 19.4867   1
   0   6   5 834.179 21.2993  -2
   0  -6   3 834.179 21.2993   1
  -1   6  -3 30.4828 2.98238   1
  -1   6  -3 27.3547 3.56946   1
  -1   6  -3 26.9246 2.87355   1
  -1   6  -3 22.4085 3.21847   1
   1  -6   3 26.2568 2.98444   1
   1  -6   3 28.0716 3.01822   1
   1  -6   3 29.3215 3.55070   1
   1  -6   3 27.5478 2.94934   1
   1  -6   3 27.2417 2.98951   1
   1  -6   3 27.4721 2.79377   1
  -2   6  -3 33.5074 3.29240   1
  -2   6  -3 40.5501 3.40310   1
  -2   6  -3 32.5214 4.11954   1
   2  -6   3 31.5882 3.20220   1
   2  -6   3 29.6993 3.40265   1
   2  -6   3 35.3902 3.93101   1
   2  -6   3 34.8275 3.46171   1
   2  -6   3 38.0899 3.46583   1
   2  -6   3 34.7790 3.56932   1
  -3   6  -3 4.93622 1.54986   1
  -3   6  -3 6.49905 1.86821   1
  -3   6  -3 4.72481 2.09024   1
   3  -6   3 8.59774 2.26258   1
   3  -6   3 9.04258 2.52673   1
   3  -6   3 4.87585 1.77404   1
   3  -6   3 4.00921 1.68644   1
   3  -6   3 6.66561 2.04138   1
  -4   6  -3 227.400 11.6629   1
  -4   6  -3 207.334 8.16852   1
  -4   6  -3 230.421 8.20926   1
   4  -6   3 226.595 9.42450   1
   4  -6   3 222.869 10.3782   1
   4  -6   3 236.449 10.9230   1
  -5   6  -3 2.47115 2.12561   1
  -5   6  -3 6.08393 1.63652   1
   5  -6   3 0.87958 1.77939   1
   5  -6   3 5.42518 2.35102   1
   5  -6   3 2.92913 1.66359   1
  -6   6  -3 11.8342 4.06030   1
   6  -6   3 23.2880 4.08829   1
   6  -6   3 21.8873 3.35924   1
   6  -6   3 19.7313 3.90641   1
  -7   6  -3 543.103 22.4154   1
   7  -6   3 494.323 19.4646   1
   7  -6   3 509.987 17.4187   1
   7  -6   3 509.484 20.2227   1
  -8  -5  -5 272.269 10.9886  -2
   8   5  -3 272.269 10.9886   1
  -7  -5  -5 401.907 13.9823  -2
   7   5  -3 401.907 13.9823   1
  -6  -5  -5 1477.86 35.0237  -2
   6   5  -3 1477.86 35.0237   1
  -5  -5  -5 458.589 14.4285  -2
   5   5  -3 458.589 14.4285   1
   5   5   5 442.902 13.8935  -2
  -5  -5   3 442.902 13.8935   1
   4   5  -3 506.028 14.5590   1
   4   5  -3 487.568 14.8040   1
  -4  -5   3 503.932 14.2618   1
   3   5  -3 2.99054 1.27083   1
   3   5  -3 6.94026 1.77173   1
  -3  -5   3 4.64855 1.41202   1
   2   5  -3 1615.51 37.1958   1
   2   5  -3 1719.70 38.2965   1
   2   5   5 1944.12 36.8843  -2
  -2  -5   3 1944.12 36.8843   1
   1   5  -3 15.7461 1.97547   1
   1   5  -3 14.8303 2.27234   1
   1   5  -3 18.6355 2.23008   1
   1   5  -3 15.4292 2.41855   1
  -1  -5   3 14.3879 1.78328   1
  -1  -5   3 14.6887 1.96348   1
  -1  -5   3 12.7180 1.74490   1
  -1  -5   3 13.1967 1.97299   1
   0   5  -3 331.661 9.95060   1
   0   5  -3 352.526 10.0735   1
   0   5  -3 333.652 11.5477   1
   0   5  -3 332.519 11.5386   1
   0  -5   3 350.622 11.8388   1
   0  -5   3 344.816 10.1261   1
   0  -5   3 346.756 11.0967   1
   0  -5   3 332.710 10.6069   1
   0  -5   3 346.398 10.3709   1
   0  -5   3 336.786 10.3173   1
  -1   5  -3 1.05450 1.06777   1
  -1   5  -3 2.05975 1.12633   1
  -1   5  -3 1.43692 1.20054   1
  -1   5  -3 -0.4549 0.74591   1
   1  -5   3 0.29388 0.75845   1
   1  -5   3 0.61559 1.01028   1
   1  -5   3 1.55538 1.06992   1
   1  -5   3 1.75090 0.99108   1
   1  -5   3 2.26289 1.03800   1
   1  -5   3 1.11772 0.88052   1
  -2   5  -3 632.920 18.0622   1
  -2   5  -3 620.302 15.6403   1
  -2   5  -3 617.837 18.7580   1
  -2   5  -3 641.011 15.8315   1
   2  -5   3 621.570 16.3045   1
   2  -5   3 630.338 18.3642   1
   2  -5   3 613.847 16.9994   1
   2  -5   3 613.494 16.2295   1
   2  -5   3 613.122 16.7078   1
   2  -5   3 605.878 17.1047   1
  -3   5  -3 218.686 10.4631   1
  -3   5  -3 236.366 8.07560   1
  -3   5  -3 239.073 8.22989   1
   3  -5   3 239.962 8.84627   1
   3  -5   3 233.946 9.66447   1
   3  -5   3 226.095 8.85220   1
   3  -5   3 229.924 8.78407   1
   3  -5   3 239.463 10.1139   1
   4  -5  -4 33.0296 4.80661  -2
  -4   5  -3 33.0296 4.80661   1
   4  -5  -4 30.2949 2.78214  -2
  -4   5  -3 30.2949 2.78214   1
   4  -5   3 20.0594 3.16718   1
   4  -5   3 21.2793 3.21045   1
   4  -5   3 19.0600 2.52127   1
   5  -5  -4 68.6693 3.52318  -2
  -5   5  -3 68.6693 3.52318   1
   5  -5  -4 82.3093 7.21414  -2
  -5   5  -3 82.3093 7.21414   1
  -5   5   4 66.2160 5.72439  -2
   5  -5   3 66.2160 5.72439   1
  -5   5   4 90.5187 6.81914  -2
   5  -5   3 90.5187 6.81914   1
  -5   5   4 71.1050 5.05376  -2
   5  -5   3 71.1050 5.05376   1
   6  -5  -4 12.4167 3.96961  -2
  -6   5  -3 12.4167 3.96961   1
  -6   5   4 9.17338 3.17111  -2
   6  -5   3 9.17338 3.17111   1
  -6   5   4 14.2200 2.80972  -2
   6  -5   3 14.2200 2.80972   1
  -6   5   4 11.1298 3.33933  -2
   6  -5   3 11.1298 3.33933   1
   7  -5  -4 309.854 15.3919  -2
  -7   5  -3 309.854 15.3919   1
  -7   5   4 278.227 14.2172  -2
   7  -5   3 278.227 14.2172   1
  -7   5   4 292.577 13.4053  -2
   7  -5   3 292.577 13.4053   1
  -7   5   4 316.125 11.8431  -2
   7  -5   3 316.125 11.8431   1
   8   4  -3 169.673 8.24382   1
  -8  -4   3 186.879 10.3105   1
   7   4  -3 -0.3515 1.34284   1
  -7  -4   3 1.32506 1.44453   1
   6   4  -3 560.507 16.7105   1
  -6  -4   3 569.401 17.3292   1
   5   4  -3 4.88350 1.55717   1
  -5  -4   3 3.97316 1.51677   1
   4   4  -3 749.775 18.6374   1
   4   4  -3 746.232 19.4647   1
  -4  -4   3 778.008 19.4188   1
   3   4  -3 9.73251 1.76296   1
   3   4  -3 9.94557 1.79083   1
  -3  -4   3 9.29875 1.69773   1
   2   4  -3 36.4922 2.44525   1
   2   4  -3 38.2344 3.05933   1
   2   4  -3 35.7317 3.03260   1
   2   4  -3 36.4375 2.47975   1
  -2  -4   3 40.3585 2.12916   1
  -2  -4   3 41.3367 2.76176   1
  -2  -4   3 40.3788 2.99298   1
  -2  -4   3 38.1685 1.89312   1
   1   4  -3 255.155 7.65302   1
   1   4  -3 261.482 7.73045   1
   1   4  -3 247.479 8.64019   1
   1   4  -3 252.330 9.00752   1
  -1  -4   3 264.413 8.37875   1
  -1  -4   3 262.958 7.77304   1
  -1  -4   3 259.719 8.56823   1
  -1  -4   3 264.913 9.23364   1
  -1  -4   3 256.620 7.88427   1
   0   4  -3 466.100 13.5599   1
   0   4  -3 457.635 11.6658   1
   0   4  -3 456.652 11.7237   1
   0   4  -3 448.797 13.2930   1
   0   4   4 585.995 14.9978  -2
   0  -4   3 585.995 14.9978   1
   0   4   4 596.389 15.9140  -2
   0  -4   3 596.389 15.9140   1
   1  -4  -4 1805.88 36.1672  -2
  -1   4  -3 1805.88 36.1672   1
   1  -4  -4 1757.27 39.9009  -2
  -1   4  -3 1757.27 39.9009   1
   1  -4  -4 1820.14 40.2562  -2
  -1   4  -3 1820.14 40.2562   1
  -1   4   4 1854.56 39.2846  -2
   1  -4   3 1854.56 39.2846   1
  -1   4   4 1819.47 40.4090  -2
   1  -4   3 1819.47 40.4090   1
  -1   4   4 1781.53 36.9712  -2
   1  -4   3 1781.53 36.9712   1
  -1   4   4 1812.03 36.4104  -2
   1  -4   3 1812.03 36.4104   1
  -1   4   4 1800.12 38.5395  -2
   1  -4   3 1800.12 38.5395   1
  -1   4   4 1813.11 36.6740  -2
   1  -4   3 1813.11 36.6740   1
   2  -4  -4 127.082 6.37165  -2
  -2   4  -3 127.082 6.37165   1
   2  -4  -4 130.802 5.33762  -2
  -2   4  -3 130.802 5.33762   1
   2  -4  -4 117.548 5.19307  -2
  -2   4  -3 117.548 5.19307   1
   2  -4  -4 121.384 6.70687  -2
  -2   4  -3 121.384 6.70687   1
  -2   4   4 125.592 5.53276  -2
   2  -4   3 125.592 5.53276   1
  -2   4   4 119.025 5.61132  -2
   2  -4   3 119.025 5.61132   1
  -2   4   4 128.748 6.46336  -2
   2  -4   3 128.748 6.46336   1
  -2   4   4 128.485 5.63106  -2
   2  -4   3 128.485 5.63106   1
  -2   4   4 125.955 6.20606  -2
   2  -4   3 125.955 6.20606   1
  -2   4   4 118.078 5.48655  -2
   2  -4   3 118.078 5.48655   1
   3  -4  -4 911.116 24.9621  -2
  -3   4  -3 911.116 24.9621   1
   3  -4  -4 932.108 20.5090  -2
  -3   4  -3 932.108 20.5090   1
   3  -4  -4 943.367 20.3766  -2
  -3   4  -3 943.367 20.3766   1
  -3   4   4 923.219 22.2999  -2
   3  -4   3 923.219 22.2999   1
  -3   4   4 902.739 21.1973  -2
   3  -4   3 902.739 21.1973   1
  -3   4   4 915.854 23.9363  -2
   3  -4   3 915.854 23.9363   1
  -3   4   4 912.025 23.3807  -2
   3  -4   3 912.025 23.3807   1
  -3   4   4 923.989 21.3899  -2
   3  -4   3 923.989 21.3899   1
   4  -4  -4 39.9129 4.72611  -2
  -4   4  -3 39.9129 4.72611   1
   4  -4  -4 37.3582 2.71461  -2
  -4   4  -3 37.3582 2.71461   1
   4  -4  -4 30.9966 2.14812  -2
  -4   4  -3 30.9966 2.14812   1
  -4   4   4 34.5847 3.78297  -2
   4  -4   3 34.5847 3.78297   1
  -4   4   4 32.1451 3.91058  -2
   4  -4   3 32.1451 3.91058   1
  -4   4   4 41.1590 3.44390  -2
   4  -4   3 41.1590 3.44390   1
   5  -4  -4 1342.28 35.9669  -2
  -5   4  -3 1342.28 35.9669   1
   5  -4   3 980.418 26.5022   1
   5  -4   3 991.564 24.2061   1
   5  -4   3 1022.12 27.3312   1
  -6   4  -3 3.05247 1.75810   1
   6  -4   3 1.36260 1.58526   1
   6  -4   3 0.36851 1.26593   1
   6  -4   3 3.35900 1.46264   1
  -7   4  -3 148.533 10.4068   1
   7  -4   3 147.438 8.66638   1
   7  -4   3 143.187 9.67512   1
  -8   4  -3 21.0184 4.86281   1
   8  -4   3 23.0330 4.49215   1
   8  -4   3 17.2492 3.57721   1
   8   3  -3 842.744 22.3677   1
  -8  -3   3 849.916 25.6499   1
   7   3  -3 -0.0431 1.32683   1
  -7  -3   3 -1.3590 1.13731   1
   6   3  -3 68.2752 4.85978   1
  -6  -3   3 77.3541 5.45700   1
   5   3  -3 88.0987 5.16286   1
  -5  -3   3 96.3226 5.59019   1
  -4  -3  -4 655.409 17.5039  -2
   4   3  -3 655.409 17.5039   1
   4   3   4 686.307 17.7876  -2
  -4  -3   3 686.307 17.7876   1
  -3  -3  -4 578.003 16.1146  -2
   3   3  -3 578.003 16.1146   1
  -3  -3  -4 602.656 15.8602  -2
   3   3  -3 602.656 15.8602   1
  -3  -3  -4 591.599 14.5205  -2
   3   3  -3 591.599 14.5205   1
   3   3   4 631.338 15.8567  -2
  -3  -3   3 631.338 15.8567   1
  -2  -3  -4 131.443 4.57340  -2
   2   3  -3 131.443 4.57340   1
  -2  -3  -4 128.912 5.14956  -2
   2   3  -3 128.912 5.14956   1
  -2  -3  -4 127.333 5.65589  -2
   2   3  -3 127.333 5.65589   1
   2   3   4 141.635 4.00570  -2
  -2  -3   3 141.635 4.00570   1
   2   3   4 124.824 4.80438  -2
  -2  -3   3 124.824 4.80438   1
   2   3   4 127.186 5.52962  -2
  -2  -3   3 127.186 5.52962   1
   2   3   4 134.109 3.68771  -2
  -2  -3   3 134.109 3.68771   1
  -1  -3  -4 364.679 10.2662  -2
   1   3  -3 364.679 10.2662   1
  -1  -3  -4 357.088 10.8865  -2
   1   3  -3 357.088 10.8865   1
  -1  -3  -4 354.552 9.22132  -2
   1   3  -3 354.552 9.22132   1
  -1  -3  -4 339.660 9.07872  -2
   1   3  -3 339.660 9.07872   1
   1   3   4 370.965 9.72435  -2
  -1  -3   3 370.965 9.72435   1
   1   3   4 372.599 11.0437  -2
  -1  -3   3 372.599 11.0437   1
   1   3   4 342.303 10.6262  -2
  -1  -3   3 342.303 10.6262   1
   1   3   4 365.665 9.49910  -2
  -1  -3   3 365.665 9.49910   1
   1   3   4 344.296 9.96442  -2
  -1  -3   3 344.296 9.96442   1
   0   3  -3 4.58953 1.15309   1
   0   3  -3 2.20797 1.01148   1
   0   3  -3 1.04435 0.63722   1
   0   3  -3 2.13105 1.11170   1
   0   3   4 34.4282 3.16103  -2
   0  -3   3 34.4282 3.16103   1
   0   3   4 39.0762 2.92572  -2
   0  -3   3 39.0762 2.92572   1
   0   3   4 34.6013 3.21031  -2
   0  -3   3 34.6013 3.21031   1
   0   3   4 36.4575 2.64394  -2
   0  -3   3 36.4575 2.64394   1
   0   3   4 34.6256 2.69566  -2
   0  -3   3 34.6256 2.69566   1
   0   3   4 35.6658 2.69613  -2
   0  -3   3 35.6658 2.69613   1
  -1   3  -3 2253.04 47.3066   1
  -1   3  -3 2263.06 42.8898   1
  -1   3  -3 2268.22 43.2964   1
  -1   3  -3 2261.70 47.6126   1
   1  -3   3 2244.42 45.9653   1
   1  -3   3 2194.69 43.9080   1
   1  -3   3 2206.55 47.7614   1
   1  -3   3 2261.09 43.6332   1
   1  -3   3 2245.17 46.9236   1
   1  -3   3 2198.81 43.2291   1
  -2   3  -3 126.521 5.79760   1
  -2   3  -3 129.905 5.02335   1
  -2   3  -3 127.215 6.46829   1
  -2   3  -3 123.033 4.87492   1
   2  -3   3 121.856 5.33818   1
   2  -3   3 131.505 5.28400   1
   2  -3   3 118.510 5.83117   1
   2  -3   3 122.874 5.11996   1
   2  -3   3 127.502 5.17266   1
   2  -3   3 123.938 5.90657   1
  -3   3  -3 316.232 7.97492   1
  -3   3  -3 296.418 8.16856   1
  -3   3  -3 302.989 11.6285   1
  -3   3  -3 293.789 8.43708   1
   3  -3   3 295.884 8.95428   1
   3  -3   3 308.831 9.46452   1
   3  -3   3 290.333 10.4584   1
   3  -3   3 298.090 10.4038   1
   3  -3   3 287.741 8.97720   1
   3  -3   3 296.404 9.01717   1
  -4   3  -3 5.96878 2.05853   1
   4  -3   3 8.60917 2.13246   1
   4  -3   3 6.21597 1.89585   1
   4  -3   3 8.60359 1.47505   1
  -5   3  -3 6.12395 2.30268   1
   5  -3   3 6.35475 2.04124   1
   5  -3   3 8.39421 1.48100   1
   5  -3   3 9.38061 2.48402   1
  -6   3  -3 59.9570 6.16112   1
   6  -3   3 53.1487 5.40333   1
   6  -3   3 59.7408 4.87936   1
  -7   3  -3 8.95205 3.29754   1
   7  -3   3 12.0969 3.26753   1
   7  -3   3 14.0622 2.81573   1
  -8   3  -3 2.81808 2.48602   1
   8  -3   3 1.73400 1.63533   1
   8  -3   3 1.93218 1.95546   1
  -8  -2  -4 104.616 6.35097  -2
   8   2  -3 104.616 6.35097   1
   8   2   4 106.908 7.90640  -2
  -8  -2   3 106.908 7.90640   1
  -7  -2  -4 1.33204 2.01559  -2
   7   2  -3 1.33204 2.01559   1
   7   2   4 -1.5896 2.29014  -2
  -7  -2   3 -1.5896 2.29014   1
  -6  -2  -4 82.8700 4.96546  -2
   6   2  -3 82.8700 4.96546   1
   6   2   4 90.5770 5.89744  -2
  -6  -2   3 90.5770 5.89744   1
  -5  -2  -4 177.635 7.57496  -2
   5   2  -3 177.635 7.57496   1
   5   2   4 206.675 8.61742  -2
  -5  -2   3 206.675 8.61742   1
  -4  -2  -4 1142.80 27.4627  -2
   4   2  -3 1142.80 27.4627   1
   4   2   4 1201.08 27.3784  -2
  -4  -2   3 1201.08 27.3784   1
   3   2  -3 2740.15 53.6737   1
   3   2  -3 2772.95 57.1828   1
   3   2  -3 2648.18 57.2522   1
  -3  -2   3 2873.58 55.5343   1
   2   2  -3 44.4166 3.06157   1
   2   2  -3 45.6727 2.36362   1
  -2  -2   3 49.8931 1.88718   1
  -2  -2   3 48.6140 1.97316   1
  -2  -2   3 49.8946 3.22821   1
  -2  -2   3 45.1428 2.49935   1
   1   2  -3 3625.70 66.1412   1
   1   2  -3 3639.26 70.4500   1
   1   2  -3 3652.54 66.6906   1
   1   2  -3 3562.16 73.1396   1
  -1  -2   3 3593.15 66.7198   1
  -1  -2   3 3667.78 70.4736   1
  -1  -2   3 3537.28 67.6568   1
  -1  -2   3 3656.87 66.5730   1
  -1  -2   3 3736.05 73.5341   1
   0   2  -3 601.712 14.5521   1
   0   2  -3 609.290 13.4369   1
   0   2  -3 591.906 13.3102   1
   0   2  -3 579.317 14.9828   1
   0  -2   3 590.284 13.9088   1
   0  -2   3 590.792 15.1694   1
   0  -2   3 589.906 14.3706   1
   0  -2   3 603.665 13.8207   1
   0  -2   3 587.911 15.2105   1
   0  -2   3 581.005 13.5593   1
  -1   2  -3 313.393 8.23418   1
  -1   2  -3 319.837 8.36555   1
  -1   2  -3 303.696 9.65221   1
   1  -2   3 307.394 9.48445   1
   1  -2   3 300.763 9.45215   1
   1  -2   3 306.938 8.75689   1
   1  -2   3 300.140 8.27819   1
   1  -2   3 312.873 8.62851   1
   1  -2   3 300.802 8.40064   1
  -2   2  -3 59.4393 4.17888   1
  -2   2  -3 55.7748 2.88699   1
  -2   2  -3 56.5026 3.45632   1
  -2   2  -3 56.8028 2.98458   1
   2  -2   3 53.0893 2.83452   1
   2  -2   3 57.0048 3.57124   1
   2  -2   3 58.1834 3.76405   1
   2  -2   3 56.5611 3.19770   1
   2  -2   3 61.2271 3.13289   1
   2  -2   3 54.3019 2.98365   1
  -3   2  -3 653.971 13.0222   1
  -3   2  -3 606.146 13.3635   1
   3  -2   3 614.158 16.2073   1
   3  -2   3 612.090 14.3083   1
   3  -2   3 609.826 14.3794   1
   3  -2   3 593.501 16.6134   1
   3  -2   3 605.446 14.7107   1
   3  -2   3 637.766 14.4246   1
  -4   2  -3 129.278 7.60329   1
   4  -2   3 128.312 6.84777   1
   4  -2   3 137.611 6.19381   1
   5  -2  -3 30.5183 4.12620  -2
  -5   2  -3 30.5183 4.12620   1
   5  -2   3 15.7392 2.29500   1
   5  -2   3 14.9908 2.79533   1
   6  -2  -3 108.988 7.80330  -2
  -6   2  -3 108.988 7.80330   1
   6  -2   3 94.1111 5.62718   1
   6  -2   3 91.6007 6.78067   1
   7  -2  -3 49.3195 5.77982  -2
  -7   2  -3 49.3195 5.77982   1
  -7   2   3 39.3308 4.28456  -2
   7  -2   3 39.3308 4.28456   1
  -7   2   3 41.7180 5.49889  -2
   7  -2   3 41.7180 5.49889   1
   8  -2  -3 38.2340 5.08558  -2
  -8   2  -3 38.2340 5.08558   1
  -8   2   3 52.5781 6.58177  -2
   8  -2   3 52.5781 6.58177   1
  -8   2   3 42.5953 4.55169  -2
   8  -2   3 42.5953 4.55169   1
  -8  -1  -4 157.101 8.18606  -2
   8   1  -3 157.101 8.18606   1
   8   1   4 163.592 9.92183  -2
  -8  -1   3 163.592 9.92183   1
  -7  -1  -4 35.1001 4.14624  -2
   7   1  -3 35.1001 4.14624   1
  -7  -1   3 25.7971 3.77897   1
   6   1  -3 70.9984 4.63122   1
  -6  -1   3 64.1900 5.13206   1
   5   1  -3 447.775 13.5971   1
  -5  -1   3 457.873 14.4759   1
   4   1  -3 4.03925 1.41384   1
   4   1  -3 5.66121 1.54088   1
   4   1  -3 3.05483 0.81237   1
  -4  -1   3 1.63289 0.99576   1
   3   1  -3 203.711 7.09329   1
   3   1  -3 198.798 7.49142   1
  -3  -1   3 200.451 7.46931   1
   2   1  -3 405.623 8.83302   1
   2   1  -3 403.252 11.6547   1
  -2  -1   3 428.248 8.68289   1
  -2  -1   3 392.421 11.1339   1
  -2  -1   3 406.252 8.71138   1
   1   1  -3 183.902 5.38721   1
   1   1  -3 181.483 5.32586   1
   1   1  -3 172.850 6.36027   1
   1   1  -3 173.941 4.97634   1
  -1  -1   3 172.199 5.25281   1
  -1  -1   3 167.943 4.57068   1
  -1  -1   3 171.662 5.58068   1
  -1  -1   3 171.633 6.26590   1
  -1  -1   3 175.884 5.22202   1
  -1  -1   3 176.320 6.26307   1
   0   1  -3 994.954 22.5936   1
   0   1  -3 1035.67 21.6129   1
   0   1  -3 1007.15 20.2888   1
   0   1  -3 1005.47 20.3036   1
   0  -1   3 993.808 20.5508   1
   0  -1   3 974.216 21.8084   1
   0  -1   3 964.984 22.3422   1
   0  -1   3 966.474 22.4133   1
   0  -1   3 994.474 20.7353   1
   0  -1   3 966.694 20.2984   1
  -1   1  -3 345.226 9.93223   1
  -1   1  -3 361.543 8.94274   1
  -1   1  -3 343.014 10.1698   1
  -1   1  -3 346.176 8.87119   1
   1  -1   3 347.260 8.98060   1
   1  -1   3 342.473 10.0606   1
   1  -1   3 350.040 8.68398   1
   1  -1   3 348.552 8.74346   1
   1  -1   3 349.898 9.89820   1
   1  -1   3 348.681 9.08006   1
   2  -1  -3 735.584 14.6571  -2
  -2   1  -3 735.584 14.6571   1
   2  -1  -3 714.881 14.9320  -2
  -2   1  -3 714.881 14.9320   1
   2  -1  -3 706.639 18.4370  -2
  -2   1  -3 706.639 18.4370   1
   2  -1   3 554.944 12.4995   1
   2  -1   3 565.584 12.9766   1
   2  -1   3 550.018 12.6317   1
   2  -1   3 558.429 12.5249   1
   2  -1   3 551.718 14.1769   1
   2  -1   3 554.943 14.5613   1
   3  -1  -3 752.792 20.8235  -2
  -3   1  -3 752.792 20.8235   1
  -3   1   3 800.737 19.0887  -2
   3  -1   3 800.737 19.0887   1
  -3   1   3 820.820 19.3438  -2
   3  -1   3 820.820 19.3438   1
   4  -1  -3 92.4745 5.89501  -2
  -4   1  -3 92.4745 5.89501   1
  -4   1   3 100.337 5.75416  -2
   4  -1   3 100.337 5.75416   1
  -4   1   3 109.428 4.99575  -2
   4  -1   3 109.428 4.99575   1
   5  -1  -3 153.892 8.37056  -2
  -5   1  -3 153.892 8.37056   1
  -5   1   3 160.558 6.63307  -2
   5  -1   3 160.558 6.63307   1
  -5   1   3 150.024 7.94942  -2
   5  -1   3 150.024 7.94942   1
   6  -1  -3 1129.54 30.6799  -2
  -6   1  -3 1129.54 30.6799   1
  -6   1   3 1109.15 26.6477  -2
   6  -1   3 1109.15 26.6477   1
  -6   1   3 1073.89 29.2067  -2
   6  -1   3 1073.89 29.2067   1
   7  -1  -3 163.276 9.85743  -2
  -7   1  -3 163.276 9.85743   1
  -7   1   3 140.242 7.06883  -2
   7  -1   3 140.242 7.06883   1
  -8   1  -3 329.646 15.4267   1
   8  -1   3 320.795 15.0853   1
   8  -1   3 294.934 11.4418   1
   8   0  -3 65.9289 5.14113   1
  -8   0   3 55.2767 5.92634   1
   7   0  -3 886.887 23.6223   1
  -7   0   3 917.373 26.0599   1
   6   0  -3 132.411 6.63023   1
  -6   0   3 133.724 7.55952   1
   5   0  -3 887.764 22.5750   1
  -5   0   3 933.453 23.7481   1
  -4   0  -3 477.248 13.3686  -2
   4   0  -3 477.248 13.3686   1
  -4   0   3 8.55622 1.80818   1
   3   0  -3 719.054 17.3292   1
   3   0  -3 694.436 17.8765   1
  -3   0   3 688.766 17.3964   1
  -2   0  -3 509.897 13.9639  -2
   2   0  -3 509.897 13.9639   1
  -2   0  -3 522.075 12.0514  -2
   2   0  -3 522.075 12.0514   1
   2   0   3 507.051 10.7239  -2
  -2   0   3 507.051 10.7239   1
   2   0   3 548.854 11.1880  -2
  -2   0   3 548.854 11.1880   1
  -1   0  -3 142.940 5.66330  -2
   1   0  -3 142.940 5.66330   1
  -1   0  -3 154.757 4.92159  -2
   1   0  -3 154.757 4.92159   1
  -1   0  -3 150.721 3.95571  -2
   1   0  -3 150.721 3.95571   1
  -1   0  -3 153.384 4.88485  -2
   1   0  -3 153.384 4.88485   1
   1   0   3 152.466 4.44281  -2
  -1   0   3 152.466 4.44281   1
   1   0   3 141.577 4.65356  -2
  -1   0   3 141.577 4.65356   1
   1   0   3 145.731 5.70318  -2
  -1   0   3 145.731 5.70318   1
   1   0   3 152.785 5.68115  -2
  -1   0   3 152.785 5.68115   1
   1   0   3 143.364 4.59486  -2
  -1   0   3 143.364 4.59486   1
   0   0  -3 1200.46 25.4545  -2
   0   0  -3 1200.46 25.4545   1
   0   0  -3 1226.68 24.2347  -2
   0   0  -3 1226.68 24.2347   1
   0   0  -3 1257.77 27.2507  -2
   0   0  -3 1257.77 27.2507   1
   0   0  -3 1221.19 24.3710  -2
   0   0  -3 1221.19 24.3710   1
   0   0   3 1177.13 26.5059  -2
   0   0   3 1177.13 26.5059   1
   0   0   3 1256.30 24.9452  -2
   0   0   3 1256.30 24.9452   1
   0   0   3 1223.84 27.1422  -2
   0   0   3 1223.84 27.1422   1
   0   0   3 1226.76 26.3798  -2
   0   0   3 1226.76 26.3798   1
   0   0   3 1221.44 24.4271  -2
   0   0   3 1221.44 24.4271   1
   0   0   3 1252.97 24.6952  -2
   0   0   3 1252.97 24.6952   1
   1   0  -3 208.686 7.24036  -2
  -1   0  -3 208.686 7.24036   1
   1   0  -3 204.123 5.90031  -2
  -1   0  -3 204.123 5.90031   1
  -1   0   3 239.930 6.22606  -2
   1   0   3 239.930 6.22606   1
  -1   0   3 232.909 7.27091  -2
   1   0   3 232.909 7.27091   1
  -1   0   3 236.377 6.54088  -2
   1   0   3 236.377 6.54088   1
  -1   0   3 238.667 6.31307  -2
   1   0   3 238.667 6.31307   1
  -1   0   3 240.794 7.57399  -2
   1   0   3 240.794 7.57399   1
  -1   0   3 228.929 6.18433  -2
   1   0   3 228.929 6.18433   1
   2   0  -3 319.801 9.90553  -2
  -2   0  -3 319.801 9.90553   1
   2   0   3 21.2884 1.79286   1
   2   0   3 19.1773 2.02401   1
   3   0  -3 438.705 13.2750  -2
  -3   0  -3 438.705 13.2750   1
   3   0   3 23.5677 2.09533   1
   3   0   3 25.7473 2.00960   1
   3   0   3 21.1568 2.40225   1
  -4   0  -3 711.367 20.4774   1
   4   0   3 719.948 17.2376   1
   4   0   3 728.783 19.1057   1
   4   0   3 733.762 17.5290   1
  -5   0  -3 3.28650 1.61397   1
   5   0   3 2.15484 1.07997   1
   5   0   3 1.82781 1.30434   1
  -6   0  -3 253.451 11.0869   1
  -6   0  -3 291.386 12.6557   1
   6   0   3 277.131 11.7461   1
   6   0   3 280.703 9.12362   1
  -7   0  -3 99.5986 7.53809   1
  -7   0  -3 102.541 7.22947   1
   7   0   3 85.1838 4.91827   1
   7   0   3 89.9278 7.08771   1
  -8   0  -3 37.3881 5.08786   1
   8   0   3 26.2484 4.75475   1
   8   0   3 27.9968 3.22441   1
  -8   1  -3 205.010 10.0084  -2
   8  -1  -3 205.010 10.0084   1
  -8   1   3 1.50018 1.74273   1
  -7   1  -3 122.379 7.13862  -2
   7  -1  -3 122.379 7.13862   1
   7  -1   3 128.367 8.41107  -2
  -7   1   3 128.367 8.41107   1
  -6   1  -3 773.661 20.8827  -2
   6  -1  -3 773.661 20.8827   1
   6  -1   3 773.713 22.0118  -2
  -6   1   3 773.713 22.0118   1
  -5   1  -3 125.819 6.13581  -2
   5  -1  -3 125.819 6.13581   1
   5  -1   3 115.987 6.52733  -2
  -5   1   3 115.987 6.52733   1
  -4   1  -3 68.0762 4.25839  -2
   4  -1  -3 68.0762 4.25839   1
   4  -1   3 69.4804 4.51753  -2
  -4   1   3 69.4804 4.51753   1
  -3   1  -3 553.110 14.7840  -2
   3  -1  -3 553.110 14.7840   1
  -3   1  -3 567.266 13.0987  -2
   3  -1  -3 567.266 13.0987   1
   3  -1   3 519.292 11.0219  -2
  -3   1   3 519.292 11.0219   1
   3  -1   3 550.695 11.3189  -2
  -3   1   3 550.695 11.3189   1
   3  -1   3 562.717 14.8251  -2
  -3   1   3 562.717 14.8251   1
  -2   1  -3 593.697 13.7149  -2
   2  -1  -3 593.697 13.7149   1
  -2   1  -3 625.996 15.7814  -2
   2  -1  -3 625.996 15.7814   1
  -2   1  -3 592.508 13.7491  -2
   2  -1  -3 592.508 13.7491   1
  -2   1   3 271.861 6.75503   1
  -2   1   3 269.993 8.41355   1
  -2   1   3 267.428 6.60719   1
   1  -1  -3 1819.26 35.3946   1
   1  -1  -3 1829.51 35.3048   1
   1  -1  -3 1806.91 35.5216   1
   1  -1  -3 1814.13 38.7439   1
  -1   1   3 1905.25 38.3330   1
  -1   1   3 1759.16 36.7743   1
  -1   1   3 1845.12 35.3965   1
  -1   1   3 1807.78 34.5281   1
  -1   1   3 1843.06 34.8407   1
  -1   1   3 1850.02 37.1153   1
   0  -1  -3 3765.36 72.4782   1
   0  -1  -3 3676.47 69.9100   1
   0  -1  -3 3598.05 65.7691   1
   0  -1   3 4361.83 78.9916  -2
   0   1   3 4361.83 78.9916   1
  -1  -1  -3 1622.00 29.8095   1
  -1  -1  -3 1615.50 33.6358   1
  -1  -1  -3 1619.55 29.7428   1
  -1  -1  -3 1565.41 29.8516   1
   1   1   3 1617.21 30.4613   1
   1   1   3 1562.67 32.1573   1
   1   1   3 1604.83 30.3166   1
   1   1   3 1609.29 31.8243   1
   1   1   3 1574.21 33.6702   1
   1   1   3 1591.69 32.8023   1
  -2  -1  -3 1061.01 24.8614   1
   2   1   3 1089.15 23.6644   1
   2   1   3 1062.44 23.2338   1
   2   1   3 1049.16 23.3564   1
  -3  -1  -3 722.044 19.4992   1
   3   1   3 757.431 18.1549   1
   3   1   3 727.616 16.7502   1
   3   1   3 742.055 17.3579   1
  -4  -1  -3 1355.97 31.9359   1
   4   1   3 1314.42 28.2553   1
   4   1   3 1287.70 29.6922   1
   4   1   3 1282.58 27.7119   1
  -5  -1  -3 65.3707 5.28516   1
   5   1   3 67.6453 3.35198   1
   5   1   3 69.9826 3.51958   1
   5   1   3 65.1295 4.90349   1
   6   1  -2 68.5395 5.92384  -2
  -6  -1  -3 68.5395 5.92384   1
   6   1   3 62.1712 5.27435   1
   6   1   3 61.3367 3.40921   1
   7   1  -2 28.3869 4.84977  -2
  -7  -1  -3 28.3869 4.84977   1
   7   1   3 14.5408 2.02001   1
   7   1   3 11.4587 3.10300   1
   8   1  -2 90.5721 7.46442  -2
  -8  -1  -3 90.5721 7.46442   1
  -8  -1   2 83.1396 4.81703  -2
   8   1   3 83.1396 4.81703   1
  -8  -1   2 80.4011 7.81558  -2
   8   1   3 80.4011 7.81558   1
  -8   2  -3 40.9927 4.58827  -2
   8  -2  -3 40.9927 4.58827   1
   8  -2   3 38.9594 5.21223  -2
  -8   2   3 38.9594 5.21223   1
  -7   2  -3 64.2498 5.52191  -2
   7  -2  -3 64.2498 5.52191   1
   7  -2   3 46.8518 5.45937  -2
  -7   2   3 46.8518 5.45937   1
  -6   2  -3 84.3147 5.95018  -2
   6  -2  -3 84.3147 5.95018   1
   6  -2   3 84.2732 6.35993  -2
  -6   2   3 84.2732 6.35993   1
   5  -2  -3 12.9027 2.32980   1
  -5   2   3 15.9338 2.68475   1
   4  -2  -3 316.337 10.9253   1
  -4   2   3 325.146 11.2359   1
  -4   2   3 337.992 9.03385   1
   3  -2  -3 15.2608 2.13046   1
   3  -2  -3 18.8477 2.07117   1
  -3   2   3 20.6409 1.58807   1
  -3   2   3 17.8052 1.42083   1
  -3   2   3 20.2903 2.28773   1
  -3   2   3 20.0187 1.76502   1
  -3   2   3 16.5247 1.38204   1
  -3   2   3 19.4099 1.33490   1
   2  -2  -3 467.404 11.6770   1
   2  -2  -3 435.301 12.5550   1
   2  -2  -3 472.954 11.6131   1
  -2   2   3 447.551 10.5791   1
  -2   2   3 466.217 10.3775   1
  -2   2   3 464.735 12.3711   1
  -2   2   3 452.408 12.0506   1
  -2   2   3 453.424 10.5016   1
   1  -2  -3 167.722 5.63516   1
   1  -2  -3 162.448 6.19880   1
  -1   2   3 167.696 5.75811   1
  -1   2   3 177.440 5.40670   1
  -1   2   3 178.346 5.44279   1
  -1   2   3 174.379 6.23089   1
  -1   2   3 172.748 5.03289   1
   0  -2  -3 2567.60 50.1767   1
   0  -2  -3 2509.28 49.5890   1
   0  -2  -3 2537.46 46.4519   1
   0  -2  -3 2501.02 51.0973   1
   0  -2  -3 2513.33 46.7565   1
   0   2   3 2508.18 48.8126   1
   0   2   3 2543.99 46.9701   1
   0   2   3 2495.33 46.6404   1
   0   2   3 2473.92 49.5542   1
   0   2   3 2434.21 51.0409   1
   0   2   3 2471.85 50.6033   1
  -1  -2  -3 330.936 6.89362   1
  -1  -2  -3 308.726 7.01981   1
  -1  -2  -3 316.610 6.98242   1
  -1  -2  -3 315.926 9.20057   1
  -1  -2  -3 293.190 7.91689   1
  -1  -2  -3 312.733 7.29890   1
   1   2   3 302.456 7.68295   1
   1   2   3 317.666 7.48171   1
   1   2   3 303.139 8.62938   1
   1   2   3 294.826 8.16196   1
   1   2   3 308.254 8.85687   1
  -2  -2  -3 305.677 9.67242   1
   2   2   3 307.963 8.73676   1
   2   2   3 295.201 8.50382   1
   2   2   3 308.867 8.36399   1
  -3  -2  -3 13.2362 2.17781   1
  -3  -2   2 138.689 4.89447  -2
   3   2   3 138.689 4.89447   1
   4   2  -2 405.919 13.2821  -2
  -4  -2  -3 405.919 13.2821   1
  -4  -2   2 370.394 9.89235  -2
   4   2   3 370.394 9.89235   1
  -4  -2   2 415.652 10.4184  -2
   4   2   3 415.652 10.4184   1
   5   2  -2 66.5737 5.19991  -2
  -5  -2  -3 66.5737 5.19991   1
  -5  -2   2 71.7419 3.18771  -2
   5   2   3 71.7419 3.18771   1
  -5  -2   2 69.1460 5.02752  -2
   5   2   3 69.1460 5.02752   1
   6   2  -2 339.567 13.0368  -2
  -6  -2  -3 339.567 13.0368   1
   6   2  -2 319.119 11.9241  -2
  -6  -2  -3 319.119 11.9241   1
  -6  -2   2 340.237 12.7579  -2
   6   2   3 340.237 12.7579   1
   7   2  -2 211.523 10.8006  -2
  -7  -2  -3 211.523 10.8006   1
  -7  -2   2 196.986 6.57485  -2
   7   2   3 196.986 6.57485   1
  -7  -2   2 201.497 10.4298  -2
   7   2   3 201.497 10.4298   1
   8   2  -2 423.832 16.7801  -2
  -8  -2  -3 423.832 16.7801   1
  -8  -2   2 411.128 16.9364  -2
   8   2   3 411.128 16.9364   1
  -8  -2   2 378.589 10.9067  -2
   8   2   3 378.589 10.9067   1
   8  -3  -3 0.91179 1.52893   1
  -8   3   3 -0.4457 1.99489   1
   7  -3  -3 17.5917 3.10265   1
  -7   3   3 20.0241 3.84698   1
   6  -3  -3 438.511 15.0269   1
  -6   3   3 434.901 15.5914   1
   5  -3  -3 854.465 22.9241   1
  -5   3   3 848.739 23.0165   1
   4  -3  -3 907.731 23.3326   1
  -4   3   3 938.673 18.4406   1
  -4   3   3 929.102 21.2400   1
  -4   3   3 887.510 22.8715   1
   3  -3  -3 1481.35 34.0705   1
   3  -3  -3 1516.46 31.1280   1
  -3   3   3 1528.07 31.4364   1
  -3   3   3 1472.52 32.4331   1
  -3   3   3 1518.14 29.3861   1
  -3   3   3 1474.77 29.1679   1
   2  -3  -3 2142.31 42.2355   1
  -2   3   3 2125.42 43.4438   1
  -2   3   3 2177.68 43.8568   1
  -2   3   3 2246.60 46.0524   1
  -2   3   3 2188.64 41.5433   1
  -2   3   3 2157.28 41.3401   1
   1  -3  -3 6.53753 1.22469   1
   1  -3  -3 5.01600 1.15529   1
   1  -3  -3 7.30568 1.38751   1
  -1   3   3 6.72741 1.17561   1
  -1   3   3 4.17614 1.07984   1
  -1   3   3 7.77977 1.22330   1
  -1   3   3 5.78275 1.27394   1
  -1   3   3 5.60884 1.09637   1
   0   3  -2 202.116 5.75647  -2
   0  -3  -3 202.116 5.75647   1
   0  -3   2 207.947 6.25964  -2
   0   3   3 207.947 6.25964   1
   0  -3   2 199.607 6.08523  -2
   0   3   3 199.607 6.08523   1
   0  -3   2 202.708 6.49429  -2
   0   3   3 202.708 6.49429   1
   0  -3   2 196.669 6.75399  -2
   0   3   3 196.669 6.75399   1
   0  -3   2 199.110 6.93241  -2
   0   3   3 199.110 6.93241   1
   1   3  -2 873.249 17.7889  -2
  -1  -3  -3 873.249 17.7889   1
   1   3  -2 824.764 19.6811  -2
  -1  -3  -3 824.764 19.6811   1
   1   3  -2 848.055 16.4950  -2
  -1  -3  -3 848.055 16.4950   1
   1   3  -2 821.897 16.9051  -2
  -1  -3  -3 821.897 16.9051   1
   1   3  -2 804.527 16.4950  -2
  -1  -3  -3 804.527 16.4950   1
   1   3  -2 870.311 16.3610  -2
  -1  -3  -3 870.311 16.3610   1
  -1  -3   2 849.608 19.5664  -2
   1   3   3 849.608 19.5664   1
  -1  -3   2 801.164 18.1716  -2
   1   3   3 801.164 18.1716   1
  -1  -3   2 832.223 17.6202  -2
   1   3   3 832.223 17.6202   1
  -1  -3   2 833.926 18.6011  -2
   1   3   3 833.926 18.6011   1
  -1  -3   2 833.857 19.8933  -2
   1   3   3 833.857 19.8933   1
   2   3  -2 251.545 8.77303  -2
  -2  -3  -3 251.545 8.77303   1
  -2  -3   2 233.390 7.39327  -2
   2   3   3 233.390 7.39327   1
  -2  -3   2 254.184 7.44148  -2
   2   3   3 254.184 7.44148   1
  -2  -3   2 247.942 7.34558  -2
   2   3   3 247.942 7.34558   1
   3   3  -2 1741.64 37.9993  -2
  -3  -3  -3 1741.64 37.9993   1
  -3  -3   2 1637.27 35.3488  -2
   3   3   3 1637.27 35.3488   1
  -3  -3   2 1716.03 35.1829  -2
   3   3   3 1716.03 35.1829   1
  -3  -3   2 1677.92 35.1397  -2
   3   3   3 1677.92 35.1397   1
   4   3  -2 276.728 10.6850  -2
  -4  -3  -3 276.728 10.6850   1
   4   3   3 10.2842 1.87151   1
   4   3   3 8.71462 1.16265   1
  -5  -3  -3 282.214 11.3704   1
   5   3   3 275.464 10.2460   1
  -6  -3  -3 547.462 18.3215   1
   6   3   3 549.424 17.1130   1
  -7  -3  -3 485.207 17.8121   1
   7   3   3 502.563 17.2952   1
  -8  -3  -3 -0.7774 1.45120   1
   8   3   3 0.78924 1.79313   1
   8  -4  -3 51.4304 5.51517   1
  -8   4   3 52.8439 6.45577   1
   7  -4  -3 54.7965 5.20992   1
  -7   4   3 54.0634 5.69731   1
   6  -4  -3 661.337 20.0694   1
  -6   4   3 629.335 20.1929   1
  -5   4  -2 141.250 7.72322  -2
   5  -4  -3 141.250 7.72322   1
  -5   4   3 134.605 7.48970   1
  -4   4  -2 60.8947 4.91679  -2
   4  -4  -3 60.8947 4.91679   1
   4  -4   2 61.0104 4.78824  -2
  -4   4   3 61.0104 4.78824   1
   4  -4   2 61.8937 2.98065  -2
  -4   4   3 61.8937 2.98065   1
   4  -4   2 70.2700 4.31671  -2
  -4   4   3 70.2700 4.31671   1
   4  -4   2 66.1889 3.39903  -2
  -4   4   3 66.1889 3.39903   1
  -3   4  -2 469.109 14.4741  -2
   3  -4  -3 469.109 14.4741   1
  -3   4  -2 497.166 13.1219  -2
   3  -4  -3 497.166 13.1219   1
  -3   4  -2 492.790 13.0200  -2
   3  -4  -3 492.790 13.0200   1
   3  -4   2 475.325 11.8610  -2
  -3   4   3 475.325 11.8610   1
   3  -4   2 470.414 11.6636  -2
  -3   4   3 470.414 11.6636   1
   3  -4   2 459.074 13.2991  -2
  -3   4   3 459.074 13.2991   1
   3  -4   2 458.132 12.8248  -2
  -3   4   3 458.132 12.8248   1
  -2   4  -2 173.378 6.54921  -2
   2  -4  -3 173.378 6.54921   1
  -2   4  -2 170.499 6.42866  -2
   2  -4  -3 170.499 6.42866   1
  -2   4  -2 174.449 7.42836  -2
   2  -4  -3 174.449 7.42836   1
   2  -4   2 165.893 6.32805  -2
  -2   4   3 165.893 6.32805   1
   2  -4   2 184.412 6.34442  -2
  -2   4   3 184.412 6.34442   1
   2  -4   2 174.536 6.47730  -2
  -2   4   3 174.536 6.47730   1
   2  -4   2 186.325 6.26236  -2
  -2   4   3 186.325 6.26236   1
  -1   4  -2 69.4803 3.78583  -2
   1  -4  -3 69.4803 3.78583   1
  -1   4  -2 69.8280 4.31899  -2
   1  -4  -3 69.8280 4.31899   1
  -1   4  -2 70.8559 3.85842  -2
   1  -4  -3 70.8559 3.85842   1
  -1   4  -2 69.4402 3.72367  -2
   1  -4  -3 69.4402 3.72367   1
   1  -4   2 73.9865 3.86175  -2
  -1   4   3 73.9865 3.86175   1
   1  -4   2 75.8599 4.46218  -2
  -1   4   3 75.8599 4.46218   1
   1  -4   2 72.6140 4.04267  -2
  -1   4   3 72.6140 4.04267   1
   0  -4  -3 1364.87 29.8275   1
   0  -4  -3 1333.52 26.7216   1
   0  -4  -3 1300.08 26.6376   1
   0  -4  -3 1316.87 27.8688   1
   0  -4   2 1813.06 38.2858  -2
   0   4   3 1813.06 38.2858   1
  -1  -4  -3 121.629 3.93028   1
  -1  -4  -3 127.363 4.01683   1
  -1  -4  -3 128.291 4.60715   1
  -1  -4  -3 131.122 4.29531   1
  -1  -4  -3 123.805 3.69426   1
   1   4   3 118.400 4.35818   1
   1   4   3 115.545 4.47967   1
   1   4   3 115.455 4.12583   1
   1   4   3 126.240 5.69565   1
   1   4   3 120.293 5.19122   1
   1   4   3 116.573 4.48524   1
  -2  -4  -3 3526.03 73.0511   1
   2   4   3 3540.61 68.4459   1
   2   4   3 3562.67 73.1235   1
   2   4   3 3659.62 72.3713   1
   2   4   3 3718.46 72.5147   1
   3   4   3 800.310 21.3912   1
   3   4   3 803.944 18.4126   1
   3   4   3 795.834 18.7442   1
   3   4   3 842.058 18.9279   1
  -4  -4  -3 105.681 6.33386   1
   4   4   3 104.491 4.20508   1
   4   4   3 109.294 4.35951   1
   4   4   3 112.591 6.59399   1
   4   4   3 115.683 5.32960   1
  -5  -4  -3 940.087 25.5140   1
   5   4   3 944.927 23.3517   1
  -6  -4  -3 204.273 10.1541   1
   6   4   3 213.540 9.46124   1
  -7  -4  -3 452.057 16.7272   1
   7   4   3 421.216 16.8033   1
   7   4   3 443.887 15.8659   1
  -8  -4  -3 73.8955 6.60149   1
  -7   5  -2 719.982 23.3927  -2
   7  -5  -3 719.982 23.3927   1
   7  -5   2 735.399 23.4822  -2
  -7   5   3 735.399 23.4822   1
  -6   5  -2 179.560 9.76405  -2
   6  -5  -3 179.560 9.76405   1
   6  -5   2 171.732 9.41195  -2
  -6   5   3 171.732 9.41195   1
  -5   5  -2 280.632 11.9883  -2
   5  -5  -3 280.632 11.9883   1
   5  -5   2 277.241 11.3315  -2
  -5   5   3 277.241 11.3315   1
   5  -5   2 260.151 7.62188  -2
  -5   5   3 260.151 7.62188   1
   4  -5  -3 66.0286 5.18716   1
   4  -5   2 103.842 5.79560  -2
  -4   5   3 103.842 5.79560   1
   3  -5  -3 3.39270 1.28160   1
   3  -5  -3 2.41471 1.21714   1
   3  -5  -3 3.09344 1.56062   1
   3  -5  -3 2.35220 1.17778   1
  -3   5   3 2.01962 1.21490   1
  -3   5   3 2.39515 1.17793   1
  -3   5   3 1.81821 0.95699   1
  -3   5   3 4.31691 1.41073   1
   2  -5  -3 57.3097 3.73940   1
   2  -5  -3 56.3159 3.68760   1
   2  -5  -3 53.7430 3.71405   1
   2  -5  -3 53.0108 4.14526   1
  -2   5   3 53.4785 3.70398   1
  -2   5   3 54.7869 3.43025   1
  -2   5   3 52.4882 3.37214   1
  -2   5   3 58.1432 3.46149   1
   1  -5  -3 677.979 16.3798   1
   1  -5  -3 677.339 16.9585   1
   1  -5  -3 695.707 16.4890   1
   1  -5  -3 712.509 18.5526   1
  -1   5   3 656.617 15.4075   1
  -1   5   3 673.016 17.6098   1
  -1   5   3 675.533 16.2977   1
  -1   5   3 693.476 16.2392   1
  -1   5   3 682.023 18.1992   1
   0  -5  -3 278.329 7.72114   1
   0  -5  -3 282.538 8.20803   1
   0  -5  -3 296.547 9.69555   1
   0  -5  -3 275.469 8.21647   1
   0   5   3 281.018 8.51445   1
   0   5   3 277.352 9.58986   1
   0   5   3 283.496 8.83340   1
   0   5   3 281.081 9.53654   1
   0   5   3 287.490 7.19273   1
   0   5   3 297.778 8.69599   1
  -1  -5  -3 1123.24 22.3710   1
  -1  -5  -3 1115.61 22.5688   1
  -1  -5  -3 1133.45 22.4045   1
  -1  -5  -3 1121.25 22.0480   1
   1   5   3 1138.18 22.1741   1
   1   5   3 1103.49 24.8768   1
   1   5   3 1138.06 23.6398   1
   1   5   3 1120.57 26.7958   1
   1   5   3 1122.65 23.7773   1
   1   5   3 1127.28 26.2471   1
   2   5   3 198.320 7.25427   1
   2   5   3 187.117 8.12247   1
   2   5   3 185.788 7.02272   1
   2   5   3 196.995 5.79160   1
  -3  -5  -3 132.847 6.98911   1
   3   5   3 133.868 5.48807   1
   3   5   3 146.588 7.31507   1
   3   5   3 136.760 5.09555   1
  -4  -5  -3 1.34247 1.33576   1
   4   5   3 1.95178 0.98482   1
   4   5   3 1.10835 1.15549   1
   4   5   3 0.97255 0.75319   1
   5   5  -1 294.871 12.0589  -2
  -5  -5  -3 294.871 12.0589   1
  -5  -5   1 297.357 12.7062  -2
   5   5   3 297.357 12.7062   1
   6   5  -1 399.714 15.0693  -2
  -6  -5  -3 399.714 15.0693   1
  -6  -5   1 379.976 15.4892  -2
   6   5   3 379.976 15.4892   1
   7   5  -1 230.936 11.6159  -2
  -7  -5  -3 230.936 11.6159   1
  -7  -5   1 253.392 12.7116  -2
   7   5   3 253.392 12.7116   1
   8   5  -1 264.022 13.0491  -2
  -8  -5  -3 264.022 13.0491   1
  -8  -5   1 279.440 14.1364  -2
   8   5   3 279.440 14.1364   1
   7  -6  -3 16.9883 3.81590   1
  -7   6   3 20.3599 4.31084   1
   6  -6  -3 107.644 7.64809   1
  -6   6   3 107.547 7.72077   1
   5  -6  -3 42.2582 4.24656   1
   5  -6  -3 51.1377 5.05594   1
  -5   6   3 42.8660 2.68254   1
  -5   6   3 47.3952 4.60824   1
  -5   6   3 38.6284 2.96601   1
   4  -6  -3 776.365 21.2440   1
   4  -6  -3 774.509 22.6712   1
  -4   6   3 740.671 18.2310   1
  -4   6   3 763.657 21.1706   1
  -4   6   3 755.336 20.8695   1
  -4   6   3 784.682 18.1879   1
   3  -6  -3 166.314 7.36785   1
   3  -6  -3 161.850 7.27392   1
   3  -6  -3 156.550 8.10462   1
   3  -6  -3 153.633 7.18893   1
  -3   6   3 159.173 6.66578   1
  -3   6   3 153.585 6.41032   1
  -3   6   3 162.313 7.09593   1
  -3   6   3 161.180 7.48412   1
   2  -6  -3 915.369 24.5144   1
   2  -6  -3 915.351 21.9830   1
   2  -6  -3 929.426 22.9592   1
   2  -6  -3 918.143 21.9594   1
  -2   6   3 904.522 21.2861   1
  -2   6   3 929.290 21.4093   1
  -2   6   3 934.196 23.5680   1
  -2   6   3 930.655 21.3637   1
   1  -6  -3 522.853 15.5933   1
   1  -6  -3 515.402 13.7285   1
   1  -6  -3 489.508 13.6171   1
   1  -6  -3 505.185 13.7040   1
  -1   6   3 513.626 12.3883   1
  -1   6   3 505.327 15.0467   1
  -1   6   3 513.500 13.6146   1
  -1   6   3 498.467 13.5522   1
   0  -6  -3 217.023 7.41032   1
   0  -6  -3 253.921 10.1482   1
   0  -6  -3 229.298 6.74013   1
   0  -6  -3 237.693 7.81527   1
   0   6   3 231.809 7.99118   1
   0   6   3 237.817 9.36361   1
   0   6   3 237.573 8.00809   1
   0   6   3 239.738 6.15897   1
   0   6   3 234.817 9.04551   1
   1   6  -1 2410.88 46.4646  -2
  -1  -6  -3 2410.88 46.4646   1
   1   6  -1 2587.39 46.8965  -2
  -1  -6  -3 2587.39 46.8965   1
  -1  -6   1 2470.00 51.9077  -2
   1   6   3 2470.00 51.9077   1
   2   6  -1 167.104 5.24583  -2
  -2  -6  -3 167.104 5.24583   1
   2   6  -1 185.983 5.76846  -2
  -2  -6  -3 185.983 5.76846   1
  -2  -6   1 154.113 6.80603  -2
   2   6   3 154.113 6.80603   1
  -2  -6   1 160.814 5.64862  -2
   2   6   3 160.814 5.64862   1
  -2  -6   1 153.104 7.90966  -2
   2   6   3 153.104 7.90966   1
  -3  -6   1 934.868 22.5757  -2
   3   6   3 934.868 22.5757   1
  -3  -6   1 938.307 25.3566  -2
   3   6   3 938.307 25.3566   1
  -4  -6   1 216.007 7.66544  -2
   4   6   3 216.007 7.66544   1
  -4  -6   1 217.502 10.2791  -2
   4   6   3 217.502 10.2791   1
  -5  -6   1 51.1516 5.72936  -2
   5   6   3 51.1516 5.72936   1
  -5  -6   1 54.4971 3.59435  -2
   5   6   3 54.4971 3.59435   1
  -6  -6   1 414.749 16.6050  -2
   6   6   3 414.749 16.6050   1
  -7  -6  -3 45.9028 5.27372   1
  -7  -6   1 77.5162 8.20084  -2
   7   6   3 77.5162 8.20084   1
   8   6   3 166.825 10.9460   1
   7  -7  -3 14.2979 3.81263   1
   7  -7  -3 16.5682 3.97133   1
  -7   7   3 10.3258 3.49926   1
  -6   7  -1 46.3883 5.86911  -2
   6  -7  -3 46.3883 5.86911   1
  -6   7   3 43.9758 5.10495   1
  -6   7   3 39.6376 2.82525   1
   5  -7  -3 179.869 10.0154   1
   5  -7  -3 169.779 8.76816   1
  -5   7   3 175.961 6.58803   1
  -5   7   3 175.251 7.10821   1
  -5   7   3 179.309 9.19777   1
  -4   7  -1 68.3429 5.46826  -2
   4  -7  -3 68.3429 5.46826   1
  -4   7   3 22.0157 3.22647   1
  -4   7   3 15.9232 2.32360   1
  -4   7   3 17.3932 2.95117   1
  -4   7   3 20.6169 2.70043   1
  -3   7  -1 904.796 22.6972  -2
   3  -7  -3 904.796 22.6972   1
  -3   7  -1 932.560 23.9713  -2
   3  -7  -3 932.560 23.9713   1
  -3   7  -1 872.246 25.3455  -2
   3  -7  -3 872.246 25.3455   1
  -3   7  -1 911.496 22.7435  -2
   3  -7  -3 911.496 22.7435   1
   3  -7   1 893.278 21.7827  -2
  -3   7   3 893.278 21.7827   1
   3  -7   1 901.992 21.9180  -2
  -3   7   3 901.992 21.9180   1
   3  -7   1 893.995 24.4979  -2
  -3   7   3 893.995 24.4979   1
   3  -7   1 912.375 22.3051  -2
  -3   7   3 912.375 22.3051   1
  -2   7  -1 66.6554 4.52088  -2
   2  -7  -3 66.6554 4.52088   1
  -2   7  -1 67.2181 4.76567  -2
   2  -7  -3 67.2181 4.76567   1
  -2   7  -1 72.5000 4.89079  -2
   2  -7  -3 72.5000 4.89079   1
   2  -7   1 73.0212 5.03431  -2
  -2   7   3 73.0212 5.03431   1
   2  -7   1 81.4856 4.96838  -2
  -2   7   3 81.4856 4.96838   1
   2  -7   1 74.5214 5.49499  -2
  -2   7   3 74.5214 5.49499   1
   2  -7   1 79.3028 4.33265  -2
  -2   7   3 79.3028 4.33265   1
  -1   7  -1 250.472 8.62583  -2
   1  -7  -3 250.472 8.62583   1
  -1   7  -1 242.216 8.77125  -2
   1  -7  -3 242.216 8.77125   1
  -1   7  -1 246.348 8.88981  -2
   1  -7  -3 246.348 8.88981   1
   1  -7   1 265.767 10.6632  -2
  -1   7   3 265.767 10.6632   1
   1  -7   1 270.372 9.33842  -2
  -1   7   3 270.372 9.33842   1
   1  -7   1 263.376 9.23184  -2
  -1   7   3 263.376 9.23184   1
   0   7  -1 119.885 5.33741  -2
   0  -7  -3 119.885 5.33741   1
   0   7  -1 121.354 5.56974  -2
   0  -7  -3 121.354 5.56974   1
   0   7  -1 122.203 5.99578  -2
   0  -7  -3 122.203 5.99578   1
   0  -7   1 132.714 6.25822  -2
   0   7   3 132.714 6.25822   1
   0  -7   1 127.058 6.16032  -2
   0   7   3 127.058 6.16032   1
   0  -7   1 122.012 7.12524  -2
   0   7   3 122.012 7.12524   1
   1   7  -1 696.834 15.6733  -2
  -1  -7  -3 696.834 15.6733   1
   1   7  -1 687.971 16.7798  -2
  -1  -7  -3 687.971 16.7798   1
   1   7  -1 667.397 15.0116  -2
  -1  -7  -3 667.397 15.0116   1
  -1  -7   1 689.140 20.2181  -2
   1   7   3 689.140 20.2181   1
  -1  -7   1 689.899 18.0316  -2
   1   7   3 689.899 18.0316   1
  -2  -7   1 586.792 15.5549  -2
   2   7   3 586.792 15.5549   1
   3   7   3 100.931 5.42198   1
   3   7   3 94.5643 6.62478   1
   4   7   3 63.0321 4.21673   1
   4   7   3 75.6436 6.14346   1
   5   7   3 116.866 8.05139   1
   6   7   3 59.3099 6.23593   1
   7   7   3 374.199 16.4877   1
  -6   8  -1 312.258 15.1239  -2
   6  -8  -3 312.258 15.1239   1
  -6   8  -1 285.471 12.9655  -2
   6  -8  -3 285.471 12.9655   1
   6  -8   1 345.359 14.3014  -2
  -6   8   3 345.359 14.3014   1
   6  -8   1 317.778 9.96109  -2
  -6   8   3 317.778 9.96109   1
  -5   8  -1 605.034 19.6252  -2
   5  -8  -3 605.034 19.6252   1
   5  -8   1 606.740 19.1178  -2
  -5   8   3 606.740 19.1178   1
   5  -8   1 603.768 15.7753  -2
  -5   8   3 603.768 15.7753   1
   5  -8   1 579.253 16.2320  -2
  -5   8   3 579.253 16.2320   1
  -4   8  -1 402.721 14.2814  -2
   4  -8  -3 402.721 14.2814   1
  -4   8  -1 399.299 14.4192  -2
   4  -8  -3 399.299 14.4192   1
   4  -8   1 397.299 15.2658  -2
  -4   8   3 397.299 15.2658   1
   4  -8   1 397.070 12.6223  -2
  -4   8   3 397.070 12.6223   1
   4  -8   1 380.815 12.7224  -2
  -4   8   3 380.815 12.7224   1
  -3   8  -1 1240.23 30.5873  -2
   3  -8  -3 1240.23 30.5873   1
  -3   8  -1 1176.52 29.1453  -2
   3  -8  -3 1176.52 29.1453   1
  -3   8  -1 1176.44 28.9236  -2
   3  -8  -3 1176.44 28.9236   1
   3  -8   1 1204.33 31.5313  -2
  -3   8   3 1204.33 31.5313   1
   3  -8   1 1228.45 28.2966  -2
  -3   8   3 1228.45 28.2966   1
   3  -8   1 1181.28 28.0282  -2
  -3   8   3 1181.28 28.0282   1
   2  -8  -3 49.0707 4.26755   1
   2  -8  -3 60.8722 4.70198   1
   2  -8  -3 48.3465 3.99163   1
  -2   8   3 52.5484 4.95505   1
  -2   8   3 53.3061 4.27857   1
  -2   8   3 53.7988 4.22758   1
   1  -8  -3 46.0713 3.96050   1
   1  -8  -3 38.1796 3.48637   1
   1  -8  -3 45.4768 4.08994   1
  -1   8   3 45.3689 4.52024   1
  -1   8   3 40.7784 3.77695   1
  -1   8   3 42.3492 3.77078   1
   0  -8  -3 64.1563 4.56880   1
   0  -8  -3 68.1757 4.04825   1
   0  -8  -3 66.3600 4.21913   1
   0   8   3 64.9358 5.34448   1
   0   8   3 70.7057 4.63072   1
  -1  -8  -3 0.16000 0.76526   1
  -1  -8  -3 0.24606 0.83910   1
  -1  -8  -3 -0.4825 0.51198   1
   1   8   3 -0.0264 1.19443   1
  -2  -8  -3 372.686 10.2966   1
   2   8   3 372.689 11.4367   1
   2   8   3 371.653 14.2189   1
   3   8   3 15.4741 3.24795   1
   4   8   3 118.528 8.00270   1
   5   8   3 48.0732 5.47004   1
   6   8   3 378.047 16.5212   1
  -7  -8   0 84.5287 9.05917  -2
   7   8   3 84.5287 9.05917   1
   5  -9  -3 55.1434 5.54075   1
  -5   9   3 48.9328 4.38537   1
  -5   9   3 55.3866 4.21197   1
   4  -9  -3 95.8715 6.69326   1
   4  -9  -3 101.840 7.01825   1
  -4   9   3 95.0529 7.47832   1
  -4   9   3 102.063 6.08794   1
  -4   9   3 103.083 6.44989   1
   3  -9  -3 1.40558 1.20435   1
   3  -9  -3 0.04120 1.45390   1
   3  -9  -3 0.37185 1.16696   1
  -3   9   3 0.46807 1.41604   1
  -3   9   3 -0.1677 1.45548   1
  -3   9   3 1.58924 1.21536   1
   2  -9  -3 48.2355 4.19986   1
   2  -9  -3 49.9429 4.49964   1
   2  -9  -3 56.6338 5.04170   1
   2  -9  -3 47.5375 4.57360   1
  -2   9   3 56.8550 4.80179   1
  -2   9   3 51.5802 4.56291   1
  -2   9   3 59.3984 5.53108   1
   1  -9  -3 44.0964 4.34316   1
   1  -9  -3 45.8909 4.16647   1
   1  -9  -3 43.7779 3.91006   1
  -1   9   3 51.7998 4.58239   1
  -1   9   3 43.6333 4.80824   1
  -1   9   3 41.7880 4.12210   1
   0  -9  -3 36.1604 3.38248   1
   0  -9  -3 29.9556 2.96790   1
   0  -9  -3 40.1605 3.85474   1
   0   9   3 43.1776 4.80237   1
  -1  -9  -3 834.507 20.8146   1
  -1  -9  -3 825.410 18.1484   1
  -1  -9  -3 839.886 19.1762   1
   1   9   3 841.661 24.9604   1
   2   9   0 60.3015 4.09906  -2
  -2  -9  -3 60.3015 4.09906   1
   2   9   3 45.2109 5.19438   1
   2   9   3 58.6031 4.13141   1
  -3  -9   0 29.1014 3.43959  -2
   3   9   3 29.1014 3.43959   1
  -3  -9   0 28.1532 5.07709  -2
   3   9   3 28.1532 5.07709   1
  -4  -9   0 682.337 22.9661  -2
   4   9   3 682.337 22.9661   1
  -5  -9   0 557.719 20.9103  -2
   5   9   3 557.719 20.9103   1
  -6  -9   0 269.838 14.6075  -2
   6   9   3 269.838 14.6075   1
   4 -10  -3 2.07441 2.01104   1
   4 -10  -3 4.72199 2.22318   1
  -4  10   3 1.20605 1.99663   1
  -4  10   3 2.49371 1.84107   1
  -4  10   3 1.40859 1.84206   1
   3 -10  -3 29.1830 3.94310   1
   3 -10  -3 23.1753 3.96441   1
  -3  10   3 31.1364 4.56216   1
  -3  10   3 35.5680 4.20705   1
  -3  10   3 29.5192 3.88179   1
  -2  10   0 568.787 17.5563  -2
   2 -10  -3 568.787 17.5563   1
  -2  10   0 582.542 18.5461  -2
   2 -10  -3 582.542 18.5461   1
  -2  10   0 541.285 17.1712  -2
   2 -10  -3 541.285 17.1712   1
   2 -10   0 567.198 20.7947  -2
  -2  10   3 567.198 20.7947   1
   2 -10   0 608.156 18.3709  -2
  -2  10   3 608.156 18.3709   1
   2 -10   0 612.901 18.4713  -2
  -2  10   3 612.901 18.4713   1
  -1  10   0 105.073 6.99825  -2
   1 -10  -3 105.073 6.99825   1
  -1  10   0 94.4104 6.14621  -2
   1 -10  -3 94.4104 6.14621   1
  -1  10   0 104.178 6.50605  -2
   1 -10  -3 104.178 6.50605   1
   1 -10   0 95.2223 8.04471  -2
  -1  10   3 95.2223 8.04471   1
   1 -10   0 110.939 7.32240  -2
  -1  10   3 110.939 7.32240   1
   0  10   0 1096.98 25.9812  -2
   0 -10  -3 1096.98 25.9812   1
   0  10   0 1089.36 25.4805  -2
   0 -10  -3 1089.36 25.4805   1
   0  10   0 1138.69 27.7624  -2
   0 -10  -3 1138.69 27.7624   1
   0 -10   0 1160.11 32.4826  -2
   0  10   3 1160.11 32.4826   1
   1  10   0 16.6210 2.59457  -2
  -1 -10  -3 16.6210 2.59457   1
   1  10   0 20.6834 2.30835  -2
  -1 -10  -3 20.6834 2.30835   1
  -1 -10   0 11.2966 3.43329  -2
   1  10   3 11.2966 3.43329   1
   2  10   0 219.750 8.14894  -2
  -2 -10  -3 219.750 8.14894   1
  -2 -10   0 228.843 12.3354  -2
   2  10   3 228.843 12.3354   1
  -3 -10   0 50.0874 7.06383  -2
   3  10   3 50.0874 7.06383   1
   4  10   3 33.1492 5.29907   1
   5  10   3 29.4631 5.27552   1
  -3  11   0 56.3943 5.72724  -2
   3 -11  -3 56.3943 5.72724   1
  -3  11   0 54.3393 5.85210  -2
   3 -11  -3 54.3393 5.85210   1
   3 -11   0 55.3408 6.51551  -2
  -3  11   3 55.3408 6.51551   1
   3 -11   0 58.3172 5.82294  -2
  -3  11   3 58.3172 5.82294   1
   3 -11   0 58.6353 5.76557  -2
  -3  11   3 58.6353 5.76557   1
  -2  11   0 210.198 10.4387  -2
   2 -11  -3 210.198 10.4387   1
  -2  11   0 198.293 9.99671  -2
   2 -11  -3 198.293 9.99671   1
  -2  11   0 201.611 10.7093  -2
   2 -11  -3 201.611 10.7093   1
   2 -11   0 205.294 12.0787  -2
  -2  11   3 205.294 12.0787   1
   2 -11   0 227.130 10.8227  -2
  -2  11   3 227.130 10.8227   1
   2 -11   0 223.047 10.8259  -2
  -2  11   3 223.047 10.8259   1
  -1  11   0 648.629 19.1568  -2
   1 -11  -3 648.629 19.1568   1
  -1  11   0 648.463 20.2648  -2
   1 -11  -3 648.463 20.2648   1
  -1  11   0 629.181 18.5070  -2
   1 -11  -3 629.181 18.5070   1
   1 -11   0 674.531 23.9054  -2
  -1  11   3 674.531 23.9054   1
   0  11   0 280.107 10.0159  -2
   0 -11  -3 280.107 10.0159   1
   0  11   0 270.715 11.6730  -2
   0 -11  -3 270.715 11.6730   1
   0  11   3 259.360 13.3501   1
  -1 -11  -3 16.7008 2.21003   1
  -1 -11  -3 16.4344 2.92028   1
   1  11   3 16.4822 3.73300   1
  -2 -11  -3 72.1585 4.62316   1
   2  11   3 58.2528 6.36815   1
   3  11   3 185.766 11.7493   1
   4  11   3 20.6853 4.94296   1
   1 -12  -3 30.4236 4.28881   1
   1 -12  -3 27.2652 3.56768   1
   1 -12  -3 32.1921 4.75287   1
  -1  12   3 23.0956 4.76371   1
   0 -12  -3 2.15488 1.61662   1
   0 -12  -3 3.14202 2.28960   1
   0 -12  -3 1.64734 1.23660   1
   0  12   3 -1.5059 1.57407   1
  -1 -12  -3 0.63363 1.47184   1
  -1 -12  -3 1.86265 1.23812   1
   1  12   3 1.34626 2.23409   1
   2  12   3 146.132 10.5979   1
   1  11  -4 219.245 13.3657   1
  -1 -11   4 229.540 11.1317   1
  -1 -11   4 227.468 9.39878   1
  -1 -11   4 231.761 8.21804   1
   0  11  -4 13.7057 4.46344   1
   0 -11   4 13.6663 3.36736   1
   0 -11   4 18.8575 3.98207   1
   0 -11   4 15.8566 2.83931   1
   1 -11  -7 293.481 13.6813  -2
  -1  11  -4 293.481 13.6813   1
   1 -11  -7 297.902 16.9758  -2
  -1  11  -4 297.902 16.9758   1
  -1  11   7 271.036 12.3330  -2
   1 -11   4 271.036 12.3330   1
  -1  11   7 277.733 13.4431  -2
   1 -11   4 277.733 13.4431   1
  -1  11   7 277.929 12.7535  -2
   1 -11   4 277.929 12.7535   1
   4  10  -4 3.62379 2.60754   1
  -3 -10  -7 276.787 14.1661  -2
   3  10  -4 276.787 14.1661   1
  -3 -10  -7 281.579 14.6059  -2
   3  10  -4 281.579 14.6059   1
  -2 -10  -7 64.3661 7.54620  -2
   2  10  -4 64.3661 7.54620   1
  -2 -10  -7 61.6117 7.14051  -2
   2  10  -4 61.6117 7.14051   1
   2  10   7 59.3040 3.71037  -2
  -2 -10   4 59.3040 3.71037   1
   2  10   7 66.5518 5.68472  -2
  -2 -10   4 66.5518 5.68472   1
  -1 -10  -7 523.744 19.9969  -2
   1  10  -4 523.744 19.9969   1
  -1 -10  -7 506.329 20.0039  -2
   1  10  -4 506.329 20.0039   1
   1  10   7 506.250 15.4673  -2
  -1 -10   4 506.250 15.4673   1
   1  10   7 472.313 14.0146  -2
  -1 -10   4 472.313 14.0146   1
   1  10   7 508.493 17.0794  -2
  -1 -10   4 508.493 17.0794   1
   0 -10  -7 230.587 13.1473  -2
   0  10  -4 230.587 13.1473   1
   0  10   7 191.522 10.0468  -2
   0 -10   4 191.522 10.0468   1
   0  10   7 206.223 9.75656  -2
   0 -10   4 206.223 9.75656   1
   0  10   7 207.194 9.28388  -2
   0 -10   4 207.194 9.28388   1
   1 -10  -7 463.911 16.6393  -2
  -1  10  -4 463.911 16.6393   1
   1 -10  -7 434.161 19.4467  -2
  -1  10  -4 434.161 19.4467   1
  -1  10   7 461.950 16.0160  -2
   1 -10   4 461.950 16.0160   1
  -1  10   7 464.267 16.0325  -2
   1 -10   4 464.267 16.0325   1
  -1  10   7 458.172 16.7179  -2
   1 -10   4 458.172 16.7179   1
   2 -10  -7 62.3621 6.61109  -2
  -2  10  -4 62.3621 6.61109   1
   2 -10  -7 62.2283 9.07087  -2
  -2  10  -4 62.2283 9.07087   1
   2 -10  -7 76.6995 7.28594  -2
  -2  10  -4 76.6995 7.28594   1
  -2  10   7 82.0503 7.02347  -2
   2 -10   4 82.0503 7.02347   1
  -2  10   7 84.6496 7.23081  -2
   2 -10   4 84.6496 7.23081   1
  -2  10   7 74.3064 6.65507  -2
   2 -10   4 74.3064 6.65507   1
  -3  10  -4 232.279 14.5306   1
  -3  10  -4 265.979 11.9512   1
  -3  10  -4 254.828 11.6605   1
   3 -10   4 275.229 12.6222   1
   3 -10   4 273.047 12.5519   1
  -5  -9  -7 519.711 19.4151  -2
   5   9  -4 519.711 19.4151   1
  -4  -9  -7 287.147 13.7107  -2
   4   9  -4 287.147 13.7107   1
  -3  -9  -7 429.149 17.2953  -2
   3   9  -4 429.149 17.2953   1
  -3  -9  -7 432.264 17.2241  -2
   3   9  -4 432.264 17.2241   1
   2   9  -4 18.3276 3.91797   1
   2   9  -4 12.5924 3.44827   1
   2   9   7 21.3478 3.91745  -2
  -2  -9   4 21.3478 3.91745   1
   2   9   7 25.7425 2.90955  -2
  -2  -9   4 25.7425 2.90955   1
   1   9  -4 1.93533 2.21890   1
   1   9  -4 2.39060 1.66904   1
  -1  -9   4 2.17069 1.31689   1
  -1  -9   4 0.29885 0.88208   1
  -1  -9   4 1.58746 1.58352   1
   0   9  -4 905.892 27.7444   1
   0  -9   4 885.264 23.0424   1
   0  -9   4 883.330 23.2490   1
   0  -9   4 885.141 24.5198   1
  -1   9  -4 152.960 8.25724   1
  -1   9  -4 150.323 8.31347   1
  -1   9  -4 153.926 10.1189   1
   1  -9   4 143.905 7.99304   1
   1  -9   4 157.201 8.40383   1
   1  -9   4 156.633 8.88006   1
  -2   9  -4 913.276 24.3571   1
  -2   9  -4 883.396 28.7602   1
  -2   9  -4 882.224 24.2252   1
   2  -9   4 896.205 24.7347   1
   2  -9   4 908.631 24.6966   1
   2  -9   4 891.167 25.6568   1
  -3   9  -4 150.648 10.6559   1
  -3   9  -4 142.588 8.04948   1
  -3   9  -4 145.775 8.32915   1
   3  -9   4 153.231 8.66924   1
   3  -9   4 154.274 8.83687   1
   3  -9   4 151.412 8.87886   1
  -4   9  -4 376.984 13.6148   1
  -4   9  -4 379.202 14.0845   1
  -4   9  -4 385.369 18.4883   1
   4  -9   4 408.916 15.7661   1
   6   8  -4 17.0759 3.75916   1
   5   8  -4 1.25443 1.73200   1
   4   8  -4 346.668 14.2778   1
   3   8  -4 222.982 11.0153   1
   3   8  -4 220.686 10.6163   1
   2   8  -4 113.584 7.57985   1
   2   8  -4 108.381 7.43173   1
  -2  -8   4 104.106 4.76737   1
  -2  -8   4 101.375 6.13132   1
   1   8  -4 494.056 17.6611   1
   1   8  -4 481.767 17.3338   1
  -1  -8   4 496.540 14.0284   1
  -1  -8   4 503.925 14.5866   1
  -1  -8   4 500.489 15.8073   1
   0   8  -4 182.464 10.1912   1
   0   8  -4 196.929 8.81975   1
   0   8  -4 194.521 10.1753   1
   0  -8   4 190.065 8.49901   1
   0  -8   4 188.696 9.04830   1
   0  -8   4 195.836 8.56027   1
  -1   8  -4 81.7365 5.70217   1
  -1   8  -4 74.3352 5.55135   1
  -1   8  -4 81.6328 7.00257   1
   1  -8   4 85.4096 6.17437   1
   1  -8   4 84.1850 5.76989   1
   1  -8   4 75.6682 5.42943   1
  -2   8  -4 552.277 17.0099   1
  -2   8  -4 559.417 20.5462   1
  -2   8  -4 578.247 17.1965   1
   2  -8   4 573.551 17.7011   1
   2  -8   4 580.736 18.4573   1
   2  -8   4 565.164 17.7961   1
   2  -8   4 573.384 17.5667   1
   3  -8  -6 682.505 24.2258  -2
  -3   8  -4 682.505 24.2258   1
   3  -8  -6 693.287 19.6945  -2
  -3   8  -4 693.287 19.6945   1
   3  -8  -6 674.948 19.6755  -2
  -3   8  -4 674.948 19.6755   1
  -3   8   6 722.704 20.9645  -2
   3  -8   4 722.704 20.9645   1
  -3   8   6 708.333 20.8094  -2
   3  -8   4 708.333 20.8094   1
  -3   8   6 705.726 21.3293  -2
   3  -8   4 705.726 21.3293   1
   4  -8  -6 621.561 18.2905  -2
  -4   8  -4 621.561 18.2905   1
   4  -8  -6 603.557 17.6574  -2
  -4   8  -4 603.557 17.6574   1
   4  -8  -6 617.616 23.4163  -2
  -4   8  -4 617.616 23.4163   1
  -4   8   6 606.600 19.8534  -2
   4  -8   4 606.600 19.8534   1
  -4   8   6 666.256 21.4933  -2
   4  -8   4 666.256 21.4933   1
   5  -8  -6 437.400 13.1307  -2
  -5   8  -4 437.400 13.1307   1
   5  -8  -6 451.061 14.2449  -2
  -5   8  -4 451.061 14.2449   1
   5  -8  -6 421.944 19.5534  -2
  -5   8  -4 421.944 19.5534   1
  -5   8   6 454.415 17.9236  -2
   5  -8   4 454.415 17.9236   1
  -5   8   6 474.765 16.9191  -2
   5  -8   4 474.765 16.9191   1
   6   7  -4 205.019 10.4331   1
   5   7  -4 42.0013 4.63728   1
   4   7  -4 427.496 15.5416   1
   3   7  -4 130.241 7.35840   1
   3   7  -4 113.696 7.28315   1
   2   7  -4 1598.89 38.9885   1
   2   7  -4 1577.05 38.0297   1
   2   7   6 2220.31 43.7098  -2
  -2  -7   4 2220.31 43.7098   1
   2   7   6 2274.96 47.0247  -2
  -2  -7   4 2274.96 47.0247   1
  -1  -7  -6 1590.49 38.9949  -2
   1   7  -4 1590.49 38.9949   1
  -1  -7  -6 1531.65 38.1173  -2
   1   7  -4 1531.65 38.1173   1
   1   7   6 1547.69 33.7530  -2
  -1  -7   4 1547.69 33.7530   1
   1   7   6 1531.22 33.4007  -2
  -1  -7   4 1531.22 33.4007   1
   1   7   6 1607.08 35.3109  -2
  -1  -7   4 1607.08 35.3109   1
   0  -7  -6 1594.60 35.2483  -2
   0   7  -4 1594.60 35.2483   1
   0  -7  -6 1631.54 39.9771  -2
   0   7  -4 1631.54 39.9771   1
   0  -7  -6 1588.78 34.9018  -2
   0   7  -4 1588.78 34.9018   1
   0  -7  -6 1600.24 39.5531  -2
   0   7  -4 1600.24 39.5531   1
   0   7   6 1590.84 36.1180  -2
   0  -7   4 1590.84 36.1180   1
   0   7   6 1640.07 35.4337  -2
   0  -7   4 1640.07 35.4337   1
   0   7   6 1580.23 34.9654  -2
   0  -7   4 1580.23 34.9654   1
   1  -7  -6 27.0382 3.31641  -2
  -1   7  -4 27.0382 3.31641   1
   1  -7  -6 32.1125 4.28860  -2
  -1   7  -4 32.1125 4.28860   1
   1  -7  -6 33.1590 3.60919  -2
  -1   7  -4 33.1590 3.60919   1
  -1   7   6 29.0522 3.16079  -2
   1  -7   4 29.0522 3.16079   1
  -1   7   6 27.8842 3.48741  -2
   1  -7   4 27.8842 3.48741   1
  -1   7   6 21.9835 3.02542  -2
   1  -7   4 21.9835 3.02542   1
  -1   7   6 36.2835 3.97746  -2
   1  -7   4 36.2835 3.97746   1
  -1   7   6 24.0188 3.01880  -2
   1  -7   4 24.0188 3.01880   1
   2  -7  -6 135.402 7.22008  -2
  -2   7  -4 135.402 7.22008   1
   2  -7  -6 137.844 7.33126  -2
  -2   7  -4 137.844 7.33126   1
   2  -7  -6 121.890 8.62176  -2
  -2   7  -4 121.890 8.62176   1
  -2   7   6 140.790 7.45151  -2
   2  -7   4 140.790 7.45151   1
  -2   7   6 132.947 7.35773  -2
   2  -7   4 132.947 7.35773   1
  -2   7   6 140.447 7.77783  -2
   2  -7   4 140.447 7.77783   1
  -2   7   6 139.557 7.27557  -2
   2  -7   4 139.557 7.27557   1
  -2   7   6 141.465 8.07258  -2
   2  -7   4 141.465 8.07258   1
   3  -7  -6 35.1619 4.11714  -2
  -3   7  -4 35.1619 4.11714   1
   3  -7  -6 42.1676 5.98776  -2
  -3   7  -4 42.1676 5.98776   1
   3  -7  -6 41.6210 4.67225  -2
  -3   7  -4 41.6210 4.67225   1
  -3   7   6 36.0385 4.51394  -2
   3  -7   4 36.0385 4.51394   1
  -3   7   6 28.6119 4.54460  -2
   3  -7   4 28.6119 4.54460   1
  -3   7   6 43.1320 4.98228  -2
   3  -7   4 43.1320 4.98228   1
  -3   7   6 33.3386 4.27193  -2
   3  -7   4 33.3386 4.27193   1
   4  -7  -6 52.5578 7.16304  -2
  -4   7  -4 52.5578 7.16304   1
   4  -7  -6 53.7125 4.74835  -2
  -4   7  -4 53.7125 4.74835   1
   4  -7   4 53.3435 5.74821   1
   4  -7   4 47.8802 5.11537   1
   4  -7   4 45.3140 4.60085   1
   5  -7  -6 172.317 7.82892  -2
  -5   7  -4 172.317 7.82892   1
   5  -7   4 148.053 8.49917   1
   5  -7   4 146.033 9.54207   1
   5  -7   4 145.449 9.28034   1
  -6   7  -4 109.809 9.81095   1
   6  -7   4 124.749 9.17538   1
   6  -7   4 124.142 9.14570   1
   6  -7   4 123.660 8.15767   1
   7   6  -4 298.955 12.9745   1
  -6  -6  -6 404.680 15.1806  -2
   6   6  -4 404.680 15.1806   1
  -5  -6  -6 626.842 19.5429  -2
   5   6  -4 626.842 19.5429   1
  -4  -6  -6 277.143 11.3042  -2
   4   6  -4 277.143 11.3042   1
  -3  -6  -6 762.954 22.1231  -2
   3   6  -4 762.954 22.1231   1
  -3  -6  -6 763.130 21.1123  -2
   3   6  -4 763.130 21.1123   1
   3   6   6 799.027 19.9705  -2
  -3  -6   4 799.027 19.9705   1
  -2  -6  -6 1268.39 32.1486  -2
   2   6  -4 1268.39 32.1486   1
  -2  -6  -6 1258.35 31.0421  -2
   2   6  -4 1258.35 31.0421   1
   2   6   6 1216.18 25.1147  -2
  -2  -6   4 1216.18 25.1147   1
   2   6   6 1277.67 26.4839  -2
  -2  -6   4 1277.67 26.4839   1
   2   6   6 1277.20 29.3970  -2
  -2  -6   4 1277.20 29.3970   1
   2   6   6 1347.41 29.1854  -2
  -2  -6   4 1347.41 29.1854   1
   1   6  -4 658.929 19.2441   1
   1   6  -4 676.521 19.7915   1
   1   6  -4 671.483 17.2004   1
   1   6   6 1389.16 29.4295  -2
  -1  -6   4 1389.16 29.4295   1
   1   6   6 1336.67 29.4789  -2
  -1  -6   4 1336.67 29.4789   1
   1   6   6 1322.80 30.3843  -2
  -1  -6   4 1322.80 30.3843   1
   1   6   6 1301.45 31.1398  -2
  -1  -6   4 1301.45 31.1398   1
   0   6  -4 22.0292 2.70728   1
   0   6  -4 18.0977 2.97899   1
   0   6  -4 20.8453 2.74971   1
   0   6  -4 20.3481 3.22667   1
   0   6   6 33.3931 4.14208  -2
   0  -6   4 33.3931 4.14208   1
  -1   6  -4 287.387 10.0689   1
  -1   6  -4 301.950 11.8465   1
  -1   6  -4 283.719 11.8836   1
  -1   6  -4 276.482 9.91435   1
   1  -6   4 294.392 10.4102   1
   1  -6   4 296.071 10.4319   1
   1  -6   4 295.666 11.1922   1
   1  -6   4 297.677 10.4234   1
   1  -6   4 283.589 10.7442   1
  -2   6  -4 98.2801 7.05996   1
  -2   6  -4 106.134 5.74062   1
  -2   6  -4 92.8961 5.45840   1
   2  -6   4 95.6663 5.72954   1
   2  -6   4 92.4070 5.67884   1
   2  -6   4 105.062 6.58045   1
   2  -6   4 98.3757 6.02333   1
   2  -6   4 96.5445 5.82520   1
   2  -6   4 101.782 6.75953   1
  -3   6  -4 529.776 15.2418   1
  -3   6  -4 527.122 19.0279   1
  -3   6  -4 519.215 14.9643   1
   3  -6   4 551.340 18.3925   1
   3  -6   4 558.279 16.3035   1
   3  -6   4 538.547 16.6823   1
   3  -6   4 552.932 17.5761   1
   3  -6   4 540.148 16.1541   1
  -4   6  -4 -0.5823 0.85827   1
  -4   6  -4 2.66454 2.07660   1
  -4   6  -4 0.85614 1.10058   1
   4  -6   4 2.00442 1.38957   1
   4  -6   4 1.00711 1.49106   1
   4  -6   4 2.82633 1.52910   1
  -5   6  -4 85.9126 4.76695   1
  -5   6  -4 75.5567 7.55831   1
   5  -6   4 83.0864 6.83533   1
   5  -6   4 78.5993 5.83303   1
   5  -6   4 87.6954 6.97764   1
  -6   6  -4 103.876 9.36171   1
   6  -6   4 122.800 8.88476   1
   6  -6   4 114.494 7.24096   1
   6  -6   4 120.727 8.52705   1
  -7   6  -4 692.043 28.5021   1
   7  -6   4 692.242 25.2094   1
   7  -6   4 726.066 22.2295   1
   7  -6   4 720.857 24.6667   1
  -7  -5  -6 799.916 23.5162  -2
   7   5  -4 799.916 23.5162   1
  -6  -5  -6 1393.90 34.9833  -2
   6   5  -4 1393.90 34.9833   1
  -5  -5  -6 70.6150 6.00791  -2
   5   5  -4 70.6150 6.00791   1
   5   5   6 69.6545 5.26896  -2
  -5  -5   4 69.6545 5.26896   1
   4   5  -4 63.1931 4.84275   1
  -4  -5   4 69.2830 4.74565   1
   3   5  -4 85.9267 5.44698   1
   3   5  -4 88.9415 5.09119   1
  -3  -5   4 91.3033 5.16046   1
   2   5  -4 34.9450 3.62175   1
   2   5  -4 36.8472 3.43201   1
   2   5   6 217.419 7.30397  -2
  -2  -5   4 217.419 7.30397   1
   1   5  -4 354.144 11.7432   1
   1   5  -4 342.849 12.1486   1
   1   5  -4 347.185 10.3954   1
   1   5  -4 344.155 10.3931   1
  -1  -5   4 346.127 10.2857   1
  -1  -5   4 339.182 11.3402   1
  -1  -5   4 344.296 11.1572   1
  -1  -5   4 341.582 10.5474   1
   0   5  -4 95.4003 5.05099   1
   0   5  -4 104.672 6.14475   1
   0   5  -4 100.281 6.05462   1
   0   5  -4 108.196 5.26226   1
   0  -5   4 104.173 5.30202   1
   0  -5   4 106.337 6.08068   1
   0  -5   4 90.9844 5.27342   1
   0  -5   4 102.450 6.29788   1
   0  -5   4 103.064 4.98301   1
   0  -5   4 104.449 5.36910   1
  -1   5  -4 265.519 9.08296   1
  -1   5  -4 268.770 9.18036   1
  -1   5  -4 285.753 11.1623   1
  -1   5  -4 271.659 10.6939   1
   1  -5   4 274.468 9.91179   1
   1  -5   4 275.047 10.8913   1
   1  -5   4 267.290 10.3597   1
   1  -5   4 275.893 9.56865   1
   1  -5   4 258.162 9.31389   1
   1  -5   4 268.846 9.63950   1
  -2   5  -4 451.219 12.9937   1
  -2   5  -4 448.510 13.0303   1
  -2   5  -4 435.994 15.6407   1
   2  -5   4 468.436 14.8140   1
   2  -5   4 453.516 15.2673   1
   2  -5   4 462.379 13.9974   1
   2  -5   4 461.268 14.1246   1
   2  -5   4 454.216 13.5519   1
   2  -5   4 458.504 13.6072   1
  -3   5  -4 1204.34 26.3834   1
  -3   5  -4 1205.34 26.4426   1
  -3   5  -4 1163.78 31.5131   1
   3  -5   4 1160.33 29.6122   1
   3  -5   4 1196.74 27.5310   1
   3  -5   4 1170.77 30.5500   1
   3  -5   4 1172.62 27.5651   1
   3  -5   4 1148.54 28.7337   1
   4  -5  -5 756.620 23.9631  -2
  -4   5  -4 756.620 23.9631   1
   4  -5  -5 736.261 18.1257  -2
  -4   5  -4 736.261 18.1257   1
   4  -5  -5 759.130 17.5671  -2
  -4   5  -4 759.130 17.5671   1
   4  -5   4 224.334 10.4254   1
   4  -5   4 207.881 8.97854   1
   4  -5   4 224.889 10.3967   1
   5  -5  -5 192.426 11.3590  -2
  -5   5  -4 192.426 11.3590   1
   5  -5  -5 182.595 6.26688  -2
  -5   5  -4 182.595 6.26688   1
  -5   5   5 177.706 9.80092  -2
   5  -5   4 177.706 9.80092   1
  -5   5   5 176.599 10.0768  -2
   5  -5   4 176.599 10.0768   1
  -5   5   5 182.885 8.42549  -2
   5  -5   4 182.885 8.42549   1
   6  -5  -5 463.928 19.2993  -2
  -6   5  -4 463.928 19.2993   1
  -6   5   5 456.368 15.1005  -2
   6  -5   4 456.368 15.1005   1
  -6   5   5 464.009 17.9866  -2
   6  -5   4 464.009 17.9866   1
  -6   5   5 459.812 17.2793  -2
   6  -5   4 459.812 17.2793   1
   7  -5  -5 38.7266 5.64680  -2
  -7   5  -4 38.7266 5.64680   1
  -7   5   5 51.3223 6.24699  -2
   7  -5   4 51.3223 6.24699   1
  -7   5   5 52.1151 5.69304  -2
   7  -5   4 52.1151 5.69304   1
  -7   5   5 51.9391 4.79770  -2
   7  -5   4 51.9391 4.79770   1
   8   4  -4 202.880 10.0997   1
  -8  -4   4 219.902 11.5231   1
   7   4  -4 510.966 17.4056   1
  -7  -4   4 548.535 18.2260   1
   6   4  -4 19.5826 3.41608   1
  -6  -4   4 37.8454 4.10073   1
   5   4  -4 455.172 14.9566   1
  -5  -4   4 468.126 14.7474   1
   4   4  -4 63.3433 4.66267   1
  -4  -4   4 68.0656 4.67515   1
   3   4  -4 320.507 9.96641   1
   3   4  -4 317.454 11.2639   1
  -3  -4   4 337.453 10.9014   1
   2   4  -4 34.8095 2.82428   1
   2   4  -4 39.3847 3.39189   1
   2   4  -4 41.2902 3.13387   1
  -2  -4   4 34.3513 3.16536   1
  -2  -4   4 39.7356 2.10033   1
  -2  -4   4 34.6612 2.87124   1
  -2  -4   4 38.3580 1.95259   1
  -2  -4   4 37.7503 2.45197   1
   1   4  -4 644.940 17.0498   1
   1   4  -4 631.834 15.5411   1
   1   4  -4 625.094 17.8466   1
   1   4  -4 644.151 15.5670   1
  -1  -4   4 636.986 17.2921   1
  -1  -4   4 649.609 15.8260   1
  -1  -4   4 650.874 16.5051   1
  -1  -4   4 655.593 18.1362   1
  -1  -4   4 664.579 15.7120   1
   0   4  -4 75.9751 4.13832   1
   0   4  -4 82.5364 4.33288   1
   0   4  -4 79.8955 4.87170   1
   0   4   5 279.128 10.6445  -2
   0  -4   4 279.128 10.6445   1
   0   4   5 281.851 9.25406  -2
   0  -4   4 281.851 9.25406   1
   1  -4  -5 2963.78 62.5496  -2
  -1   4  -4 2963.78 62.5496   1
   1  -4  -5 2822.90 56.0613  -2
  -1   4  -4 2822.90 56.0613   1
   1  -4  -5 2940.09 56.6432  -2
  -1   4  -4 2940.09 56.6432   1
   1  -4  -5 2974.01 61.9750  -2
  -1   4  -4 2974.01 61.9750   1
  -1   4   5 2899.61 57.1305  -2
   1  -4   4 2899.61 57.1305   1
  -1   4   5 2783.18 57.3756  -2
   1  -4   4 2783.18 57.3756   1
  -1   4   5 2923.11 61.3284  -2
   1  -4   4 2923.11 61.3284   1
  -1   4   5 3026.45 62.9523  -2
   1  -4   4 3026.45 62.9523   1
  -1   4   5 2943.68 60.5111  -2
   1  -4   4 2943.68 60.5111   1
  -1   4   5 2956.46 56.7193  -2
   1  -4   4 2956.46 56.7193   1
   2  -4  -5 3001.82 57.5818  -2
  -2   4  -4 3001.82 57.5818   1
   2  -4  -5 2903.78 57.0138  -2
  -2   4  -4 2903.78 57.0138   1
   2  -4  -5 2942.95 63.6658  -2
  -2   4  -4 2942.95 63.6658   1
  -2   4   5 2937.06 62.2162  -2
   2  -4   4 2937.06 62.2162   1
  -2   4   5 3051.88 61.6069  -2
   2  -4   4 3051.88 61.6069   1
  -2   4   5 2937.52 58.4422  -2
   2  -4   4 2937.52 58.4422   1
  -2   4   5 2967.44 58.0451  -2
   2  -4   4 2967.44 58.0451   1
  -2   4   5 2970.78 57.5275  -2
   2  -4   4 2970.78 57.5275   1
  -2   4   5 2968.15 63.7777  -2
   2  -4   4 2968.15 63.7777   1
   3  -4  -5 367.486 10.8665  -2
  -3   4  -4 367.486 10.8665   1
   3  -4  -5 383.950 14.2830  -2
  -3   4  -4 383.950 14.2830   1
   3  -4  -5 370.034 10.6524  -2
  -3   4  -4 370.034 10.6524   1
  -3   4   5 371.724 11.7897  -2
   3  -4   4 371.724 11.7897   1
  -3   4   5 382.065 13.2828  -2
   3  -4   4 382.065 13.2828   1
  -3   4   5 358.278 12.9650  -2
   3  -4   4 358.278 12.9650   1
  -3   4   5 375.928 11.4916  -2
   3  -4   4 375.928 11.4916   1
   4  -4  -5 183.530 9.98190  -2
  -4   4  -4 183.530 9.98190   1
   4  -4  -5 177.557 5.66810  -2
  -4   4  -4 177.557 5.66810   1
   4  -4  -5 176.108 6.44374  -2
  -4   4  -4 176.108 6.44374   1
  -4   4   5 172.679 8.90768  -2
   4  -4   4 172.679 8.90768   1
  -4   4   5 185.807 8.98709  -2
   4  -4   4 185.807 8.98709   1
  -4   4   5 163.901 7.30128  -2
   4  -4   4 163.901 7.30128   1
   5  -4  -5 381.716 16.0187  -2
  -5   4  -4 381.716 16.0187   1
  -5   4   5 355.837 13.6924  -2
   5  -4   4 355.837 13.6924   1
  -5   4   5 348.204 11.6479  -2
   5  -4   4 348.204 11.6479   1
  -6   4  -4 8.05326 3.08451   1
   6  -4   4 9.69026 2.71655   1
   6  -4   4 12.0976 3.41762   1
   6  -4   4 12.3571 2.40062   1
  -7   4  -4 5.16798 2.89130   1
   7  -4   4 9.09848 2.52052   1
   7  -4   4 3.61275 2.26021   1
   7  -4   4 3.32150 1.93832   1
   8   3  -4 86.7090 6.33738   1
  -8  -3   4 97.1875 7.74140   1
   7   3  -4 6.10682 2.28374   1
  -7  -3   4 10.5889 2.89935   1
   6   3  -4 5.78984 2.11250   1
  -6  -3   4 10.5398 2.61797   1
  -5  -3  -5 520.351 16.2887  -2
   5   3  -4 520.351 16.2887   1
  -5  -3   4 358.563 12.5141   1
  -4  -3  -5 2154.23 47.3704  -2
   4   3  -4 2154.23 47.3704   1
   4   3   5 2097.39 45.3549  -2
  -4  -3   4 2097.39 45.3549   1
  -3  -3  -5 2087.53 46.2147  -2
   3   3  -4 2087.53 46.2147   1
  -3  -3  -5 2089.02 42.7337  -2
   3   3  -4 2089.02 42.7337   1
   3   3   5 2140.63 44.5113  -2
  -3  -3   4 2140.63 44.5113   1
  -2  -3  -5 4090.93 77.0750  -2
   2   3  -4 4090.93 77.0750   1
  -2  -3  -5 4218.10 81.5804  -2
   2   3  -4 4218.10 81.5804   1
  -2  -3  -5 4113.05 76.6050  -2
   2   3  -4 4113.05 76.6050   1
  -2  -3  -5 4138.87 85.2955  -2
   2   3  -4 4138.87 85.2955   1
   2   3   5 4259.19 75.1801  -2
  -2  -3   4 4259.19 75.1801   1
   2   3   5 4083.95 78.0507  -2
  -2  -3   4 4083.95 78.0507   1
   2   3   5 4139.67 75.8516  -2
  -2  -3   4 4139.67 75.8516   1
   2   3   5 4100.95 81.5988  -2
  -2  -3   4 4100.95 81.5988   1
   2   3   5 4250.20 75.2614  -2
  -2  -3   4 4250.20 75.2614   1
   2   3   5 4172.10 75.7676  -2
  -2  -3   4 4172.10 75.7676   1
  -1  -3  -5 107.703 4.77351  -2
   1   3  -4 107.703 4.77351   1
  -1  -3  -5 104.450 4.73417  -2
   1   3  -4 104.450 4.73417   1
  -1  -3  -5 105.792 5.00956  -2
   1   3  -4 105.792 5.00956   1
  -1  -3  -5 99.2080 5.57752  -2
   1   3  -4 99.2080 5.57752   1
   1   3   5 109.087 5.75550  -2
  -1  -3   4 109.087 5.75550   1
   1   3   5 109.105 3.85173  -2
  -1  -3   4 109.105 3.85173   1
   1   3   5 103.756 4.73087  -2
  -1  -3   4 103.756 4.73087   1
   1   3   5 97.9018 5.59206  -2
  -1  -3   4 97.9018 5.59206   1
   1   3   5 108.720 4.96596  -2
  -1  -3   4 108.720 4.96596   1
   1   3   5 110.902 5.30919  -2
  -1  -3   4 110.902 5.30919   1
   0  -3  -5 1752.71 38.2665  -2
   0   3  -4 1752.71 38.2665   1
   0  -3  -5 1738.37 35.5016  -2
   0   3  -4 1738.37 35.5016   1
   0   3   5 1791.98 39.7697  -2
   0  -3   4 1791.98 39.7697   1
   0   3   5 1786.32 38.4508  -2
   0  -3   4 1786.32 38.4508   1
   0   3   5 1805.29 39.2986  -2
   0  -3   4 1805.29 39.2986   1
   0   3   5 1786.43 36.5489  -2
   0  -3   4 1786.43 36.5489   1
   0   3   5 1753.59 35.7836  -2
   0  -3   4 1753.59 35.7836   1
   0   3   5 1748.12 36.0451  -2
   0  -3   4 1748.12 36.0451   1
  -1   3  -4 660.857 17.9581   1
  -1   3  -4 680.243 18.1947   1
  -1   3  -4 674.650 15.9841   1
  -1   3  -4 672.938 15.9881   1
   1  -3   4 671.235 18.1252   1
   1  -3   4 678.328 16.3192   1
   1  -3   4 659.466 16.6306   1
   1  -3   4 678.106 18.2571   1
   1  -3   4 657.271 17.1338   1
   1  -3   4 657.012 16.1391   1
  -2   3  -4 1649.32 38.6014   1
  -2   3  -4 1685.74 34.1308   1
  -2   3  -4 1712.31 37.9851   1
  -2   3  -4 1652.84 34.0103   1
   2  -3   4 1688.67 35.1269   1
   2  -3   4 1654.06 36.8555   1
   2  -3   4 1678.62 34.7368   1
   2  -3   4 1686.46 34.5016   1
   2  -3   4 1704.59 38.3366   1
   2  -3   4 1677.70 37.3996   1
  -3   3  -4 2.19946 1.55628   1
  -3   3  -4 2.79597 1.04324   1
  -3   3  -4 1.80074 0.94387   1
   3  -3   4 3.76778 1.52343   1
   3  -3   4 5.20307 1.58272   1
   3  -3   4 4.62240 1.70154   1
   3  -3   4 5.75728 1.41110   1
   3  -3   4 3.99374 1.35141   1
  -4   3  -4 246.437 6.86307   1
  -4   3  -4 248.465 11.6154   1
   4  -3   4 246.548 8.30182   1
   4  -3   4 235.315 10.3131   1
   4  -3   4 236.222 9.77679   1
  -5   3  -4 24.9697 4.08372   1
   5  -3   4 20.8520 3.34062   1
   5  -3   4 27.0602 3.34561   1
   5  -3   4 24.8548 2.57697   1
  -6   3  -4 644.279 22.7346   1
   6  -3   4 618.271 20.6339   1
   6  -3   4 626.224 16.5402   1
   6  -3   4 590.011 18.8672   1
  -7   3  -4 111.015 9.16159   1
   7  -3   4 99.9613 6.88160   1
   7  -3   4 101.936 8.14276   1
  -8   3  -4 195.135 12.7023   1
   8  -3   4 184.775 10.0413   1
   8  -3   4 186.847 11.9201   1
  -8  -2  -5 99.6556 6.94743  -2
   8   2  -4 99.6556 6.94743   1
   8   2   5 116.026 8.52083  -2
  -8  -2   4 116.026 8.52083   1
  -7  -2  -5 187.294 8.96783  -2
   7   2  -4 187.294 8.96783   1
   7   2   5 193.206 10.0214  -2
  -7  -2   4 193.206 10.0214   1
  -6  -2  -5 74.0821 5.20290  -2
   6   2  -4 74.0821 5.20290   1
   6   2   5 80.5510 5.87501  -2
  -6  -2   4 80.5510 5.87501   1
  -5  -2  -5 383.266 13.3932  -2
   5   2  -4 383.266 13.3932   1
   5   2   5 430.556 13.9712  -2
  -5  -2   4 430.556 13.9712   1
  -4  -2  -5 1660.73 38.6820  -2
   4   2  -4 1660.73 38.6820   1
   4   2   5 1705.99 37.5575  -2
  -4  -2   4 1705.99 37.5575   1
   3   2  -4 1186.98 24.2931   1
   3   2  -4 1196.86 28.4336   1
  -3  -2   4 1167.08 27.3808   1
   2   2  -4 1348.06 27.0442   1
   2   2  -4 1325.16 26.9766   1
   2   2  -4 1324.74 30.7882   1
   2   2  -4 1270.13 27.3775   1
   2   2   5 2276.70 42.9986  -2
  -2  -2   4 2276.70 42.9986   1
   1   2  -4 922.469 20.0454   1
   1   2  -4 925.049 22.7414   1
   1   2  -4 910.938 19.9188   1
   1   2  -4 923.890 20.7225   1
   1   2   5 953.549 20.7091  -2
  -1  -2   4 953.549 20.7091   1
   0   2  -4 146.342 5.88807   1
   0   2  -4 137.189 5.32388   1
   0   2  -4 150.694 6.44036   1
   0   2  -4 134.485 5.27522   1
   0  -2   4 142.930 5.58764   1
   0  -2   4 144.468 6.64682   1
   0  -2   4 144.076 5.61275   1
   0  -2   4 133.920 6.16410   1
   0  -2   4 149.431 5.88947   1
   0  -2   4 140.545 5.53939   1
  -1   2  -4 17.3060 1.93207   1
  -1   2  -4 17.8505 2.38931   1
  -1   2  -4 15.3629 2.21404   1
  -1   2  -4 15.7797 1.87166   1
   1  -2   4 16.2014 1.88656   1
   1  -2   4 17.5305 1.97313   1
   1  -2   4 13.3214 2.11729   1
   1  -2   4 15.0008 1.75975   1
   1  -2   4 13.9880 1.80092   1
   1  -2   4 13.5740 2.03077   1
  -2   2  -4 238.459 8.61303   1
  -2   2  -4 224.276 7.38224   1
  -2   2  -4 223.497 7.26836   1
  -2   2  -4 234.948 9.37391   1
   2  -2   4 238.397 8.64211   1
   2  -2   4 237.888 7.84567   1
   2  -2   4 231.908 7.57905   1
   2  -2   4 227.119 7.49614   1
   2  -2   4 220.629 8.83549   1
   2  -2   4 237.806 7.54481   1
  -3   2  -4 1.38265 0.65462   1
  -3   2  -4 3.27771 1.40728   1
  -3   2  -4 1.03104 0.49156   1
  -3   2  -4 0.59867 0.68238   1
  -3   2  -4 0.39053 0.62879   1
   3  -2   4 -0.0823 0.57195   1
   3  -2   4 0.07174 0.61439   1
   3  -2   4 0.14373 0.69419   1
   3  -2   4 0.25124 0.63167   1
   3  -2   4 1.73008 0.97700   1
  -4   2  -4 251.653 11.4162   1
   4  -2   4 241.269 9.22822   1
   4  -2   4 243.790 7.47698   1
   4  -2   4 237.464 10.1087   1
   5  -2  -4 1297.16 33.6844  -2
  -5   2  -4 1297.16 33.6844   1
   5  -2   4 451.473 15.7111   1
   5  -2   4 443.740 14.2296   1
   6  -2  -4 320.989 14.4948  -2
  -6   2  -4 320.989 14.4948   1
   6  -2   4 254.322 10.3460   1
   6  -2   4 256.954 12.0382   1
   7  -2  -4 67.3202 6.77106  -2
  -7   2  -4 67.3202 6.77106   1
  -7   2   4 58.2703 6.41072  -2
   7  -2   4 58.2703 6.41072   1
  -7   2   4 59.5397 5.17986  -2
   7  -2   4 59.5397 5.17986   1
   8  -2  -4 200.412 11.9937  -2
  -8   2  -4 200.412 11.9937   1
  -8   2   4 222.841 13.0171  -2
   8  -2   4 222.841 13.0171   1
  -8   2   4 206.993 10.1592  -2
   8  -2   4 206.993 10.1592   1
  -8  -1  -5 1385.71 34.7385  -2
   8   1  -4 1385.71 34.7385   1
   8   1   5 1393.88 37.0365  -2
  -8  -1   4 1393.88 37.0365   1
  -7  -1  -5 161.361 8.47933  -2
   7   1  -4 161.361 8.47933   1
   7   1   5 160.204 9.33507  -2
  -7  -1   4 160.204 9.33507   1
   6   1  -4 681.176 20.0268   1
  -6  -1   4 723.318 21.1938   1
   5   1  -4 170.194 8.09017   1
  -5  -1   4 177.770 8.32348   1
   4   1  -4 1311.39 31.5919   1
  -4  -1   4 1300.11 30.3987   1
   3   1  -4 7.86363 1.87939   1
   3   1  -4 6.54845 1.21997   1
  -3  -1   4 5.87719 1.54316   1
   2   1  -4 85.2173 2.92345   1
   2   1  -4 81.5387 4.88466   1
   2   1  -4 80.2853 3.87576   1
   2   1  -4 84.2401 3.80011   1
  -2  -1   4 80.0563 4.63114   1
  -2  -1   4 81.8849 3.39269   1
  -2  -1   4 81.5040 3.22242   1
  -2  -1   4 83.6030 3.08247   1
  -2  -1   4 83.5641 3.16472   1
   1   1  -4 200.276 6.22699   1
   1   1  -4 208.234 6.64836   1
   1   1  -4 206.836 6.75830   1
   1   1  -4 213.423 8.13164   1
   1   1   4 245.477 7.42631  -2
  -1  -1   4 245.477 7.42631   1
   0   1  -4 3808.63 70.3358   1
   0   1  -4 3730.10 76.8006   1
   0   1  -4 3798.86 69.8440   1
   0   1  -4 3747.54 74.1058   1
   0  -1   4 3702.04 69.7171   1
   0  -1   4 3830.61 76.7709   1
   0  -1   4 3725.63 70.8645   1
   0  -1   4 3743.05 70.3514   1
   0  -1   4 3778.33 75.8075   1
   0  -1   4 3775.86 74.3298   1
  -1   1  -4 951.156 20.3517   1
  -1   1  -4 924.859 20.3033   1
  -1   1  -4 958.811 22.6877   1
  -1   1  -4 959.562 22.7537   1
   1  -1   4 931.570 20.5554   1
   1  -1   4 927.462 22.5141   1
   1  -1   4 917.703 20.2876   1
   1  -1   4 933.394 21.4821   1
   1  -1   4 938.115 20.1343   1
   2  -1  -4 2874.26 53.7970  -2
  -2   1  -4 2874.26 53.7970   1
   2  -1  -4 2836.01 53.8349  -2
  -2   1  -4 2836.01 53.8349   1
   2  -1  -4 3000.53 60.6930  -2
  -2   1  -4 3000.53 60.6930   1
   2  -1   4 1759.09 39.6727   1
   2  -1   4 1825.49 35.7760   1
   2  -1   4 1873.61 38.3439   1
   2  -1   4 1819.18 39.4832   1
   2  -1   4 1839.56 36.0322   1
   2  -1   4 1841.07 36.5625   1
   3  -1  -4 15.7084 2.75406  -2
  -3   1  -4 15.7084 2.75406   1
   3  -1  -4 12.2391 0.98983  -2
  -3   1  -4 12.2391 0.98983   1
   3  -1  -4 12.9460 1.04657  -2
  -3   1  -4 12.9460 1.04657   1
  -3   1   4 8.80217 1.21019  -2
   3  -1   4 8.80217 1.21019   1
  -3   1   4 10.6315 2.29801  -2
   3  -1   4 10.6315 2.29801   1
  -3   1   4 13.1869 2.22205  -2
   3  -1   4 13.1869 2.22205   1
  -3   1   4 16.1046 1.76006  -2
   3  -1   4 16.1046 1.76006   1
   4  -1  -4 1280.34 33.4781  -2
  -4   1  -4 1280.34 33.4781   1
  -4   1   4 1429.05 32.8448  -2
   4  -1   4 1429.05 32.8448   1
  -4   1   4 1426.70 31.8011  -2
   4  -1   4 1426.70 31.8011   1
   5  -1  -4 938.932 26.9441  -2
  -5   1  -4 938.932 26.9441   1
  -5   1   4 961.097 24.0041  -2
   5  -1   4 961.097 24.0041   1
  -5   1   4 1009.63 26.2133  -2
   5  -1   4 1009.63 26.2133   1
   6  -1  -4 803.912 24.4832  -2
  -6   1  -4 803.912 24.4832   1
  -6   1   4 837.119 24.3316  -2
   6  -1   4 837.119 24.3316   1
  -6   1   4 776.852 21.2680  -2
   6  -1   4 776.852 21.2680   1
   7  -1  -4 5.78876 3.53031  -2
  -7   1  -4 5.78876 3.53031   1
   7  -1   4 2.03445 1.92156   1
   7  -1   4 1.29980 1.16275   1
  -8   1  -4 160.023 10.8278   1
   8  -1   4 114.094 6.99135   1
   8  -1   4 117.291 9.28247   1
   8   0  -4 387.990 14.4865   1
  -8   0   4 408.324 16.7824   1
   7   0  -4 479.659 15.6412   1
  -7   0   4 444.356 16.8268   1
   6   0  -4 44.8787 4.08776   1
  -6   0   4 46.7121 4.74024   1
  -5   0  -4 308.684 11.3342  -2
   5   0  -4 308.684 11.3342   1
  -5   0   4 266.947 10.6651   1
   4   0  -4 120.374 6.52162   1
  -4   0   4 118.666 6.29658   1
  -3   0  -4 86.0275 4.93221  -2
   3   0  -4 86.0275 4.93221   1
  -3   0   4 18.7940 2.38685   1
  -3   0   4 20.3895 1.29956   1
  -3   0   4 17.9679 1.24300   1
  -2   0  -4 952.647 20.7064  -2
   2   0  -4 952.647 20.7064   1
  -2   0  -4 948.674 20.6426  -2
   2   0  -4 948.674 20.6426   1
  -2   0  -4 965.693 23.5620  -2
   2   0  -4 965.693 23.5620   1
   2   0   4 978.069 22.7883  -2
  -2   0   4 978.069 22.7883   1
   2   0   4 975.015 19.7322  -2
  -2   0   4 975.015 19.7322   1
  -1   0  -4 1684.74 34.1570  -2
   1   0  -4 1684.74 34.1570   1
  -1   0  -4 1686.95 37.9472  -2
   1   0  -4 1686.95 37.9472   1
  -1   0  -4 1716.25 34.4692  -2
   1   0  -4 1716.25 34.4692   1
  -1   0  -4 1665.92 33.9170  -2
   1   0  -4 1665.92 33.9170   1
   1   0   4 1720.54 33.8670  -2
  -1   0   4 1720.54 33.8670   1
   1   0   4 1758.18 35.8869  -2
  -1   0   4 1758.18 35.8869   1
   1   0   4 1764.28 34.1044  -2
  -1   0   4 1764.28 34.1044   1
   1   0   4 1779.69 37.9987  -2
  -1   0   4 1779.69 37.9987   1
   1   0   4 1765.60 37.0133  -2
  -1   0   4 1765.60 37.0133   1
   0   0  -4 47.1243 2.81286  -2
   0   0  -4 47.1243 2.81286   1
   0   0  -4 48.0509 3.40098  -2
   0   0  -4 48.0509 3.40098   1
   0   0  -4 44.4732 2.70782  -2
   0   0  -4 44.4732 2.70782   1
   0   0  -4 47.3109 2.79029  -2
   0   0  -4 47.3109 2.79029   1
   0   0   4 43.3031 3.41680  -2
   0   0   4 43.3031 3.41680   1
   0   0   4 44.6245 2.83930  -2
   0   0   4 44.6245 2.83930   1
   0   0   4 44.4434 2.92083  -2
   0   0   4 44.4434 2.92083   1
   0   0   4 46.2147 2.92353  -2
   0   0   4 46.2147 2.92353   1
   0   0   4 42.8554 2.79927  -2
   0   0   4 42.8554 2.79927   1
   0   0   4 50.4809 3.51743  -2
   0   0   4 50.4809 3.51743   1
   1   0  -4 1861.64 41.5442  -2
  -1   0  -4 1861.64 41.5442   1
   1   0  -4 1989.92 42.8971  -2
  -1   0  -4 1989.92 42.8971   1
   1   0  -4 1844.64 37.9263  -2
  -1   0  -4 1844.64 37.9263   1
  -1   0   4 2142.19 39.1240  -2
   1   0   4 2142.19 39.1240   1
  -1   0   4 2003.16 39.2825  -2
   1   0   4 2003.16 39.2825   1
  -1   0   4 2089.80 38.6887  -2
   1   0   4 2089.80 38.6887   1
  -1   0   4 2004.13 42.7119  -2
   1   0   4 2004.13 42.7119   1
  -1   0   4 1993.80 41.7902  -2
   1   0   4 1993.80 41.7902   1
  -1   0   4 2049.89 41.6229  -2
   1   0   4 2049.89 41.6229   1
   2   0  -4 1175.64 28.3307  -2
  -2   0  -4 1175.64 28.3307   1
   2   0  -4 1212.89 23.5852  -2
  -2   0  -4 1212.89 23.5852   1
   2   0  -4 1252.62 24.5751  -2
  -2   0  -4 1252.62 24.5751   1
   2   0   4 924.490 19.8182   1
   2   0   4 983.480 19.8385   1
   2   0   4 943.000 22.6024   1
   2   0   4 939.205 20.4719   1
   2   0   4 936.958 22.3654   1
   3   0  -4 135.599 7.18831  -2
  -3   0  -4 135.599 7.18831   1
  -3   0   4 145.256 6.36552  -2
   3   0   4 145.256 6.36552   1
  -4   0  -4 281.772 11.5362   1
   4   0   4 271.957 10.3431   1
   4   0   4 260.163 8.79193   1
  -5   0  -4 54.5599 5.22804   1
   5   0   4 59.0984 4.93485   1
   5   0   4 59.5156 3.87244   1
  -6   0  -4 10.3980 2.81324   1
   6   0   4 9.11699 1.85780   1
   6   0   4 11.0224 2.81758   1
  -7   0  -4 337.552 15.3187   1
   7   0   4 342.093 11.6043   1
   7   0   4 361.267 15.1353   1
  -8   0  -4 156.285 10.3774   1
   8   0   4 147.613 10.1520   1
   8   0   4 141.039 7.28296   1
   8  -1  -4 102.190 6.85730   1
  -8   1   4 93.5377 7.81171   1
  -7   1  -4 20.0254 4.06033  -2
   7  -1  -4 20.0254 4.06033   1
   7  -1   4 15.5753 4.21582  -2
  -7   1   4 15.5753 4.21582   1
  -6   1  -4 928.562 25.0292  -2
   6  -1  -4 928.562 25.0292   1
   6  -1   4 956.452 25.9378  -2
  -6   1   4 956.452 25.9378   1
  -5   1  -4 688.447 19.5178  -2
   5  -1  -4 688.447 19.5178   1
   5  -1   4 688.706 19.7180  -2
  -5   1   4 688.706 19.7180   1
  -4   1  -4 1177.95 29.1430  -2
   4  -1  -4 1177.95 29.1430   1
   4  -1   4 1246.77 28.9089  -2
  -4   1   4 1246.77 28.9089   1
  -3   1  -4 9.05780 1.77924  -2
   3  -1  -4 9.05780 1.77924   1
  -3   1  -4 9.68048 2.16306  -2
   3  -1  -4 9.68048 2.16306   1
  -3   1  -4 9.30247 1.89894  -2
   3  -1  -4 9.30247 1.89894   1
   3  -1   4 10.3267 1.13080  -2
  -3   1   4 10.3267 1.13080   1
   3  -1   4 8.94167 1.34465  -2
  -3   1   4 8.94167 1.34465   1
   3  -1   4 13.2964 1.50753  -2
  -3   1   4 13.2964 1.50753   1
   3  -1   4 10.3089 2.15085  -2
  -3   1   4 10.3089 2.15085   1
   3  -1   4 15.3673 1.36241  -2
  -3   1   4 15.3673 1.36241   1
  -2   1  -4 2919.71 56.4661  -2
   2  -1  -4 2919.71 56.4661   1
  -2   1  -4 2856.26 55.9835  -2
   2  -1  -4 2856.26 55.9835   1
  -2   1  -4 3054.90 62.2869  -2
   2  -1  -4 3054.90 62.2869   1
   2  -1   4 3010.45 59.2632  -2
  -2   1   4 3010.45 59.2632   1
  -1   1  -4 3144.21 61.1666  -2
   1  -1  -4 3144.21 61.1666   1
   1  -1   4 3252.03 65.5609  -2
  -1   1   4 3252.03 65.5609   1
   1  -1   4 3409.13 67.2505  -2
  -1   1   4 3409.13 67.2505   1
   0   1  -4 4869.99 88.4935  -2
   0  -1  -4 4869.99 88.4935   1
   0   1   4 2499.39 47.8983   1
   0   1   4 2615.81 52.0924   1
   0   1   4 2511.48 48.8250   1
   0   1   4 2485.87 48.2922   1
   0   1   4 2501.92 51.1952   1
   0   1   4 2616.86 53.0169   1
  -1  -1  -4 69.4713 3.12271   1
  -1  -1  -4 73.5297 4.07722   1
  -1  -1  -4 67.6458 4.00128   1
  -1  -1  -4 70.4814 3.15899   1
   1   1   4 65.5828 3.86779   1
   1   1   4 76.0686 3.49881   1
   1   1   4 74.1657 3.41629   1
   1   1   4 71.8256 3.30788   1
   1   1   4 74.7792 4.22499   1
   1   1   4 83.0471 3.83085   1
  -2  -1  -4 103.150 5.60211   1
  -2  -1  -4 113.417 3.83752   1
   2   1   4 101.405 5.03533   1
   2   1   4 99.2459 4.71596   1
  -3  -1  -4 226.162 9.48618   1
   3   1   4 243.196 8.19533   1
   3   1   4 228.066 8.52110   1
   3   1   4 226.152 7.63271   1
  -4  -1  -4 1.16595 1.27594   1
   4   1   4 0.44843 0.84520   1
   4   1   4 -0.3138 0.80339   1
   4   1   4 0.52870 0.67730   1
   5   1  -3 274.257 11.2619  -2
  -5  -1  -4 274.257 11.2619   1
   5   1   4 7.28181 2.14665   1
   5   1   4 2.55365 1.09556   1
   6   1  -3 66.1582 6.12685  -2
  -6  -1  -4 66.1582 6.12685   1
   6   1   4 30.6419 2.76176   1
   6   1   4 29.9184 3.94862   1
   7   1  -3 25.7811 4.74276  -2
  -7  -1  -4 25.7811 4.74276   1
   7   1   4 7.26137 1.81907   1
   7   1   4 6.81756 2.64544   1
   8   1  -3 265.722 13.4097  -2
  -8  -1  -4 265.722 13.4097   1
  -8  -1   3 219.305 8.81148  -2
   8   1   4 219.305 8.81148   1
  -8  -1   3 228.241 12.8358  -2
   8   1   4 228.241 12.8358   1
  -8   2  -4 146.364 8.83433  -2
   8  -2  -4 146.364 8.83433   1
   8  -2   4 142.294 9.50337  -2
  -8   2   4 142.294 9.50337   1
  -7   2  -4 67.9953 5.92207  -2
   7  -2  -4 67.9953 5.92207   1
   7  -2   4 57.3344 5.97999  -2
  -7   2   4 57.3344 5.97999   1
  -6   2  -4 285.909 11.8324  -2
   6  -2  -4 285.909 11.8324   1
   6  -2   4 263.617 11.6936  -2
  -6   2   4 263.617 11.6936   1
   5  -2  -4 1362.57 32.7834   1
  -5   2   4 1286.20 32.2069   1
   4  -2  -4 454.286 14.1367   1
  -4   2   4 427.766 13.7719   1
  -4   2   4 445.734 9.84412   1
  -4   2   4 444.856 9.59043   1
  -3   2  -4 165.857 6.87209  -2
   3  -2  -4 165.857 6.87209   1
  -3   2   4 172.258 5.40331   1
  -3   2   4 151.198 6.77038   1
  -3   2   4 162.865 5.24909   1
  -3   2   4 152.559 4.84494   1
   2  -2  -4 1.30335 1.03032   1
   2  -2  -4 2.60468 1.15825   1
  -2   2   4 1.86403 0.71625   1
  -2   2   4 2.25283 0.82777   1
  -2   2   4 1.00411 0.79784   1
  -2   2   4 3.31684 0.73919   1
  -2   2   4 2.82847 1.13448   1
   1  -2  -4 479.286 13.6860   1
   1  -2  -4 488.635 12.4903   1
   1  -2  -4 497.798 12.4799   1
  -1   2   4 505.041 13.6541   1
  -1   2   4 492.961 13.0710   1
  -1   2   4 475.964 12.0044   1
  -1   2   4 480.125 11.9211   1
  -1   2   4 492.969 11.6115   1
  -1   2   4 507.471 12.4613   1
   0  -2  -4 1709.89 35.3309   1
   0  -2  -4 1721.33 33.3353   1
   0  -2  -4 1722.69 36.8856   1
   0   2   4 1704.36 36.9223   1
   0   2   4 1693.27 35.4856   1
   0   2   4 1665.94 35.9819   1
   0   2   4 1746.97 33.5663   1
   0   2   4 1633.12 33.5911   1
  -1  -2  -4 1265.87 24.2225   1
  -1  -2  -4 1229.22 24.2136   1
  -1  -2  -4 1244.08 27.8013   1
   1   2   4 1251.20 25.7326   1
   1   2   4 1201.03 25.1302   1
   1   2   4 1230.82 26.5724   1
   1   2   4 1236.64 27.9379   1
   1   2   4 1229.93 25.2183   1
   1   2   4 1239.06 27.3471   1
  -2  -2  -4 52.3921 2.41465   1
  -2  -2  -4 54.5720 3.93858   1
   2   2   4 47.3851 3.20340   1
   2   2   4 48.0406 3.36993   1
   2   2   4 49.3499 3.17555   1
  -3  -2  -4 834.343 22.0528   1
  -3  -2   3 2586.52 53.7349  -2
   3   2   4 2586.52 53.7349   1
   4   2  -3 1128.66 28.2457  -2
  -4  -2  -4 1128.66 28.2457   1
  -4  -2   3 1118.06 25.5099  -2
   4   2   4 1118.06 25.5099   1
  -4  -2   3 1091.98 25.0620  -2
   4   2   4 1091.98 25.0620   1
   5   2  -3 246.487 10.8657  -2
  -5  -2  -4 246.487 10.8657   1
  -5  -2   3 254.347 8.16675  -2
   5   2   4 254.347 8.16675   1
  -5  -2   3 258.554 10.3730  -2
   5   2   4 258.554 10.3730   1
   6   2  -3 124.884 7.87714  -2
  -6  -2  -4 124.884 7.87714   1
  -6  -2   3 132.697 5.52826  -2
   6   2   4 132.697 5.52826   1
  -6  -2   3 127.525 7.59175  -2
   6   2   4 127.525 7.59175   1
   7   2  -3 -0.7592 2.73251  -2
  -7  -2  -4 -0.7592 2.73251   1
  -7  -2   3 2.62679 1.79322  -2
   7   2   4 2.62679 1.79322   1
  -7  -2   3 1.49163 3.03256  -2
   7   2   4 1.49163 3.03256   1
   8   2  -3 121.596 9.12397  -2
  -8  -2  -4 121.596 9.12397   1
  -8  -2   3 107.727 5.71362  -2
   8   2   4 107.727 5.71362   1
  -8  -2   3 134.721 9.61571  -2
   8   2   4 134.721 9.61571   1
   8  -3  -4 164.441 9.44129   1
  -8   3   4 165.148 10.7203   1
   7  -3  -4 95.7775 6.98901   1
  -7   3   4 87.7860 7.20894   1
   6  -3  -4 318.211 12.5515   1
  -6   3   4 302.109 12.8619   1
   5  -3  -4 250.366 10.5063   1
  -5   3   4 250.968 10.6483   1
   4  -3  -4 622.908 18.1963   1
  -4   3   4 606.854 17.4414   1
  -4   3   4 626.745 13.7475   1
   3  -3  -4 659.716 16.6924   1
   3  -3  -4 669.268 18.4838   1
  -3   3   4 652.564 14.9129   1
  -3   3   4 656.132 14.7088   1
  -3   3   4 627.527 17.1139   1
  -3   3   4 646.218 14.9619   1
   2  -3  -4 0.58909 0.88037   1
   2  -3  -4 1.71535 1.10582   1
  -2   3   4 -0.1424 0.63110   1
  -2   3   4 1.16794 0.68495   1
  -2   3   4 1.27975 0.93178   1
  -2   3   4 -0.2915 0.44066   1
  -2   3   4 -0.1394 0.60065   1
   1  -3  -4 315.773 10.5629   1
   1  -3  -4 334.379 9.52882   1
   1  -3   3 1772.56 38.8265  -2
  -1   3   4 1772.56 38.8265   1
   0   3  -3 58.5596 3.22009  -2
   0  -3  -4 58.5596 3.22009   1
   0   3  -3 49.5760 3.61830  -2
   0  -3  -4 49.5760 3.61830   1
   0   3  -3 56.4479 3.49261  -2
   0  -3  -4 56.4479 3.49261   1
   0   3  -3 52.3309 2.77636  -2
   0  -3  -4 52.3309 2.77636   1
   0   3  -3 50.6590 3.05649  -2
   0  -3  -4 50.6590 3.05649   1
   0  -3   3 55.3388 3.31641  -2
   0   3   4 55.3388 3.31641   1
   0  -3   3 53.3604 3.27102  -2
   0   3   4 53.3604 3.27102   1
   0  -3   3 49.6467 3.28094  -2
   0   3   4 49.6467 3.28094   1
   0  -3   3 55.0667 3.31091  -2
   0   3   4 55.0667 3.31091   1
   0  -3   3 57.1955 3.80086  -2
   0   3   4 57.1955 3.80086   1
   0  -3   3 50.0134 3.31747  -2
   0   3   4 50.0134 3.31747   1
   1   3  -3 523.794 11.9556  -2
  -1  -3  -4 523.794 11.9556   1
   1   3  -3 533.177 12.1882  -2
  -1  -3  -4 533.177 12.1882   1
   1   3  -3 568.709 11.9671  -2
  -1  -3  -4 568.709 11.9671   1
   1   3  -3 538.188 14.6546  -2
  -1  -3  -4 538.188 14.6546   1
  -1  -3   3 569.492 14.5161  -2
   1   3   4 569.492 14.5161   1
  -1  -3   3 524.732 13.0933  -2
   1   3   4 524.732 13.0933   1
  -1  -3   3 586.708 13.8944  -2
   1   3   4 586.708 13.8944   1
  -1  -3   3 571.515 13.3695  -2
   1   3   4 571.515 13.3695   1
  -1  -3   3 541.459 14.6444  -2
   1   3   4 541.459 14.6444   1
   2   3  -3 161.103 7.08836  -2
  -2  -3  -4 161.103 7.08836   1
  -2  -3   3 165.228 6.29214  -2
   2   3   4 165.228 6.29214   1
  -2  -3   3 172.287 6.62809  -2
   2   3   4 172.287 6.62809   1
  -2  -3   3 173.563 6.55317  -2
   2   3   4 173.563 6.55317   1
   3   3  -3 459.375 14.3201  -2
  -3  -3  -4 459.375 14.3201   1
  -3  -3   3 454.789 12.2299  -2
   3   3   4 454.789 12.2299   1
  -3  -3   3 442.492 12.5964  -2
   3   3   4 442.492 12.5964   1
  -3  -3   3 439.997 12.5987  -2
   3   3   4 439.997 12.5987   1
   4   3  -3 589.320 17.6818  -2
  -4  -3  -4 589.320 17.6818   1
  -4  -3   3 552.463 14.9430  -2
   4   3   4 552.463 14.9430   1
  -5  -3  -4 24.7151 3.40706   1
  -5  -3   3 76.3868 4.49800  -2
   5   3   4 76.3868 4.49800   1
  -6  -3  -4 55.8688 5.38398   1
   6   3   4 50.0999 4.75164   1
  -7  -3  -4 -1.5172 1.17424   1
   7   3   4 1.59136 1.81398   1
  -8  -3  -4 63.9035 6.67700   1
   8   3   4 62.6311 6.44433   1
   8  -4  -4 6.42868 2.41796   1
  -8   4   4 4.37082 2.73865   1
   7  -4  -4 433.152 16.3736   1
  -7   4   4 428.446 16.9206   1
   6  -4  -4 189.278 9.59566   1
  -6   4   4 172.994 9.52680   1
  -5   4  -3 1085.48 28.4841  -2
   5  -4  -4 1085.48 28.4841   1
   5  -4   3 1071.32 27.2985  -2
  -5   4   4 1071.32 27.2985   1
   5  -4   3 1005.09 20.7373  -2
  -5   4   4 1005.09 20.7373   1
  -4   4  -3 26.6937 3.77233  -2
   4  -4  -4 26.6937 3.77233   1
   4  -4   3 20.9630 2.05126  -2
  -4   4   4 20.9630 2.05126   1
   4  -4   3 29.6860 2.48735  -2
  -4   4   4 29.6860 2.48735   1
   4  -4   3 20.9686 3.20760  -2
  -4   4   4 20.9686 3.20760   1
  -3   4  -3 773.201 18.8316  -2
   3  -4  -4 773.201 18.8316   1
  -3   4  -3 740.443 18.7440  -2
   3  -4  -4 740.443 18.7440   1
  -3   4  -3 781.528 21.2131  -2
   3  -4  -4 781.528 21.2131   1
   3  -4   3 760.358 17.5732  -2
  -3   4   4 760.358 17.5732   1
   3  -4   3 758.263 18.2310  -2
  -3   4   4 758.263 18.2310   1
   3  -4   3 776.451 17.4916  -2
  -3   4   4 776.451 17.4916   1
   3  -4   3 767.495 19.5027  -2
  -3   4   4 767.495 19.5027   1
  -2   4  -3 125.122 5.74862  -2
   2  -4  -4 125.122 5.74862   1
  -2   4  -3 128.094 5.78870  -2
   2  -4  -4 128.094 5.78870   1
  -2   4  -3 132.604 6.67935  -2
   2  -4  -4 132.604 6.67935   1
   2  -4   3 127.570 5.44472  -2
  -2   4   4 127.570 5.44472   1
   2  -4   3 133.510 5.54639  -2
  -2   4   4 133.510 5.54639   1
   2  -4   3 131.124 5.77352  -2
  -2   4   4 131.124 5.77352   1
   2  -4   3 143.754 6.64654  -2
  -2   4   4 143.754 6.64654   1
   2  -4   3 140.175 5.59478  -2
  -2   4   4 140.175 5.59478   1
  -1   4  -3 1657.82 36.6163  -2
   1  -4  -4 1657.82 36.6163   1
  -1   4  -3 1611.73 34.8730  -2
   1  -4  -4 1611.73 34.8730   1
  -1   4  -3 1571.78 32.7807  -2
   1  -4  -4 1571.78 32.7807   1
  -1   4  -3 1598.20 32.5982  -2
   1  -4  -4 1598.20 32.5982   1
   1  -4   3 1521.81 33.2328  -2
  -1   4   4 1521.81 33.2328   1
   1  -4   3 1608.64 32.7116  -2
  -1   4   4 1608.64 32.7116   1
   1  -4   3 1621.38 33.0193  -2
  -1   4   4 1621.38 33.0193   1
   1  -4   3 1651.73 36.5349  -2
  -1   4   4 1651.73 36.5349   1
   1  -4   3 1594.50 34.4461  -2
  -1   4   4 1594.50 34.4461   1
   0  -4  -4 183.784 6.31276   1
   0  -4  -4 187.663 7.36448   1
   0  -4  -4 187.473 5.86914   1
   0  -4  -4 190.186 6.37288   1
   0  -4   3 480.289 12.5002  -2
   0   4   4 480.289 12.5002   1
   0  -4   3 500.556 14.2288  -2
   0   4   4 500.556 14.2288   1
  -1  -4  -4 55.2172 2.93025   1
  -1  -4  -4 54.1486 2.68292   1
  -1  -4  -4 54.9897 2.50901   1
  -1  -4  -4 52.8174 2.65898   1
  -1  -4  -4 46.8475 3.61693   1
  -1  -4   3 222.478 7.40483  -2
   1   4   4 222.478 7.40483   1
  -2  -4  -4 73.5664 4.79972   1
   2   4   4 75.5038 4.20945   1
   2   4   4 73.5612 3.91024   1
   2   4   4 74.2888 4.15845   1
   2   4   4 71.7974 4.75691   1
  -3  -4  -4 688.868 19.2508   1
   3   4   4 674.641 16.9593   1
   3   4   4 680.582 16.9596   1
   3   4   4 662.895 16.6474   1
   3   4   4 665.239 19.2845   1
  -4  -4  -4 250.455 10.7594   1
   4   4   4 241.114 8.09447   1
   4   4   4 261.077 9.11649   1
  -5  -4  -4 377.046 14.3605   1
   5   4   4 365.911 10.6240   1
   5   4   4 367.626 12.4808   1
  -6  -4  -4 77.5240 6.54891   1
   6   4   4 87.2443 6.00469   1
  -7  -4  -4 158.289 9.86465   1
   7   4   4 162.236 9.03220   1
  -8  -4  -4 6.30552 2.81860   1
  -7   5  -3 221.164 11.6996  -2
   7  -5  -4 221.164 11.6996   1
   7  -5   3 237.891 12.0634  -2
  -7   5   4 237.891 12.0634   1
  -6   5  -3 18.5927 4.03212  -2
   6  -5  -4 18.5927 4.03212   1
   6  -5   3 18.1567 3.83370  -2
  -6   5   4 18.1567 3.83370   1
  -5   5  -3 62.5672 6.04227  -2
   5  -5  -4 62.5672 6.04227   1
   5  -5   3 71.5995 3.74180  -2
  -5   5   4 71.5995 3.74180   1
   5  -5   3 61.2568 5.49146  -2
  -5   5   4 61.2568 5.49146   1
   5  -5   3 66.1317 2.86808  -2
  -5   5   4 66.1317 2.86808   1
   4  -5  -4 13.9482 2.79768   1
   4  -5   3 26.8611 2.64941  -2
  -4   5   4 26.8611 2.64941   1
   4  -5   3 29.1180 2.89870  -2
  -4   5   4 29.1180 2.89870   1
   3  -5  -4 10.8663 2.38897   1
   3  -5  -4 12.9823 2.26075   1
   3  -5  -4 7.85021 1.94344   1
  -3   5   4 11.4873 2.19917   1
  -3   5   4 11.0915 1.79793   1
  -3   5   4 9.25065 1.78683   1
  -3   5   4 9.24724 1.70699   1
   2  -5  -4 175.875 7.19277   1
   2  -5  -4 167.015 7.12115   1
   2  -5  -4 181.199 8.13330   1
   2  -5  -4 164.631 7.03034   1
  -2   5   4 174.032 7.10132   1
  -2   5   4 166.869 6.67246   1
  -2   5   4 189.084 8.00284   1
  -2   5   4 172.318 6.75932   1
  -2   5   4 169.896 6.61268   1
   1  -5  -4 48.3494 3.31753   1
   1  -5  -4 50.0496 3.50619   1
   1  -5  -4 53.3662 4.06932   1
   1  -5  -4 49.0909 3.39909   1
  -1   5   4 56.7208 3.90550   1
  -1   5   4 51.1007 3.12680   1
  -1   5   4 51.7563 3.52433   1
  -1   5   4 52.9724 3.99289   1
  -1   5   4 54.5199 3.54640   1
   0  -5  -4 267.609 8.11046   1
   0  -5  -4 262.620 9.48286   1
   0  -5  -4 262.551 7.45038   1
   0  -5  -4 262.154 8.17793   1
   0   5   4 261.082 9.58347   1
   0   5   4 266.044 8.56029   1
   0   5   4 276.644 8.66830   1
   0   5   4 261.962 7.57062   1
   0   5   4 272.684 8.78631   1
   0   5   4 265.022 9.38123   1
  -1  -5  -4 120.289 4.44862   1
  -1  -5  -4 123.151 4.51657   1
  -1  -5  -4 121.338 4.15704   1
   1   5   4 115.683 6.11956   1
   1   5   4 115.947 5.05981   1
   1   5   4 123.847 5.14568   1
   1   5   4 121.684 4.54762   1
   1   5   4 123.415 5.22700   1
   1   5   4 126.208 5.93642   1
   2   5   4 689.349 16.2932   1
   2   5   4 708.068 18.0245   1
   2   5   4 700.696 19.3563   1
   2   5   4 667.187 15.8405   1
  -3  -5  -4 14.6721 2.53512   1
   3   5   4 17.8644 2.17352   1
   3   5   4 13.1750 2.59616   1
   3   5   4 16.0098 1.96923   1
  -4  -5  -4 40.4506 4.20128   1
   4   5   4 44.8487 3.19186   1
   4   5   4 58.3861 3.77900   1
   4   5   4 49.7767 4.75926   1
   5   5  -2 379.167 14.7206  -2
  -5  -5  -4 379.167 14.7206   1
  -5  -5   2 382.070 11.1407  -2
   5   5   4 382.070 11.1407   1
  -5  -5   2 411.315 15.7776  -2
   5   5   4 411.315 15.7776   1
   6   5  -2 577.148 19.8293  -2
  -6  -5  -4 577.148 19.8293   1
  -6  -5   2 562.618 14.4492  -2
   6   5   4 562.618 14.4492   1
   7   5  -2 424.614 16.9739  -2
  -7  -5  -4 424.614 16.9739   1
  -7  -5   2 412.500 17.4603  -2
   7   5   4 412.500 17.4603   1
   8   5  -2 42.8984 5.50859  -2
  -8  -5  -4 42.8984 5.50859   1
  -8  -5   2 43.8686 6.39031  -2
   8   5   4 43.8686 6.39031   1
   7  -6  -4 197.994 11.4717   1
  -7   6   4 207.387 11.6809   1
   6  -6  -4 35.6764 4.84221   1
  -6   6   4 31.0527 4.40005   1
   5  -6  -4 23.9500 3.88901   1
  -5   6   4 23.2448 2.43418   1
  -5   6   4 22.1379 2.13815   1
  -5   6   4 26.1181 3.77757   1
   4  -6  -4 41.2712 4.48272   1
   4  -6  -4 33.1584 3.69224   1
  -4   6   4 31.3772 2.82937   1
  -4   6   4 40.4830 3.98058   1
  -4   6   4 36.1479 3.16356   1
   3  -6  -4 599.772 17.5380   1
   3  -6  -4 617.790 17.1716   1
   3  -6  -4 601.041 16.8596   1
   3  -6  -4 607.291 19.0399   1
  -3   6   4 598.672 15.8509   1
  -3   6   4 595.727 16.6343   1
  -3   6   4 595.524 15.7244   1
  -3   6   4 611.164 17.1755   1
   2  -6  -4 844.451 21.1252   1
   2  -6  -4 881.122 21.4068   1
   2  -6  -4 883.431 23.9013   1
   2  -6  -4 878.977 22.2216   1
  -2   6   4 862.318 20.7044   1
  -2   6   4 843.985 20.6414   1
  -2   6   4 869.891 22.3543   1
  -2   6   4 857.213 20.6883   1
   1  -6  -4 763.897 18.9557   1
   1  -6  -4 791.075 21.5612   1
   1  -6  -4 785.719 19.1823   1
   1  -6  -4 798.878 19.6570   1
  -1   6   4 803.110 21.4046   1
  -1   6   4 761.658 19.0202   1
  -1   6   4 814.076 20.9867   1
  -1   6   4 784.218 19.0676   1
  -1   6   4 779.962 18.0957   1
   0  -6  -4 133.386 5.51935   1
   0  -6  -4 125.462 5.52221   1
   0   6   4 130.267 5.91975   1
   0   6   4 146.229 6.96252   1
   0   6   4 135.347 4.71790   1
   0   6   4 138.270 5.99802   1
   0   6   4 128.600 5.85245   1
   0   6   4 133.385 6.67302   1
   1   6  -2 515.134 11.8135  -2
  -1  -6  -4 515.134 11.8135   1
   1   6  -2 506.066 12.1862  -2
  -1  -6  -4 506.066 12.1862   1
  -1  -6   2 528.422 14.4965  -2
   1   6   4 528.422 14.4965   1
   2   6  -2 935.786 19.0516  -2
  -2  -6  -4 935.786 19.0516   1
  -2  -6   2 880.863 21.0573  -2
   2   6   4 880.863 21.0573   1
  -2  -6   2 892.020 22.6872  -2
   2   6   4 892.020 22.6872   1
  -2  -6   2 866.493 24.1255  -2
   2   6   4 866.493 24.1255   1
  -3  -6   2 186.070 9.17249  -2
   3   6   4 186.070 9.17249   1
  -3  -6   2 179.320 7.42189  -2
   3   6   4 179.320 7.42189   1
   4   6  -2 313.068 12.6933  -2
  -4  -6  -4 313.068 12.6933   1
  -4  -6   2 290.123 9.86404  -2
   4   6   4 290.123 9.86404   1
  -4  -6   2 299.506 12.7281  -2
   4   6   4 299.506 12.7281   1
   5   6  -2 58.2045 5.78901  -2
  -5  -6  -4 58.2045 5.78901   1
  -5  -6   2 57.5638 4.03638  -2
   5   6   4 57.5638 4.03638   1
  -5  -6   2 54.3675 5.89661  -2
   5   6   4 54.3675 5.89661   1
   6   6  -2 -5.1070 3.30455  -2
  -6  -6  -4 -5.1070 3.30455   1
  -6  -6   2 4.76713 2.07748  -2
   6   6   4 4.76713 2.07748   1
  -6  -6   2 7.13521 4.42595  -2
   6   6   4 7.13521 4.42595   1
  -7  -6  -4 305.773 14.3237   1
   7   6   4 306.986 14.7252   1
  -6   7  -2 435.505 16.7283  -2
   6  -7  -4 435.505 16.7283   1
  -6   7   4 401.608 10.7902   1
  -6   7   4 401.647 15.9840   1
  -5   7  -2 106.080 7.31267  -2
   5  -7  -4 106.080 7.31267   1
  -5   7   4 75.0768 4.59298   1
  -5   7   4 81.8253 4.37288   1
  -5   7   4 84.4923 6.34153   1
  -4   7  -2 525.542 16.9097  -2
   4  -7  -4 525.542 16.9097   1
   4  -7   2 496.191 14.2877  -2
  -4   7   4 496.191 14.2877   1
  -3   7  -2 58.0124 5.81508  -2
   3  -7  -4 58.0124 5.81508   1
  -3   7  -2 65.1263 5.10637  -2
   3  -7  -4 65.1263 5.10637   1
  -3   7  -2 57.7510 5.32110  -2
   3  -7  -4 57.7510 5.32110   1
  -3   7  -2 58.6824 5.10081  -2
   3  -7  -4 58.6824 5.10081   1
   3  -7   2 61.6926 4.80482  -2
  -3   7   4 61.6926 4.80482   1
   3  -7   2 61.0978 5.05482  -2
  -3   7   4 61.0978 5.05482   1
   3  -7   2 53.6224 4.51333  -2
  -3   7   4 53.6224 4.51333   1
   3  -7   2 62.5964 4.82952  -2
  -3   7   4 62.5964 4.82952   1
  -2   7  -2 333.357 11.3520  -2
   2  -7  -4 333.357 11.3520   1
  -2   7  -2 321.895 11.0803  -2
   2  -7  -4 321.895 11.0803   1
  -2   7  -2 338.965 11.3370  -2
   2  -7  -4 338.965 11.3370   1
   2  -7   2 329.407 10.2568  -2
  -2   7   4 329.407 10.2568   1
   2  -7   2 328.296 11.1644  -2
  -2   7   4 328.296 11.1644   1
   2  -7   2 348.926 11.3334  -2
  -2   7   4 348.926 11.3334   1
   2  -7   2 303.819 11.9550  -2
  -2   7   4 303.819 11.9550   1
  -1   7  -2 37.4746 3.27469  -2
   1  -7  -4 37.4746 3.27469   1
  -1   7  -2 28.9844 3.04841  -2
   1  -7  -4 28.9844 3.04841   1
  -1   7  -2 32.3888 2.78272  -2
   1  -7  -4 32.3888 2.78272   1
   1  -7   2 35.4464 3.41142  -2
  -1   7   4 35.4464 3.41142   1
   1  -7   2 30.8421 3.48208  -2
  -1   7   4 30.8421 3.48208   1
   1  -7   2 32.2529 3.21976  -2
  -1   7   4 32.2529 3.21976   1
   0   7  -2 365.931 10.8430  -2
   0  -7  -4 365.931 10.8430   1
   0   7  -2 386.494 11.2882  -2
   0  -7  -4 386.494 11.2882   1
   0  -7   2 395.683 13.9727  -2
   0   7   4 395.683 13.9727   1
   0  -7   2 392.030 12.1980  -2
   0   7   4 392.030 12.1980   1
   0  -7   2 394.585 12.1636  -2
   0   7   4 394.585 12.1636   1
   1   7  -2 322.283 8.39742  -2
  -1  -7  -4 322.283 8.39742   1
   1   7  -2 298.629 9.72859  -2
  -1  -7  -4 298.629 9.72859   1
   1   7  -2 319.231 8.96760  -2
  -1  -7  -4 319.231 8.96760   1
  -1  -7   2 310.285 12.1365  -2
   1   7   4 310.285 12.1365   1
  -1  -7   2 309.453 10.4925  -2
   1   7   4 309.453 10.4925   1
  -1  -7   2 297.666 11.3731  -2
   1   7   4 297.666 11.3731   1
  -2  -7  -4 114.392 4.72195   1
  -2  -7   2 182.210 7.32131  -2
   2   7   4 182.210 7.32131   1
   3   7   4 620.143 17.5037   1
   3   7   4 641.436 20.1611   1
   4   7   4 295.195 13.0241   1
   4   7   4 283.379 10.0385   1
   5   7   4 303.709 13.7139   1
   5   7   4 304.724 10.2272   1
   6   7   4 34.4546 5.11485   1
   6   7   4 40.7641 3.26741   1
   7   7   4 49.4968 6.31226   1
  -6   8  -2 70.3342 6.18482  -2
   6  -8  -4 70.3342 6.18482   1
   6  -8   2 74.8122 6.77212  -2
  -6   8   4 74.8122 6.77212   1
   6  -8   2 80.9872 4.80459  -2
  -6   8   4 80.9872 4.80459   1
  -5   8  -2 651.459 20.6366  -2
   5  -8  -4 651.459 20.6366   1
   5  -8   2 641.369 16.8171  -2
  -5   8   4 641.369 16.8171   1
   5  -8   2 616.407 17.1295  -2
  -5   8   4 616.407 17.1295   1
  -4   8  -2 836.526 23.6295  -2
   4  -8  -4 836.526 23.6295   1
  -4   8  -2 781.327 22.2686  -2
   4  -8  -4 781.327 22.2686   1
   4  -8   2 766.645 20.3288  -2
  -4   8   4 766.645 20.3288   1
   4  -8   2 786.588 20.7381  -2
  -4   8   4 786.588 20.7381   1
  -3   8  -2 234.285 10.1452  -2
   3  -8  -4 234.285 10.1452   1
  -3   8  -2 227.106 10.0301  -2
   3  -8  -4 227.106 10.0301   1
  -3   8  -2 264.521 10.7727  -2
   3  -8  -4 264.521 10.7727   1
   3  -8   2 250.405 11.2884  -2
  -3   8   4 250.405 11.2884   1
   3  -8   2 229.446 9.53006  -2
  -3   8   4 229.446 9.53006   1
   3  -8   2 235.115 9.85622  -2
  -3   8   4 235.115 9.85622   1
   2  -8  -4 62.1050 4.49491   1
   2  -8  -4 66.8978 5.04557   1
   2  -8  -4 67.4279 4.99293   1
  -2   8   4 63.3245 4.68941   1
  -2   8   4 56.2276 4.49177   1
  -2   8   4 57.9490 5.15169   1
   1  -8  -4 11.3591 2.32985   1
   1  -8  -4 15.3099 2.63794   1
  -1   8   4 17.4748 2.91586   1
  -1   8   4 8.99189 2.47381   1
  -1   8   4 12.6656 2.60048   1
   0  -8  -4 34.9901 3.00325   1
   0  -8  -4 35.2706 3.29651   1
   0  -8  -4 37.2541 3.68179   1
   0   8   4 40.0891 3.64432   1
   0   8   4 36.7960 4.12070   1
  -1  -8  -4 373.177 9.54483   1
  -1  -8  -4 369.202 10.2152   1
  -1  -8  -4 367.155 11.3985   1
   1   8   4 363.005 11.9298   1
   1   8   4 349.979 13.9203   1
  -2  -8  -4 1.31370 1.04161   1
   2   8   4 0.26313 1.32917   1
   2   8   4 1.32307 1.01829   1
   2   8   4 3.13592 1.47987   1
   3   8   4 102.194 6.12432   1
   3   8   4 113.676 5.30093   1
   3   8   4 105.693 7.42006   1
   4   8   4 143.631 7.11935   1
   4   8   4 141.783 9.05279   1
   5   8   4 278.845 13.6092   1
  -6  -8   1 50.6520 7.72924  -2
   6   8   4 50.6520 7.72924   1
  -7  -8   1 100.565 10.1691  -2
   7   8   4 100.565 10.1691   1
   5  -9  -4 42.9982 5.10588   1
  -5   9   4 43.5138 4.15975   1
  -5   9   4 46.7773 3.97120   1
   4  -9  -4 28.9816 4.23044   1
   4  -9  -4 27.5031 4.01040   1
  -4   9   4 24.2728 3.57735   1
  -4   9   4 25.5167 3.43953   1
   3  -9  -4 164.603 8.71445   1
   3  -9  -4 162.052 8.67089   1
   3  -9  -4 180.696 8.78994   1
  -3   9   4 163.058 8.29312   1
  -3   9   4 167.529 8.22986   1
  -3   9   4 171.504 9.69019   1
   2  -9  -4 302.243 11.7111   1
   2  -9  -4 298.560 11.5335   1
  -2   9   4 300.574 13.2661   1
  -2   9   4 288.523 11.2051   1
  -2   9   4 309.660 11.6707   1
   1  -9  -4 333.632 11.7023   1
   1  -9  -4 337.938 11.9544   1
   1  -9  -4 340.593 12.5671   1
  -1   9   4 331.993 12.0996   1
  -1   9   4 350.785 14.2974   1
  -1   9   4 349.522 12.2148   1
   0  -9  -4 130.725 6.94508   1
   0  -9  -4 126.952 5.98040   1
   0  -9  -4 124.948 6.23303   1
   0   9   4 132.335 8.29673   1
  -1  -9  -4 375.877 12.1229   1
  -1  -9  -4 385.832 10.8757   1
  -1  -9  -4 386.105 9.93448   1
   1   9   4 400.493 15.4712   1
   2   9  -1 252.105 8.48153  -2
  -2  -9  -4 252.105 8.48153   1
  -2  -9   1 256.680 10.2345  -2
   2   9   4 256.680 10.2345   1
  -3  -9   1 168.547 7.56142  -2
   3   9   4 168.547 7.56142   1
  -3  -9   1 149.396 9.79156  -2
   3   9   4 149.396 9.79156   1
  -4  -9   1 261.298 13.5185  -2
   4   9   4 261.298 13.5185   1
  -5  -9   1 310.608 15.1911  -2
   5   9   4 310.608 15.1911   1
  -6  -9   1 58.8580 7.82429  -2
   6   9   4 58.8580 7.82429   1
  -4  10  -1 54.5777 6.66486  -2
   4 -10  -4 54.5777 6.66486   1
  -4  10   4 11.0800 2.99464   1
  -4  10   4 9.16026 2.62484   1
  -3  10  -1 147.394 9.01353  -2
   3 -10  -4 147.394 9.01353   1
  -3  10  -1 143.425 8.97997  -2
   3 -10  -4 143.425 8.97997   1
  -3  10   4 101.651 7.98640   1
  -3  10   4 99.2487 6.67567   1
  -3  10   4 106.451 6.96072   1
  -2  10  -1 64.1349 6.07379  -2
   2 -10  -4 64.1349 6.07379   1
  -2  10  -1 70.1458 5.95841  -2
   2 -10  -4 70.1458 5.95841   1
  -2  10  -1 83.1400 6.93873  -2
   2 -10  -4 83.1400 6.93873   1
   2 -10   1 87.6359 6.84177  -2
  -2  10   4 87.6359 6.84177   1
   2 -10   1 79.2818 7.50679  -2
  -2  10   4 79.2818 7.50679   1
   2 -10   1 75.5144 6.70438  -2
  -2  10   4 75.5144 6.70438   1
  -1  10  -1 455.952 15.5313  -2
   1 -10  -4 455.952 15.5313   1
  -1  10  -1 422.958 14.2908  -2
   1 -10  -4 422.958 14.2908   1
  -1  10  -1 438.441 14.2943  -2
   1 -10  -4 438.441 14.2943   1
   1 -10   1 441.356 15.2767  -2
  -1  10   4 441.356 15.2767   1
   1 -10   1 458.456 17.7541  -2
  -1  10   4 458.456 17.7541   1
   0  10  -1 280.816 9.56695  -2
   0 -10  -4 280.816 9.56695   1
   0  10  -1 285.565 10.0999  -2
   0 -10  -4 285.565 10.0999   1
   0  10  -1 269.287 10.7708  -2
   0 -10  -4 269.287 10.7708   1
   0 -10   1 264.727 13.1370  -2
   0  10   4 264.727 13.1370   1
   1  10  -1 239.115 8.12368  -2
  -1 -10  -4 239.115 8.12368   1
   1  10  -1 246.879 9.65565  -2
  -1 -10  -4 246.879 9.65565   1
  -1 -10   1 270.793 13.0973  -2
   1  10   4 270.793 13.0973   1
   2  10  -1 41.3884 3.58826  -2
  -2 -10  -4 41.3884 3.58826   1
  -2 -10   1 43.6742 5.89538  -2
   2  10   4 43.6742 5.89538   1
  -3 -10   1 58.7210 7.49939  -2
   3  10   4 58.7210 7.49939   1
  -3 -10   1 71.1221 5.75707  -2
   3  10   4 71.1221 5.75707   1
   4  10   4 340.287 15.8637   1
   5  10   4 58.5195 7.06404   1
  -3  11  -1 197.900 10.4200  -2
   3 -11  -4 197.900 10.4200   1
  -3  11  -1 199.381 10.3494  -2
   3 -11  -4 199.381 10.3494   1
   3 -11   1 209.960 12.3396  -2
  -3  11   4 209.960 12.3396   1
   3 -11   1 200.704 10.3996  -2
  -3  11   4 200.704 10.3996   1
   3 -11   1 188.650 9.82252  -2
  -3  11   4 188.650 9.82252   1
  -2  11  -1 262.319 11.4508  -2
   2 -11  -4 262.319 11.4508   1
  -2  11  -1 249.862 12.0819  -2
   2 -11  -4 249.862 12.0819   1
  -2  11  -1 266.555 11.7077  -2
   2 -11  -4 266.555 11.7077   1
   2 -11   1 283.352 12.2591  -2
  -2  11   4 283.352 12.2591   1
   2 -11   1 293.740 12.7087  -2
  -2  11   4 293.740 12.7087   1
   2 -11   1 282.057 14.3586  -2
  -2  11   4 282.057 14.3586   1
  -1  11  -1 310.490 11.8336  -2
   1 -11  -4 310.490 11.8336   1
  -1  11  -1 295.492 12.1336  -2
   1 -11  -4 295.492 12.1336   1
  -1  11  -1 305.534 12.9174  -2
   1 -11  -4 305.534 12.9174   1
   1 -11   1 327.249 15.5507  -2
  -1  11   4 327.249 15.5507   1
   0  11  -1 300.165 10.3860  -2
   0 -11  -4 300.165 10.3860   1
   0  11  -1 314.595 11.1295  -2
   0 -11  -4 314.595 11.1295   1
   0  11  -1 291.802 12.1381  -2
   0 -11  -4 291.802 12.1381   1
   0  11   4 4.05596 2.49247   1
  -1 -11  -4 37.0342 3.84940   1
  -1 -11  -4 40.3185 3.22205   1
   1  11   4 27.4134 4.60374   1
   2  11   4 5.95424 2.78626   1
   3  11   4 1.52545 2.53203   1
   4  11   4 61.7189 7.42720   1
   1 -12  -4 63.5643 5.09661   1
   1 -12  -4 58.4252 6.12141   1
   1 -12  -4 59.7257 5.70824   1
  -1  12   4 62.2677 7.10690   1
   0 -12  -4 158.972 7.06722   1
   0 -12  -4 164.565 9.09606   1
   0 -12  -4 146.289 7.41274   1
   0  12   4 150.587 10.7558   1
  -1 -12  -4 12.4364 2.14373   1
  -1 -12  -4 8.19902 2.54809   1
   1  12   4 15.0342 3.97444   1
  -3 -10  -8 109.663 9.82543  -2
   3  10  -5 109.663 9.82543   1
  -2 -10  -8 59.6173 7.17868  -2
   2  10  -5 59.6173 7.17868   1
  -2 -10  -8 43.9559 6.88957  -2
   2  10  -5 43.9559 6.88957   1
   2  10   8 41.2268 3.45923  -2
  -2 -10   5 41.2268 3.45923   1
   2  10   8 35.1024 4.62052  -2
  -2 -10   5 35.1024 4.62052   1
  -1 -10  -8 103.552 8.94344  -2
   1  10  -5 103.552 8.94344   1
   1  10   8 107.611 5.89506  -2
  -1 -10   5 107.611 5.89506   1
   1  10   8 112.827 7.70722  -2
  -1 -10   5 112.827 7.70722   1
   1  10   8 109.381 6.63149  -2
  -1 -10   5 109.381 6.63149   1
   0 -10  -8 97.3370 9.17516  -2
   0  10  -5 97.3370 9.17516   1
   0  10   8 121.449 7.71958  -2
   0 -10   5 121.449 7.71958   1
   0  10   8 114.191 7.04902  -2
   0 -10   5 114.191 7.04902   1
   0  10   8 103.128 7.57639  -2
   0 -10   5 103.128 7.57639   1
   1 -10  -8 446.616 20.2135  -2
  -1  10  -5 446.616 20.2135   1
   1 -10  -8 489.402 17.3011  -2
  -1  10  -5 489.402 17.3011   1
  -1  10   8 437.149 16.9883  -2
   1 -10   5 437.149 16.9883   1
  -1  10   8 449.404 16.3480  -2
   1 -10   5 449.404 16.3480   1
  -1  10   8 419.687 16.0146  -2
   1 -10   5 419.687 16.0146   1
   2 -10  -8 175.886 10.4872  -2
  -2  10  -5 175.886 10.4872   1
   2 -10  -8 180.583 13.6344  -2
  -2  10  -5 180.583 13.6344   1
   2 -10  -8 182.090 10.9547  -2
  -2  10  -5 182.090 10.9547   1
  -2  10   8 171.238 10.6094  -2
   2 -10   5 171.238 10.6094   1
  -2  10   8 183.103 10.6461  -2
   2 -10   5 183.103 10.6461   1
  -4  -9  -8 41.3366 5.99263  -2
   4   9  -5 41.3366 5.99263   1
  -3  -9  -8 245.683 13.4282  -2
   3   9  -5 245.683 13.4282   1
   3   9   8 248.399 9.87763  -2
  -3  -9   5 248.399 9.87763   1
   2   9  -5 2.72822 2.31993   1
   2   9  -5 3.98817 2.48105   1
   2   9   8 9.72753 2.57999  -2
  -2  -9   5 9.72753 2.57999   1
   2   9   8 16.4817 4.08701  -2
  -2  -9   5 16.4817 4.08701   1
   1   9  -5 59.2483 6.45344   1
   1   9  -5 57.5733 6.32963   1
  -1  -9   5 57.2653 4.69878   1
  -1  -9   5 56.1405 5.31019   1
  -1  -9   5 53.5107 4.12198   1
   0   9  -5 50.8416 6.19106   1
   0  -9   5 58.5409 5.23487   1
   0  -9   5 57.1046 5.39428   1
   0  -9   5 54.7420 4.70620   1
  -1   9  -5 411.980 17.9732   1
  -1   9  -5 451.212 15.4683   1
  -1   9  -5 419.297 15.1655   1
   1  -9   5 422.057 15.3148   1
   1  -9   5 406.002 14.9054   1
   1  -9   5 444.683 16.3722   1
  -2   9  -5 17.8446 3.88153   1
  -2   9  -5 15.4103 4.64829   1
  -2   9  -5 13.8839 3.35463   1
   2  -9   5 11.7624 3.19854   1
   2  -9   5 10.7905 3.07500   1
  -3   9  -5 256.704 11.4250   1
  -3   9  -5 260.010 14.9523   1
  -3   9  -5 252.752 11.5313   1
   3  -9   5 272.590 12.1865   1
   3  -9   5 270.895 12.4401   1
   3  -9   5 276.227 12.3546   1
  -4   9  -5 45.6550 4.65152   1
  -4   9  -5 43.9655 5.31329   1
   4  -9   5 58.5916 5.70946   1
   5   8  -5 101.455 8.01625   1
   4   8  -5 159.080 9.71684   1
   3   8  -5 214.968 11.3935   1
   2   8  -5 76.3457 6.47761   1
   2   8  -5 75.6120 6.58398   1
  -2  -8   5 69.5468 5.32593   1
  -2  -8   5 69.9498 4.03333   1
   1   8  -5 431.327 16.6797   1
   1   8  -5 407.200 16.2392   1
  -1  -8   5 420.572 12.8580   1
  -1  -8   5 435.831 13.7359   1
  -1  -8   5 414.002 14.7357   1
   0   8  -5 332.043 12.2705   1
   0   8  -5 309.583 13.9740   1
   0  -8   5 323.405 11.8842   1
   0  -8   5 325.644 12.7450   1
   0  -8   5 326.707 12.1159   1
  -1   8  -5 78.6570 7.13814   1
  -1   8  -5 84.2518 6.07941   1
  -1   8  -5 73.1323 5.69784   1
   1  -8   5 68.0913 5.46598   1
   1  -8   5 73.9224 6.07780   1
   1  -8   5 70.8652 5.63289   1
  -2   8  -5 33.2778 4.17245   1
  -2   8  -5 30.2607 5.09152   1
  -2   8  -5 29.7279 4.03935   1
  -2   8   7 363.165 13.7929  -2
   2  -8   5 363.165 13.7929   1
   3  -8  -7 160.276 8.81958  -2
  -3   8  -5 160.276 8.81958   1
   3  -8  -7 151.788 8.79158  -2
  -3   8  -5 151.788 8.79158   1
   3  -8  -7 160.282 11.7590  -2
  -3   8  -5 160.282 11.7590   1
  -3   8   7 173.980 9.42528  -2
   3  -8   5 173.980 9.42528   1
  -3   8   7 183.013 10.6918  -2
   3  -8   5 183.013 10.6918   1
  -3   8   7 173.899 9.60801  -2
   3  -8   5 173.899 9.60801   1
   4  -8  -7 544.435 17.2346  -2
  -4   8  -5 544.435 17.2346   1
   4  -8  -7 516.007 21.8518  -2
  -4   8  -5 516.007 21.8518   1
   4  -8  -7 551.940 16.7404  -2
  -4   8  -5 551.940 16.7404   1
  -4   8   7 589.044 19.3905  -2
   4  -8   5 589.044 19.3905   1
  -4   8   7 567.788 20.3242  -2
   4  -8   5 567.788 20.3242   1
   5  -8  -7 112.750 5.90391  -2
  -5   8  -5 112.750 5.90391   1
   5  -8  -7 100.005 6.15788  -2
  -5   8  -5 100.005 6.15788   1
  -5   8   7 120.758 9.15381  -2
   5  -8   5 120.758 9.15381   1
   6   7  -5 8.67584 2.99482   1
   5   7  -5 583.617 20.1049   1
   4   7  -5 32.7781 4.39758   1
   3   7  -5 188.584 9.62001   1
   3   7  -5 181.893 9.76805   1
  -3  -7   5 190.700 7.60952   1
   2   7  -5 0.87886 1.50704   1
   2   7  -5 0.48812 1.65633   1
   2   7   7 505.754 13.6721  -2
  -2  -7   5 505.754 13.6721   1
   2   7   7 496.963 15.6345  -2
  -2  -7   5 496.963 15.6345   1
  -1  -7  -7 990.648 27.2137  -2
   1   7  -5 990.648 27.2137   1
  -1  -7  -7 971.800 27.8275  -2
   1   7  -5 971.800 27.8275   1
   1   7   7 956.775 23.0760  -2
  -1  -7   5 956.775 23.0760   1
   1   7   7 959.933 23.7392  -2
  -1  -7   5 959.933 23.7392   1
   1   7   7 941.900 24.9376  -2
  -1  -7   5 941.900 24.9376   1
   0  -7  -7 335.393 14.1818  -2
   0   7  -5 335.393 14.1818   1
   0  -7  -7 341.406 14.1810  -2
   0   7  -5 341.406 14.1810   1
   0  -7  -7 341.138 12.1485  -2
   0   7  -5 341.138 12.1485   1
   0  -7  -7 343.687 12.2231  -2
   0   7  -5 343.687 12.2231   1
   0   7   7 358.346 12.7979  -2
   0  -7   5 358.346 12.7979   1
   0   7   7 351.493 12.2861  -2
   0  -7   5 351.493 12.2861   1
   0   7   7 344.845 13.5160  -2
   0  -7   5 344.845 13.5160   1
   0   7   7 372.835 12.6577  -2
   0  -7   5 372.835 12.6577   1
   1  -7  -7 132.484 7.25219  -2
  -1   7  -5 132.484 7.25219   1
   1  -7  -7 154.413 7.75172  -2
  -1   7  -5 154.413 7.75172   1
   1  -7  -7 156.367 9.38825  -2
  -1   7  -5 156.367 9.38825   1
  -1   7   7 143.877 8.50735  -2
   1  -7   5 143.877 8.50735   1
  -1   7   7 149.702 7.69511  -2
   1  -7   5 149.702 7.69511   1
  -1   7   7 140.283 7.78214  -2
   1  -7   5 140.283 7.78214   1
  -1   7   7 140.733 7.49692  -2
   1  -7   5 140.733 7.49692   1
  -1   7   7 142.641 7.36128  -2
   1  -7   5 142.641 7.36128   1
   2  -7  -7 164.612 10.3136  -2
  -2   7  -5 164.612 10.3136   1
   2  -7  -7 148.178 7.93609  -2
  -2   7  -5 148.178 7.93609   1
   2  -7  -7 155.490 8.02082  -2
  -2   7  -5 155.490 8.02082   1
  -2   7   7 161.758 8.37534  -2
   2  -7   5 161.758 8.37534   1
  -2   7   7 147.447 8.06404  -2
   2  -7   5 147.447 8.06404   1
  -2   7   7 163.200 8.32227  -2
   2  -7   5 163.200 8.32227   1
  -2   7   7 154.664 8.48855  -2
   2  -7   5 154.664 8.48855   1
  -2   7   7 160.870 9.11681  -2
   2  -7   5 160.870 9.11681   1
   3  -7  -7 199.938 12.1871  -2
  -3   7  -5 199.938 12.1871   1
   3  -7  -7 209.412 9.48885  -2
  -3   7  -5 209.412 9.48885   1
   3  -7  -7 200.202 9.22840  -2
  -3   7  -5 200.202 9.22840   1
  -3   7   7 209.572 10.0410  -2
   3  -7   5 209.572 10.0410   1
  -3   7   7 205.656 10.8453  -2
   3  -7   5 205.656 10.8453   1
  -3   7   7 183.863 9.36501  -2
   3  -7   5 183.863 9.36501   1
   4  -7  -7 1219.66 36.5507  -2
  -4   7  -5 1219.66 36.5507   1
   4  -7  -7 1260.57 29.2207  -2
  -4   7  -5 1260.57 29.2207   1
  -4   7   7 1225.32 33.7671  -2
   4  -7   5 1225.32 33.7671   1
   5  -7  -7 172.013 7.97283  -2
  -5   7  -5 172.013 7.97283   1
   5  -7   5 111.798 7.59608   1
   5  -7   5 120.964 8.84664   1
   5  -7   5 122.187 9.02645   1
   6  -7   5 442.333 18.9852   1
   6  -7   5 462.000 17.4220   1
   6  -7   5 463.793 19.4330   1
  -6  -6  -7 226.984 11.7455  -2
   6   6  -5 226.984 11.7455   1
  -5  -6  -7 188.120 10.1675  -2
   5   6  -5 188.120 10.1675   1
  -4  -6  -7 309.466 13.0816  -2
   4   6  -5 309.466 13.0816   1
  -3  -6  -7 254.134 11.3416  -2
   3   6  -5 254.134 11.3416   1
   3   6   7 250.453 10.1184  -2
  -3  -6   5 250.453 10.1184   1
   3   6   7 271.728 9.29586  -2
  -3  -6   5 271.728 9.29586   1
  -2  -6  -7 921.261 26.5276  -2
   2   6  -5 921.261 26.5276   1
  -2  -6  -7 969.638 25.3218  -2
   2   6  -5 969.638 25.3218   1
   2   6   7 899.356 20.3774  -2
  -2  -6   5 899.356 20.3774   1
   2   6   7 1036.71 24.5260  -2
  -2  -6   5 1036.71 24.5260   1
   2   6   7 926.065 21.5212  -2
  -2  -6   5 926.065 21.5212   1
   2   6   7 923.851 24.4662  -2
  -2  -6   5 923.851 24.4662   1
  -1  -6  -7 240.574 10.7104  -2
   1   6  -5 240.574 10.7104   1
   1   6   7 238.657 9.42607  -2
  -1  -6   5 238.657 9.42607   1
   1   6   7 246.858 9.04051  -2
  -1  -6   5 246.858 9.04051   1
   1   6   7 235.150 9.88016  -2
  -1  -6   5 235.150 9.88016   1
   1   6   7 231.869 10.1079  -2
  -1  -6   5 231.869 10.1079   1
   0   6  -5 87.4859 5.44564   1
   0   6  -5 98.5479 6.65742   1
   0   6  -5 99.7193 5.78940   1
   0   6  -5 97.6403 6.67603   1
   0   6   7 517.758 17.5102  -2
   0  -6   5 517.758 17.5102   1
  -1   6  -5 0.94800 1.33020   1
  -1   6  -5 1.49142 1.21517   1
  -1   6  -5 1.71944 1.72283   1
   1  -6   5 1.30358 1.29004   1
   1  -6   5 -0.7206 0.86463   1
   1  -6   5 0.33264 1.12071   1
   1  -6   5 0.14444 1.05788   1
   1  -6   5 3.45056 1.41593   1
  -2   6  -5 291.332 10.8399   1
  -2   6  -5 317.943 11.0969   1
  -2   6  -5 300.007 13.4305   1
   2  -6   5 322.514 12.9397   1
   2  -6   5 312.860 11.5834   1
   2  -6   5 304.923 11.4566   1
   2  -6   5 308.239 11.9801   1
   2  -6   5 311.129 11.7297   1
  -3   6  -5 180.793 7.92698   1
  -3   6  -5 173.924 7.99912   1
  -3   6  -5 165.523 10.1462   1
   3  -6   5 177.263 8.56806   1
   3  -6   5 169.698 8.54239   1
   3  -6   5 173.252 9.35190   1
   3  -6   5 177.619 9.86117   1
  -4   6  -5 117.364 6.39398   1
  -4   6  -5 106.974 5.82795   1
  -4   6  -5 111.177 8.90152   1
   4  -6   5 116.909 8.09234   1
   4  -6   5 110.740 6.93534   1
   4  -6   5 112.440 7.88171   1
  -5   6  -5 197.868 12.2734   1
  -5   6  -5 192.378 7.72650   1
   5  -6   5 194.347 10.8763   1
   5  -6   5 187.379 9.56353   1
   5  -6   5 185.088 10.8199   1
  -6   6  -5 540.146 23.0698   1
   6  -6   5 554.810 20.6290   1
   6  -6   5 548.622 18.4525   1
   6  -6   5 522.125 20.6573   1
  -7  -5  -7 831.067 25.5021  -2
   7   5  -5 831.067 25.5021   1
  -6  -5  -7 575.074 19.3631  -2
   6   5  -5 575.074 19.3631   1
   6   5   7 526.701 17.6172  -2
  -6  -5   5 526.701 17.6172   1
  -5  -5  -7 102.636 7.77273  -2
   5   5  -5 102.636 7.77273   1
   5   5   7 131.264 7.42635  -2
  -5  -5   5 131.264 7.42635   1
   4   5  -5 143.892 8.10636   1
  -4  -5   5 165.558 8.05167   1
   3   5  -5 209.706 9.74026   1
  -3  -5   5 217.483 7.65427   1
  -3  -5   5 212.739 9.09075   1
   2   5  -5 517.338 16.5551   1
   2   5  -5 507.394 15.1587   1
   2   5   7 938.544 21.2695  -2
  -2  -5   5 938.544 21.2695   1
   1   5  -5 292.689 10.9412   1
   1   5  -5 309.964 11.7374   1
   1   5  -5 301.865 10.0805   1
   1   5  -5 291.075 9.96681   1
  -1  -5   5 290.447 11.0088   1
  -1  -5   5 291.778 9.67466   1
  -1  -5   5 297.119 10.7180   1
  -1  -5   5 296.898 9.99669   1
   0   5  -5 960.198 25.9237   1
   0   5  -5 969.714 25.4941   1
   0   5  -5 953.454 22.9239   1
   0   5  -5 1000.46 23.2147   1
   0  -5   5 955.557 23.2848   1
   0  -5   5 930.964 23.1918   1
   0  -5   5 997.945 25.6422   1
   0  -5   5 996.093 23.6580   1
   0  -5   5 991.157 24.2744   1
  -1   5  -5 722.860 18.6071   1
  -1   5  -5 744.753 21.3194   1
  -1   5  -5 714.410 21.2945   1
  -1   5  -5 720.854 18.6928   1
   1  -5   5 760.045 21.8208   1
   1  -5   5 749.992 21.2316   1
   1  -5   5 728.728 19.2160   1
   1  -5   5 696.085 19.1241   1
   1  -5   5 716.481 19.6380   1
   1  -5   5 729.483 19.7875   1
  -2   5  -5 4180.86 87.1859   1
  -2   5  -5 4014.57 78.9375   1
  -2   5  -5 3967.89 78.2979   1
   2  -5   5 4133.85 84.4267   1
   2  -5   5 4124.66 80.7760   1
   2  -5   5 4093.30 79.2581   1
   2  -5   5 4126.06 85.9027   1
   2  -5   5 4152.35 80.0851   1
   2  -5   5 4163.95 87.8722   1
  -3   5  -5 387.245 15.6197   1
  -3   5  -5 391.437 12.3504   1
  -3   5  -5 393.075 12.1634   1
   3  -5   5 382.778 13.2006   1
   3  -5   5 384.946 14.4772   1
   3  -5   5 400.793 14.9577   1
   3  -5   5 369.707 12.7855   1
   4  -5  -6 336.780 10.9539  -2
  -4   5  -5 336.780 10.9539   1
   4  -5  -6 343.451 15.5018  -2
  -4   5  -5 343.451 15.5018   1
   4  -5  -6 356.686 10.4951  -2
  -4   5  -5 356.686 10.4951   1
   4  -5   5 194.165 8.97636   1
   4  -5   5 207.174 10.4367   1
   4  -5   5 204.829 10.2877   1
   5  -5  -6 255.412 13.8816  -2
  -5   5  -5 255.412 13.8816   1
   5  -5  -6 259.219 7.94336  -2
  -5   5  -5 259.219 7.94336   1
  -5   5   6 256.599 12.3051  -2
   5  -5   5 256.599 12.3051   1
  -5   5   6 262.428 10.8215  -2
   5  -5   5 262.428 10.8215   1
  -5   5   6 251.824 12.6478  -2
   5  -5   5 251.824 12.6478   1
   6  -5  -6 326.924 16.0304  -2
  -6   5  -5 326.924 16.0304   1
  -6   5   6 293.382 13.6285  -2
   6  -5   5 293.382 13.6285   1
  -6   5   6 267.262 13.6740  -2
   6  -5   5 267.262 13.6740   1
  -6   5   6 303.469 11.9710  -2
   6  -5   5 303.469 11.9710   1
   7  -5  -6 32.0717 5.57815  -2
  -7   5  -5 32.0717 5.57815   1
  -7   5   6 26.2129 4.44542  -2
   7  -5   5 26.2129 4.44542   1
  -7   5   6 40.3231 4.58788  -2
   7  -5   5 40.3231 4.58788   1
  -7   5   6 30.2358 5.11789  -2
   7  -5   5 30.2358 5.11789   1
   7   4  -5 217.788 11.1953   1
  -7  -4   5 237.414 11.6121   1
   6   4  -5 3.21150 2.00726   1
  -6  -4   5 5.77433 2.32502   1
   5   4  -5 3.54902 1.99871   1
  -5  -4   5 6.69756 2.14569   1
   4   4  -5 429.981 14.8864   1
  -4  -4   5 423.973 14.2225   1
   3   4  -5 106.951 6.37584   1
  -3  -4   5 83.2913 5.46325   1
   2   4  -5 492.253 13.8329   1
   2   4  -5 483.564 15.6126   1
  -2  -4   5 498.237 13.7819   1
  -2  -4   5 469.003 11.7878   1
  -2  -4   5 482.489 15.0273   1
  -2  -4   5 488.172 12.4643   1
   1   4  -5 253.848 8.74097   1
   1   4  -5 251.073 8.73690   1
   1   4  -5 275.632 10.6379   1
   1   4  -5 245.893 9.23462   1
   1   4   6 311.815 9.96507  -2
  -1  -4   5 311.815 9.96507   1
   1   4   6 302.703 10.1011  -2
  -1  -4   5 302.703 10.1011   1
   0   4  -5 430.321 12.5934   1
   0   4  -5 435.818 14.4772   1
   0   4  -5 453.414 14.1175   1
   0   4  -5 436.272 12.5141   1
   0   4   6 997.121 26.0427  -2
   0  -4   5 997.121 26.0427   1
   0   4   6 979.341 24.0701  -2
   0  -4   5 979.341 24.0701   1
   0   4   6 1024.24 26.3042  -2
   0  -4   5 1024.24 26.3042   1
   0   4   6 962.741 23.0324  -2
   0  -4   5 962.741 23.0324   1
   1  -4  -6 928.835 21.8488  -2
  -1   4  -5 928.835 21.8488   1
   1  -4  -6 915.564 21.6934  -2
  -1   4  -5 915.564 21.6934   1
   1  -4  -6 920.445 24.7233  -2
  -1   4  -5 920.445 24.7233   1
   1  -4  -6 932.038 24.6701  -2
  -1   4  -5 932.038 24.6701   1
  -1   4   6 946.504 24.7041  -2
   1  -4   5 946.504 24.7041   1
  -1   4   6 932.014 24.8006  -2
   1  -4   5 932.014 24.8006   1
  -1   4   6 886.631 21.6359  -2
   1  -4   5 886.631 21.6359   1
  -1   4   6 936.981 22.2654  -2
   1  -4   5 936.981 22.2654   1
  -1   4   6 889.184 22.3051  -2
   1  -4   5 889.184 22.3051   1
  -1   4   6 941.109 23.4993  -2
   1  -4   5 941.109 23.4993   1
   2  -4  -6 3319.26 70.0916  -2
  -2   4  -5 3319.26 70.0916   1
   2  -4  -6 3221.26 63.0869  -2
  -2   4  -5 3221.26 63.0869   1
   2  -4  -6 3230.13 62.7945  -2
  -2   4  -5 3230.13 62.7945   1
  -2   4   6 3248.06 68.4065  -2
   2  -4   5 3248.06 68.4065   1
  -2   4   6 3314.69 64.0261  -2
   2  -4   5 3314.69 64.0261   1
  -2   4   6 3142.32 62.9370  -2
   2  -4   5 3142.32 62.9370   1
  -2   4   6 3199.29 64.2300  -2
   2  -4   5 3199.29 64.2300   1
  -2   4   6 3314.60 70.3576  -2
   2  -4   5 3314.60 70.3576   1
  -2   4   6 3234.61 67.9762  -2
   2  -4   5 3234.61 67.9762   1
   3  -4  -6 192.548 7.36226  -2
  -3   4  -5 192.548 7.36226   1
   3  -4  -6 189.561 10.1540  -2
  -3   4  -5 189.561 10.1540   1
   3  -4  -6 200.281 7.71197  -2
  -3   4  -5 200.281 7.71197   1
  -3   4   6 194.642 8.25011  -2
   3  -4   5 194.642 8.25011   1
  -3   4   6 193.398 9.37829  -2
   3  -4   5 193.398 9.37829   1
  -3   4   6 191.253 9.48838  -2
   3  -4   5 191.253 9.48838   1
  -3   4   6 226.202 8.65220  -2
   3  -4   5 226.202 8.65220   1
   4  -4  -6 72.7021 3.54956  -2
  -4   4  -5 72.7021 3.54956   1
   4  -4  -6 71.0920 6.74681  -2
  -4   4  -5 71.0920 6.74681   1
   4  -4  -6 75.5628 4.28966  -2
  -4   4  -5 75.5628 4.28966   1
  -4   4   6 77.8785 6.29312  -2
   4  -4   5 77.8785 6.29312   1
  -4   4   6 79.8910 5.27148  -2
   4  -4   5 79.8910 5.27148   1
  -4   4   6 72.1168 5.91707  -2
   4  -4   5 72.1168 5.91707   1
   5  -4  -6 492.597 19.3806  -2
  -5   4  -5 492.597 19.3806   1
  -5   4   6 463.902 16.7951  -2
   5  -4   5 463.902 16.7951   1
  -5   4   6 482.060 14.9164  -2
   5  -4   5 482.060 14.9164   1
  -5   4   6 477.502 17.6202  -2
   5  -4   5 477.502 17.6202   1
  -6   4  -5 3.68745 2.35060   1
   6  -4   5 4.91268 2.34660   1
   6  -4   5 5.46756 1.93746   1
   6  -4   5 2.95921 1.83456   1
  -7   4  -5 400.537 19.4996   1
   7  -4   5 436.513 18.5211   1
   7  -4   5 444.072 14.7355   1
   7  -4   5 434.411 16.9719   1
   7   3  -5 18.8306 3.86777   1
  -7  -3   5 34.4799 4.56897   1
   6   3  -5 154.359 8.69783   1
  -6  -3   5 147.629 8.47999   1
   5   3  -5 423.717 15.1827   1
  -5  -3   5 430.618 14.7493   1
  -4  -3  -6 4293.95 90.2140  -2
   4   3  -5 4293.95 90.2140   1
   4   3   6 4267.74 85.9539  -2
  -4  -3   5 4267.74 85.9539   1
  -3  -3  -6 791.368 21.6338  -2
   3   3  -5 791.368 21.6338   1
   3   3   6 726.918 14.6028  -2
  -3  -3   5 726.918 14.6028   1
   3   3   6 743.519 14.8401  -2
  -3  -3   5 743.519 14.8401   1
   3   3   6 750.642 20.3029  -2
  -3  -3   5 750.642 20.3029   1
  -2  -3  -6 3163.98 69.7007  -2
   2   3  -5 3163.98 69.7007   1
  -2  -3  -6 3245.52 62.7474  -2
   2   3  -5 3245.52 62.7474   1
  -2  -3  -6 3339.06 65.6056  -2
   2   3  -5 3339.06 65.6056   1
   2   3   6 3216.10 67.0824  -2
  -2  -3   5 3216.10 67.0824   1
   2   3   6 3350.14 63.9197  -2
  -2  -3   5 3350.14 63.9197   1
   2   3   6 3412.39 61.9130  -2
  -2  -3   5 3412.39 61.9130   1
   2   3   6 3199.32 61.2642  -2
  -2  -3   5 3199.32 61.2642   1
  -1  -3  -6 1274.58 32.0214  -2
   1   3  -5 1274.58 32.0214   1
  -1  -3  -6 1214.37 28.1587  -2
   1   3  -5 1214.37 28.1587   1
  -1  -3  -6 1318.58 28.5222  -2
   1   3  -5 1318.58 28.5222   1
  -1  -3  -6 1256.37 29.7391  -2
   1   3  -5 1256.37 29.7391   1
   1   3   6 1358.39 28.8589  -2
  -1  -3   5 1358.39 28.8589   1
   1   3   6 1443.69 29.1822  -2
  -1  -3   5 1443.69 29.1822   1
   1   3   6 1373.09 32.6850  -2
  -1  -3   5 1373.09 32.6850   1
   1   3   6 1362.52 32.0398  -2
  -1  -3   5 1362.52 32.0398   1
   1   3   6 1419.69 29.1759  -2
  -1  -3   5 1419.69 29.1759   1
   1   3   6 1376.50 29.9779  -2
  -1  -3   5 1376.50 29.9779   1
   0  -3  -6 819.921 19.7982  -2
   0   3  -5 819.921 19.7982   1
   0  -3  -6 813.753 19.5896  -2
   0   3  -5 813.753 19.5896   1
   0  -3  -6 815.067 21.2939  -2
   0   3  -5 815.067 21.2939   1
   0  -3  -6 864.220 22.7938  -2
   0   3  -5 864.220 22.7938   1
   0   3   6 824.180 22.7336  -2
   0  -3   5 824.180 22.7336   1
   0   3   6 846.268 20.7708  -2
   0  -3   5 846.268 20.7708   1
   0   3   6 851.701 20.2355  -2
   0  -3   5 851.701 20.2355   1
   0   3   6 827.217 22.4876  -2
   0  -3   5 827.217 22.4876   1
   0   3   6 873.927 20.5771  -2
   0  -3   5 873.927 20.5771   1
   0   3   6 860.242 21.1042  -2
   0  -3   5 860.242 21.1042   1
  -1   3  -5 66.0919 4.14873   1
  -1   3  -5 62.6449 3.98693   1
  -1   3  -5 77.0908 5.14319   1
  -1   3  -5 73.1432 5.03406   1
   1  -3   5 74.8792 5.20018   1
   1  -3   5 73.0936 5.06917   1
   1  -3   5 76.8449 4.50791   1
   1  -3   5 72.7268 4.54206   1
   1  -3   5 76.8271 4.48902   1
   1  -3   5 71.9795 4.37330   1
  -2   3  -5 1.83476 1.14679   1
  -2   3  -5 3.18427 1.30566   1
  -2   3  -5 1.11425 1.24359   1
   2  -3   5 1.98666 1.45164   1
   2  -3   5 1.73717 1.06515   1
   2  -3   5 2.56098 1.24312   1
   2  -3   5 1.60085 1.15819   1
   2  -3   5 -0.4312 0.72246   1
   2  -3   5 0.72956 0.79482   1
  -3   3  -5 187.328 6.78177   1
  -3   3  -5 181.935 9.58922   1
  -3   3  -5 178.751 6.97646   1
   3  -3   5 185.917 8.67729   1
   3  -3   5 184.085 9.07462   1
   3  -3   5 186.076 7.51337   1
  -4   3  -5 93.5960 7.13972   1
  -4   3  -5 95.5393 4.17046   1
   4  -3   5 95.1003 6.62280   1
   4  -3   5 92.1919 5.10990   1
   4  -3   5 87.9835 5.94377   1
  -5   3  -5 423.260 17.7642   1
   5  -3   5 424.094 15.1118   1
   5  -3   5 444.988 16.3231   1
   5  -3   5 447.420 13.2017   1
  -6   3  -5 23.3488 4.68782   1
   6  -3   5 22.1876 4.08533   1
   6  -3   5 29.5324 3.16031   1
   6  -3   5 33.4437 4.07962   1
  -7   3  -5 528.497 22.0680   1
   7  -3   5 533.920 18.3868   1
   7  -3   5 518.514 20.4372   1
  -8  -2  -6 484.325 17.3717  -2
   8   2  -5 484.325 17.3717   1
   8   2   6 511.990 19.2584  -2
  -8  -2   5 511.990 19.2584   1
  -7  -2  -6 15.7706 3.47503  -2
   7   2  -5 15.7706 3.47503   1
   7   2   6 16.3180 3.78725  -2
  -7  -2   5 16.3180 3.78725   1
  -6  -2  -6 513.827 17.1687  -2
   6   2  -5 513.827 17.1687   1
   6   2   6 555.848 17.9115  -2
  -6  -2   5 555.848 17.9115   1
  -5  -2  -6 252.082 11.0106  -2
   5   2  -5 252.082 11.0106   1
   5   2   6 285.100 11.4024  -2
  -5  -2   5 285.100 11.4024   1
  -4  -2  -6 1153.54 29.8554  -2
   4   2  -5 1153.54 29.8554   1
   4   2   6 1159.28 28.6111  -2
  -4  -2   5 1159.28 28.6111   1
  -3  -2  -6 269.665 10.8824  -2
   3   2  -5 269.665 10.8824   1
   3   2   6 254.516 6.67388  -2
  -3  -2   5 254.516 6.67388   1
   3   2   6 254.774 10.2041  -2
  -3  -2   5 254.774 10.2041   1
   2   2  -5 118.826 5.29525   1
   2   2  -5 111.587 6.29714   1
   2   2  -5 117.639 4.66492   1
   2   2  -5 122.307 5.32746   1
  -2  -2   5 110.173 4.73465   1
  -2  -2   5 116.702 5.32078   1
  -2  -2   5 124.838 6.53102   1
  -2  -2   5 123.538 4.63606   1
   1   2  -5 282.347 10.4327   1
   1   2  -5 275.544 8.86374   1
   1   2  -5 285.470 8.77099   1
   1   2  -5 269.955 8.55773   1
   1   2   6 666.048 16.6122  -2
  -1  -2   5 666.048 16.6122   1
   0   2  -5 239.508 9.40194   1
   0   2  -5 245.496 8.72333   1
   0   2  -5 234.451 8.17643   1
   0   2  -5 242.916 8.15748   1
   0  -2   5 238.570 8.20020   1
   0  -2   5 230.748 8.39977   1
   0  -2   5 245.150 8.30471   1
   0  -2   5 231.661 9.46339   1
   0  -2   5 241.529 9.25746   1
   0  -2   5 233.324 8.19804   1
  -1   2  -5 326.162 11.1336   1
  -1   2  -5 295.450 10.8841   1
  -1   2  -5 332.105 9.91294   1
  -1   2  -5 312.373 9.77133   1
   1  -2   5 299.142 9.92889   1
   1  -2   5 320.934 11.1135   1
   1  -2   5 310.740 11.3363   1
   1  -2   5 320.782 9.86530   1
   1  -2   5 302.569 9.97410   1
   1  -2   5 315.153 9.71249   1
  -2   2  -5 0.58555 1.04579   1
  -2   2  -5 1.92544 0.94068   1
  -2   2  -5 1.46591 1.40805   1
  -2   2  -5 0.26131 0.96814   1
   2  -2   5 0.60396 0.77151   1
   2  -2   5 1.48924 0.90005   1
   2  -2   5 1.25530 1.08385   1
   2  -2   5 0.66562 0.88238   1
   2  -2   5 3.00620 1.28701   1
   2  -2   5 1.48455 0.94327   1
  -3   2  -5 1881.84 44.7374   1
  -3   2  -5 1882.13 36.8146   1
  -3   2  -5 1920.83 37.5340   1
   3  -2   5 1821.76 42.7028   1
   3  -2   5 1942.91 41.1608   1
   3  -2   5 1934.36 42.8756   1
  -4   2  -5 5.57873 2.17895   1
   4  -2   5 10.0112 2.22465   1
   4  -2   5 8.70501 2.26045   1
   4  -2   5 13.5803 1.87295   1
   5  -2  -5 3872.10 83.9898  -2
  -5   2  -5 3872.10 83.9898   1
   5  -2   5 2153.57 50.0879   1
   5  -2   5 2222.06 46.4340   1
   5  -2   5 2197.77 49.6017   1
   6  -2  -5 15.3986 4.38677  -2
  -6   2  -5 15.3986 4.38677   1
  -6   2   5 26.3654 3.87564  -2
   6  -2   5 26.3654 3.87564   1
   7  -2  -5 619.118 22.2241  -2
  -7   2  -5 619.118 22.2241   1
  -7   2   5 553.677 20.9247  -2
   7  -2   5 553.677 20.9247   1
  -7   2   5 571.814 18.6732  -2
   7  -2   5 571.814 18.6732   1
   8  -2  -5 0.57490 2.91469  -2
  -8   2  -5 0.57490 2.91469   1
  -8   2   5 0.44832 2.49258  -2
   8  -2   5 0.44832 2.49258   1
  -8   2   5 4.61799 3.67713  -2
   8  -2   5 4.61799 3.67713   1
  -8  -1  -6 669.653 22.1061  -2
   8   1  -5 669.653 22.1061   1
   8   1   6 770.338 24.7315  -2
  -8  -1   5 770.338 24.7315   1
  -7  -1  -6 156.683 9.06707  -2
   7   1  -5 156.683 9.06707   1
  -7  -1   5 158.410 9.54079   1
   6   1  -5 410.412 14.9203   1
  -6  -1   5 410.381 15.0968   1
   5   1  -5 15.5823 2.85535   1
  -5  -1   5 12.7246 2.59978   1
   4   1  -5 169.173 8.45106   1
  -4  -1   5 163.548 8.03329   1
   3   1  -5 0.72201 1.15850   1
  -3  -1   5 2.79063 0.78575   1
  -3  -1   5 2.58573 1.17209   1
  -3  -1   5 2.49184 0.74615   1
   2   1  -5 -0.8329 0.76396   1
   2   1  -5 1.51689 0.90156   1
   2   1  -5 2.26166 0.81685   1
   2   1  -5 1.36979 1.11032   1
  -2  -1   5 -0.1152 0.40032   1
  -2  -1   5 1.07530 0.79145   1
  -2  -1   5 0.47688 0.71115   1
  -2  -1   5 2.15512 1.18841   1
   1   1  -5 1940.28 38.9381   1
   1   1  -5 1877.60 38.6811   1
   1   1  -5 1908.75 39.5587   1
   1   1  -5 1932.26 43.5799   1
   1   1   5 2555.98 49.4124  -2
  -1  -1   5 2555.98 49.4124   1
   0   1  -5 13.9132 2.08838   1
   0   1  -5 15.6574 2.51205   1
   0   1  -5 20.1358 2.31641   1
   0   1  -5 19.1686 2.31068   1
   0  -1   5 16.1071 2.00331   1
   0  -1   5 14.7893 2.30968   1
   0  -1   5 16.6000 1.92631   1
   0  -1   5 22.3188 2.37786   1
   0  -1   5 16.5651 2.37432   1
   0  -1   5 17.9337 2.08011   1
   1  -1  -5 4571.22 84.1029  -2
  -1   1  -5 4571.22 84.1029   1
   1  -1  -5 4518.80 84.5844  -2
  -1   1  -5 4518.80 84.5844   1
   1  -1   5 3030.15 63.3793   1
   1  -1   5 3059.40 63.8401   1
   1  -1   5 3088.20 59.9174   1
   1  -1   5 3041.27 59.3841   1
   1  -1   5 3196.71 65.1020   1
   1  -1   5 3133.49 58.9023   1
   2  -1  -5 228.557 8.97880  -2
  -2   1  -5 228.557 8.97880   1
   2  -1  -5 225.303 9.33312  -2
  -2   1  -5 225.303 9.33312   1
   2  -1  -5 203.788 6.75319  -2
  -2   1  -5 203.788 6.75319   1
   2  -1  -5 218.854 7.16924  -2
  -2   1  -5 218.854 7.16924   1
  -2   1   5 228.190 7.92383  -2
   2  -1   5 228.190 7.92383   1
  -2   1   5 233.168 8.94379  -2
   2  -1   5 233.168 8.94379   1
   3  -1  -5 2564.76 44.3392  -2
  -3   1  -5 2564.76 44.3392   1
   3  -1  -5 2308.69 44.1383  -2
  -3   1  -5 2308.69 44.1383   1
   3  -1  -5 2348.60 52.5623  -2
  -3   1  -5 2348.60 52.5623   1
  -3   1   5 2298.25 50.9205  -2
   3  -1   5 2298.25 50.9205   1
  -3   1   5 2405.67 51.7932  -2
   3  -1   5 2405.67 51.7932   1
  -3   1   5 2408.86 49.3987  -2
   3  -1   5 2408.86 49.3987   1
   4  -1  -5 69.9298 5.55779  -2
  -4   1  -5 69.9298 5.55779   1
  -4   1   5 72.0292 3.41566  -2
   4  -1   5 72.0292 3.41566   1
  -4   1   5 63.9838 4.46864  -2
   4  -1   5 63.9838 4.46864   1
  -4   1   5 66.5282 5.26503  -2
   4  -1   5 66.5282 5.26503   1
   5  -1  -5 2460.68 56.3074  -2
  -5   1  -5 2460.68 56.3074   1
  -5   1   5 2427.88 53.4483  -2
   5  -1   5 2427.88 53.4483   1
  -5   1   5 2417.80 54.1389  -2
   5  -1   5 2417.80 54.1389   1
   6  -1  -5 105.178 8.20255  -2
  -6   1  -5 105.178 8.20255   1
  -6   1   5 95.6781 6.13348  -2
   6  -1   5 95.6781 6.13348   1
  -6   1   5 100.133 7.55529  -2
   6  -1   5 100.133 7.55529   1
   7  -1  -5 98.3185 8.38801  -2
  -7   1  -5 98.3185 8.38801   1
  -7   1   5 88.1936 6.64140  -2
   7  -1   5 88.1936 6.64140   1
  -8   1  -5 45.8390 6.36041   1
   8  -1   5 39.2582 6.05951   1
   8  -1   5 45.8706 4.84578   1
   8   0  -5 165.514 9.46810   1
  -8   0   5 157.386 10.2759   1
   7   0  -5 5.61268 2.20236   1
  -7   0   5 5.06963 2.33064   1
   6   0  -5 25.4454 3.49048   1
  -6   0   5 23.0331 3.55101   1
   5   0  -5 173.165 8.62096   1
  -5   0   5 165.903 8.41760   1
   4   0  -5 89.1894 5.97057   1
  -4   0   5 82.3696 5.53500   1
  -3   0  -5 1388.27 33.4269  -2
   3   0  -5 1388.27 33.4269   1
  -3   0   5 1132.95 27.1869   1
  -3   0   5 1132.46 21.9047   1
  -3   0   5 1117.83 22.4022   1
  -3   0   5 1097.44 21.7988   1
  -2   0  -5 281.377 10.8276  -2
   2   0  -5 281.377 10.8276   1
  -2   0  -5 305.544 9.75739  -2
   2   0  -5 305.544 9.75739   1
  -2   0  -5 285.044 9.37365  -2
   2   0  -5 285.044 9.37365   1
   2   0   5 286.817 8.42581  -2
  -2   0   5 286.817 8.42581   1
   2   0   5 317.557 10.5120  -2
  -2   0   5 317.557 10.5120   1
   2   0   5 293.106 8.35803  -2
  -2   0   5 293.106 8.35803   1
   2   0   5 290.172 10.5072  -2
  -2   0   5 290.172 10.5072   1
  -1   0  -5 7790.51 140.640  -2
   1   0  -5 7790.51 140.640   1
  -1   0  -5 7838.36 141.966  -2
   1   0  -5 7838.36 141.966   1
  -1   0  -5 7940.36 155.084  -2
   1   0  -5 7940.36 155.084   1
  -1   0  -5 7528.99 148.031  -2
   1   0  -5 7528.99 148.031   1
   1   0   5 7807.55 141.759  -2
  -1   0   5 7807.55 141.759   1
   1   0   5 7649.35 154.496  -2
  -1   0   5 7649.35 154.496   1
   1   0   5 7731.45 148.552  -2
  -1   0   5 7731.45 148.552   1
   1   0   5 7728.85 142.515  -2
  -1   0   5 7728.85 142.515   1
   1   0   5 7967.73 153.013  -2
  -1   0   5 7967.73 153.013   1
   1   0   5 7928.88 140.783  -2
  -1   0   5 7928.88 140.783   1
   0   0  -5 166.046 6.20147  -2
   0   0  -5 166.046 6.20147   1
   0   0  -5 158.170 6.15640  -2
   0   0  -5 158.170 6.15640   1
   0   0  -5 166.032 6.21869  -2
   0   0  -5 166.032 6.21869   1
   0   0  -5 171.156 7.46012  -2
   0   0  -5 171.156 7.46012   1
   0   0   5 169.250 6.58691  -2
   0   0   5 169.250 6.58691   1
   0   0   5 164.577 7.42684  -2
   0   0   5 164.577 7.42684   1
   0   0   5 165.750 7.66400  -2
   0   0   5 165.750 7.66400   1
   0   0   5 168.553 6.49021  -2
   0   0   5 168.553 6.49021   1
   0   0   5 183.669 6.82069  -2
   0   0   5 183.669 6.82069   1
   0   0   5 174.814 6.80593  -2
   0   0   5 174.814 6.80593   1
   1   0  -5 8655.79 171.576  -2
  -1   0  -5 8655.79 171.576   1
   1   0  -5 8927.72 176.038  -2
  -1   0  -5 8927.72 176.038   1
   1   0  -5 8652.38 159.632  -2
  -1   0  -5 8652.38 159.632   1
  -1   0   5 8895.89 175.324  -2
   1   0   5 8895.89 175.324   1
  -1   0   5 9019.33 160.412  -2
   1   0   5 9019.33 160.412   1
  -1   0   5 9028.29 169.520  -2
   1   0   5 9028.29 169.520   1
  -1   0   5 9027.25 176.156  -2
   1   0   5 9027.25 176.156   1
  -1   0   5 8861.09 162.528  -2
   1   0   5 8861.09 162.528   1
  -1   0   5 9269.90 162.017  -2
   1   0   5 9269.90 162.017   1
   2   0  -5 204.349 5.73574  -2
  -2   0  -5 204.349 5.73574   1
   2   0  -5 183.765 5.77502  -2
  -2   0  -5 183.765 5.77502   1
   2   0  -5 186.110 7.99993  -2
  -2   0  -5 186.110 7.99993   1
  -2   0   5 176.456 7.77684  -2
   2   0   5 176.456 7.77684   1
  -2   0   5 203.743 6.86297  -2
   2   0   5 203.743 6.86297   1
  -2   0   5 199.286 7.27697  -2
   2   0   5 199.286 7.27697   1
  -2   0   5 185.156 6.61347  -2
   2   0   5 185.156 6.61347   1
  -3   0  -5 575.377 12.6809   1
  -3   0  -5 532.191 17.2541   1
   3   0   5 534.279 15.3812   1
   3   0   5 517.328 16.0408   1
   3   0   5 548.123 12.9691   1
  -4   0  -5 6.93111 2.50426   1
   4   0   5 4.34035 1.48861   1
   4   0   5 2.78323 1.56674   1
  -5   0  -5 66.2798 5.99076   1
   5   0   5 74.5918 5.79093   1
   5   0   5 62.1893 4.31779   1
  -6   0  -5 68.6320 6.73244   1
   6   0   5 74.3326 4.96400   1
   6   0   5 74.5013 6.32136   1
  -7   0  -5 43.4245 5.71127   1
   7   0   5 23.3463 4.32351   1
   7   0   5 31.0201 3.54274   1
  -8   0  -5 395.323 18.0714   1
   8   0   5 415.497 17.9863   1
   8   0   5 388.336 13.9186   1
   8  -1  -5 58.2461 5.46409   1
  -8   1   5 54.0131 6.11444   1
  -7   1  -5 129.413 8.42511  -2
   7  -1  -5 129.413 8.42511   1
   7  -1   5 122.189 8.56748  -2
  -7   1   5 122.189 8.56748   1
  -6   1  -5 68.7421 5.79678  -2
   6  -1  -5 68.7421 5.79678   1
   6  -1   5 66.3310 5.96946  -2
  -6   1   5 66.3310 5.96946   1
  -5   1  -5 2414.42 55.1853  -2
   5  -1  -5 2414.42 55.1853   1
   5  -1   5 2525.33 54.0829  -2
  -5   1   5 2525.33 54.0829   1
  -4   1  -5 68.4191 5.08732  -2
   4  -1  -5 68.4191 5.08732   1
   4  -1   5 67.6283 5.04620  -2
  -4   1   5 67.6283 5.04620   1
   4  -1   5 73.5973 2.58656  -2
  -4   1   5 73.5973 2.58656   1
  -3   1  -5 2619.02 52.4611  -2
   3  -1  -5 2619.02 52.4611   1
  -3   1  -5 2621.15 52.1473  -2
   3  -1  -5 2621.15 52.1473   1
  -3   1  -5 2686.57 58.1013  -2
   3  -1  -5 2686.57 58.1013   1
   3  -1   5 2660.85 49.7845  -2
  -3   1   5 2660.85 49.7845   1
   3  -1   5 2642.83 55.4077  -2
  -3   1   5 2642.83 55.4077   1
   3  -1   5 2686.00 49.6476  -2
  -3   1   5 2686.00 49.6476   1
  -2   1  -5 172.190 6.68592  -2
   2  -1  -5 172.190 6.68592   1
  -2   1  -5 167.094 7.85938  -2
   2  -1  -5 167.094 7.85938   1
  -2   1  -5 156.957 6.46058  -2
   2  -1  -5 156.957 6.46058   1
   2  -1   5 180.852 7.62597  -2
  -2   1   5 180.852 7.62597   1
   2  -1   5 166.618 5.99668  -2
  -2   1   5 166.618 5.99668   1
   2  -1   5 163.196 7.48500  -2
  -2   1   5 163.196 7.48500   1
   2  -1   5 153.618 5.91041  -2
  -2   1   5 153.618 5.91041   1
  -1   1  -5 4182.96 79.8920  -2
   1  -1  -5 4182.96 79.8920   1
  -1   1  -5 4270.21 80.6529  -2
   1  -1  -5 4270.21 80.6529   1
   1  -1   5 4371.12 79.9777  -2
  -1   1   5 4371.12 79.9777   1
   1  -1   5 4364.71 85.0847  -2
  -1   1   5 4364.71 85.0847   1
   0   1  -5 294.724 8.98547  -2
   0  -1  -5 294.724 8.98547   1
   0  -1   5 302.175 9.16038  -2
   0   1   5 302.175 9.16038   1
  -1  -1  -5 1175.15 27.5074   1
  -1  -1  -5 1150.62 24.4171   1
  -1  -1  -5 1189.35 24.5958   1
  -1  -1  -5 1164.34 27.9136   1
   1   1   5 1167.04 25.4166   1
   1   1   5 1154.97 24.8189   1
   1   1   5 1198.16 27.8224   1
   1   1   5 1193.96 25.1420   1
   1   1   5 1170.39 27.7635   1
   1   1   5 1164.33 26.4235   1
  -2  -1  -5 5.57728 1.23872   1
  -2  -1  -5 4.66580 1.00629   1
  -2  -1  -5 5.56805 0.83372   1
  -2  -1  -5 6.61843 0.84314   1
  -2  -1  -5 4.61182 1.00309   1
  -2  -1  -5 5.50930 1.77000   1
   2   1   5 6.41503 1.24083   1
   2   1   5 1.86100 1.13573   1
   2   1   5 5.47683 1.10852   1
   2   1   5 5.59649 1.49456   1
   2   1   5 6.55178 1.23080   1
   2   1   5 3.39602 1.28821   1
  -3  -1  -5 2.20981 1.40382   1
   3   1   5 5.18362 1.39890   1
   3   1   5 3.05991 1.32448   1
  -4  -1  -5 1560.33 38.8225   1
   4   1   5 1581.42 36.6879   1
   4   1   5 1606.77 35.6112   1
  -5  -1  -5 66.3507 5.86469   1
   5   1   5 76.6596 4.62330   1
   5   1   5 71.8246 5.58802   1
  -6  -1  -5 950.878 28.6195   1
   6   1   5 975.443 27.1656   1
   6   1   5 949.427 23.9567   1
   7   1  -4 91.1448 7.73104  -2
  -7  -1  -5 91.1448 7.73104   1
   7   1   5 1.49580 1.29651   1
   7   1   5 0.53077 1.67705   1
   8   1  -4 1452.32 39.7229  -2
  -8  -1  -5 1452.32 39.7229   1
  -8  -1   4 1360.51 33.2867  -2
   8   1   5 1360.51 33.2867   1
  -8  -1   4 1383.11 38.4832  -2
   8   1   5 1383.11 38.4832   1
  -8   2  -5 4.33508 3.13805  -2
   8  -2  -5 4.33508 3.13805   1
   8  -2   5 1.58590 3.03692  -2
  -8   2   5 1.58590 3.03692   1
  -7   2  -5 587.445 19.7043  -2
   7  -2  -5 587.445 19.7043   1
   7  -2   5 577.288 20.2545  -2
  -7   2   5 577.288 20.2545   1
  -6   2  -5 18.8677 4.32918  -2
   6  -2  -5 18.8677 4.32918   1
   6  -2   5 17.2815 3.94757  -2
  -6   2   5 17.2815 3.94757   1
   5  -2  -5 2390.30 53.1529   1
  -5   2   5 2276.61 51.3218   1
   4  -2  -5 4.24719 1.83238   1
  -4   2   5 5.11315 1.07908   1
  -4   2   5 7.07772 2.12856   1
  -3   2  -5 2570.25 50.9076  -2
   3  -2  -5 2570.25 50.9076   1
  -3   2   5 1382.22 28.0185   1
  -3   2   5 1410.88 32.3896   1
  -3   2   5 1402.63 28.3262   1
  -2   2  -5 212.457 8.16812  -2
   2  -2  -5 212.457 8.16812   1
  -2   2   5 211.764 7.03779   1
  -2   2   5 213.360 5.87060   1
  -2   2   5 229.468 8.67120   1
  -2   2   5 202.537 7.03857   1
  -2   2   5 218.793 8.38206   1
   1  -2  -5 794.525 18.4429   1
   1  -2  -5 832.099 21.6110   1
   1  -2  -5 824.585 19.4978   1
   1  -2  -5 829.024 19.5764   1
  -1   2   5 793.475 18.8106   1
  -1   2   5 851.701 21.2488   1
  -1   2   5 822.776 19.4698   1
  -1   2   5 820.548 20.6812   1
  -1   2   5 861.382 18.5870   1
  -1   2   5 839.111 19.0020   1
   0  -2  -5 251.425 8.39671   1
   0  -2  -5 249.864 7.96557   1
   0  -2  -5 254.479 9.30764   1
   0  -2  -5 259.176 8.05151   1
   0   2   5 255.858 8.41313   1
   0   2   5 266.018 8.32452   1
   0   2   5 255.891 8.17592   1
   0   2   5 264.802 9.27565   1
   0   2   5 261.558 9.34275   1
  -1  -2  -5 0.55099 0.68028   1
  -1  -2  -5 0.05301 0.87880   1
  -1  -2  -5 0.87966 0.61485   1
  -1  -2  -5 1.73349 0.85541   1
   1   2   5 0.26050 0.76837   1
   1   2   5 1.25529 0.76918   1
   1   2   5 4.13447 1.15461   1
   1   2   5 0.15129 0.47404   1
   1   2   5 0.69838 0.94805   1
   1   2   5 0.51704 0.69114   1
  -2  -2  -5 1287.23 24.3920   1
  -2  -2  -5 1286.30 24.4348   1
  -2  -2  -5 1264.28 30.6213   1
  -2  -2  -5 1301.71 26.4073   1
   2   2   5 1302.47 26.6612   1
   2   2   5 1291.97 27.4730   1
   2   2   5 1297.66 26.6930   1
   2   2   5 1280.41 29.8994   1
   2   2   5 1305.59 29.6734   1
   3   2  -4 734.376 20.0314  -2
  -3  -2  -5 734.376 20.0314   1
  -3  -2   4 756.107 19.7058  -2
   3   2   5 756.107 19.7058   1
   4   2  -4 1678.15 40.0138  -2
  -4  -2  -5 1678.15 40.0138   1
  -4  -2   4 1725.80 38.3402  -2
   4   2   5 1725.80 38.3402   1
  -4  -2   4 1668.76 37.7248  -2
   4   2   5 1668.76 37.7248   1
   5   2  -4 259.892 11.4800  -2
  -5  -2  -5 259.892 11.4800   1
  -5  -2   4 277.619 11.0479  -2
   5   2   5 277.619 11.0479   1
  -5  -2   4 251.158 9.10905  -2
   5   2   5 251.158 9.10905   1
   6   2  -4 113.221 7.90854  -2
  -6  -2  -5 113.221 7.90854   1
  -6  -2   4 152.304 8.54602  -2
   6   2   5 152.304 8.54602   1
  -6  -2   4 126.237 6.13246  -2
   6   2   5 126.237 6.13246   1
   7   2  -4 135.166 9.19238  -2
  -7  -2  -5 135.166 9.19238   1
  -7  -2   4 113.095 6.09249  -2
   7   2   5 113.095 6.09249   1
  -7  -2   4 133.126 8.87827  -2
   7   2   5 133.126 8.87827   1
   8   2  -4 185.893 11.6351  -2
  -8  -2  -5 185.893 11.6351   1
  -8  -2   4 179.609 11.4034  -2
   8   2   5 179.609 11.4034   1
  -8  -2   4 186.460 8.31711  -2
   8   2   5 186.460 8.31711   1
   8  -3  -5 42.0955 5.30031   1
  -8   3   5 40.8365 5.94027   1
   7  -3  -5 644.248 21.2452   1
  -7   3   5 632.444 21.7522   1
   6  -3  -5 24.6925 3.69481   1
  -6   3   5 21.8570 3.69743   1
   5  -3  -5 495.574 16.8853   1
  -5   3   5 478.919 16.3280   1
   4  -3  -5 8.82858 2.41175   1
  -4   3   5 4.18864 1.75115   1
  -4   3   5 9.08324 1.39746   1
  -4   3   5 7.94691 1.18296   1
   3  -3  -5 2.90303 1.60413   1
   3  -3  -5 2.76534 1.44163   1
  -3   3   5 1.11291 1.08541   1
  -3   3   5 1.02568 0.93383   1
  -3   3   5 0.79299 0.77777   1
   2  -3  -5 1833.84 42.0438   1
   2  -3  -5 1844.26 38.4615   1
  -2   3   5 1820.42 37.0395   1
  -2   3   5 1889.25 37.6774   1
  -2   3   5 1896.57 41.7287   1
  -2   3   5 1837.45 39.6005   1
  -2   3   5 1854.50 37.3161   1
  -1   3  -4 473.632 12.6579  -2
   1  -3  -5 473.632 12.6579   1
   1  -3   4 480.135 14.3560  -2
  -1   3   5 480.135 14.3560   1
   1  -3   4 471.714 13.5152  -2
  -1   3   5 471.714 13.5152   1
   1  -3   4 499.216 13.3197  -2
  -1   3   5 499.216 13.3197   1
   1  -3   4 472.835 12.6748  -2
  -1   3   5 472.835 12.6748   1
   0   3  -4 1747.19 34.8592  -2
   0  -3  -5 1747.19 34.8592   1
   0   3  -4 1803.81 36.8441  -2
   0  -3  -5 1803.81 36.8441   1
   0   3  -4 1748.36 34.9921  -2
   0  -3  -5 1748.36 34.9921   1
   0   3  -4 1788.25 39.1069  -2
   0  -3  -5 1788.25 39.1069   1
   0   3  -4 1660.14 37.1033  -2
   0  -3  -5 1660.14 37.1033   1
   0  -3   4 1768.96 37.5028  -2
   0   3   5 1768.96 37.5028   1
   0  -3   4 1758.85 38.3601  -2
   0   3   5 1758.85 38.3601   1
   0  -3   4 1714.83 35.6296  -2
   0   3   5 1714.83 35.6296   1
   0  -3   4 1730.29 37.5162  -2
   0   3   5 1730.29 37.5162   1
   0  -3   4 1751.94 39.3084  -2
   0   3   5 1751.94 39.3084   1
   0  -3   4 1771.18 35.6738  -2
   0   3   5 1771.18 35.6738   1
   1   3  -4 161.471 7.01535  -2
  -1  -3  -5 161.471 7.01535   1
   1   3  -4 177.018 5.47707  -2
  -1  -3  -5 177.018 5.47707   1
   1   3  -4 168.026 5.55763  -2
  -1  -3  -5 168.026 5.55763   1
  -1  -3   4 183.489 7.47785  -2
   1   3   5 183.489 7.47785   1
  -1  -3   4 183.529 6.67936  -2
   1   3   5 183.529 6.67936   1
  -1  -3   4 159.565 6.50499  -2
   1   3   5 159.565 6.50499   1
  -1  -3   4 154.880 6.22555  -2
   1   3   5 154.880 6.22555   1
  -1  -3   4 160.000 6.27894  -2
   1   3   5 160.000 6.27894   1
  -1  -3   4 169.886 7.30341  -2
   1   3   5 169.886 7.30341   1
   2   3  -4 5183.37 99.6340  -2
  -2  -3  -5 5183.37 99.6340   1
   2   3  -4 5318.09 108.612  -2
  -2  -3  -5 5318.09 108.612   1
  -2  -3   4 5442.37 105.518  -2
   2   3   5 5442.37 105.518   1
  -2  -3   4 5802.90 100.982  -2
   2   3   5 5802.90 100.982   1
  -2  -3   4 5574.79 110.351  -2
   2   3   5 5574.79 110.351   1
  -2  -3   4 5458.69 107.599  -2
   2   3   5 5458.69 107.599   1
   3   3  -4 1431.05 33.1973  -2
  -3  -3  -5 1431.05 33.1973   1
  -3  -3   4 1327.42 31.9490  -2
   3   3   5 1327.42 31.9490   1
  -3  -3   4 1358.03 31.0599  -2
   3   3   5 1358.03 31.0599   1
   4   3  -4 2913.42 63.1183  -2
  -4  -3  -5 2913.42 63.1183   1
  -4  -3   4 2828.46 60.2838  -2
   4   3   5 2828.46 60.2838   1
  -5  -3  -5 213.123 10.7353   1
  -5  -3   4 455.684 13.8925  -2
   5   3   5 455.684 13.8925   1
  -6  -3  -5 40.9064 4.97631   1
   6   3   5 39.8939 3.38844   1
   6   3   5 34.8485 4.30751   1
  -7  -3  -5 13.1862 3.50951   1
   7   3   5 7.93410 2.75160   1
  -8  -3  -5 89.5483 8.12906   1
   8   3   5 97.4975 8.03738   1
   7  -4  -5 342.485 14.8623   1
  -7   4   5 362.859 15.6011   1
   6  -4  -5 40.4952 4.77963   1
  -6   4   5 50.0348 5.22864   1
  -5   4  -4 367.264 14.3770  -2
   5  -4  -5 367.264 14.3770   1
   5  -4   4 360.732 9.17524  -2
  -5   4   5 360.732 9.17524   1
   5  -4   4 337.638 13.3241  -2
  -5   4   5 337.638 13.3241   1
  -4   4  -4 158.137 8.50499  -2
   4  -4  -5 158.137 8.50499   1
   4  -4   4 142.009 5.40198  -2
  -4   4   5 142.009 5.40198   1
   4  -4   4 150.098 7.74311  -2
  -4   4   5 150.098 7.74311   1
   4  -4   4 154.426 5.90791  -2
  -4   4   5 154.426 5.90791   1
  -3   4  -4 241.153 10.3136  -2
   3  -4  -5 241.153 10.3136   1
  -3   4  -4 283.183 9.82192  -2
   3  -4  -5 283.183 9.82192   1
   3  -4   4 245.273 8.12167  -2
  -3   4   5 245.273 8.12167   1
   3  -4   4 254.154 8.47399  -2
  -3   4   5 254.154 8.47399   1
   3  -4   4 258.340 9.78107  -2
  -3   4   5 258.340 9.78107   1
  -2   4  -4 3559.14 76.3030  -2
   2  -4  -5 3559.14 76.3030   1
  -2   4  -4 3550.83 69.7092  -2
   2  -4  -5 3550.83 69.7092   1
  -2   4  -4 3484.72 69.0804  -2
   2  -4  -5 3484.72 69.0804   1
   2  -4   4 3575.21 71.7701  -2
  -2   4   5 3575.21 71.7701   1
   2  -4   4 3667.85 68.6518  -2
  -2   4   5 3667.85 68.6518   1
   2  -4   4 3731.90 76.1813  -2
  -2   4   5 3731.90 76.1813   1
   2  -4   4 3637.47 69.1015  -2
  -2   4   5 3637.47 69.1015   1
   2  -4   4 3725.09 71.9583  -2
  -2   4   5 3725.09 71.9583   1
  -1   4  -4 1857.58 37.9800  -2
   1  -4  -5 1857.58 37.9800   1
  -1   4  -4 1891.98 40.6097  -2
   1  -4  -5 1891.98 40.6097   1
  -1   4  -4 1900.53 42.7814  -2
   1  -4  -5 1900.53 42.7814   1
  -1   4  -4 1888.00 38.2119  -2
   1  -4  -5 1888.00 38.2119   1
   1  -4   4 1916.37 40.2089  -2
  -1   4   5 1916.37 40.2089   1
   1  -4   4 1850.45 39.6772  -2
  -1   4   5 1850.45 39.6772   1
   1  -4   4 1910.12 42.6970  -2
  -1   4   5 1910.12 42.6970   1
   1  -4   4 1861.16 38.6927  -2
  -1   4   5 1861.16 38.6927   1
   1  -4   4 1878.18 38.3533  -2
  -1   4   5 1878.18 38.3533   1
   0   4  -4 392.368 10.4988  -2
   0  -4  -5 392.368 10.4988   1
   0   4  -4 404.771 11.0297  -2
   0  -4  -5 404.771 11.0297   1
   0  -4   4 405.229 12.9544  -2
   0   4   5 405.229 12.9544   1
   0  -4   4 409.008 11.5725  -2
   0   4   5 409.008 11.5725   1
   0  -4   4 403.563 11.8621  -2
   0   4   5 403.563 11.8621   1
   0  -4   4 379.751 11.8080  -2
   0   4   5 379.751 11.8080   1
  -1  -4  -5 457.356 13.8734   1
  -1  -4  -5 456.188 10.8367   1
  -1  -4  -5 464.633 11.1628   1
  -1  -4  -5 460.373 11.4013   1
   1   4   5 435.752 13.5937   1
   1   4   5 454.140 13.8480   1
   1   4   5 447.380 12.4783   1
   1   4   5 443.749 12.2973   1
   1   4   5 452.487 12.7717   1
   1   4   5 461.402 12.3674   1
  -2  -4  -5 205.315 8.92253   1
  -2  -4  -5 211.211 6.89190   1
   2   4   5 211.738 6.74251   1
   2   4   5 214.912 8.11381   1
   2   4   5 217.154 8.24649   1
   2   4   5 208.421 8.94558   1
  -3  -4  -5 12.9480 2.63317   1
   3   4   5 10.6087 2.08034   1
   3   4   5 9.78279 1.85268   1
  -4  -4  -5 822.724 23.6443   1
   4   4   5 813.155 21.1237   1
   4   4   5 807.925 20.7275   1
  -5  -4  -5 129.563 8.32523   1
   5   4   5 152.926 7.70889   1
   5   4   5 133.784 6.18152   1
  -6  -4  -5 26.9135 4.19217   1
   6   4   5 28.3898 2.82343   1
   6   4   5 32.5949 3.91572   1
  -7  -4  -5 409.638 17.2565   1
   7   4   5 419.795 16.0548   1
   7   4   5 403.901 12.1130   1
  -8  -4  -5 75.2029 7.49480   1
  -7   5  -4 31.1030 4.64750  -2
   7  -5  -5 31.1030 4.64750   1
   7  -5   4 35.8590 5.29147  -2
  -7   5   5 35.8590 5.29147   1
  -6   5  -4 478.841 17.9655  -2
   6  -5  -5 478.841 17.9655   1
   6  -5   4 450.631 16.9243  -2
  -6   5   5 450.631 16.9243   1
  -5   5  -4 144.621 9.08950  -2
   5  -5  -5 144.621 9.08950   1
   5  -5   4 138.287 4.85943  -2
  -5   5   5 138.287 4.85943   1
   5  -5   4 128.143 5.43702  -2
  -5   5   5 128.143 5.43702   1
   5  -5   4 130.694 7.91717  -2
  -5   5   5 130.694 7.91717   1
  -4   5  -4 1009.62 27.6447  -2
   4  -5  -5 1009.62 27.6447   1
   4  -5   4 963.820 21.5472  -2
  -4   5   5 963.820 21.5472   1
   4  -5   4 948.772 25.2181  -2
  -4   5   5 948.772 25.2181   1
   4  -5   4 934.997 21.8215  -2
  -4   5   5 934.997 21.8215   1
  -3   5  -4 818.782 20.9002  -2
   3  -5  -5 818.782 20.9002   1
  -3   5   5 48.7076 3.52891   1
  -3   5   5 57.6175 4.36264   1
  -3   5   5 52.3400 3.76453   1
  -3   5   5 54.4886 3.87550   1
   2  -5  -5 2775.14 56.0230   1
   2  -5  -5 2841.61 61.3752   1
   2  -5  -5 2822.33 59.7274   1
   2  -5  -5 2702.82 55.1463   1
  -2   5   5 2792.78 54.5536   1
  -2   5   5 2821.29 57.4928   1
  -2   5   5 2849.83 55.0204   1
  -2   5   5 2814.12 60.6166   1
  -2   5   5 2695.01 56.5038   1
   1  -5  -5 11.0263 1.92006   1
   1  -5  -5 7.57927 1.81713   1
   1  -5  -5 10.4024 2.23643   1
   1  -5  -5 10.2241 1.63623   1
  -1   5   5 10.0204 1.77830   1
  -1   5   5 9.66738 1.83337   1
  -1   5   5 8.68399 1.74987   1
  -1   5   5 11.2133 1.94130   1
  -1   5   5 7.74683 2.03715   1
   0  -5  -5 2082.92 43.2125   1
   0  -5  -5 2066.45 41.7382   1
   0  -5  -5 2090.12 41.5579   1
   0   5   5 2084.85 42.3238   1
   0   5   5 2130.26 46.7840   1
   0   5   5 2134.32 42.7751   1
   0   5   5 2032.46 45.2399   1
   0   5   5 2145.80 45.5641   1
   0   5   5 2111.97 42.6941   1
  -1  -5  -5 103.146 4.06255   1
  -1  -5  -5 105.113 4.34259   1
   1   5   5 98.5043 5.68647   1
   1   5   5 105.439 4.86826   1
   1   5   5 98.0742 4.99816   1
   1   5   5 94.2225 5.65721   1
   1   5   5 97.1577 4.92228   1
   1   5   5 110.373 5.24295   1
  -2  -5  -5 434.811 14.2981   1
   2   5   5 413.866 11.4356   1
   2   5   5 419.890 14.1130   1
   2   5   5 421.566 12.0221   1
   2   5   5 402.840 13.0717   1
  -3  -5  -5 18.0725 2.98406   1
   3   5   5 15.2083 2.70601   1
   3   5   5 17.4157 2.28032   1
   3   5   5 14.3777 2.21788   1
  -4  -5  -5 73.3549 5.86601   1
   4   5   5 77.8380 6.06088   1
   4   5   5 75.6704 4.84889   1
   4   5   5 70.5081 4.41673   1
   5   5  -3 427.713 16.3692  -2
  -5  -5  -5 427.713 16.3692   1
  -5  -5   3 444.889 13.1684  -2
   5   5   5 444.889 13.1684   1
   6   5  -3 1005.51 29.2830  -2
  -6  -5  -5 1005.51 29.2830   1
  -6  -5   3 1001.65 24.1830  -2
   6   5   5 1001.65 24.1830   1
   7   5  -3 592.574 21.7604  -2
  -7  -5  -5 592.574 21.7604   1
  -7  -5   3 636.111 23.2953  -2
   7   5   5 636.111 23.2953   1
  -8  -5   3 184.880 12.4374  -2
   8   5   5 184.880 12.4374   1
   7  -6  -5 1.88383 2.38223   1
  -7   6   5 2.98398 2.57435   1
   6  -6  -5 275.552 13.4834   1
  -6   6   5 275.865 12.8367   1
   5  -6  -5 -0.7988 1.28000   1
  -5   6   5 -0.1931 1.26993   1
  -5   6   5 -0.0842 0.80206   1
  -5   6   5 0.40408 1.03742   1
   4  -6  -5 332.385 12.6556   1
   4  -6  -5 338.892 13.7456   1
  -4   6   5 326.455 10.6713   1
  -4   6   5 331.405 12.2664   1
  -4   6   5 320.155 10.3082   1
   3  -6  -5 1.92268 1.43340   1
   3  -6  -5 2.23670 1.22630   1
   3  -6  -5 1.97586 1.41202   1
   3  -6  -5 1.93197 1.55209   1
  -3   6   5 2.20228 1.41550   1
  -3   6   5 4.10960 1.39577   1
  -3   6   5 1.70961 1.16994   1
  -3   6   5 0.46112 1.12109   1
   2  -6  -5 542.612 17.3801   1
   2  -6  -5 503.469 15.1678   1
   2  -6  -5 540.649 15.8107   1
   2  -6  -5 529.156 15.5040   1
  -2   6   5 547.807 14.9081   1
  -2   6   5 530.710 14.8996   1
  -2   6   5 521.912 14.7568   1
  -2   6   5 552.658 15.8427   1
   1  -6  -5 36.3058 3.28228   1
   1  -6  -5 31.5963 3.29940   1
   1  -6  -5 31.2949 2.85817   1
  -1   6   5 36.7458 2.88517   1
  -1   6   5 33.1711 3.23425   1
  -1   6   5 29.7254 3.03862   1
  -1   6   5 30.8748 3.33177   1
  -1   6   5 37.0575 3.75095   1
   0  -6  -5 170.252 6.83464   1
   0  -6  -5 159.744 6.48325   1
   0   6   5 171.143 7.34457   1
   0   6   5 173.653 6.14829   1
   0   6   5 163.090 8.06235   1
   0   6   5 167.319 7.90813   1
   0   6   5 173.533 7.24460   1
   0   6   5 177.724 7.22841   1
   1   6  -3 1336.83 27.0683  -2
  -1  -6  -5 1336.83 27.0683   1
   1   6  -3 1380.86 27.6662  -2
  -1  -6  -5 1380.86 27.6662   1
  -1  -6   3 1256.06 30.7432  -2
   1   6   5 1256.06 30.7432   1
  -1  -6   3 1352.04 32.6060  -2
   1   6   5 1352.04 32.6060   1
  -1  -6   3 1415.45 33.3012  -2
   1   6   5 1415.45 33.3012   1
   2   6  -3 981.146 20.2696  -2
  -2  -6  -5 981.146 20.2696   1
  -2  -6   3 936.180 24.1481  -2
   2   6   5 936.180 24.1481   1
  -2  -6   3 884.005 22.6450  -2
   2   6   5 884.005 22.6450   1
  -2  -6   3 933.877 25.5013  -2
   2   6   5 933.877 25.5013   1
  -3  -6   3 704.805 19.2498  -2
   3   6   5 704.805 19.2498   1
  -3  -6   3 709.159 21.5637  -2
   3   6   5 709.159 21.5637   1
   4   6  -3 365.771 14.7022  -2
  -4  -6  -5 365.771 14.7022   1
  -4  -6   3 383.861 12.3859  -2
   4   6   5 383.861 12.3859   1
  -4  -6   3 392.831 15.4448  -2
   4   6   5 392.831 15.4448   1
   5   6  -3 308.479 13.6871  -2
  -5  -6  -5 308.479 13.6871   1
  -5  -6   3 300.736 10.4350  -2
   5   6   5 300.736 10.4350   1
  -5  -6   3 297.032 13.9824  -2
   5   6   5 297.032 13.9824   1
   6   6  -3 12.4104 4.36900  -2
  -6  -6  -5 12.4104 4.36900   1
  -6  -6   3 20.5058 3.28564  -2
   6   6   5 20.5058 3.28564   1
  -6  -6   3 27.3788 5.85325  -2
   6   6   5 27.3788 5.85325   1
  -7  -6  -5 463.477 18.8748   1
  -7  -6   3 512.562 21.1485  -2
   7   6   5 512.562 21.1485   1
  -6   7  -3 889.782 27.0408  -2
   6  -7  -5 889.782 27.0408   1
  -6   7   5 821.643 25.5461   1
  -6   7   5 812.655 18.9489   1
  -5   7  -3 14.3464 4.11994  -2
   5  -7  -5 14.3464 4.11994   1
  -5   7   5 12.1816 2.03967   1
  -5   7   5 13.8065 2.40918   1
  -5   7   5 17.6368 3.61453   1
  -4   7  -3 1589.66 38.5420  -2
   4  -7  -5 1589.66 38.5420   1
   4  -7   3 1577.69 34.5248  -2
  -4   7   5 1577.69 34.5248   1
   4  -7   3 1559.90 34.1477  -2
  -4   7   5 1559.90 34.1477   1
  -3   7  -3 95.8246 6.29275  -2
   3  -7  -5 95.8246 6.29275   1
  -3   7  -3 103.471 6.61739  -2
   3  -7  -5 103.471 6.61739   1
  -3   7  -3 95.7825 6.39218  -2
   3  -7  -5 95.7825 6.39218   1
   3  -7   3 95.1610 5.83232  -2
  -3   7   5 95.1610 5.83232   1
   3  -7   3 89.0934 5.70569  -2
  -3   7   5 89.0934 5.70569   1
   3  -7   3 100.164 6.02191  -2
  -3   7   5 100.164 6.02191   1
   3  -7   3 101.171 6.40688  -2
  -3   7   5 101.171 6.40688   1
  -2   7  -3 151.470 7.29438  -2
   2  -7  -5 151.470 7.29438   1
  -2   7  -3 145.450 7.34278  -2
   2  -7  -5 145.450 7.34278   1
  -2   7  -3 152.488 7.19436  -2
   2  -7  -5 152.488 7.19436   1
   2  -7   3 147.484 7.37373  -2
  -2   7   5 147.484 7.37373   1
   2  -7   3 146.030 7.13190  -2
  -2   7   5 146.030 7.13190   1
   2  -7   3 148.176 7.95877  -2
  -2   7   5 148.176 7.95877   1
  -1   7  -3 32.8328 3.39190  -2
   1  -7  -5 32.8328 3.39190   1
  -1   7  -3 26.1806 2.94336  -2
   1  -7  -5 26.1806 2.94336   1
  -1   7  -3 33.9548 2.88406  -2
   1  -7  -5 33.9548 2.88406   1
   1  -7   3 40.7982 4.00908  -2
  -1   7   5 40.7982 4.00908   1
   1  -7   3 37.1188 3.98414  -2
  -1   7   5 37.1188 3.98414   1
   1  -7   3 32.4627 3.37361  -2
  -1   7   5 32.4627 3.37361   1
   1  -7   3 37.9763 3.58918  -2
  -1   7   5 37.9763 3.58918   1
   0   7  -3 1128.23 24.5253  -2
   0  -7  -5 1128.23 24.5253   1
   0   7  -3 1112.37 24.6446  -2
   0  -7  -5 1112.37 24.6446   1
   0  -7   3 1102.53 26.0501  -2
   0   7   5 1102.53 26.0501   1
   0  -7   3 1082.70 28.7207  -2
   0   7   5 1082.70 28.7207   1
   0  -7   3 1039.08 28.1541  -2
   0   7   5 1039.08 28.1541   1
   1   7  -3 749.695 16.8710  -2
  -1  -7  -5 749.695 16.8710   1
   1   7  -3 806.835 17.8143  -2
  -1  -7  -5 806.835 17.8143   1
  -1  -7   3 776.177 22.2351  -2
   1   7   5 776.177 22.2351   1
  -1  -7   3 753.455 21.5613  -2
   1   7   5 753.455 21.5613   1
  -1  -7   3 761.926 20.2974  -2
   1   7   5 761.926 20.2974   1
  -2  -7   3 1141.14 28.1037  -2
   2   7   5 1141.14 28.1037   1
   3   7   5 278.930 10.5863   1
   3   7   5 272.377 8.85646   1
   3   7   5 279.889 12.4571   1
   4   7   5 67.1783 4.70519   1
   4   7   5 58.5302 5.84339   1
   5   7   5 431.518 17.3212   1
   5   7   5 431.699 13.5850   1
   6   7   5 1.48608 1.07817   1
   6   7   5 -0.6118 1.94352   1
   7   7   5 -0.7662 2.07429   1
   6  -8   3 34.2424 3.35947  -2
  -6   8   5 34.2424 3.35947   1
   6  -8   3 32.8920 5.19591  -2
  -6   8   5 32.8920 5.19591   1
  -5   8  -3 114.536 7.72788  -2
   5  -8  -5 114.536 7.72788   1
   5  -8   3 118.823 5.99330  -2
  -5   8   5 118.823 5.99330   1
   5  -8   3 119.568 6.35510  -2
  -5   8   5 119.568 6.35510   1
  -4   8  -3 450.059 15.6873  -2
   4  -8  -5 450.059 15.6873   1
  -4   8  -3 463.890 16.2766  -2
   4  -8  -5 463.890 16.2766   1
   4  -8   3 449.318 14.4671  -2
  -4   8   5 449.318 14.4671   1
   4  -8   3 449.509 14.1778  -2
  -4   8   5 449.509 14.1778   1
  -3   8  -3 609.778 18.6801  -2
   3  -8  -5 609.778 18.6801   1
  -3   8  -3 639.849 19.2321  -2
   3  -8  -5 639.849 19.2321   1
  -3   8  -3 618.586 18.8214  -2
   3  -8  -5 618.586 18.8214   1
   3  -8   3 612.302 17.8643  -2
  -3   8   5 612.302 17.8643   1
   3  -8   3 609.176 17.7214  -2
  -3   8   5 609.176 17.7214   1
  -2   8  -3 191.852 9.11306  -2
   2  -8  -5 191.852 9.11306   1
  -2   8  -3 181.959 8.79848  -2
   2  -8  -5 181.959 8.79848   1
   2  -8   3 195.666 9.08121  -2
  -2   8   5 195.666 9.08121   1
   2  -8   3 200.875 9.19874  -2
  -2   8   5 200.875 9.19874   1
   1  -8  -5 90.9492 5.72301   1
   1  -8  -5 101.524 5.81201   1
  -1   8   5 99.6755 6.08301   1
  -1   8   5 108.520 6.92771   1
  -1   8   5 102.907 6.08184   1
   0  -8  -5 23.4698 2.89433   1
   0  -8  -5 22.9255 2.64010   1
   0   8   5 22.0491 3.40588   1
   0   8   5 22.4799 3.41808   1
  -1  -8  -5 1286.85 26.8466   1
  -1  -8  -5 1284.00 26.0344   1
  -1  -8  -5 1218.16 28.3856   1
   1   8   5 1269.60 31.0470   1
   1   8   5 1279.68 33.0114   1
   1   8   5 1272.95 32.3462   1
  -2  -8  -5 157.624 6.22836   1
   2   8   5 151.417 8.78735   1
   2   8   5 161.210 8.23381   1
   2   8   5 168.424 7.46475   1
   3   8   5 897.584 24.0970   1
   3   8   5 874.180 26.4990   1
   3   8   5 890.259 22.2115   1
   4   8   5 43.8222 4.08201   1
   4   8   5 42.0287 5.26887   1
   5   8   5 198.606 11.5638   1
   5   8   5 162.480 7.87913   1
  -6  -8   2 53.0100 4.82813  -2
   6   8   5 53.0100 4.82813   1
  -6  -8   2 57.9067 8.21940  -2
   6   8   5 57.9067 8.21940   1
   5  -9  -5 12.9272 3.63734   1
   5  -9   3 11.7214 4.21149  -2
  -5   9   5 11.7214 4.21149   1
   4  -9  -5 22.0983 3.79790   1
   4  -9  -5 19.3282 3.80690   1
  -4   9   5 24.8687 3.75849   1
  -4   9   5 17.5181 3.27294   1
   3  -9  -5 463.593 16.1634   1
   3  -9  -5 477.589 16.0710   1
   3  -9  -5 470.564 16.2605   1
  -3   9   5 466.220 17.0557   1
  -3   9   5 464.693 15.3197   1
  -3   9   5 459.963 15.2925   1
   2  -9  -5 -0.6471 1.31166   1
   2  -9  -5 -0.1975 1.35494   1
  -2   9   5 0.20235 1.30016   1
  -2   9   5 -0.8601 1.19028   1
  -2   9   5 -0.9502 1.22740   1
   1  -9  -5 808.027 21.3184   1
   1  -9  -5 803.577 21.5188   1
  -1   9   5 817.440 24.4820   1
  -1   9   5 793.299 21.7817   1
  -1   9   5 796.821 21.9772   1
   0  -9  -5 17.4065 2.72325   1
   0  -9  -5 15.2010 2.95383   1
   0  -9  -5 16.0406 2.36632   1
   0   9   5 15.6751 3.32736   1
  -1  -9  -5 7.11846 1.68695   1
  -1  -9  -5 5.09001 1.77660   1
  -1  -9  -5 7.67326 1.44543   1
   1   9   5 9.03042 2.84310   1
   2   9  -2 54.9502 3.97309  -2
  -2  -9  -5 54.9502 3.97309   1
  -2  -9   2 52.6037 5.12870  -2
   2   9   5 52.6037 5.12870   1
  -2  -9   2 56.1351 6.48568  -2
   2   9   5 56.1351 6.48568   1
  -3  -9   2 38.9039 6.02008  -2
   3   9   5 38.9039 6.02008   1
  -3  -9   2 49.8780 4.71726  -2
   3   9   5 49.8780 4.71726   1
  -4  -9   2 339.524 15.9240  -2
   4   9   5 339.524 15.9240   1
  -5  -9   2 406.150 18.0752  -2
   5   9   5 406.150 18.0752   1
  -6  -9   2 266.801 15.3601  -2
   6   9   5 266.801 15.3601   1
  -4  10  -2 18.4246 5.79355  -2
   4 -10  -5 18.4246 5.79355   1
   4 -10   2 23.7394 5.53317  -2
  -4  10   5 23.7394 5.53317   1
  -3  10  -2 478.278 17.1654  -2
   3 -10  -5 478.278 17.1654   1
  -3  10  -2 494.279 17.2867  -2
   3 -10  -5 494.279 17.2867   1
   3 -10   2 493.351 16.4902  -2
  -3  10   5 493.351 16.4902   1
   3 -10   2 457.976 16.3844  -2
  -3  10   5 457.976 16.3844   1
  -2  10  -2 -3.9682 3.50185  -2
   2 -10  -5 -3.9682 3.50185   1
  -2  10  -2 -6.0838 3.29572  -2
   2 -10  -5 -6.0838 3.29572   1
   2 -10   2 -1.4547 3.46480  -2
  -2  10   5 -1.4547 3.46480   1
   2 -10   2 -2.6766 3.77158  -2
  -2  10   5 -2.6766 3.77158   1
   2 -10   2 3.45222 3.95647  -2
  -2  10   5 3.45222 3.95647   1
  -1  10  -2 694.577 20.0715  -2
   1 -10  -5 694.577 20.0715   1
  -1  10  -2 730.333 21.4169  -2
   1 -10  -5 730.333 21.4169   1
  -1  10  -2 705.667 19.9042  -2
   1 -10  -5 705.667 19.9042   1
   1 -10   2 730.334 21.2626  -2
  -1  10   5 730.334 21.2626   1
   1 -10   2 805.109 25.1288  -2
  -1  10   5 805.109 25.1288   1
   0  10  -2 250.641 9.15470  -2
   0 -10  -5 250.641 9.15470   1
   0  10  -2 247.729 9.55672  -2
   0 -10  -5 247.729 9.55672   1
   0  10  -2 247.450 10.4535  -2
   0 -10  -5 247.450 10.4535   1
   0 -10   2 290.245 13.5628  -2
   0  10   5 290.245 13.5628   1
   1  10  -2 150.152 6.04339  -2
  -1 -10  -5 150.152 6.04339   1
   1  10  -2 146.779 7.24798  -2
  -1 -10  -5 146.779 7.24798   1
  -1 -10   2 134.785 9.31653  -2
   1  10   5 134.785 9.31653   1
   2  10  -2 63.2054 4.35308  -2
  -2 -10  -5 63.2054 4.35308   1
  -2 -10   2 69.4366 7.15617  -2
   2  10   5 69.4366 7.15617   1
  -3 -10   2 73.7425 7.93794  -2
   3  10   5 73.7425 7.93794   1
  -3 -10   2 80.5178 6.27241  -2
   3  10   5 80.5178 6.27241   1
   4  10   5 363.017 16.7852   1
   5  10   5 1.21198 2.51472   1
   3 -11  -5 2.94954 2.25437   1
   3 -11  -5 1.09937 1.90642   1
   3 -11   2 1.96444 3.37106  -2
  -3  11   5 1.96444 3.37106   1
   3 -11   2 6.73034 3.15462  -2
  -3  11   5 6.73034 3.15462   1
  -2  11  -2 186.948 9.89114  -2
   2 -11  -5 186.948 9.89114   1
  -2  11  -2 187.748 10.4697  -2
   2 -11  -5 187.748 10.4697   1
  -2  11  -2 170.412 9.42469  -2
   2 -11  -5 170.412 9.42469   1
   2 -11   2 194.069 10.4053  -2
  -2  11   5 194.069 10.4053   1
   2 -11   2 188.448 10.0602  -2
  -2  11   5 188.448 10.0602   1
   2 -11   2 180.765 11.5551  -2
  -2  11   5 180.765 11.5551   1
  -1  11  -2 405.387 14.4110  -2
   1 -11  -5 405.387 14.4110   1
  -1  11  -2 402.009 15.2767  -2
   1 -11  -5 402.009 15.2767   1
  -1  11  -2 406.900 13.8821  -2
   1 -11  -5 406.900 13.8821   1
   1 -11   2 432.536 18.2641  -2
  -1  11   5 432.536 18.2641   1
   0 -11  -5 297.029 10.3116   1
   0 -11  -5 300.302 12.2435   1
   0 -11  -5 303.244 11.0362   1
   0  11   5 295.275 14.4786   1
  -1 -11  -5 1.33109 1.10132   1
  -1 -11  -5 -0.0238 1.49314   1
   1  11   5 0.98120 1.76338   1
   2  11   5 334.590 15.8236   1
   3  11   5 83.6778 6.02854   1
   3  11   5 82.2563 7.95381   1
   0 -12  -5 141.224 6.61297   1
   0 -12  -5 129.972 6.97954   1
   0 -12  -5 130.574 8.32770   1
   0  12   5 145.317 10.9058   1
  -1 -12  -5 1.51184 1.18125   1
  -1 -12  -5 2.11070 1.63843   1
  -1 -10  -9 45.0298 6.54120  -2
   1  10  -6 45.0298 6.54120   1
   1  10   9 38.6841 3.71642  -2
  -1 -10   6 38.6841 3.71642   1
   1  10   9 42.2524 5.23596  -2
  -1 -10   6 42.2524 5.23596   1
   1  10   9 26.5703 3.51690  -2
  -1 -10   6 26.5703 3.51690   1
   0 -10  -9 109.755 10.1404  -2
   0  10  -6 109.755 10.1404   1
   0  10   9 100.652 6.80823  -2
   0 -10   6 100.652 6.80823   1
   0  10   9 114.061 8.34468  -2
   0 -10   6 114.061 8.34468   1
   0  10   9 115.451 8.12932  -2
   0 -10   6 115.451 8.12932   1
  -3  -9  -9 295.188 15.0948  -2
   3   9  -6 295.188 15.0948   1
   3   9   9 282.763 10.9657  -2
  -3  -9   6 282.763 10.9657   1
   2   9  -6 97.1147 8.16259   1
   2   9   9 119.379 5.98208  -2
  -2  -9   6 119.379 5.98208   1
   2   9   9 116.386 8.08267  -2
  -2  -9   6 116.386 8.08267   1
   1   9  -6 562.364 20.7856   1
   1   9   9 637.536 18.8408  -2
  -1  -9   6 637.536 18.8408   1
   0   9  -6 4.65338 3.17791   1
   0  -9   6 4.69649 1.88615   1
   0  -9   6 1.48431 1.89202   1
   0  -9   6 4.61947 2.53009   1
  -1   9  -6 486.812 20.3297   1
  -1   9  -6 500.007 17.2774   1
  -1   9  -6 509.953 17.4265   1
   1  -9   6 480.274 17.1266   1
   1  -9   6 510.629 18.4058   1
   1  -9   6 494.182 17.1580   1
  -2   9  -6 6.71700 2.87201   1
  -2   9  -6 3.10546 2.01873   1
  -2   9  -6 2.94829 3.15856   1
   2  -9   6 2.03692 2.22350   1
   2  -9   6 1.39491 2.00609   1
  -3   9  -6 221.680 14.2067   1
  -3   9  -6 230.539 11.2701   1
  -3   9  -6 210.961 10.7234   1
   3  -9   6 235.550 11.8637   1
   3  -9   6 242.610 11.8358   1
   4   8  -6 79.8304 7.44784   1
   3   8  -6 270.629 13.5579   1
  -3  -8   6 265.412 10.1182   1
   2   8  -6 2.63009 1.96479   1
   2   8  -6 1.71637 2.41066   1
  -2  -8   6 3.11581 1.05632   1
  -2  -8   6 1.94298 1.27854   1
  -2  -8   6 3.88401 2.05112   1
   1   8  -6 330.960 14.2615   1
   1   8  -6 324.125 14.6213   1
  -1  -8   6 316.293 11.0298   1
  -1  -8   6 303.222 11.5316   1
  -1  -8   6 316.957 12.9718   1
   0   8  -6 10.4733 3.43350   1
   0   8  -6 17.1293 3.46705   1
   0  -8   6 13.4625 2.81399   1
   0  -8   6 15.8043 3.42473   1
   0  -8   6 11.8572 2.93147   1
  -1   8  -6 2.73791 1.94119   1
  -1   8  -6 1.26730 1.83503   1
  -1   8  -6 -0.3648 1.85368   1
   1  -8   6 5.40233 2.34770   1
   1  -8   6 8.14227 2.82499   1
   1  -8   6 4.13567 2.05269   1
  -2   8  -6 26.8214 4.12832   1
  -2   8  -6 33.4108 5.80778   1
  -2   8  -6 31.1100 4.27151   1
   2  -8   6 43.4775 4.94056   1
   2  -8   6 36.3972 4.48846   1
   3  -8  -8 72.5723 8.95478  -2
  -3   8  -6 72.5723 8.95478   1
   3  -8  -8 71.0131 6.53972  -2
  -3   8  -6 71.0131 6.53972   1
   3  -8  -8 81.3635 7.08574  -2
  -3   8  -6 81.3635 7.08574   1
  -3   8   8 94.6048 8.21112  -2
   3  -8   6 94.6048 8.21112   1
  -3   8   8 84.2840 7.13109  -2
   3  -8   6 84.2840 7.13109   1
  -3   8   8 84.9331 6.97201  -2
   3  -8   6 84.9331 6.97201   1
   4  -8  -8 694.668 20.0340  -2
  -4   8  -6 694.668 20.0340   1
   4  -8  -8 682.177 26.6804  -2
  -4   8  -6 682.177 26.6804   1
   4  -8  -8 706.740 20.9318  -2
  -4   8  -6 706.740 20.9318   1
  -4   8   8 699.734 24.4653  -2
   4  -8   6 699.734 24.4653   1
   5   7  -6 739.976 24.7058   1
   4   7  -6 6.82983 2.79033   1
   3   7  -6 439.057 17.1595   1
  -3  -7   6 414.417 13.2234   1
   2   7  -6 128.880 8.00229   1
   2   7  -6 127.265 8.51246   1
   2   7   8 119.170 5.19782  -2
  -2  -7   6 119.170 5.19782   1
   2   7   8 123.397 7.47451  -2
  -2  -7   6 123.397 7.47451   1
   2   7   8 110.085 5.82316  -2
  -2  -7   6 110.085 5.82316   1
  -1  -7  -8 297.898 13.8198  -2
   1   7  -6 297.898 13.8198   1
  -1  -7  -8 322.811 13.7257  -2
   1   7  -6 322.811 13.7257   1
   1   7   8 325.025 11.5213  -2
  -1  -7   6 325.025 11.5213   1
   1   7   8 298.128 12.4880  -2
  -1  -7   6 298.128 12.4880   1
   1   7   8 321.152 11.9586  -2
  -1  -7   6 321.152 11.9586   1
   0  -7  -8 15.3128 3.78198  -2
   0   7  -6 15.3128 3.78198   1
   0  -7  -8 7.80980 3.89575  -2
   0   7  -6 7.80980 3.89575   1
   0  -7  -8 9.65084 3.20771  -2
   0   7  -6 9.65084 3.20771   1
   0   7   8 6.33450 3.22103  -2
   0  -7   6 6.33450 3.22103   1
   0   7   8 6.02094 2.71618  -2
   0  -7   6 6.02094 2.71618   1
   0   7   8 11.2162 3.27013  -2
   0  -7   6 11.2162 3.27013   1
   0   7   8 10.1591 3.11790  -2
   0  -7   6 10.1591 3.11790   1
   1  -7  -8 76.6409 5.73533  -2
  -1   7  -6 76.6409 5.73533   1
   1  -7  -8 60.3365 6.28918  -2
  -1   7  -6 60.3365 6.28918   1
   1  -7  -8 64.6437 5.25750  -2
  -1   7  -6 64.6437 5.25750   1
  -1   7   8 64.9524 5.38137  -2
   1  -7   6 64.9524 5.38137   1
  -1   7   8 66.1637 5.59328  -2
   1  -7   6 66.1637 5.59328   1
  -1   7   8 56.2280 5.00309  -2
   1  -7   6 56.2280 5.00309   1
  -1   7   8 64.9712 6.10758  -2
   1  -7   6 64.9712 6.10758   1
   2  -7  -8 105.287 7.05671  -2
  -2   7  -6 105.287 7.05671   1
   2  -7  -8 101.946 8.71488  -2
  -2   7  -6 101.946 8.71488   1
   2  -7  -8 96.6342 6.79950  -2
  -2   7  -6 96.6342 6.79950   1
  -2   7   8 101.619 6.99648  -2
   2  -7   6 101.619 6.99648   1
  -2   7   8 104.023 7.81521  -2
   2  -7   6 104.023 7.81521   1
  -2   7   8 108.476 7.25216  -2
   2  -7   6 108.476 7.25216   1
  -2   7   8 101.418 6.98885  -2
   2  -7   6 101.418 6.98885   1
   3  -7  -8 25.0091 4.81120  -2
  -3   7  -6 25.0091 4.81120   1
   3  -7  -8 24.7969 4.39352  -2
  -3   7  -6 24.7969 4.39352   1
   3  -7  -8 29.7630 6.15308  -2
  -3   7  -6 29.7630 6.15308   1
  -3   7   8 20.9003 4.02610  -2
   3  -7   6 20.9003 4.02610   1
  -3   7   8 20.7626 4.71504  -2
   3  -7   6 20.7626 4.71504   1
  -3   7   8 22.8946 4.62394  -2
   3  -7   6 22.8946 4.62394   1
   4  -7  -8 935.389 24.7399  -2
  -4   7  -6 935.389 24.7399   1
   4  -7  -8 965.525 32.1377  -2
  -4   7  -6 965.525 32.1377   1
   4  -7  -8 963.392 24.3642  -2
  -4   7  -6 963.392 24.3642   1
  -4   7   8 938.938 27.4879  -2
   4  -7   6 938.938 27.4879   1
  -4   7   8 969.936 29.6042  -2
   4  -7   6 969.936 29.6042   1
   5  -7  -8 123.240 5.53031  -2
  -5   7  -6 123.240 5.53031   1
   5  -7  -8 117.121 6.64299  -2
  -5   7  -6 117.121 6.64299   1
   5  -7   6 10.3913 3.47502   1
   5  -7   6 13.1622 3.18056   1
  -6  -6  -8 16.5621 5.21692  -2
   6   6  -6 16.5621 5.21692   1
  -5  -6  -8 89.9111 7.83720  -2
   5   6  -6 89.9111 7.83720   1
  -4  -6  -8 204.695 11.0712  -2
   4   6  -6 204.695 11.0712   1
  -3  -6  -8 75.7331 6.60178  -2
   3   6  -6 75.7331 6.60178   1
   3   6   8 84.3394 5.89691  -2
  -3  -6   6 84.3394 5.89691   1
   3   6   8 87.1109 5.24653  -2
  -3  -6   6 87.1109 5.24653   1
  -2  -6  -8 702.805 22.5837  -2
   2   6  -6 702.805 22.5837   1
  -2  -6  -8 694.168 20.5006  -2
   2   6  -6 694.168 20.5006   1
   2   6   8 665.808 20.5154  -2
  -2  -6   6 665.808 20.5154   1
   2   6   8 720.859 17.9149  -2
  -2  -6   6 720.859 17.9149   1
   2   6   8 684.689 16.6344  -2
  -2  -6   6 684.689 16.6344   1
   2   6   8 716.347 19.8413  -2
  -2  -6   6 716.347 19.8413   1
  -1  -6  -8 112.432 7.80774  -2
   1   6  -6 112.432 7.80774   1
   1   6   8 116.652 6.54805  -2
  -1  -6   6 116.652 6.54805   1
   1   6   8 115.876 7.36602  -2
  -1  -6   6 115.876 7.36602   1
   1   6   8 131.467 7.16828  -2
  -1  -6   6 131.467 7.16828   1
   1   6   8 130.775 8.07623  -2
  -1  -6   6 130.775 8.07623   1
   0   6  -6 859.181 22.4919   1
   0   6  -6 861.167 25.0568   1
   0   6  -6 883.781 25.8445   1
   0   6  -6 893.396 22.8603   1
   0   6   8 1428.69 34.1455  -2
   0  -6   6 1428.69 34.1455   1
  -1   6  -6 95.3113 7.21007   1
  -1   6  -6 81.7051 5.69675   1
  -1   6  -6 83.6523 5.62732   1
   1  -6   6 86.7981 6.71256   1
   1  -6   6 82.9899 5.52277   1
   1  -6   6 79.3815 5.69045   1
   1  -6   6 77.4873 5.88382   1
   1  -6   6 83.5165 5.86740   1
  -2   6  -6 802.046 21.7292   1
  -2   6  -6 809.154 21.6839   1
  -2   6  -6 830.126 25.7516   1
   2  -6   6 831.998 23.3507   1
   2  -6   6 822.888 22.4487   1
   2  -6   6 838.944 22.7208   1
   2  -6   6 832.217 24.7991   1
  -3   6  -6 286.317 10.9312   1
  -3   6  -6 281.173 14.0521   1
  -3   6  -6 282.855 11.0596   1
   3  -6   6 276.503 11.6219   1
   3  -6   6 270.950 11.4833   1
   3  -6   6 269.668 12.9014   1
  -4   6  -6 560.522 16.6059   1
  -4   6  -6 552.166 16.0298   1
  -4   6  -6 572.175 22.1571   1
   4  -6   6 544.234 19.9502   1
   4  -6   6 568.862 20.6656   1
   4  -6   6 549.250 18.3962   1
  -5   6  -6 39.1980 3.75009   1
  -5   6  -6 38.1726 6.05456   1
   5  -6   6 36.4144 5.17674   1
   5  -6   6 36.1031 4.74991   1
   5  -6   6 38.2238 5.16317   1
  -6   6  -6 48.9260 7.71861   1
   6  -6   6 51.8189 6.25536   1
   6  -6   6 58.4097 5.95818   1
   6  -6   6 44.5775 5.97357   1
  -6  -5  -8 46.4363 6.15859  -2
   6   5  -6 46.4363 6.15859   1
   6   5   8 46.0378 5.23044  -2
  -6  -5   6 46.0378 5.23044   1
  -5  -5  -8 150.178 9.73185  -2
   5   5  -6 150.178 9.73185   1
   5   5   8 157.049 8.92044  -2
  -5  -5   6 157.049 8.92044   1
   4   5  -6 5.56583 2.63935   1
  -4  -5   6 0.84145 1.31185   1
   3   5  -6 2.01593 1.63472   1
  -3  -5   6 0.23872 0.92771   1
  -3  -5   6 1.25702 1.21716   1
   2   5  -6 643.070 20.2612   1
   2   5  -6 619.386 17.8297   1
   2   5   8 848.552 20.2881  -2
  -2  -5   6 848.552 20.2881   1
   1   5  -6 185.291 8.68378   1
   1   5  -6 189.073 8.13204   1
   1   5  -6 192.633 9.74525   1
  -1  -5   6 188.981 9.12540   1
  -1  -5   6 191.175 8.79722   1
  -1  -5   6 176.513 7.78527   1
  -1  -5   6 189.197 7.71973   1
   0   5  -6 860.679 24.8837   1
   0   5  -6 878.435 21.8322   1
   0   5  -6 860.776 24.0200   1
   0   5  -6 817.448 21.5428   1
   0  -5   6 868.825 22.0862   1
   0  -5   6 856.403 21.9978   1
   0  -5   6 866.242 21.6546   1
   0  -5   6 877.904 24.1694   1
   0  -5   6 856.214 22.9147   1
  -1   5  -6 292.806 10.7300   1
  -1   5  -6 306.292 10.9546   1
  -1   5  -6 296.260 12.6246   1
   1  -5   6 314.854 11.6932   1
   1  -5   6 298.577 11.1711   1
   1  -5   6 302.205 11.1465   1
   1  -5   6 280.404 10.9954   1
   1  -5   6 310.329 12.9296   1
  -2   5  -6 541.276 15.8492   1
  -2   5  -6 524.696 18.8658   1
  -2   5  -6 535.599 16.0676   1
   2  -5   6 564.338 19.0890   1
   2  -5   6 553.921 16.5608   1
   2  -5   6 577.857 18.9920   1
   2  -5   6 524.515 16.3745   1
   2  -5   6 565.043 17.2781   1
   3  -5  -7 1311.14 29.9352  -2
  -3   5  -6 1311.14 29.9352   1
   3  -5   6 503.810 17.8737   1
   3  -5   6 494.301 16.1338   1
   3  -5   6 481.472 15.7575   1
   3  -5   6 495.657 17.8669   1
   4  -5  -7 14.6173 2.87439  -2
  -4   5  -6 14.6173 2.87439   1
   4  -5  -7 21.9181 3.45021  -2
  -4   5  -6 21.9181 3.45021   1
   4  -5  -7 27.2597 5.41961  -2
  -4   5  -6 27.2597 5.41961   1
   4  -5   6 17.3863 3.15599   1
   4  -5   6 13.8133 3.30723   1
   4  -5   6 22.2777 3.70236   1
   5  -5  -7 130.977 10.0745  -2
  -5   5  -6 130.977 10.0745   1
   5  -5  -7 146.360 5.60203  -2
  -5   5  -6 146.360 5.60203   1
  -5   5   7 148.003 8.39914  -2
   5  -5   6 148.003 8.39914   1
  -5   5   7 148.180 9.64225  -2
   5  -5   6 148.180 9.64225   1
  -5   5   7 144.259 9.71908  -2
   5  -5   6 144.259 9.71908   1
   6  -5  -7 73.5044 7.98060  -2
  -6   5  -6 73.5044 7.98060   1
  -6   5   7 69.2436 6.80746  -2
   6  -5   6 69.2436 6.80746   1
  -6   5   7 67.9280 7.23506  -2
   6  -5   6 67.9280 7.23506   1
  -6   5   7 69.5484 6.08470  -2
   6  -5   6 69.5484 6.08470   1
   7   4  -6 10.6098 3.27532   1
  -7  -4   6 16.9704 3.50832   1
   6   4  -6 200.127 10.9647   1
  -6  -4   6 197.016 10.1560   1
   5   4  -6 230.920 11.4307   1
  -5  -4   6 232.412 10.7524   1
   4   4  -6 985.732 27.7807   1
  -4  -4   6 983.632 26.1802   1
   3   4  -6 255.446 11.3838   1
  -3  -4   6 253.022 10.7044   1
  -3  -4   6 258.413 7.05384   1
   2   4  -6 824.778 23.7586   1
   2   4  -6 819.876 20.9105   1
   2   4   7 1024.86 23.2052  -2
  -2  -4   6 1024.86 23.2052   1
   1   4  -6 101.507 6.70535   1
   1   4  -6 108.292 5.82281   1
   1   4  -6 112.094 5.79958   1
   1   4  -6 104.261 5.96238   1
   1   4   7 285.725 10.1099  -2
  -1  -4   6 285.725 10.1099   1
   1   4   7 288.071 10.2959  -2
  -1  -4   6 288.071 10.2959   1
   0   4  -6 154.043 7.03958   1
   0   4  -6 152.710 6.99893   1
   0   4  -6 150.436 8.25402   1
   0   4  -6 144.274 7.56718   1
   0   4   7 192.719 8.41016  -2
   0  -4   6 192.719 8.41016   1
   0   4   7 182.947 8.34195  -2
   0  -4   6 182.947 8.34195   1
   0   4   7 184.705 8.62234  -2
   0  -4   6 184.705 8.62234   1
   0   4   7 193.016 9.71569  -2
   0  -4   6 193.016 9.71569   1
   0   4   7 196.818 8.03404  -2
   0  -4   6 196.818 8.03404   1
   1  -4  -7 1263.21 31.7397  -2
  -1   4  -6 1263.21 31.7397   1
   1  -4  -7 1214.79 28.2693  -2
  -1   4  -6 1214.79 28.2693   1
   1  -4  -7 1203.78 28.2333  -2
  -1   4  -6 1203.78 28.2333   1
  -1   4   7 1292.01 32.5670  -2
   1  -4   6 1292.01 32.5670   1
  -1   4   7 1279.94 30.5735  -2
   1  -4   6 1279.94 30.5735   1
  -1   4   7 1222.32 28.5419  -2
   1  -4   6 1222.32 28.5419   1
  -1   4   7 1213.44 29.2634  -2
   1  -4   6 1213.44 29.2634   1
  -1   4   7 1226.95 28.9196  -2
   1  -4   6 1226.95 28.9196   1
  -1   4   7 1246.16 32.1103  -2
   1  -4   6 1246.16 32.1103   1
   2  -4  -7 447.642 13.7899  -2
  -2   4  -6 447.642 13.7899   1
   2  -4  -7 474.691 14.0860  -2
  -2   4  -6 474.691 14.0860   1
   2  -4  -7 475.396 16.8919  -2
  -2   4  -6 475.396 16.8919   1
  -2   4   7 460.850 14.3251  -2
   2  -4   6 460.850 14.3251   1
  -2   4   7 475.290 16.4662  -2
   2  -4   6 475.290 16.4662   1
  -2   4   7 480.003 15.0080  -2
   2  -4   6 480.003 15.0080   1
  -2   4   7 474.688 16.7594  -2
   2  -4   6 474.688 16.7594   1
  -2   4   7 472.812 14.3818  -2
   2  -4   6 472.812 14.3818   1
   3  -4  -7 372.367 15.1344  -2
  -3   4  -6 372.367 15.1344   1
   3  -4  -7 368.415 11.8081  -2
  -3   4  -6 368.415 11.8081   1
   3  -4  -7 370.282 11.4105  -2
  -3   4  -6 370.282 11.4105   1
  -3   4   7 348.800 14.2369  -2
   3  -4   6 348.800 14.2369   1
  -3   4   7 377.628 14.3865  -2
   3  -4   6 377.628 14.3865   1
  -3   4   7 380.635 13.0342  -2
   3  -4   6 380.635 13.0342   1
   4  -4  -7 290.168 9.26281  -2
  -4   4  -6 290.168 9.26281   1
   4  -4  -7 288.321 13.7944  -2
  -4   4  -6 288.321 13.7944   1
   4  -4  -7 289.301 8.20958  -2
  -4   4  -6 289.301 8.20958   1
  -4   4   7 282.740 12.6117  -2
   4  -4   6 282.740 12.6117   1
  -4   4   7 274.057 12.9138  -2
   4  -4   6 274.057 12.9138   1
  -4   4   7 268.284 10.8283  -2
   4  -4   6 268.284 10.8283   1
   5  -4  -7 394.515 17.5094  -2
  -5   4  -6 394.515 17.5094   1
  -5   4   7 379.984 15.6408  -2
   5  -4   6 379.984 15.6408   1
  -5   4   7 428.862 14.2745  -2
   5  -4   6 428.862 14.2745   1
  -5   4   7 360.902 15.7128  -2
   5  -4   6 360.902 15.7128   1
  -6   4  -6 10.4469 3.73486   1
   6  -4   6 8.58722 2.97327   1
   6  -4   6 13.4216 3.07354   1
   6  -4   6 16.5081 3.46236   1
  -7   4  -6 324.546 17.9441   1
   7  -4   6 325.278 14.7546   1
   7  -4   6 322.845 16.1334   1
   7  -4   6 311.933 12.5414   1
   7   3  -6 12.8023 3.42303   1
  -7  -3   6 25.9359 4.17388   1
   6   3  -6 153.990 9.48517   1
  -6  -3   6 168.364 9.25802   1
  -5  -3  -7 991.900 28.3103  -2
   5   3  -6 991.900 28.3103   1
  -5  -3   6 503.145 17.0818   1
  -4  -3  -7 903.173 25.9815  -2
   4   3  -6 903.173 25.9815   1
   4   3   7 919.575 24.8196  -2
  -4  -3   6 919.575 24.8196   1
  -3  -3  -7 1894.36 45.1463  -2
   3   3  -6 1894.36 45.1463   1
   3   3   7 1924.62 36.3280  -2
  -3  -3   6 1924.62 36.3280   1
   3   3   7 1842.94 42.8019  -2
  -3  -3   6 1842.94 42.8019   1
  -2  -3  -7 433.965 15.2456  -2
   2   3  -6 433.965 15.2456   1
  -2  -3  -7 436.717 12.4350  -2
   2   3  -6 436.717 12.4350   1
   2   3   7 399.556 14.5065  -2
  -2  -3   6 399.556 14.5065   1
   2   3   7 442.672 12.3113  -2
  -2  -3   6 442.672 12.3113   1
   2   3   7 439.195 13.3597  -2
  -2  -3   6 439.195 13.3597   1
   2   3   7 424.875 11.5776  -2
  -2  -3   6 424.875 11.5776   1
  -1  -3  -7 335.527 11.0106  -2
   1   3  -6 335.527 11.0106   1
  -1  -3  -7 322.859 12.8040  -2
   1   3  -6 322.859 12.8040   1
  -1  -3  -7 337.477 10.9574  -2
   1   3  -6 337.477 10.9574   1
  -1  -3  -7 346.591 11.2021  -2
   1   3  -6 346.591 11.2021   1
   1   3   7 347.291 11.0962  -2
  -1  -3   6 347.291 11.0962   1
   1   3   7 354.003 13.2980  -2
  -1  -3   6 354.003 13.2980   1
   1   3   7 315.125 9.72966  -2
  -1  -3   6 315.125 9.72966   1
   1   3   7 360.459 11.5210  -2
  -1  -3   6 360.459 11.5210   1
   1   3   7 345.084 11.7453  -2
  -1  -3   6 345.084 11.7453   1
   0  -3  -7 572.005 16.9662  -2
   0   3  -6 572.005 16.9662   1
   0  -3  -7 598.502 16.0805  -2
   0   3  -6 598.502 16.0805   1
   0  -3  -7 593.810 18.6966  -2
   0   3  -6 593.810 18.6966   1
   0  -3  -7 568.068 15.8277  -2
   0   3  -6 568.068 15.8277   1
   0   3   7 605.007 16.7699  -2
   0  -3   6 605.007 16.7699   1
   0   3   7 586.307 18.3814  -2
   0  -3   6 586.307 18.3814   1
   0   3   7 614.594 16.7429  -2
   0  -3   6 614.594 16.7429   1
   0   3   7 603.065 16.6157  -2
   0  -3   6 603.065 16.6157   1
   0   3   7 564.940 16.7180  -2
   0  -3   6 564.940 16.7180   1
   0   3   7 586.280 18.8319  -2
   0  -3   6 586.280 18.8319   1
   1  -3  -7 1662.62 35.6595  -2
  -1   3  -6 1662.62 35.6595   1
  -1   3   7 1679.93 40.3359  -2
   1  -3   6 1679.93 40.3359   1
  -1   3   7 1705.88 40.6710  -2
   1  -3   6 1705.88 40.6710   1
  -1   3   7 1679.92 37.0424  -2
   1  -3   6 1679.92 37.0424   1
  -2   3  -6 71.2093 4.68607   1
  -2   3  -6 73.8100 4.80323   1
  -2   3  -6 74.4308 5.93781   1
   2  -3   6 79.7782 4.92657   1
   2  -3   6 76.9501 5.93131   1
   2  -3   6 76.2078 5.69241   1
   2  -3   6 80.4024 5.19000   1
   2  -3   6 83.1554 5.11837   1
   2  -3   6 69.9355 4.74964   1
   3  -3  -7 755.908 18.8106  -2
  -3   3  -6 755.908 18.8106   1
   3  -3   6 627.922 19.4472   1
   3  -3   6 644.860 19.9910   1
   3  -3   6 610.872 17.5139   1
  -4   3  -6 80.0954 4.17074   1
  -4   3  -6 71.5372 6.95154   1
   4  -3   6 76.3615 6.40921   1
   4  -3   6 79.7611 5.13868   1
   4  -3   6 83.3768 6.15229   1
  -5   3  -6 940.603 29.9702   1
   5  -3   6 945.027 27.0113   1
   5  -3   6 972.710 24.6609   1
   5  -3   6 956.822 28.1042   1
  -6   3  -6 234.088 13.9586   1
   6  -3   6 245.902 12.9151   1
   6  -3   6 271.609 10.1939   1
   6  -3   6 243.090 11.7384   1
  -7   3  -6 108.058 9.90090   1
   7  -3   6 112.885 8.05570   1
   7  -3   6 116.890 9.19276   1
  -7  -2  -7 100.855 7.62564  -2
   7   2  -6 100.855 7.62564   1
   7   2   7 117.309 8.35596  -2
  -7  -2   6 117.309 8.35596   1
  -6  -2  -7 325.686 13.7787  -2
   6   2  -6 325.686 13.7787   1
   6   2   7 371.242 14.4168  -2
  -6  -2   6 371.242 14.4168   1
  -5  -2  -7 107.370 7.35362  -2
   5   2  -6 107.370 7.35362   1
   5   2   7 115.096 7.46529  -2
  -5  -2   6 115.096 7.46529   1
  -4  -2  -7 880.039 25.2539  -2
   4   2  -6 880.039 25.2539   1
   4   2   7 850.338 23.8492  -2
  -4  -2   6 850.338 23.8492   1
   3   2  -6 371.062 13.9958   1
   3   2   7 947.127 20.2643  -2
  -3  -2   6 947.127 20.2643   1
   3   2   7 975.155 25.6598  -2
  -3  -2   6 975.155 25.6598   1
   2   2  -6 0.04357 0.93596   1
   2   2  -6 0.53075 1.11483   1
   2   2  -6 1.83795 1.04915   1
   2   2  -6 0.37031 1.19954   1
  -2  -2   6 2.82478 1.16880   1
  -2  -2   6 1.70105 1.10939   1
  -2  -2   6 2.00009 1.12474   1
  -2  -2   6 0.95494 0.68188   1
   1   2  -6 207.786 7.82698   1
   1   2  -6 209.366 9.65208   1
   1   2  -6 214.342 8.14077   1
   1   2  -6 215.410 8.23515   1
   1   2   7 304.518 10.1830  -2
  -1  -2   6 304.518 10.1830   1
   0   2  -6 97.7312 5.30706   1
   0   2  -6 92.1211 5.30291   1
   0   2  -6 92.6812 5.18559   1
   0   2  -6 83.6002 5.75667   1
   0  -2   6 86.5788 5.79349   1
   0  -2   6 93.6225 5.87178   1
   0  -2   6 92.9801 4.85362   1
   0  -2   6 87.1214 5.18693   1
   0  -2   6 90.8483 5.06500   1
   0  -2   6 89.3628 5.00713   1
  -1   2  -6 331.186 12.2400   1
  -1   2  -6 317.115 11.8268   1
  -1   2  -6 324.830 10.6228   1
  -1   2  -6 308.495 10.4809   1
   1  -2   6 321.320 10.9913   1
   1  -2   6 330.120 10.6773   1
   1  -2   6 320.690 10.8778   1
   1  -2   6 332.159 12.1220   1
   1  -2   6 325.916 12.5180   1
   1  -2   6 326.533 10.6510   1
  -2   2  -6 1.87550 1.34953   1
  -2   2  -6 2.91006 1.22097   1
  -2   2  -6 1.30764 1.56470   1
   2  -2   6 1.58804 1.27427   1
   2  -2   6 5.18112 1.84049   1
   2  -2   6 1.85496 1.17564   1
   2  -2   6 1.76210 1.15838   1
   2  -2   6 0.36207 0.83494   1
   2  -2   6 0.58675 0.91089   1
  -3   2  -6 473.674 16.9404   1
  -3   2  -6 449.924 12.4286   1
  -3   2  -6 455.576 11.8085   1
   3  -2   6 443.566 15.7297   1
   3  -2   6 458.659 15.2860   1
   3  -2   6 449.830 13.5920   1
  -4   2  -6 6.82708 2.63298   1
   4  -2   6 11.2544 2.03974   1
   4  -2   6 11.2885 2.76687   1
   4  -2   6 7.69668 2.08394   1
   5  -2  -6 303.301 14.5917  -2
  -5   2  -6 303.301 14.5917   1
   5  -2   6 271.911 11.5991   1
   5  -2   6 300.152 9.92394   1
   5  -2   6 273.492 12.8449   1
   6  -2  -6 25.1763 5.08386  -2
  -6   2  -6 25.1763 5.08386   1
   6  -2   6 13.1164 3.54720   1
   6  -2   6 12.9136 2.82159   1
   7  -2  -6 85.1286 8.01108  -2
  -7   2  -6 85.1286 8.01108   1
  -7   2   6 89.6208 7.02017  -2
   7  -2   6 89.6208 7.02017   1
  -7   2   6 63.4213 7.18100  -2
   7  -2   6 63.4213 7.18100   1
  -7  -1  -7 182.359 10.4188  -2
   7   1  -6 182.359 10.4188   1
   7   1   7 161.971 10.2325  -2
  -7  -1   6 161.971 10.2325   1
   6   1  -6 98.3611 7.39272   1
  -6  -1   6 131.108 8.24388   1
   5   1  -6 15.9828 3.23314   1
  -5  -1   6 18.5073 3.35434   1
   4   1  -6 4.71380 2.13052   1
  -4  -1   6 5.62355 2.00826   1
   3   1  -6 243.570 10.8670   1
  -3  -1   6 232.066 6.44676   1
  -3  -1   6 236.371 7.12193   1
  -3  -1   6 223.546 9.88144   1
   2   1  -6 55.5036 4.13757   1
   2   1  -6 59.1304 4.19514   1
   2   1  -6 52.8166 3.32198   1
   2   1  -6 51.1607 4.77453   1
  -2  -1   6 50.2789 3.47487   1
  -2  -1   6 47.1285 3.14655   1
  -2  -1   6 51.7393 4.49535   1
   1   1  -6 2345.51 47.2658   1
   1   1  -6 2361.97 52.5234   1
   1   1  -6 2279.13 47.8715   1
   1   1  -6 2358.26 47.0184   1
   1   1   6 2431.94 48.1552  -2
  -1  -1   6 2431.94 48.1552   1
   0   1  -6 992.952 24.1825   1
   0   1  -6 992.145 23.1267   1
   0   1  -6 990.808 23.1672   1
   0   1  -6 993.255 26.1354   1
   0  -1   6 1009.91 25.7081   1
   0  -1   6 991.421 25.4237   1
   0  -1   6 986.882 23.6586   1
   0  -1   6 963.919 22.6549   1
   0  -1   6 970.571 22.7983   1
   0  -1   6 956.500 23.2680   1
   1  -1  -6 829.998 19.8178  -2
  -1   1  -6 829.998 19.8178   1
   1  -1  -6 830.503 19.8317  -2
  -1   1  -6 830.503 19.8317   1
  -1   1   6 787.221 20.7695  -2
   1  -1   6 787.221 20.7695   1
   2  -1  -6 150.018 5.95777  -2
  -2   1  -6 150.018 5.95777   1
   2  -1  -6 152.826 7.65696  -2
  -2   1  -6 152.826 7.65696   1
   2  -1  -6 152.518 5.75205  -2
  -2   1  -6 152.518 5.75205   1
  -2   1   6 164.547 6.76556  -2
   2  -1   6 164.547 6.76556   1
  -2   1   6 157.473 7.05257  -2
   2  -1   6 157.473 7.05257   1
  -2   1   6 151.638 6.60261  -2
   2  -1   6 151.638 6.60261   1
  -2   1   6 150.931 7.64268  -2
   2  -1   6 150.931 7.64268   1
  -2   1   6 150.129 8.11005  -2
   2  -1   6 150.129 8.11005   1
  -2   1   6 155.263 6.61662  -2
   2  -1   6 155.263 6.61662   1
   3  -1  -6 1161.87 24.8944  -2
  -3   1  -6 1161.87 24.8944   1
   3  -1  -6 1245.74 31.7576  -2
  -3   1  -6 1245.74 31.7576   1
  -3   1   6 1267.02 31.3979  -2
   3  -1   6 1267.02 31.3979   1
  -3   1   6 1283.97 31.2388  -2
   3  -1   6 1283.97 31.2388   1
  -3   1   6 1300.25 28.7691  -2
   3  -1   6 1300.25 28.7691   1
   4  -1  -6 196.874 10.1490  -2
  -4   1  -6 196.874 10.1490   1
  -4   1   6 200.518 9.01151  -2
   4  -1   6 200.518 9.01151   1
  -4   1   6 197.353 9.91908  -2
   4  -1   6 197.353 9.91908   1
  -4   1   6 219.685 7.57476  -2
   4  -1   6 219.685 7.57476   1
   5  -1  -6 549.668 19.1535  -2
  -5   1  -6 549.668 19.1535   1
  -5   1   6 500.570 17.9548  -2
   5  -1   6 500.570 17.9548   1
  -5   1   6 497.566 16.5673  -2
   5  -1   6 497.566 16.5673   1
  -5   1   6 554.628 14.1931  -2
   5  -1   6 554.628 14.1931   1
   6  -1  -6 331.722 15.1839  -2
  -6   1  -6 331.722 15.1839   1
  -6   1   6 347.257 13.3456  -2
   6  -1   6 347.257 13.3456   1
  -6   1   6 348.355 15.0827  -2
   6  -1   6 348.355 15.0827   1
   7  -1  -6 86.2479 8.27861  -2
  -7   1  -6 86.2479 8.27861   1
  -7   1   6 83.5608 6.66480  -2
   7  -1   6 83.5608 6.66480   1
  -8   1  -6 292.793 16.3596   1
   8  -1   6 297.168 13.0558   1
   8  -1   6 296.787 15.5088   1
   7   0  -6 64.0450 6.20375   1
  -7   0   6 71.9262 6.63431   1
   6   0  -6 0.75036 1.51135   1
  -6   0   6 -0.9641 1.11429   1
   5   0  -6 307.219 13.1449   1
  -5   0   6 315.202 12.7813   1
   4   0  -6 141.269 8.20340   1
  -4   0   6 136.216 7.71895   1
  -3   0  -6 150.864 8.09350  -2
   3   0  -6 150.864 8.09350   1
   3   0   6 142.842 5.42589  -2
  -3   0   6 142.842 5.42589   1
  -2   0  -6 31.3345 3.73066  -2
   2   0  -6 31.3345 3.73066   1
  -2   0  -6 45.5318 3.74826  -2
   2   0  -6 45.5318 3.74826   1
  -2   0  -6 34.6761 3.47452  -2
   2   0  -6 34.6761 3.47452   1
   2   0   6 29.3270 3.62130  -2
  -2   0   6 29.3270 3.62130   1
   2   0   6 30.9228 2.68976  -2
  -2   0   6 30.9228 2.68976   1
   2   0   6 36.4139 3.10936  -2
  -2   0   6 36.4139 3.10936   1
  -1   0  -6 1004.56 26.4217  -2
   1   0  -6 1004.56 26.4217   1
  -1   0  -6 976.622 22.4296  -2
   1   0  -6 976.622 22.4296   1
  -1   0  -6 935.798 22.8496  -2
   1   0  -6 935.798 22.8496   1
  -1   0  -6 976.639 23.1752  -2
   1   0  -6 976.639 23.1752   1
   1   0   6 1005.70 23.6640  -2
  -1   0   6 1005.70 23.6640   1
   1   0   6 1015.15 25.9863  -2
  -1   0   6 1015.15 25.9863   1
   1   0   6 1071.30 23.3880  -2
  -1   0   6 1071.30 23.3880   1
   1   0   6 1045.15 23.6140  -2
  -1   0   6 1045.15 23.6140   1
   1   0   6 991.595 22.9735  -2
  -1   0   6 991.595 22.9735   1
   1   0   6 1042.34 26.2712  -2
  -1   0   6 1042.34 26.2712   1
   0   0  -6 -0.0022 1.20531  -2
   0   0  -6 -0.0022 1.20531   1
   0   0  -6 2.05979 1.85242  -2
   0   0  -6 2.05979 1.85242   1
   0   0  -6 6.78260 1.49178  -2
   0   0  -6 6.78260 1.49178   1
   0   0  -6 3.19487 1.38995  -2
   0   0  -6 3.19487 1.38995   1
   0   0   6 2.99138 1.27670  -2
   0   0   6 2.99138 1.27670   1
   0   0   6 3.65938 1.37570  -2
   0   0   6 3.65938 1.37570   1
   0   0   6 3.93360 1.56993  -2
   0   0   6 3.93360 1.56993   1
   0   0   6 3.11067 1.66288  -2
   0   0   6 3.11067 1.66288   1
   0   0   6 2.55138 1.69552  -2
   0   0   6 2.55138 1.69552   1
   0   0   6 2.53066 1.22795  -2
   0   0   6 2.53066 1.22795   1
   1   0  -6 785.922 18.3985  -2
  -1   0  -6 785.922 18.3985   1
   1   0  -6 807.173 20.5766  -2
  -1   0  -6 807.173 20.5766   1
   1   0  -6 856.973 22.1322  -2
  -1   0  -6 856.973 22.1322   1
  -1   0   6 786.464 20.4607  -2
   1   0   6 786.464 20.4607   1
  -1   0   6 776.912 19.4883  -2
   1   0   6 776.912 19.4883   1
  -1   0   6 768.711 19.8833  -2
   1   0   6 768.711 19.8833   1
  -1   0   6 844.511 22.5201  -2
   1   0   6 844.511 22.5201   1
  -1   0   6 790.266 22.4448  -2
   1   0   6 790.266 22.4448   1
  -1   0   6 761.657 19.3902  -2
   1   0   6 761.657 19.3902   1
   2   0  -6 62.7032 5.03770  -2
  -2   0  -6 62.7032 5.03770   1
   2   0  -6 60.2577 3.46077  -2
  -2   0  -6 60.2577 3.46077   1
  -2   0   6 58.4764 3.89469  -2
   2   0   6 58.4764 3.89469   1
  -2   0   6 54.0878 4.64819  -2
   2   0   6 54.0878 4.64819   1
  -2   0   6 55.6945 4.02424  -2
   2   0   6 55.6945 4.02424   1
  -2   0   6 59.5900 5.11857  -2
   2   0   6 59.5900 5.11857   1
  -2   0   6 62.1810 4.15667  -2
   2   0   6 62.1810 4.15667   1
   3   0  -6 102.618 6.92598  -2
  -3   0  -6 102.618 6.92598   1
   3   0  -6 133.952 4.24027  -2
  -3   0  -6 133.952 4.24027   1
   3   0   6 64.7513 4.72311   1
   3   0   6 59.0209 5.06313   1
   3   0   6 63.2240 3.65113   1
  -4   0  -6 389.140 15.6002   1
   4   0   6 403.993 14.7851   1
   4   0   6 397.927 13.3988   1
   4   0   6 415.826 11.0029   1
  -5   0  -6 116.444 8.33886   1
   5   0   6 112.726 6.53023   1
   5   0   6 114.011 7.72150   1
  -6   0  -6 300.368 14.7353   1
   6   0   6 303.022 13.5859   1
   6   0   6 296.055 11.6135   1
  -7   0  -6 291.575 15.3002   1
   7   0   6 306.406 12.1984   1
   7   0   6 310.746 14.5339   1
  -8   0  -6 145.761 10.9895   1
   8   0   6 153.867 10.9270   1
   8   0   6 153.120 8.60392   1
  -7   1  -6 152.240 9.44552  -2
   7  -1  -6 152.240 9.44552   1
   7  -1   6 122.353 8.98773  -2
  -7   1   6 122.353 8.98773   1
  -6   1  -6 383.930 15.4021  -2
   6  -1  -6 383.930 15.4021   1
   6  -1   6 395.988 15.3945  -2
  -6   1   6 395.988 15.3945   1
  -5   1  -6 893.011 25.2912  -2
   5  -1  -6 893.011 25.2912   1
   5  -1   6 816.859 24.0025  -2
  -5   1   6 816.859 24.0025   1
  -4   1  -6 181.241 9.15154  -2
   4  -1  -6 181.241 9.15154   1
   4  -1   6 172.143 8.63239  -2
  -4   1   6 172.143 8.63239   1
   4  -1   6 165.420 5.24899  -2
  -4   1   6 165.420 5.24899   1
  -3   1  -6 1449.27 35.7906  -2
   3  -1  -6 1449.27 35.7906   1
   3  -1   6 1455.47 29.1008  -2
  -3   1   6 1455.47 29.1008   1
   3  -1   6 1392.94 33.7733  -2
  -3   1   6 1392.94 33.7733   1
   3  -1   6 1425.70 29.2945  -2
  -3   1   6 1425.70 29.2945   1
  -2   1  -6 204.773 8.18615  -2
   2  -1  -6 204.773 8.18615   1
  -2   1  -6 193.944 8.01245  -2
   2  -1  -6 193.944 8.01245   1
  -2   1  -6 206.329 9.56916  -2
   2  -1  -6 206.329 9.56916   1
   2  -1   6 195.038 7.17498  -2
  -2   1   6 195.038 7.17498   1
   2  -1   6 203.861 9.11521  -2
  -2   1   6 203.861 9.11521   1
   2  -1   6 187.730 7.18450  -2
  -2   1   6 187.730 7.18450   1
  -1   1  -6 540.625 16.4078  -2
   1  -1  -6 540.625 16.4078   1
  -1   1  -6 511.091 12.8152  -2
   1  -1  -6 511.091 12.8152   1
  -1   1  -6 476.196 13.4120  -2
   1  -1  -6 476.196 13.4120   1
   1  -1   6 517.280 16.4401  -2
  -1   1   6 517.280 16.4401   1
   1  -1   6 490.265 13.9070  -2
  -1   1   6 490.265 13.9070   1
   0  -1  -6 1250.49 27.5651   1
   0  -1  -6 1264.23 28.7301   1
   0  -1  -6 1301.55 31.5538   1
   0  -1   6 1888.27 38.7528  -2
   0   1   6 1888.27 38.7528   1
   1   1  -6 1515.79 30.9399  -2
  -1  -1  -6 1515.79 30.9399   1
   1   1   6 104.137 6.29165   1
   1   1   6 113.543 6.14467   1
   1   1   6 109.295 5.42915   1
   1   1   6 96.2209 4.96503   1
   1   1   6 103.890 5.20312   1
   1   1   6 108.807 5.22513   1
  -2  -1  -6 106.455 4.37233   1
  -2  -1  -6 107.140 3.95543   1
  -2  -1  -6 98.8712 6.27812   1
   2   1   6 95.9865 4.72553   1
   2   1   6 100.991 4.92816   1
   2   1   6 104.938 6.00186   1
   2   1   6 111.163 5.15177   1
   2   1   6 105.838 5.94803   1
   2   1   6 96.3734 5.96206   1
  -3  -1  -6 184.751 9.48604   1
   3   1   6 198.224 6.62729   1
   3   1   6 204.582 9.27338   1
   3   1   6 209.031 8.67791   1
  -4  -1  -6 362.136 14.5824   1
   4   1   6 350.220 13.4095   1
   4   1   6 360.803 12.2173   1
  -5  -1  -6 38.7589 4.93666   1
   5   1   6 37.5651 3.76784   1
   5   1   6 46.5046 4.83629   1
  -6  -1  -6 633.302 22.6446   1
   6   1   6 655.274 21.3188   1
   6   1   6 646.161 18.7946   1
   7   1  -5 103.506 8.48939  -2
  -7  -1  -6 103.506 8.48939   1
  -7  -1   5 93.5338 6.48676  -2
   7   1   6 93.5338 6.48676   1
   8   1  -5 522.712 21.2659  -2
  -8  -1  -6 522.712 21.2659   1
  -8  -1   5 566.195 21.5981  -2
   8   1   6 566.195 21.5981   1
  -8  -1   5 547.787 17.5614  -2
   8   1   6 547.787 17.5614   1
  -7   2  -6 134.760 9.17832  -2
   7  -2  -6 134.760 9.17832   1
   7  -2   6 135.839 9.43164  -2
  -7   2   6 135.839 9.43164   1
  -6   2  -6 48.2931 5.86654  -2
   6  -2  -6 48.2931 5.86654   1
   6  -2   6 49.7429 5.85128  -2
  -6   2   6 49.7429 5.85128   1
  -5   2  -6 217.838 10.9803  -2
   5  -2  -6 217.838 10.9803   1
  -5   2   6 44.8949 4.78290   1
   4  -2  -6 146.690 8.26316   1
  -4   2   6 145.630 7.87339   1
  -4   2   6 141.002 5.17007   1
  -4   2   6 137.009 4.52021   1
   3  -2  -6 86.2572 5.66392   1
   3  -2  -6 90.4371 6.24634   1
  -3   2   6 91.4237 4.48138   1
  -3   2   6 84.0616 5.70248   1
  -3   2   6 88.9397 4.20003   1
   2  -2  -6 59.4864 4.89542   1
   2  -2  -6 60.4123 4.43192   1
  -2   2   6 63.4495 4.70125   1
  -2   2   6 60.6182 4.60114   1
  -2   2   6 61.2997 3.74708   1
  -2   2   6 63.1965 3.87630   1
  -2   2   6 63.7534 2.93913   1
  -1   2  -5 444.802 12.6043  -2
   1  -2  -6 444.802 12.6043   1
  -1   2   6 247.084 9.59593   1
  -1   2   6 230.997 8.27539   1
  -1   2   6 241.971 9.60731   1
  -1   2   6 237.287 7.49947   1
  -1   2   6 232.054 8.03309   1
  -1   2   6 242.943 8.35829   1
   0  -2  -6 787.619 18.8151   1
   0  -2  -6 791.370 19.5906   1
   0  -2  -6 784.348 18.8534   1
   0  -2  -6 801.065 21.4631   1
   0  -2   5 986.875 22.7421  -2
   0   2   6 986.875 22.7421   1
  -1  -2  -6 679.203 18.7510   1
  -1  -2  -6 653.455 16.0547   1
  -1  -2  -6 667.476 18.3752   1
   1   2   6 676.488 16.5758   1
   1   2   6 668.793 17.4494   1
   1   2   6 701.850 17.4449   1
   1   2   6 670.971 18.8047   1
   1   2   6 667.131 16.8010   1
   1   2   6 679.994 18.8918   1
   2   2  -5 1043.81 26.6654  -2
  -2  -2  -6 1043.81 26.6654   1
   2   2   6 989.900 25.2340   1
   2   2   6 991.459 25.2380   1
   2   2   6 1004.78 23.2779   1
   2   2   6 975.797 22.4144   1
   3   2  -5 390.796 14.2206  -2
  -3  -2  -6 390.796 14.2206   1
  -3  -2   5 395.073 13.1997  -2
   3   2   6 395.073 13.1997   1
   4   2  -5 1181.38 31.3537  -2
  -4  -2  -6 1181.38 31.3537   1
  -4  -2   5 1217.18 29.9179  -2
   4   2   6 1217.18 29.9179   1
  -4  -2   5 1242.50 30.4331  -2
   4   2   6 1242.50 30.4331   1
   5   2  -5 246.321 11.8030  -2
  -5  -2  -6 246.321 11.8030   1
  -5  -2   5 259.216 10.3031  -2
   5   2   6 259.216 10.3031   1
  -5  -2   5 277.232 11.7071  -2
   5   2   6 277.232 11.7071   1
   6   2  -5 456.506 17.6256  -2
  -6  -2  -6 456.506 17.6256   1
  -6  -2   5 473.317 17.0097  -2
   6   2   6 473.317 17.0097   1
  -6  -2   5 432.183 14.4718  -2
   6   2   6 432.183 14.4718   1
   7   2  -5 14.5921 4.17745  -2
  -7  -2  -6 14.5921 4.17745   1
  -7  -2   5 14.6335 3.23802  -2
   7   2   6 14.6335 3.23802   1
  -7  -2   5 19.7709 4.40064  -2
   7   2   6 19.7709 4.40064   1
   8   2  -5 434.960 18.7267  -2
  -8  -2  -6 434.960 18.7267   1
  -8  -2   5 421.672 18.0588  -2
   8   2   6 421.672 18.0588   1
  -8  -2   5 406.219 14.7205  -2
   8   2   6 406.219 14.7205   1
   7  -3  -6 171.487 10.2156   1
  -7   3   6 168.207 10.5123   1
   6  -3  -6 83.8029 6.93843   1
  -6   3   6 96.8545 7.37760   1
   5  -3  -6 81.1357 6.55719   1
  -5   3   6 73.6107 6.04136   1
  -5   3   6 79.9850 3.26554   1
   4  -3  -6 164.498 8.88354   1
  -4   3   6 149.592 8.12086   1
  -4   3   6 159.771 5.48525   1
  -4   3   6 167.088 6.04764   1
   3  -3  -6 157.445 8.38575   1
   3  -3  -6 157.271 7.56436   1
  -3   3   6 157.977 6.37001   1
  -3   3   6 153.921 6.10238   1
  -3   3   6 148.370 7.69264   1
  -2   3  -5 296.998 10.5787  -2
   2  -3  -6 296.998 10.5787   1
   2  -3   5 319.241 10.0841  -2
  -2   3   6 319.241 10.0841   1
  -1   3  -5 90.4681 5.09369  -2
   1  -3  -6 90.4681 5.09369   1
  -1   3  -5 99.8843 6.37134  -2
   1  -3  -6 99.8843 6.37134   1
   1  -3   5 96.5455 6.07046  -2
  -1   3   6 96.5455 6.07046   1
   1  -3   5 97.6010 5.17507  -2
  -1   3   6 97.6010 5.17507   1
   1  -3   5 92.5679 5.10339  -2
  -1   3   6 92.5679 5.10339   1
   1  -3   5 94.9828 5.71188  -2
  -1   3   6 94.9828 5.71188   1
   0   3  -5 901.184 21.0308  -2
   0  -3  -6 901.184 21.0308   1
   0   3  -5 880.398 20.6163  -2
   0  -3  -6 880.398 20.6163   1
   0   3  -5 921.341 20.9541  -2
   0  -3  -6 921.341 20.9541   1
   0   3  -5 977.020 24.2845  -2
   0  -3  -6 977.020 24.2845   1
   0   3  -5 895.221 22.0660  -2
   0  -3  -6 895.221 22.0660   1
   0  -3   5 889.013 21.3964  -2
   0   3   6 889.013 21.3964   1
   0  -3   5 948.495 22.9167  -2
   0   3   6 948.495 22.9167   1
   0  -3   5 867.527 22.9013  -2
   0   3   6 867.527 22.9013   1
   0  -3   5 926.175 21.5703  -2
   0   3   6 926.175 21.5703   1
   0  -3   5 885.362 23.6732  -2
   0   3   6 885.362 23.6732   1
   1   3  -5 903.722 18.0553  -2
  -1  -3  -6 903.722 18.0553   1
   1   3  -5 878.599 18.1934  -2
  -1  -3  -6 878.599 18.1934   1
   1   3  -5 818.015 20.8515  -2
  -1  -3  -6 818.015 20.8515   1
  -1  -3   5 786.168 19.4005  -2
   1   3   6 786.168 19.4005   1
  -1  -3   5 763.769 19.6951  -2
   1   3   6 763.769 19.6951   1
  -1  -3   5 742.683 20.1859  -2
   1   3   6 742.683 20.1859   1
  -1  -3   5 748.951 21.4362  -2
   1   3   6 748.951 21.4362   1
  -1  -3   5 760.054 19.1699  -2
   1   3   6 760.054 19.1699   1
  -1  -3   5 771.668 21.2693  -2
   1   3   6 771.668 21.2693   1
   2   3  -5 3011.03 53.4545  -2
  -2  -3  -6 3011.03 53.4545   1
   2   3  -5 2864.40 61.6343  -2
  -2  -3  -6 2864.40 61.6343   1
   2   3  -5 2862.83 53.0469  -2
  -2  -3  -6 2862.83 53.0469   1
  -2  -3   5 2877.28 60.6903  -2
   2   3   6 2877.28 60.6903   1
  -2  -3   5 2893.72 60.0911  -2
   2   3   6 2893.72 60.0911   1
  -2  -3   5 2875.41 62.5723  -2
   2   3   6 2875.41 62.5723   1
   3   3  -5 1093.52 28.6991  -2
  -3  -3  -6 1093.52 28.6991   1
  -3  -3   5 1052.81 26.9428  -2
   3   3   6 1052.81 26.9428   1
  -3  -3   5 1084.26 27.1075  -2
   3   3   6 1084.26 27.1075   1
  -3  -3   5 1097.10 23.6335  -2
   3   3   6 1097.10 23.6335   1
   4   3  -5 3301.67 69.8279  -2
  -4  -3  -6 3301.67 69.8279   1
  -4  -3   5 3199.01 68.4860  -2
   4   3   6 3199.01 68.4860   1
  -4  -3   5 3092.23 66.4735  -2
   4   3   6 3092.23 66.4735   1
   5   3  -5 346.774 14.4832  -2
  -5  -3  -6 346.774 14.4832   1
  -5  -3   5 341.871 12.5745  -2
   5   3   6 341.871 12.5745   1
  -6  -3  -6 0.27978 1.59137   1
   6   3   6 1.34512 1.38625   1
   6   3   6 1.60129 1.77100   1
  -7  -3  -6 33.8874 5.26880   1
   7   3   6 49.0830 5.59285   1
   7   3   6 42.7787 4.00931   1
  -8  -3  -6 205.233 12.7920   1
   8   3   6 202.609 9.01666   1
   8   3   6 213.368 12.1047   1
  -7   4   6 7.35627 2.88606   1
  -6   4  -5 67.9474 7.23302  -2
   6  -4  -6 67.9474 7.23302   1
   6  -4   5 57.2643 6.34339  -2
  -6   4   6 57.2643 6.34339   1
  -5   4  -5 332.862 14.1132  -2
   5  -4  -6 332.862 14.1132   1
   5  -4   5 319.427 9.01927  -2
  -5   4   6 319.427 9.01927   1
   5  -4   5 339.688 13.5931  -2
  -5   4   6 339.688 13.5931   1
  -4   4  -5 104.915 7.36949  -2
   4  -4  -6 104.915 7.36949   1
   4  -4   5 105.393 6.82783  -2
  -4   4   6 105.393 6.82783   1
   4  -4   5 94.5891 4.95268  -2
  -4   4   6 94.5891 4.95268   1
   4  -4   5 101.022 4.72168  -2
  -4   4   6 101.022 4.72168   1
  -3   4  -5 297.888 12.2929  -2
   3  -4  -6 297.888 12.2929   1
  -3   4  -5 281.413 10.6290  -2
   3  -4  -6 281.413 10.6290   1
   3  -4   5 306.342 9.87920  -2
  -3   4   6 306.342 9.87920   1
   3  -4   5 305.758 11.2841  -2
  -3   4   6 305.758 11.2841   1
   3  -4   5 283.969 9.38302  -2
  -3   4   6 283.969 9.38302   1
  -2   4  -5 3874.85 79.2958  -2
   2  -4  -6 3874.85 79.2958   1
  -2   4  -5 3634.19 71.1262  -2
   2  -4  -6 3634.19 71.1262   1
   2  -4   5 3579.66 70.0460  -2
  -2   4   6 3579.66 70.0460   1
   2  -4   5 3808.62 73.3028  -2
  -2   4   6 3808.62 73.3028   1
   2  -4   5 3495.03 73.5798  -2
  -2   4   6 3495.03 73.5798   1
   2  -4   5 3623.24 70.6943  -2
  -2   4   6 3623.24 70.6943   1
  -1   4  -5 1439.74 32.7001  -2
   1  -4  -6 1439.74 32.7001   1
  -1   4  -5 1376.47 30.9044  -2
   1  -4  -6 1376.47 30.9044   1
  -1   4  -5 1512.50 35.4427  -2
   1  -4  -6 1512.50 35.4427   1
  -1   4  -5 1361.13 31.0045  -2
   1  -4  -6 1361.13 31.0045   1
   1  -4   5 1545.98 33.3342  -2
  -1   4   6 1545.98 33.3342   1
   1  -4   5 1416.41 34.6371  -2
  -1   4   6 1416.41 34.6371   1
   1  -4   5 1473.84 32.0222  -2
  -1   4   6 1473.84 32.0222   1
   1  -4   5 1386.65 32.3118  -2
  -1   4   6 1386.65 32.3118   1
   1  -4   5 1379.47 30.8844  -2
  -1   4   6 1379.47 30.8844   1
   1  -4   5 1409.04 31.2181  -2
  -1   4   6 1409.04 31.2181   1
   0   4  -5 1149.39 25.8002  -2
   0  -4  -6 1149.39 25.8002   1
   0   4  -5 1167.67 25.6447  -2
   0  -4  -6 1167.67 25.6447   1
   0   4  -5 1156.78 27.6092  -2
   0  -4  -6 1156.78 27.6092   1
   0  -4   5 1190.98 29.3886  -2
   0   4   6 1190.98 29.3886   1
   0  -4   5 1151.39 27.5100  -2
   0   4   6 1151.39 27.5100   1
   0  -4   5 1161.03 26.2878  -2
   0   4   6 1161.03 26.2878   1
   0  -4   5 1152.73 27.5805  -2
   0   4   6 1152.73 27.5805   1
   0  -4   5 1194.48 26.6386  -2
   0   4   6 1194.48 26.6386   1
   0  -4   5 1154.06 27.7684  -2
   0   4   6 1154.06 27.7684   1
  -1  -4  -6 62.5483 4.60282   1
  -1  -4  -6 58.9616 3.25623   1
  -1  -4  -6 59.0815 3.44034   1
  -1  -4   5 234.491 8.82949  -2
   1   4   6 234.491 8.82949   1
  -2  -4  -6 627.288 18.8931   1
  -2  -4  -6 636.231 13.4546   1
  -2  -4  -6 631.906 13.1713   1
   2   4   6 629.860 17.6831   1
   2   4   6 606.990 17.8828   1
   2   4   6 630.866 16.2508   1
  -3  -4  -6 679.607 20.9762   1
   3   4   6 726.042 19.4370   1
   3   4   6 705.348 19.5490   1
  -4  -4  -6 1.12211 1.59254   1
   4   4   6 1.82009 1.16656   1
   4   4   6 0.60711 1.11974   1
  -5  -4  -6 151.286 9.46742   1
   5   4   6 144.761 7.08379   1
   5   4   6 140.160 7.82226   1
  -6  -4  -6 126.621 9.23933   1
   6   4   6 140.150 8.35116   1
   6   4   6 137.961 6.85843   1
  -7  -4  -6 745.736 25.6224   1
   7   4   6 707.686 19.5679   1
  -7   5  -5 40.3739 5.53043  -2
   7  -5  -6 40.3739 5.53043   1
   7  -5   5 33.9343 5.28595  -2
  -7   5   6 33.9343 5.28595   1
  -6   5  -5 386.871 16.3899  -2
   6  -5  -6 386.871 16.3899   1
   6  -5   5 342.220 14.7728  -2
  -6   5   6 342.220 14.7728   1
  -5   5  -5 212.223 11.4034  -2
   5  -5  -6 212.223 11.4034   1
   5  -5   5 195.547 7.11276  -2
  -5   5   6 195.547 7.11276   1
   5  -5   5 168.006 9.55224  -2
  -5   5   6 168.006 9.55224   1
   5  -5   5 185.931 6.21472  -2
  -5   5   6 185.931 6.21472   1
  -4   5  -5 384.649 15.2575  -2
   4  -5  -6 384.649 15.2575   1
   4  -5   5 356.537 10.9105  -2
  -4   5   6 356.537 10.9105   1
   4  -5   5 356.808 13.4034  -2
  -4   5   6 356.808 13.4034   1
   4  -5   5 351.911 11.1457  -2
  -4   5   6 351.911 11.1457   1
  -3   5  -5 939.196 23.8870  -2
   3  -5  -6 939.196 23.8870   1
   3  -5   5 899.547 22.0768  -2
  -3   5   6 899.547 22.0768   1
  -2   5  -5 3912.68 75.7651  -2
   2  -5  -6 3912.68 75.7651   1
  -2   5   6 1335.56 31.5498   1
  -2   5   6 1413.05 31.2428   1
  -2   5   6 1323.81 30.3316   1
  -2   5   6 1346.42 30.3040   1
   1  -5  -6 289.038 10.0750   1
   1  -5  -6 295.362 9.91181   1
   1  -5  -6 281.454 10.0294   1
  -1   5   6 292.137 10.0381   1
  -1   5   6 282.446 10.0087   1
  -1   5   6 295.647 10.1600   1
  -1   5   6 292.349 10.2171   1
  -1   5   6 293.513 11.4999   1
   0  -5  -6 155.504 6.57744   1
   0  -5  -6 154.660 6.57338   1
   0   5   6 155.491 6.91980   1
   0   5   6 158.677 6.84675   1
   0   5   6 162.036 7.96059   1
   0   5   6 167.647 7.17065   1
   0   5   6 158.435 7.40714   1
   0   5   6 150.592 6.82009   1
  -1  -5  -6 73.3413 3.60125   1
  -1  -5  -6 71.8437 3.84105   1
   1   5   6 69.3228 4.41121   1
   1   5   6 67.8062 5.01400   1
   1   5   6 75.2876 4.73928   1
   1   5   6 69.5007 5.04238   1
   1   5   6 71.3500 4.50154   1
  -2  -5  -6 287.456 11.6818   1
   2   5   6 283.608 9.92523   1
   2   5   6 283.584 10.8016   1
   2   5   6 280.493 9.29371   1
   2   5   6 282.645 11.4819   1
  -3  -5  -6 115.708 7.51713   1
   3   5   6 118.867 4.86871   1
   3   5   6 128.514 6.51640   1
   3   5   6 119.497 6.39105   1
   3   5   6 113.681 7.32477   1
  -4  -5  -6 278.151 12.6242   1
   4   5   6 278.203 12.6270   1
   4   5   6 275.843 11.4448   1
   4   5   6 273.978 10.3059   1
   5   5  -4 110.590 8.34709  -2
  -5  -5  -6 110.590 8.34709   1
  -5  -5   4 116.283 6.48034  -2
   5   5   6 116.283 6.48034   1
   6   5  -4 1424.22 38.4489  -2
  -6  -5  -6 1424.22 38.4489   1
  -6  -5   4 1383.78 33.1815  -2
   6   5   6 1383.78 33.1815   1
   7   5  -4 796.818 26.5848  -2
  -7  -5  -6 796.818 26.5848   1
  -7  -5   4 756.406 20.6254  -2
   7   5   6 756.406 20.6254   1
  -7  -5   4 798.268 27.8123  -2
   7   5   6 798.268 27.8123   1
   6  -6  -6 518.523 20.0890   1
  -6   6   6 540.771 19.3311   1
   5  -6  -6 46.3610 5.57387   1
  -5   6   6 37.6974 2.99727   1
  -5   6   6 40.5508 4.66125   1
  -5   6   6 40.4473 3.39033   1
   4  -6  -6 710.400 22.7310   1
  -4   6   6 672.525 17.6160   1
  -4   6   6 666.092 20.3957   1
  -4   6   6 690.276 18.0262   1
   3  -6  -6 344.702 12.7503   1
   3  -6  -6 357.997 13.0189   1
   3  -6  -6 336.904 12.7965   1
   3  -6  -6 374.327 14.8164   1
  -3   6   6 348.038 11.5276   1
  -3   6   6 342.035 11.7120   1
  -3   6   6 355.127 12.4688   1
   2  -6  -6 0.46026 1.12039   1
   2  -6  -6 -0.7964 0.94854   1
   2  -6  -6 -0.0342 0.93922   1
  -2   6   6 0.49643 0.95958   1
  -2   6   6 2.04902 1.19715   1
  -2   6   6 0.19429 0.94130   1
  -2   6   6 -1.0222 0.82644   1
   1  -6  -6 129.296 6.60000   1
   1  -6  -6 142.001 6.74093   1
   1  -6  -6 136.550 6.21651   1
   1  -6   4 304.696 10.7562  -2
  -1   6   6 304.696 10.7562   1
   0  -6  -6 14.7089 2.14296   1
   0  -6  -6 13.9326 2.27293   1
   0  -6   4 30.3907 4.18718  -2
   0   6   6 30.3907 4.18718   1
   0  -6   4 30.9656 3.93589  -2
   0   6   6 30.9656 3.93589   1
   1   6  -4 1563.39 31.0617  -2
  -1  -6  -6 1563.39 31.0617   1
   1   6  -4 1562.56 31.4923  -2
  -1  -6  -6 1562.56 31.4923   1
  -1  -6   4 1523.69 37.1402  -2
   1   6   6 1523.69 37.1402   1
  -1  -6   4 1597.90 37.5449  -2
   1   6   6 1597.90 37.5449   1
  -1  -6   4 1477.19 35.6029  -2
   1   6   6 1477.19 35.6029   1
  -2  -6   4 1350.34 34.1797  -2
   2   6   6 1350.34 34.1797   1
  -2  -6   4 1381.24 33.2820  -2
   2   6   6 1381.24 33.2820   1
  -2  -6   4 1313.02 31.3747  -2
   2   6   6 1313.02 31.3747   1
   3   6  -4 668.967 20.9504  -2
  -3  -6  -6 668.967 20.9504   1
  -3  -6   4 638.960 16.7894  -2
   3   6   6 638.960 16.7894   1
  -3  -6   4 654.056 20.9374  -2
   3   6   6 654.056 20.9374   1
  -3  -6   4 621.215 18.6825  -2
   3   6   6 621.215 18.6825   1
   4   6  -4 199.128 10.5972  -2
  -4  -6  -6 199.128 10.5972   1
  -4  -6   4 199.128 10.8517  -2
   4   6   6 199.128 10.8517   1
  -4  -6   4 174.643 8.29657  -2
   4   6   6 174.643 8.29657   1
   5   6  -4 766.807 24.7992  -2
  -5  -6  -6 766.807 24.7992   1
  -5  -6   4 713.977 20.5140  -2
   5   6   6 713.977 20.5140   1
  -5  -6   4 802.588 25.7249  -2
   5   6   6 802.588 25.7249   1
   6   6  -4 353.930 16.2756  -2
  -6  -6  -6 353.930 16.2756   1
  -6  -6   4 352.327 12.5153  -2
   6   6   6 352.327 12.5153   1
  -6  -6   4 390.561 17.8380  -2
   6   6   6 390.561 17.8380   1
  -7  -6  -6 39.1534 5.75262   1
  -7  -6   4 249.369 15.3777  -2
   7   6   6 249.369 15.3777   1
  -7  -6   4 205.525 9.13958  -2
   7   6   6 205.525 9.13958   1
   6  -7  -6 9.38915 3.23454   1
   6  -7  -6 4.06098 2.14174   1
  -6   7   6 7.71682 2.82295   1
  -6   7   6 8.26461 2.00640   1
  -5   7  -4 130.625 8.41602  -2
   5  -7  -6 130.625 8.41602   1
  -5   7   6 66.3638 4.22449   1
  -5   7   6 65.2946 5.94157   1
  -5   7   6 59.7416 4.34972   1
  -4   7  -4 38.1514 4.87386  -2
   4  -7  -6 38.1514 4.87386   1
   4  -7   4 33.3161 4.69400  -2
  -4   7   6 33.3161 4.69400   1
   4  -7   4 43.3546 4.51578  -2
  -4   7   6 43.3546 4.51578   1
   4  -7   4 34.1420 3.98305  -2
  -4   7   6 34.1420 3.98305   1
  -3   7  -4 22.8715 3.89106  -2
   3  -7  -6 22.8715 3.89106   1
  -3   7  -4 22.1640 3.53910  -2
   3  -7  -6 22.1640 3.53910   1
  -3   7  -4 14.6108 3.62269  -2
   3  -7  -6 14.6108 3.62269   1
   3  -7   4 18.5911 3.54391  -2
  -3   7   6 18.5911 3.54391   1
   3  -7   4 18.2479 3.41065  -2
  -3   7   6 18.2479 3.41065   1
   3  -7   4 27.1357 3.76961  -2
  -3   7   6 27.1357 3.76961   1
  -2   7  -4 216.567 9.35164  -2
   2  -7  -6 216.567 9.35164   1
  -2   7  -4 205.881 8.91527  -2
   2  -7  -6 205.881 8.91527   1
  -2   7  -4 202.294 9.04682  -2
   2  -7  -6 202.294 9.04682   1
   2  -7   4 215.371 9.23264  -2
  -2   7   6 215.371 9.23264   1
   2  -7   4 207.464 8.99703  -2
  -2   7   6 207.464 8.99703   1
   2  -7   4 223.426 9.74723  -2
  -2   7   6 223.426 9.74723   1
  -1   7  -4 36.0606 3.47061  -2
   1  -7  -6 36.0606 3.47061   1
  -1   7  -4 43.2644 3.96605  -2
   1  -7  -6 43.2644 3.96605   1
   1  -7   4 50.4264 4.28512  -2
  -1   7   6 50.4264 4.28512   1
   1  -7   4 47.0793 4.77518  -2
  -1   7   6 47.0793 4.77518   1
   1  -7   4 53.4629 4.69824  -2
  -1   7   6 53.4629 4.69824   1
   1  -7   4 41.2367 4.06339  -2
  -1   7   6 41.2367 4.06339   1
   0   7  -4 1691.86 36.0596  -2
   0  -7  -6 1691.86 36.0596   1
   0   7  -4 1710.21 36.0322  -2
   0  -7  -6 1710.21 36.0322   1
   0  -7   4 1744.11 41.8409  -2
   0   7   6 1744.11 41.8409   1
   0  -7   4 1721.93 37.8394  -2
   0   7   6 1721.93 37.8394   1
   0  -7   4 1728.68 40.8355  -2
   0   7   6 1728.68 40.8355   1
   1   7  -4 1879.10 37.1609  -2
  -1  -7  -6 1879.10 37.1609   1
   1   7  -4 1959.85 37.9560  -2
  -1  -7  -6 1959.85 37.9560   1
  -1  -7   4 1854.79 44.4187  -2
   1   7   6 1854.79 44.4187   1
  -1  -7   4 1818.51 42.7560  -2
   1   7   6 1818.51 42.7560   1
  -1  -7   4 1910.94 44.7296  -2
   1   7   6 1910.94 44.7296   1
  -2  -7  -6 971.293 21.7264   1
  -2  -7   4 2073.89 48.0893  -2
   2   7   6 2073.89 48.0893   1
   3   7   6 192.116 10.3975   1
   3   7   6 200.659 9.16453   1
   3   7   6 209.328 7.90162   1
   4   7   6 538.777 19.5715   1
   4   7   6 540.333 16.7739   1
  -5  -7  -6 26.9255 4.44963   1
   5   7   6 20.8291 2.95711   1
   5   7   6 22.2015 4.45072   1
  -6  -7  -6 176.382 11.1759   1
   6   7   6 166.273 11.0784   1
   6   7   6 170.159 7.93586   1
   7   7   6 1.35588 1.74433   1
   7   7   6 1.08413 2.38755   1
  -5   8  -4 458.661 17.2535  -2
   5  -8  -6 458.661 17.2535   1
   5  -8   4 428.193 13.9072  -2
  -5   8   6 428.193 13.9072   1
   5  -8   4 467.777 13.8060  -2
  -5   8   6 467.777 13.8060   1
  -4   8  -4 714.454 22.4475  -2
   4  -8  -6 714.454 22.4475   1
  -4   8  -4 772.392 22.6281  -2
   4  -8  -6 772.392 22.6281   1
   4  -8   4 739.290 20.4593  -2
  -4   8   6 739.290 20.4593   1
   4  -8   4 738.343 20.0086  -2
  -4   8   6 738.343 20.0086   1
  -3   8  -4 695.414 20.4512  -2
   3  -8  -6 695.414 20.4512   1
  -3   8  -4 696.176 20.7599  -2
   3  -8  -6 696.176 20.7599   1
  -3   8  -4 688.198 20.3650  -2
   3  -8  -6 688.198 20.3650   1
   3  -8   4 656.063 19.1472  -2
  -3   8   6 656.063 19.1472   1
   3  -8   4 645.501 19.0707  -2
  -3   8   6 645.501 19.0707   1
   2  -8  -6 79.0288 5.76938   1
   2  -8  -6 81.6628 6.04933   1
   2  -8   4 448.650 14.8683  -2
  -2   8   6 448.650 14.8683   1
   2  -8   4 427.795 14.5977  -2
  -2   8   6 427.795 14.5977   1
  -1   8  -4 370.620 12.8771  -2
   1  -8  -6 370.620 12.8771   1
  -1   8  -4 374.029 12.8184  -2
   1  -8  -6 374.029 12.8184   1
  -1   8   6 324.821 11.9390   1
  -1   8   6 319.988 12.9489   1
  -1   8   6 329.641 12.0069   1
   0  -8  -6 201.539 8.28719   1
   0  -8  -6 198.829 7.93713   1
   0   8   6 192.262 9.87516   1
   0   8   6 202.438 10.0649   1
  -1  -8  -6 161.192 6.39061   1
  -1  -8  -6 157.774 5.69889   1
   1   8   6 179.094 9.49980   1
   1   8   6 162.046 8.71481   1
   1   8   6 153.229 7.78773   1
  -2  -8  -6 205.528 7.48415   1
   2   8   6 201.656 9.61699   1
   2   8   6 186.343 8.49047   1
   2   8   6 193.078 10.4352   1
   3   8   6 160.812 7.28441   1
   3   8   6 152.298 9.55903   1
   3   8   6 165.674 8.60598   1
   4   8   6 429.036 17.6756   1
   4   8   6 437.004 15.2296   1
   5   8   6 111.327 8.91769   1
   5   8   6 97.8998 6.43290   1
  -6  -8   3 141.325 11.7597  -2
   6   8   6 141.325 11.7597   1
  -6  -8   3 146.007 8.02760  -2
   6   8   6 146.007 8.02760   1
   4  -9  -6 626.751 20.4802   1
   4  -9  -6 577.648 19.4527   1
  -4   9   6 558.074 17.4800   1
  -4   9   6 582.348 18.0923   1
   3  -9  -6 361.270 14.2349   1
   3  -9  -6 381.773 14.7058   1
   3  -9  -6 391.174 14.3977   1
  -3   9   6 381.528 13.6089   1
  -3   9   6 363.049 13.5907   1
   2  -9  -6 877.335 24.4020   1
   2  -9  -6 914.617 24.5902   1
  -2   9   6 907.199 24.2463   1
  -2   9   6 927.084 26.7462   1
  -2   9   6 899.043 24.1196   1
   1  -9  -6 206.661 9.44094   1
   1  -9  -6 207.261 9.25849   1
  -1   9   6 228.372 11.1389   1
  -1   9   6 217.605 9.85439   1
   0  -9  -6 442.901 13.5225   1
   0  -9  -6 464.438 14.0717   1
   0   9   6 482.491 17.3606   1
   0   9   6 461.778 17.1866   1
   1   9  -3 18.5404 2.74407  -2
  -1  -9  -6 18.5404 2.74407   1
   1   9   6 4.71005 1.97016   1
   1   9   6 -0.8287 1.30695   1
   1   9   6 3.62076 1.69915   1
   2   9  -3 88.0577 5.15558  -2
  -2  -9  -6 88.0577 5.15558   1
  -2  -9   3 98.2598 8.16800  -2
   2   9   6 98.2598 8.16800   1
  -2  -9   3 86.4572 6.22425  -2
   2   9   6 86.4572 6.22425   1
  -3  -9   3 359.906 13.0116  -2
   3   9   6 359.906 13.0116   1
  -3  -9   3 339.967 15.6794  -2
   3   9   6 339.967 15.6794   1
  -3  -9   3 343.137 13.8100  -2
   3   9   6 343.137 13.8100   1
  -4  -9   3 240.933 10.9226  -2
   4   9   6 240.933 10.9226   1
  -4  -9   3 214.845 12.7395  -2
   4   9   6 214.845 12.7395   1
  -5  -9   3 631.611 24.0828  -2
   5   9   6 631.611 24.0828   1
  -5  -9   3 609.934 19.1977  -2
   5   9   6 609.934 19.1977   1
  -3  10  -3 185.573 10.4437  -2
   3 -10  -6 185.573 10.4437   1
  -3  10  -3 177.835 10.3533  -2
   3 -10  -6 177.835 10.3533   1
   3 -10   3 203.680 10.5609  -2
  -3  10   6 203.680 10.5609   1
  -2  10  -3 181.670 9.73631  -2
   2 -10  -6 181.670 9.73631   1
  -2  10  -3 180.255 9.78927  -2
   2 -10  -6 180.255 9.78927   1
   2 -10   3 191.455 10.1922  -2
  -2  10   6 191.455 10.1922   1
   2 -10   3 195.858 11.2859  -2
  -2  10   6 195.858 11.2859   1
   2 -10   3 175.108 9.69812  -2
  -2  10   6 175.108 9.69812   1
  -1  10  -3 315.815 11.8917  -2
   1 -10  -6 315.815 11.8917   1
  -1  10  -3 337.230 12.5837  -2
   1 -10  -6 337.230 12.5837   1
   1 -10   3 363.989 15.8352  -2
  -1  10   6 363.989 15.8352   1
   1 -10   3 323.560 13.1999  -2
  -1  10   6 323.560 13.1999   1
   0  10  -3 226.385 8.68982  -2
   0 -10  -6 226.385 8.68982   1
   0  10  -3 244.911 10.5110  -2
   0 -10  -6 244.911 10.5110   1
   0  10  -3 217.208 8.97841  -2
   0 -10  -6 217.208 8.97841   1
   0 -10   3 250.611 12.6522  -2
   0  10   6 250.611 12.6522   1
   1  10  -3 789.254 18.7303  -2
  -1 -10  -6 789.254 18.7303   1
   1  10  -3 777.154 21.0010  -2
  -1 -10  -6 777.154 21.0010   1
  -1 -10   3 819.604 26.4736  -2
   1  10   6 819.604 26.4736   1
   2  10  -3 255.338 9.23499  -2
  -2 -10  -6 255.338 9.23499   1
  -2 -10   3 273.680 11.8348  -2
   2  10   6 273.680 11.8348   1
  -2 -10   3 249.008 13.5443  -2
   2  10   6 249.008 13.5443   1
  -3 -10   3 809.149 27.7007  -2
   3  10   6 809.149 27.7007   1
  -3 -10   3 841.027 23.9206  -2
   3  10   6 841.027 23.9206   1
  -2  11  -3 54.4740 6.52315  -2
   2 -11  -6 54.4740 6.52315   1
  -2  11  -3 64.4433 6.17255  -2
   2 -11  -6 64.4433 6.17255   1
  -2  11  -3 75.9123 7.61831  -2
   2 -11  -6 75.9123 7.61831   1
   2 -11   3 67.5414 6.61548  -2
  -2  11   6 67.5414 6.61548   1
   2 -11   3 72.6621 7.22996  -2
  -2  11   6 72.6621 7.22996   1
  -1  11  -3 444.151 15.5609  -2
   1 -11  -6 444.151 15.5609   1
  -1  11  -3 457.964 16.8021  -2
   1 -11  -6 457.964 16.8021   1
  -1  11  -3 445.673 14.8502  -2
   1 -11  -6 445.673 14.8502   1
   1 -11   3 484.806 19.7249  -2
  -1  11   6 484.806 19.7249   1
   0  11  -3 205.678 10.5689  -2
   0 -11  -6 205.678 10.5689   1
   0  11  -3 188.752 8.86749  -2
   0 -11  -6 188.752 8.86749   1
   0  11   6 166.877 10.6611   1
  -1 -11  -6 332.719 10.1252   1
  -1 -11  -6 337.348 12.4481   1
   1  11   6 343.864 16.0619   1
   2  11   6 166.571 11.3645   1
   3  11   6 256.066 11.6760   1
   2   9  10 8.36890 2.80150  -2
  -2  -9   7 8.36890 2.80150   1
   1   9  -7 113.722 9.17601   1
   1   9  10 100.231 6.93187  -2
  -1  -9   7 100.231 6.93187   1
   1   9  10 116.605 6.93350  -2
  -1  -9   7 116.605 6.93350   1
   0   9  -7 11.9266 3.61810   1
   0   9  -7 9.54379 4.00754   1
   0  -9   7 11.9153 3.52000   1
   0  -9   7 2.57946 2.54239   1
   0  -9   7 6.97387 2.27432   1
  -1   9  -7 6.43929 3.71261   1
  -1   9  -7 3.68181 2.58441   1
  -1   9  -7 6.27081 2.59951   1
   1  -9   7 5.56329 2.48191   1
   1  -9   7 7.39863 3.06857   1
   1  -9   7 8.39828 3.27388   1
  -2   9  -7 6.99640 3.37108   1
   4   8  -7 334.945 16.2242   1
   3   8  -7 48.9795 6.36887   1
  -3  -8   7 53.2538 4.57157   1
   2   8  -7 79.9619 7.83909   1
  -2  -8   7 86.6009 4.26734   1
  -2  -8   7 77.9624 4.88821   1
  -2  -8   7 78.9283 6.20968   1
   1   8  -7 0.07927 2.06430   1
  -1  -8   7 -1.4865 0.99710   1
  -1  -8   7 -0.1644 1.53907   1
  -1  -8   7 0.75160 1.08492   1
   0   8  -7 196.138 9.86477   1
   0   8  -7 193.301 11.3763   1
   0  -8   7 181.193 9.53466   1
   0  -8   7 164.057 9.90458   1
   0  -8   7 165.705 8.93656   1
  -1   8  -7 5.11559 2.38102   1
  -1   8  -7 4.25930 3.12419   1
  -1   8  -7 4.38399 2.36549   1
   1  -8   7 3.43994 1.94978   1
   1  -8   7 5.21883 2.51971   1
   1  -8   7 5.22586 2.50372   1
   2  -8  -9 12.0051 4.70856  -2
  -2   8  -7 12.0051 4.70856   1
   2  -8  -9 0.24923 4.82845  -2
  -2   8  -7 0.24923 4.82845   1
  -2   8   9 6.67693 4.45886  -2
   2  -8   7 6.67693 4.45886   1
   3  -8  -9 55.9924 6.53183  -2
  -3   8  -7 55.9924 6.53183   1
   3  -8  -9 64.4048 7.42710  -2
  -3   8  -7 64.4048 7.42710   1
   3  -8  -9 65.0240 9.26947  -2
  -3   8  -7 65.0240 9.26947   1
  -3   8   9 55.4468 6.70295  -2
   3  -8   7 55.4468 6.70295   1
   5   7  -7 5.33952 2.89803   1
   4   7  -7 10.1363 3.63228   1
   3   7  -7 1.54088 2.13493   1
  -3  -7   7 -0.1933 1.06420   1
  -2  -7  -9 196.963 12.1918  -2
   2   7  -7 196.963 12.1918   1
   2   7   9 201.916 7.54675  -2
  -2  -7   7 201.916 7.54675   1
   2   7   9 203.543 8.52628  -2
  -2  -7   7 203.543 8.52628   1
   2   7   9 205.570 10.1519  -2
  -2  -7   7 205.570 10.1519   1
  -1  -7  -9 355.708 15.1359  -2
   1   7  -7 355.708 15.1359   1
   1   7   9 343.226 12.9375  -2
  -1  -7   7 343.226 12.9375   1
   1   7   9 366.981 12.6598  -2
  -1  -7   7 366.981 12.6598   1
   1   7   9 364.955 14.4804  -2
  -1  -7   7 364.955 14.4804   1
   0  -7  -9 42.2217 5.93652  -2
   0   7  -7 42.2217 5.93652   1
   0  -7  -9 41.4827 5.03252  -2
   0   7  -7 41.4827 5.03252   1
   0   7   9 42.9069 5.38699  -2
   0  -7   7 42.9069 5.38699   1
   0   7   9 30.5791 4.56087  -2
   0  -7   7 30.5791 4.56087   1
   0   7   9 39.2506 4.98812  -2
   0  -7   7 39.2506 4.98812   1
   0   7   9 40.7573 4.71398  -2
   0  -7   7 40.7573 4.71398   1
   1  -7  -9 9.34707 3.29178  -2
  -1   7  -7 9.34707 3.29178   1
   1  -7  -9 11.6056 2.96631  -2
  -1   7  -7 11.6056 2.96631   1
   1  -7  -9 7.34449 3.69689  -2
  -1   7  -7 7.34449 3.69689   1
  -1   7   9 12.7766 3.50121  -2
   1  -7   7 12.7766 3.50121   1
  -1   7   9 9.05306 2.91072  -2
   1  -7   7 9.05306 2.91072   1
  -1   7   9 9.39034 3.13805  -2
   1  -7   7 9.39034 3.13805   1
  -1   7   9 16.2958 3.34712  -2
   1  -7   7 16.2958 3.34712   1
   2  -7  -9 615.870 19.1765  -2
  -2   7  -7 615.870 19.1765   1
   2  -7  -9 617.232 22.9743  -2
  -2   7  -7 617.232 22.9743   1
   2  -7  -9 599.272 19.1284  -2
  -2   7  -7 599.272 19.1284   1
  -2   7   9 618.344 22.4649  -2
   2  -7   7 618.344 22.4649   1
  -2   7   9 605.570 19.6275  -2
   2  -7   7 605.570 19.6275   1
  -2   7   9 608.095 19.5688  -2
   2  -7   7 608.095 19.5688   1
  -2   7   9 639.136 20.3516  -2
   2  -7   7 639.136 20.3516   1
   3  -7  -9 306.436 16.5203  -2
  -3   7  -7 306.436 16.5203   1
   3  -7  -9 315.970 12.8868  -2
  -3   7  -7 315.970 12.8868   1
   3  -7  -9 332.139 13.4169  -2
  -3   7  -7 332.139 13.4169   1
  -3   7   9 322.178 15.3455  -2
   3  -7   7 322.178 15.3455   1
  -3   7   9 325.495 13.8422  -2
   3  -7   7 325.495 13.8422   1
  -3   7   9 327.934 13.9794  -2
   3  -7   7 327.934 13.9794   1
   4  -7  -9 97.2936 6.58410  -2
  -4   7  -7 97.2936 6.58410   1
   4  -7  -9 104.676 11.0836  -2
  -4   7  -7 104.676 11.0836   1
   4  -7  -9 96.6377 7.08977  -2
  -4   7  -7 96.6377 7.08977   1
  -4   7   9 124.219 10.0693  -2
   4  -7   7 124.219 10.0693   1
  -4   7   9 89.9708 7.82864  -2
   4  -7   7 89.9708 7.82864   1
  -5  -6  -9 19.9914 5.56024  -2
   5   6  -7 19.9914 5.56024   1
  -4  -6  -9 8.92931 3.89221  -2
   4   6  -7 8.92931 3.89221   1
  -3  -6  -9 76.6998 6.98455  -2
   3   6  -7 76.6998 6.98455   1
   3   6   9 64.7175 5.01077  -2
  -3  -6   7 64.7175 5.01077   1
   3   6   9 73.2728 5.90721  -2
  -3  -6   7 73.2728 5.90721   1
  -2  -6  -9 191.038 11.1685  -2
   2   6  -7 191.038 11.1685   1
   2   6   9 194.388 10.0794  -2
  -2  -6   7 194.388 10.0794   1
   2   6   9 199.129 8.21909  -2
  -2  -6   7 199.129 8.21909   1
   2   6   9 182.624 7.29382  -2
  -2  -6   7 182.624 7.29382   1
   2   6   9 198.348 9.57688  -2
  -2  -6   7 198.348 9.57688   1
  -1  -6  -9 416.422 17.2244  -2
   1   6  -7 416.422 17.2244   1
  -1  -6  -9 424.899 15.9136  -2
   1   6  -7 424.899 15.9136   1
   1   6   9 438.413 15.5333  -2
  -1  -6   7 438.413 15.5333   1
   1   6   9 423.946 16.0961  -2
  -1  -6   7 423.946 16.0961   1
   1   6   9 421.433 14.1376  -2
  -1  -6   7 421.433 14.1376   1
   1   6   9 443.950 14.0293  -2
  -1  -6   7 443.950 14.0293   1
   0   6  -7 110.112 7.71813   1
   0   6  -7 109.778 6.84154   1
   0   6  -7 113.604 6.93374   1
   0   6   9 149.609 8.42269  -2
   0  -6   7 149.609 8.42269   1
   0   6   9 153.539 9.63267  -2
   0  -6   7 153.539 9.63267   1
   0   6   9 166.984 8.91513  -2
   0  -6   7 166.984 8.91513   1
   0   6   9 138.515 8.74903  -2
   0  -6   7 138.515 8.74903   1
  -1   6  -7 6.75201 2.14785   1
  -1   6  -7 -0.9354 1.63825   1
  -1   6  -7 6.49947 2.29583   1
   1  -6   7 9.39993 2.84002   1
   1  -6   7 4.35232 1.86883   1
   1  -6   7 6.27603 2.58184   1
   1  -6   7 3.29489 1.83843   1
  -2   6  -7 160.230 8.52376   1
  -2   6  -7 167.489 8.57176   1
  -2   6  -7 158.439 10.2493   1
   2  -6   7 174.951 10.3813   1
   2  -6   7 166.710 8.82068   1
   2  -6   7 164.781 8.89872   1
   2  -6   7 164.852 8.84058   1
  -3   6  -7 -0.0392 2.04511   1
  -3   6  -7 1.12176 1.33316   1
  -3   6  -7 0.05860 1.63314   1
   3  -6   7 0.05500 1.11828   1
   3  -6   7 0.79082 1.52401   1
  -4   6  -7 21.8307 3.46294   1
  -4   6  -7 28.6453 5.63012   1
  -4   6  -7 21.8235 3.14367   1
   4  -6   7 21.2297 3.61201   1
   4  -6   7 24.5696 4.65298   1
  -5   6  -7 177.063 7.74901   1
  -5   6  -7 163.814 12.2974   1
   5  -6   7 178.054 11.5723   1
   5  -6   7 173.508 11.2846   1
   5  -6   7 178.132 9.98342   1
  -6  -5  -9 79.5587 8.19779  -2
   6   5  -7 79.5587 8.19779   1
   6   5   9 79.0879 7.01673  -2
  -6  -5   7 79.0879 7.01673   1
  -5  -5  -9 18.8901 5.63059  -2
   5   5  -7 18.8901 5.63059   1
   5   5   9 14.4668 4.07368  -2
  -5  -5   7 14.4668 4.07368   1
   4   5  -7 210.180 11.4819   1
   4   5   9 337.659 13.8274  -2
  -4  -5   7 337.659 13.8274   1
   3   5  -7 242.194 11.9983   1
  -3  -5   7 223.447 7.13562   1
  -3  -5   7 225.200 9.00060   1
  -3  -5   7 219.957 10.5754   1
   2   5  -7 223.310 11.4465   1
  -2  -5   7 223.253 10.7044   1
  -2  -5   7 225.596 8.57801   1
  -2  -5   7 239.518 9.84824   1
  -2  -5   7 232.679 8.13942   1
   1   5  -7 138.350 8.79971   1
   1   5  -7 143.267 7.48883   1
   1   5  -7 147.293 8.00552   1
  -1  -5   7 137.228 7.12849   1
  -1  -5   7 138.782 8.18915   1
  -1  -5   7 143.081 7.00142   1
  -1  -5   7 140.263 7.79461   1
   0   5  -7 164.502 8.28638   1
   0   5  -7 190.801 9.60557   1
   0   5  -7 187.235 8.61195   1
   0  -5   7 173.506 8.53929   1
   0  -5   7 185.170 9.19080   1
   0  -5   7 186.255 9.86519   1
   0  -5   7 177.111 8.47558   1
  -1   5  -7 24.2982 3.98748   1
  -1   5  -7 19.2216 3.42715   1
  -1   5  -7 21.5309 3.28185   1
   1  -5   7 26.1031 3.90658   1
   1  -5   7 23.6849 3.51449   1
   1  -5   7 21.3013 3.29894   1
   1  -5   7 22.7544 3.66726   1
   1  -5   7 19.2241 2.97884   1
  -2   5  -7 423.848 17.0520   1
  -2   5  -7 429.033 14.3356   1
  -2   5  -7 406.922 14.0495   1
   2  -5   7 419.085 14.8931   1
   2  -5   7 442.706 17.0266   1
   2  -5   7 426.236 14.7452   1
   2  -5   7 435.012 14.8311   1
   3  -5  -8 169.853 8.48039  -2
  -3   5  -7 169.853 8.48039   1
   3  -5   7 60.9945 6.22835   1
   3  -5   7 66.0297 5.48148   1
   3  -5   7 64.4391 6.31418   1
   4  -5  -8 223.063 8.03718  -2
  -4   5  -7 223.063 8.03718   1
   4  -5  -8 212.227 8.75761  -2
  -4   5  -7 212.227 8.75761   1
   4  -5  -8 204.930 12.8200  -2
  -4   5  -7 204.930 12.8200   1
  -4   5   8 207.421 11.6242  -2
   4  -5   7 207.421 11.6242   1
   5  -5  -8 15.4465 5.10279  -2
  -5   5  -7 15.4465 5.10279   1
   5  -5  -8 5.20033 2.14701  -2
  -5   5  -7 5.20033 2.14701   1
  -5   5   8 6.38318 3.89428  -2
   5  -5   7 6.38318 3.89428   1
  -5   5   8 3.69597 4.07964  -2
   5  -5   7 3.69597 4.07964   1
  -5   5   8 10.6241 4.13032  -2
   5  -5   7 10.6241 4.13032   1
  -6   5   8 90.2266 7.42514  -2
   6  -5   7 90.2266 7.42514   1
  -6   5   8 94.3069 8.50083  -2
   6  -5   7 94.3069 8.50083   1
  -6   5   8 85.8117 8.36097  -2
   6  -5   7 85.8117 8.36097   1
   6   4  -7 19.0882 4.36315   1
  -6  -4   7 30.8289 4.47592   1
   5   4  -7 42.1436 5.37084   1
  -5  -4   7 52.1113 5.26026   1
   4   4  -7 36.0084 4.90396   1
  -4  -4   7 39.4882 4.42331   1
   3   4  -7 2.57767 1.99954   1
  -3  -4   7 3.46983 1.72651   1
  -3  -4   7 6.27741 1.50940   1
   2   4  -7 20.4800 3.60405   1
   2   4   8 130.246 6.61016  -2
  -2  -4   7 130.246 6.61016   1
   1   4  -7 606.173 17.8715   1
   1   4  -7 601.907 20.0946   1
   1   4  -7 602.084 17.2030   1
   1   4  -7 626.691 17.6750   1
   1   4   8 802.360 20.6646  -2
  -1  -4   7 802.360 20.6646   1
   1   4   8 831.866 21.3229  -2
  -1  -4   7 831.866 21.3229   1
   1   4   8 761.691 23.4247  -2
  -1  -4   7 761.691 23.4247   1
   0  -4  -8 22.1138 4.23412  -2
   0   4  -7 22.1138 4.23412   1
   0  -4  -8 20.9547 4.30536  -2
   0   4  -7 20.9547 4.30536   1
   0   4   8 25.6398 4.12549  -2
   0  -4   7 25.6398 4.12549   1
   0   4   8 30.3015 4.14458  -2
   0  -4   7 30.3015 4.14458   1
   0   4   8 20.6064 4.08204  -2
   0  -4   7 20.6064 4.08204   1
   0   4   8 27.1255 3.49056  -2
   0  -4   7 27.1255 3.49056   1
   0   4   8 19.3221 4.01133  -2
   0  -4   7 19.3221 4.01133   1
   1  -4  -8 106.007 7.39263  -2
  -1   4  -7 106.007 7.39263   1
   1  -4  -8 92.8747 6.07605  -2
  -1   4  -7 92.8747 6.07605   1
   1  -4  -8 96.2454 6.20829  -2
  -1   4  -7 96.2454 6.20829   1
  -1   4   8 101.371 6.50938  -2
   1  -4   7 101.371 6.50938   1
  -1   4   8 100.384 6.65215  -2
   1  -4   7 100.384 6.65215   1
  -1   4   8 99.9308 6.40621  -2
   1  -4   7 99.9308 6.40621   1
  -1   4   8 105.130 6.66244  -2
   1  -4   7 105.130 6.66244   1
  -1   4   8 96.3383 7.62131  -2
   1  -4   7 96.3383 7.62131   1
   2  -4  -8 929.923 27.3044  -2
  -2   4  -7 929.923 27.3044   1
   2  -4  -8 924.684 23.7283  -2
  -2   4  -7 924.684 23.7283   1
   2  -4  -8 915.655 23.5968  -2
  -2   4  -7 915.655 23.5968   1
  -2   4   8 1013.19 28.2587  -2
   2  -4   7 1013.19 28.2587   1
  -2   4   8 989.157 28.1220  -2
   2  -4   7 989.157 28.1220   1
  -2   4   8 994.606 26.0903  -2
   2  -4   7 994.606 26.0903   1
  -2   4   8 946.838 24.3635  -2
   2  -4   7 946.838 24.3635   1
  -2   4   8 943.095 24.5336  -2
   2  -4   7 943.095 24.5336   1
   3  -4  -8 99.6912 7.99407  -2
  -3   4  -7 99.6912 7.99407   1
   3  -4  -8 99.4569 5.59476  -2
  -3   4  -7 99.4569 5.59476   1
   3  -4  -8 105.062 6.15677  -2
  -3   4  -7 105.062 6.15677   1
  -3   4   8 99.3656 7.67715  -2
   3  -4   7 99.3656 7.67715   1
  -3   4   8 107.953 6.72031  -2
   3  -4   7 107.953 6.72031   1
  -3   4   8 117.446 7.86956  -2
   3  -4   7 117.446 7.86956   1
   4  -4  -8 205.544 7.31672  -2
  -4   4  -7 205.544 7.31672   1
   4  -4  -8 204.196 12.2775  -2
  -4   4  -7 204.196 12.2775   1
   4  -4  -8 216.302 8.34495  -2
  -4   4  -7 216.302 8.34495   1
  -4   4   8 213.929 10.0358  -2
   4  -4   7 213.929 10.0358   1
  -4   4   8 229.818 11.7832  -2
   4  -4   7 229.818 11.7832   1
  -4   4   8 210.128 11.7418  -2
   4  -4   7 210.128 11.7418   1
   5  -4  -8 155.190 11.1470  -2
  -5   4  -7 155.190 11.1470   1
  -5   4   8 163.734 10.2775  -2
   5  -4   7 163.734 10.2775   1
  -5   4   8 153.394 10.5617  -2
   5  -4   7 153.394 10.5617   1
  -5   4   8 172.824 9.14233  -2
   5  -4   7 172.824 9.14233   1
  -6   4  -7 198.513 13.5129   1
   6  -4   7 216.951 10.4775   1
   6  -4   7 214.850 12.8493   1
   6  -4   7 220.734 11.9788   1
   7   3  -7 27.7586 4.65258   1
  -7  -3   7 34.0519 4.80751   1
   6   3  -7 198.698 11.3479   1
  -6  -3   7 185.647 10.5580   1
  -5  -3  -8 170.632 10.2734  -2
   5   3  -7 170.632 10.2734   1
   5   3   8 152.737 9.01721  -2
  -5  -3   7 152.737 9.01721   1
  -4  -3  -8 340.419 14.5677  -2
   4   3  -7 340.419 14.5677   1
   4   3   8 335.971 13.5278  -2
  -4  -3   7 335.971 13.5278   1
  -3  -3  -8 185.296 10.1316  -2
   3   3  -7 185.296 10.1316   1
   3   3   8 168.515 6.21603  -2
  -3  -3   7 168.515 6.21603   1
   3   3   8 178.417 9.28630  -2
  -3  -3   7 178.417 9.28630   1
   3   3   8 176.027 5.45011  -2
  -3  -3   7 176.027 5.45011   1
  -2  -3  -8 18.4587 3.41496  -2
   2   3  -7 18.4587 3.41496   1
   2   3   8 25.8215 3.28761  -2
  -2  -3   7 25.8215 3.28761   1
   2   3   8 23.0805 2.79922  -2
  -2  -3   7 23.0805 2.79922   1
   2   3   8 27.4908 3.83933  -2
  -2  -3   7 27.4908 3.83933   1
   2   3   8 22.2351 2.47706  -2
  -2  -3   7 22.2351 2.47706   1
  -1  -3  -8 21.9239 3.76550  -2
   1   3  -7 21.9239 3.76550   1
  -1  -3  -8 7.26551 2.33464  -2
   1   3  -7 7.26551 2.33464   1
  -1  -3  -8 3.10551 2.26544  -2
   1   3  -7 3.10551 2.26544   1
  -1  -3  -8 4.28482 2.34519  -2
   1   3  -7 4.28482 2.34519   1
   1   3   8 3.92270 2.20072  -2
  -1  -3   7 3.92270 2.20072   1
   1   3   8 5.85046 2.36215  -2
  -1  -3   7 5.85046 2.36215   1
   1   3   8 2.34480 1.83496  -2
  -1  -3   7 2.34480 1.83496   1
   1   3   8 1.25280 1.83921  -2
  -1  -3   7 1.25280 1.83921   1
   0  -3  -8 133.948 8.42873  -2
   0   3  -7 133.948 8.42873   1
   0  -3  -8 136.032 7.39421  -2
   0   3  -7 136.032 7.39421   1
   0  -3  -8 124.757 6.88380  -2
   0   3  -7 124.757 6.88380   1
   0  -3  -8 137.152 7.20732  -2
   0   3  -7 137.152 7.20732   1
   0   3   8 133.976 7.55293  -2
   0  -3   7 133.976 7.55293   1
   0   3   8 143.066 7.12425  -2
   0  -3   7 143.066 7.12425   1
   0   3   8 132.362 7.22721  -2
   0  -3   7 132.362 7.22721   1
   0   3   8 134.556 8.59401  -2
   0  -3   7 134.556 8.59401   1
   0   3   8 138.201 7.43282  -2
   0  -3   7 138.201 7.43282   1
   1  -3  -8 707.628 21.1942  -2
  -1   3  -7 707.628 21.1942   1
   1  -3  -8 717.789 19.2980  -2
  -1   3  -7 717.789 19.2980   1
  -1   3   8 769.711 21.2343  -2
   1  -3   7 769.711 21.2343   1
  -1   3   8 724.426 23.4564  -2
   1  -3   7 724.426 23.4564   1
  -1   3   8 719.094 20.3678  -2
   1  -3   7 719.094 20.3678   1
  -1   3   8 713.818 19.7301  -2
   1  -3   7 713.818 19.7301   1
  -1   3   8 700.879 22.1896  -2
   1  -3   7 700.879 22.1896   1
  -1   3   8 743.213 20.1700  -2
   1  -3   7 743.213 20.1700   1
   2  -3  -8 60.0079 4.87551  -2
  -2   3  -7 60.0079 4.87551   1
   2  -3  -8 63.6057 5.26486  -2
  -2   3  -7 63.6057 5.26486   1
   2  -3   7 63.4288 5.52637   1
   2  -3   7 61.2988 5.61772   1
   2  -3   7 55.4937 4.53662   1
   2  -3   7 60.5783 4.65991   1
   2  -3   7 63.5942 4.80249   1
   3  -3  -8 1097.98 25.1911  -2
  -3   3  -7 1097.98 25.1911   1
   3  -3  -8 1059.78 24.3949  -2
  -3   3  -7 1059.78 24.3949   1
   3  -3   7 717.637 22.3204   1
   3  -3   7 710.805 20.3983   1
   3  -3   7 692.446 22.6646   1
  -4   3  -7 406.639 17.4523   1
  -4   3  -7 397.256 11.5107   1
   4  -3   7 423.110 16.7450   1
   4  -3   7 403.164 15.6789   1
   4  -3   7 398.120 13.8070   1
  -5   3  -7 279.059 14.8278   1
   5  -3   7 293.653 11.4536   1
   5  -3   7 293.379 14.0447   1
   5  -3   7 285.564 13.1550   1
  -6   3  -7 30.8404 5.68467   1
   6  -3   7 44.5627 4.50322   1
   6  -3   7 39.8707 5.07803   1
   6  -3   7 42.2556 5.51974   1
  -7   3  -7 15.3498 5.37880   1
   7  -3   7 20.4109 4.61485   1
   7  -3   7 17.6940 3.79356   1
   7  -3   7 21.5476 3.90616   1
  -7  -2  -8 357.628 15.7637  -2
   7   2  -7 357.628 15.7637   1
   7   2   8 370.001 15.8285  -2
  -7  -2   7 370.001 15.8285   1
  -6  -2  -8 19.2699 3.88781  -2
   6   2  -7 19.2699 3.88781   1
   6   2   8 17.7596 3.48672  -2
  -6  -2   7 17.7596 3.48672   1
  -5  -2  -8 158.688 9.41733  -2
   5   2  -7 158.688 9.41733   1
   5   2   8 168.054 9.38399  -2
  -5  -2   7 168.054 9.38399   1
  -4  -2  -8 101.707 7.61660  -2
   4   2  -7 101.707 7.61660   1
   4   2   8 80.9422 6.55875  -2
  -4  -2   7 80.9422 6.55875   1
  -3  -2  -8 87.5343 7.25710  -2
   3   2  -7 87.5343 7.25710   1
   3   2   8 84.0980 3.97364  -2
  -3  -2   7 84.0980 3.97364   1
   3   2   8 83.9896 4.47792  -2
  -3  -2   7 83.9896 4.47792   1
   3   2   8 82.7205 6.56335  -2
  -3  -2   7 82.7205 6.56335   1
   2   2  -7 287.943 10.6478   1
   2   2  -7 297.029 12.7087   1
   2   2   8 318.806 10.5231  -2
  -2  -2   7 318.806 10.5231   1
   1   2  -7 10.6236 2.28409   1
   1   2  -7 9.43944 2.28998   1
   1   2  -7 10.5714 2.44682   1
   1   2  -7 4.68577 1.99941   1
   1   2   8 47.8946 4.80497  -2
  -1  -2   7 47.8946 4.80497   1
   0   2  -7 1425.03 34.5162   1
   0   2  -7 1461.16 33.3478   1
   0   2  -7 1495.02 33.2417   1
   0   2  -7 1528.49 37.5507   1
   0  -2   7 1478.84 36.2447   1
   0  -2   7 1520.28 33.0404   1
   0  -2   7 1520.95 32.9309   1
   0  -2   7 1381.33 33.3877   1
   0  -2   7 1492.36 34.1586   1
   0  -2   7 1493.94 36.8087   1
  -1   2  -7 406.780 14.6432   1
  -1   2  -7 426.763 13.4845   1
  -1   2  -7 426.301 13.2937   1
   1  -2   7 415.504 13.3241   1
   1  -2   7 426.198 13.8408   1
   1  -2   7 445.275 15.1864   1
   1  -2   7 422.569 13.2975   1
   1  -2   7 416.367 15.6269   1
   1  -2   7 424.001 13.6939   1
  -2   2  -7 168.689 9.29316   1
  -2   2  -7 170.435 7.48842   1
  -2   2  -7 164.461 7.53805   1
   2  -2   7 173.869 9.04915   1
   2  -2   7 167.544 7.75657   1
   2  -2   7 178.104 7.98993   1
   2  -2   7 182.311 7.97308   1
   2  -2   7 178.103 9.45934   1
  -3   2  -7 36.4189 4.77371   1
  -3   2  -7 38.2785 3.39431   1
   3  -2   7 42.9479 3.82155   1
   3  -2   7 51.9287 4.85713   1
   3  -2   7 45.3021 4.98101   1
   4  -2  -7 226.276 11.8641  -2
  -4   2  -7 226.276 11.8641   1
   4  -2   7 102.449 6.98853   1
   4  -2   7 106.651 7.70941   1
   4  -2   7 107.040 6.13404   1
   5  -2  -7 3.45185 4.24645  -2
  -5   2  -7 3.45185 4.24645   1
   5  -2   7 6.75841 2.54544   1
   5  -2   7 3.03450 1.47973   1
   5  -2   7 3.70656 1.98351   1
   6  -2  -7 394.285 17.7066  -2
  -6   2  -7 394.285 17.7066   1
  -6   2   7 379.249 16.7621  -2
   6  -2   7 379.249 16.7621   1
  -6   2   7 394.238 15.5879  -2
   6  -2   7 394.238 15.5879   1
   7  -2  -7 175.399 11.5991  -2
  -7   2  -7 175.399 11.5991   1
  -7   2   7 161.915 11.3144  -2
   7  -2   7 161.915 11.3144   1
  -7   2   7 158.789 9.76914  -2
   7  -2   7 158.789 9.76914   1
  -7  -1  -8 13.2637 4.84563  -2
   7   1  -7 13.2637 4.84563   1
   7   1   8 16.9636 4.73001  -2
  -7  -1   7 16.9636 4.73001   1
   6   1  -7 6.59234 2.70782   1
  -6  -1   7 2.66749 1.87597   1
   5   1  -7 26.6245 4.39375   1
  -5  -1   7 26.3240 4.02539   1
   4   1  -7 214.919 11.1237   1
  -4  -1   7 227.517 10.6584   1
   3   1  -7 644.085 21.0724   1
  -3  -1   7 629.777 14.7556   1
  -3  -1   7 629.283 15.4652   1
  -3  -1   7 622.863 19.5490   1
   2   1  -7 288.472 12.7331   1
   2   1  -7 308.241 11.0925   1
   2   1  -7 303.145 11.1611   1
  -2  -1   7 295.738 10.0340   1
  -2  -1   7 312.691 12.5974   1
  -2  -1   7 307.329 9.76564   1
   1   1  -7 254.472 9.14178   1
   1   1  -7 258.280 11.6013   1
   1   1  -7 247.761 9.88054   1
   1   1  -7 256.496 9.80517   1
   1   1   7 688.422 18.0876  -2
  -1  -1   7 688.422 18.0876   1
   0  -1  -7 396.406 14.5658  -2
   0   1  -7 396.406 14.5658   1
   0  -1   7 199.492 7.97597   1
   0  -1   7 197.614 8.41584   1
   0  -1   7 207.020 8.15950   1
   0  -1   7 199.861 9.67374   1
   0  -1   7 200.309 9.32438   1
   0  -1   7 199.760 8.18619   1
   1  -1  -7 238.872 9.12245  -2
  -1   1  -7 238.872 9.12245   1
   1  -1  -7 240.372 9.21622  -2
  -1   1  -7 240.372 9.21622   1
  -1   1   7 235.349 9.54942  -2
   1  -1   7 235.349 9.54942   1
   2  -1  -7 64.9175 5.89855  -2
  -2   1  -7 64.9175 5.89855   1
   2  -1  -7 70.7660 4.61442  -2
  -2   1  -7 70.7660 4.61442   1
  -2   1   7 70.3024 6.00273  -2
   2  -1   7 70.3024 6.00273   1
  -2   1   7 69.1972 5.00826  -2
   2  -1   7 69.1972 5.00826   1
  -2   1   7 68.5709 4.93933  -2
   2  -1   7 68.5709 4.93933   1
  -2   1   7 61.3109 5.46878  -2
   2  -1   7 61.3109 5.46878   1
  -2   1   7 86.3336 5.40167  -2
   2  -1   7 86.3336 5.40167   1
   3  -1  -7 358.872 14.0192  -2
  -3   1  -7 358.872 14.0192   1
   3  -1  -7 341.691 9.71408  -2
  -3   1  -7 341.691 9.71408   1
  -3   1   7 369.631 11.8986  -2
   3  -1   7 369.631 11.8986   1
  -3   1   7 381.500 13.9974  -2
   3  -1   7 381.500 13.9974   1
  -3   1   7 345.570 14.1365  -2
   3  -1   7 345.570 14.1365   1
   4  -1  -7 116.060 8.01027  -2
  -4   1  -7 116.060 8.01027   1
  -4   1   7 118.726 5.93493  -2
   4  -1   7 118.726 5.93493   1
  -4   1   7 107.871 6.90950  -2
   4  -1   7 107.871 6.90950   1
  -4   1   7 96.7708 7.28659  -2
   4  -1   7 96.7708 7.28659   1
   5  -1  -7 252.905 12.8557  -2
  -5   1  -7 252.905 12.8557   1
  -5   1   7 303.803 10.1970  -2
   5  -1   7 303.803 10.1970   1
  -5   1   7 273.263 11.9803  -2
   5  -1   7 273.263 11.9803   1
  -5   1   7 262.055 12.9414  -2
   5  -1   7 262.055 12.9414   1
   6  -1  -7 173.317 10.8127  -2
  -6   1  -7 173.317 10.8127   1
  -6   1   7 179.897 11.0249  -2
   6  -1   7 179.897 11.0249   1
  -6   1   7 169.611 9.47147  -2
   6  -1   7 169.611 9.47147   1
   7  -1  -7 240.672 14.3717  -2
  -7   1  -7 240.672 14.3717   1
  -7   1   7 264.250 12.5063  -2
   7  -1   7 264.250 12.5063   1
  -7   1   7 236.998 13.7357  -2
   7  -1   7 236.998 13.7357   1
   7   0  -7 0.64987 1.83068   1
  -7   0   7 3.54110 2.22513   1
   6   0  -7 275.076 13.2890   1
  -6   0   7 290.308 13.1663   1
   5   0  -7 35.1160 4.84436   1
  -5   0   7 33.0049 4.25919   1
   4   0  -7 364.413 15.1427   1
  -4   0   7 364.692 9.32682   1
  -4   0   7 383.139 14.5868   1
  -3   0  -7 134.162 8.37374  -2
   3   0  -7 134.162 8.37374   1
   3   0   7 135.829 5.41822  -2
  -3   0   7 135.829 5.41822   1
   3   0   7 134.217 5.77374  -2
  -3   0   7 134.217 5.77374   1
   3   0   7 126.422 7.82027  -2
  -3   0   7 126.422 7.82027   1
  -2   0  -7 416.448 15.4251  -2
   2   0  -7 416.448 15.4251   1
  -2   0  -7 429.070 13.6831  -2
   2   0  -7 429.070 13.6831   1
  -2   0  -7 438.448 13.7547  -2
   2   0  -7 438.448 13.7547   1
   2   0   7 398.952 14.7139  -2
  -2   0   7 398.952 14.7139   1
   2   0   7 438.903 12.5137  -2
  -2   0   7 438.903 12.5137   1
   2   0   7 437.404 12.7060  -2
  -2   0   7 437.404 12.7060   1
  -1   0  -7 378.515 11.4142  -2
   1   0  -7 378.515 11.4142   1
  -1   0  -7 386.117 12.4993  -2
   1   0  -7 386.117 12.4993   1
  -1   0  -7 378.352 12.4104  -2
   1   0  -7 378.352 12.4104   1
  -1   0  -7 414.724 14.7334  -2
   1   0  -7 414.724 14.7334   1
   1   0   7 407.319 12.4994  -2
  -1   0   7 407.319 12.4994   1
   1   0   7 421.464 14.9300  -2
  -1   0   7 421.464 14.9300   1
   1   0   7 430.787 12.3372  -2
  -1   0   7 430.787 12.3372   1
   1   0   7 431.969 14.8150  -2
  -1   0   7 431.969 14.8150   1
   1   0   7 411.522 12.6716  -2
  -1   0   7 411.522 12.6716   1
   1   0   7 382.832 12.7494  -2
  -1   0   7 382.832 12.7494   1
   0   0  -7 929.470 23.0099  -2
   0   0  -7 929.470 23.0099   1
   0   0  -7 955.577 25.7933  -2
   0   0  -7 955.577 25.7933   1
   0   0  -7 912.624 22.2600  -2
   0   0  -7 912.624 22.2600   1
   0   0  -7 905.517 22.2518  -2
   0   0  -7 905.517 22.2518   1
   0   0   7 932.502 22.8455  -2
   0   0   7 932.502 22.8455   1
   0   0   7 901.593 23.3694  -2
   0   0   7 901.593 23.3694   1
   0   0   7 993.097 26.7168  -2
   0   0   7 993.097 26.7168   1
   0   0   7 963.845 24.2680  -2
   0   0   7 963.845 24.2680   1
   0   0   7 1012.66 23.5895  -2
   0   0   7 1012.66 23.5895   1
   0   0   7 961.296 26.1406  -2
   0   0   7 961.296 26.1406   1
   1   0  -7 286.339 10.3079  -2
  -1   0  -7 286.339 10.3079   1
   1   0  -7 261.553 9.04366  -2
  -1   0  -7 261.553 9.04366   1
  -1   0   7 273.330 10.4005  -2
   1   0   7 273.330 10.4005   1
  -1   0   7 286.692 10.2732  -2
   1   0   7 286.692 10.2732   1
  -1   0   7 230.582 11.3413  -2
   1   0   7 230.582 11.3413   1
  -1   0   7 273.754 11.5448  -2
   1   0   7 273.754 11.5448   1
  -1   0   7 281.205 10.2511  -2
   1   0   7 281.205 10.2511   1
  -1   0   7 246.494 9.91876  -2
   1   0   7 246.494 9.91876   1
   2   0  -7 285.881 8.83465  -2
  -2   0  -7 285.881 8.83465   1
   2   0  -7 285.382 11.1136  -2
  -2   0  -7 285.382 11.1136   1
  -2   0   7 289.559 10.4852  -2
   2   0   7 289.559 10.4852   1
  -2   0   7 293.238 10.3688  -2
   2   0   7 293.238 10.3688   1
  -2   0   7 277.484 11.9357  -2
   2   0   7 277.484 11.9357   1
  -2   0   7 278.045 12.2644  -2
   2   0   7 278.045 12.2644   1
   3   0  -7 119.539 3.63609  -2
  -3   0  -7 119.539 3.63609   1
   3   0  -7 116.803 4.60578  -2
  -3   0  -7 116.803 4.60578   1
   3   0  -7 124.404 8.02424  -2
  -3   0  -7 124.404 8.02424   1
   3   0   7 83.9561 6.39435   1
   3   0   7 76.2728 4.63409   1
   3   0   7 80.8115 5.62304   1
  -4   0  -7 239.210 12.1775   1
   4   0   7 239.940 10.4658   1
   4   0   7 236.139 11.4095   1
   4   0   7 256.067 8.88382   1
  -5   0  -7 527.197 20.4287   1
   5   0   7 552.975 19.5376   1
   5   0   7 573.980 18.2359   1
  -6   0  -7 181.829 11.6262   1
   6   0   7 177.084 10.5290   1
   6   0   7 169.442 9.01144   1
  -7   0  -7 312.165 16.2633   1
   7   0   7 316.885 13.2038   1
   7   0   7 314.447 15.4279   1
  -7   1  -7 179.064 11.0420  -2
   7  -1  -7 179.064 11.0420   1
   7  -1   7 175.055 10.8732  -2
  -7   1   7 175.055 10.8732   1
  -6   1  -7 246.297 12.5081  -2
   6  -1  -7 246.297 12.5081   1
   6  -1   7 211.651 11.4312  -2
  -6   1   7 211.651 11.4312   1
  -5   1  -7 268.139 12.4421  -2
   5  -1  -7 268.139 12.4421   1
   5  -1   7 222.879 11.0740  -2
  -5   1   7 222.879 11.0740   1
  -4   1  -7 148.290 8.82136  -2
   4  -1  -7 148.290 8.82136   1
   4  -1   7 142.704 4.57703  -2
  -4   1   7 142.704 4.57703   1
   4  -1   7 143.835 5.35294  -2
  -4   1   7 143.835 5.35294   1
   4  -1   7 149.574 8.50357  -2
  -4   1   7 149.574 8.50357   1
  -3   1  -7 347.774 14.1059  -2
   3  -1  -7 347.774 14.1059   1
   3  -1   7 351.564 10.5784  -2
  -3   1   7 351.564 10.5784   1
   3  -1   7 367.048 10.4383  -2
  -3   1   7 367.048 10.4383   1
   3  -1   7 348.578 13.4056  -2
  -3   1   7 348.578 13.4056   1
  -2   1  -7 33.8111 4.51320  -2
   2  -1  -7 33.8111 4.51320   1
  -2   1  -7 50.0076 4.38412  -2
   2  -1  -7 50.0076 4.38412   1
  -2   1  -7 49.8696 4.25999  -2
   2  -1  -7 49.8696 4.25999   1
   2  -1   7 44.0340 4.84317  -2
  -2   1   7 44.0340 4.84317   1
   2  -1   7 47.1350 3.93256  -2
  -2   1   7 47.1350 3.93256   1
   2  -1   7 35.3244 3.40000  -2
  -2   1   7 35.3244 3.40000   1
  -1   1  -7 150.560 6.01905  -2
   1  -1  -7 150.560 6.01905   1
  -1   1  -7 152.053 6.90625  -2
   1  -1  -7 152.053 6.90625   1
  -1   1  -7 146.768 8.30090  -2
   1  -1  -7 146.768 8.30090   1
   1  -1   7 125.481 7.98931  -2
  -1   1   7 125.481 7.98931   1
   1  -1   7 135.009 6.82648  -2
  -1   1   7 135.009 6.82648   1
   0   1  -7 382.638 11.9192  -2
   0  -1  -7 382.638 11.9192   1
   0  -1   7 402.542 12.5660  -2
   0   1   7 402.542 12.5660   1
   1   1  -7 872.477 20.7176  -2
  -1  -1  -7 872.477 20.7176   1
   1   1   7 737.669 19.3509   1
   1   1   7 744.746 21.6061   1
   1   1   7 763.889 19.0835   1
   1   1   7 764.528 19.0367   1
   1   1   7 734.732 19.7345   1
   1   1   7 750.530 21.3322   1
  -2  -1  -7 150.393 6.02146   1
  -2  -1  -7 149.808 8.19502   1
   2   1   7 145.330 8.11169   1
   2   1   7 148.494 7.74609   1
   2   1   7 155.492 6.78546   1
  -3  -1  -7 786.609 23.8859   1
   3   1   7 811.237 22.6165   1
   3   1   7 785.691 23.1768   1
   3   1   7 813.418 20.2070   1
  -4  -1  -7 44.6761 5.34386   1
   4   1   7 45.3443 4.84253   1
   4   1   7 54.3660 3.51250   1
   4   1   7 43.3008 4.20647   1
  -5  -1  -7 207.677 11.7187   1
   5   1   7 219.942 9.88859   1
   5   1   7 243.114 11.5651   1
  -6  -1  -7 65.9635 6.88858   1
   6   1   7 58.1611 5.09334   1
   6   1   7 67.6852 6.43192   1
   7   1  -6 234.322 13.3998  -2
  -7  -1  -7 234.322 13.3998   1
   7   1   7 192.627 11.6778   1
   7   1   7 181.167 9.42173   1
  -7   2  -7 321.832 15.3429  -2
   7  -2  -7 321.832 15.3429   1
   7  -2   7 261.236 13.7737  -2
  -7   2   7 261.236 13.7737   1
  -6   2  -7 438.093 17.5248  -2
   6  -2  -7 438.093 17.5248   1
   6  -2   7 415.163 16.7721  -2
  -6   2   7 415.163 16.7721   1
  -5   2  -7 1.21330 3.94515  -2
   5  -2  -7 1.21330 3.94515   1
  -5   2   7 1.37639 1.52872   1
   4  -2  -7 188.520 10.0837   1
   4  -2   7 256.578 8.33355  -2
  -4   2   7 256.578 8.33355   1
   3  -2  -7 17.9074 3.39944   1
  -3   2   7 18.2643 2.32649   1
  -3   2   7 21.0564 3.23122   1
  -3   2   7 12.5488 1.90665   1
   2  -2  -7 74.3683 5.90120   1
   2  -2  -7 73.8390 5.20631   1
  -2   2   7 66.7470 4.38672   1
  -2   2   7 63.7299 5.20653   1
  -2   2   7 66.5720 4.32432   1
   1  -2  -7 755.837 19.8029   1
   1  -2  -7 740.057 18.4557   1
   1  -2  -7 747.785 22.1385   1
  -1   2   7 748.754 19.2985   1
  -1   2   7 759.686 19.2093   1
  -1   2   7 774.275 21.7162   1
  -1   2   7 789.971 21.6694   1
  -1   2   7 718.669 18.9422   1
   0  -2  -7 45.4152 3.66733   1
   0  -2  -7 41.6284 3.70123   1
   0  -2  -7 47.6978 4.40947   1
   0  -2  -7 42.2039 3.66512   1
   0  -2   6 93.5866 5.68343  -2
   0   2   7 93.5866 5.68343   1
  -1  -2  -7 158.770 7.84567   1
  -1  -2  -7 171.552 6.93240   1
   1   2   7 169.223 7.20717   1
   1   2   7 187.872 8.63191   1
   1   2   7 176.785 7.23944   1
   1   2   7 170.924 7.25354   1
   1   2   7 180.101 7.79276   1
   1   2   7 171.094 8.37764   1
   2   2  -6 773.591 16.4259  -2
  -2  -2  -7 773.591 16.4259   1
   2   2  -6 743.793 16.8755  -2
  -2  -2  -7 743.793 16.8755   1
   2   2  -6 719.585 21.4418  -2
  -2  -2  -7 719.585 21.4418   1
   2   2   7 757.206 21.2415   1
   2   2   7 740.266 21.6308   1
   2   2   7 755.201 19.5712   1
   3   2  -6 1140.19 30.3379  -2
  -3  -2  -7 1140.19 30.3379   1
  -3  -2   6 1181.40 30.0909  -2
   3   2   7 1181.40 30.0909   1
   4   2  -6 677.511 21.6829  -2
  -4  -2  -7 677.511 21.6829   1
  -4  -2   6 756.229 21.9572  -2
   4   2   7 756.229 21.9572   1
  -4  -2   6 725.645 21.2751  -2
   4   2   7 725.645 21.2751   1
   5   2  -6 135.032 9.08193  -2
  -5  -2  -7 135.032 9.08193   1
  -5  -2   6 159.924 9.38323  -2
   5   2   7 159.924 9.38323   1
  -5  -2   6 167.322 8.62016  -2
   5   2   7 167.322 8.62016   1
   6   2  -6 258.556 13.0113  -2
  -6  -2  -7 258.556 13.0113   1
  -6  -2   6 252.370 12.3934  -2
   6   2   7 252.370 12.3934   1
  -6  -2   6 203.006 10.0175  -2
   6   2   7 203.006 10.0175   1
   7   2  -6 89.7753 8.26716  -2
  -7  -2  -7 89.7753 8.26716   1
  -7  -2   6 105.058 8.51576  -2
   7   2   7 105.058 8.51576   1
  -7  -2   6 98.6300 7.07080  -2
   7   2   7 98.6300 7.07080   1
   7  -3  -7 6.11882 2.64989   1
  -7   3   7 4.90582 2.86759   1
   6  -3  -7 13.0141 3.58993   1
  -6   3   7 6.45200 2.70576   1
   5  -3  -7 187.870 10.6401   1
  -5   3   7 182.464 9.84722   1
  -5   3   7 189.215 6.12528   1
   4  -3  -7 19.1483 3.59762   1
  -4   3   7 17.1394 1.92483   1
  -4   3   7 19.8964 3.36825   1
  -4   3   7 16.3316 2.26751   1
   3  -3  -7 213.943 10.3709   1
   3  -3  -7 202.291 10.3825   1
  -3   3   7 192.870 9.44767   1
  -3   3   7 195.284 7.46154   1
  -3   3   7 190.646 7.67808   1
  -2   3  -6 121.158 6.58074  -2
   2  -3  -7 121.158 6.58074   1
   2  -3   6 133.559 6.64841  -2
  -2   3   7 133.559 6.64841   1
  -1   3  -6 2090.72 45.0521  -2
   1  -3  -7 2090.72 45.0521   1
  -1   3  -6 2108.91 44.4679  -2
   1  -3  -7 2108.91 44.4679   1
  -1   3  -6 2249.14 50.3297  -2
   1  -3  -7 2249.14 50.3297   1
   1  -3   6 2113.13 47.2972  -2
  -1   3   7 2113.13 47.2972   1
   1  -3   6 2186.96 47.1054  -2
  -1   3   7 2186.96 47.1054   1
   1  -3   6 2088.84 44.1594  -2
  -1   3   7 2088.84 44.1594   1
   1  -3   6 2131.21 44.9944  -2
  -1   3   7 2131.21 44.9944   1
   1  -3   6 2161.27 44.5116  -2
  -1   3   7 2161.27 44.5116   1
   1  -3   6 2210.62 49.7652  -2
  -1   3   7 2210.62 49.7652   1
   0   3  -6 731.450 19.5292  -2
   0  -3  -7 731.450 19.5292   1
   0   3  -6 759.710 18.4952  -2
   0  -3  -7 759.710 18.4952   1
   0   3  -6 728.153 18.5957  -2
   0  -3  -7 728.153 18.5957   1
   0  -3   6 787.197 20.4149  -2
   0   3   7 787.197 20.4149   1
   0  -3   6 748.306 21.5978  -2
   0   3   7 748.306 21.5978   1
   0  -3   6 717.299 19.0213  -2
   0   3   7 717.299 19.0213   1
   0  -3   6 750.924 19.2984  -2
   0   3   7 750.924 19.2984   1
   0  -3   6 746.391 21.0838  -2
   0   3   7 746.391 21.0838   1
   1   3  -6 370.225 13.0397  -2
  -1  -3  -7 370.225 13.0397   1
   1   3  -6 362.693 10.8447  -2
  -1  -3  -7 362.693 10.8447   1
   1   3  -6 392.212 10.9267  -2
  -1  -3  -7 392.212 10.9267   1
  -1  -3   6 379.639 13.9167  -2
   1   3   7 379.639 13.9167   1
  -1  -3   6 411.384 14.3815  -2
   1   3   7 411.384 14.3815   1
  -1  -3   6 418.340 12.7077  -2
   1   3   7 418.340 12.7077   1
  -1  -3   6 406.629 12.9868  -2
   1   3   7 406.629 12.9868   1
  -1  -3   6 412.230 12.6671  -2
   1   3   7 412.230 12.6671   1
   2   3  -6 317.567 7.58456  -2
  -2  -3  -7 317.567 7.58456   1
   2   3  -6 288.522 11.6425  -2
  -2  -3  -7 288.522 11.6425   1
   2   3  -6 317.882 8.35964  -2
  -2  -3  -7 317.882 8.35964   1
  -2  -3   6 307.426 12.4514  -2
   2   3   7 307.426 12.4514   1
  -2  -3   6 277.020 11.7087  -2
   2   3   7 277.020 11.7087   1
  -2  -3   6 300.159 10.5343  -2
   2   3   7 300.159 10.5343   1
   3   3  -6 1808.67 43.2863  -2
  -3  -3  -7 1808.67 43.2863   1
  -3  -3   6 1804.08 39.5012  -2
   3   3   7 1804.08 39.5012   1
  -3  -3   6 1848.63 43.0069  -2
   3   3   7 1848.63 43.0069   1
  -3  -3   6 1801.92 42.0304  -2
   3   3   7 1801.92 42.0304   1
   4   3  -6 1067.75 30.4857  -2
  -4  -3  -7 1067.75 30.4857   1
  -4  -3   6 1132.14 29.1438  -2
   4   3   7 1132.14 29.1438   1
  -4  -3   6 1162.71 29.8393  -2
   4   3   7 1162.71 29.8393   1
   5   3  -6 938.864 28.6827  -2
  -5  -3  -7 938.864 28.6827   1
  -5  -3   6 1027.70 27.0139  -2
   5   3   7 1027.70 27.0139   1
  -6  -3  -7 200.598 11.8882   1
   6   3   7 208.581 11.0788   1
   6   3   7 198.959 9.34847   1
  -7  -3  -7 65.3813 7.20352   1
   7   3   7 70.3146 6.74673   1
   7   3   7 65.8913 5.43991   1
   7  -4  -7 73.6249 7.08769   1
  -7   4   7 77.7284 7.46793   1
  -6   4  -6 9.35523 4.95768  -2
   6  -4  -7 9.35523 4.95768   1
   6  -4   6 18.3352 4.89378  -2
  -6   4   7 18.3352 4.89378   1
  -5   4  -6 442.346 17.5017  -2
   5  -4  -7 442.346 17.5017   1
   5  -4   6 407.187 9.96507  -2
  -5   4   7 407.187 9.96507   1
   5  -4   6 419.420 16.0208  -2
  -5   4   7 419.420 16.0208   1
   5  -4   6 409.596 11.2695  -2
  -5   4   7 409.596 11.2695   1
  -4   4  -6 469.889 17.5561  -2
   4  -4  -7 469.889 17.5561   1
   4  -4   6 410.439 15.4609  -2
  -4   4   7 410.439 15.4609   1
   4  -4   6 442.688 12.7930  -2
  -4   4   7 442.688 12.7930   1
   4  -4   6 447.141 12.2936  -2
  -4   4   7 447.141 12.2936   1
  -3   4  -6 537.480 16.3294  -2
   3  -4  -7 537.480 16.3294   1
  -3   4  -6 505.578 18.2537  -2
   3  -4  -7 505.578 18.2537   1
   3  -4   6 517.789 16.6937  -2
  -3   4   7 517.789 16.6937   1
   3  -4   6 522.884 14.5480  -2
  -3   4   7 522.884 14.5480   1
   3  -4   6 508.410 14.6778  -2
  -3   4   7 508.410 14.6778   1
  -2   4  -6 353.466 14.0339  -2
   2  -4  -7 353.466 14.0339   1
  -2   4  -6 376.588 12.4764  -2
   2  -4  -7 376.588 12.4764   1
   2  -4   6 346.119 12.6781  -2
  -2   4   7 346.119 12.6781   1
   2  -4   6 343.199 11.5598  -2
  -2   4   7 343.199 11.5598   1
   2  -4   6 352.897 11.6647  -2
  -2   4   7 352.897 11.6647   1
  -1   4  -6 1107.05 26.3407  -2
   1  -4  -7 1107.05 26.3407   1
  -1   4  -6 1128.32 26.4359  -2
   1  -4  -7 1128.32 26.4359   1
   1  -4   6 1113.40 26.5513  -2
  -1   4   7 1113.40 26.5513   1
   1  -4   6 1153.51 26.9941  -2
  -1   4   7 1153.51 26.9941   1
   1  -4   6 1158.98 28.0535  -2
  -1   4   7 1158.98 28.0535   1
   1  -4   6 1145.40 26.9547  -2
  -1   4   7 1145.40 26.9547   1
   1  -4   6 1169.92 30.1116  -2
  -1   4   7 1169.92 30.1116   1
   1  -4   6 1110.77 28.2637  -2
  -1   4   7 1110.77 28.2637   1
   0   4  -6 148.285 6.60937  -2
   0  -4  -7 148.285 6.60937   1
   0   4  -6 151.652 6.82772  -2
   0  -4  -7 151.652 6.82772   1
   0   4  -6 149.116 7.34422  -2
   0  -4  -7 149.116 7.34422   1
   0  -4   6 141.386 8.18406  -2
   0   4   7 141.386 8.18406   1
   0  -4   6 139.133 7.05789  -2
   0   4   7 139.133 7.05789   1
   0  -4   6 149.515 7.32785  -2
   0   4   7 149.515 7.32785   1
   0  -4   6 153.154 7.44953  -2
   0   4   7 153.154 7.44953   1
   0  -4   6 145.354 7.79583  -2
   0   4   7 145.354 7.79583   1
   0  -4   6 136.279 7.01974  -2
   0   4   7 136.279 7.01974   1
   1   4  -6 369.613 10.4390  -2
  -1  -4  -7 369.613 10.4390   1
   1   4   7 299.388 10.4308   1
   1   4   7 299.355 11.6676   1
   1   4   7 300.449 10.4722   1
   1   4   7 314.583 11.4572   1
   1   4   7 304.435 11.3754   1
  -2  -4  -7 285.994 11.9606   1
  -2  -4  -7 280.721 7.72894   1
   2   4   7 297.372 11.2674   1
   2   4   7 286.372 11.3430   1
   2   4   7 276.765 9.83174   1
  -3  -4  -7 130.275 8.18309   1
   3   4   7 136.295 5.89440   1
   3   4   7 141.403 7.66810   1
   3   4   7 134.979 7.35127   1
  -4  -4  -7 1012.00 29.6617   1
   4   4   7 1017.31 27.2527   1
   4   4   7 1035.86 27.1346   1
  -5  -4  -7 10.5374 3.22921   1
   5   4   7 10.4832 2.49644   1
   5   4   7 11.0867 2.92210   1
  -6  -4  -7 612.307 22.9894   1
   6   4   7 637.221 20.7701   1
   6   4   7 615.078 18.7230   1
  -7  -4  -7 86.8150 8.42904   1
   7   4   7 84.8687 5.97084   1
  -6   5  -6 118.581 9.26269  -2
   6  -5  -7 118.581 9.26269   1
   6  -5   6 123.952 8.85027  -2
  -6   5   7 123.952 8.85027   1
  -5   5  -6 219.141 12.2444  -2
   5  -5  -7 219.141 12.2444   1
   5  -5   6 208.399 6.92621  -2
  -5   5   7 208.399 6.92621   1
   5  -5   6 194.630 10.5767  -2
  -5   5   7 194.630 10.5767   1
   5  -5   6 193.528 7.63184  -2
  -5   5   7 193.528 7.63184   1
  -4   5  -6 11.6564 4.49011  -2
   4  -5  -7 11.6564 4.49011   1
   4  -5   6 13.3111 2.73477  -2
  -4   5   7 13.3111 2.73477   1
   4  -5   6 15.5365 4.17037  -2
  -4   5   7 15.5365 4.17037   1
   4  -5   6 12.5271 3.01560  -2
  -4   5   7 12.5271 3.01560   1
   3  -5  -7 1338.97 31.7093   1
   3  -5  -7 1337.82 35.0969   1
   3  -5  -7 1256.03 31.4057   1
  -3   5   7 1308.14 29.5209   1
  -3   5   7 1281.15 32.0529   1
  -3   5   7 1328.13 29.7418   1
  -2   5  -6 1033.93 25.8971  -2
   2  -5  -7 1033.93 25.8971   1
  -2   5   7 678.277 17.9570   1
  -2   5   7 636.645 18.8167   1
  -2   5   7 663.276 17.9591   1
   1  -5  -7 469.109 14.2521   1
   1  -5  -7 423.695 13.8321   1
   1  -5  -7 455.513 13.6468   1
   1  -5   6 677.689 18.7781  -2
  -1   5   7 677.689 18.7781   1
   0  -5  -7 646.125 16.9148   1
   0  -5  -7 631.192 16.9206   1
   0   5   7 656.673 17.6424   1
   0   5   7 653.241 18.6462   1
   0   5   7 662.328 17.8562   1
   0   5   7 618.413 17.9499   1
   0   5   7 655.014 20.0266   1
   0   5   7 655.196 18.2509   1
  -1  -5  -7 57.3156 3.43389   1
  -1  -5  -7 60.2302 4.99496   1
  -1  -5  -7 58.6409 3.72749   1
   1   5   7 54.8277 4.41067   1
   1   5   7 53.3601 4.16137   1
   1   5   7 55.0486 4.83297   1
   1   5   7 59.7453 4.78022   1
  -2  -5  -7 725.193 21.8930   1
  -2  -5  -7 735.054 15.4876   1
   2   5   7 710.079 19.2107   1
   2   5   7 721.240 21.3021   1
   2   5   7 716.296 21.6896   1
   2   5   7 749.919 20.1045   1
  -3  -5  -7 462.958 16.9184   1
   3   5   7 461.540 15.3270   1
   3   5   7 446.295 16.6088   1
   3   5   7 471.408 15.3204   1
   3   5   7 453.353 13.3117   1
  -4  -5  -7 71.9518 6.53210   1
   4   5   7 56.8403 4.85310   1
   5   5  -5 165.785 10.5779  -2
  -5  -5  -7 165.785 10.5779   1
  -5  -5   5 150.801 8.15730  -2
   5   5   7 150.801 8.15730   1
   6   5  -5 845.543 28.0340  -2
  -6  -5  -7 845.543 28.0340   1
  -6  -5   5 834.011 23.2482  -2
   6   5   7 834.011 23.2482   1
   7   5  -5 566.490 22.1415  -2
  -7  -5  -7 566.490 22.1415   1
  -7  -5   5 526.139 17.0025  -2
   7   5   7 526.139 17.0025   1
   6  -6  -7 -1.2830 1.82026   1
  -6   6   7 -1.1734 1.61383   1
  -6   6   7 0.04186 0.90872   1
   5  -6  -7 18.3043 4.25593   1
  -5   6   7 23.1701 4.17883   1
  -5   6   7 22.7311 2.49326   1
  -5   6   7 25.0138 2.88944   1
  -4   6   7 20.7345 2.73757   1
  -4   6   7 28.4161 4.00903   1
  -4   6   7 26.6400 3.34879   1
   3  -6  -7 15.4864 2.95653   1
   3  -6  -7 20.2317 3.51874   1
   3  -6  -7 14.8662 3.34806   1
  -3   6   7 17.8893 2.83272   1
  -3   6   7 17.7117 3.02707   1
  -3   6   7 20.5832 3.16759   1
   2  -6  -7 188.466 8.93184   1
   2  -6  -7 181.647 8.60286   1
   2  -6  -7 185.600 8.45292   1
  -2   6   7 184.131 8.29707   1
  -2   6   7 172.362 8.11299   1
  -2   6   7 176.253 8.34910   1
   1  -6  -7 71.8782 4.55994   1
   1  -6  -7 65.9234 4.80033   1
   1  -6  -7 71.5570 5.13943   1
   1  -6   5 73.6826 5.77719  -2
  -1   6   7 73.6826 5.77719   1
   0   6  -5 757.164 19.5468  -2
   0  -6  -7 757.164 19.5468   1
   0   6  -5 803.709 19.7958  -2
   0  -6  -7 803.709 19.7958   1
   0  -6   5 807.896 21.1754  -2
   0   6   7 807.896 21.1754   1
   0  -6   5 792.044 23.3709  -2
   0   6   7 792.044 23.3709   1
   0  -6   5 761.894 21.4347  -2
   0   6   7 761.894 21.4347   1
   0  -6   5 801.904 20.6787  -2
   0   6   7 801.904 20.6787   1
   1   6  -5 215.465 7.55095  -2
  -1  -6  -7 215.465 7.55095   1
   1   6  -5 217.038 7.18087  -2
  -1  -6  -7 217.038 7.18087   1
  -1  -6   5 206.673 9.13586  -2
   1   6   7 206.673 9.13586   1
  -1  -6   5 211.347 10.0416  -2
   1   6   7 211.347 10.0416   1
  -1  -6   5 209.090 10.0491  -2
   1   6   7 209.090 10.0491   1
   2   6  -5 1714.10 41.5594  -2
  -2  -6  -7 1714.10 41.5594   1
   2   6  -5 1664.70 32.1347  -2
  -2  -6  -7 1664.70 32.1347   1
  -2  -6   5 1669.86 40.7844  -2
   2   6   7 1669.86 40.7844   1
  -2  -6   5 1679.25 41.1873  -2
   2   6   7 1679.25 41.1873   1
  -2  -6   5 1724.09 39.0628  -2
   2   6   7 1724.09 39.0628   1
   3   6  -5 167.725 9.64097  -2
  -3  -6  -7 167.725 9.64097   1
  -3  -6   5 159.440 7.29578  -2
   3   6   7 159.440 7.29578   1
  -3  -6   5 170.533 8.68254  -2
   3   6   7 170.533 8.68254   1
  -3  -6   5 155.352 9.45991  -2
   3   6   7 155.352 9.45991   1
   4   6  -5 202.721 11.2272  -2
  -4  -6  -7 202.721 11.2272   1
  -4  -6   5 206.663 9.65689  -2
   4   6   7 206.663 9.65689   1
  -4  -6   5 181.085 10.8426  -2
   4   6   7 181.085 10.8426   1
   5   6  -5 96.4639 8.27752  -2
  -5  -6  -7 96.4639 8.27752   1
  -5  -6   5 105.117 9.08446  -2
   5   6   7 105.117 9.08446   1
  -5  -6   5 110.268 7.08753  -2
   5   6   7 110.268 7.08753   1
   6   6  -5 226.184 13.2656  -2
  -6  -6  -7 226.184 13.2656   1
  -6  -6   5 224.447 10.5494  -2
   6   6   7 224.447 10.5494   1
  -6  -6   5 239.343 14.4154  -2
   6   6   7 239.343 14.4154   1
   7   6   7 105.152 6.43096   1
   7   6   7 104.982 9.72099   1
   5  -7  -7 65.1223 6.23632   1
   5  -7   5 140.696 7.28451  -2
  -5   7   7 140.696 7.28451   1
  -4   7  -5 985.865 27.5879  -2
   4  -7  -7 985.865 27.5879   1
   4  -7   5 934.008 23.8920  -2
  -4   7   7 934.008 23.8920   1
   4  -7   5 999.852 24.6972  -2
  -4   7   7 999.852 24.6972   1
  -3   7  -5 202.234 9.89790  -2
   3  -7  -7 202.234 9.89790   1
  -3   7  -5 193.012 9.51506  -2
   3  -7  -7 193.012 9.51506   1
  -3   7  -5 193.546 9.80932  -2
   3  -7  -7 193.546 9.80932   1
   3  -7   5 208.515 9.48328  -2
  -3   7   7 208.515 9.48328   1
   3  -7   5 218.005 9.35530  -2
  -3   7   7 218.005 9.35530   1
   3  -7   5 202.099 9.52427  -2
  -3   7   7 202.099 9.52427   1
  -2   7  -5 166.202 8.44015  -2
   2  -7  -7 166.202 8.44015   1
  -2   7  -5 157.572 8.18249  -2
   2  -7  -7 157.572 8.18249   1
   2  -7   5 167.137 8.33257  -2
  -2   7   7 167.137 8.33257   1
   2  -7   5 156.242 8.07209  -2
  -2   7   7 156.242 8.07209   1
  -1   7  -5 172.231 8.17221  -2
   1  -7  -7 172.231 8.17221   1
  -1   7  -5 176.193 8.12313  -2
   1  -7  -7 176.193 8.12313   1
   1  -7   5 186.356 8.70019  -2
  -1   7   7 186.356 8.70019   1
   1  -7   5 209.145 9.69304  -2
  -1   7   7 209.145 9.69304   1
   1  -7   5 177.947 8.60340  -2
  -1   7   7 177.947 8.60340   1
   0   7  -5 552.107 15.7676  -2
   0  -7  -7 552.107 15.7676   1
   0   7  -5 576.446 16.2950  -2
   0  -7  -7 576.446 16.2950   1
   0  -7   5 612.982 19.2049  -2
   0   7   7 612.982 19.2049   1
   0  -7   5 620.474 18.6032  -2
   0   7   7 620.474 18.6032   1
   0  -7   5 622.441 20.0015  -2
   0   7   7 622.441 20.0015   1
   1   7  -5 630.311 15.8811  -2
  -1  -7  -7 630.311 15.8811   1
   1   7  -5 644.945 15.3539  -2
  -1  -7  -7 644.945 15.3539   1
  -1  -7   5 669.237 21.0632  -2
   1   7   7 669.237 21.0632   1
  -1  -7   5 641.108 19.6540  -2
   1   7   7 641.108 19.6540   1
  -1  -7   5 668.819 21.0393  -2
   1   7   7 668.819 21.0393   1
   2   7  -5 741.171 16.4108  -2
  -2  -7  -7 741.171 16.4108   1
  -2  -7   5 891.159 24.6928  -2
   2   7   7 891.159 24.6928   1
  -2  -7   5 856.195 22.6053  -2
   2   7   7 856.195 22.6053   1
   3   7   7 1.78512 1.76641   1
   3   7   7 0.81141 1.33352   1
   3   7   7 2.10120 1.27925   1
  -4  -7  -7 32.1938 4.92926   1
   4   7   7 25.9205 3.63339   1
   4   7   7 27.2754 4.45650   1
  -5  -7  -7 131.088 9.65366   1
   5   7   7 149.939 10.2804   1
   5   7   7 129.545 7.52396   1
  -6  -7  -7 35.8392 5.62576   1
   6   7   7 30.3401 5.71322   1
   6   7   7 35.9384 4.17179   1
  -5   8  -5 84.6933 6.93472  -2
   5  -8  -7 84.6933 6.93472   1
   5  -8   5 74.9462 5.35226  -2
  -5   8   7 74.9462 5.35226   1
   5  -8   5 81.5471 5.22713  -2
  -5   8   7 81.5471 5.22713   1
  -4   8  -5 813.161 25.2602  -2
   4  -8  -7 813.161 25.2602   1
  -4   8  -5 895.376 25.7410  -2
   4  -8  -7 895.376 25.7410   1
   4  -8   5 851.753 23.2352  -2
  -4   8   7 851.753 23.2352   1
   4  -8   5 892.822 23.2293  -2
  -4   8   7 892.822 23.2293   1
  -3   8  -5 104.674 7.25750  -2
   3  -8  -7 104.674 7.25750   1
  -3   8  -5 102.618 7.76317  -2
   3  -8  -7 102.618 7.76317   1
  -3   8  -5 96.7994 7.22047  -2
   3  -8  -7 96.7994 7.22047   1
   3  -8   5 98.7959 7.03699  -2
  -3   8   7 98.7959 7.03699   1
   3  -8   5 100.576 7.10588  -2
  -3   8   7 100.576 7.10588   1
  -2   8  -5 547.839 17.7181  -2
   2  -8  -7 547.839 17.7181   1
   2  -8   5 547.166 17.3736  -2
  -2   8   7 547.166 17.3736   1
  -1   8  -5 69.0969 5.67449  -2
   1  -8  -7 69.0969 5.67449   1
  -1   8  -5 82.6223 6.43767  -2
   1  -8  -7 82.6223 6.43767   1
  -1   8   7 30.0877 3.87670   1
  -1   8   7 36.3744 4.12331   1
  -1   8   7 26.9669 3.88074   1
   0  -8  -7 173.340 7.76093   1
   0  -8  -7 162.153 7.24231   1
   0   8   7 161.190 9.11213   1
   0   8   7 173.090 9.47742   1
  -1  -8  -7 74.1544 4.42776   1
  -1  -8  -7 76.2020 3.92942   1
   1   8   7 73.7373 5.42268   1
   1   8   7 86.0076 6.62675   1
   1   8   7 76.4433 6.32562   1
  -2  -8  -7 3.87017 1.35840   1
   2   8   7 5.85630 2.38541   1
   2   8   7 5.59648 2.50933   1
   2   8   7 5.91597 2.15174   1
   3   8   7 262.158 10.3167   1
   3   8   7 261.931 11.7030   1
   3   8   7 261.713 13.1181   1
   4   8   7 143.233 9.99108   1
   4   8   7 148.446 8.37598   1
   5   8   7 704.332 25.2490   1
   5   8   7 685.297 20.9959   1
  -6  -8   4 18.2407 7.08277  -2
   6   8   7 18.2407 7.08277   1
   4  -9  -7 264.781 12.6874   1
   4  -9   5 309.938 13.1961  -2
  -4   9   7 309.938 13.1961   1
   3  -9  -7 0.36978 1.81493   1
   3  -9  -7 -0.4567 1.48080   1
  -3   9   7 0.75512 1.71044   1
  -3   9   7 0.93294 1.56714   1
   2  -9  -7 25.3354 3.96137   1
   2  -9  -7 25.5375 4.19168   1
  -2   9   7 25.4692 4.04876   1
  -2   9   7 24.5733 3.94594   1
   1  -9  -7 24.2570 3.74390   1
   1  -9  -7 12.0456 2.89167   1
  -1   9   7 15.8704 3.68172   1
  -1   9   7 24.3216 3.81579   1
   0  -9  -7 17.6479 2.61803   1
   0  -9  -7 15.2848 2.86582   1
   0   9   7 17.0062 3.56252   1
   0   9   7 20.2485 3.88757   1
   1   9  -4 42.3845 3.82135  -2
  -1  -9  -7 42.3845 3.82135   1
   1   9   7 39.8845 4.38608   1
   1   9   7 45.9780 5.08364   1
   1   9   7 36.2663 4.79029   1
  -2  -9  -7 30.6448 3.13325   1
  -2  -9   4 28.1937 5.15502  -2
   2   9   7 28.1937 5.15502   1
  -2  -9   4 36.7497 4.66009  -2
   2   9   7 36.7497 4.66009   1
  -2  -9   4 32.8706 5.74880  -2
   2   9   7 32.8706 5.74880   1
  -3  -9   4 521.974 18.4572  -2
   3   9   7 521.974 18.4572   1
  -3  -9   4 538.517 20.8417  -2
   3   9   7 538.517 20.8417   1
  -3  -9   4 516.480 17.0955  -2
   3   9   7 516.480 17.0955   1
  -4  -9   4 175.776 11.8560  -2
   4   9   7 175.776 11.8560   1
  -4  -9   4 189.815 10.0337  -2
   4   9   7 189.815 10.0337   1
  -5  -9   4 620.676 20.2338  -2
   5   9   7 620.676 20.2338   1
  -5  -9   4 660.207 25.2292  -2
   5   9   7 660.207 25.2292   1
  -3  10  -4 184.946 10.5487  -2
   3 -10  -7 184.946 10.5487   1
  -3  10  -4 191.196 10.6809  -2
   3 -10  -7 191.196 10.6809   1
   3 -10   4 178.492 10.5758  -2
  -3  10   7 178.492 10.5758   1
   3 -10   4 181.324 10.2796  -2
  -3  10   7 181.324 10.2796   1
  -2  10  -4 57.0110 6.24582  -2
   2 -10  -7 57.0110 6.24582   1
  -2  10  -4 65.3885 6.51687  -2
   2 -10  -7 65.3885 6.51687   1
   2 -10   4 64.8846 6.62263  -2
  -2  10   7 64.8846 6.62263   1
   2 -10   4 64.0365 6.65916  -2
  -2  10   7 64.0365 6.65916   1
  -1  10  -4 679.033 20.0997  -2
   1 -10  -7 679.033 20.0997   1
  -1  10  -4 707.324 20.6407  -2
   1 -10  -7 707.324 20.6407   1
   1 -10   4 702.748 21.5622  -2
  -1  10   7 702.748 21.5622   1
   1 -10   4 745.657 24.3283  -2
  -1  10   7 745.657 24.3283   1
   0  10  -4 130.871 6.37622  -2
   0 -10  -7 130.871 6.37622   1
   0  10  -4 132.807 6.89979  -2
   0 -10  -7 132.807 6.89979   1
   0 -10   4 141.591 9.57198  -2
   0  10   7 141.591 9.57198   1
   1  10  -4 712.418 20.0948  -2
  -1 -10  -7 712.418 20.0948   1
   1  10  -4 700.916 17.6675  -2
  -1 -10  -7 700.916 17.6675   1
  -1 -10   4 794.106 26.0369  -2
   1  10   7 794.106 26.0369   1
  -1 -10   4 781.242 24.8751  -2
   1  10   7 781.242 24.8751   1
   2  10  -4 105.115 5.84935  -2
  -2 -10  -7 105.115 5.84935   1
  -2 -10   4 97.9574 8.68374  -2
   2  10   7 97.9574 8.68374   1
  -2 -10   4 96.7844 7.24632  -2
   2  10   7 96.7844 7.24632   1
  -3 -10   4 294.301 13.6976  -2
   3  10   7 294.301 13.6976   1
  -3 -10   4 304.164 12.8076  -2
   3  10   7 304.164 12.8076   1
  -3 -10   4 297.497 15.6291  -2
   3  10   7 297.497 15.6291   1
  -1  11  -4 369.538 14.2142  -2
   1 -11  -7 369.538 14.2142   1
  -1  11  -4 343.099 13.0793  -2
   1 -11  -7 343.099 13.0793   1
  -1  11  -4 381.613 15.6039  -2
   1 -11  -7 381.613 15.6039   1
   1 -11   4 382.022 17.4140  -2
  -1  11   7 382.022 17.4140   1
   0  11  -4 48.0468 6.26691  -2
   0 -11  -7 48.0468 6.26691   1
   0  11  -4 42.5175 4.72538  -2
   0 -11  -7 42.5175 4.72538   1
   0  11   7 26.8906 4.74365   1
  -1 -11  -7 229.068 10.1521   1
  -1 -11  -7 227.574 8.10067   1
   1  11   7 236.383 13.1867   1
  -2  -8   8 2.87439 1.31304   1
  -2  -8   8 3.53249 1.61954   1
  -2  -8   8 3.36721 2.12359   1
  -1  -8   8 78.8317 6.13875   1
  -1  -8   8 91.9385 7.30229   1
  -1  -8   8 79.6056 5.40765   1
   0   8  -8 1.24738 1.87909   1
   0   8  -8 -2.9769 2.12528   1
   0  -8   8 0.72877 1.75802   1
   0  -8   8 -0.1141 1.95816   1
   0  -8   8 -0.5617 1.83919   1
  -1   8  -8 108.997 7.96623   1
  -1   8  -8 125.390 10.2099   1
  -1   8  -8 116.314 8.31176   1
  -1   8  10 135.052 9.91835  -2
   1  -8   8 135.052 9.91835   1
   2  -8 -10 232.957 12.7666  -2
  -2   8  -8 232.957 12.7666   1
   2  -8 -10 235.486 15.1445  -2
  -2   8  -8 235.486 15.1445   1
  -2   8  10 235.545 12.7215  -2
   2  -8   8 235.545 12.7215   1
  -2   8  10 231.096 12.4212  -2
   2  -8   8 231.096 12.4212   1
   4   7  -8 3.77259 3.02423   1
   3   7  -8 151.275 10.7709   1
  -3  -7   8 118.156 7.03171   1
   2   7  -8 -1.3391 2.37251   1
   2   7  10 287.287 11.0637  -2
  -2  -7   8 287.287 11.0637   1
   2   7  10 285.598 12.9194  -2
  -2  -7   8 285.598 12.9194   1
   2   7  10 287.693 9.85693  -2
  -2  -7   8 287.693 9.85693   1
   1   7  10 837.510 25.3716  -2
  -1  -7   8 837.510 25.3716   1
   1   7  10 858.579 23.8623  -2
  -1  -7   8 858.579 23.8623   1
   1   7  10 860.921 22.7502  -2
  -1  -7   8 860.921 22.7502   1
   0  -7 -10 240.691 12.7662  -2
   0   7  -8 240.691 12.7662   1
   0  -7 -10 222.734 11.0642  -2
   0   7  -8 222.734 11.0642   1
   0   7  10 234.494 11.4541  -2
   0  -7   8 234.494 11.4541   1
   0   7  10 205.834 10.4736  -2
   0  -7   8 205.834 10.4736   1
   0   7  10 204.161 11.3200  -2
   0  -7   8 204.161 11.3200   1
   0   7  10 238.878 12.8620  -2
   0  -7   8 238.878 12.8620   1
   1  -7 -10 413.132 15.8157  -2
  -1   7  -8 413.132 15.8157   1
   1  -7 -10 457.083 16.6508  -2
  -1   7  -8 457.083 16.6508   1
   1  -7 -10 457.319 19.0454  -2
  -1   7  -8 457.319 19.0454   1
  -1   7  10 459.405 17.5971  -2
   1  -7   8 459.405 17.5971   1
  -1   7  10 470.279 17.0296  -2
   1  -7   8 470.279 17.0296   1
  -1   7  10 576.183 21.0743  -2
   1  -7   8 576.183 21.0743   1
  -1   7  10 451.149 16.7167  -2
   1  -7   8 451.149 16.7167   1
   2  -7 -10 200.053 11.0442  -2
  -2   7  -8 200.053 11.0442   1
   2  -7 -10 210.058 10.9448  -2
  -2   7  -8 210.058 10.9448   1
   2  -7 -10 215.412 13.4557  -2
  -2   7  -8 215.412 13.4557   1
  -2   7  10 228.530 11.5819  -2
   2  -7   8 228.530 11.5819   1
  -2   7  10 238.392 13.7878  -2
   2  -7   8 238.392 13.7878   1
  -2   7  10 221.557 11.4557  -2
   2  -7   8 221.557 11.4557   1
   3  -7 -10 322.615 14.0747  -2
  -3   7  -8 322.615 14.0747   1
   3  -7 -10 318.052 13.5079  -2
  -3   7  -8 318.052 13.5079   1
   3  -7 -10 314.255 17.3097  -2
  -3   7  -8 314.255 17.3097   1
  -3   7  10 332.038 16.6675  -2
   3  -7   8 332.038 16.6675   1
  -3   7  10 377.449 15.4018  -2
   3  -7   8 377.449 15.4018   1
  -4  -6 -10 215.499 12.8398  -2
   4   6  -8 215.499 12.8398   1
  -3  -6 -10 556.715 21.3488  -2
   3   6  -8 556.715 21.3488   1
   3   6  10 535.827 16.7597  -2
  -3  -6   8 535.827 16.7597   1
   3   6  10 528.697 13.3943  -2
  -3  -6   8 528.697 13.3943   1
   3   6  10 479.323 18.1563  -2
  -3  -6   8 479.323 18.1563   1
  -2  -6 -10 672.567 24.3157  -2
   2   6  -8 672.567 24.3157   1
   2   6  10 619.053 18.0267  -2
  -2  -6   8 619.053 18.0267   1
   2   6  10 679.699 20.6576  -2
  -2  -6   8 679.699 20.6576   1
   2   6  10 620.195 16.9811  -2
  -2  -6   8 620.195 16.9811   1
   2   6  10 659.646 22.1816  -2
  -2  -6   8 659.646 22.1816   1
   1   6  10 989.602 25.5255  -2
  -1  -6   8 989.602 25.5255   1
   1   6  10 989.455 28.6724  -2
  -1  -6   8 989.455 28.6724   1
   1   6  10 912.406 26.4497  -2
  -1  -6   8 912.406 26.4497   1
   1   6  10 935.916 24.2925  -2
  -1  -6   8 935.916 24.2925   1
   0   6  -8 35.8422 4.75971   1
   0   6  -8 33.1556 4.92809   1
   0   6  -8 35.0120 4.48466   1
   0   6  10 229.152 13.1186  -2
   0  -6   8 229.152 13.1186   1
   0   6  10 222.379 11.7032  -2
   0  -6   8 222.379 11.7032   1
   0   6  10 214.162 11.1235  -2
   0  -6   8 214.162 11.1235   1
   0   6  10 220.150 10.8287  -2
   0  -6   8 220.150 10.8287   1
  -1   6  -8 190.704 11.2822   1
  -1   6  -8 201.049 10.1064   1
  -1   6  -8 197.393 9.94953   1
  -1   6  10 298.435 14.9280  -2
   1  -6   8 298.435 14.9280   1
  -1   6  10 287.263 13.5455  -2
   1  -6   8 287.263 13.5455   1
  -2   6  -8 -3.9734 1.72227   1
  -2   6  -8 1.96349 1.96106   1
  -2   6  -8 -1.1008 1.67173   1
   2  -6   8 1.08166 1.57285   1
   2  -6   8 0.94994 1.72847   1
   2  -6   8 0.17923 1.50455   1
   2  -6   8 1.95209 1.96186   1
  -3   6  -8 48.9507 5.54021   1
  -3   6  -8 69.7988 7.65801   1
  -3   6  -8 51.8977 5.00308   1
   3  -6   8 64.0968 6.63867   1
   3  -6   8 40.0932 4.84563   1
  -4   6  -8 7.01586 2.69553   1
  -4   6  -8 -0.1534 3.00494   1
  -4   6  -8 2.09631 1.70233   1
   4  -6   8 1.59016 2.03233   1
   4  -6   8 2.32170 1.83377   1
  -5  -5 -10 607.579 23.5338  -2
   5   5  -8 607.579 23.5338   1
   5   5  10 664.475 22.1963  -2
  -5  -5   8 664.475 22.1963   1
   4   5  -8 90.0630 8.11813   1
   4   5  10 106.137 7.97438  -2
  -4  -5   8 106.137 7.97438   1
   3   5  -8 405.306 17.2259   1
  -3  -5   8 398.626 13.5829   1
  -3  -5   8 383.824 15.5288   1
  -3  -5   8 400.304 11.2532   1
   2   5  -8 149.825 9.80852   1
  -2  -5   8 148.568 6.63935   1
  -2  -5   8 149.458 8.05419   1
  -2  -5   8 142.158 7.04449   1
  -2  -5   8 142.614 8.93951   1
   1   5  -8 177.641 9.04630   1
  -1  -5   8 185.928 10.2382   1
  -1  -5   8 187.903 8.33307   1
  -1  -5   8 187.271 8.69499   1
  -1  -5   8 184.338 9.38335   1
   0   5  -8 110.423 7.70774   1
   0   5  -8 94.0484 6.62205   1
   0   5  -8 83.5220 6.47569   1
   0  -5   8 103.093 7.70975   1
   0  -5   8 102.007 6.72286   1
   0  -5   8 94.2896 7.04708   1
   0  -5   8 104.228 6.57842   1
  -1   5  -8 109.873 8.24967   1
  -1   5  -8 129.551 7.58112   1
  -1   5  -8 103.960 6.97085   1
   1  -5   8 121.902 7.90231   1
   1  -5   8 109.019 7.20042   1
   1  -5   8 105.974 8.23612   1
   1  -5   8 121.915 7.62486   1
   1  -5   8 119.404 6.97811   1
  -2   5  -8 50.5588 5.89515   1
  -2   5  -8 41.8300 4.66595   1
  -2   5  -8 37.3875 4.67590   1
   2  -5   8 43.5516 5.49214   1
   2  -5   8 43.2507 4.89860   1
   2  -5   8 47.8535 5.13121   1
   2  -5   8 40.2530 4.44342   1
   3  -5  -9 166.438 8.58932  -2
  -3   5  -8 166.438 8.58932   1
   3  -5   8 4.88837 2.57464   1
   3  -5   8 7.80946 2.56038   1
   4  -5  -9 11.1188 2.90120  -2
  -4   5  -8 11.1188 2.90120   1
   4  -5  -9 1.77477 3.10503  -2
  -4   5  -8 1.77477 3.10503   1
   4  -5  -9 10.9827 5.75520  -2
  -4   5  -8 10.9827 5.75520   1
  -4   5   9 5.38714 4.22613  -2
   4  -5   8 5.38714 4.22613   1
  -4   5   9 6.37146 3.66263  -2
   4  -5   8 6.37146 3.66263   1
   5  -5  -9 25.7920 6.94524  -2
  -5   5  -8 25.7920 6.94524   1
   5  -5  -9 23.5431 2.85992  -2
  -5   5  -8 23.5431 2.85992   1
  -5   5   9 23.5095 5.57164  -2
   5  -5   8 23.5095 5.57164   1
  -5   5   9 23.0154 5.55645  -2
   5  -5   8 23.0154 5.55645   1
  -5   5   9 16.2607 4.77415  -2
   5  -5   8 16.2607 4.77415   1
   6   4  -8 5.91760 3.07377   1
  -6  -4   8 9.43937 3.23410   1
   5   4  -8 194.466 12.0400   1
  -5  -4   8 218.289 11.5868   1
   4   4  -8 18.6491 4.22169   1
  -4  -4   8 21.8814 3.73458   1
   3   4  -8 458.766 18.4058   1
   3   4   9 483.428 13.2361  -2
  -3  -4   8 483.428 13.2361   1
   2   4  -8 6.80066 2.93128   1
   2   4   9 182.754 8.52092  -2
  -2  -4   8 182.754 8.52092   1
   1   4  -8 227.073 11.7707   1
   1   4  -8 237.939 10.4671   1
   1   4  -8 215.264 9.96401   1
   1   4   9 248.601 10.4369  -2
  -1  -4   8 248.601 10.4369   1
   1   4   9 269.841 12.8218  -2
  -1  -4   8 269.841 12.8218   1
   0  -4  -9 129.168 7.89936  -2
   0   4  -8 129.168 7.89936   1
   0  -4  -9 129.908 8.21200  -2
   0   4  -8 129.908 8.21200   1
   0   4   9 140.330 7.67283  -2
   0  -4   8 140.330 7.67283   1
   0   4   9 140.600 9.69184  -2
   0  -4   8 140.600 9.69184   1
   0   4   9 137.087 8.11126  -2
   0  -4   8 137.087 8.11126   1
   0   4   9 143.793 8.17415  -2
   0  -4   8 143.793 8.17415   1
   0   4   9 119.682 8.08255  -2
   0  -4   8 119.682 8.08255   1
   1  -4  -9 8.11027 3.05885  -2
  -1   4  -8 8.11027 3.05885   1
   1  -4  -9 10.1040 3.80160  -2
  -1   4  -8 10.1040 3.80160   1
   1  -4  -9 -0.0697 3.30393  -2
  -1   4  -8 -0.0697 3.30393   1
  -1   4   9 4.89811 3.59624  -2
   1  -4   8 4.89811 3.59624   1
  -1   4   9 5.30179 2.51192  -2
   1  -4   8 5.30179 2.51192   1
  -1   4   9 3.85866 3.19759  -2
   1  -4   8 3.85866 3.19759   1
  -1   4   9 1.24676 3.13753  -2
   1  -4   8 1.24676 3.13753   1
  -1   4   9 7.25515 3.28677  -2
   1  -4   8 7.25515 3.28677   1
   2  -4  -9 1453.20 33.9636  -2
  -2   4  -8 1453.20 33.9636   1
   2  -4  -9 1384.26 38.0590  -2
  -2   4  -8 1384.26 38.0590   1
   2  -4  -9 1364.35 33.3360  -2
  -2   4  -8 1364.35 33.3360   1
  -2   4   9 1544.77 35.6300  -2
   2  -4   8 1544.77 35.6300   1
  -2   4   9 1524.86 40.0860  -2
   2  -4   8 1524.86 40.0860   1
  -2   4   9 1562.68 37.4918  -2
   2  -4   8 1562.68 37.4918   1
  -2   4   9 1453.35 34.9359  -2
   2  -4   8 1453.35 34.9359   1
   3  -4  -9 55.5367 4.89370  -2
  -3   4  -8 55.5367 4.89370   1
   3  -4  -9 56.4214 6.36002  -2
  -3   4  -8 56.4214 6.36002   1
   3  -4  -9 56.3549 4.50741  -2
  -3   4  -8 56.3549 4.50741   1
  -3   4   9 64.5164 5.53372  -2
   3  -4   8 64.5164 5.53372   1
  -3   4   9 56.8776 6.28040  -2
   3  -4   8 56.8776 6.28040   1
  -3   4   9 68.2822 6.45628  -2
   3  -4   8 68.2822 6.45628   1
   4  -4  -9 278.755 14.7730  -2
  -4   4  -8 278.755 14.7730   1
   4  -4  -9 258.497 9.63141  -2
  -4   4  -8 258.497 9.63141   1
  -4   4   9 240.892 11.4868  -2
   4  -4   8 240.892 11.4868   1
  -4   4   9 280.346 14.3985  -2
   4  -4   8 280.346 14.3985   1
  -4   4   9 291.410 13.9193  -2
   4  -4   8 291.410 13.9193   1
   5  -4  -9 56.4802 8.22419  -2
  -5   4  -8 56.4802 8.22419   1
  -5   4   9 57.9287 7.05965  -2
   5  -4   8 57.9287 7.05965   1
  -5   4   9 46.2462 5.86531  -2
   5  -4   8 46.2462 5.86531   1
  -5   4   9 52.9713 6.57755  -2
   5  -4   8 52.9713 6.57755   1
   6  -4   8 219.944 13.2740   1
   6  -4   8 219.769 12.6876   1
   6  -4   8 216.866 11.0620   1
   6   3  -8 158.899 10.7857   1
  -6  -3   8 162.804 10.2722   1
  -5  -3  -9 103.966 9.23018  -2
   5   3  -8 103.966 9.23018   1
   5   3   9 100.170 8.06019  -2
  -5  -3   8 100.170 8.06019   1
  -4  -3  -9 89.7967 8.03380  -2
   4   3  -8 89.7967 8.03380   1
   4   3   9 85.1040 6.94074  -2
  -4  -3   8 85.1040 6.94074   1
  -3  -3  -9 151.461 9.67668  -2
   3   3  -8 151.461 9.67668   1
   3   3   9 123.601 5.04654  -2
  -3  -3   8 123.601 5.04654   1
   3   3   9 129.510 5.90661  -2
  -3  -3   8 129.510 5.90661   1
   3   3   9 121.769 8.25609  -2
  -3  -3   8 121.769 8.25609   1
  -2  -3  -9 82.7784 7.14893  -2
   2   3  -8 82.7784 7.14893   1
   2   3   9 116.446 8.06953  -2
  -2  -3   8 116.446 8.06953   1
   2   3   9 102.019 6.51535  -2
  -2  -3   8 102.019 6.51535   1
   2   3   9 104.537 6.00049  -2
  -2  -3   8 104.537 6.00049   1
   2   3   9 101.282 5.52813  -2
  -2  -3   8 101.282 5.52813   1
  -1  -3  -9 111.190 8.28727  -2
   1   3  -8 111.190 8.28727   1
  -1  -3  -9 111.367 6.98816  -2
   1   3  -8 111.367 6.98816   1
  -1  -3  -9 110.120 7.01109  -2
   1   3  -8 110.120 7.01109   1
   1   3   9 124.063 7.49890  -2
  -1  -3   8 124.063 7.49890   1
   1   3   9 144.152 7.30384  -2
  -1  -3   8 144.152 7.30384   1
   1   3   9 128.524 8.57676  -2
  -1  -3   8 128.524 8.57676   1
   1   3   9 135.160 7.23554  -2
  -1  -3   8 135.160 7.23554   1
   0  -3  -9 239.241 11.1007  -2
   0   3  -8 239.241 11.1007   1
   0  -3  -9 265.788 11.1438  -2
   0   3  -8 265.788 11.1438   1
   0  -3  -9 275.152 11.2592  -2
   0   3  -8 275.152 11.2592   1
   0   3   9 269.898 13.0541  -2
   0  -3   8 269.898 13.0541   1
   0   3   9 293.535 10.8647  -2
   0  -3   8 293.535 10.8647   1
   0   3   9 277.660 11.1235  -2
   0  -3   8 277.660 11.1235   1
   0   3   9 278.741 11.1139  -2
   0  -3   8 278.741 11.1139   1
   0   3   9 278.860 11.7946  -2
   0  -3   8 278.860 11.7946   1
   1  -3  -9 131.021 7.40527  -2
  -1   3  -8 131.021 7.40527   1
   1  -3  -9 143.367 7.86325  -2
  -1   3  -8 143.367 7.86325   1
   1  -3  -9 137.412 8.55681  -2
  -1   3  -8 137.412 8.55681   1
  -1   3   9 135.817 8.52444  -2
   1  -3   8 135.817 8.52444   1
  -1   3   9 137.677 7.96242  -2
   1  -3   8 137.677 7.96242   1
  -1   3   9 140.292 8.37028  -2
   1  -3   8 140.292 8.37028   1
  -1   3   9 135.217 8.07831  -2
   1  -3   8 135.217 8.07831   1
  -1   3   9 129.540 9.58196  -2
   1  -3   8 129.540 9.58196   1
   2  -3  -9 877.386 22.8769  -2
  -2   3  -8 877.386 22.8769   1
   2  -3   8 648.199 22.1231   1
   2  -3   8 650.762 19.7484   1
   2  -3   8 660.418 21.7417   1
   2  -3   8 668.730 19.3358   1
   3  -3  -9 264.549 9.22299  -2
  -3   3  -8 264.549 9.22299   1
   3  -3  -9 253.700 9.64701  -2
  -3   3  -8 253.700 9.64701   1
   3  -3   8 12.9700 3.39418   1
   3  -3   8 9.42275 3.11433   1
   3  -3   8 8.64989 2.54363   1
  -4   3  -8 256.513 8.92455   1
  -4   3  -8 247.857 13.5818   1
   4  -3   8 265.057 12.9410   1
   4  -3   8 261.577 11.1401   1
   4  -3   8 243.687 13.1122   1
  -5   3  -8 14.8700 4.72938   1
   5  -3   8 31.0108 4.14153   1
   5  -3   8 23.1728 4.43149   1
   5  -3   8 31.8497 4.57326   1
  -6   3  -8 5.28786 2.99357   1
   6  -3   8 6.47690 2.84522   1
   6  -3   8 15.9936 3.46947   1
   6  -3   8 9.10977 2.99458   1
  -6  -2  -9 51.1887 6.21663  -2
   6   2  -8 51.1887 6.21663   1
   6   2   9 44.1342 5.50805  -2
  -6  -2   8 44.1342 5.50805   1
  -5  -2  -9 82.8960 7.34379  -2
   5   2  -8 82.8960 7.34379   1
   5   2   9 81.0865 7.02423  -2
  -5  -2   8 81.0865 7.02423   1
  -4  -2  -9 1070.14 31.2781  -2
   4   2  -8 1070.14 31.2781   1
   4   2   9 1015.51 28.9944  -2
  -4  -2   8 1015.51 28.9944   1
   4   2   9 1000.78 20.8256  -2
  -4  -2   8 1000.78 20.8256   1
  -3  -2  -9 66.5477 7.02990  -2
   3   2  -8 66.5477 7.02990   1
   3   2   9 62.9745 4.37786  -2
  -3  -2   8 62.9745 4.37786   1
   3   2   9 71.6202 4.04331  -2
  -3  -2   8 71.6202 4.04331   1
   3   2   9 60.3144 6.11167  -2
  -3  -2   8 60.3144 6.11167   1
  -2  -2  -9 802.969 25.0760  -2
   2   2  -8 802.969 25.0760   1
   2   2   9 741.283 19.8876  -2
  -2  -2   8 741.283 19.8876   1
   1   2  -8 12.6100 3.66985   1
   1   2  -8 16.2425 3.27440   1
   1   2  -8 16.1907 3.20887   1
  -1  -2   8 18.3656 2.65038   1
  -1  -2   8 19.4036 3.33357   1
  -1  -2   8 16.0904 2.73944   1
  -1  -2   8 26.0299 3.13859   1
   0   2  -8 826.671 23.2012   1
   0   2  -8 833.682 22.2711   1
   0   2  -8 841.376 22.5167   1
   0  -2   8 845.709 22.0771   1
   0  -2   8 842.860 22.6196   1
   0  -2   8 865.515 25.1992   1
   0  -2   8 824.017 21.6686   1
   0  -2   8 823.523 21.7766   1
  -1   2  -8 134.679 8.14444   1
  -1   2  -8 146.882 7.54930   1
  -1   2  -8 143.424 7.56188   1
   1  -2   8 150.994 8.79337   1
   1  -2   8 159.252 8.19612   1
   1  -2   8 141.898 7.53356   1
   1  -2   8 133.565 8.69528   1
   1  -2   8 147.201 7.51601   1
   1  -2   8 151.661 7.71280   1
  -2   2  -8 163.462 9.45423   1
  -2   2  -8 167.587 7.84074   1
  -2   2  -8 168.827 8.07256   1
   2  -2   8 169.541 8.34249   1
   2  -2   8 162.960 9.75024   1
   2  -2   8 174.002 9.45272   1
   2  -2   8 187.634 8.64997   1
  -3   2  -8 26.5738 3.22050   1
  -3   2  -8 28.6729 4.58890   1
   3  -2   8 21.3708 3.93954   1
   3  -2   8 23.3140 3.30932   1
   3  -2   8 25.3861 3.84606   1
   4  -2  -8 58.5886 6.71545  -2
  -4   2  -8 58.5886 6.71545   1
   4  -2   8 10.7980 2.53402   1
   4  -2   8 7.25286 2.90631   1
   4  -2   8 9.71993 3.20148   1
   5  -2  -8 420.913 18.8126  -2
  -5   2  -8 420.913 18.8126   1
   5  -2   8 374.528 15.5105   1
   5  -2   8 338.812 16.1783   1
   5  -2   8 384.284 13.6029   1
   6  -2  -8 4.62897 4.53271  -2
  -6   2  -8 4.62897 4.53271   1
  -6   2   8 3.87354 4.46998  -2
   6  -2   8 3.87354 4.46998   1
  -6   2   8 2.89672 3.17464  -2
   6  -2   8 2.89672 3.17464   1
  -6   2   8 9.33272 3.91473  -2
   6  -2   8 9.33272 3.91473   1
   6   1  -8 66.4379 6.88054   1
  -6  -1   8 49.6482 5.95424   1
   5   1  -8 1.84415 1.95295   1
  -5  -1   8 1.03595 1.51510   1
   4   1  -8 771.075 25.1684   1
  -4  -1   8 731.489 23.4016   1
  -4  -1   8 771.109 16.7957   1
   3   1  -8 34.8763 4.71994   1
  -3  -1   8 27.6331 2.86410   1
  -3  -1   8 26.2243 3.87582   1
  -3  -1   8 26.6323 2.49247   1
   2   1  -8 827.891 23.1438   1
   2   1  -8 834.296 22.5742   1
   2   1  -8 857.443 26.2420   1
   2   1   8 947.648 23.3603  -2
  -2  -1   8 947.648 23.3603   1
   1   1  -8 196.458 10.5351   1
   1   1  -8 190.461 8.87562   1
   1   1  -8 191.693 8.94592   1
  -1  -1   8 186.144 7.33694   1
  -1  -1   8 177.748 9.62981   1
  -1  -1   8 181.433 8.03789   1
  -1  -1   8 176.762 7.87495   1
  -1  -1   8 168.983 8.26434   1
   0  -1  -8 82.0565 5.87071  -2
   0   1  -8 82.0565 5.87071   1
   0  -1   8 36.5210 3.81763   1
   0  -1   8 35.6809 4.34623   1
   0  -1   8 37.8348 4.36410   1
   0  -1   8 33.5241 3.32984   1
   0  -1   8 37.1133 3.64359   1
   0  -1   8 32.8222 3.46208   1
   1  -1  -8 325.465 10.9497  -2
  -1   1  -8 325.465 10.9497   1
   1  -1  -8 314.395 10.9176  -2
  -1   1  -8 314.395 10.9176   1
   1  -1  -8 336.127 12.3337  -2
  -1   1  -8 336.127 12.3337   1
  -1   1   8 323.777 12.0598  -2
   1  -1   8 323.777 12.0598   1
  -1   1   8 332.112 12.6492  -2
   1  -1   8 332.112 12.6492   1
  -1   1   8 312.314 11.8524  -2
   1  -1   8 312.314 11.8524   1
  -1   1   8 327.140 12.3090  -2
   1  -1   8 327.140 12.3090   1
  -1   1   8 331.223 14.4492  -2
   1  -1   8 331.223 14.4492   1
   2  -1  -8 159.683 7.22185  -2
  -2   1  -8 159.683 7.22185   1
   2  -1  -8 158.818 9.02026  -2
  -2   1  -8 158.818 9.02026   1
  -2   1   8 188.568 8.68649  -2
   2  -1   8 188.568 8.68649   1
  -2   1   8 161.444 9.89464  -2
   2  -1   8 161.444 9.89464   1
  -2   1   8 162.031 8.26999  -2
   2  -1   8 162.031 8.26999   1
  -2   1   8 164.669 9.41030  -2
   2  -1   8 164.669 9.41030   1
   3  -1  -8 505.461 13.5083  -2
  -3   1  -8 505.461 13.5083   1
   3  -1  -8 524.478 18.4918  -2
  -3   1  -8 524.478 18.4918   1
  -3   1   8 500.909 18.6951  -2
   3  -1   8 500.909 18.6951   1
  -3   1   8 545.126 16.5474  -2
   3  -1   8 545.126 16.5474   1
  -3   1   8 528.384 18.2440  -2
   3  -1   8 528.384 18.2440   1
   4  -1  -8 14.1562 3.58460  -2
  -4   1  -8 14.1562 3.58460   1
  -4   1   8 22.6348 3.72303  -2
   4  -1   8 22.6348 3.72303   1
  -4   1   8 13.8784 3.45806  -2
   4  -1   8 13.8784 3.45806   1
  -4   1   8 16.9986 2.77071  -2
   4  -1   8 16.9986 2.77071   1
   5  -1  -8 775.830 26.5316  -2
  -5   1  -8 775.830 26.5316   1
  -5   1   8 856.225 25.8021  -2
   5  -1   8 856.225 25.8021   1
  -5   1   8 825.280 26.7901  -2
   5  -1   8 825.280 26.7901   1
  -5   1   8 885.234 23.0119  -2
   5  -1   8 885.234 23.0119   1
   6  -1  -8 98.5013 8.62810  -2
  -6   1  -8 98.5013 8.62810   1
  -6   1   8 94.8301 8.69859  -2
   6  -1   8 94.8301 8.69859   1
  -6   1   8 100.562 7.74822  -2
   6  -1   8 100.562 7.74822   1
  -6   1   8 119.942 6.87355  -2
   6  -1   8 119.942 6.87355   1
   7  -1   8 421.265 19.2979   1
   7   0  -8 5.20515 2.97616   1
   6   0  -8 501.913 19.9002   1
  -6   0   8 506.834 19.3856   1
   5   0  -8 2.80085 2.07742   1
  -5   0   8 0.40596 1.34178   1
   4   0  -8 136.176 9.36771   1
   4   0   8 172.698 5.14745  -2
  -4   0   8 172.698 5.14745   1
  -3   0  -8 257.840 12.4586  -2
   3   0  -8 257.840 12.4586   1
   3   0   8 249.604 11.7869  -2
  -3   0   8 249.604 11.7869   1
   3   0   8 261.161 8.65715  -2
  -3   0   8 261.161 8.65715   1
   3   0   8 236.112 8.76688  -2
  -3   0   8 236.112 8.76688   1
  -2   0  -8 33.3098 4.04643  -2
   2   0  -8 33.3098 4.04643   1
  -2   0  -8 21.8323 4.25523  -2
   2   0  -8 21.8323 4.25523   1
  -2   0  -8 31.1183 3.96569  -2
   2   0  -8 31.1183 3.96569   1
   2   0   8 21.7993 3.71484  -2
  -2   0   8 21.7993 3.71484   1
   2   0   8 21.9403 3.04632  -2
  -2   0   8 21.9403 3.04632   1
   2   0   8 25.9636 3.39625  -2
  -2   0   8 25.9636 3.39625   1
  -1   0  -8 539.553 15.7159  -2
   1   0  -8 539.553 15.7159   1
  -1   0  -8 524.970 15.5039  -2
   1   0  -8 524.970 15.5039   1
  -1   0  -8 518.345 17.8256  -2
   1   0  -8 518.345 17.8256   1
   1   0   8 519.296 15.7215  -2
  -1   0   8 519.296 15.7215   1
   1   0   8 527.182 15.3566  -2
  -1   0   8 527.182 15.3566   1
   1   0   8 521.198 15.6213  -2
  -1   0   8 521.198 15.6213   1
   1   0   8 510.462 18.2450  -2
  -1   0   8 510.462 18.2450   1
   0   0  -8 1.64391 1.96305  -2
   0   0  -8 1.64391 1.96305   1
   0   0  -8 0.79450 1.58497  -2
   0   0  -8 0.79450 1.58497   1
   0   0  -8 4.53407 1.77179  -2
   0   0  -8 4.53407 1.77179   1
   0   0   8 0.79657 1.08725  -2
   0   0   8 0.79657 1.08725   1
   0   0   8 0.55802 1.96209  -2
   0   0   8 0.55802 1.96209   1
   0   0   8 0.30366 1.62373  -2
   0   0   8 0.30366 1.62373   1
   0   0   8 0.20379 0.88906  -2
   0   0   8 0.20379 0.88906   1
   0   0   8 -0.8931 1.10085  -2
   0   0   8 -0.8931 1.10085   1
   0   0   8 0.68868 1.19042  -2
   0   0   8 0.68868 1.19042   1
   1   0  -8 586.181 18.2807  -2
  -1   0  -8 586.181 18.2807   1
   1   0  -8 565.995 16.4154  -2
  -1   0  -8 565.995 16.4154   1
  -1   0   8 657.762 18.8780  -2
   1   0   8 657.762 18.8780   1
  -1   0   8 637.858 18.0362  -2
   1   0   8 637.858 18.0362   1
  -1   0   8 641.488 21.1291  -2
   1   0   8 641.488 21.1291   1
  -1   0   8 681.581 20.9789  -2
   1   0   8 681.581 20.9789   1
  -1   0   8 662.118 18.2963  -2
   1   0   8 662.118 18.2963   1
   2   0  -8 34.7799 3.52907  -2
  -2   0  -8 34.7799 3.52907   1
   2   0  -8 39.0531 4.95693  -2
  -2   0  -8 39.0531 4.95693   1
  -2   0   8 43.7213 4.46067  -2
   2   0   8 43.7213 4.46067   1
  -2   0   8 43.9164 5.16155  -2
   2   0   8 43.9164 5.16155   1
  -2   0   8 44.2927 5.35203  -2
   2   0   8 44.2927 5.35203   1
   3   0  -8 219.439 6.26346  -2
  -3   0  -8 219.439 6.26346   1
   3   0  -8 212.864 10.8134  -2
  -3   0  -8 212.864 10.8134   1
   3   0  -8 216.442 7.19204  -2
  -3   0  -8 216.442 7.19204   1
  -3   0   8 246.529 11.6792  -2
   3   0   8 246.529 11.6792   1
  -4   0  -8 81.3494 7.29819   1
   4   0   8 80.5130 7.04431   1
   4   0   8 70.5797 5.88447   1
   4   0   8 89.6591 5.48801   1
  -5   0  -8 227.891 13.0946   1
   5   0   8 230.090 11.0876   1
   5   0   8 252.847 9.54587   1
   5   0   8 232.527 12.5631   1
  -6   0  -8 3.39811 2.47631   1
   6   0   8 1.53537 1.58293   1
   6   0   8 0.01243 1.75361   1
   7   0   8 18.4258 3.72596   1
   7   0   8 28.0284 5.37907   1
  -7   1  -8 270.860 14.2364  -2
   7  -1  -8 270.860 14.2364   1
  -6   1  -8 127.130 9.45429  -2
   6  -1  -8 127.130 9.45429   1
   6  -1   8 122.623 8.99770  -2
  -6   1   8 122.623 8.99770   1
  -5   1  -8 692.029 23.5721  -2
   5  -1  -8 692.029 23.5721   1
   5  -1   8 711.339 22.9390  -2
  -5   1   8 711.339 22.9390   1
  -4   1  -8 13.0379 3.75350  -2
   4  -1  -8 13.0379 3.75350   1
   4  -1   8 13.5891 1.62438  -2
  -4   1   8 13.5891 1.62438   1
   4  -1   8 7.91261 1.73907  -2
  -4   1   8 7.91261 1.73907   1
   4  -1   8 11.1555 3.11647  -2
  -4   1   8 11.1555 3.11647   1
  -3   1  -8 472.948 17.8775  -2
   3  -1  -8 472.948 17.8775   1
   3  -1   8 497.625 14.1188  -2
  -3   1   8 497.625 14.1188   1
   3  -1   8 472.314 17.2215  -2
  -3   1   8 472.314 17.2215   1
   3  -1   8 494.176 13.6721  -2
  -3   1   8 494.176 13.6721   1
  -2   1  -8 183.373 9.95910  -2
   2  -1  -8 183.373 9.95910   1
  -2   1  -8 163.248 8.17623  -2
   2  -1  -8 163.248 8.17623   1
   2  -1   8 154.967 9.16245  -2
  -2   1   8 154.967 9.16245   1
   2  -1   8 161.752 7.43889  -2
  -2   1   8 161.752 7.43889   1
   2  -1   8 155.768 7.57367  -2
  -2   1   8 155.768 7.57367   1
  -1   1  -8 445.477 16.5269  -2
   1  -1  -8 445.477 16.5269   1
  -1   1  -8 395.390 13.4186  -2
   1  -1  -8 395.390 13.4186   1
   1  -1   8 425.729 13.6245  -2
  -1   1   8 425.729 13.6245   1
   1  -1   8 430.163 13.3115  -2
  -1   1   8 430.163 13.3115   1
   1  -1   8 403.951 15.5039  -2
  -1   1   8 403.951 15.5039   1
   1  -1   8 398.352 13.1403  -2
  -1   1   8 398.352 13.1403   1
   0   1  -8 98.6606 6.16200  -2
   0  -1  -8 98.6606 6.16200   1
   0  -1   8 114.429 6.66755  -2
   0   1   8 114.429 6.66755   1
   1   1  -8 2085.55 43.3785  -2
  -1  -1  -8 2085.55 43.3785   1
   1   1   8 1932.04 45.3455   1
   1   1   8 1970.22 41.4946   1
   1   1   8 2000.94 44.1739   1
   1   1   8 1931.30 41.7176   1
   1   1   8 1916.89 45.9063   1
  -2  -1  -8 123.946 5.84520   1
  -2  -1  -8 135.653 8.10385   1
   2   1   8 123.594 8.09248   1
   2   1   8 122.996 6.59894   1
   2   1   8 134.407 7.83488   1
  -3  -1  -8 626.128 14.1003   1
  -3  -1  -8 581.599 20.4052   1
   3   1   8 638.323 17.7873   1
   3   1   8 613.770 20.4026   1
   3   1   8 637.573 19.8836   1
  -4  -1  -8 73.0400 6.93014   1
   4   1   8 77.9550 4.89211   1
   4   1   8 74.3137 6.56824   1
   4   1   8 74.6914 5.95109   1
  -5  -1  -8 104.533 8.63671   1
   5   1   8 129.460 7.86667   1
   5   1   8 113.133 8.41341   1
   5   1   8 114.199 6.13890   1
  -6  -1  -8 1.29331 1.79738   1
   6   1   8 5.08728 2.26187   1
   6   1   8 4.23411 2.28299   1
  -7  -1   7 7.45158 4.08570  -2
   7   1   8 7.45158 4.08570   1
  -6   2  -8 6.00039 4.59854  -2
   6  -2  -8 6.00039 4.59854   1
   6  -2   8 -1.2107 3.89830  -2
  -6   2   8 -1.2107 3.89830   1
  -5   2  -8 339.911 15.6765  -2
   5  -2  -8 339.911 15.6765   1
   5  -2   8 289.162 13.7792  -2
  -5   2   8 289.162 13.7792   1
   5  -2   8 300.111 8.41109  -2
  -5   2   8 300.111 8.41109   1
   4  -2  -8 89.2320 7.20321   1
   4  -2   8 82.6312 4.90690  -2
  -4   2   8 82.6312 4.90690   1
   3  -2  -8 269.077 12.8063   1
  -3   2   8 256.815 9.50702   1
  -3   2   8 273.956 9.41949   1
  -3   2   8 265.151 11.8337   1
   2  -2  -8 0.11095 1.33260   1
   2  -2  -8 0.90095 1.72514   1
  -2   2   8 -0.2381 1.01268   1
  -2   2   8 0.37694 1.10873   1
  -2   2   8 -0.7080 0.73768   1
   1  -2  -8 468.866 16.9775   1
   1  -2  -8 458.862 14.8564   1
  -1   2   8 449.962 16.0819   1
  -1   2   8 451.918 14.0992   1
  -1   2   8 468.391 13.9891   1
  -1   2   8 466.558 14.3350   1
   0  -2  -8 139.719 7.10785   1
   0  -2  -8 134.264 6.91686   1
   0  -2  -8 128.722 6.81963   1
   0   2   8 138.265 7.28617   1
   0   2   8 131.405 6.78641   1
   0   2   8 146.592 8.12431   1
   0   2   8 142.084 8.04163   1
   0   2   8 142.996 6.98447   1
   0   2   8 147.683 7.03190   1
  -1  -2  -8 76.0406 4.90282   1
  -1  -2  -8 72.3907 5.44030   1
   1   2   8 70.2240 5.62428   1
   1   2   8 76.4835 5.89572   1
   1   2   8 71.6847 4.83549   1
   1   2   8 72.3291 4.86569   1
   1   2   8 79.7097 5.10117   1
   2   2  -7 203.295 7.02714  -2
  -2  -2  -8 203.295 7.02714   1
   2   2   8 20.5199 2.84245   1
   2   2   8 26.1601 3.81530   1
   2   2   8 23.8694 3.21885   1
   3   2  -7 151.108 4.33915  -2
  -3  -2  -8 151.108 4.33915   1
   3   2  -7 143.430 8.98907  -2
  -3  -2  -8 143.430 8.98907   1
  -3  -2   7 139.698 6.97730  -2
   3   2   8 139.698 6.97730   1
  -3  -2   7 139.758 8.85311  -2
   3   2   8 139.758 8.85311   1
  -3  -2   7 143.547 8.53964  -2
   3   2   8 143.547 8.53964   1
   4   2  -7 77.4898 6.98947  -2
  -4  -2  -8 77.4898 6.98947   1
  -4  -2   7 83.1159 6.62532  -2
   4   2   8 83.1159 6.62532   1
  -4  -2   7 89.7976 5.06452  -2
   4   2   8 89.7976 5.06452   1
  -4  -2   7 71.5928 6.78187  -2
   4   2   8 71.5928 6.78187   1
   5   2  -7 192.457 11.2812  -2
  -5  -2  -8 192.457 11.2812   1
  -5  -2   7 212.463 11.5293  -2
   5   2   8 212.463 11.5293   1
  -5  -2   7 224.705 10.8400  -2
   5   2   8 224.705 10.8400   1
   6   2  -7 17.4950 4.01501  -2
  -6  -2  -8 17.4950 4.01501   1
  -6  -2   7 20.4779 4.04528  -2
   6   2   8 20.4779 4.04528   1
  -6  -2   7 8.90334 2.91844  -2
   6   2   8 8.90334 2.91844   1
  -7  -2   7 362.097 16.8278  -2
   7   2   8 362.097 16.8278   1
  -7  -2   7 326.888 14.3228  -2
   7   2   8 326.888 14.3228   1
   6  -3  -8 26.0837 4.95951   1
  -6   3   8 21.2924 4.33857   1
   5  -3  -8 775.943 25.7739   1
  -5   3   8 777.854 24.6596   1
  -5   3   8 764.533 17.6431   1
   4  -3  -8 5.13451 2.36845   1
   4  -3   7 262.070 9.20507  -2
  -4   3   8 262.070 9.20507   1
   3  -3  -8 535.865 19.6145   1
  -3   3   8 537.188 15.1347   1
  -3   3   8 544.674 18.1324   1
  -3   3   8 529.073 15.2539   1
  -2   3  -7 37.0499 4.33630  -2
   2  -3  -8 37.0499 4.33630   1
  -2   3  -7 38.0903 5.20689  -2
   2  -3  -8 38.0903 5.20689   1
   2  -3   7 34.0926 4.58248  -2
  -2   3   8 34.0926 4.58248   1
   2  -3   7 39.1558 4.13192  -2
  -2   3   8 39.1558 4.13192   1
  -1   3  -7 923.588 23.9112  -2
   1  -3  -8 923.588 23.9112   1
   1  -3   7 936.787 23.9005  -2
  -1   3   8 936.787 23.9005   1
   1  -3   7 967.454 24.0178  -2
  -1   3   8 967.454 24.0178   1
   1  -3   7 980.014 24.5913  -2
  -1   3   8 980.014 24.5913   1
   1  -3   7 976.858 26.5103  -2
  -1   3   8 976.858 26.5103   1
   0   3  -7 194.936 8.68226  -2
   0  -3  -8 194.936 8.68226   1
   0   3  -7 184.944 7.32671  -2
   0  -3  -8 184.944 7.32671   1
   0   3  -7 198.631 8.45587  -2
   0  -3  -8 198.631 8.45587   1
   0  -3   7 201.702 9.97810  -2
   0   3   8 201.702 9.97810   1
   0  -3   7 204.098 8.76825  -2
   0   3   8 204.098 8.76825   1
   0  -3   7 206.642 8.90764  -2
   0   3   8 206.642 8.90764   1
   0  -3   7 219.203 10.3787  -2
   0   3   8 219.203 10.3787   1
   0  -3   7 187.654 8.59121  -2
   0   3   8 187.654 8.59121   1
   1   3  -7 6.36755 1.74084  -2
  -1  -3  -8 6.36755 1.74084   1
   1   3  -7 5.18370 1.76479  -2
  -1  -3  -8 5.18370 1.76479   1
   1   3  -7 5.33494 2.29882  -2
  -1  -3  -8 5.33494 2.29882   1
  -1  -3   7 9.15626 2.45130  -2
   1   3   8 9.15626 2.45130   1
  -1  -3   7 7.30297 2.34189  -2
   1   3   8 7.30297 2.34189   1
  -1  -3   7 8.55532 2.75702  -2
   1   3   8 8.55532 2.75702   1
  -1  -3   7 7.64107 2.33546  -2
   1   3   8 7.64107 2.33546   1
   2   3  -7 18.4959 3.32329  -2
  -2  -3  -8 18.4959 3.32329   1
   2   3  -7 19.7058 1.84951  -2
  -2  -3  -8 19.7058 1.84951   1
   2   3  -7 23.2896 2.19497  -2
  -2  -3  -8 23.2896 2.19497   1
  -2  -3   7 18.3520 2.85521  -2
   2   3   8 18.3520 2.85521   1
  -2  -3   7 18.7311 3.42965  -2
   2   3   8 18.7311 3.42965   1
  -2  -3   7 25.2692 3.54130  -2
   2   3   8 25.2692 3.54130   1
   3   3  -7 318.039 13.7623  -2
  -3  -3  -8 318.039 13.7623   1
  -3  -3   7 316.358 11.2280  -2
   3   3   8 316.358 11.2280   1
  -3  -3   7 342.710 13.9369  -2
   3   3   8 342.710 13.9369   1
  -3  -3   7 340.728 13.5467  -2
   3   3   8 340.728 13.5467   1
   4   3  -7 469.427 18.3558  -2
  -4  -3  -8 469.427 18.3558   1
  -4  -3   7 493.942 17.2073  -2
   4   3   8 493.942 17.2073   1
  -4  -3   7 522.815 14.6943  -2
   4   3   8 522.815 14.6943   1
  -4  -3   7 536.880 18.4852  -2
   4   3   8 536.880 18.4852   1
   5   3  -7 208.717 12.3461  -2
  -5  -3  -8 208.717 12.3461   1
  -5  -3   7 257.168 11.6983  -2
   5   3   8 257.168 11.6983   1
  -6  -3  -8 13.9835 3.89665   1
   6   3   8 10.5069 2.72797   1
   6   3   8 11.3826 3.58198   1
  -7  -3  -8 66.5937 8.63622   1
   7   3   8 72.7160 6.15028   1
   7   3   8 73.0595 7.23686   1
  -6   4  -7 231.151 13.3507  -2
   6  -4  -8 231.151 13.3507   1
   6  -4   7 208.887 12.1292  -2
  -6   4   8 208.887 12.1292   1
  -5   4  -7 260.155 13.7880  -2
   5  -4  -8 260.155 13.7880   1
   5  -4   7 235.785 12.0826  -2
  -5   4   8 235.785 12.0826   1
   5  -4   7 237.647 7.15999  -2
  -5   4   8 237.647 7.15999   1
   5  -4   7 213.795 7.99203  -2
  -5   4   8 213.795 7.99203   1
  -4   4  -7 137.662 9.58179  -2
   4  -4  -8 137.662 9.58179   1
   4  -4   7 134.570 8.44874  -2
  -4   4   8 134.570 8.44874   1
   4  -4   7 126.699 6.45311  -2
  -4   4   8 126.699 6.45311   1
   4  -4   7 136.173 6.27193  -2
  -4   4   8 136.173 6.27193   1
  -3   4  -7 139.007 9.01269  -2
   3  -4  -8 139.007 9.01269   1
   3  -4   7 127.742 7.89519  -2
  -3   4   8 127.742 7.89519   1
   3  -4   7 128.342 6.57881  -2
  -3   4   8 128.342 6.57881   1
   3  -4   7 141.588 7.08902  -2
  -3   4   8 141.588 7.08902   1
  -2   4  -7 830.060 22.1065  -2
   2  -4  -8 830.060 22.1065   1
   2  -4   7 811.001 23.1770  -2
  -2   4   8 811.001 23.1770   1
   2  -4   7 823.350 21.5154  -2
  -2   4   8 823.350 21.5154   1
   2  -4   7 791.825 21.1470  -2
  -2   4   8 791.825 21.1470   1
  -1   4  -7 134.168 7.36138  -2
   1  -4  -8 134.168 7.36138   1
  -1   4  -7 140.317 7.22290  -2
   1  -4  -8 140.317 7.22290   1
   1  -4   7 138.351 7.36286  -2
  -1   4   8 138.351 7.36286   1
   1  -4   7 133.244 7.93392  -2
  -1   4   8 133.244 7.93392   1
   1  -4   7 152.142 7.69471  -2
  -1   4   8 152.142 7.69471   1
   1  -4   7 155.942 7.54794  -2
  -1   4   8 155.942 7.54794   1
   0   4  -7 37.7754 4.20793  -2
   0  -4  -8 37.7754 4.20793   1
   0   4  -7 33.0061 3.80633  -2
   0  -4  -8 33.0061 3.80633   1
   0   4  -7 32.7397 3.64559  -2
   0  -4  -8 32.7397 3.64559   1
   0  -4   7 44.1801 4.35833  -2
   0   4   8 44.1801 4.35833   1
   0  -4   7 30.2990 4.36773  -2
   0   4   8 30.2990 4.36773   1
   0  -4   7 34.5559 3.74396  -2
   0   4   8 34.5559 3.74396   1
   0  -4   7 39.0992 4.09849  -2
   0   4   8 39.0992 4.09849   1
   0  -4   7 31.3338 4.02978  -2
   0   4   8 31.3338 4.02978   1
   0  -4   7 32.7951 4.28718  -2
   0   4   8 32.7951 4.28718   1
   1   4  -7 643.476 16.6635  -2
  -1  -4  -8 643.476 16.6635   1
   1   4  -7 662.516 16.3871  -2
  -1  -4  -8 662.516 16.3871   1
   1   4   8 244.317 10.9637   1
   1   4   8 268.167 10.9479   1
   1   4   8 244.251 10.4474   1
   1   4   8 238.102 9.72052   1
  -2  -4  -8 185.178 6.26298   1
  -2  -4  -8 171.507 9.39789   1
   2   4   8 173.699 7.79661   1
   2   4   8 176.011 9.12147   1
   2   4   8 192.380 9.19928   1
  -3  -4  -8 714.283 22.9937   1
   3   4   8 695.240 21.5735   1
   3   4   8 732.579 21.8076   1
   3   4   8 700.385 19.1807   1
  -4  -4  -8 405.569 16.9877   1
   4   4   8 389.685 15.1537   1
   4   4   8 407.709 12.2890   1
   4   4   8 396.011 14.9112   1
  -5  -4  -8 6.84825 2.96040   1
   5   4   8 6.07695 2.40398   1
   5   4   8 7.37269 2.69200   1
  -6  -4  -8 581.946 22.8472   1
   6   4   8 580.959 18.9099   1
   6   4   8 567.833 20.5382   1
   7   4   8 53.2072 5.23152   1
  -6   5  -7 63.4809 7.54450  -2
   6  -5  -8 63.4809 7.54450   1
   6  -5   7 64.8239 6.75972  -2
  -6   5   8 64.8239 6.75972   1
   6  -5   7 57.4114 3.16923  -2
  -6   5   8 57.4114 3.16923   1
  -5   5  -7 8.20521 4.99776  -2
   5  -5  -8 8.20521 4.99776   1
   5  -5   7 8.30564 2.62175  -2
  -5   5   8 8.30564 2.62175   1
   5  -5   7 6.97646 2.19379  -2
  -5   5   8 6.97646 2.19379   1
   5  -5   7 12.0883 4.05794  -2
  -5   5   8 12.0883 4.05794   1
   4  -5   7 338.936 14.2929  -2
  -4   5   8 338.936 14.2929   1
   4  -5   7 346.966 11.9580  -2
  -4   5   8 346.966 11.9580   1
   4  -5   7 313.253 10.9136  -2
  -4   5   8 313.253 10.9136   1
   3  -5  -8 172.977 9.10715   1
   3  -5  -8 147.128 8.43598   1
   3  -5   7 195.800 9.03735  -2
  -3   5   8 195.800 9.03735   1
  -2   5  -7 427.733 14.7618  -2
   2  -5  -8 427.733 14.7618   1
  -2   5   8 133.923 7.21842   1
  -2   5   8 150.044 7.60662   1
  -2   5   8 145.437 8.00398   1
   1  -5  -8 367.958 12.8331   1
   1  -5  -8 367.404 12.7875   1
   1  -5  -8 359.432 12.1323   1
  -1   5   8 362.760 12.5275   1
  -1   5   8 375.801 13.4506   1
  -1   5   8 362.925 12.6906   1
  -1   5   8 350.809 12.6453   1
   0  -5  -8 39.7792 3.66808   1
   0  -5  -8 36.8821 3.69941   1
   0   5   8 39.6674 4.20277   1
   0   5   8 35.5741 3.84010   1
   0   5   8 42.8095 4.73773   1
   0   5   8 41.4874 4.02780   1
   0   5   8 49.4408 4.34369   1
   0   5   8 41.9261 3.89939   1
  -1  -5  -8 211.522 7.64595   1
  -1  -5  -8 202.725 10.0191   1
  -1  -5  -8 200.154 7.77363   1
   1   5   8 212.469 10.3791   1
   1   5   8 208.525 9.04311   1
   1   5   8 225.569 9.81244   1
   1   5   8 212.418 9.86165   1
  -2  -5  -8 341.912 9.19981   1
  -2  -5  -8 338.419 14.0089   1
   2   5   8 351.923 13.9804   1
   2   5   8 331.602 11.8441   1
   2   5   8 342.282 12.7727   1
   2   5   8 337.583 13.4329   1
  -3  -5  -8 63.7312 6.18228   1
   3   5   8 67.5499 4.66573   1
   3   5   8 55.7640 5.63912   1
   3   5   8 78.2428 5.95967   1
   3   5   8 61.9379 5.33776   1
   4   5  -6 84.3754 8.10512  -2
  -4  -5  -8 84.3754 8.10512   1
   4   5   8 84.3140 6.23369   1
   5   5  -6 95.1138 8.74801  -2
  -5  -5  -8 95.1138 8.74801   1
  -5  -5   6 98.0662 7.03730  -2
   5   5   8 98.0662 7.03730   1
   6   5  -6 31.0258 5.77504  -2
  -6  -5  -8 31.0258 5.77504   1
  -6  -5   6 32.4820 4.65322  -2
   6   5   8 32.4820 4.65322   1
   5  -6   7 161.929 7.80457  -2
  -5   6   8 161.929 7.80457   1
  -4   6   8 34.9536 3.57732   1
  -4   6   8 33.6576 3.88492   1
  -4   6   8 34.0513 4.63688   1
  -3   6  -6 625.384 19.6213  -2
   3  -6  -8 625.384 19.6213   1
  -3   6   8 398.360 13.4419   1
  -3   6   8 393.729 14.7675   1
  -3   6   8 400.635 13.7210   1
   2  -6  -8 105.007 6.79909   1
   2  -6  -8 93.4632 6.11939   1
   2  -6  -8 96.6141 6.65947   1
  -2   6   8 95.7670 6.33050   1
  -2   6   8 90.0104 6.31285   1
  -2   6   8 96.3954 6.18539   1
   1  -6  -8 130.700 7.17221   1
   1  -6  -8 133.682 7.33301   1
   1  -6   6 201.344 9.45459  -2
  -1   6   8 201.344 9.45459   1
   0   6  -6 1534.90 33.8184  -2
   0  -6  -8 1534.90 33.8184   1
   0  -6   6 1589.69 36.0076  -2
   0   6   8 1589.69 36.0076   1
   0  -6   6 1560.35 36.2089  -2
   0   6   8 1560.35 36.2089   1
   0  -6   6 1492.14 37.2449  -2
   0   6   8 1492.14 37.2449   1
   1   6  -6 172.471 6.62310  -2
  -1  -6  -8 172.471 6.62310   1
   1   6  -6 154.603 6.83538  -2
  -1  -6  -8 154.603 6.83538   1
  -1  -6   6 160.464 8.26431  -2
   1   6   8 160.464 8.26431   1
  -1  -6   6 174.443 9.29427  -2
   1   6   8 174.443 9.29427   1
  -1  -6   6 155.388 9.24350  -2
   1   6   8 155.388 9.24350   1
   2   6  -6 768.731 16.7786  -2
  -2  -6  -8 768.731 16.7786   1
   2   6  -6 792.727 24.2773  -2
  -2  -6  -8 792.727 24.2773   1
  -2  -6   6 794.948 24.2181  -2
   2   6   8 794.948 24.2181   1
  -2  -6   6 777.681 23.7855  -2
   2   6   8 777.681 23.7855   1
  -2  -6   6 789.742 22.2213  -2
   2   6   8 789.742 22.2213   1
   3   6  -6 143.109 9.28816  -2
  -3  -6  -8 143.109 9.28816   1
  -3  -6   6 143.136 9.42742  -2
   3   6   8 143.136 9.42742   1
  -3  -6   6 147.427 8.70603  -2
   3   6   8 147.427 8.70603   1
  -3  -6   6 162.974 7.94679  -2
   3   6   8 162.974 7.94679   1
   4   6  -6 161.965 10.3801  -2
  -4  -6  -8 161.965 10.3801   1
  -4  -6   6 160.672 9.07627  -2
   4   6   8 160.672 9.07627   1
  -4  -6   6 162.313 10.5004  -2
   4   6   8 162.313 10.5004   1
   5   6  -6 81.6626 8.33863  -2
  -5  -6  -8 81.6626 8.33863   1
  -5  -6   6 82.5852 6.49539  -2
   5   6   8 82.5852 6.49539   1
  -6  -6   6 19.8622 4.63158  -2
   6   6   8 19.8622 4.63158   1
   5  -7  -8 181.989 10.4833   1
   5  -7   6 202.445 8.50161  -2
  -5   7   8 202.445 8.50161   1
   5  -7   6 200.708 9.13493  -2
  -5   7   8 200.708 9.13493   1
  -4   7  -6 800.327 24.3283  -2
   4  -7  -8 800.327 24.3283   1
   4  -7   6 822.392 24.0517  -2
  -4   7   8 822.392 24.0517   1
   4  -7   6 802.576 21.8203  -2
  -4   7   8 802.576 21.8203   1
   4  -7   6 759.418 21.0297  -2
  -4   7   8 759.418 21.0297   1
  -3   7  -6 42.5343 5.47068  -2
   3  -7  -8 42.5343 5.47068   1
  -3   7  -6 42.1256 4.77582  -2
   3  -7  -8 42.1256 4.77582   1
  -3   7  -6 40.8013 5.12395  -2
   3  -7  -8 40.8013 5.12395   1
   3  -7   6 35.8550 4.67072  -2
  -3   7   8 35.8550 4.67072   1
   3  -7   6 32.2366 4.71086  -2
  -3   7   8 32.2366 4.71086   1
   3  -7   6 36.9577 4.85897  -2
  -3   7   8 36.9577 4.85897   1
  -2   7  -6 151.108 8.44842  -2
   2  -7  -8 151.108 8.44842   1
  -2   7  -6 147.705 8.25332  -2
   2  -7  -8 147.705 8.25332   1
   2  -7   6 158.038 8.29740  -2
  -2   7   8 158.038 8.29740   1
   2  -7   6 155.506 8.44524  -2
  -2   7   8 155.506 8.44524   1
  -1   7  -6 64.3769 5.17294  -2
   1  -7  -8 64.3769 5.17294   1
  -1   7  -6 74.4663 5.32480  -2
   1  -7  -8 74.4663 5.32480   1
   1  -7   6 72.4060 5.66659  -2
  -1   7   8 72.4060 5.66659   1
   1  -7   6 76.4049 5.80844  -2
  -1   7   8 76.4049 5.80844   1
   0   7  -6 12.5427 2.99630  -2
   0  -7  -8 12.5427 2.99630   1
   0   7  -6 13.6680 2.63682  -2
   0  -7  -8 13.6680 2.63682   1
   0  -7   6 12.9769 3.18125  -2
   0   7   8 12.9769 3.18125   1
   0  -7   6 14.3212 3.22548  -2
   0   7   8 14.3212 3.22548   1
   0  -7   6 17.4644 3.20952  -2
   0   7   8 17.4644 3.20952   1
   1   7  -6 495.209 13.0285  -2
  -1  -7  -8 495.209 13.0285   1
   1   7  -6 492.980 13.7425  -2
  -1  -7  -8 492.980 13.7425   1
  -1  -7   6 486.804 17.7014  -2
   1   7   8 486.804 17.7014   1
  -1  -7   6 497.923 18.0983  -2
   1   7   8 497.923 18.0983   1
  -1  -7   6 472.738 16.1835  -2
   1   7   8 472.738 16.1835   1
   2   7  -6 77.7862 3.47460  -2
  -2  -7  -8 77.7862 3.47460   1
  -2  -7   6 86.9117 6.76685  -2
   2   7   8 86.9117 6.76685   1
  -2  -7   6 69.3749 6.99570  -2
   2   7   8 69.3749 6.99570   1
  -2  -7   6 78.9668 6.97534  -2
   2   7   8 78.9668 6.97534   1
   3   7   8 37.9115 4.49872   1
   3   7   8 40.5336 5.19218   1
   3   7   8 44.2534 4.02072   1
  -4  -7  -8 68.5916 7.09455   1
   4   7   8 63.7626 6.68607   1
   4   7   8 64.0598 5.66657   1
  -5  -7  -8 216.398 13.1977   1
   5   7   8 225.791 10.8474   1
   5   7   8 250.281 13.8197   1
   6   7   8 22.4383 5.29030   1
   6   7   8 24.5678 3.87289   1
  -4   8  -6 562.731 19.3952  -2
   4  -8  -8 562.731 19.3952   1
   4  -8   6 522.960 17.2130  -2
  -4   8   8 522.960 17.2130   1
   4  -8   6 527.784 16.8456  -2
  -4   8   8 527.784 16.8456   1
  -3   8  -6 58.8984 6.27354  -2
   3  -8  -8 58.8984 6.27354   1
  -3   8  -6 53.6671 6.33956  -2
   3  -8  -8 53.6671 6.33956   1
   3  -8   6 59.0881 6.22195  -2
  -3   8   8 59.0881 6.22195   1
   3  -8   6 59.3684 5.75496  -2
  -3   8   8 59.3684 5.75496   1
  -2   8  -6 265.935 12.0617  -2
   2  -8  -8 265.935 12.0617   1
  -2   8  -6 274.221 12.0413  -2
   2  -8  -8 274.221 12.0413   1
   2  -8   6 270.633 11.8911  -2
  -2   8   8 270.633 11.8911   1
   2  -8   6 263.860 11.7288  -2
  -2   8   8 263.860 11.7288   1
   1  -8  -8 23.4587 3.47749   1
   1  -8  -8 25.2462 3.78113   1
  -1   8   8 24.9164 3.77973   1
  -1   8   8 25.1343 4.26731   1
   0  -8  -8 32.6424 3.74616   1
   0  -8  -8 28.6280 3.29335   1
   0   8   8 30.3805 3.72793   1
   0   8   8 39.2683 4.55344   1
  -1  -8  -8 23.4467 2.40337   1
  -1  -8  -8 24.0660 2.87861   1
   1   8   8 26.8693 4.06714   1
   1   8   8 24.9417 3.48154   1
   1   8   8 22.6329 4.10628   1
   2   8   8 2.68819 2.02050   1
   2   8   8 2.97045 1.98451   1
   2   8   8 0.54973 1.32894   1
   3   8   8 406.403 14.1241   1
   3   8   8 381.062 16.9068   1
   3   8   8 387.678 15.5196   1
   4   8   8 51.7623 6.19222   1
   4   8   8 46.2459 4.97009   1
   5   8   8 153.500 8.90641   1
   3  -9  -8 118.042 8.25653   1
   3  -9  -8 128.145 8.84360   1
   3  -9   6 283.063 13.1704  -2
  -3   9   8 283.063 13.1704   1
   2  -9  -8 62.7738 6.27916   1
   2  -9  -8 66.1631 5.96192   1
  -2   9   8 57.7411 5.82990   1
  -2   9   8 70.3347 6.05930   1
  -1   9  -5 552.345 17.5361  -2
   1  -9  -8 552.345 17.5361   1
  -1   9   8 251.490 11.3306   1
   0  -9  -8 58.5880 4.96766   1
   0  -9  -8 67.2539 4.79212   1
   0   9   8 72.0478 6.59004   1
   1   9  -5 176.147 7.39237  -2
  -1  -9  -8 176.147 7.39237   1
  -1  -9   5 171.789 10.7117  -2
   1   9   8 171.789 10.7117   1
  -2  -9  -8 12.1166 2.41117   1
  -2  -9   5 21.2765 4.93999  -2
   2   9   8 21.2765 4.93999   1
  -2  -9   5 11.9183 4.53861  -2
   2   9   8 11.9183 4.53861   1
  -2  -9   5 11.6438 3.72212  -2
   2   9   8 11.6438 3.72212   1
  -3  -9   5 433.605 17.4079  -2
   3   9   8 433.605 17.4079   1
  -3  -9   5 424.210 18.6603  -2
   3   9   8 424.210 18.6603   1
  -3  -9   5 436.099 15.6908  -2
   3   9   8 436.099 15.6908   1
  -4  -9   5 49.6282 5.65152  -2
   4   9   8 49.6282 5.65152   1
  -4  -9   5 48.8696 6.81547  -2
   4   9   8 48.8696 6.81547   1
  -4  -9   5 43.7893 5.10851  -2
   4   9   8 43.7893 5.10851   1
  -2  10  -5 118.329 8.51966  -2
   2 -10  -8 118.329 8.51966   1
  -2  10  -5 129.464 8.67901  -2
   2 -10  -8 129.464 8.67901   1
   2 -10   5 122.686 8.93150  -2
  -2  10   8 122.686 8.93150   1
   2 -10   5 137.861 9.07285  -2
  -2  10   8 137.861 9.07285   1
  -1  10  -5 442.340 15.5360  -2
   1 -10  -8 442.340 15.5360   1
  -1  10  -5 428.180 14.8111  -2
   1 -10  -8 428.180 14.8111   1
   0  10  -5 118.197 6.73324  -2
   0 -10  -8 118.197 6.73324   1
   0  10  -5 112.781 6.05269  -2
   0 -10  -8 112.781 6.05269   1
   0 -10   5 114.494 8.79660  -2
   0  10   8 114.494 8.79660   1
   1  10  -5 156.708 8.24941  -2
  -1 -10  -8 156.708 8.24941   1
   1  10  -5 147.017 6.45364  -2
  -1 -10  -8 147.017 6.45364   1
  -1 -10   5 175.278 11.0529  -2
   1  10   8 175.278 11.0529   1
  -1 -10   5 168.039 10.4612  -2
   1  10   8 168.039 10.4612   1
   2  10  -5 32.2641 3.61533  -2
  -2 -10  -8 32.2641 3.61533   1
  -2 -10   5 31.0466 4.94550  -2
   2  10   8 31.0466 4.94550   1
  -2 -10   5 39.8776 5.86336  -2
   2  10   8 39.8776 5.86336   1
  -2 -10   5 24.8876 5.55405  -2
   2  10   8 24.8876 5.55405   1
  -3 -10   5 93.1897 7.64055  -2
   3  10   8 93.1897 7.64055   1
  -3 -10   5 109.952 8.75370  -2
   3  10   8 109.952 8.75370   1
   2   7  11 381.415 15.6391  -2
  -2  -7   9 381.415 15.6391   1
   2   7  11 358.438 11.7487  -2
  -2  -7   9 358.438 11.7487   1
   2   7  11 355.992 12.9720  -2
  -2  -7   9 355.992 12.9720   1
   1   7  11 803.419 23.4069  -2
  -1  -7   9 803.419 23.4069   1
   1   7  11 789.600 25.0239  -2
  -1  -7   9 789.600 25.0239   1
   1   7  11 824.452 22.7322  -2
  -1  -7   9 824.452 22.7322   1
   0  -7 -11 281.433 13.2615  -2
   0   7  -9 281.433 13.2615   1
   0   7  11 300.806 14.2969  -2
   0  -7   9 300.806 14.2969   1
   0   7  11 276.196 13.2118  -2
   0  -7   9 276.196 13.2118   1
   0   7  11 312.894 15.9164  -2
   0  -7   9 312.894 15.9164   1
   0   7  11 303.356 13.3051  -2
   0  -7   9 303.356 13.3051   1
   1  -7 -11 190.598 10.4416  -2
  -1   7  -9 190.598 10.4416   1
   1  -7 -11 166.287 11.5285  -2
  -1   7  -9 166.287 11.5285   1
   1  -7 -11 178.884 10.2809  -2
  -1   7  -9 178.884 10.2809   1
  -1   7  11 172.376 10.8227  -2
   1  -7   9 172.376 10.8227   1
  -1   7  11 158.009 9.82866  -2
   1  -7   9 158.009 9.82866   1
  -1   7  11 168.434 11.5280  -2
   1  -7   9 168.434 11.5280   1
  -1   7  11 175.505 10.6472  -2
   1  -7   9 175.505 10.6472   1
   2  -7 -11 258.722 15.3718  -2
  -2   7  -9 258.722 15.3718   1
   2  -7 -11 289.274 13.5860  -2
  -2   7  -9 289.274 13.5860   1
   2  -7 -11 270.970 12.9535  -2
  -2   7  -9 270.970 12.9535   1
  -2   7  11 304.744 14.2851  -2
   2  -7   9 304.744 14.2851   1
  -2   7  11 283.227 15.9184  -2
   2  -7   9 283.227 15.9184   1
  -2   7  11 282.990 13.6711  -2
   2  -7   9 282.990 13.6711   1
  -3  -6 -11 427.346 19.4414  -2
   3   6  -9 427.346 19.4414   1
   3   6  11 423.286 12.1259  -2
  -3  -6   9 423.286 12.1259   1
   3   6  11 449.846 15.5893  -2
  -3  -6   9 449.846 15.5893   1
   3   6  11 408.040 17.1353  -2
  -3  -6   9 408.040 17.1353   1
   2   6  11 547.857 15.7563  -2
  -2  -6   9 547.857 15.7563   1
   2   6  11 576.598 17.3089  -2
  -2  -6   9 576.598 17.3089   1
   2   6  11 579.072 21.2215  -2
  -2  -6   9 579.072 21.2215   1
   2   6  11 571.145 19.3076  -2
  -2  -6   9 571.145 19.3076   1
   1   6  11 166.617 11.0015  -2
  -1  -6   9 166.617 11.0015   1
   1   6  11 127.359 7.83777  -2
  -1  -6   9 127.359 7.83777   1
   1   6  11 146.198 9.52535  -2
  -1  -6   9 146.198 9.52535   1
   1   6  11 137.169 8.67301  -2
  -1  -6   9 137.169 8.67301   1
   0   6  -9 28.1994 4.69520   1
   0   6  -9 18.5305 4.61871   1
   0   6  -9 24.5506 4.35101   1
   0   6  11 39.9995 6.56403  -2
   0  -6   9 39.9995 6.56403   1
   0   6  11 48.6475 6.45645  -2
   0  -6   9 48.6475 6.45645   1
   0   6  11 39.1626 5.88285  -2
   0  -6   9 39.1626 5.88285   1
   0   6  11 35.2628 6.01519  -2
   0  -6   9 35.2628 6.01519   1
  -1   6  -9 43.2316 5.46585   1
  -1   6  -9 47.4698 6.17310   1
  -1   6  -9 45.5171 5.78560   1
  -1   6  11 42.9913 6.42351  -2
   1  -6   9 42.9913 6.42351   1
  -2   6  -9 89.4755 8.67156   1
  -2   6  -9 95.4200 7.64919   1
  -2   6  -9 88.4737 7.33739   1
   2  -6   9 109.239 8.05570   1
   2  -6   9 86.1779 8.33641   1
   2  -6   9 114.178 7.62363   1
   2  -6   9 96.4690 7.48270   1
  -3   6  -9 132.429 11.0965   1
  -3   6  -9 113.310 7.48966   1
  -3   6  -9 124.190 8.64843   1
   3  -6   9 136.228 10.4132   1
   3  -6   9 132.135 8.81361   1
   4   5  -9 44.3976 6.43980   1
   4   5  11 220.669 12.2977  -2
  -4  -5   9 220.669 12.2977   1
   3   5  -9 1.62303 2.78647   1
  -3  -5   9 7.48105 1.97348   1
  -3  -5   9 6.73360 2.58572   1
  -2  -5   9 47.7738 4.29127   1
  -2  -5   9 49.6621 5.56649   1
  -2  -5   9 59.8071 4.31374   1
  -2  -5   9 53.0085 5.30675   1
   1   5  -9 102.825 7.53561   1
  -1  -5   9 102.775 7.21418   1
  -1  -5   9 102.235 6.57403   1
  -1  -5   9 100.187 7.96554   1
  -1  -5   9 114.283 6.73698   1
   0   5  -9 291.449 12.5519   1
   0   5  -9 252.125 12.1582   1
   0   5  -9 287.207 13.2998   1
   0  -5   9 282.943 11.8305   1
   0  -5   9 299.087 14.1380   1
   0  -5   9 289.680 12.2040   1
   0  -5   9 296.179 13.0694   1
  -1   5  -9 326.934 13.6970   1
  -1   5  -9 323.300 14.9653   1
  -1   5  -9 324.625 13.5517   1
   1  -5   9 325.312 15.2727   1
   1  -5   9 330.291 13.6686   1
   1  -5   9 330.685 13.5615   1
   1  -5   9 328.662 12.7268   1
  -2   5  -9 410.200 15.6206   1
  -2   5  -9 418.549 18.2003   1
  -2   5  -9 409.364 15.2648   1
   2  -5   9 442.097 16.2160   1
   2  -5   9 422.505 18.6562   1
   2  -5   9 432.400 16.3194   1
   2  -5   9 437.548 16.1942   1
   3  -5 -10 621.369 18.7802  -2
  -3   5  -9 621.369 18.7802   1
   3  -5   9 107.269 9.18009   1
   3  -5   9 123.192 8.19263   1
   4  -5 -10 816.102 20.2517  -2
  -4   5  -9 816.102 20.2517   1
   4  -5 -10 753.108 28.4624  -2
  -4   5  -9 753.108 28.4624   1
   4  -5 -10 777.626 21.3806  -2
  -4   5  -9 777.626 21.3806   1
  -4   5  10 758.755 27.7177  -2
   4  -5   9 758.755 27.7177   1
  -4   5  10 791.138 25.1161  -2
   4  -5   9 791.138 25.1161   1
   5   4  -9 46.3113 6.68341   1
  -5  -4   9 42.1593 5.55827   1
  -4  -4 -10 83.8026 9.21979  -2
   4   4  -9 83.8026 9.21979   1
  -4  -4   9 42.2276 5.19826   1
   3   4  -9 23.6684 4.97120   1
   3   4  10 182.458 7.59645  -2
  -3  -4   9 182.458 7.59645   1
   2   4  -9 392.583 17.3088   1
  -2  -4   9 367.053 15.8244   1
  -2  -4   9 383.620 14.1093   1
  -2  -4   9 386.286 12.2818   1
  -2  -4   9 372.737 12.8999   1
   1   4  -9 0.08368 1.76446   1
   1   4  10 420.114 15.0230  -2
  -1  -4   9 420.114 15.0230   1
   1   4  10 412.671 17.8396  -2
  -1  -4   9 412.671 17.8396   1
   0  -4 -10 847.550 24.4103  -2
   0   4  -9 847.550 24.4103   1
   0  -4 -10 849.714 25.4956  -2
   0   4  -9 849.714 25.4956   1
   0  -4 -10 887.954 24.6437  -2
   0   4  -9 887.954 24.6437   1
   0   4  10 866.471 27.3821  -2
   0  -4   9 866.471 27.3821   1
   0   4  10 871.967 23.9247  -2
   0  -4   9 871.967 23.9247   1
   0   4  10 849.122 23.6479  -2
   0  -4   9 849.122 23.6479   1
   0   4  10 818.952 24.7162  -2
   0  -4   9 818.952 24.7162   1
   1  -4 -10 1132.76 32.2155  -2
  -1   4  -9 1132.76 32.2155   1
   1  -4 -10 1182.41 29.7000  -2
  -1   4  -9 1182.41 29.7000   1
   1  -4 -10 1148.52 29.4128  -2
  -1   4  -9 1148.52 29.4128   1
  -1   4  10 1206.83 35.1409  -2
   1  -4   9 1206.83 35.1409   1
  -1   4  10 1173.11 30.7274  -2
   1  -4   9 1173.11 30.7274   1
  -1   4  10 1183.01 30.8233  -2
   1  -4   9 1183.01 30.8233   1
  -1   4  10 1233.03 31.8141  -2
   1  -4   9 1233.03 31.8141   1
   2  -4 -10 314.214 12.2207  -2
  -2   4  -9 314.214 12.2207   1
   2  -4 -10 303.482 14.4544  -2
  -2   4  -9 303.482 14.4544   1
   2  -4 -10 320.992 12.6527  -2
  -2   4  -9 320.992 12.6527   1
  -2   4  10 339.706 16.6183  -2
   2  -4   9 339.706 16.6183   1
  -2   4  10 360.607 14.3134  -2
   2  -4   9 360.607 14.3134   1
  -2   4  10 359.708 14.0964  -2
   2  -4   9 359.708 14.0964   1
   3  -4 -10 398.571 12.9636  -2
  -3   4  -9 398.571 12.9636   1
   3  -4 -10 376.110 17.0446  -2
  -3   4  -9 376.110 17.0446   1
   3  -4 -10 404.818 13.6903  -2
  -3   4  -9 404.818 13.6903   1
  -3   4  10 383.893 15.3225  -2
   3  -4   9 383.893 15.3225   1
  -3   4  10 377.267 17.6673  -2
   3  -4   9 377.267 17.6673   1
   4  -4 -10 7.83009 5.33058  -2
  -4   4  -9 7.83009 5.33058   1
   4  -4 -10 15.1787 3.02650  -2
  -4   4  -9 15.1787 3.02650   1
  -4   4  10 7.66523 4.67236  -2
   4  -4   9 7.66523 4.67236   1
  -4   4  10 10.8678 4.66538  -2
   4  -4   9 10.8678 4.66538   1
  -4   4  10 6.26154 3.30648  -2
   4  -4   9 6.26154 3.30648   1
   5  -4 -10 6.31154 6.63498  -2
  -5   4  -9 6.31154 6.63498   1
  -5   4  10 8.02180 4.56407  -2
   5  -4   9 8.02180 4.56407   1
  -5   4  10 7.13522 4.77891  -2
   5  -4   9 7.13522 4.77891   1
  -5   4  10 4.29069 4.76340  -2
   5  -4   9 4.29069 4.76340   1
  -5  -3 -10 491.027 20.1503  -2
   5   3  -9 491.027 20.1503   1
   5   3  10 439.222 18.1123  -2
  -5  -3   9 439.222 18.1123   1
  -4  -3 -10 477.425 20.0773  -2
   4   3  -9 477.425 20.0773   1
   4   3  10 480.309 11.2961  -2
  -4  -3   9 480.309 11.2961   1
   4   3  10 458.550 18.1610  -2
  -4  -3   9 458.550 18.1610   1
  -3  -3 -10 1407.78 38.1815  -2
   3   3  -9 1407.78 38.1815   1
   3   3  10 1288.02 29.0914  -2
  -3  -3   9 1288.02 29.0914   1
   3   3  10 1276.66 35.6401  -2
  -3  -3   9 1276.66 35.6401   1
   3   3  10 1271.15 27.8545  -2
  -3  -3   9 1271.15 27.8545   1
  -2  -3 -10 699.258 24.8590  -2
   2   3  -9 699.258 24.8590   1
   2   3  10 756.364 20.6542  -2
  -2  -3   9 756.364 20.6542   1
   2   3  10 754.495 20.0329  -2
  -2  -3   9 754.495 20.0329   1
   2   3  10 827.983 25.8306  -2
  -2  -3   9 827.983 25.8306   1
   2   3  10 789.580 22.4530  -2
  -2  -3   9 789.580 22.4530   1
  -1  -3 -10 509.744 16.6731  -2
   1   3  -9 509.744 16.6731   1
  -1  -3 -10 494.723 16.4726  -2
   1   3  -9 494.723 16.4726   1
   1   3  10 472.468 15.6690  -2
  -1  -3   9 472.468 15.6690   1
   1   3  10 483.094 16.0192  -2
  -1  -3   9 483.094 16.0192   1
   1   3  10 517.669 19.7144  -2
  -1  -3   9 517.669 19.7144   1
   1   3  10 492.948 17.0725  -2
  -1  -3   9 492.948 17.0725   1
   0  -3 -10 290.897 12.3958  -2
   0   3  -9 290.897 12.3958   1
   0  -3 -10 298.444 12.6705  -2
   0   3  -9 298.444 12.6705   1
   0  -3 -10 303.556 13.0403  -2
   0   3  -9 303.556 13.0403   1
   0   3  10 335.366 13.4078  -2
   0  -3   9 335.366 13.4078   1
   0   3  10 302.005 14.6256  -2
   0  -3   9 302.005 14.6256   1
   0   3  10 323.757 12.6630  -2
   0  -3   9 323.757 12.6630   1
   0   3  10 335.464 13.0782  -2
   0  -3   9 335.464 13.0782   1
   1  -3 -10 841.245 23.0643  -2
  -1   3  -9 841.245 23.0643   1
   1  -3 -10 849.338 25.3697  -2
  -1   3  -9 849.338 25.3697   1
   1  -3 -10 877.748 23.5023  -2
  -1   3  -9 877.748 23.5023   1
  -1   3  10 912.444 25.6061  -2
   1  -3   9 912.444 25.6061   1
  -1   3  10 885.452 28.6085  -2
   1  -3   9 885.452 28.6085   1
  -1   3  10 875.681 24.7907  -2
   1  -3   9 875.681 24.7907   1
  -1   3  10 878.584 24.7646  -2
   1  -3   9 878.584 24.7646   1
   2  -3 -10 549.266 17.0542  -2
  -2   3  -9 549.266 17.0542   1
   2  -3 -10 561.096 17.4872  -2
  -2   3  -9 561.096 17.4872   1
  -2   3  10 583.674 18.8658  -2
   2  -3   9 583.674 18.8658   1
  -2   3  10 548.606 21.6720  -2
   2  -3   9 548.606 21.6720   1
   3  -3 -10 217.894 9.68098  -2
  -3   3  -9 217.894 9.68098   1
   3  -3   9 194.943 11.3098   1
   3  -3   9 192.553 11.8092   1
   3  -3   9 194.297 10.0082   1
  -4   3  -9 0.92195 2.43379   1
  -4   3  -9 1.54807 1.24261   1
   4  -3   9 2.77577 2.13470   1
   4  -3   9 2.67292 2.53412   1
   4  -3   9 2.52237 1.79915   1
  -5   3  -9 106.427 10.0610   1
   5  -3   9 109.656 7.77856   1
   5  -3   9 102.328 9.17557   1
   5  -3   9 113.999 8.87229   1
  -6  -2 -10 210.588 12.6893  -2
   6   2  -9 210.588 12.6893   1
   6   2  10 218.215 12.3818  -2
  -6  -2   9 218.215 12.3818   1
  -5  -2 -10 461.303 18.8056  -2
   5   2  -9 461.303 18.8056   1
   5   2  10 446.899 18.2167  -2
  -5  -2   9 446.899 18.2167   1
  -4  -2 -10 288.210 14.8348  -2
   4   2  -9 288.210 14.8348   1
   4   2  10 302.510 8.68827  -2
  -4  -2   9 302.510 8.68827   1
   4   2  10 289.310 13.8410  -2
  -4  -2   9 289.310 13.8410   1
  -3  -2 -10 1308.27 35.7217  -2
   3   2  -9 1308.27 35.7217   1
   3   2  10 1168.99 33.4376  -2
  -3  -2   9 1168.99 33.4376   1
   3   2  10 1137.85 27.1113  -2
  -3  -2   9 1137.85 27.1113   1
   3   2  10 1158.15 26.3263  -2
  -3  -2   9 1158.15 26.3263   1
  -2  -2 -10 156.447 10.6850  -2
   2   2  -9 156.447 10.6850   1
   2   2  10 160.375 8.13366  -2
  -2  -2   9 160.375 8.13366   1
   1   2  -9 64.7166 5.62841   1
   1   2  -9 54.1982 5.52299   1
   1   2  10 85.7737 7.24452  -2
  -1  -2   9 85.7737 7.24452   1
   0   2  -9 65.3177 5.67923   1
   0   2  -9 72.8557 5.87653   1
   0   2  -9 66.8263 5.77903   1
   0  -2   9 67.1784 6.20877   1
   0  -2   9 68.4365 4.89580   1
   0  -2   9 69.6461 5.59043   1
   0  -2   9 70.1250 5.36069   1
   0  -2   9 65.7275 5.25173   1
  -1   2  -9 183.283 9.10423   1
  -1   2  -9 183.358 10.0420   1
  -1   2  -9 183.665 9.08681   1
   1  -2   9 185.901 8.89605   1
   1  -2   9 187.599 9.08392   1
   1  -2   9 182.525 10.6401   1
   1  -2   9 185.800 9.12654   1
  -2   2  -9 5.89027 2.79906   1
  -2   2  -9 11.7795 2.77192   1
  -2   2  -9 6.92186 2.36250   1
   2  -2   9 13.5356 3.06270   1
   2  -2   9 10.1497 2.97428   1
   2  -2   9 10.1631 2.55088   1
   2  -2   9 16.5120 3.77280   1
  -3   2  -9 34.2482 3.59669   1
  -3   2  -9 40.6250 5.48751   1
   3  -2   9 34.0503 4.96400   1
   3  -2   9 34.8388 4.19933   1
   3  -2   9 29.2989 4.49365   1
   4  -2  -9 609.188 14.6957  -2
  -4   2  -9 609.188 14.6957   1
   4  -2   9 249.930 12.7121   1
   4  -2   9 245.271 11.1008   1
   4  -2   9 245.285 13.4915   1
   5  -2  -9 266.473 15.2504  -2
  -5   2  -9 266.473 15.2504   1
  -5   2   9 271.459 14.1869  -2
   5  -2   9 271.459 14.1869   1
   6  -2  -9 683.679 25.9043  -2
  -6   2  -9 683.679 25.9043   1
  -6   2   9 659.066 23.6647  -2
   6  -2   9 659.066 23.6647   1
  -6   2   9 591.250 24.2319  -2
   6  -2   9 591.250 24.2319   1
  -6   2   9 670.294 21.1240  -2
   6  -2   9 670.294 21.1240   1
   6   1  -9 154.278 10.9432   1
  -6  -1   9 152.036 10.3754   1
   5   1  -9 145.748 10.4072   1
  -5  -1   9 142.121 9.77217   1
   4   1  -9 357.824 16.4783   1
  -4  -1   9 339.464 9.94842   1
  -4  -1   9 335.592 14.9300   1
   3   1  -9 432.867 18.0012   1
  -3  -1   9 414.807 12.2560   1
  -3  -1   9 420.367 16.7995   1
  -3  -1   9 427.597 13.0126   1
   2   1  -9 162.714 10.3646   1
   2   1  -9 172.681 9.12847   1
  -2  -1   9 166.703 8.09263   1
  -2  -1   9 165.934 7.63664   1
  -2  -1   9 150.126 9.58004   1
   1   1  -9 176.773 9.16775   1
   1   1  -9 175.448 9.21523   1
   1   1   9 325.363 12.4671  -2
  -1  -1   9 325.363 12.4671   1
   0   1  -9 4.88747 2.12404   1
   0   1  -9 4.89238 2.00591   1
   0   1  -9 4.12533 1.98631   1
   0   1   9 326.063 12.8360  -2
   0  -1   9 326.063 12.8360   1
   1  -1  -9 252.052 9.95294  -2
  -1   1  -9 252.052 9.95294   1
   1  -1  -9 244.323 11.0930  -2
  -1   1  -9 244.323 11.0930   1
   1  -1  -9 245.416 9.77713  -2
  -1   1  -9 245.416 9.77713   1
  -1   1   9 216.010 12.3336  -2
   1  -1   9 216.010 12.3336   1
  -1   1   9 239.935 10.8855  -2
   1  -1   9 239.935 10.8855   1
  -1   1   9 262.734 12.9616  -2
   1  -1   9 262.734 12.9616   1
  -1   1   9 258.274 11.1675  -2
   1  -1   9 258.274 11.1675   1
  -1   1   9 237.428 10.8103  -2
   1  -1   9 237.428 10.8103   1
   2  -1  -9 274.918 10.4964  -2
  -2   1  -9 274.918 10.4964   1
   2  -1  -9 275.888 12.9146  -2
  -2   1  -9 275.888 12.9146   1
  -2   1   9 283.365 14.2367  -2
   2  -1   9 283.365 14.2367   1
  -2   1   9 249.062 11.2800  -2
   2  -1   9 249.062 11.2800   1
  -2   1   9 301.847 13.7499  -2
   2  -1   9 301.847 13.7499   1
   3  -1  -9 24.1266 2.83746  -2
  -3   1  -9 24.1266 2.83746   1
   3  -1  -9 22.7384 4.67384  -2
  -3   1  -9 22.7384 4.67384   1
  -3   1   9 30.7286 5.23624  -2
   3  -1   9 30.7286 5.23624   1
  -3   1   9 25.9366 3.91199  -2
   3  -1   9 25.9366 3.91199   1
  -3   1   9 18.8712 4.35725  -2
   3  -1   9 18.8712 4.35725   1
   4  -1  -9 139.271 9.42712  -2
  -4   1  -9 139.271 9.42712   1
  -4   1   9 152.241 9.58988  -2
   4  -1   9 152.241 9.58988   1
  -4   1   9 145.865 10.1545  -2
   4  -1   9 145.865 10.1545   1
  -4   1   9 145.897 8.01609  -2
   4  -1   9 145.897 8.01609   1
   5  -1  -9 160.614 11.0085  -2
  -5   1  -9 160.614 11.0085   1
  -5   1   9 152.418 10.8106  -2
   5  -1   9 152.418 10.8106   1
  -5   1   9 165.196 8.64039  -2
   5  -1   9 165.196 8.64039   1
  -5   1   9 162.302 10.1736  -2
   5  -1   9 162.302 10.1736   1
   6  -1  -9 24.6486 6.47752  -2
  -6   1  -9 24.6486 6.47752   1
  -6   1   9 27.1976 4.60419  -2
   6  -1   9 27.1976 4.60419   1
  -6   1   9 25.4990 5.27108  -2
   6  -1   9 25.4990 5.27108   1
  -6   1   9 19.8506 5.70840  -2
   6  -1   9 19.8506 5.70840   1
   6   0  -9 13.6413 4.13325   1
  -6   0   9 8.95522 3.24238   1
   5   0  -9 140.543 10.0213   1
  -5   0   9 138.107 9.51436   1
  -4   0  -9 138.165 10.1021  -2
   4   0  -9 138.165 10.1021   1
   4   0   9 122.159 5.73070  -2
  -4   0   9 122.159 5.73070   1
  -3   0  -9 108.393 8.42796  -2
   3   0  -9 108.393 8.42796   1
   3   0   9 92.3488 5.72133  -2
  -3   0   9 92.3488 5.72133   1
   3   0   9 96.6062 5.44117  -2
  -3   0   9 96.6062 5.44117   1
   3   0   9 96.0909 7.68409  -2
  -3   0   9 96.0909 7.68409   1
  -2   0  -9 617.253 21.1917  -2
   2   0  -9 617.253 21.1917   1
  -2   0  -9 574.874 18.0397  -2
   2   0  -9 574.874 18.0397   1
  -2   0  -9 567.252 17.9260  -2
   2   0  -9 567.252 17.9260   1
   2   0   9 581.635 16.9616  -2
  -2   0   9 581.635 16.9616   1
   2   0   9 533.884 16.2419  -2
  -2   0   9 533.884 16.2419   1
   2   0   9 534.687 19.6773  -2
  -2   0   9 534.687 19.6773   1
  -1   0  -9 428.688 14.7329  -2
   1   0  -9 428.688 14.7329   1
  -1   0  -9 432.080 14.7990  -2
   1   0  -9 432.080 14.7990   1
   1   0   9 510.583 15.0543  -2
  -1   0   9 510.583 15.0543   1
   1   0   9 463.859 15.0045  -2
  -1   0   9 463.859 15.0045   1
   1   0   9 462.374 17.8677  -2
  -1   0   9 462.374 17.8677   1
   1   0   9 485.379 15.4449  -2
  -1   0   9 485.379 15.4449   1
   0   0  -9 1621.35 38.0000  -2
   0   0  -9 1621.35 38.0000   1
   0   0  -9 1581.03 36.6196  -2
   0   0  -9 1581.03 36.6196   1
   0   0  -9 1553.26 36.3101  -2
   0   0  -9 1553.26 36.3101   1
   0   0   9 1601.55 37.3943  -2
   0   0   9 1601.55 37.3943   1
   0   0   9 1771.54 40.1518  -2
   0   0   9 1771.54 40.1518   1
   0   0   9 1727.05 43.1567  -2
   0   0   9 1727.05 43.1567   1
   0   0   9 1695.43 38.0249  -2
   0   0   9 1695.43 38.0249   1
   0   0   9 1699.85 39.1311  -2
   0   0   9 1699.85 39.1311   1
   1   0  -9 337.518 11.7544  -2
  -1   0  -9 337.518 11.7544   1
   1   0  -9 370.874 13.4394  -2
  -1   0  -9 370.874 13.4394   1
  -1   0   9 368.115 13.5758  -2
   1   0   9 368.115 13.5758   1
  -1   0   9 353.389 13.1547  -2
   1   0   9 353.389 13.1547   1
  -1   0   9 361.240 15.2098  -2
   1   0   9 361.240 15.2098   1
  -1   0   9 351.282 13.3396  -2
   1   0   9 351.282 13.3396   1
  -1   0   9 322.201 14.9963  -2
   1   0   9 322.201 14.9963   1
   2   0  -9 409.442 12.5520  -2
  -2   0  -9 409.442 12.5520   1
   2   0  -9 455.534 15.8369  -2
  -2   0  -9 455.534 15.8369   1
  -2   0   9 377.905 17.1737  -2
   2   0   9 377.905 17.1737   1
  -2   0   9 390.165 14.8421  -2
   2   0   9 390.165 14.8421   1
  -2   0   9 460.591 17.6408  -2
   2   0   9 460.591 17.6408   1
   3   0  -9 178.706 10.6936  -2
  -3   0  -9 178.706 10.6936   1
   3   0  -9 160.333 6.79863  -2
  -3   0  -9 160.333 6.79863   1
  -3   0   9 176.612 10.4601  -2
   3   0   9 176.612 10.4601   1
  -3   0   9 165.067 8.71502  -2
   3   0   9 165.067 8.71502   1
  -3   0   9 144.368 10.1995  -2
   3   0   9 144.368 10.1995   1
  -4   0  -9 211.100 12.2767   1
   4   0   9 206.773 9.45117   1
   4   0   9 194.380 10.6271   1
   4   0   9 215.444 12.1305   1
  -5   0  -9 147.400 10.8765   1
   5   0   9 157.286 10.7165   1
   5   0   9 148.228 7.84714   1
   5   0   9 132.459 8.88446   1
  -6   0  -9 44.6837 7.01106   1
   6   0   9 59.4838 6.08949   1
   6   0   9 50.2960 6.75413   1
   6   0   9 60.6531 5.06860   1
  -6   1  -9 12.4234 5.11363  -2
   6  -1  -9 12.4234 5.11363   1
   6  -1   9 11.4924 3.91270  -2
  -6   1   9 11.4924 3.91270   1
  -5   1  -9 154.289 10.5085  -2
   5  -1  -9 154.289 10.5085   1
   5  -1   9 134.053 9.46774  -2
  -5   1   9 134.053 9.46774   1
  -4   1  -9 152.446 10.1267  -2
   4  -1  -9 152.446 10.1267   1
   4  -1   9 152.963 6.56534  -2
  -4   1   9 152.963 6.56534   1
   4  -1   9 129.893 9.03859  -2
  -4   1   9 129.893 9.03859   1
   4  -1   9 149.801 5.81859  -2
  -4   1   9 149.801 5.81859   1
  -3   1  -9 27.3063 4.50053  -2
   3  -1  -9 27.3063 4.50053   1
   3  -1   9 25.6279 3.37084  -2
  -3   1   9 25.6279 3.37084   1
   3  -1   9 23.7375 2.92328  -2
  -3   1   9 23.7375 2.92328   1
   3  -1   9 21.2410 4.11663  -2
  -3   1   9 21.2410 4.11663   1
  -2   1  -9 179.869 8.84279  -2
   2  -1  -9 179.869 8.84279   1
   2  -1   9 160.480 7.97384  -2
  -2   1   9 160.480 7.97384   1
   2  -1   9 157.492 8.09785  -2
  -2   1   9 157.492 8.09785   1
   2  -1   9 154.928 9.88681  -2
  -2   1   9 154.928 9.88681   1
  -1   1  -9 283.835 11.4420  -2
   1  -1  -9 283.835 11.4420   1
   1  -1   9 289.805 11.3611  -2
  -1   1   9 289.805 11.3611   1
   1  -1   9 289.190 11.4823  -2
  -1   1   9 289.190 11.4823   1
   1  -1   9 321.289 11.2997  -2
  -1   1   9 321.289 11.2997   1
   1  -1   9 294.463 13.6293  -2
  -1   1   9 294.463 13.6293   1
   0   1  -9 495.492 15.9367  -2
   0  -1  -9 495.492 15.9367   1
   0  -1   9 552.487 16.8075  -2
   0   1   9 552.487 16.8075   1
  -1  -1  -9 239.625 9.92124   1
  -1  -1  -9 241.793 10.8963   1
  -1  -1  -9 243.303 10.0335   1
   1   1   9 248.767 10.1823   1
   1   1   9 255.255 11.4884   1
   1   1   9 238.155 11.7085   1
   1   1   9 252.205 10.1778   1
  -2  -1  -9 91.5967 7.02124   1
  -2  -1  -9 87.7268 5.27678   1
   2   1   9 94.1491 6.91148   1
   2   1   9 85.3202 7.03377   1
   2   1   9 80.8403 5.78259   1
  -3  -1  -9 92.6754 4.52442   1
  -3  -1  -9 101.111 7.81826   1
   3   1   9 109.387 7.51445   1
   3   1   9 97.5719 7.76311   1
   3   1   9 99.1726 6.27896   1
  -4  -1  -9 36.9094 5.39788   1
   4   1   9 43.6851 4.97095   1
   4   1   9 45.5013 5.48944   1
   4   1   9 47.6827 4.45253   1
  -5  -1  -9 47.4501 6.40822   1
   5   1   9 57.6768 6.59911   1
   5   1   9 51.1343 5.43446   1
   5   1   9 55.5739 4.68110   1
  -6  -1  -9 7.48083 3.53461   1
   6   1   9 1.28535 2.31231   1
   6   1   9 4.74571 2.24393   1
  -6   2  -9 691.583 25.2176  -2
   6  -2  -9 691.583 25.2176   1
   6  -2   9 589.962 22.5924  -2
  -6   2   9 589.962 22.5924   1
  -5   2  -9 235.495 13.5341  -2
   5  -2  -9 235.495 13.5341   1
   5  -2   9 208.464 7.19617  -2
  -5   2   9 208.464 7.19617   1
   5  -2   9 215.898 12.3329  -2
  -5   2   9 215.898 12.3329   1
   4  -2  -9 538.167 20.4834   1
  -4   2   9 513.658 13.6903   1
  -4   2   9 519.484 14.6029   1
  -4   2   9 507.259 19.2344   1
   3  -2  -9 271.448 13.4866   1
  -3   2   9 241.242 12.0422   1
  -3   2   9 261.905 9.68701   1
  -3   2   9 270.284 10.1127   1
   2  -2  -9 271.473 11.6233   1
  -2   2   9 248.287 10.1094   1
  -2   2   9 248.333 12.1041   1
  -2   2   9 260.501 10.2017   1
   1  -2  -9 237.563 10.5922   1
   1  -2  -9 226.835 10.4364   1
  -1   2   9 257.104 9.61160   1
  -1   2   9 221.488 11.2261   1
  -1   2   9 230.591 9.78670   1
  -1   2   9 235.159 9.95139   1
   0  -2  -9 193.430 8.92205   1
   0  -2  -9 192.492 9.05050   1
   0  -2  -9 184.867 8.83976   1
   0   2   9 208.204 8.96242   1
   0   2   9 196.491 10.2880   1
   0   2   9 197.411 10.2493   1
   0   2   9 206.703 9.07167   1
   0   2   9 192.064 8.95549   1
  -1  -2  -9 211.323 9.96307   1
  -1  -2  -9 196.954 8.75158   1
   1   2   9 220.643 10.8280   1
   1   2   9 218.235 10.8797   1
   1   2   9 199.418 8.97664   1
   1   2   9 213.253 9.22893   1
   2   2  -8 676.576 16.9097  -2
  -2  -2  -9 676.576 16.9097   1
   2   2   9 403.274 13.7327   1
   2   2   9 385.225 14.8776   1
   2   2   9 364.324 15.1936   1
   3   2  -8 83.6101 3.69927  -2
  -3  -2  -9 83.6101 3.69927   1
   3   2  -8 88.2946 7.40382  -2
  -3  -2  -9 88.2946 7.40382   1
  -3  -2   8 82.5387 6.07846  -2
   3   2   9 82.5387 6.07846   1
  -3  -2   8 106.487 7.75276  -2
   3   2   9 106.487 7.75276   1
   4   2  -8 819.704 26.1636  -2
  -4  -2  -9 819.704 26.1636   1
  -4  -2   8 883.401 27.2047  -2
   4   2   9 883.401 27.2047   1
  -4  -2   8 891.738 26.8439  -2
   4   2   9 891.738 26.8439   1
  -4  -2   8 884.412 23.4268  -2
   4   2   9 884.412 23.4268   1
   5   2  -8 38.5633 5.78093  -2
  -5  -2  -9 38.5633 5.78093   1
  -5  -2   8 61.2735 6.82238  -2
   5   2   9 61.2735 6.82238   1
  -5  -2   8 67.3859 4.96198  -2
   5   2   9 67.3859 4.96198   1
  -5  -2   8 57.0116 6.07741  -2
   5   2   9 57.0116 6.07741   1
   6   2  -8 61.2265 7.19549  -2
  -6  -2  -9 61.2265 7.19549   1
  -6  -2   8 81.0334 6.97449  -2
   6   2   9 81.0334 6.97449   1
  -6  -2   8 69.1102 7.39585  -2
   6   2   9 69.1102 7.39585   1
   6  -3  -9 157.024 11.2646   1
  -6   3   9 144.140 10.3037   1
   5  -3  -9 116.385 9.20521   1
  -5   3   9 120.326 8.83932   1
  -5   3   9 109.137 5.25895   1
   4  -3  -9 233.298 12.9042   1
   4  -3   8 335.623 11.4266  -2
  -4   3   9 335.623 11.4266   1
  -3   3   9 385.195 12.5747   1
  -3   3   9 368.976 15.2205   1
  -3   3   9 373.681 12.7266   1
  -2   3  -8 658.487 19.6383  -2
   2  -3  -9 658.487 19.6383   1
   2  -3   8 739.628 20.1110  -2
  -2   3   9 739.628 20.1110   1
   2  -3   8 732.395 22.7427  -2
  -2   3   9 732.395 22.7427   1
  -1   3  -8 202.819 9.66494  -2
   1  -3  -9 202.819 9.66494   1
   1  -3   8 218.263 11.1988  -2
  -1   3   9 218.263 11.1988   1
   1  -3   8 218.313 9.94361  -2
  -1   3   9 218.313 9.94361   1
   1  -3   8 231.725 9.54893  -2
  -1   3   9 231.725 9.54893   1
   1  -3   8 225.805 9.93046  -2
  -1   3   9 225.805 9.93046   1
   0   3  -8 190.249 8.36466  -2
   0  -3  -9 190.249 8.36466   1
   0   3  -8 175.530 8.38916  -2
   0  -3  -9 175.530 8.38916   1
   0  -3   8 156.216 8.42760  -2
   0   3   9 156.216 8.42760   1
   0  -3   8 164.243 9.71053  -2
   0   3   9 164.243 9.71053   1
   0  -3   8 161.161 9.72651  -2
   0   3   9 161.161 9.72651   1
   0  -3   8 168.098 8.59507  -2
   0   3   9 168.098 8.59507   1
   0  -3   8 169.961 8.66630  -2
   0   3   9 169.961 8.66630   1
   1   3  -8 99.7784 5.39495  -2
  -1  -3  -9 99.7784 5.39495   1
   1   3  -8 97.4386 5.55922  -2
  -1  -3  -9 97.4386 5.55922   1
   1   3  -8 111.515 7.12918  -2
  -1  -3  -9 111.515 7.12918   1
  -1  -3   8 110.129 7.88474  -2
   1   3   9 110.129 7.88474   1
  -1  -3   8 84.6974 6.12520  -2
   1   3   9 84.6974 6.12520   1
  -1  -3   8 109.552 7.71994  -2
   1   3   9 109.552 7.71994   1
   2   3  -8 67.6324 4.11921  -2
  -2  -3  -9 67.6324 4.11921   1
   2   3  -8 75.1518 6.19271  -2
  -2  -3  -9 75.1518 6.19271   1
   2   3  -8 70.8389 3.63803  -2
  -2  -3  -9 70.8389 3.63803   1
  -2  -3   8 72.6220 6.45238  -2
   2   3   9 72.6220 6.45238   1
  -2  -3   8 52.7090 5.60426  -2
   2   3   9 52.7090 5.60426   1
  -2  -3   8 62.7827 5.15021  -2
   2   3   9 62.7827 5.15021   1
   3   3  -8 228.839 12.0148  -2
  -3  -3  -9 228.839 12.0148   1
  -3  -3   8 238.158 12.4058  -2
   3   3   9 238.158 12.4058   1
  -3  -3   8 242.508 11.9720  -2
   3   3   9 242.508 11.9720   1
  -3  -3   8 239.340 10.2030  -2
   3   3   9 239.340 10.2030   1
   4   3  -8 145.922 10.0879  -2
  -4  -3  -9 145.922 10.0879   1
  -4  -3   8 150.506 7.86629  -2
   4   3   9 150.506 7.86629   1
  -4  -3   8 145.119 9.76796  -2
   4   3   9 145.119 9.76796   1
  -4  -3   8 147.399 9.17434  -2
   4   3   9 147.399 9.17434   1
   5   3  -8 93.6636 9.08389  -2
  -5  -3  -9 93.6636 9.08389   1
  -5  -3   8 87.2605 7.50213  -2
   5   3   9 87.2605 7.50213   1
  -6  -3  -9 370.912 18.2385   1
   6   3   9 383.612 17.2374   1
   6   3   9 393.323 15.4417   1
  -5   4  -8 49.6439 7.75178  -2
   5  -4  -9 49.6439 7.75178   1
   5  -4   8 59.8638 3.65655  -2
  -5   4   9 59.8638 3.65655   1
   5  -4   8 50.3513 6.31577  -2
  -5   4   9 50.3513 6.31577   1
   5  -4   8 42.3926 3.83061  -2
  -5   4   9 42.3926 3.83061   1
   4  -4   8 197.573 8.15181  -2
  -4   4   9 197.573 8.15181   1
   4  -4   8 213.909 11.4437  -2
  -4   4   9 213.909 11.4437   1
   4  -4   8 200.399 8.81155  -2
  -4   4   9 200.399 8.81155   1
   3  -4   8 30.8942 3.62447  -2
  -3   4   9 30.8942 3.62447   1
   3  -4   8 35.5284 4.85920  -2
  -3   4   9 35.5284 4.85920   1
   3  -4   8 39.1343 4.03966  -2
  -3   4   9 39.1343 4.03966   1
  -2   4  -8 1108.78 27.8408  -2
   2  -4  -9 1108.78 27.8408   1
   2  -4   8 1021.42 29.1637  -2
  -2   4   9 1021.42 29.1637   1
   2  -4   8 1083.33 27.0853  -2
  -2   4   9 1083.33 27.0853   1
   2  -4   8 1063.75 26.9205  -2
  -2   4   9 1063.75 26.9205   1
  -1   4  -8 4.51302 2.79258  -2
   1  -4  -9 4.51302 2.79258   1
   1  -4   8 1.60123 2.84271  -2
  -1   4   9 1.60123 2.84271   1
   1  -4   8 2.37836 2.39245  -2
  -1   4   9 2.37836 2.39245   1
   1  -4   8 5.20455 2.97215  -2
  -1   4   9 5.20455 2.97215   1
   1  -4   8 2.97203 2.50998  -2
  -1   4   9 2.97203 2.50998   1
   0   4  -8 211.814 9.89084  -2
   0  -4  -9 211.814 9.89084   1
   0   4  -8 207.271 9.21017  -2
   0  -4  -9 207.271 9.21017   1
   0   4  -8 200.950 8.96845  -2
   0  -4  -9 200.950 8.96845   1
   0  -4   8 211.610 9.59984  -2
   0   4   9 211.610 9.59984   1
   0  -4   8 228.368 10.0930  -2
   0   4   9 228.368 10.0930   1
   0  -4   8 205.148 9.76932  -2
   0   4   9 205.148 9.76932   1
   0  -4   8 233.971 10.1703  -2
   0   4   9 233.971 10.1703   1
   0  -4   8 213.561 10.7350  -2
   0   4   9 213.561 10.7350   1
   0  -4   8 203.620 11.0318  -2
   0   4   9 203.620 11.0318   1
   1   4  -8 157.907 6.99163  -2
  -1  -4  -9 157.907 6.99163   1
   1   4  -8 155.729 7.30610  -2
  -1  -4  -9 155.729 7.30610   1
  -1  -4   8 152.532 8.77897  -2
   1   4   9 152.532 8.77897   1
  -1  -4   8 169.934 10.0102  -2
   1   4   9 169.934 10.0102   1
  -2  -4  -9 294.972 9.16520   1
  -2  -4  -9 292.692 13.1908   1
   2   4   9 291.202 11.3146   1
   2   4   9 297.666 12.9792   1
   2   4   9 292.986 12.5709   1
  -3  -4  -9 2.92186 2.37977   1
   3   4   9 6.05134 2.21255   1
   3   4   9 3.68095 1.70624   1
   3   4   9 4.44742 2.21077   1
  -4  -4  -9 116.198 9.08065   1
   4   4   9 117.350 6.55664   1
   4   4   9 115.578 8.18288   1
   4   4   9 101.907 7.50129   1
  -5  -4  -9 19.7986 4.71837   1
   5   4   9 16.3823 3.78815   1
   5   4   9 19.9988 3.48027   1
  -6  -4  -9 4.76122 3.20593   1
   6   4   9 2.70509 1.74507   1
   5  -5   8 18.6168 3.35452  -2
  -5   5   9 18.6168 3.35452   1
   5  -5   8 20.4705 2.84719  -2
  -5   5   9 20.4705 2.84719   1
   5  -5   8 20.9265 5.26842  -2
  -5   5   9 20.9265 5.26842   1
   4  -5   8 6.42492 3.50624  -2
  -4   5   9 6.42492 3.50624   1
   4  -5   8 6.43406 2.83167  -2
  -4   5   9 6.43406 2.83167   1
   4  -5   8 4.81775 4.01934  -2
  -4   5   9 4.81775 4.01934   1
   3  -5  -9 244.738 11.5314   1
   3  -5   8 271.663 11.3277  -2
  -3   5   9 271.663 11.3277   1
   3  -5   8 283.967 13.1260  -2
  -3   5   9 283.967 13.1260   1
   3  -5   8 266.563 10.9649  -2
  -3   5   9 266.563 10.9649   1
   2  -5  -9 115.056 7.55876   1
   2  -5  -9 126.387 7.37593   1
   2  -5  -9 125.204 7.83306   1
   2  -5   8 166.761 8.97979  -2
  -2   5   9 166.761 8.97979   1
   1  -5  -9 117.988 7.27307   1
   1  -5  -9 138.597 7.80915   1
  -1   5   9 127.812 7.93054   1
  -1   5   9 136.194 7.62398   1
  -1   5   9 130.631 7.11196   1
  -1   5   9 124.344 7.43051   1
   0  -5  -9 398.627 13.4067   1
   0  -5  -9 413.522 13.8559   1
   0   5   9 435.034 14.7048   1
   0   5   9 414.375 14.3952   1
   0   5   9 429.594 14.4662   1
   0   5   9 409.858 16.3254   1
   0   5   9 423.742 15.4581   1
  -1  -5  -9 82.4533 4.80641   1
  -1  -5  -9 81.9554 6.42405   1
  -1  -5  -9 83.7669 5.10325   1
   1   5   9 74.9562 5.90798   1
   1   5   9 73.6254 5.45114   1
   1   5   9 75.0317 6.49292   1
   1   5   9 67.2325 5.67203   1
  -2  -5  -9 195.759 6.86916   1
  -2  -5  -9 186.585 10.5373   1
   2   5   9 209.120 10.0212   1
   2   5   9 186.599 10.1219   1
   2   5   9 192.634 10.3011   1
   2   5   9 187.550 8.76541   1
  -3  -5  -9 268.748 13.3304   1
   3   5   9 282.485 10.9657   1
   3   5   9 289.061 12.4004   1
   3   5   9 283.912 12.7872   1
   3   5   9 292.881 13.6705   1
   4   5  -7 360.031 16.5867  -2
  -4  -5  -9 360.031 16.5867   1
   4   5   9 223.407 9.52176   1
   4   5   9 229.610 11.2969   1
   5   5  -7 21.1221 6.04845  -2
  -5  -5  -9 21.1221 6.04845   1
  -5  -5   7 19.7948 4.06847  -2
   5   5   9 19.7948 4.06847   1
   6   5  -7 100.822 9.68077  -2
  -6  -5  -9 100.822 9.68077   1
  -6  -5   7 89.6882 7.13007  -2
   6   5   9 89.6882 7.13007   1
  -5   6   9 80.1611 7.25940   1
  -5   6   9 79.1288 5.33387   1
  -5   6   9 83.5277 4.89137   1
  -4   6   9 201.004 9.50650   1
  -4   6   9 208.099 11.0907   1
  -4   6   9 188.343 8.56683   1
  -3   6  -7 14.7665 5.18500  -2
   3  -6  -9 14.7665 5.18500   1
  -3   6   9 3.94665 1.94572   1
  -3   6   9 5.75153 2.19543   1
  -3   6   9 6.58557 2.17853   1
   2  -6  -9 205.682 9.59739   1
   2  -6  -9 194.662 10.1401   1
   2  -6  -9 206.430 10.3484   1
  -2   6   9 197.822 9.53948   1
  -2   6   9 203.529 9.61432   1
  -2   6   9 202.983 10.2769   1
  -1   6  -7 45.3371 5.31652  -2
   1  -6  -9 45.3371 5.31652   1
   1  -6   7 58.0994 5.82139  -2
  -1   6   9 58.0994 5.82139   1
   0   6  -7 111.345 6.58347  -2
   0  -6  -9 111.345 6.58347   1
   0   6  -7 121.014 6.91599  -2
   0  -6  -9 121.014 6.91599   1
   0  -6   7 126.060 7.72396  -2
   0   6   9 126.060 7.72396   1
   0  -6   7 130.287 7.96386  -2
   0   6   9 130.287 7.96386   1
   0  -6   7 134.940 8.23040  -2
   0   6   9 134.940 8.23040   1
   1   6  -7 299.372 9.53511  -2
  -1  -6  -9 299.372 9.53511   1
   1   6  -7 295.805 10.0488  -2
  -1  -6  -9 295.805 10.0488   1
  -1  -6   7 301.334 13.2549  -2
   1   6   9 301.334 13.2549   1
  -1  -6   7 340.190 14.4860  -2
   1   6   9 340.190 14.4860   1
  -1  -6   7 299.624 12.6293  -2
   1   6   9 299.624 12.6293   1
   2   6  -7 131.115 9.02489  -2
  -2  -6  -9 131.115 9.02489   1
   2   6  -7 135.780 5.13087  -2
  -2  -6  -9 135.780 5.13087   1
  -2  -6   7 126.356 8.76007  -2
   2   6   9 126.356 8.76007   1
  -2  -6   7 122.431 7.75481  -2
   2   6   9 122.431 7.75481   1
  -2  -6   7 130.757 8.97725  -2
   2   6   9 130.757 8.97725   1
   3   6  -7 66.0406 6.66970  -2
  -3  -6  -9 66.0406 6.66970   1
  -3  -6   7 75.8740 5.78907  -2
   3   6   9 75.8740 5.78907   1
  -3  -6   7 66.2158 6.26690  -2
   3   6   9 66.2158 6.26690   1
  -3  -6   7 74.0716 7.08411  -2
   3   6   9 74.0716 7.08411   1
   4   6  -7 4.71175 4.10425  -2
  -4  -6  -9 4.71175 4.10425   1
  -4  -6   7 6.59693 2.92622  -2
   4   6   9 6.59693 2.92622   1
  -4  -6   7 5.69077 2.57385  -2
   4   6   9 5.69077 2.57385   1
  -4  -6   7 3.45945 3.36129  -2
   4   6   9 3.45945 3.36129   1
   5   6  -7 12.0513 5.63148  -2
  -5  -6  -9 12.0513 5.63148   1
  -5  -6   7 13.4532 3.78692  -2
   5   6   9 13.4532 3.78692   1
  -4   7  -7 131.550 8.96067  -2
   4  -7  -9 131.550 8.96067   1
   4  -7   7 119.842 7.27345  -2
  -4   7   9 119.842 7.27345   1
   4  -7   7 129.623 8.36495  -2
  -4   7   9 129.623 8.36495   1
   4  -7   7 125.541 8.92218  -2
  -4   7   9 125.541 8.92218   1
  -3   7  -7 367.447 14.8977  -2
   3  -7  -9 367.447 14.8977   1
  -3   7  -7 367.744 14.3836  -2
   3  -7  -9 367.744 14.3836   1
  -3   7  -7 375.126 14.9278  -2
   3  -7  -9 375.126 14.9278   1
   3  -7   7 386.958 14.3848  -2
  -3   7   9 386.958 14.3848   1
   3  -7   7 362.587 13.7539  -2
  -3   7   9 362.587 13.7539   1
  -2   7  -7 573.431 18.4219  -2
   2  -7  -9 573.431 18.4219   1
  -2   7  -7 536.446 18.1252  -2
   2  -7  -9 536.446 18.1252   1
   2  -7   7 596.178 18.6477  -2
  -2   7   9 596.178 18.6477   1
   2  -7   7 573.765 18.4007  -2
  -2   7   9 573.765 18.4007   1
  -1   7  -7 8.15944 2.69821  -2
   1  -7  -9 8.15944 2.69821   1
  -1   7  -7 7.41154 2.56476  -2
   1  -7  -9 7.41154 2.56476   1
   1  -7   7 7.77512 2.51547  -2
  -1   7   9 7.77512 2.51547   1
   1  -7   7 10.4215 3.28667  -2
  -1   7   9 10.4215 3.28667   1
   0   7  -7 33.3068 4.14436  -2
   0  -7  -9 33.3068 4.14436   1
   0   7  -7 37.2724 3.85562  -2
   0  -7  -9 37.2724 3.85562   1
   0  -7   7 33.0993 4.30059  -2
   0   7   9 33.0993 4.30059   1
   0  -7   7 36.9854 4.49585  -2
   0   7   9 36.9854 4.49585   1
   1   7  -7 376.868 11.6432  -2
  -1  -7  -9 376.868 11.6432   1
   1   7  -7 346.873 10.6453  -2
  -1  -7  -9 346.873 10.6453   1
  -1  -7   7 361.778 15.7550  -2
   1   7   9 361.778 15.7550   1
  -1  -7   7 358.028 14.2158  -2
   1   7   9 358.028 14.2158   1
  -1  -7   7 369.561 15.4488  -2
   1   7   9 369.561 15.4488   1
  -2  -7   7 248.067 11.4618  -2
   2   7   9 248.067 11.4618   1
  -2  -7   7 260.128 13.1692  -2
   2   7   9 260.128 13.1692   1
  -2  -7   7 253.571 12.9555  -2
   2   7   9 253.571 12.9555   1
  -3  -7  -9 101.917 8.56934   1
   3   7   9 102.893 6.48240   1
   3   7   9 97.2926 7.99790   1
   3   7   9 89.6337 7.25976   1
  -4  -7  -9 208.807 12.7805   1
   4   7   9 237.149 13.1755   1
   4   7   9 218.378 11.4768   1
   4   7   9 232.735 9.84299   1
  -5  -7  -9 121.172 10.4257   1
   5   7   9 111.940 7.97465   1
  -3   8  -7 39.6929 6.06273  -2
   3  -8  -9 39.6929 6.06273   1
  -3   8  -7 34.6561 5.81792  -2
   3  -8  -9 34.6561 5.81792   1
   3  -8   7 28.5007 5.18681  -2
  -3   8   9 28.5007 5.18681   1
   3  -8   7 28.7977 5.49194  -2
  -3   8   9 28.7977 5.49194   1
  -2   8  -7 9.98634 4.31613  -2
   2  -8  -9 9.98634 4.31613   1
  -2   8  -7 9.86867 4.71971  -2
   2  -8  -9 9.86867 4.71971   1
   2  -8   7 9.28354 4.15913  -2
  -2   8   9 9.28354 4.15913   1
   2  -8   7 10.4262 4.62726  -2
  -2   8   9 10.4262 4.62726   1
   1  -8  -9 1.86014 2.09516   1
   1  -8  -9 0.74851 1.61348   1
  -1   8   9 1.49658 1.71431   1
   0   8  -7 377.846 13.5375  -2
   0  -8  -9 377.846 13.5375   1
   0   8   9 238.397 11.0358   1
   0   8   9 255.541 12.0671   1
  -1  -8  -9 48.2893 3.34770   1
  -1  -8  -9 45.0494 3.92659   1
   1   8   9 56.3802 5.98418   1
   1   8   9 50.6310 5.65970   1
   1   8   9 46.4839 4.83168   1
   2   8   9 326.476 14.7485   1
   2   8   9 319.420 13.0464   1
   2   8   9 326.225 15.0349   1
   3   8   9 76.2436 7.26254   1
   3   8   9 74.8025 6.72808   1
   3   8   9 79.7832 6.02193   1
   4   8   9 767.278 21.9694   1
   4   8   9 742.765 26.5383   1
   4   8   9 728.555 24.2319   1
   2  -9  -9 162.538 9.65586   1
   2  -9  -9 158.258 9.22789   1
  -2   9   9 167.774 9.55791   1
  -2   9   9 170.261 9.86548   1
  -1   9  -6 355.638 13.7024  -2
   1  -9  -9 355.638 13.7024   1
  -1   9   9 43.8651 5.18060   1
   0  -9  -9 491.837 15.7664   1
   0  -9  -9 503.903 15.3229   1
   0   9   9 523.526 19.4335   1
   1   9  -6 449.088 12.9732  -2
  -1  -9  -9 449.088 12.9732   1
   1   9   9 96.9320 7.94781   1
   1   9   9 89.2039 6.85636   1
   1   9   9 102.926 8.15750   1
   2   9  -6 83.8204 5.64745  -2
  -2  -9  -9 83.8204 5.64745   1
  -2  -9   6 82.5185 7.14024  -2
   2   9   9 82.5185 7.14024   1
  -2  -9   6 91.9051 8.39744  -2
   2   9   9 91.9051 8.39744   1
  -2  -9   6 82.2437 8.37592  -2
   2   9   9 82.2437 8.37592   1
  -3  -9   6 245.396 14.1944  -2
   3   9   9 245.396 14.1944   1
  -3  -9   6 225.212 12.4976  -2
   3   9   9 225.212 12.4976   1
  -3  -9   6 194.892 10.8530  -2
   3   9   9 194.892 10.8530   1
   0  10  -6 143.573 7.58881  -2
   0 -10  -9 143.573 7.58881   1
   0  10  -6 144.242 6.95334  -2
   0 -10  -9 144.242 6.95334   1
   1  10  -6 30.1614 3.07956  -2
  -1 -10  -9 30.1614 3.07956   1
  -1 -10   6 34.7562 5.36461  -2
   1  10   9 34.7562 5.36461   1
  -2  -6  10 5.66706 2.70237   1
  -2  -6  10 8.33977 2.41530   1
  -2  -6  10 13.3705 3.69285   1
  -2  -6  10 7.65867 2.12367   1
   1   6  12 409.884 15.1985  -2
  -1  -6  10 409.884 15.1985   1
   1   6  12 425.839 16.3762  -2
  -1  -6  10 425.839 16.3762   1
   1   6  12 429.870 19.4316  -2
  -1  -6  10 429.870 19.4316   1
   1   6  12 405.727 17.2528  -2
  -1  -6  10 405.727 17.2528   1
   0   6 -10 7.75749 3.23228   1
   0   6 -10 11.7397 3.81594   1
   0   6  12 17.4026 5.61533  -2
   0  -6  10 17.4026 5.61533   1
   0   6  12 33.3128 6.68660  -2
   0  -6  10 33.3128 6.68660   1
   0   6  12 21.7054 6.11918  -2
   0  -6  10 21.7054 6.11918   1
   0   6  12 24.1215 6.15733  -2
   0  -6  10 24.1215 6.15733   1
  -1   6 -10 156.470 11.1563   1
  -1   6 -10 145.001 9.71665   1
  -1   6 -10 149.566 10.0578   1
  -1   6  12 245.962 13.4234  -2
   1  -6  10 245.962 13.4234   1
  -2   6 -10 34.5868 6.01834   1
  -2   6 -10 23.8174 4.81926   1
   2  -6  10 36.5044 5.96795   1
  -3  -5  10 10.4076 3.20031   1
  -2  -5  10 225.769 11.0673   1
  -2  -5  10 208.080 9.48946   1
  -2  -5  10 225.605 9.10869   1
  -2  -5  10 226.358 12.6063   1
   1   5 -10 152.797 9.72134   1
  -1  -5  10 153.594 9.22211   1
  -1  -5  10 162.993 8.77933   1
  -1  -5  10 153.836 8.34334   1
  -1  -5  10 158.847 10.4081   1
   0   5 -10 184.594 10.6026   1
   0   5 -10 175.218 10.3424   1
   0  -5  10 163.435 9.56156   1
   0  -5  10 196.376 10.7569   1
   0  -5  10 166.396 11.0044   1
   0  -5  10 162.521 9.23869   1
  -1   5 -10 398.774 17.4028   1
  -1   5 -10 390.687 15.5995   1
  -1   5 -10 383.656 15.8198   1
   1  -5  10 399.217 15.8015   1
   1  -5  10 386.816 17.6516   1
   1  -5  10 398.608 15.5030   1
  -2   5 -10 97.5611 9.19981   1
  -2   5 -10 100.997 7.78064   1
  -2   5 -10 103.869 8.33694   1
   2  -5  10 88.4397 8.59543   1
   2  -5  10 104.045 7.88303   1
   2  -5  10 98.9159 7.35318   1
   3  -5 -11 237.196 10.7988  -2
  -3   5 -10 237.196 10.7988   1
   3  -5 -11 236.382 12.0210  -2
  -3   5 -10 236.382 12.0210   1
   3  -5  10 214.304 13.8711   1
   3  -5  10 223.678 11.7985   1
   4   4 -10 1.03848 3.07666   1
  -4  -4  10 0.98095 1.77359   1
   3   4 -10 627.380 25.6884   1
   3   4  11 657.439 17.8854  -2
  -3  -4  10 657.439 17.8854   1
  -2  -4  10 26.5553 3.75182   1
  -2  -4  10 25.2727 3.16322   1
  -2  -4  10 24.7807 4.51061   1
  -2  -4  10 25.4925 4.04081   1
   1   4 -10 662.714 21.2530   1
   1   4  11 759.251 26.4082  -2
  -1  -4  10 759.251 26.4082   1
   1   4  11 790.469 22.8401  -2
  -1  -4  10 790.469 22.8401   1
   1   4  11 820.130 22.8497  -2
  -1  -4  10 820.130 22.8497   1
   0  -4 -11 288.635 13.0144  -2
   0   4 -10 288.635 13.0144   1
   0  -4 -11 313.203 13.6279  -2
   0   4 -10 313.203 13.6279   1
   0   4  11 294.685 13.1941  -2
   0  -4  10 294.685 13.1941   1
   0   4  11 274.870 13.1891  -2
   0  -4  10 274.870 13.1891   1
   0   4  11 291.806 15.4321  -2
   0  -4  10 291.806 15.4321   1
   0   4  11 287.149 12.6907  -2
   0  -4  10 287.149 12.6907   1
   1  -4 -11 1167.33 33.3388  -2
  -1   4 -10 1167.33 33.3388   1
   1  -4 -11 1194.09 30.6595  -2
  -1   4 -10 1194.09 30.6595   1
   1  -4 -11 1160.79 30.6205  -2
  -1   4 -10 1160.79 30.6205   1
  -1   4  11 1177.56 36.2428  -2
   1  -4  10 1177.56 36.2428   1
  -1   4  11 1205.94 32.1140  -2
   1  -4  10 1205.94 32.1140   1
  -1   4  11 1213.86 32.0289  -2
   1  -4  10 1213.86 32.0289   1
  -1   4  11 1276.28 33.0238  -2
   1  -4  10 1276.28 33.0238   1
   2  -4 -11 285.944 11.9474  -2
  -2   4 -10 285.944 11.9474   1
   2  -4 -11 284.905 13.9515  -2
  -2   4 -10 284.905 13.9515   1
   2  -4 -11 297.939 11.9900  -2
  -2   4 -10 297.939 11.9900   1
  -2   4  11 238.986 14.6492  -2
   2  -4  10 238.986 14.6492   1
  -2   4  11 263.702 12.7150  -2
   2  -4  10 263.702 12.7150   1
  -2   4  11 282.264 13.1333  -2
   2  -4  10 282.264 13.1333   1
   3  -4 -11 828.531 28.0219  -2
  -3   4 -10 828.531 28.0219   1
   3  -4 -11 910.871 22.7849  -2
  -3   4 -10 910.871 22.7849   1
   3  -4 -11 884.356 23.3949  -2
  -3   4 -10 884.356 23.3949   1
  -3   4  11 802.468 26.1151  -2
   3  -4  10 802.468 26.1151   1
  -3   4  11 820.089 29.9058  -2
   3  -4  10 820.089 29.9058   1
   4  -4 -11 17.9150 3.19185  -2
  -4   4 -10 17.9150 3.19185   1
   4  -4 -11 8.36744 6.33884  -2
  -4   4 -10 8.36744 6.33884   1
  -4   4  11 8.67170 5.00641  -2
   4  -4  10 8.67170 5.00641   1
  -4  -3 -11 250.404 14.6735  -2
   4   3 -10 250.404 14.6735   1
   4   3  11 206.787 12.2752  -2
  -4  -3  10 206.787 12.2752   1
   4   3  11 213.427 7.08575  -2
  -4  -3  10 213.427 7.08575   1
  -3  -3 -11 493.883 20.6949  -2
   3   3 -10 493.883 20.6949   1
   3   3  11 492.633 14.7868  -2
  -3  -3  10 492.633 14.7868   1
   3   3  11 489.065 19.7738  -2
  -3  -3  10 489.065 19.7738   1
   3   3  11 487.557 13.6865  -2
  -3  -3  10 487.557 13.6865   1
   2   3  11 205.986 12.3583  -2
  -2  -3  10 205.986 12.3583   1
   2   3  11 221.708 10.8299  -2
  -2  -3  10 221.708 10.8299   1
   2   3  11 198.232 9.05795  -2
  -2  -3  10 198.232 9.05795   1
   2   3  11 224.497 10.0771  -2
  -2  -3  10 224.497 10.0771   1
  -1  -3 -11 339.823 13.9031  -2
   1   3 -10 339.823 13.9031   1
  -1  -3 -11 326.542 13.4378  -2
   1   3 -10 326.542 13.4378   1
   1   3  11 329.084 13.0167  -2
  -1  -3  10 329.084 13.0167   1
   1   3  11 341.343 14.3802  -2
  -1  -3  10 341.343 14.3802   1
   1   3  11 343.711 16.2590  -2
  -1  -3  10 343.711 16.2590   1
   1   3  11 327.582 13.1624  -2
  -1  -3  10 327.582 13.1624   1
   0  -3 -11 78.6145 7.15361  -2
   0   3 -10 78.6145 7.15361   1
   0  -3 -11 91.1729 7.43448  -2
   0   3 -10 91.1729 7.43448   1
   0   3  11 92.4902 7.04703  -2
   0  -3  10 92.4902 7.04703   1
   0   3  11 89.6780 7.48246  -2
   0  -3  10 89.6780 7.48246   1
   0   3  11 79.3085 7.98919  -2
   0  -3  10 79.3085 7.98919   1
   0   3  11 89.7530 7.04839  -2
   0  -3  10 89.7530 7.04839   1
   1  -3 -11 105.071 8.42924  -2
  -1   3 -10 105.071 8.42924   1
   1  -3 -11 102.121 7.41908  -2
  -1   3 -10 102.121 7.41908   1
   1  -3 -11 97.8470 7.50075  -2
  -1   3 -10 97.8470 7.50075   1
  -1   3  11 124.050 8.74405  -2
   1  -3  10 124.050 8.74405   1
  -1   3  11 110.323 7.82285  -2
   1  -3  10 110.323 7.82285   1
  -1   3  11 112.535 8.29187  -2
   1  -3  10 112.535 8.29187   1
  -1   3  11 99.0335 9.16827  -2
   1  -3  10 99.0335 9.16827   1
   2  -3 -11 97.2005 7.04543  -2
  -2   3 -10 97.2005 7.04543   1
   2  -3 -11 96.3008 7.44427  -2
  -2   3 -10 96.3008 7.44427   1
   2  -3  10 56.3804 5.46944   1
   2  -3  10 45.5520 5.42881   1
   2  -3  10 49.1245 6.20953   1
   3  -3 -11 177.479 8.52977  -2
  -3   3 -10 177.479 8.52977   1
   3  -3  10 0.36412 1.47152   1
   3  -3  10 -0.7073 1.47005   1
  -4   3 -10 285.181 10.2552   1
  -4   3 -10 267.508 15.5182   1
   4  -3  10 296.424 14.9656   1
   4  -3  10 271.479 15.3956   1
   4  -3  10 288.057 13.2824   1
  -5  -2 -11 732.364 26.6936  -2
   5   2 -10 732.364 26.6936   1
   5   2  11 776.749 26.4000  -2
  -5  -2  10 776.749 26.4000   1
  -4  -2 -11 103.806 9.32364  -2
   4   2 -10 103.806 9.32364   1
   4   2  11 103.967 5.11263  -2
  -4  -2  10 103.967 5.11263   1
   4   2  11 92.0075 8.37934  -2
  -4  -2  10 92.0075 8.37934   1
   3   2  11 1128.06 25.7673  -2
  -3  -2  10 1128.06 25.7673   1
   3   2  11 1077.77 26.4746  -2
  -3  -2  10 1077.77 26.4746   1
   3   2  11 1082.15 32.8338  -2
  -3  -2  10 1082.15 32.8338   1
   2   2  11 123.245 7.41204  -2
  -2  -2  10 123.245 7.41204   1
   2   2  11 126.784 8.01093  -2
  -2  -2  10 126.784 8.01093   1
   1   2 -10 31.8272 4.86520   1
   1   2 -10 40.9385 5.11185   1
  -1  -2  10 38.6704 5.08944   1
  -1  -2  10 36.6795 4.43443   1
  -1  -2  10 36.9647 4.02271   1
  -1  -2  10 33.0670 4.16175   1
   0   2 -10 194.615 10.1792   1
   0   2 -10 184.469 10.0407   1
   0  -2  10 195.930 9.37547   1
   0  -2  10 201.793 11.6184   1
   0  -2  10 215.298 9.20651   1
   0  -2  10 196.440 9.49063   1
   0  -2  10 184.928 9.73996   1
  -1   2 -10 145.967 9.33152   1
  -1   2 -10 150.511 8.62024   1
  -1   2 -10 150.742 8.75980   1
   1  -2  10 155.570 8.21544   1
   1  -2  10 154.394 8.63281   1
   1  -2  10 146.281 8.35501   1
   1  -2  10 140.083 9.72789   1
  -2   2 -10 366.185 13.6580   1
  -2   2 -10 366.106 15.9387   1
  -2   2 -10 345.599 13.0311   1
   2  -2  10 363.089 16.8353   1
   2  -2  10 338.568 13.9513   1
  -3   2 -10 213.871 12.6667   1
  -3   2 -10 215.810 9.31903   1
   3  -2  10 230.786 12.6674   1
   3  -2  10 222.867 11.0475   1
   3  -2  10 196.564 12.5087   1
   4  -2 -10 839.065 19.5712  -2
  -4   2 -10 839.065 19.5712   1
   4  -2  10 641.252 23.2760   1
   4  -2  10 599.937 23.9157   1
   4  -2  10 619.398 20.8922   1
   5  -2 -10 286.948 15.9980  -2
  -5   2 -10 286.948 15.9980   1
   5  -2  10 140.317 8.95314   1
   5  -2  10 129.055 9.59363   1
   5  -2  10 115.763 10.1945   1
   5   1 -10 67.0874 7.70213   1
  -5  -1  10 43.6954 5.83858   1
   4   1 -10 8.87388 3.68000   1
  -4  -1  10 10.7230 3.24323   1
  -4  -1  10 10.1352 2.02102   1
   3   1 -10 18.0112 4.46620   1
  -3  -1  10 15.8349 2.77368   1
  -3  -1  10 18.0173 3.92464   1
  -3  -1  10 20.1815 2.64326   1
   2   1 -10 216.078 11.0678   1
   2   1  10 427.272 14.8981  -2
  -2  -1  10 427.272 14.8981   1
   1   1 -10 14.4574 3.86781   1
   1   1 -10 15.3620 3.50123   1
   1   1  10 112.316 7.85384  -2
  -1  -1  10 112.316 7.85384   1
   0  -1 -10 909.044 24.7749  -2
   0   1 -10 909.044 24.7749   1
   0  -1 -10 947.543 25.0387  -2
   0   1 -10 947.543 25.0387   1
   0   1  10 945.630 25.4836  -2
   0  -1  10 945.630 25.4836   1
   1  -1 -10 139.041 7.99082  -2
  -1   1 -10 139.041 7.99082   1
   1  -1 -10 147.307 8.94624  -2
  -1   1 -10 147.307 8.94624   1
  -1   1  10 154.234 9.02889  -2
   1  -1  10 154.234 9.02889   1
  -1   1  10 142.851 10.7218  -2
   1  -1  10 142.851 10.7218   1
  -1   1  10 148.105 8.86368  -2
   1  -1  10 148.105 8.86368   1
  -1   1  10 172.281 9.80714  -2
   1  -1  10 172.281 9.80714   1
   2  -1 -10 292.158 13.1435  -2
  -2   1 -10 292.158 13.1435   1
   2  -1 -10 289.436 10.8508  -2
  -2   1 -10 289.436 10.8508   1
  -2   1  10 272.554 14.8927  -2
   2  -1  10 272.554 14.8927   1
  -2   1  10 299.174 12.9266  -2
   2  -1  10 299.174 12.9266   1
  -2   1  10 295.465 14.6638  -2
   2  -1  10 295.465 14.6638   1
   3  -1 -10 105.142 5.84238  -2
  -3   1 -10 105.142 5.84238   1
   3  -1 -10 120.583 6.31646  -2
  -3   1 -10 120.583 6.31646   1
   3  -1 -10 126.563 9.12035  -2
  -3   1 -10 126.563 9.12035   1
  -3   1  10 105.747 7.60927  -2
   3  -1  10 105.747 7.60927   1
  -3   1  10 113.243 9.69431  -2
   3  -1  10 113.243 9.69431   1
  -3   1  10 139.099 9.95647  -2
   3  -1  10 139.099 9.95647   1
   4  -1 -10 440.569 18.2325  -2
  -4   1 -10 440.569 18.2325   1
  -4   1  10 461.200 16.8423  -2
   4  -1  10 461.200 16.8423   1
  -4   1  10 413.252 19.0435  -2
   4  -1  10 413.252 19.0435   1
  -4   1  10 481.909 19.4609  -2
   4  -1  10 481.909 19.4609   1
   5  -1 -10 12.4788 5.41861  -2
  -5   1 -10 12.4788 5.41861   1
  -5   1  10 6.85863 4.65614  -2
   5  -1  10 6.85863 4.65614   1
  -5   1  10 13.0788 4.28831  -2
   5  -1  10 13.0788 4.28831   1
  -5   1  10 16.7503 3.86468  -2
   5  -1  10 16.7503 3.86468   1
   5   0 -10 31.9443 5.74983   1
  -5   0  10 20.1667 4.23545   1
  -4   0 -10 95.6401 9.58531  -2
   4   0 -10 95.6401 9.58531   1
   4   0  10 90.5109 5.43376  -2
  -4   0  10 90.5109 5.43376   1
   3   0  10 338.540 15.5880  -2
  -3   0  10 338.540 15.5880   1
   3   0  10 328.708 11.3715  -2
  -3   0  10 328.708 11.3715   1
   3   0  10 328.017 11.9274  -2
  -3   0  10 328.017 11.9274   1
  -2   0 -10 508.854 17.4041  -2
   2   0 -10 508.854 17.4041   1
   2   0  10 471.120 15.6018  -2
  -2   0  10 471.120 15.6018   1
   2   0  10 506.149 19.5417  -2
  -2   0  10 506.149 19.5417   1
   2   0  10 523.201 16.4296  -2
  -2   0  10 523.201 16.4296   1
  -1   0 -10 502.316 16.6079  -2
   1   0 -10 502.316 16.6079   1
   1   0  10 521.237 20.0518  -2
  -1   0  10 521.237 20.0518   1
   1   0  10 520.348 16.9112  -2
  -1   0  10 520.348 16.9112   1
   1   0  10 507.989 16.5706  -2
  -1   0  10 507.989 16.5706   1
   0   0 -10 2154.95 48.1424  -2
   0   0 -10 2154.95 48.1424   1
   0   0  10 2501.51 53.4835  -2
   0   0  10 2501.51 53.4835   1
   0   0  10 2293.49 55.7241  -2
   0   0  10 2293.49 55.7241   1
   0   0  10 2175.02 49.3188  -2
   0   0  10 2175.02 49.3188   1
   0   0  10 2172.25 50.5966  -2
   0   0  10 2172.25 50.5966   1
   0   0  10 2363.37 50.4201  -2
   0   0  10 2363.37 50.4201   1
   1   0 -10 436.009 14.4575  -2
  -1   0 -10 436.009 14.4575   1
   1   0 -10 466.428 16.3183  -2
  -1   0 -10 466.428 16.3183   1
  -1   0  10 476.881 19.4646  -2
   1   0  10 476.881 19.4646   1
  -1   0  10 471.382 16.2974  -2
   1   0  10 471.382 16.2974   1
  -1   0  10 489.974 16.9003  -2
   1   0  10 489.974 16.9003   1
   2   0 -10 364.582 14.5449  -2
  -2   0 -10 364.582 14.5449   1
   2   0 -10 361.767 12.0733  -2
  -2   0 -10 361.767 12.0733   1
   2   0 -10 358.079 11.9163  -2
  -2   0 -10 358.079 11.9163   1
  -2   0  10 327.989 14.0528  -2
   2   0  10 327.989 14.0528   1
  -2   0  10 341.487 16.7924  -2
   2   0  10 341.487 16.7924   1
  -2   0  10 384.091 16.7184  -2
   2   0  10 384.091 16.7184   1
   3   0 -10 292.808 13.6615  -2
  -3   0 -10 292.808 13.6615   1
   3   0 -10 288.955 8.45949  -2
  -3   0 -10 288.955 8.45949   1
   3   0 -10 284.575 9.51100  -2
  -3   0 -10 284.575 9.51100   1
  -3   0  10 305.809 15.1195  -2
   3   0  10 305.809 15.1195   1
  -3   0  10 272.782 15.1579  -2
   3   0  10 272.782 15.1579   1
  -3   0  10 261.559 12.3375  -2
   3   0  10 261.559 12.3375   1
  -4   0 -10 1.01709 2.15117   1
   4   0  10 1.93648 1.95025   1
   4   0  10 1.81336 1.97744   1
   4   0  10 3.87172 2.08075   1
  -5   0 -10 23.5245 5.70556   1
   5   0  10 28.9836 4.13626   1
   5   0  10 32.0901 5.69137   1
   5   0  10 22.5590 4.19091   1
  -5   1 -10 11.8698 4.50478  -2
   5  -1 -10 11.8698 4.50478   1
   5  -1  10 11.0097 1.88067  -2
  -5   1  10 11.0097 1.88067   1
   5  -1  10 7.69365 3.64460  -2
  -5   1  10 7.69365 3.64460   1
  -4   1 -10 541.603 21.2972  -2
   4  -1 -10 541.603 21.2972   1
   4  -1  10 516.855 20.0540  -2
  -4   1  10 516.855 20.0540   1
   4  -1  10 489.178 14.5161  -2
  -4   1  10 489.178 14.5161   1
   4  -1  10 495.469 13.5589  -2
  -4   1  10 495.469 13.5589   1
   3  -1  10 89.0306 5.63765  -2
  -3   1  10 89.0306 5.63765   1
   3  -1  10 96.4108 8.15290  -2
  -3   1  10 96.4108 8.15290   1
   3  -1  10 89.9424 6.14066  -2
  -3   1  10 89.9424 6.14066   1
  -2   1 -10 333.339 13.3224  -2
   2  -1 -10 333.339 13.3224   1
   2  -1  10 328.718 12.3750  -2
  -2   1  10 328.718 12.3750   1
   2  -1  10 312.654 14.9206  -2
  -2   1  10 312.654 14.9206   1
   2  -1  10 336.720 12.7773  -2
  -2   1  10 336.720 12.7773   1
  -1   1 -10 162.201 8.90541  -2
   1  -1 -10 162.201 8.90541   1
   1  -1  10 162.568 8.82491  -2
  -1   1  10 162.568 8.82491   1
   1  -1  10 165.352 10.6853  -2
  -1   1  10 165.352 10.6853   1
   1  -1  10 185.308 9.52635  -2
  -1   1  10 185.308 9.52635   1
   0  -1 -10 476.065 16.3989   1
   0  -1  10 912.550 25.1830  -2
   0   1  10 912.550 25.1830   1
   1   1 -10 162.428 8.63700  -2
  -1  -1 -10 162.428 8.63700   1
   1   1  10 131.116 9.03842   1
   1   1  10 147.596 7.85742   1
   1   1  10 163.347 9.57310   1
   1   1  10 149.915 7.93365   1
  -2  -1 -10 371.682 15.4060   1
  -2  -1 -10 378.958 12.7230   1
   2   1  10 384.705 14.1906   1
   2   1  10 381.165 16.2907   1
   2   1  10 376.964 15.5035   1
  -3  -1 -10 254.438 8.56175   1
  -3  -1 -10 253.177 13.0219   1
   3   1  10 242.530 13.3244   1
   3   1  10 253.282 12.6223   1
   3   1  10 266.396 11.4309   1
  -4  -1 -10 87.7033 8.04762   1
   4   1  10 87.5602 8.08842   1
   4   1  10 85.6446 7.22745   1
   4   1  10 82.7102 6.28833   1
  -5  -1 -10 351.522 17.5121   1
   5   1  10 390.337 17.9333   1
   5   1  10 386.510 16.4575   1
   5   1  10 399.215 14.6651   1
  -6  -1 -10 44.8150 7.39436   1
   6   1  10 49.4011 5.10756   1
   6   1  10 42.2183 5.80656   1
   6   1  10 38.3158 6.40614   1
  -5   2 -10 323.217 16.6507  -2
   5  -2 -10 323.217 16.6507   1
   5  -2  10 273.701 15.0071  -2
  -5   2  10 273.701 15.0071   1
   5  -2  10 282.757 9.25475  -2
  -5   2  10 282.757 9.25475   1
   4  -2 -10 317.860 16.9676   1
  -4   2  10 289.511 10.5742   1
  -4   2  10 295.644 14.6564   1
  -4   2  10 292.664 9.94952   1
  -3   2  10 46.7491 4.16655   1
  -3   2  10 58.0062 6.09836   1
  -3   2  10 63.8127 5.11751   1
   2  -2 -10 150.613 9.20140   1
  -2   2  10 151.190 9.72375   1
  -2   2  10 147.971 7.90468   1
  -2   2  10 168.875 8.41741   1
   1  -2 -10 1.51905 2.11884   1
   1  -2 -10 1.28089 2.04623   1
  -1   2  10 1.59195 1.37217   1
  -1   2  10 2.97669 1.86544   1
  -1   2  10 2.45173 1.82982   1
   0  -2 -10 15.7501 3.41566   1
   0   2  10 17.0992 3.07556   1
   0   2  10 16.3842 3.23837   1
   0   2  10 10.0166 3.07191   1
   0   2  10 19.3384 3.06758   1
  -1  -2 -10 47.9603 5.04105   1
  -1  -2 -10 42.6352 4.32938   1
   1   2  10 41.2688 4.16114   1
   1   2  10 40.3014 5.07439   1
   1   2  10 54.0095 5.59104   1
   1   2  10 40.9290 4.35568   1
   2   2  -9 113.604 6.06938  -2
  -2  -2 -10 113.604 6.06938   1
  -2  -2   9 146.317 9.90909  -2
   2   2  10 146.317 9.90909   1
   3   2  -9 1395.80 29.2541  -2
  -3  -2 -10 1395.80 29.2541   1
   3   2  -9 1423.25 38.4609  -2
  -3  -2 -10 1423.25 38.4609   1
  -3  -2   9 1500.97 40.5111  -2
   3   2  10 1500.97 40.5111   1
  -3  -2   9 1520.14 39.5822  -2
   3   2  10 1520.14 39.5822   1
  -3  -2   9 1472.54 37.0130  -2
   3   2  10 1472.54 37.0130   1
   4   2  -9 183.999 11.2503  -2
  -4  -2 -10 183.999 11.2503   1
  -4  -2   9 197.478 11.7112  -2
   4   2  10 197.478 11.7112   1
  -4  -2   9 194.665 9.89728  -2
   4   2  10 194.665 9.89728   1
  -4  -2   9 208.504 12.6042  -2
   4   2  10 208.504 12.6042   1
   5   2  -9 478.544 20.3470  -2
  -5  -2 -10 478.544 20.3470   1
  -5  -2   9 589.105 18.3513  -2
   5   2  10 589.105 18.3513   1
  -5  -2   9 580.073 21.2096  -2
   5   2  10 580.073 21.2096   1
  -5  -2   9 562.402 21.9870  -2
   5   2  10 562.402 21.9870   1
   6   2  -9 156.139 11.5255  -2
  -6  -2 -10 156.139 11.5255   1
  -6  -2   9 152.740 10.1968  -2
   6   2  10 152.740 10.1968   1
  -6  -2   9 159.064 11.5698  -2
   6   2  10 159.064 11.5698   1
  -5   3  10 50.2471 3.79099   1
  -5   3  10 44.9806 6.11124   1
   4  -3   9 269.541 10.6016  -2
  -4   3  10 269.541 10.6016   1
  -3   3  10 27.9711 3.60944   1
  -3   3  10 33.9542 4.78768   1
  -3   3  10 33.0480 3.96852   1
  -2   3  -9 412.758 14.6158  -2
   2  -3 -10 412.758 14.6158   1
   2  -3   9 379.966 16.3822  -2
  -2   3  10 379.966 16.3822   1
   2  -3   9 408.034 14.4183  -2
  -2   3  10 408.034 14.4183   1
  -1   3  -9 1098.17 28.5057  -2
   1  -3 -10 1098.17 28.5057   1
   1  -3   9 1145.36 28.9943  -2
  -1   3  10 1145.36 28.9943   1
   1  -3   9 1103.75 31.6252  -2
  -1   3  10 1103.75 31.6252   1
   1  -3   9 1132.00 28.6997  -2
  -1   3  10 1132.00 28.6997   1
   1  -3   9 1078.85 28.3449  -2
  -1   3  10 1078.85 28.3449   1
   0   3  -9 205.700 9.30964  -2
   0  -3 -10 205.700 9.30964   1
   0  -3   9 197.157 9.96758  -2
   0   3  10 197.157 9.96758   1
   0  -3   9 181.998 11.0212  -2
   0   3  10 181.998 11.0212   1
   0  -3   9 205.443 10.0703  -2
   0   3  10 205.443 10.0703   1
   0  -3   9 193.884 9.94235  -2
   0   3  10 193.884 9.94235   1
   1   3  -9 560.315 18.7234  -2
  -1  -3 -10 560.315 18.7234   1
   1   3  -9 502.557 15.7062  -2
  -1  -3 -10 502.557 15.7062   1
   1   3  -9 497.810 15.2578  -2
  -1  -3 -10 497.810 15.2578   1
  -1  -3   9 658.199 21.9137  -2
   1   3  10 658.199 21.9137   1
  -1  -3   9 615.763 19.1973  -2
   1   3  10 615.763 19.1973   1
  -1  -3   9 593.368 20.9590  -2
   1   3  10 593.368 20.9590   1
   2   3  -9 563.924 18.9189  -2
  -2  -3 -10 563.924 18.9189   1
   2   3  -9 534.899 13.2662  -2
  -2  -3 -10 534.899 13.2662   1
   2   3  -9 543.855 14.3212  -2
  -2  -3 -10 543.855 14.3212   1
  -2  -3   9 444.098 16.7369  -2
   2   3  10 444.098 16.7369   1
  -2  -3   9 490.862 19.1974  -2
   2   3  10 490.862 19.1974   1
  -2  -3   9 447.064 18.6867  -2
   2   3  10 447.064 18.6867   1
   3   3  -9 1544.58 42.0104  -2
  -3  -3 -10 1544.58 42.0104   1
  -3  -3   9 1646.13 43.2356  -2
   3   3  10 1646.13 43.2356   1
  -3  -3   9 1728.85 43.8597  -2
   3   3  10 1728.85 43.8597   1
  -3  -3   9 1641.84 40.4389  -2
   3   3  10 1641.84 40.4389   1
   4   3  -9 306.634 14.9870  -2
  -4  -3 -10 306.634 14.9870   1
  -4  -3   9 313.702 16.0474  -2
   4   3  10 313.702 16.0474   1
  -4  -3   9 305.290 12.9389  -2
   4   3  10 305.290 12.9389   1
  -4  -3   9 301.420 15.0898  -2
   4   3  10 301.420 15.0898   1
   5   3  -9 540.324 22.3977  -2
  -5  -3 -10 540.324 22.3977   1
  -5  -3   9 564.047 18.3572  -2
   5   3  10 564.047 18.3572   1
  -5  -3   9 579.900 22.4371  -2
   5   3  10 579.900 22.4371   1
  -5  -3   9 579.771 21.0149  -2
   5   3  10 579.771 21.0149   1
   5  -4   9 0.68991 4.38321  -2
  -5   4  10 0.68991 4.38321   1
   5  -4   9 9.21337 2.45068  -2
  -5   4  10 9.21337 2.45068   1
   5  -4   9 6.73223 2.81376  -2
  -5   4  10 6.73223 2.81376   1
   4  -4   9 16.1502 4.43728  -2
  -4   4  10 16.1502 4.43728   1
   4  -4   9 15.2756 2.92677  -2
  -4   4  10 15.2756 2.92677   1
   4  -4   9 14.2542 3.86380  -2
  -4   4  10 14.2542 3.86380   1
   3  -4   9 534.723 16.5289  -2
  -3   4  10 534.723 16.5289   1
   3  -4   9 489.887 16.2086  -2
  -3   4  10 489.887 16.2086   1
   3  -4   9 486.417 18.8338  -2
  -3   4  10 486.417 18.8338   1
  -2   4  -9 294.394 12.6533  -2
   2  -4 -10 294.394 12.6533   1
   2  -4   9 312.524 12.6524  -2
  -2   4  10 312.524 12.6524   1
   2  -4   9 313.356 12.4643  -2
  -2   4  10 313.356 12.4643   1
   2  -4   9 307.899 14.1018  -2
  -2   4  10 307.899 14.1018   1
  -1   4  -9 1326.17 33.0050  -2
   1  -4 -10 1326.17 33.0050   1
   1  -4   9 1464.93 34.8527  -2
  -1   4  10 1464.93 34.8527   1
   1  -4   9 1329.67 33.1387  -2
  -1   4  10 1329.67 33.1387   1
   1  -4   9 1321.45 35.8960  -2
  -1   4  10 1321.45 35.8960   1
   1  -4   9 1349.74 33.3354  -2
  -1   4  10 1349.74 33.3354   1
   0   4  -9 567.247 16.8409  -2
   0  -4 -10 567.247 16.8409   1
   0   4  -9 506.613 15.8929  -2
   0  -4 -10 506.613 15.8929   1
   0  -4   9 553.360 20.5366  -2
   0   4  10 553.360 20.5366   1
   0  -4   9 537.245 18.2607  -2
   0   4  10 537.245 18.2607   1
   0  -4   9 567.693 18.9789  -2
   0   4  10 567.693 18.9789   1
   1   4  -9 680.900 19.0975  -2
  -1  -4 -10 680.900 19.0975   1
   1   4  -9 688.871 22.1781  -2
  -1  -4 -10 688.871 22.1781   1
  -1  -4   9 759.846 22.0721  -2
   1   4  10 759.846 22.0721   1
  -1  -4   9 709.203 23.0424  -2
   1   4  10 709.203 23.0424   1
  -2  -4 -10 0.93277 1.21659   1
  -2  -4 -10 -0.9209 1.79628   1
  -2  -4 -10 -0.2835 0.83995   1
   2   4  10 0.20375 1.38326   1
   2   4  10 -0.2953 0.96758   1
   2   4  10 -2.0803 1.03291   1
  -3  -4 -10 294.067 14.3232   1
   3   4  10 270.971 13.1841   1
   3   4  10 280.291 11.5627   1
   3   4  10 274.311 13.0603   1
  -4  -4 -10 30.7043 5.61444   1
   4   4  10 34.1971 4.97576   1
   4   4  10 31.7208 4.04736   1
   4   4  10 29.8585 4.55134   1
  -5  -4 -10 93.6692 9.31027   1
   5   4  10 106.359 8.16949   1
   5   4  10 106.348 8.44039   1
   5   4  10 108.514 6.81161   1
   4  -5   9 523.875 16.2243  -2
  -4   5  10 523.875 16.2243   1
   4  -5   9 552.120 20.6113  -2
  -4   5  10 552.120 20.6113   1
   4  -5   9 542.209 17.3732  -2
  -4   5  10 542.209 17.3732   1
  -3   5  -9 853.842 26.0719  -2
   3  -5 -10 853.842 26.0719   1
   3  -5   9 940.102 28.1280  -2
  -3   5  10 940.102 28.1280   1
   3  -5   9 933.122 24.8234  -2
  -3   5  10 933.122 24.8234   1
   3  -5   9 938.629 25.1934  -2
  -3   5  10 938.629 25.1934   1
   2  -5 -10 0.14076 1.48051   1
   2  -5 -10 0.15906 1.73903   1
   2  -5 -10 2.00233 1.53277   1
   2  -5   9 281.258 12.4635  -2
  -2   5  10 281.258 12.4635   1
   1  -5 -10 964.383 26.6439   1
   1  -5 -10 970.170 26.6905   1
  -1   5  10 1024.82 28.5531   1
  -1   5  10 971.229 26.4992   1
  -1   5  10 1003.86 26.5640   1
  -1   5  10 1020.73 26.8955   1
   0  -5 -10 99.1253 6.78560   1
   0  -5 -10 111.803 6.84449   1
   0   5  10 111.731 7.81774   1
   0   5  10 119.565 7.12855   1
   0   5  10 123.564 7.60160   1
  -1  -5 -10 467.276 14.7300   1
  -1  -5 -10 481.793 17.6564   1
  -1  -5 -10 479.728 14.2845   1
   1   5  10 509.843 17.5956   1
   1   5  10 480.880 17.3201   1
   1   5  10 501.881 19.0874   1
   1   5  10 473.550 16.3869   1
  -2  -5 -10 50.3140 3.59659   1
  -2  -5 -10 55.0501 6.07823   1
   2   5  10 52.6026 4.87836   1
   2   5  10 60.7674 6.00775   1
   2   5  10 52.8215 5.67848   1
   2   5  10 57.2008 5.73162   1
  -3  -5 -10 1.04349 2.16927   1
   3   5  10 -0.4805 1.04989   1
   3   5  10 2.12512 1.79943   1
   3   5  10 1.59743 1.88210   1
   3   5  10 1.40946 1.64550   1
   4   5  -8 79.2326 8.81261  -2
  -4  -5 -10 79.2326 8.81261   1
   4   5  10 15.5521 3.18019   1
   4   5  10 12.7565 3.28468   1
   5   5  -8 369.888 17.9006  -2
  -5  -5 -10 369.888 17.9006   1
  -5  -5   8 367.220 16.2443  -2
   5   5  10 367.220 16.2443   1
  -4   6  10 4.73851 2.94195   1
  -4   6  10 7.91851 2.85366   1
  -4   6  10 5.13989 1.89923   1
   3  -6 -10 447.728 17.6507   1
   3  -6 -10 465.801 17.2292   1
   3  -6 -10 485.623 17.8931   1
   3  -6   8 515.596 17.6428  -2
  -3   6  10 515.596 17.6428   1
   2  -6 -10 1.69376 2.15743   1
   2  -6 -10 2.24205 2.05591   1
  -2   6  10 5.05292 2.45487   1
  -2   6  10 2.87969 1.86824   1
  -2   6  10 4.46067 2.19148   1
  -1   6  -8 247.677 11.3849  -2
   1  -6 -10 247.677 11.3849   1
   1  -6   8 283.484 12.6018  -2
  -1   6  10 283.484 12.6018   1
   0   6  -8 311.559 11.8916  -2
   0  -6 -10 311.559 11.8916   1
   0   6  -8 319.554 12.4289  -2
   0  -6 -10 319.554 12.4289   1
   0  -6   8 342.842 13.5646  -2
   0   6  10 342.842 13.5646   1
   1   6  -8 584.176 15.9897  -2
  -1  -6 -10 584.176 15.9897   1
   1   6  -8 583.104 15.2035  -2
  -1  -6 -10 583.104 15.2035   1
  -1  -6   8 580.971 20.3488  -2
   1   6  10 580.971 20.3488   1
  -1  -6   8 567.960 21.2765  -2
   1   6  10 567.960 21.2765   1
  -1  -6   8 566.567 19.5824  -2
   1   6  10 566.567 19.5824   1
   2   6  -8 917.483 20.6345  -2
  -2  -6 -10 917.483 20.6345   1
   2   6  -8 883.091 28.2139  -2
  -2  -6 -10 883.091 28.2139   1
  -2  -6   8 987.028 27.3485  -2
   2   6  10 987.028 27.3485   1
  -2  -6   8 949.890 29.2509  -2
   2   6  10 949.890 29.2509   1
  -2  -6   8 932.581 28.5070  -2
   2   6  10 932.581 28.5070   1
   3   6  -8 374.900 16.8096  -2
  -3  -6 -10 374.900 16.8096   1
  -3  -6   8 362.787 14.6545  -2
   3   6  10 362.787 14.6545   1
  -3  -6   8 388.753 17.2077  -2
   3   6  10 388.753 17.2077   1
  -3  -6   8 388.921 16.7361  -2
   3   6  10 388.921 16.7361   1
   4   6  -8 303.496 15.9182  -2
  -4  -6 -10 303.496 15.9182   1
  -4  -6   8 353.579 13.7641  -2
   4   6  10 353.579 13.7641   1
  -4  -6   8 315.445 14.9071  -2
   4   6  10 315.445 14.9071   1
  -4  -6   8 328.205 16.5409  -2
   4   6  10 328.205 16.5409   1
  -3   7  -8 254.970 12.4427  -2
   3  -7 -10 254.970 12.4427   1
  -3   7  -8 279.268 13.0736  -2
   3  -7 -10 279.268 13.0736   1
   3  -7   8 266.733 12.1516  -2
  -3   7  10 266.733 12.1516   1
   3  -7   8 271.284 12.5268  -2
  -3   7  10 271.284 12.5268   1
  -2   7  -8 143.811 8.83849  -2
   2  -7 -10 143.811 8.83849   1
  -2   7  -8 148.606 8.86963  -2
   2  -7 -10 148.606 8.86963   1
   2  -7   8 136.095 8.62854  -2
  -2   7  10 136.095 8.62854   1
   2  -7   8 146.952 8.95768  -2
  -2   7  10 146.952 8.95768   1
  -1   7  -8 308.522 12.5576  -2
   1  -7 -10 308.522 12.5576   1
  -1   7  -8 313.821 12.4919  -2
   1  -7 -10 313.821 12.4919   1
   1  -7   8 293.356 12.9086  -2
  -1   7  10 293.356 12.9086   1
   1  -7   8 312.654 13.5030  -2
  -1   7  10 312.654 13.5030   1
   0   7  -8 251.649 10.5824  -2
   0  -7 -10 251.649 10.5824   1
   0   7  -8 231.703 9.69256  -2
   0  -7 -10 231.703 9.69256   1
   0  -7   8 244.708 11.6941  -2
   0   7  10 244.708 11.6941   1
   1   7  -8 667.240 16.8820  -2
  -1  -7 -10 667.240 16.8820   1
   1   7  -8 678.285 18.0910  -2
  -1  -7 -10 678.285 18.0910   1
  -1  -7   8 713.985 24.4582  -2
   1   7  10 713.985 24.4582   1
  -1  -7   8 692.647 23.2786  -2
   1   7  10 692.647 23.2786   1
  -1  -7   8 660.784 22.0210  -2
   1   7  10 660.784 22.0210   1
   2   7  -8 499.675 12.6554  -2
  -2  -7 -10 499.675 12.6554   1
  -2  -7   8 524.869 20.0478  -2
   2   7  10 524.869 20.0478   1
  -2  -7   8 502.289 17.8932  -2
   2   7  10 502.289 17.8932   1
  -2  -7   8 521.100 20.4620  -2
   2   7  10 521.100 20.4620   1
  -3  -7 -10 -0.3418 1.99653   1
  -3  -7   8 79.9642 7.59656  -2
   3   7  10 79.9642 7.59656   1
  -3  -7   8 95.7946 8.81838  -2
   3   7  10 95.7946 8.81838   1
  -4  -7 -10 86.7202 8.76876   1
   4   7  10 76.9246 7.66596   1
   4   7  10 65.3270 6.56142   1
   4   7  10 77.9720 6.06033   1
  -2   8  -8 347.343 14.9253  -2
   2  -8 -10 347.343 14.9253   1
  -2   8  -8 369.170 15.5235  -2
   2  -8 -10 369.170 15.5235   1
   2  -8   8 395.071 15.6456  -2
  -2   8  10 395.071 15.6456   1
   2  -8   8 398.872 15.9117  -2
  -2   8  10 398.872 15.9117   1
   1  -8 -10 8.39238 2.79315   1
   1  -8 -10 17.0352 3.95413   1
  -1   8  10 13.6041 3.57903   1
   0  -8 -10 449.302 14.6699   1
   0  -8 -10 454.095 15.3536   1
   0   8  10 454.707 16.6068   1
  -1  -8 -10 10.5342 2.11616   1
  -1  -8 -10 10.5635 2.45241   1
   1   8  10 10.6878 2.72253   1
   1   8  10 15.9615 3.72625   1
   1   8  10 9.68602 3.68012   1
   2   8  10 176.295 11.1955   1
   2   8  10 191.834 11.4731   1
   2   8  10 198.462 10.2730   1
   3   8  10 17.3558 3.68231   1
   3   8  10 15.8952 4.23152   1
   3   8  10 17.4499 4.03502   1
   0  -9 -10 55.3054 4.60360   1
   0  -9 -10 56.1559 5.01292   1
   1   9  -7 78.9358 5.18266  -2
  -1  -9 -10 78.9358 5.18266   1
   1   9  -7 77.4479 4.21038  -2
  -1  -9 -10 77.4479 4.21038   1
   1   9  10 13.4071 4.03536   1
   0   5 -11 58.8864 7.00393   1
   0   5 -11 37.3022 5.88762   1
   0  -5  11 49.5916 5.78241   1
   0  -5  11 47.2299 6.34722   1
   0  -5  11 54.9022 6.17004   1
   0  -5  11 49.5517 5.33629   1
  -2  -4  11 4.89110 2.45974   1
  -2  -4  11 5.09327 2.48467   1
  -2  -4  11 0.79249 1.67794   1
  -2  -4  11 4.43428 1.99375   1
  -1  -4 -12 522.537 19.7841  -2
   1   4 -11 522.537 19.7841   1
   1   4  12 557.916 18.4037  -2
  -1  -4  11 557.916 18.4037   1
   1   4  12 553.348 22.3662  -2
  -1  -4  11 553.348 22.3662   1
   1   4  12 556.991 20.1774  -2
  -1  -4  11 556.991 20.1774   1
   1   4  12 578.692 19.2055  -2
  -1  -4  11 578.692 19.2055   1
   0  -4 -12 15.5231 5.96350  -2
   0   4 -11 15.5231 5.96350   1
   0  -4 -12 19.5196 5.59685  -2
   0   4 -11 19.5196 5.59685   1
   0   4  12 11.5325 4.84219  -2
   0  -4  11 11.5325 4.84219   1
   0   4  12 12.4668 5.50341  -2
   0  -4  11 12.4668 5.50341   1
   0   4  12 14.6217 4.74321  -2
   0  -4  11 14.6217 4.74321   1
   0   4  12 15.4355 5.17355  -2
   0  -4  11 15.4355 5.17355   1
   1  -4 -12 20.2707 5.43224  -2
  -1   4 -11 20.2707 5.43224   1
   1  -4 -12 31.7191 6.16675  -2
  -1   4 -11 31.7191 6.16675   1
  -1   4  12 21.0707 5.28949  -2
   1  -4  11 21.0707 5.28949   1
  -1   4  12 32.3988 5.88303  -2
   1  -4  11 32.3988 5.88303   1
  -1   4  12 33.5268 6.63159  -2
   1  -4  11 33.5268 6.63159   1
   2  -4 -12 216.583 12.6399  -2
  -2   4 -11 216.583 12.6399   1
   2  -4 -12 212.856 10.5064  -2
  -2   4 -11 212.856 10.5064   1
   2  -4 -12 224.925 11.2175  -2
  -2   4 -11 224.925 11.2175   1
  -2   4  12 230.098 12.4144  -2
   2  -4  11 230.098 12.4144   1
  -2   4  12 215.335 14.1557  -2
   2  -4  11 215.335 14.1557   1
   3   3  12 87.0189 5.18103  -2
  -3  -3  11 87.0189 5.18103   1
   3   3  12 69.6179 7.68429  -2
  -3  -3  11 69.6179 7.68429   1
   3   3  12 65.7024 5.25876  -2
  -3  -3  11 65.7024 5.25876   1
   2   3  12 203.202 9.57246  -2
  -2  -3  11 203.202 9.57246   1
   2   3  12 216.017 10.4604  -2
  -2  -3  11 216.017 10.4604   1
   2   3  12 223.536 13.4695  -2
  -2  -3  11 223.536 13.4695   1
   2   3  12 242.910 12.0011  -2
  -2  -3  11 242.910 12.0011   1
  -1  -3 -12 136.607 9.08205  -2
   1   3 -11 136.607 9.08205   1
   1   3  12 117.294 9.78319  -2
  -1  -3  11 117.294 9.78319   1
   1   3  12 138.163 8.92462  -2
  -1  -3  11 138.163 8.92462   1
   1   3  12 120.977 8.77699  -2
  -1  -3  11 120.977 8.77699   1
   1   3  12 118.229 8.03052  -2
  -1  -3  11 118.229 8.03052   1
   0  -3 -12 208.572 11.0066  -2
   0   3 -11 208.572 11.0066   1
   0  -3 -12 218.857 11.1824  -2
   0   3 -11 218.857 11.1824   1
   0   3  12 212.951 13.4958  -2
   0  -3  11 212.951 13.4958   1
   0   3  12 238.980 12.4213  -2
   0  -3  11 238.980 12.4213   1
   0   3  12 217.987 11.5416  -2
   0  -3  11 217.987 11.5416   1
   0   3  12 205.181 11.0841  -2
   0  -3  11 205.181 11.0841   1
   1  -3 -12 17.1601 5.20723  -2
  -1   3 -11 17.1601 5.20723   1
   1  -3 -12 13.5839 5.19478  -2
  -1   3 -11 13.5839 5.19478   1
  -1   3  12 9.75037 5.35870  -2
   1  -3  11 9.75037 5.35870   1
  -1   3  12 20.2377 5.49756  -2
   1  -3  11 20.2377 5.49756   1
  -1   3  12 5.21783 4.29193  -2
   1  -3  11 5.21783 4.29193   1
  -1   3  12 8.84319 4.61028  -2
   1  -3  11 8.84319 4.61028   1
   2  -3 -12 1379.07 34.4228  -2
  -2   3 -11 1379.07 34.4228   1
   2  -3 -12 1405.35 39.0195  -2
  -2   3 -11 1405.35 39.0195   1
  -2   3  12 1396.53 41.5091  -2
   2  -3  11 1396.53 41.5091   1
   3  -3 -12 79.3958 6.20874  -2
  -3   3 -11 79.3958 6.20874   1
   3  -3  11 65.4937 7.83718   1
   3  -3  11 58.5322 6.05708   1
   3   2  12 73.6661 7.79543  -2
  -3  -2  11 73.6661 7.79543   1
   3   2  12 75.8005 5.32861  -2
  -3  -2  11 75.8005 5.32861   1
   3   2  12 63.4862 5.50077  -2
  -3  -2  11 63.4862 5.50077   1
   2   2  12 143.959 8.27684  -2
  -2  -2  11 143.959 8.27684   1
   2   2  12 165.410 9.73165  -2
  -2  -2  11 165.410 9.73165   1
   1   2 -11 -0.8387 1.71351   1
   1   2 -11 -0.2371 2.27317   1
   1   2  12 128.455 9.43977  -2
  -1  -2  11 128.455 9.43977   1
   0   2 -11 4.65709 2.66279   1
   0   2 -11 7.06074 2.94203   1
   0  -2  11 5.08840 2.56465   1
   0  -2  11 7.52309 2.60254   1
   0  -2  11 8.71080 2.90537   1
   0  -2  11 7.30224 3.00370   1
  -1   2 -11 92.0367 7.17950   1
  -1   2 -11 95.6456 7.75956   1
   1  -2  11 91.0981 7.24051   1
   1  -2  11 78.6267 7.74804   1
   1  -2  11 99.7064 6.80598   1
   1  -2  11 98.6088 7.26789   1
  -2   2 -11 237.591 13.1990   1
  -2   2 -11 243.250 11.3472   1
   2  -2  11 236.616 11.5888   1
   2  -2  11 240.334 13.7661   1
  -3   2 -11 29.0705 5.66395   1
  -3   2 -11 21.5182 3.64656   1
   3  -2  11 25.3359 4.24664   1
   3  -2  11 17.4560 4.64990   1
   4  -2 -11 384.659 11.8902  -2
  -4   2 -11 384.659 11.8902   1
   4  -2  11 390.864 17.9518   1
   4  -2  11 347.276 15.3244   1
   4  -2  11 339.158 18.0938   1
  -4  -1  11 259.432 14.2282   1
  -4  -1  11 282.531 9.77074   1
  -3  -1  11 89.7789 5.98473   1
  -3  -1  11 88.4098 8.15314   1
  -3  -1  11 104.049 5.89352   1
   2   1 -11 350.769 15.1258   1
   2   1  11 369.296 14.2256  -2
  -2  -1  11 369.296 14.2256   1
   1   1 -11 121.035 8.69775   1
   1   1 -11 128.842 8.64001   1
   1   1  11 220.669 11.2756  -2
  -1  -1  11 220.669 11.2756   1
   0  -1 -11 1383.88 35.6299  -2
   0   1 -11 1383.88 35.6299   1
   0   1  11 1529.44 36.6046  -2
   0  -1  11 1529.44 36.6046   1
   0   1  11 1401.73 35.1730  -2
   0  -1  11 1401.73 35.1730   1
   1  -1 -11 119.422 7.71024  -2
  -1   1 -11 119.422 7.71024   1
  -1   1  11 114.275 10.4768  -2
   1  -1  11 114.275 10.4768   1
  -1   1  11 128.815 8.87357  -2
   1  -1  11 128.815 8.87357   1
  -1   1  11 139.085 9.28102  -2
   1  -1  11 139.085 9.28102   1
   2  -1 -11 994.992 25.3933  -2
  -2   1 -11 994.992 25.3933   1
   2  -1 -11 1054.33 29.7013  -2
  -2   1 -11 1054.33 29.7013   1
  -2   1  11 1055.69 30.0579  -2
   2  -1  11 1055.69 30.0579   1
  -2   1  11 1004.17 33.0949  -2
   2  -1  11 1004.17 33.0949   1
   3  -1 -11 10.6590 3.14653  -2
  -3   1 -11 10.6590 3.14653   1
   3  -1 -11 18.2226 5.10228  -2
  -3   1 -11 18.2226 5.10228   1
  -3   1  11 14.5570 3.99310  -2
   3  -1  11 14.5570 3.99310   1
  -3   1  11 13.5135 5.59776  -2
   3  -1  11 13.5135 5.59776   1
   4  -1 -11 900.419 29.6415  -2
  -4   1 -11 900.419 29.6415   1
   4  -1 -11 959.552 20.3947  -2
  -4   1 -11 959.552 20.3947   1
  -4   1  11 1005.68 32.2777  -2
   4  -1  11 1005.68 32.2777   1
  -4   1  11 887.561 31.9184  -2
   4  -1  11 887.561 31.9184   1
  -4   1  11 925.092 28.3264  -2
   4  -1  11 925.092 28.3264   1
   4   0  11 229.253 9.16607  -2
  -4   0  11 229.253 9.16607   1
   3   0  11 60.8559 7.35750  -2
  -3   0  11 60.8559 7.35750   1
   3   0  11 61.0136 5.83304  -2
  -3   0  11 61.0136 5.83304   1
   3   0  11 73.3507 5.35010  -2
  -3   0  11 73.3507 5.35010   1
   2   0  11 243.395 10.8984  -2
  -2   0  11 243.395 10.8984   1
   2   0  11 278.685 11.8461  -2
  -2   0  11 278.685 11.8461   1
   2   0  11 250.714 13.9811  -2
  -2   0  11 250.714 13.9811   1
  -1   0 -11 394.560 14.9859  -2
   1   0 -11 394.560 14.9859   1
   1   0  11 409.031 15.1154  -2
  -1   0  11 409.031 15.1154   1
   1   0  11 416.122 18.4509  -2
  -1   0  11 416.122 18.4509   1
   1   0  11 453.352 16.0100  -2
  -1   0  11 453.352 16.0100   1
   0   0 -11 1095.23 29.8760  -2
   0   0 -11 1095.23 29.8760   1
   0   0  11 1255.00 32.2734  -2
   0   0  11 1255.00 32.2734   1
   0   0  11 1387.13 33.8651  -2
   0   0  11 1387.13 33.8651   1
   0   0  11 1269.18 32.3686  -2
   0   0  11 1269.18 32.3686   1
   0   0  11 1227.65 36.7570  -2
   0   0  11 1227.65 36.7570   1
   1   0 -11 365.103 13.7069  -2
  -1   0 -11 365.103 13.7069   1
  -1   0  11 400.657 18.3550  -2
   1   0  11 400.657 18.3550   1
  -1   0  11 412.895 15.6133  -2
   1   0  11 412.895 15.6133   1
  -1   0  11 396.652 15.4263  -2
   1   0  11 396.652 15.4263   1
   2   0 -11 193.340 9.05984  -2
  -2   0 -11 193.340 9.05984   1
   2   0 -11 186.920 9.01603  -2
  -2   0 -11 186.920 9.01603   1
   2   0 -11 218.871 11.4827  -2
  -2   0 -11 218.871 11.4827   1
  -2   0  11 230.838 11.5915  -2
   2   0  11 230.838 11.5915   1
  -2   0  11 193.609 12.8805  -2
   2   0  11 193.609 12.8805   1
   3   0 -11 94.6966 9.27525  -2
  -3   0 -11 94.6966 9.27525   1
   3   0 -11 91.1622 4.86891  -2
  -3   0 -11 91.1622 4.86891   1
   3   0 -11 101.410 6.11950  -2
  -3   0 -11 101.410 6.11950   1
  -3   0  11 103.672 9.85278  -2
   3   0  11 103.672 9.85278   1
  -3   0  11 97.4764 7.99390  -2
   3   0  11 97.4764 7.99390   1
  -3   0  11 115.779 9.91845  -2
   3   0  11 115.779 9.91845   1
  -4   0 -11 103.610 9.49859   1
  -4   0  11 215.347 13.7213  -2
   4   0  11 215.347 13.7213   1
   4  -1  11 1079.12 25.8796  -2
  -4   1  11 1079.12 25.8796   1
   4  -1  11 1049.22 32.9838  -2
  -4   1  11 1049.22 32.9838   1
   4  -1  11 1051.46 24.4348  -2
  -4   1  11 1051.46 24.4348   1
   3  -1  11 11.8907 2.86074  -2
  -3   1  11 11.8907 2.86074   1
   3  -1  11 14.3769 4.70647  -2
  -3   1  11 14.3769 4.70647   1
   3  -1  11 13.3225 3.65510  -2
  -3   1  11 13.3225 3.65510   1
  -2   1 -11 1231.59 32.2056  -2
   2  -1 -11 1231.59 32.2056   1
   2  -1  11 1249.69 36.3987  -2
  -2   1  11 1249.69 36.3987   1
   2  -1  11 1299.13 31.6305  -2
  -2   1  11 1299.13 31.6305   1
   2  -1  11 1271.94 31.7597  -2
  -2   1  11 1271.94 31.7597   1
  -1   1 -11 178.845 10.2550  -2
   1  -1 -11 178.845 10.2550   1
   1  -1  11 195.232 10.1177  -2
  -1   1  11 195.232 10.1177   1
   1  -1  11 209.882 10.7722  -2
  -1   1  11 209.882 10.7722   1
   1  -1  11 162.225 11.3235  -2
  -1   1  11 162.225 11.3235   1
   0   1 -11 832.296 23.0710  -2
   0  -1 -11 832.296 23.0710   1
   0  -1  11 900.459 26.0911  -2
   0   1  11 900.459 26.0911   1
   0  -1  11 838.611 25.4851  -2
   0   1  11 838.611 25.4851   1
  -1  -1 -11 167.862 9.05363   1
   1   1  11 160.289 10.5067   1
   1   1  11 178.710 9.31160   1
   1   1  11 172.304 9.00804   1
  -2  -1 -11 0.72814 1.78935   1
  -2  -1 -11 6.51642 2.87286   1
   2   1  11 5.97583 2.51428   1
   2   1  11 9.08158 3.37825   1
   2   1  11 7.35970 3.09872   1
  -3  -1 -11 322.498 15.5524   1
  -3  -1 -11 322.906 10.5575   1
   3   1  11 334.364 13.9144   1
   3   1  11 333.765 15.3182   1
   3   1  11 346.681 16.6708   1
  -4  -1 -11 22.9304 5.30685   1
   4   1  11 26.2131 5.20679   1
   4   1  11 24.2682 4.17128   1
   4   1  11 34.1789 5.06334   1
  -5  -1 -11 56.9954 7.80540   1
   5   1  11 68.7030 6.51123   1
   5   1  11 74.0914 7.22644   1
   5   1  11 59.4732 7.67756   1
  -4   2  11 21.6756 3.24956   1
  -4   2  11 18.9002 2.82145   1
  -4   2  11 27.5283 5.28163   1
  -3   2  11 82.5414 7.58194   1
  -3   2  11 83.2128 5.75996   1
  -3   2  11 82.3208 6.18679   1
  -2   2 -11 161.522 10.1216  -2
   2  -2 -11 161.522 10.1216   1
  -2   2  11 3.89459 2.00815   1
  -2   2  11 3.58445 2.38460   1
  -2   2  11 3.15507 2.30887   1
  -1   2 -10 247.180 11.6255  -2
   1  -2 -11 247.180 11.6255   1
  -1   2  11 178.669 11.0556   1
  -1   2  11 176.618 9.36721   1
  -1   2  11 166.644 8.95851   1
   0  -2 -11 100.885 7.05295   1
   0  -2  10 242.789 11.8337  -2
   0   2  11 242.789 11.8337   1
   1   2 -10 512.640 16.6059  -2
  -1  -2 -11 512.640 16.6059   1
   1   2  11 518.281 17.6258   1
   1   2  11 520.109 19.8677   1
   2   2 -10 170.793 8.22152  -2
  -2  -2 -11 170.793 8.22152   1
   2   2 -10 181.268 10.9667  -2
  -2  -2 -11 181.268 10.9667   1
  -2  -2  10 203.819 12.2446  -2
   2   2  11 203.819 12.2446   1
  -2  -2  10 190.094 10.3148  -2
   2   2  11 190.094 10.3148   1
   3   2 -10 1308.19 36.7722  -2
  -3  -2 -11 1308.19 36.7722   1
   3   2 -10 1247.28 27.4595  -2
  -3  -2 -11 1247.28 27.4595   1
  -3  -2  10 1415.34 38.3864  -2
   3   2  11 1415.34 38.3864   1
  -3  -2  10 1336.71 38.7119  -2
   3   2  11 1336.71 38.7119   1
  -3  -2  10 1357.83 35.6131  -2
   3   2  11 1357.83 35.6131   1
   4   2 -10 185.138 12.1885  -2
  -4  -2 -11 185.138 12.1885   1
  -4  -2  10 183.561 11.5075  -2
   4   2  11 183.561 11.5075   1
  -4  -2  10 175.932 10.1628  -2
   4   2  11 175.932 10.1628   1
  -4  -2  10 186.857 12.8795  -2
   4   2  11 186.857 12.8795   1
   5   2 -10 668.307 25.2110  -2
  -5  -2 -11 668.307 25.2110   1
  -5  -2  10 728.780 23.1453  -2
   5   2  11 728.780 23.1453   1
  -5  -2  10 741.606 27.4677  -2
   5   2  11 741.606 27.4677   1
  -5  -2  10 729.667 25.6960  -2
   5   2  11 729.667 25.6960   1
   4  -3  10 182.833 9.23851  -2
  -4   3  11 182.833 9.23851   1
  -3   3  11 274.006 11.6858   1
  -3   3  11 292.438 14.4166   1
  -3   3  11 262.771 11.1787   1
  -2   3 -10 101.452 8.03398  -2
   2  -3 -11 101.452 8.03398   1
   2  -3  10 117.823 7.96659  -2
  -2   3  11 117.823 7.96659   1
   2  -3  10 101.337 8.92425  -2
  -2   3  11 101.337 8.92425   1
  -1   3 -10 111.655 7.95672  -2
   1  -3 -11 111.655 7.95672   1
   1  -3  10 128.989 8.48973  -2
  -1   3  11 128.989 8.48973   1
   1  -3  10 120.707 9.35535  -2
  -1   3  11 120.707 9.35535   1
   1  -3  10 140.071 8.13487  -2
  -1   3  11 140.071 8.13487   1
   1  -3  10 132.651 8.44332  -2
  -1   3  11 132.651 8.44332   1
   0   3 -10 55.1027 5.39856  -2
   0  -3 -11 55.1027 5.39856   1
   0  -3  10 57.5394 6.25083  -2
   0   3  11 57.5394 6.25083   1
   0  -3  10 56.6631 5.82354  -2
   0   3  11 56.6631 5.82354   1
   0  -3  10 62.3365 6.07844  -2
   0   3  11 62.3365 6.07844   1
   0  -3  10 51.1279 6.62764  -2
   0   3  11 51.1279 6.62764   1
   1   3 -10 379.343 12.9249  -2
  -1  -3 -11 379.343 12.9249   1
   1   3 -10 354.008 13.0803  -2
  -1  -3 -11 354.008 13.0803   1
  -1  -3  10 486.599 16.9425  -2
   1   3  11 486.599 16.9425   1
  -1  -3  10 458.357 18.5906  -2
   1   3  11 458.357 18.5906   1
   2   3 -10 144.723 6.81597  -2
  -2  -3 -11 144.723 6.81597   1
   2   3 -10 146.710 6.08411  -2
  -2  -3 -11 146.710 6.08411   1
   2   3 -10 159.966 9.74092  -2
  -2  -3 -11 159.966 9.74092   1
  -2  -3  10 127.724 9.86657  -2
   2   3  11 127.724 9.86657   1
  -2  -3  10 130.208 8.50547  -2
   2   3  11 130.208 8.50547   1
  -2  -3  10 121.469 9.26006  -2
   2   3  11 121.469 9.26006   1
   3   3 -10 427.980 17.7084  -2
  -3  -3 -11 427.980 17.7084   1
  -3  -3  10 420.957 18.7883  -2
   3   3  11 420.957 18.7883   1
  -3  -3  10 444.436 19.0068  -2
   3   3  11 444.436 19.0068   1
  -3  -3  10 417.172 16.4818  -2
   3   3  11 417.172 16.4818   1
   4   3 -10 214.434 13.2164  -2
  -4  -3 -11 214.434 13.2164   1
  -4  -3  10 221.583 13.9810  -2
   4   3  11 221.583 13.9810   1
  -4  -3  10 219.015 13.1249  -2
   4   3  11 219.015 13.1249   1
  -4  -3  10 215.543 11.4778  -2
   4   3  11 215.543 11.4778   1
  -5  -3 -11 -0.3402 2.87252   1
   5   3  11 -0.2999 1.97397   1
   5   3  11 1.71246 1.70008   1
   4  -4  10 16.4476 3.20520  -2
  -4   4  11 16.4476 3.20520   1
   4  -4  10 20.8890 4.98258  -2
  -4   4  11 20.8890 4.98258   1
   4  -4  10 17.5670 4.24893  -2
  -4   4  11 17.5670 4.24893   1
   3  -4  10 1000.40 30.5590  -2
  -3   4  11 1000.40 30.5590   1
   3  -4  10 966.936 26.1372  -2
  -3   4  11 966.936 26.1372   1
   3  -4  10 977.268 26.4135  -2
  -3   4  11 977.268 26.4135   1
  -2   4 -10 385.565 15.6546  -2
   2  -4 -11 385.565 15.6546   1
   2  -4  10 443.486 16.1348  -2
  -2   4  11 443.486 16.1348   1
   2  -4  10 458.044 18.4086  -2
  -2   4  11 458.044 18.4086   1
   2  -4  10 430.966 15.7389  -2
  -2   4  11 430.966 15.7389   1
  -1   4 -10 1312.96 34.3827  -2
   1  -4 -11 1312.96 34.3827   1
  -1   4 -10 1411.67 35.3900  -2
   1  -4 -11 1411.67 35.3900   1
   1  -4  10 1432.76 38.8883  -2
  -1   4  11 1432.76 38.8883   1
   1  -4  10 1430.58 35.8025  -2
  -1   4  11 1430.58 35.8025   1
   1  -4  10 1439.79 35.7551  -2
  -1   4  11 1439.79 35.7551   1
   1  -4  10 1637.79 37.7745  -2
  -1   4  11 1637.79 37.7745   1
   0   4 -10 195.958 9.57364  -2
   0  -4 -11 195.958 9.57364   1
   0   4 -10 234.898 10.6337  -2
   0  -4 -11 234.898 10.6337   1
   0  -4  10 234.326 11.3673  -2
   0   4  11 234.326 11.3673   1
   0  -4  10 228.631 12.9060  -2
   0   4  11 228.631 12.9060   1
   0  -4  10 240.746 11.8252  -2
   0   4  11 240.746 11.8252   1
   1   4 -10 576.859 17.6211  -2
  -1  -4 -11 576.859 17.6211   1
  -1  -4  10 646.301 23.1828  -2
   1   4  11 646.301 23.1828   1
  -1  -4  10 661.767 21.6121  -2
   1   4  11 661.767 21.6121   1
  -2  -4 -11 79.6914 7.36042   1
  -2  -4 -11 66.5916 4.69363   1
  -2  -4 -11 66.9214 3.92600   1
   2   4  11 70.3070 5.76217   1
   2   4  11 79.5991 7.06689   1
   2   4  11 82.6430 7.29458   1
  -3  -4 -11 1.88975 2.50650   1
   3   4  11 2.93223 2.39024   1
   3   4  11 1.05180 1.59839   1
   3   4  11 0.16540 1.55133   1
  -4  -4 -11 37.4018 6.63896   1
   4   4  11 36.0642 4.67684   1
   4   4  11 37.3671 5.59971   1
   4   4  11 38.4345 5.41280   1
  -3   5 -10 175.931 10.5653  -2
   3  -5 -11 175.931 10.5653   1
   3  -5  10 158.434 9.67715  -2
  -3   5  11 158.434 9.67715   1
   3  -5  10 155.061 11.1127  -2
  -3   5  11 155.061 11.1127   1
   3  -5  10 141.093 9.22716  -2
  -3   5  11 141.093 9.22716   1
   2  -5 -11 153.670 9.61796   1
   2  -5 -11 140.335 9.12760   1
   2  -5  10 204.568 11.0229  -2
  -2   5  11 204.568 11.0229   1
   1  -5 -11 39.2035 5.20727   1
   1  -5 -11 33.3948 4.67407   1
  -1   5  11 37.4263 5.08767   1
  -1   5  11 39.9136 4.99533   1
  -1   5  11 37.8543 4.68589   1
  -1   5  11 44.4375 4.50478   1
   0  -5 -11 135.557 8.18514   1
   0  -5 -11 124.822 7.64657   1
   0   5  11 142.295 8.16021   1
   0   5  11 137.780 9.15891   1
   0   5  11 142.875 8.51787   1
  -1  -5 -11 -0.3752 1.36346   1
  -1  -5 -11 1.00198 1.69784   1
   1   5  11 0.38087 1.22879   1
   1   5  11 1.36063 1.54058   1
  -2  -5 -11 170.760 7.08803   1
  -2  -5 -11 172.326 10.9269   1
   2   5  11 168.594 9.12145   1
   2   5  11 172.306 10.4021   1
   2   5  11 175.840 10.1975   1
   2   5  11 170.909 10.6634   1
  -3  -5 -11 314.215 15.5374   1
   3   5  11 315.089 15.1491   1
   3   5  11 304.001 12.8875   1
   3   5  11 310.049 14.8413   1
   4   5  -9 358.113 18.2671  -2
  -4  -5 -11 358.113 18.2671   1
   4   5  11 328.993 15.3576   1
   4   5  11 319.357 13.2166   1
   3  -6 -11 88.5853 7.80106   1
   3  -6 -11 95.5802 8.16048   1
  -3   6  11 93.6326 6.95878   1
  -3   6  11 106.361 8.43552   1
  -3   6  11 98.1168 7.50088   1
   2  -6 -11 8.78153 3.20611   1
   2  -6 -11 8.23245 2.84535   1
  -2   6  11 15.8329 4.10353   1
  -2   6  11 11.3798 3.40074   1
  -2   6  11 9.38840 2.99677   1
  -1   6  -9 34.1223 5.47072  -2
   1  -6 -11 34.1223 5.47072   1
   1  -6   9 29.1479 5.98811  -2
  -1   6  11 29.1479 5.98811   1
   0   6  -9 34.0276 5.11040  -2
   0  -6 -11 34.0276 5.11040   1
   0   6  -9 32.6645 4.34761  -2
   0  -6 -11 32.6645 4.34761   1
   0  -6   9 41.5743 5.58738  -2
   0   6  11 41.5743 5.58738   1
   1   6  -9 178.143 7.71527  -2
  -1  -6 -11 178.143 7.71527   1
   1   6  -9 178.285 8.24513  -2
  -1  -6 -11 178.285 8.24513   1
  -1  -6   9 190.925 10.4325  -2
   1   6  11 190.925 10.4325   1
   2   6  -9 465.117 12.5949  -2
  -2  -6 -11 465.117 12.5949   1
   2   6  -9 489.009 19.4663  -2
  -2  -6 -11 489.009 19.4663   1
  -2  -6   9 484.018 20.0707  -2
   2   6  11 484.018 20.0707   1
  -2  -6   9 485.450 19.4045  -2
   2   6  11 485.450 19.4045   1
  -2  -6   9 494.495 18.2632  -2
   2   6  11 494.495 18.2632   1
   3   6  -9 292.815 15.1517  -2
  -3  -6 -11 292.815 15.1517   1
  -3  -6   9 275.047 12.8992  -2
   3   6  11 275.047 12.8992   1
  -3  -6   9 287.919 14.8635  -2
   3   6  11 287.919 14.8635   1
  -3  -6   9 270.864 14.6708  -2
   3   6  11 270.864 14.6708   1
  -2   7  -9 305.036 13.4561  -2
   2  -7 -11 305.036 13.4561   1
  -2   7  -9 274.204 13.0359  -2
   2  -7 -11 274.204 13.0359   1
   2  -7   9 318.613 13.9089  -2
  -2   7  11 318.613 13.9089   1
   2  -7   9 334.086 14.2129  -2
  -2   7  11 334.086 14.2129   1
  -1   7  -9 185.684 9.74707  -2
   1  -7 -11 185.684 9.74707   1
  -1   7  -9 185.780 9.96634  -2
   1  -7 -11 185.780 9.96634   1
   1  -7   9 220.506 11.1991  -2
  -1   7  11 220.506 11.1991   1
   0   7  -9 370.377 13.4713  -2
   0  -7 -11 370.377 13.4713   1
   0   7  -9 386.608 14.1919  -2
   0  -7 -11 386.608 14.1919   1
   0  -7   9 490.334 17.5441  -2
   0   7  11 490.334 17.5441   1
   1   7  -9 968.997 24.3027  -2
  -1  -7 -11 968.997 24.3027   1
   1   7  -9 947.176 22.9718  -2
  -1  -7 -11 947.176 22.9718   1
  -1  -7   9 1059.67 29.3242  -2
   1   7  11 1059.67 29.3242   1
   2   7  -9 527.003 13.3728  -2
  -2  -7 -11 527.003 13.3728   1
  -2  -7   9 549.156 21.2139  -2
   2   7  11 549.156 21.2139   1
  -2  -7   9 529.797 19.2293  -2
   2   7  11 529.797 19.2293   1
  -2  -7   9 568.430 22.1748  -2
   2   7  11 568.430 22.1748   1
  -3  -7 -11 35.9103 6.66770   1
   3   7  11 32.0590 4.52975   1
   3   7  11 42.2015 5.78888   1
   3   7  11 41.6538 6.00758   1
   0  -8 -11 95.7767 6.90054   1
   0  -8 -11 112.485 6.71272   1
  -1  -8 -11 4.06892 1.82347   1
  -1  -8 -11 5.54086 1.73894   1
   0  -3  12 35.2526 5.29792   1
  -1   3 -12 117.746 9.32873   1
   1  -3  12 121.009 8.70063   1
  -2  -2  12 95.9233 6.45281   1
  -2  -2  12 105.555 8.96473   1
  -2  -2  12 106.822 7.53193   1
   1   2 -12 37.1194 6.02644   1
   1   2 -12 28.3598 5.85199   1
  -1  -2  12 37.7211 5.15847   1
  -1  -2  12 29.6703 4.84214   1
  -1  -2  12 23.5307 4.76422   1
  -1  -2  12 34.7762 4.49620   1
   0   2 -12 81.2667 8.12627   1
   0   2 -12 80.7008 7.62445   1
   0  -2  12 92.2385 7.18395   1
   0  -2  12 96.5867 7.47733   1
   0  -2  12 85.3760 8.28896   1
  -1   2 -12 202.486 11.6085   1
   1  -2  12 227.373 11.3727   1
   1  -2  12 229.991 11.5053   1
   1  -2  12 201.391 12.8705   1
  -2   2 -12 154.098 9.36872   1
   2  -2  12 151.208 11.2077   1
   2  -2  12 152.614 9.29931   1
   2   1 -12 125.731 9.43003   1
   2   1  12 368.832 15.0494  -2
  -2  -1  12 368.832 15.0494   1
   1   1 -12 5.41943 3.04461   1
   1   1 -12 6.36861 3.51041   1
   1   1  12 7.09826 5.60825  -2
  -1  -1  12 7.09826 5.60825   1
   0  -1 -12 285.342 12.8669  -2
   0   1 -12 285.342 12.8669   1
   0   1  12 285.381 13.7810  -2
   0  -1  12 285.381 13.7810   1
   1  -1 -12 47.8270 6.34265  -2
  -1   1 -12 47.8270 6.34265   1
  -1   1  12 30.9365 7.00891  -2
   1  -1  12 30.9365 7.00891   1
  -1   1  12 41.2553 6.50635  -2
   1  -1  12 41.2553 6.50635   1
   2  -1 -12 56.7213 6.19967  -2
  -2   1 -12 56.7213 6.19967   1
  -2   1  12 53.0210 8.19019  -2
   2  -1  12 53.0210 8.19019   1
   3  -1 -12 23.6597 6.08790  -2
  -3   1 -12 23.6597 6.08790   1
   3  -1 -12 23.8876 3.76901  -2
  -3   1 -12 23.8876 3.76901   1
  -3   1  12 17.1169 5.73355  -2
   3  -1  12 17.1169 5.73355   1
   3   0  12 133.449 10.6708  -2
  -3   0  12 133.449 10.6708   1
   3   0  12 149.893 7.98194  -2
  -3   0  12 149.893 7.98194   1
   3   0  12 135.887 8.51917  -2
  -3   0  12 135.887 8.51917   1
   2   0  12 62.2727 7.72069  -2
  -2   0  12 62.2727 7.72069   1
   2   0  12 66.7099 6.18671  -2
  -2   0  12 66.7099 6.18671   1
   2   0  12 73.9317 7.23685  -2
  -2   0  12 73.9317 7.23685   1
  -1   0 -12 408.462 15.7684  -2
   1   0 -12 408.462 15.7684   1
   1   0  12 444.873 16.6099  -2
  -1   0  12 444.873 16.6099   1
   1   0  12 374.340 18.5420  -2
  -1   0  12 374.340 18.5420   1
   1   0  12 438.122 16.2028  -2
  -1   0  12 438.122 16.2028   1
   0   0 -12 141.477 8.73612  -2
   0   0 -12 141.477 8.73612   1
   0   0  12 169.877 10.0245  -2
   0   0  12 169.877 10.0245   1
   0   0  12 152.379 9.38769  -2
   0   0  12 152.379 9.38769   1
   0   0  12 143.261 11.1307  -2
   0   0  12 143.261 11.1307   1
   1   0 -12 343.411 13.8525  -2
  -1   0 -12 343.411 13.8525   1
  -1   0  12 390.552 15.7344  -2
   1   0  12 390.552 15.7344   1
  -1   0  12 338.765 17.9922  -2
   1   0  12 338.765 17.9922   1
  -1   0  12 388.441 15.5856  -2
   1   0  12 388.441 15.5856   1
   2   0 -12 53.4681 5.39409  -2
  -2   0 -12 53.4681 5.39409   1
  -2   0  12 52.4636 7.80145  -2
   2   0  12 52.4636 7.80145   1
  -2   0  12 50.2612 6.36881  -2
   2   0  12 50.2612 6.36881   1
   3   0 -12 134.266 7.05823  -2
  -3   0 -12 134.266 7.05823   1
   3   0 -12 148.178 5.99493  -2
  -3   0 -12 148.178 5.99493   1
   3   0 -12 133.578 10.7575  -2
  -3   0 -12 133.578 10.7575   1
  -3   0  12 120.537 11.6048  -2
   3   0  12 120.537 11.6048   1
   3  -1  12 31.8493 5.01394  -2
  -3   1  12 31.8493 5.01394   1
   3  -1  12 18.8524 3.41960  -2
  -3   1  12 18.8524 3.41960   1
   3  -1  12 28.4358 5.77165  -2
  -3   1  12 28.4358 5.77165   1
   2  -1  12 32.0370 5.72559  -2
  -2   1  12 32.0370 5.72559   1
   2  -1  12 34.2259 5.21267  -2
  -2   1  12 34.2259 5.21267   1
   2  -1  12 37.3166 6.60569  -2
  -2   1  12 37.3166 6.60569   1
  -1   1 -12 76.3347 7.58981  -2
   1  -1 -12 76.3347 7.58981   1
   1  -1  12 75.4866 7.65002  -2
  -1   1  12 75.4866 7.65002   1
   1  -1  12 73.5743 8.54281  -2
  -1   1  12 73.5743 8.54281   1
   1  -1  12 75.5072 7.17650  -2
  -1   1  12 75.5072 7.17650   1
   0   1 -12 395.791 15.7368  -2
   0  -1 -12 395.791 15.7368   1
   0   1 -12 381.094 15.3513  -2
   0  -1 -12 381.094 15.3513   1
   0  -1  12 382.838 15.5735  -2
   0   1  12 382.838 15.5735   1
   0  -1  12 383.629 15.6673  -2
   0   1  12 383.629 15.6673   1
  -1  -1 -12 -0.1679 1.96161   1
   1   1  12 -0.2183 1.75871   1
   1   1  12 -1.4005 1.03024   1
   1   1  12 -1.1302 1.49473   1
  -2  -1 -12 386.786 14.0976   1
   2   1  12 401.990 18.4127   1
   2   1  12 400.628 15.6027   1
  -3  -1 -12 29.0562 3.39335   1
  -3  -1 -12 31.7414 5.93823   1
   3   1  12 32.5094 4.43381   1
   3   1  12 28.5308 5.47065   1
   3   1  12 32.6573 5.23095   1
  -3   2  12 13.5325 2.78980   1
  -3   2  12 13.7513 4.23096   1
  -3   2  12 11.1534 3.27723   1
  -2   2 -12 139.871 10.3025  -2
   2  -2 -12 139.871 10.3025   1
  -2   2  12 33.4503 4.83405   1
  -2   2  12 27.1478 4.14721   1
  -2   2  12 43.6421 6.10347   1
   1  -2 -12 44.9855 5.85903   1
  -1   2  12 35.8790 5.52753   1
  -1   2  12 43.1473 4.90418   1
  -1   2  12 46.4670 5.33525   1
   0  -2 -12 21.6735 4.50125   1
   0  -2  11 23.7310 6.19812  -2
   0   2  12 23.7310 6.19812   1
   1   2 -11 180.699 10.1291  -2
  -1  -2 -12 180.699 10.1291   1
   1   2  12 189.534 10.0622   1
   1   2  12 210.686 12.3201   1
   2   2 -11 148.520 7.71256  -2
  -2  -2 -12 148.520 7.71256   1
  -2  -2  11 136.888 9.61224  -2
   2   2  12 136.888 9.61224   1
   3   2 -11 73.6113 4.45614  -2
  -3  -2 -12 73.6113 4.45614   1
   3   2 -11 76.8574 8.42579  -2
  -3  -2 -12 76.8574 8.42579   1
  -3  -2  11 78.9750 7.69524  -2
   3   2  12 78.9750 7.69524   1
  -3  -2  11 69.2278 8.73981  -2
   3   2  12 69.2278 8.73981   1
  -3  -2  11 87.8581 9.08070  -2
   3   2  12 87.8581 9.08070   1
  -3   3  12 57.7896 6.70814   1
  -3   3  12 40.4663 4.77351   1
  -3   3  12 54.2173 5.78095   1
  -2   3 -11 1206.12 31.9122  -2
   2  -3 -12 1206.12 31.9122   1
   2  -3  11 1166.47 35.7361  -2
  -2   3  12 1166.47 35.7361   1
   2  -3  11 1207.10 31.6516  -2
  -2   3  12 1207.10 31.6516   1
  -1   3 -11 6.56878 4.44083  -2
   1  -3 -12 6.56878 4.44083   1
   1  -3  11 10.2125 4.20063  -2
  -1   3  12 10.2125 4.20063   1
   1  -3  11 14.8210 4.91093  -2
  -1   3  12 14.8210 4.91093   1
   1  -3  11 13.1945 5.05967  -2
  -1   3  12 13.1945 5.05967   1
   0   3 -11 258.559 11.9313  -2
   0  -3 -12 258.559 11.9313   1
   0  -3  11 308.038 13.5065  -2
   0   3  12 308.038 13.5065   1
   0  -3  11 309.057 13.2840  -2
   0   3  12 309.057 13.2840   1
   0  -3  11 295.745 15.2919  -2
   0   3  12 295.745 15.2919   1
   1   3 -11 138.902 7.53278  -2
  -1  -3 -12 138.902 7.53278   1
   1   3 -11 149.354 8.22467  -2
  -1  -3 -12 149.354 8.22467   1
  -1  -3  11 206.936 12.7419  -2
   1   3  12 206.936 12.7419   1
  -1  -3  11 204.166 10.8002  -2
   1   3  12 204.166 10.8002   1
   2   3 -11 344.298 11.9431  -2
  -2  -3 -12 344.298 11.9431   1
   2   3 -11 326.395 10.6609  -2
  -2  -3 -12 326.395 10.6609   1
  -2  -3  11 388.675 15.7200  -2
   2   3  12 388.675 15.7200   1
  -2  -3  11 448.697 19.2240  -2
   2   3  12 448.697 19.2240   1
   3   3 -11 67.6099 8.15962  -2
  -3  -3 -12 67.6099 8.15962   1
   3   3 -11 62.7247 3.56077  -2
  -3  -3 -12 62.7247 3.56077   1
  -3  -3  11 60.9532 8.06935  -2
   3   3  12 60.9532 8.06935   1
  -3  -3  11 75.6342 8.40485  -2
   3   3  12 75.6342 8.40485   1
  -3  -3  11 52.6351 6.51277  -2
   3   3  12 52.6351 6.51277   1
  -2   4 -11 253.321 12.7290  -2
   2  -4 -12 253.321 12.7290   1
   2  -4  11 282.937 13.1587  -2
  -2   4  12 282.937 13.1587   1
   2  -4  11 291.696 12.9475  -2
  -2   4  12 291.696 12.9475   1
   2  -4  11 240.297 13.8657  -2
  -2   4  12 240.297 13.8657   1
  -1   4 -11 22.5970 4.59479  -2
   1  -4 -12 22.5970 4.59479   1
  -1   4 -11 12.6539 5.01278  -2
   1  -4 -12 12.6539 5.01278   1
   1  -4  11 22.3499 5.15647  -2
  -1   4  12 22.3499 5.15647   1
   1  -4  11 14.9291 4.84381  -2
  -1   4  12 14.9291 4.84381   1
   1  -4  11 15.7998 4.36760  -2
  -1   4  12 15.7998 4.36760   1
   0   4 -11 18.3726 5.02078  -2
   0  -4 -12 18.3726 5.02078   1
   0   4 -11 13.7797 4.13462  -2
   0  -4 -12 13.7797 4.13462   1
   0  -4  11 24.6465 5.48606  -2
   0   4  12 24.6465 5.48606   1
   0  -4  11 29.1840 5.30436  -2
   0   4  12 29.1840 5.30436   1
   1   4 -11 326.189 11.8521  -2
  -1  -4 -12 326.189 11.8521   1
   1   4 -11 329.844 12.4798  -2
  -1  -4 -12 329.844 12.4798   1
  -1  -4  11 351.404 15.5115  -2
   1   4  12 351.404 15.5115   1
  -1  -4  11 355.539 17.5521  -2
   1   4  12 355.539 17.5521   1
  -2  -4 -12 -0.0228 1.10847   1
  -2  -4 -12 0.16306 1.39137   1
   2   4  12 -0.1676 1.71438   1
   2   4  12 1.32176 1.44864   1
  -3  -4 -12 296.581 15.6001   1
   3   4  12 312.327 15.3325   1
   3   4  12 307.055 15.1626   1
   3   4  12 270.360 12.7735   1
   2  -5 -12 96.3049 8.02641   1
   2  -5 -12 75.4372 7.29492   1
  -2   5  12 86.9536 7.11879   1
  -2   5  12 92.0802 7.61313   1
  -2   5  12 87.4706 7.87395   1
   1  -5 -12 91.8077 7.44670   1
   1  -5 -12 86.8371 7.50933   1
  -1   5  12 92.7474 7.43734   1
  -1   5  12 91.3102 8.00871   1
  -1   5  12 99.7872 7.52615   1
   0  -5 -12 218.164 11.0851   1
   0  -5 -12 212.746 10.3466   1
   0   5  12 245.109 12.3567   1
   0   5  12 218.856 12.2526   1
   0   5  12 240.695 11.1127   1
  -1  -5 -12 319.865 11.7718   1
  -1  -5 -12 316.523 12.2652   1
   1   5  12 332.908 13.7690   1
   1   5  12 336.314 15.1181   1
  -2  -5 -12 91.0764 5.31354   1
   2   5  12 109.999 8.50743   1
   2   5  12 88.0584 6.88677   1
   0   6 -10 18.6964 3.82788  -2
   0  -6 -12 18.6964 3.82788   1
   0   6 -10 18.2702 4.79757  -2
   0  -6 -12 18.2702 4.79757   1
   0  -6  10 30.2861 5.56235  -2
   0   6  12 30.2861 5.56235   1
   1   6 -10 550.417 16.9110  -2
  -1  -6 -12 550.417 16.9110   1
   1   6 -10 607.307 16.5106  -2
  -1  -6 -12 607.307 16.5106   1
   0  -1 -13 404.562 16.6538   1
   0   1  13 392.533 16.0162   1
   0   2  13 166.967 9.79297   1
   0   0   0    0.00    0.00   0
;
_shelx_hkl_checksum              48388
loop_
_space_group_symop_operation_xyz
'x, y, z'
'-x, -y, -z'
loop_
_atom_site_label
_atom_site_type_symbol
_atom_site_fract_x
_atom_site_fract_y
_atom_site_fract_z
_atom_site_U_iso_or_equiv
_atom_site_adp_type
_atom_site_occupancy
_atom_site_site_symmetry_order
_atom_site_calc_flag
_atom_site_refinement_flags_posn
_atom_site_refinement_flags_adp
_atom_site_refinement_flags_occupancy
C1 C 0.6302(5) 1.2075(3) 0.7470(3) 0.0107(8) Uani 1 1 d . . .
C2 C 0.9559(5) 1.1487(3) 0.7731(3) 0.0100(8) Uani 1 1 d . . .
C3 C 0.8341(5) 0.6876(3) 0.7632(3) 0.0106(7) Uani 1 1 d . . .
C4 C 0.5032(5) 0.7490(3) 0.7622(3) 0.0106(8) Uani 1 1 d . . .
C5 C 0.8547(5) 1.3148(3) 0.5927(3) 0.0122(8) Uani 1 1 d . . .
H5A H 0.9662 1.3015 0.5470 0.018 Uiso 1 1 calc R U .
H5B H 0.8663 1.3833 0.6454 0.018 Uiso 1 1 calc R U .
H5C H 0.7606 1.3414 0.5332 0.018 Uiso 1 1 calc R U .
C6 C 0.8099(5) 1.1882(3) 0.6739(3) 0.0094(8) Uani 1 1 d . . .
C7 C 0.7821(5) 1.0786(3) 0.5954(3) 0.0097(8) Uani 1 1 d . . .
C8 C 0.7880(5) 1.0997(3) 0.4657(3) 0.0130(8) Uani 1 1 d . . .
H8 H 0.8186 1.1817 0.4215 0.016 Uiso 1 1 calc R U .
C9 C 0.7481(5) 0.9982(3) 0.4027(3) 0.0125(8) Uani 1 1 d . . .
H9 H 0.7481 1.0114 0.3141 0.015 Uiso 1 1 calc R U .
C10 C 0.7083(5) 0.8778(3) 0.4672(3) 0.0125(8) Uani 1 1 d . . .
H10 H 0.6812 0.8080 0.4240 0.015 Uiso 1 1 calc R U .
C11 C 0.7088(5) 0.8615(3) 0.5969(3) 0.0093(7) Uani 1 1 d . . .
C12 C 0.6712(5) 0.7304(3) 0.6776(3) 0.0095(8) Uani 1 1 d . . .
C13 C 0.6409(5) 0.6248(3) 0.5961(3) 0.0131(8) Uani 1 1 d . . .
H13A H 0.5410 0.6526 0.5420 0.020 Uiso 1 1 calc R U .
H13B H 0.6154 0.5429 0.6495 0.020 Uiso 1 1 calc R U .
H13C H 0.7469 0.6112 0.5447 0.020 Uiso 1 1 calc R U .
N1 N 0.7422(4) 0.9623(3) 0.6576(2) 0.0080(6) Uani 1 1 d . . .
O2 O 0.6005(3) 1.1220(2) 0.8429(2) 0.0118(5) Uani 1 1 d . . .
O1 O 0.9514(3) 1.0384(2) 0.8417(2) 0.0106(5) Uani 1 1 d . . .
O4 O 0.8700(3) 0.7588(2) 0.8435(2) 0.0121(6) Uani 1 1 d . . .
O3 O 0.5058(3) 0.8331(2) 0.8384(2) 0.0122(5) Uani 1 1 d . . .
O6 O 0.5289(4) 1.2997(2) 0.7084(2) 0.0179(6) Uani 1 1 d . . .
O5 O 1.0669(4) 1.2295(2) 0.7844(2) 0.0164(6) Uani 1 1 d . . .
O8 O 0.9179(4) 0.5841(2) 0.7483(2) 0.0164(6) Uani 1 1 d . . .
O7 O 0.3766(4) 0.6829(2) 0.7532(2) 0.0143(6) Uani 1 1 d . . .
O9 O 0.7087(4) 0.9098(2) 1.04509(19) 0.0120(5) Uani 1 1 d . . .
H9X H 0.5981 0.8932 1.0791 0.014 Uiso 1 1 d R U .
H9Y H 0.7923 0.8664 1.0759 0.014 Uiso 1 1 d R U .
O10 O 0.2628(8) 0.5864(5) 1.0612(5) 0.064(2) Uani 0.744(9) 1 d . . P
O10A O 0.1116(16) 0.5747(9) 1.0237(9) 0.018(4) Uani 0.256(9) 1 d . . P
O11 O 0.3693(7) 0.3970(4) 0.9538(3) 0.0672(13) Uani 1 1 d . . .
K1 K 0.17709(11) 0.82794(7) 0.94123(7) 0.01317(19) Uani 1 1 d . . .
K2 K 0.23675(18) 0.45655(11) 0.7246(2) 0.0154(5) Uani 0.703(6) 1 d . . P
K2A K 0.2337(4) 0.4542(3) 0.8053(7) 0.0228(15) Uani 0.297(6) 1 d . . P
Zn1 Zn 0.72581(6) 0.93383(4) 0.85273(3) 0.00917(12) Uani 1 1 d . . .
loop_
_atom_site_aniso_label
_atom_site_aniso_U_11
_atom_site_aniso_U_22
_atom_site_aniso_U_33
_atom_site_aniso_U_23
_atom_site_aniso_U_13
_atom_site_aniso_U_12
C1 0.011(2) 0.0104(17) 0.0123(17) -0.0054(13) -0.0009(15) -0.0033(15)
C2 0.012(2) 0.0110(16) 0.0073(15) -0.0037(12) 0.0019(14) 0.0021(16)
C3 0.0090(19) 0.0102(16) 0.0117(16) 0.0022(13) 0.0017(15) -0.0028(15)
C4 0.014(2) 0.0064(15) 0.0104(16) 0.0023(12) -0.0024(15) 0.0009(16)
C5 0.013(2) 0.0100(17) 0.0127(17) 0.0004(13) 0.0006(15) -0.0017(15)
C6 0.009(2) 0.0067(15) 0.0126(16) -0.0012(13) -0.0007(15) -0.0004(15)
C7 0.009(2) 0.0092(16) 0.0115(16) -0.0020(12) -0.0020(14) 0.0008(15)
C8 0.013(2) 0.0109(17) 0.0135(17) 0.0005(13) 0.0022(15) 0.0008(15)
C9 0.013(2) 0.0147(17) 0.0091(15) -0.0019(13) 0.0010(15) 0.0012(15)
C10 0.012(2) 0.0116(17) 0.0141(17) -0.0042(13) 0.0005(16) 0.0007(16)
C11 0.0059(19) 0.0102(16) 0.0119(16) -0.0023(13) -0.0012(14) 0.0002(15)
C12 0.012(2) 0.0075(16) 0.0089(16) 0.0001(12) 0.0011(15) -0.0011(15)
C13 0.016(2) 0.0115(17) 0.0124(17) -0.0033(13) -0.0029(15) -0.0011(16)
N1 0.0068(16) 0.0080(13) 0.0092(12) -0.0018(11) -0.0007(13) 0.0010(12)
O2 0.0120(14) 0.0099(11) 0.0132(12) -0.0007(9) 0.0022(11) -0.0012(11)
O1 0.0103(14) 0.0105(11) 0.0108(12) 0.0001(9) -0.0016(11) -0.0024(10)
O4 0.0140(15) 0.0104(11) 0.0127(12) -0.0044(9) -0.0037(11) 0.0005(11)
O3 0.0108(14) 0.0137(12) 0.0132(12) -0.0047(9) 0.0024(11) -0.0034(11)
O6 0.0131(15) 0.0128(12) 0.0255(14) 0.0031(10) 0.0010(12) 0.0039(11)
O5 0.0145(15) 0.0120(12) 0.0229(13) -0.0003(10) -0.0071(12) -0.0041(12)
O8 0.0160(16) 0.0120(12) 0.0219(13) -0.0064(10) -0.0039(11) 0.0046(11)
O7 0.0117(15) 0.0140(12) 0.0180(13) -0.0037(10) -0.0003(11) -0.0042(12)
O9 0.0077(14) 0.0163(12) 0.0113(11) 0.0005(10) 0.0005(11) -0.0010(10)
O10 0.038(4) 0.049(3) 0.087(4) 0.045(3) 0.020(3) 0.013(3)
O10A 0.017(8) 0.015(5) 0.018(5) 0.008(4) -0.001(5) 0.000(5)
O11 0.089(4) 0.056(2) 0.052(2) 0.0027(19) 0.007(2) 0.009(2)
K1 0.0132(4) 0.0136(4) 0.0128(4) -0.0022(3) 0.0001(3) -0.0006(3)
K2 0.0132(7) 0.0103(6) 0.0230(14) -0.0029(5) 0.0001(6) -0.0010(5)
K2A 0.0166(18) 0.0133(14) 0.039(4) -0.0033(14) -0.0009(16) -0.0033(12)
Zn1 0.0109(2) 0.00829(19) 0.00842(18) -0.00135(15) -0.00051(18) -0.00105(16)
loop_
_atom_type_symbol
_atom_type_description
_atom_type_scat_dispersion_real
_atom_type_scat_dispersion_imag
_atom_type_scat_source
C C 0.0033 0.0016 'International Tables Vol C Tables 4.2.6.8 and 6.1.1.4'
H H 0.0000 0.0000 'International Tables Vol C Tables 4.2.6.8 and 6.1.1.4'
N N 0.0061 0.0033 'International Tables Vol C Tables 4.2.6.8 and 6.1.1.4'
O O 0.0106 0.0060 'International Tables Vol C Tables 4.2.6.8 and 6.1.1.4'
K K 0.2009 0.2494 'International Tables Vol C Tables 4.2.6.8 and 6.1.1.4'
Zn Zn 0.2839 1.4301 'International Tables Vol C Tables 4.2.6.8 and 6.1.1.4'
loop_
_geom_angle_atom_site_label_1
_geom_angle_atom_site_label_2
_geom_angle_atom_site_label_3
_geom_angle
_geom_angle_site_symmetry_1
_geom_angle_site_symmetry_3
O6 C1 O2 125.1(3) . .
O6 C1 C6 118.6(3) . .
O2 C1 C6 116.2(3) . .
O5 C2 O1 122.9(3) . .
O5 C2 C6 118.0(3) . .
O1 C2 C6 119.0(3) . .
O5 C2 K1 87.93(19) . 2_677
O1 C2 K1 67.11(17) . 2_677
C6 C2 K1 113.9(2) . 2_677
O8 C3 O4 124.1(3) . .
O8 C3 C12 117.6(3) . .
O4 C3 C12 118.4(3) . .
O7 C4 O3 123.1(3) . .
O7 C4 C12 118.9(3) . .
O3 C4 C12 118.0(3) . .
O7 C4 K1 68.8(2) . .
O3 C4 K1 54.39(19) . .
C12 C4 K1 171.8(2) . .
C6 C5 H5A 109.5 . .
C6 C5 H5B 109.5 . .
H5A C5 H5B 109.5 . .
C6 C5 H5C 109.5 . .
H5A C5 H5C 109.5 . .
H5B C5 H5C 109.5 . .
C5 C6 C7 111.7(3) . .
C5 C6 C2 109.6(3) . .
C7 C6 C2 112.2(2) . .
C5 C6 C1 110.2(3) . .
C7 C6 C1 105.6(3) . .
C2 C6 C1 107.4(3) . .
N1 C7 C8 120.8(3) . .
N1 C7 C6 116.8(3) . .
C8 C7 C6 122.2(3) . .
C9 C8 C7 118.3(3) . .
C9 C8 H8 120.9 . .
C7 C8 H8 120.9 . .
C10 C9 C8 120.8(3) . .
C10 C9 H9 119.6 . .
C8 C9 H9 119.6 . .
C9 C10 C11 118.3(3) . .
C9 C10 H10 120.8 . .
C11 C10 H10 120.8 . .
N1 C11 C10 120.5(3) . .
N1 C11 C12 117.0(3) . .
C10 C11 C12 122.5(3) . .
C13 C12 C11 111.1(3) . .
C13 C12 C4 109.2(3) . .
C11 C12 C4 109.3(2) . .
C13 C12 C3 109.8(3) . .
C11 C12 C3 108.4(3) . .
C4 C12 C3 109.1(2) . .
C12 C13 H13A 109.5 . .
C12 C13 H13B 109.5 . .
H13A C13 H13B 109.5 . .
C12 C13 H13C 109.5 . .
H13A C13 H13C 109.5 . .
H13B C13 H13C 109.5 . .
C7 N1 C11 121.2(3) . .
C7 N1 Zn1 120.4(2) . .
C11 N1 Zn1 118.4(2) . .
C1 O2 Zn1 119.2(2) . .
C1 O2 K1 109.7(2) . 2_677
Zn1 O2 K1 88.80(8) . 2_677
C2 O1 Zn1 120.0(2) . .
C2 O1 K1 140.6(2) . 1_655
Zn1 O1 K1 96.03(8) . 1_655
C2 O1 K1 89.94(18) . 2_677
Zn1 O1 K1 90.77(8) . 2_677
K1 O1 K1 106.02(7) 1_655 2_677
C3 O4 Zn1 119.9(2) . .
C3 O4 K1 134.9(2) . 1_655
Zn1 O4 K1 97.17(9) . 1_655
C4 O3 Zn1 120.6(2) . .
C4 O3 K1 102.9(2) . .
Zn1 O3 K1 136.43(10) . .
C1 O6 K2 153.3(2) . 1_565
C1 O6 K2A 138.1(3) . 1_565
K2 O6 K2A 17.09(9) 1_565 1_565
C2 O5 K2 156.0(2) . 1_665
C2 O5 K2A 164.5(2) . 1_665
K2 O5 K2A 18.29(11) 1_665 1_665
C3 O8 K2 147.9(3) . 1_655
C3 O8 K2A 140.5(3) . 1_655
K2 O8 K2A 18.39(11) 1_655 1_655
C4 O7 K2A 147.9(2) . .
C4 O7 K2 151.6(2) . .
K2A O7 K2 18.81(12) . .
C4 O7 K1 89.0(2) . .
K2A O7 K1 99.50(15) . .
K2 O7 K1 113.48(10) . .
Zn1 O9 K1 93.33(8) . 2_677
Zn1 O9 H9X 115.2 . .
K1 O9 H9X 114.8 2_677 .
Zn1 O9 H9Y 111.6 . .
K1 O9 H9Y 100.1 2_677 .
H9X O9 H9Y 118.2 . .
O10A O10 K1 77.0(5) . .
O10A O10 K2A 62.9(6) . .
K1 O10 K2A 92.08(17) . .
O10 O10A K1 76.3(5) . .
O10 O10A K2A 94.8(6) . .
K1 O10A K2A 100.0(3) . .
O10 O10A K2A 125.3(6) . 2_567
K1 O10A K2A 112.5(3) . 2_567
K2A O10A K2A 132.4(4) . 2_567
K2A O11 K2 11.33(14) . .
O3 K1 O10 88.44(13) . .
O3 K1 O10A 107.6(2) . .
O10 K1 O10A 26.7(2) . .
O3 K1 O4 128.88(8) . 1_455
O10 K1 O4 95.31(16) . 1_455
O10A K1 O4 68.9(2) . 1_455
O3 K1 O1 113.74(7) . 1_455
O10 K1 O1 156.37(14) . 1_455
O10A K1 O1 130.8(3) . 1_455
O4 K1 O1 64.85(7) 1_455 1_455
O3 K1 O9 74.81(7) . 2_677
O10 K1 O9 134.77(16) . 2_677
O10A K1 O9 157.1(2) . 2_677
O4 K1 O9 128.00(7) 1_455 2_677
O1 K1 O9 63.15(7) 1_455 2_677
O3 K1 O1 126.07(8) . 2_677
O10 K1 O1 100.14(13) . 2_677
O10A K1 O1 102.1(2) . 2_677
O4 K1 O1 103.42(8) 1_455 2_677
O1 K1 O1 73.98(7) 1_455 2_677
O9 K1 O1 61.57(7) 2_677 2_677
O3 K1 O7 44.89(7) . .
O10 K1 O7 73.61(13) . .
O10A K1 O7 77.1(2) . .
O4 K1 O7 87.54(8) 1_455 .
O1 K1 O7 115.82(7) 1_455 .
O9 K1 O7 115.37(7) 2_677 .
O1 K1 O7 167.99(7) 2_677 .
O3 K1 O2 77.51(8) . 2_677
O10 K1 O2 75.83(16) . 2_677
O10A K1 O2 98.1(2) . 2_677
O4 K1 O2 152.53(8) 1_455 2_677
O1 K1 O2 115.49(7) 1_455 2_677
O9 K1 O2 59.76(6) 2_677 2_677
O1 K1 O2 54.24(7) 2_677 2_677
O7 K1 O2 113.82(7) . 2_677
O3 K1 C4 22.70(8) . .
O10 K1 C4 80.97(13) . .
O10A K1 C4 92.8(2) . .
O4 K1 C4 107.94(9) 1_455 .
O1 K1 C4 116.25(8) 1_455 .
O9 K1 C4 95.08(8) 2_677 .
O1 K1 C4 148.39(9) 2_677 .
O7 K1 C4 22.21(8) . .
O2 K1 C4 96.45(9) 2_677 .
O3 K1 C2 129.95(9) . 2_677
O10 K1 C2 77.77(13) . 2_677
O10A K1 C2 79.8(2) . 2_677
O4 K1 C2 100.42(9) 1_455 2_677
O1 K1 C2 92.70(8) 1_455 2_677
O9 K1 C2 81.65(8) 2_677 2_677
O1 K1 C2 22.95(7) 2_677 2_677
O7 K1 C2 150.89(7) . 2_677
O2 K1 C2 52.53(9) 2_677 2_677
C4 K1 C2 145.84(9) . 2_677
O3 K1 Zn1 138.78(6) . 1_455
O10 K1 Zn1 122.64(14) . 1_455
O10A K1 Zn1 96.7(2) . 1_455
O4 K1 Zn1 34.32(5) 1_455 1_455
O1 K1 Zn1 34.19(5) 1_455 1_455
O9 K1 Zn1 95.30(5) 2_677 1_455
O1 K1 Zn1 78.21(5) 2_677 1_455
O7 K1 Zn1 113.79(6) . 1_455
O2 K1 Zn1 132.15(5) 2_677 1_455
C4 K1 Zn1 127.96(7) . 1_455
C2 K1 Zn1 86.16(7) 2_677 1_455
K2A K2 O7 77.5(2) . .
K2A K2 O11 26.0(2) . .
O7 K2 O11 78.94(12) . .
K2A K2 O6 97.5(2) . 1_545
O7 K2 O6 101.35(9) . 1_545
O11 K2 O6 71.88(11) . 1_545
K2A K2 O8 81.6(2) . 1_455
O7 K2 O8 86.12(9) . 1_455
O11 K2 O8 107.58(13) . 1_455
O6 K2 O8 172.14(10) 1_545 1_455
K2A K2 O5 82.1(2) . 1_445
O7 K2 O5 159.24(13) . 1_445
O11 K2 O5 84.50(12) . 1_445
O6 K2 O5 85.11(8) 1_545 1_445
O8 K2 O5 87.03(9) 1_455 1_445
K2A K2 K1 54.4(2) . .
O7 K2 K1 35.48(6) . .
O11 K2 K1 69.86(9) . .
O6 K2 K1 126.35(8) 1_545 .
O8 K2 K1 59.26(6) 1_455 .
O5 K2 K1 126.07(9) 1_445 .
K2 K2A O11 142.7(4) . .
K2 K2A O7 83.7(3) . .
O11 K2A O7 95.2(2) . .
K2 K2A O8 80.0(3) . 1_455
O11 K2A O8 137.3(3) . 1_455
O7 K2A O8 86.81(12) . 1_455
K2 K2A O5 79.6(3) . 1_445
O11 K2A O5 100.5(2) . 1_445
O7 K2A O5 162.8(3) . 1_445
O8 K2A O5 86.40(13) 1_455 1_445
K2 K2A O10A 148.6(3) . .
O11 K2A O10A 65.9(3) . .
O7 K2A O10A 79.9(2) . .
O8 K2A O10A 72.6(2) 1_455 .
O5 K2A O10A 113.0(3) 1_445 .
K2 K2A O6 65.4(3) . 1_545
O11 K2A O6 77.72(16) . 1_545
O7 K2A O6 96.41(15) . 1_545
O8 K2A O6 144.6(3) 1_455 1_545
O5 K2A O6 80.26(13) 1_445 1_545
O10A K2A O6 142.7(3) . 1_545
K2 K2A O10A 124.8(4) . 2_567
O11 K2A O10A 87.9(3) . 2_567
O7 K2A O10A 120.2(2) . 2_567
O8 K2A O10A 55.56(19) 1_455 2_567
O5 K2A O10A 67.8(2) 1_445 2_567
O10A K2A O10A 47.6(4) . 2_567
O6 K2A O10A 141.9(2) 1_545 2_567
K2 K2A O10 153.2(3) . .
O11 K2A O10 49.6(2) . .
O7 K2A O10 70.15(15) . .
O8 K2A O10 92.39(17) 1_455 .
O5 K2A O10 125.9(2) 1_445 .
O10A K2A O10 22.3(2) . .
O6 K2A O10 121.95(19) 1_545 .
O10A K2A O10 67.5(3) 2_567 .
K2 K2A K1 116.2(2) . .
O11 K2A K1 85.6(2) . .
O7 K2A K1 43.54(9) . .
O8 K2A K1 66.95(9) 1_455 .
O5 K2A K1 144.36(16) 1_445 .
O10A K2A K1 38.13(19) . .
O6 K2A K1 134.98(12) 1_545 .
O10A K2A K1 77.5(2) 2_567 .
O10 K2A K1 38.67(8) . .
K2 K2A K1 119.3(3) . 2_567
O11 K2A K1 78.5(2) . 2_567
O7 K2A K1 149.36(19) . 2_567
O8 K2A K1 78.54(11) 1_455 2_567
O5 K2A K1 43.16(10) 1_445 2_567
O10A K2A K1 70.1(2) . 2_567
O6 K2A K1 111.14(9) 1_545 2_567
O10A K2A K1 30.79(17) 2_567 2_567
O10 K2A K1 83.61(16) . 2_567
K1 K2A K1 105.83(12) . 2_567
O3 Zn1 O9 93.19(10) . .
O3 Zn1 O1 172.36(8) . .
O9 Zn1 O1 94.45(10) . .
O3 Zn1 O4 86.92(10) . .
O9 Zn1 O4 94.85(9) . .
O1 Zn1 O4 92.22(10) . .
O3 Zn1 N1 87.30(11) . .
O9 Zn1 N1 178.83(9) . .
O1 Zn1 N1 85.07(11) . .
O4 Zn1 N1 86.24(9) . .
O3 Zn1 O2 97.47(10) . .
O9 Zn1 O2 90.83(9) . .
O1 Zn1 O2 82.64(9) . .
O4 Zn1 O2 172.63(10) . .
N1 Zn1 O2 88.05(9) . .
O3 Zn1 K1 132.31(6) . 1_655
O9 Zn1 K1 77.36(8) . 1_655
O1 Zn1 K1 49.78(6) . 1_655
O4 Zn1 K1 48.51(7) . 1_655
N1 Zn1 K1 103.08(8) . 1_655
O2 Zn1 K1 128.83(7) . 1_655
O3 Zn1 K1 131.14(6) . 2_677
O9 Zn1 K1 52.53(7) . 2_677
O1 Zn1 K1 54.95(6) . 2_677
O4 Zn1 K1 124.66(7) . 2_677
N1 Zn1 K1 126.43(8) . 2_677
O2 Zn1 K1 56.09(7) . 2_677
K1 Zn1 K1 78.67(2) 1_655 2_677
loop_
_geom_bond_atom_site_label_1
_geom_bond_atom_site_label_2
_geom_bond_distance
_geom_bond_site_symmetry_2
C1 O6 1.227(4) .
C1 O2 1.287(4) .
C1 C6 1.574(5) .
C2 O5 1.240(5) .
C2 O1 1.272(4) .
C2 C6 1.567(5) .
C2 K1 3.262(4) 2_677
C3 O8 1.243(4) .
C3 O4 1.263(4) .
C3 C12 1.576(5) .
C4 O7 1.225(5) .
C4 O3 1.283(4) .
C4 C12 1.566(5) .
C4 K1 3.239(4) .
C5 C6 1.519(4) .
C5 H5A 0.9800 .
C5 H5B 0.9800 .
C5 H5C 0.9800 .
C6 C7 1.538(4) .
C7 N1 1.338(4) .
C7 C8 1.390(5) .
C8 C9 1.382(5) .
C8 H8 0.9500 .
C9 C10 1.382(5) .
C9 H9 0.9500 .
C10 C11 1.392(5) .
C10 H10 0.9500 .
C11 N1 1.348(4) .
C11 C12 1.541(4) .
C12 C13 1.530(4) .
C13 H13A 0.9800 .
C13 H13B 0.9800 .
C13 H13C 0.9800 .
N1 Zn1 2.092(3) .
O2 Zn1 2.111(2) .
O2 K1 3.047(3) 2_677
O1 Zn1 2.067(3) .
O1 K1 2.809(2) 1_655
O1 K1 3.005(3) 2_677
O4 Zn1 2.079(2) .
O4 K1 2.762(3) 1_655
O3 Zn1 2.039(3) .
O3 K1 2.702(3) .
O6 K2 2.694(3) 1_565
O6 K2A 2.938(5) 1_565
O5 K2 2.728(3) 1_665
O5 K2A 2.748(4) 1_665
O8 K2 2.719(3) 1_655
O8 K2A 2.731(4) 1_655
O7 K2A 2.636(4) .
O7 K2 2.684(3) .
O7 K1 3.021(3) .
O9 Zn1 2.063(2) .
O9 K1 2.918(3) 2_677
O9 H9X 0.9213 .
O9 H9Y 0.8104 .
O10 O10A 1.249(12) .
O10 K1 2.704(4) .
O10 K2A 3.279(9) .
O10A K1 2.712(9) .
O10A K2A 2.930(12) .
O10A K2A 3.165(12) 2_567
O11 K2A 1.941(7) .
O11 K2 2.686(5) .
K1 O4 2.762(3) 1_455
K1 O1 2.809(2) 1_455
K1 O9 2.918(3) 2_677
K1 O1 3.005(3) 2_677
K1 O2 3.047(3) 2_677
K1 C2 3.262(4) 2_677
K1 Zn1 3.6585(11) 1_455
K2 K2A 0.871(5) .
K2 O6 2.694(3) 1_545
K2 O8 2.719(3) 1_455
K2 O5 2.728(3) 1_445
K2A O8 2.731(4) 1_455
K2A O5 2.748(4) 1_445
K2A O6 2.938(5) 1_545
K2A O10A 3.165(12) 2_567
K2A K1 4.894(5) 2_567
Zn1 K1 3.6585(11) 1_655
Zn1 K1 3.6700(13) 2_677
