#------------------------------------------------------------------------------
#$Date: 2019-11-23 10:50:45 +0200 (Sat, 23 Nov 2019) $
#$Revision: 232944 $
#$URL: file:///home/coder/svn-repositories/cod/cif/4/34/84/4348453.cif $
#------------------------------------------------------------------------------
#
# This file is available in the Crystallography Open Database (COD),
# http://www.crystallography.net/
#
# All data on this site have been placed in the public domain by the
# contributors.
#
data_4348453
loop_
_publ_author_name
'Ogura, Satomi'
'Idobata, Yuki'
'Zhou, Biao'
'Kobayashi, Akiko'
'Takagi, Rina'
'Miyagawa, Kazuya'
'Kanoda, Kazushi'
'Kasai, Hidetaka'
'Nishibori, Eiji'
'Satoko, Chikatoshi'
'Delley, Bernard'
_publ_section_title
;
 Antiferromagnetic Ordering in the Single-Component Molecular Conductor
 [Pd(tmdt)2].
;
_journal_issue                   15
_journal_name_full               'Inorganic chemistry'
_journal_page_first              7709
_journal_page_last               7716
_journal_paper_doi               10.1021/acs.inorgchem.6b01166
_journal_volume                  55
_journal_year                    2016
_chemical_formula_sum            'C18 H12 Pd S12'
_chemical_formula_weight         719.40
_space_group_crystal_system      triclinic
_space_group_IT_number           2
_space_group_name_Hall           '-P 1'
_space_group_name_H-M_alt        'P -1'
_atom_sites_solution_hydrogens   geom
_audit_creation_method           SHELXL-2013
_cell_angle_alpha                90.379(6)
_cell_angle_beta                 96.298(7)
_cell_angle_gamma                103.663(7)
_cell_formula_units_Z            1
_cell_length_a                   6.3609(6)
_cell_length_b                   7.2892(7)
_cell_length_c                   12.0695(10)
_cell_measurement_reflns_used    10587
_cell_measurement_temperature    150(2)
_cell_measurement_theta_max      20.160
_cell_measurement_theta_min      0.988
_cell_volume                     540.19(9)
_computing_structure_refinement  'SHELXL-2013 (Sheldrick, 2013)'
_diffrn_ambient_temperature      150(2)
_diffrn_detector_area_resol_mean 10
_diffrn_measured_fraction_theta_full 0.999
_diffrn_measured_fraction_theta_max 0.994
_diffrn_measurement_device_type  cylindrical_IP_camera_at_SPring-8_BL02B1
_diffrn_measurement_method       'phi or omega oscillation scans'
_diffrn_radiation_type           synchrotron
_diffrn_radiation_wavelength     0.4136
_diffrn_reflns_av_unetI/netI     0.1156
_diffrn_reflns_Laue_measured_fraction_full 0.999
_diffrn_reflns_Laue_measured_fraction_max 0.994
_diffrn_reflns_limit_h_max       10
_diffrn_reflns_limit_h_min       -10
_diffrn_reflns_limit_k_max       12
_diffrn_reflns_limit_k_min       -12
_diffrn_reflns_limit_l_max       20
_diffrn_reflns_limit_l_min       -20
_diffrn_reflns_number            19028
_diffrn_reflns_point_group_measured_fraction_full 0.999
_diffrn_reflns_point_group_measured_fraction_max 0.994
_diffrn_reflns_theta_full        14.369
_diffrn_reflns_theta_max         20.160
_diffrn_reflns_theta_min         0.988
_diffrn_source                   'bending magnet'
_exptl_absorpt_coefficient_mu    1.402
_exptl_crystal_colour            black
_exptl_crystal_density_diffrn    2.211
_exptl_crystal_description       block
_exptl_crystal_F_000             358
_exptl_crystal_size_max          0.05
_exptl_crystal_size_mid          0.03
_exptl_crystal_size_min          0.02
_refine_diff_density_max         4.539
_refine_diff_density_min         -1.447
_refine_diff_density_rms         0.323
_refine_ls_extinction_method     none
_refine_ls_goodness_of_fit_ref   1.049
_refine_ls_hydrogen_treatment    constr
_refine_ls_matrix_type           full
_refine_ls_number_parameters     98
_refine_ls_number_reflns         19028
_refine_ls_number_restraints     0
_refine_ls_restrained_S_all      1.049
_refine_ls_R_factor_all          0.1277
_refine_ls_R_factor_gt           0.0776
_refine_ls_shift/su_max          0.000
_refine_ls_shift/su_mean         0.000
_refine_ls_structure_factor_coef Fsqd
_refine_ls_weighting_details
'w=1/[\s^2^(Fo^2^)+(0.1204P)^2^+0.7112P] where P=(Fo^2^+2Fc^2^)/3'
_refine_ls_weighting_scheme      calc
_refine_ls_wR_factor_gt          0.1923
_refine_ls_wR_factor_ref         0.2323
_reflns_Friedel_coverage         0.000
_reflns_number_gt                12609
_reflns_number_total             19028
_reflns_threshold_expression     'I > 2\s(I)'
_cod_data_source_file            ic6b01166_si_006.cif
_cod_data_source_block           shelx
_cod_database_code               4348453
_shelx_space_group_comment
;
The symmetry employed for this shelxl refinement is uniquely defined
by the following loop, which should always be used as a source of
symmetry information in preference to the above space-group names.
They are only intended as comments.
;
_shelxl_version_number           2013-4
_shelx_res_file
;

TITL    shelx in P -1
CELL   0.41360    6.3609    7.2892   12.0695   90.379   96.298  103.663
ZERR     1        0.0006    0.0007    0.0010    0.006    0.007    0.007
LATT  1
SFAC    C   H   S   PD
DISP   C  -0.0001  0.0005  5.17
DISP   H   0.0000  0.0000  0.64
DISP   S   0.0444  0.0408  111.61
DISP   PD -0.5291  2.5715  6133.57
UNIT    18  12  12   1
MERG    0
L.S.    20
TEMP    -123
FMAP    2
ACTA
PLAN    25
SHEL    1000. 0.6
WGHT    0.120400    0.711200
BASF   0.52015
FVAR       0.30443
PD01  4   -0.500000    0.500000    0.000000    10.50000    0.01363    0.02275 =
         0.00792   -0.00363   -0.00423    0.00277
S002  3   -0.240506    0.189060    0.419020    11.00000    0.01435    0.03094 =
         0.01204   -0.00515   -0.00323    0.00577
S003  3   -0.848060    0.443931   -0.090945    11.00000    0.01496    0.02789 =
         0.00973   -0.00520   -0.00372    0.00469
S004  3    0.024760    0.672970    0.329125    11.00000    0.01466    0.03023 =
         0.01088   -0.00532   -0.00418    0.00586
S005  3    0.195478    0.186428    0.358160    11.00000    0.01448    0.03282 =
         0.01137   -0.00562   -0.00315    0.00405
S006  3   -0.629640    0.560577    0.163372    11.00000    0.01382    0.03060 =
         0.00976   -0.00484   -0.00388    0.00326
S007  3   -0.404802    0.676514    0.391943    11.00000    0.01351    0.03103 =
         0.01025   -0.00500   -0.00319    0.00407
C010  1    0.036448    0.224188    0.460906    11.00000    0.01614
C011  1   -0.022002    0.131375    0.253968    11.00000    0.01748
C012  1   -0.129369    0.715912    0.432625    11.00000    0.01451
C013  1   -0.219498    0.132344    0.280919    11.00000    0.01796
C014  1   -0.394058    0.614567    0.253344    11.00000    0.01782
C015  1   -0.265512    0.044769    0.089169    11.00000    0.02084
AFIX  23
H01A  2   -0.321574   -0.087485    0.060811    11.00000   -1.20000
H01B  2   -0.284279    0.129496    0.026994    11.00000   -1.20000
AFIX   0
C016  1   -0.393220    0.084395    0.185289    11.00000    0.01830
AFIX  23
H01C  2   -0.461764    0.191231    0.168662    11.00000   -1.20000
H01D  2   -0.506940   -0.028573    0.199770    11.00000   -1.20000
AFIX   0
C017  1   -0.191513    0.612119    0.223834    11.00000    0.01539
C018  1   -0.021616    0.079160    0.134082    11.00000    0.01975
AFIX  23
H01E  2    0.032406   -0.036424    0.126118    11.00000   -1.20000
H01F  2    0.068471    0.183139    0.095313    11.00000   -1.20000

AFIX   0
HKLF      5

REM     shelx in P -1
REM R1 =  0.0776 for   12609 Fo > 4sig(Fo)  and  0.1277 for all   19028 data
REM     98 parameters refined using      0 restraints

END

WGHT      0.1217      0.6038

REM Highest difference peak  4.539,  deepest hole -1.447,  1-sigma level  0.323
Q1    1  -0.5180  0.3916  0.0169  11.00000  0.05    3.61
Q2    1  -0.5003  0.5405  0.0559  11.00000  0.05    1.63
Q3    1  -0.6176  0.6603  0.1480  11.00000  0.05    1.61
Q4    1  -0.1037  0.6004  0.2822  11.00000  0.05    1.50
Q5    1  -0.6238  0.4833  0.0097  11.00000  0.05    1.43
Q6    1   0.0023  0.5603  0.3439  11.00000  0.05    1.42
Q7    1  -0.3755  0.7904  0.3712  11.00000  0.05    1.40
Q8    1   0.0533  0.7807  0.3007  11.00000  0.05    1.40
Q9    1  -0.8534  0.3443 -0.0779  11.00000  0.05    1.40
Q10   1  -0.8366  0.5532 -0.1032  11.00000  0.05    1.39
Q11   1  -0.7454  0.5796  0.1620  11.00000  0.05    1.39
Q12   1  -0.3085  0.6211  0.2368  11.00000  0.05    1.36
Q13   1   0.1653  0.0682  0.3686  11.00000  0.05    1.36
Q14   1  -0.0817  0.7548  0.4806  11.00000  0.05    1.35
Q15   1  -0.1169  0.6599  0.4403  11.00000  0.05    1.34
Q16   1  -0.2131  0.5543  0.2372  11.00000  0.05    1.33
Q17   1  -0.6629  0.4376  0.1806  11.00000  0.05    1.33
Q18   1  -0.0985  0.7779  0.4202  11.00000  0.05    1.32
Q19   1   0.0995  0.1961  0.4027  11.00000  0.05    1.31
Q20   1  -0.2824  0.0686  0.0179  11.00000  0.05    1.27
Q21   1  -0.4107  0.1170  0.5538  11.00000  0.05    1.20
Q22   1  -0.3822  0.6842  0.2485  11.00000  0.05    1.20
Q23   1  -0.9336  0.4559 -0.0605  11.00000  0.05    1.20
Q24   1  -0.2372  0.1881  0.4831  11.00000  0.05    1.18
Q25   1   0.2695  0.6754  0.3501  11.00000  0.05    1.17
;
_shelx_res_checksum              9354
_shelx_hkl_file
;
   0   0   1    3.88    0.63   1
   0   0   1    4.14    0.72   1
   0   0  -1    4.78    0.64   1
   0   0  -1    4.76    0.74   1
   0   0   2    8.51    1.32   1
   0   0   2    9.89    1.64   1
   0   0  -2    8.42    1.33   1
   0   0  -2   10.20    1.54   1
   0   0   3   91.63    3.78   1
   0   0   3   93.41    3.09   1
   0   0  -3   92.77    3.80   1
   0   0  -3   83.02    2.96   1
   0   0   4   78.21    3.35   1
   0   0   4   69.57    3.71   1
   0   0  -4   60.60    2.33   1
   0   0  -4   71.22    3.80   1
   0   0   5  110.09    3.45   1
   0   0   5  123.47    5.35   1
   0   0  -5  112.08    5.43   1
   0   0   6    5.29    1.54   1
   0   0   6    6.80    1.20   1
   0   0  -6    6.83    1.15   1
   0   0  -6    6.94    1.35   1
   0   0   7   70.59    3.60  -1
   0  -2  -6   70.59    3.60   2
   0   0   7   76.69    4.52  -1
   0  -2  -6   76.69    4.52   2
   0   0  -7   67.81    3.96  -1
   0   2   6   67.81    3.96   2
   0   0  -7   79.08    4.99  -1
   0   2   6   79.08    4.99   2
   0   0   8   22.60    2.12   1
   0   0  -8   25.02    2.60   1
   0   0  -8   20.32    2.93   1
   0   0   9   28.45    2.34   1
   0   0  -9   25.94    2.70   1
   0   0  -9   29.54    2.24   1
   0   0  10   15.18    2.03   1
   0   0 -10   18.25    2.68   1
   0   0 -10   21.18    3.19   1
   0   0 -11   52.36    3.80   1
   0   0 -11   50.41    4.58   1
   0   0 -12  156.68    8.15   1
   0   0 -12  156.64    6.84   1
   0   0 -13   23.66    4.01   1
   0   0 -13   62.56    6.86  -1
   0   4  11   62.56    6.86   2
   0   0 -14    9.19    3.17  -1
   0   4  12    9.19    3.17   2
   0   0 -14    8.23    3.89  -1
   0   4  12    8.23    3.89   2
   0   0 -15    6.77    2.00   1
   0   0 -16   -0.05    2.55   1
   0   0 -16    0.63    2.90   1
   0   0 -17    4.11    1.85   1
   0   0 -17    2.51    3.48   1
   0   0 -18    1.22    3.08   1
   0   0 -18    5.99    2.36   1
   0   0 -19    7.18    2.05   1
   0   0 -19    2.81    3.90   1
   0   1 -19   35.43    4.97   1
   0   1 -19   40.71    3.71   1
   0   1 -18   18.85    2.44   1
   0   1 -18   11.41    4.06   1
   0   1 -17   16.50    3.70   1
   0   1 -17   14.54    4.19   1
   0   1 -16   26.10    3.66   1
   0   1 -16   20.66    2.80   1
   0   1 -15    2.92    3.06   1
   0   1 -15    3.48    4.37  -1
   0   5  12    3.48    4.37   2
   0   1 -14   22.78    4.01  -1
   0   5  11   22.78    4.01   2
   0   1 -14   23.55    3.85  -1
   0   5  11   23.55    3.85   2
   0   1 -13  180.60    9.50   1
   0   1 -13  178.35   10.21   1
   0   1 -12   14.14    1.71   1
   0   1 -12    8.46    2.07   1
   0   1 -11   30.60    3.16   1
   0   1 -11   30.49    3.83   1
   0   1 -10   51.46    3.65   1
   0   1 -10   43.93    2.70   1
   0   1  -9    5.60    2.03   1
   0   1  -9    0.63    2.31   1
   0  -1   9    3.28    1.63   1
   0   1  -8   26.87    4.30  -1
   0   3   6   26.87    4.30   2
   0   1  -8   30.80    4.15  -1
   0   3   6   30.80    4.15   2
   0  -1   8   30.50    3.98  -1
   0  -3  -6   30.50    3.98   2
   0   1  -7   70.86    5.61  -1
   0   3   5   70.86    5.61   2
   0  -1   7   75.43    5.23  -1
   0  -3  -5   75.43    5.23   2
   0  -1   7   71.82    5.12  -1
   0  -3  -5   71.82    5.12   2
   0   1  -6   77.10    3.95   1
   0   1  -6   73.67    3.16   1
   0  -1   6   75.56    2.74   1
   0  -1   6   75.97    3.04   1
   0   1  -5   15.36    1.98   1
   0   1  -5   10.46    1.49   1
   0  -1   5   11.74    1.89   1
   0  -1   5   10.00    2.13   1
   0   1  -4   51.73    3.23   1
   0   1  -4   54.11    3.63   1
   0  -1   4   59.41    3.21   1
   0  -1   4   57.22    2.33   1
   0   1  -3   24.22    1.48   1
   0   1  -3   23.84    1.61   1
   0  -1   3   28.33    2.45   1
   0  -1   3   29.19    2.56   1
   0   1  -2   75.98    2.67   1
   0   1  -2   79.96    2.85   1
   0  -1   2   89.68    3.85   1
   0  -1   2   81.69    2.72   1
   0   1  -1  204.38    5.99   1
   0   1  -1  200.16    5.63   1
   0  -1   1  201.23    7.14   1
   0  -1   1  207.10    6.74   1
   0   1   0  229.90    7.86   1
   0  -1   0  216.76    6.25   1
   0  -1   0  212.55    5.46   1
   0   1   1  134.00    4.98   1
   0   1   1  130.24    4.20   1
   0  -1  -1  124.03    4.56   1
   0  -1  -1  133.70    4.13   1
   0   1   2   31.94    2.30   1
   0   1   2   32.72    2.18   1
   0  -1  -2   29.39    2.28   1
   0  -1  -2   28.75    1.45   1
   0   1   3   67.89    3.22   1
   0   1   3   72.53    3.60   1
   0  -1  -3   67.15    3.48   1
   0  -1  -3   74.29    3.58   1
   0   1   4    3.50    1.54   1
   0   1   4    2.24    1.64   1
   0  -1  -4    2.69    1.61   1
   0  -1  -4    0.63    1.83   1
   0   1   5   93.76    3.93   1
   0   1   5   90.80    3.24   1
   0  -1  -5   85.84    3.87   1
   0  -1  -5   89.06    3.32   1
   0   1   6   67.46    3.30   1
   0   1   6   91.94    5.44  -1
   0  -1  -6   91.94    5.44   2
   0  -1  -6   88.64    5.12  -1
   0   1   6   88.64    5.12   2
   0  -1  -6   97.03    5.84  -1
   0   1   6   97.03    5.84   2
   0   1   7   20.40    1.51   1
   0   1   7   40.66    2.53  -1
   0  -1  -7   40.66    2.53   2
   0  -1  -7   41.84    3.82  -1
   0   1   7   41.84    3.82   2
   0  -1  -7   42.67    4.33  -1
   0   1   7   42.67    4.33   2
   0   1   8   24.90    2.11   1
   0  -1  -8   24.24    2.48   1
   0  -1  -8   23.70    2.02   1
   0   1   9   53.15    2.92   1
   0  -1  -9   47.96    3.30   1
   0  -1  -9   53.07    2.82   1
   0  -1 -10   31.30    2.89   1
   0  -1 -10   29.24    2.30   1
   0  -1 -11   13.09    2.46   1
   0  -1 -11   17.29    2.00   1
   0  -1 -12  215.51   10.21   1
   0  -1 -12  222.40   11.71   1
   0  -1 -13   37.41    3.97  -1
   0   3  12   37.41    3.97   2
   0  -1 -13   38.27    6.40  -1
   0   3  12   38.27    6.40   2
   0  -1 -14   13.71    4.17  -1
   0   3  13   13.71    4.17   2
   0  -1 -14   22.50    5.26  -1
   0   3  13   22.50    5.26   2
   0  -1 -15   32.91    3.24   1
   0  -1 -15   63.62    6.98  -1
   0   3  14   63.62    6.98   2
   0  -1 -16   23.21    3.42   1
   0  -1 -16   23.48    2.72   1
   0  -1 -17   17.73    3.38   1
   0  -1 -17   17.01    4.41   1
   0  -1 -18   61.51    5.32   1
   0  -1 -18   71.52    6.62   1
   0  -1 -19   -0.42    2.15   1
   0  -1 -19    3.34    4.71  -1
   0   5  17    3.34    4.71   2
   0   2 -19    7.43    3.47   1
   0   2 -19    2.47    2.13   1
   0   2 -18    6.59    3.23   1
   0   2 -18    4.35    3.78   1
   0   2 -17   -0.72    1.65   1
   0   2 -17    1.71    2.07   1
   0   2 -16    9.57    3.24   1
   0   2 -16    6.83    3.76   1
   0   2 -15   10.35    4.16  -1
   0   6  11   10.35    4.16   2
   0   2 -15   12.53    2.93  -1
   0   6  11   12.53    2.93   2
   0   2 -14    5.76    3.07   1
   0   2 -14   12.83    3.48   1
   0   2 -13  109.37    6.85   1
   0   2 -13  111.85    5.57   1
   0   2 -12   33.80    3.65   1
   0   2 -12   36.57    3.90   1
   0   2 -11   18.26    2.83   1
   0   2 -11   14.33    2.97   1
   0   2 -10   26.20    2.90   1
   0   2 -10   22.94    2.20   1
   0   2  -9    4.81    2.01   1
   0   2  -9    2.16    1.38   1
   0   2  -8   43.70    3.73  -1
   0   4   5   43.70    3.73   2
   0   2  -8   47.67    4.16  -1
   0   4   5   47.67    4.16   2
   0   2  -7    5.49    1.15   1
   0   2  -7    5.91    2.28   1
   0  -2   7    4.16    1.16   1
   0   2  -6   54.72    3.71   1
   0   2  -6   58.78    2.94   1
   0  -2   6   64.66    2.60   1
   0  -2   6   68.22    3.76   1
   0   2  -5    4.91    1.83   1
   0   2  -5    3.51    2.18   1
   0  -2   5    3.52    1.01   1
   0  -2   5    8.27    1.89   1
   0   2  -4   45.46    2.29   1
   0   2  -4   49.39    3.61   1
   0  -2   4   57.97    3.36   1
   0  -2   4   61.20    3.43   1
   0   2  -3   14.64    2.35   1
   0   2  -3   13.89    2.27   1
   0   2  -3   18.41    2.42   1
   0   2  -3   14.33    2.43   1
   0   2  -2   -2.46    1.95   1
   0   2  -2   -0.55    1.02   1
   0  -2   2    2.41    1.13   1
   0  -2   2    0.50    1.03   1
   0   2  -1 6875.90  760.11  -1
   0   2  -1 6875.90  760.11   2
   0   2  -1 6970.30  782.54  -1
   0   2  -1 6970.30  782.54   2
   0  -2   1 6737.11  751.26  -1
   0  -2   1 6737.11  751.26   2
   0  -2   1 8014.58  863.06  -1
   0  -2   1 8014.58  863.06   2
   0   2   0    8.15    1.42   1
   0  -2   0    6.67    2.54   1
   0  -2   0   11.15    1.85   1
   0   2   1    6.64    2.08   1
   0   2   1    2.90    1.50   1
   0  -2  -1    2.49    2.11   1
   0  -2  -1    3.03    1.63   1
   0   2   2  108.91    4.22   1
   0  -2  -2  104.13    5.14   1
   0  -2  -2  107.52    4.38   1
   0   2   3  113.94    5.08   1
   0   2   3  112.54    3.61   1
   0  -2  -3  113.51    5.35   1
   0  -2  -3  112.84    3.72   1
   0   2   4  120.03    5.29   1
   0   2   4  114.37    4.67   1
   0  -2  -4  111.48    5.25   1
   0  -2  -4  108.86    3.84   1
   0   2   5   10.60    1.97   1
   0   2   5   10.94    1.80   1
   0  -2  -5   10.64    2.27   1
   0  -2  -5   11.05    2.11   1
   0   2   6   72.13    3.83  -1
   0   0  -7   72.13    3.83   2
   0   2   6   71.89    3.95  -1
   0   0  -7   71.89    3.95   2
   0  -2  -6   77.60    4.42  -1
   0   0   7   77.60    4.42   2
   0  -2  -6   72.64    3.17  -1
   0   0   7   72.64    3.17   2
   0   2   7   65.28    3.51   1
   0   2   7   65.02    2.79   1
   0  -2  -7   66.54    3.94   1
   0  -2  -7   63.26    2.87   1
   0   2   8   25.56    2.24   1
   0  -2  -8   27.14    2.73   1
   0  -2  -8   26.87    3.12   1
   0   2   9   18.71    2.14   1
   0  -2  -9   16.34    1.51   1
   0  -2  -9   22.37    1.91   1
   0  -2 -10   53.57    3.65   1
   0  -2 -10   55.42    3.12   1
   0  -2 -11  157.78    7.42   1
   0  -2 -11  149.80    8.53   1
   0  -2 -12   25.83    4.13   1
   0  -2 -13    9.71    2.74  -1
   0   2  13    9.71    2.74   2
   0  -2 -13   13.99    4.02  -1
   0   2  13   13.99    4.02   2
   0  -2 -14    6.66    3.27   1
   0  -2 -14    6.06    3.69  -1
   0   2  14    6.06    3.69   2
   0  -2 -15   -0.17    2.30   1
   0  -2 -15    0.50    1.76   1
   0  -2 -16    0.41    2.37   1
   0  -2 -16   -0.97    1.95   1
   0  -2 -17    8.74    2.79   1
   0  -2 -17    5.69    2.28   1
   0  -2 -18   16.11    3.30   1
   0  -2 -18   15.82    4.62   1
   0  -2 -19    3.05    3.68   1
   0  -2 -19   11.40    3.35  -1
   0   4  18   11.40    3.35   2
   0   3 -19   11.34    3.72   1
   0   3 -19    7.86    2.58   1
   0   3 -18   -1.00    2.99   1
   0   3 -18    1.97    3.40   1
   0   3 -17   23.67    3.98   1
   0   3 -17   21.29    4.65   1
   0   3 -16   -0.57    1.66   1
   0   3 -16    0.88    2.77   1
   0   3 -15   13.61    4.76  -1
   0   7  10   13.61    4.76   2
   0   3 -15   26.11    5.99  -1
   0   7  10   26.11    5.99   2
   0   3 -14  107.93    5.54   1
   0   3 -14  111.03    5.90   1
   0   3 -13   11.34    2.84   1
   0   3 -13    5.41    3.39   1
   0   3 -12   24.83    3.35   1
   0   3 -12   20.23    3.68   1
   0   3 -11   34.42    2.46   1
   0   3 -11   32.59    2.62   1
   0   3 -10    2.66    1.30   1
   0   3 -10   -1.54    1.54   1
   0   3  -9   10.78    2.52   1
   0   3  -9    7.21    1.68   1
   0   3  -8   42.64    5.88  -1
   0   5   4   42.64    5.88   2
   0   3  -8   45.27    4.01  -1
   0   5   4   45.27    4.01   2
   0   3  -7   45.52    3.58   1
   0   3  -7   41.37    2.49   1
   0   3  -6   14.28    1.51   1
   0   3  -6   13.77    1.49   1
   0   3  -6   16.89    2.52   1
   0   3  -5   29.52    1.77   1
   0   3  -5   27.22    1.98   1
   0   3  -5   28.93    2.86   1
   0   3  -5   25.49    2.12   1
   0   3  -4   16.40    2.37   1
   0   3  -4   18.69    1.59   1
   0   3  -4   18.16    2.24   1
   0   3  -4   17.06    1.55   1
   0   3  -3   40.01    2.01   1
   0   3  -3   41.97    2.73   1
   0  -3   3   41.91    3.52   1
   0  -3   3   36.88    3.15   1
   0   3  -2  132.15    6.19   1
   0   3  -2  135.35    5.80   1
   0  -3   2  125.16    6.84   1
   0  -3   2  122.38    5.80   1
   0   3  -1  155.33    7.11   1
   0   3  -1  158.24    6.38   1
   0  -3   1  160.61    8.27   1
   0  -3   1  149.13    5.26   1
   0   3   0   96.59    4.87   1
   0  -3   0   96.40    4.06   1
   0  -3   0  105.09    4.51   1
   0   3   1   19.62    2.75   1
   0   3   1   17.47    1.89   1
   0  -3  -1   19.55    2.86   1
   0  -3  -1   18.40    1.96   1
   0   3   2   32.54    3.08   1
   0   3   2   32.05    1.51   1
   0  -3  -2   31.55    3.40   1
   0  -3  -2   31.75    2.45   1
   0   3   3    1.97    1.79   1
   0   3   3    0.10    1.31   1
   0  -3  -3   -0.02    2.04   1
   0  -3  -3   -1.86    1.52   1
   0   3   4   50.44    2.38   1
   0   3   4   53.71    2.88   1
   0  -3  -4   53.89    4.04   1
   0  -3  -4   52.53    3.20   1
   0   3   5   51.60    3.38   1
   0   3   5   48.04    2.91   1
   0  -3  -5   80.54    6.38  -1
   0  -1   7   80.54    6.38   2
   0  -3  -5   71.07    5.60  -1
   0  -1   7   71.07    5.60   2
   0   3   6   10.74    2.03   1
   0  -3  -6   10.39    1.56   1
   0  -3  -6   14.11    2.16   1
   0   3   6   27.85    3.35  -1
   0   1  -8   27.85    3.35   2
   0   3   7   44.51    2.98   1
   0   3   7   45.88    3.09   1
   0  -3  -7   50.35    3.65   1
   0  -3  -7   48.56    3.51   1
   0   3   8   41.66    2.95   1
   0  -3  -8   44.26    3.46   1
   0  -3  -8   45.49    2.50   1
   0  -3  -9   15.51    1.77   1
   0  -3  -9   17.99    2.99   1
   0  -3 -10   12.39    2.52   1
   0  -3 -10   18.11    3.10   1
   0  -3 -11  146.00    5.94   1
   0  -3 -11  160.13    8.53   1
   0  -3 -12   36.46    4.06  -1
   0   1  13   36.46    4.06   2
   0  -3 -12   30.04    6.54  -1
   0   1  13   30.04    6.54   2
   0  -3 -13   16.49    3.69  -1
   0   1  14   16.49    3.69   2
   0  -3 -13   10.53    4.61  -1
   0   1  14   10.53    4.61   2
   0  -3 -14   37.02    4.03   1
   0  -3 -14   33.30    3.07   1
   0  -3 -15   25.16    3.46   1
   0  -3 -15   25.88    2.85   1
   0  -3 -16   20.21    3.31   1
   0  -3 -16   17.23    2.60   1
   0  -3 -17   86.52    6.15   1
   0  -3 -17   83.57    5.34   1
   0  -3 -18   -2.62    2.16   1
   0  -3 -18    1.62    4.04  -1
   0   3  18    1.62    4.04   2
   0  -3 -19   95.16    7.07  -1
   0   3  19   95.16    7.07   2
   0  -3 -19  114.15   10.59  -1
   0   3  19  114.15   10.59   2
   0   4 -19    1.34    3.24   1
   0   4 -19    1.70    2.07   1
   0   4 -18   -2.13    2.96   1
   0   4 -18    3.33    3.37   1
   0   4 -17    1.18    2.96   1
   0   4 -17    3.39    3.45   1
   0   4 -16   18.32    3.90  -1
   0   8  10   18.32    3.90   2
   0   4 -16    8.58    3.00  -1
   0   8  10    8.58    3.00   2
   0   4 -15    4.15    1.88   1
   0   4 -15    5.17    3.50   1
   0   4 -14   58.22    3.86   1
   0   4 -14   53.75    5.79   1
   0   4 -13   21.62    2.35   1
   0   4 -13   20.81    2.65   1
   0   4 -12   10.05    1.93   1
   0   4 -12   12.82    3.43   1
   0   4 -11   12.18    3.09   1
   0   4 -11   13.00    3.28   1
   0   4 -10    0.62    2.26   1
   0   4 -10   -0.58    2.44   1
   0   4  -9   16.87    3.63  -1
   0   6   4   16.87    3.63   2
   0   4  -9   25.09    4.05  -1
   0   6   4   25.09    4.05   2
   0   4  -8    5.12    1.46   1
   0   4  -8    2.24    2.54   1
   0   4  -7   27.20    3.44   1
   0   4  -7   32.80    3.40   1
   0   4  -6    1.06    1.42   1
   0   4  -6    5.40    1.39   1
   0   4  -5   20.54    2.80   1
   0   4  -5   25.07    2.64   1
   0   4  -4   12.72    1.91   1
   0  -4   4    9.33    1.78   1
   0  -4   4    9.28    1.55   1
   0   4  -3    0.16    1.84   1
   0   4  -3    1.57    1.68   1
   0  -4   3   -0.70    2.28   1
   0  -4   3    3.33    1.90   1
   0   4  -2 1865.54  125.30  -1
   0   4  -2 1865.54  125.30   2
   0   4  -2 1999.20  131.83  -1
   0   4  -2 1999.20  131.83   2
   0  -4   2 2067.90  137.98  -1
   0  -4   2 2067.90  137.98   2
   0   4  -1   14.41    1.54   1
   0   4  -1    9.43    1.81   1
   0  -4   1    7.59    2.98   1
   0  -4   1    8.23    2.11   1
   0   4   0    2.25    1.21   1
   0  -4   0    3.33    2.61   1
   0  -4   0    4.02    1.74   1
   0   4   1   80.85    4.74   1
   0   4   1   75.35    3.65   1
   0  -4  -1   85.34    5.61   1
   0  -4  -1   77.09    4.00   1
   0   4   2   69.36    4.16   1
   0  -4  -2   66.46    4.67   1
   0  -4  -2   69.50    3.63   1
   0   4   3   56.43    3.82   1
   0   4   3   54.32    2.25   1
   0  -4  -3   58.56    4.17   1
   0  -4  -3   54.23    3.20   1
   0   4   4   11.33    1.49   1
   0   4   4    8.35    1.69   1
   0  -4  -4   11.78    1.83   1
   0  -4  -4   11.94    1.43   1
   0   4   5   40.73    3.48  -1
   0   2  -8   40.73    3.48   2
   0   4   5   40.69    3.24  -1
   0   2  -8   40.69    3.24   2
   0  -4  -5   46.83    4.47  -1
   0  -2   8   46.83    4.47   2
   0  -4  -5   42.02    3.72  -1
   0  -2   8   42.02    3.72   2
   0   4   6   74.88    3.17   1
   0  -4  -6   90.52    5.44   1
   0  -4  -6   88.55    3.68   1
   0  -4  -7   17.37    1.87   1
   0  -4  -7   19.42    2.69   1
   0  -4  -8   11.83    1.75   1
   0  -4  -8   11.80    2.60   1
   0  -4  -9   37.96    3.93   1
   0  -4  -9   40.49    3.65   1
   0  -4 -10   97.80    6.08   1
   0  -4 -10   95.93    6.05   1
   0  -4 -11   31.38    2.80   1
   0  -4 -11   52.20    5.58  -1
   0   0  13   52.20    5.58   2
   0  -4 -12   23.61    3.88  -1
   0   0  14   23.61    3.88   2
   0  -4 -12   11.49    3.91  -1
   0   0  14   11.49    3.91   2
   0  -4 -13    3.42    2.72   1
   0  -4 -13   10.72    3.19   1
   0  -4 -14   -1.93    1.44   1
   0  -4 -14    2.38    1.76   1
   0  -4 -15   -0.58    2.31   1
   0  -4 -15    2.71    1.83   1
   0  -4 -16   11.48    2.90   1
   0  -4 -16    6.76    2.31   1
   0  -4 -17   19.20    3.35   1
   0  -4 -17   18.19    4.04   1
   0  -4 -18   16.12    3.02   1
   0  -4 -18    9.53    4.14   1
   0   5 -18    7.62    2.20   1
   0   5 -18    7.69    3.81   1
   0   5 -17    6.17    3.01   1
   0   5 -17   -0.90    1.98   1
   0   5 -16   15.39    4.68  -1
   0   9   9   15.39    4.68   2
   0   5 -16    7.17    3.59  -1
   0   9   9    7.17    3.59   2
   0   5 -15   62.31    5.42   1
   0   5 -15   49.42    5.77   1
   0   5 -14    3.84    3.13   1
   0   5 -14    4.61    3.36   1
   0   5 -13   10.02    3.19   1
   0   5 -13    7.68    2.23   1
   0   5 -12   17.51    3.85   1
   0   5 -12   23.67    4.03   1
   0   5 -11    2.85    1.73   1
   0   5 -11    1.44    3.04   1
   0   5 -10    5.40    1.80   1
   0   5 -10    6.22    2.95   1
   0   5  -9   29.58    6.17  -1
   0   7   3   29.58    6.17   2
   0   5  -9   23.82    5.76  -1
   0   7   3   23.82    5.76   2
   0   5  -8   21.40    3.63   1
   0   5  -8   22.77    3.62   1
   0   5  -7   17.27    2.12   1
   0   5  -7   12.37    2.00   1
   0   5  -6   16.88    3.15   1
   0   5  -6   13.51    2.74   1
   0   5  -5   11.92    1.89   1
   0   5  -5   13.34    2.45   1
   0  -5   4   20.69    3.56   1
   0  -5   4   14.54    2.86   1
   0   5  -3   46.86    3.48   1
   0  -5   3   52.36    3.18   1
   0  -5   3   53.22    4.04   1
   0   5  -2   64.06    2.83   1
   0  -5   2   66.63    5.20   1
   0  -5   2   69.40    4.38   1
   0   5  -1   44.83    3.06   1
   0  -5   1   57.40    4.87   1
   0  -5   1   54.45    3.47   1
   0  -5   0    8.42    2.00   1
   0  -5   0    7.29    1.31   1
   0   5   1   12.02    1.85   1
   0  -5  -1   17.09    3.24   1
   0  -5  -1   11.08    2.06   1
   0   5   2    1.32    1.56   1
   0  -5  -2    2.30    1.63   1
   0  -5  -2    4.47    1.77   1
   0   5   3   20.94    2.19   1
   0  -5  -3   19.57    3.45   1
   0  -5  -3   21.73    2.59   1
   0   5   4   37.96    3.64  -1
   0   3  -8   37.96    3.64   2
   0  -5  -4   46.08    5.46  -1
   0  -3   8   46.08    5.46   2
   0  -5  -4   46.70    4.89  -1
   0  -3   8   46.70    4.89   2
   0   5   5    3.89    1.63   1
   0  -5  -5    6.08    2.73   1
   0  -5  -5    3.13    1.30   1
   0  -5  -6   61.23    4.83   1
   0  -5  -6   47.66    3.80   1
   0  -5  -7   34.12    4.02   1
   0  -5  -7   35.48    3.31   1
   0  -5  -8    7.44    2.79   1
   0  -5  -8    4.53    2.41   1
   0  -5  -9   12.70    3.27   1
   0  -5  -9   13.68    2.79   1
   0  -5 -10   76.95    5.94   1
   0  -5 -10   80.63    5.78   1
   0  -5 -11   28.92    4.87  -1
   0  -1  14   28.92    4.87   2
   0  -5 -11   21.42    5.78  -1
   0  -1  14   21.42    5.78   2
   0  -5 -12    0.51    4.47  -1
   0  -1  15    0.51    4.47   2
   0  -5 -13   16.82    3.64   1
   0  -5 -13   17.95    3.70   1
   0  -5 -14   11.02    3.19   1
   0  -5 -14   10.33    3.43   1
   0  -5 -15    4.98    2.83   1
   0  -5 -15    5.96    2.09   1
   0  -5 -16   65.19    4.02   1
   0  -5 -16   68.56    4.72   1
   0  -5 -17    0.81    1.51   1
   0  -5 -17   -1.47    2.94   1
   0   6 -17    4.65    4.42  -1
   0  10   9    4.65    4.42   2
   0   6 -17   -1.51    2.63  -1
   0  10   9   -1.51    2.63   2
   0   6 -16    4.49    2.01   1
   0   6 -16   10.29    3.62   1
   0   6 -15   26.13    3.16   1
   0   6 -15   38.34    4.96   1
   0   6 -14   11.43    2.15   1
   0   6 -14    8.84    2.49   1
   0   6 -13    5.75    2.19   1
   0   6 -13    5.22    3.35   1
   0   6 -12    9.86    2.28   1
   0   6 -12    9.37    3.56   1
   0   6 -11    4.35    2.90   1
   0   6 -11   -5.12    2.90   1
   0   6 -10   14.34    4.20  -1
   0   8   3   14.34    4.20   2
   0   6 -10    4.92    3.77  -1
   0   8   3    4.92    3.77   2
   0   6  -9    3.46    2.71   1
   0   6  -8    8.43    3.47   1
   0   6  -8    9.19    2.95   1
   0   6  -7    6.46    1.83   1
   0   6  -7    8.31    2.82   1
   0   6  -6   11.62    3.20   1
   0   6  -6    8.75    1.61   1
   0  -6   5    9.77    2.10   1
   0  -6   5    8.34    1.76   1
   0  -6   4    0.11    1.56   1
   0  -6   4   -1.27    1.38   1
   0  -6   3  752.93   42.02  -1
   0  -6   3  752.93   42.02   2
   0  -6   3  737.48   36.26  -1
   0  -6   3  737.48   36.26   2
   0  -6   2   12.75    3.44   1
   0  -6   2    8.91    2.77   1
   0  -6   1   -0.83    1.67   1
   0  -6   1    0.84    1.24   1
   0  -6   0   49.21    4.67   1
   0  -6   0   48.68    3.91   1
   0  -6  -1   36.43    4.91   1
   0  -6  -1   40.07    3.50   1
   0  -6  -2   28.72    2.61   1
   0  -6  -2   20.69    2.67   1
   0  -6  -3    7.38    3.51   1
   0  -6  -3   10.57    2.36   1
   0  -6  -4   25.70    4.50  -1
   0  -4   9   25.70    4.50   2
   0  -6  -4   22.09    3.38  -1
   0  -4   9   22.09    3.38   2
   0  -6  -5   76.67    5.95   1
   0  -6  -5   67.87    4.73   1
   0  -6  -6    8.01    3.46   1
   0  -6  -6   13.01    1.58   1
   0  -6  -7    1.86    2.96   1
   0  -6  -7    4.72    2.49   1
   0  -6  -8   31.90    4.18   1
   0  -6  -8   25.63    3.53   1
   0  -6  -9   47.95    3.44   1
   0  -6  -9   44.45    3.03   1
   0  -6 -10   20.64    3.93   1
   0  -6 -10   20.95    2.32   1
   0  -6 -11    6.65    4.12  -1
   0  -2  15    6.65    4.12   2
   0  -6 -11   13.29    3.84  -1
   0  -2  15   13.29    3.84   2
   0  -6 -12    6.42    3.02   1
   0  -6 -12    3.71    2.96   1
   0  -6 -13   -1.91    1.74   1
   0  -6 -13   -1.21    1.77   1
   0  -6 -14   -3.26    2.93   1
   0  -6 -14   -4.21    2.97   1
   0  -6 -15    4.13    2.88   1
   0  -6 -15    4.68    3.30   1
   0  -6 -16   10.39    2.05   1
   0  -6 -16   12.91    2.52   1
   0   7 -16   21.35    4.44   1
   0   7 -16   18.24    4.60   1
   0   7 -15    1.71    2.05   1
   0   7 -15    1.85    2.05   1
   0   7 -14    3.56    2.19   1
   0   7 -14    0.18    3.25   1
   0   7 -13   13.57    2.36   1
   0   7 -13    8.59    4.01   1
   0   7 -12    2.42    1.90   1
   0   7 -12    1.29    3.12   1
   0   7 -11    8.20    3.45   1
   0   7 -11    2.43    3.14   1
   0   7 -10    9.77    6.11  -1
   0   9   2    9.77    6.11   2
   0   7 -10    9.83    4.17  -1
   0   9   2    9.83    4.17   2
   0   7  -9   11.22    3.90   1
   0   7  -9   10.04    2.00   1
   0   7  -8   13.98    3.90   1
   0   7  -8   13.11    3.26   1
   0   7  -7    6.92    3.63   1
   0   7  -7   12.39    3.20   1
   0   7  -6    7.55    3.54   1
   0   7  -6    5.68    2.83   1
   0  -7   5    3.86    2.18   1
   0  -7   5    7.56    1.85   1
   0  -7   4   22.74    2.70   1
   0  -7   4   11.37    3.36   1
   0  -7   3   29.79    4.65   1
   0  -7   3   25.75    2.39   1
   0  -7   2   24.70    4.38   1
   0  -7   2   31.16    3.52   1
   0  -7   1    8.83    3.67   1
   0  -7   1    4.87    2.54   1
   0  -7   0    9.55    3.41   1
   0  -7   0    7.49    2.54   1
   0  -7  -1    4.09    1.99   1
   0  -7  -1    0.12    2.04   1
   0  -7  -2    4.83    2.08   1
   0  -7  -2    7.24    2.15   1
   0  -7  -3   22.11    5.55  -1
   0  -5   9   22.11    5.55   2
   0  -7  -3   22.94    4.60  -1
   0  -5   9   22.94    4.60   2
   0  -7  -4   -0.05    1.82   1
   0  -7  -4    0.47    2.12   1
   0  -7  -5   50.20    3.64   1
   0  -7  -5   42.87    2.89   1
   0  -7  -6   22.70    2.82   1
   0  -7  -6   34.29    5.64  -1
   0  -4  12   34.29    5.64   2
   0  -7  -7   -2.51    3.01   1
   0  -7  -7    1.14    2.03   1
   0  -7  -8    3.64    3.44   1
   0  -7  -8   34.26    5.93  -1
   0  -4  13   34.26    5.93   2
   0  -7  -9   30.06    4.77   1
   0  -7  -9   28.11    3.87   1
   0  -7 -10   16.97    5.08  -1
   0  -3  15   16.97    5.08   2
   0  -7 -10   19.70    5.43  -1
   0  -3  15   19.70    5.43   2
   0  -7 -11   -1.53    3.19   1
   0  -7 -11    6.08    3.96  -1
   0  -3  16    6.08    3.96   2
   0  -7 -12    9.26    3.48   1
   0  -7 -12   10.83    3.15   1
   0  -7 -13    0.99    1.86   1
   0  -7 -13    2.33    2.62   1
   0  -7 -14    5.01    3.09   1
   0  -7 -14    0.33    3.02   1
   0  -7 -15   31.67    4.65   1
   0  -7 -15   44.29    5.24   1
   0   8 -15    9.21    2.60   1
   0   8 -15    7.41    3.78   1
   0   8 -14    5.41    2.27   1
   0   8 -14    2.03    3.54   1
   0   8 -13   10.08    2.52   1
   0   8 -13    6.79    2.39   1
   0   8 -12    3.38    2.16   1
   0   8 -12    4.12    3.06   1
   0   8 -11    0.54    2.49  -1
   0  10   2    0.54    2.49   2
   0   8 -11    0.16    3.50  -1
   0  10   2    0.16    3.50   2
   0   8 -10    0.56    2.33   1
   0   8 -10    3.22    2.99   1
   0   8  -9    2.09    2.20   1
   0   8  -9    2.25    2.92   1
   0   8  -8   10.03    2.38   1
   0   8  -8    6.70    2.98   1
   0   8  -7    7.77    2.42   1
   0   8  -7    5.29    2.82   1
   0   8  -6    8.32    2.31   1
   0   8  -6    7.02    1.88   1
   0  -8   5    3.87    2.31   1
   0  -8   5    0.13    1.77   1
   0  -8   4  269.90   17.60  -1
   0  -8   4  269.90   17.60   2
   0  -8   4  275.65   16.11  -1
   0  -8   4  275.65   16.11   2
   0  -8   3    6.40    2.25   1
   0  -8   3    6.85    2.93   1
   0  -8   2    1.86    2.09   1
   0  -8   2   -1.43    2.45   1
   0  -8   1   24.43    2.91   1
   0  -8   1   21.62    2.06   1
   0  -8   0   17.44    2.87   1
   0  -8   0   29.97    4.84  -1
   0  -7   7   29.97    4.84   2
   0  -8  -1    9.42    2.41   1
   0  -8  -1   10.87    2.78   1
   0  -8  -2    4.29    2.58   1
   0  -8  -2    8.42    2.53   1
   0  -8  -3    8.27    2.98  -1
   0  -6  10    8.27    2.98   2
   0  -8  -3    6.98    3.39  -1
   0  -6  10    6.98    3.39   2
   0  -8  -4   52.52    4.14   1
   0  -8  -4   39.84    4.09   1
   0  -8  -5    8.79    3.95   1
   0  -8  -5    5.38    1.63   1
   0  -8  -6    5.22    3.52   1
   0  -8  -6   -0.24    2.21   1
   0  -8  -7    6.31    4.17   1
   0  -8  -7   12.29    3.01   1
   0  -8  -8   19.24    2.71   1
   0  -8  -8    9.39    3.21   1
   0  -8  -9   17.98    4.21   1
   0  -8  -9    9.75    3.07   1
   0  -8 -10    1.58    3.03  -1
   0  -4  16    1.58    3.03   2
   0  -8 -10   12.87    3.91  -1
   0  -4  16   12.87    3.91   2
   0  -8 -11    3.02    3.27   1
   0  -8 -11    0.85    2.78   1
   0  -8 -12    1.28    2.04   1
   0  -8 -12    2.62    1.82   1
   0  -8 -13   -5.27    3.28   1
   0  -8 -13   -0.38    2.76   1
   0  -8 -14   -1.35    3.12   1
   0  -8 -14    2.95    2.80   1
   0   9 -13    2.32    3.46   1
   0   9 -13    1.66    3.30   1
   0   9 -12   -1.02    3.50   1
   0   9 -12   -1.61    1.83   1
   0   9 -11   -1.63    3.33   1
   0   9 -11    0.40    1.69   1
   0   9 -10   -3.49    3.98   1
   0   9 -10    4.10    1.78   1
   0   9  -9    5.74    2.32   1
   0   9  -9    2.21    1.85   1
   0   9  -8    4.79    2.32   1
   0   9  -8    4.18    3.13   1
   0   9  -7    5.67    2.52   1
   0   9  -7    6.38    1.81   1
   0   9  -6    0.20    2.36   1
   0   9  -6    4.77    1.56   1
   0  -9   5    8.98    2.93   1
   0  -9   5   10.75    2.27   1
   0  -9   4   11.79    2.71   1
   0  -9   4   11.17    3.37   1
   0  -9   3    8.53    2.51   1
   0  -9   3    9.26    3.24   1
   0  -9   2    1.18    2.37   1
   0  -9   2    2.14    1.76   1
   0  -9   1   -0.88    3.71   1
   0  -9   1    2.00    2.62   1
   0  -9   0    2.26    3.70   1
   0  -9   0    2.77    2.54   1
   0  -9  -1    5.09    4.15   1
   0  -9  -1    4.17    2.70   1
   0  -9  -2    9.02    4.29   1
   0  -9  -2   12.38    5.05  -1
   0  -7  10   12.38    5.05   2
   0  -9  -3   -2.55    2.45   1
   0  -9  -3   -1.45    2.47   1
   0  -9  -4   33.89    3.77   1
   0  -9  -4   30.84    3.76   1
   0  -9  -5   14.99    4.54   1
   0  -9  -5   14.61    3.26   1
   0  -9  -6   -0.27    3.74   1
   0  -9  -6   -1.99    2.38   1
   0  -9  -7    5.96    2.74   1
   0  -9  -7   11.15    4.40  -1
   0  -6  14   11.15    4.40   2
   0  -9  -8   17.11    4.33   1
   0  -9  -8   11.54    2.12   1
   0  -9  -9   -4.97    5.05  -1
   0  -5  16   -4.97    5.05   2
   0  -9 -10    0.25    3.38   1
   0  -9 -10    3.65    2.71   1
   0  -9 -11    5.78    2.16   1
   0  -9 -11   -0.46    1.59   1
   0  -9 -12   -3.20    3.24   1
   0  -9 -12   -0.50    2.72   1
   0  10 -11   -7.47    4.13   1
   0  10 -11   -1.41    3.00   1
   0  10 -10    4.04    4.12   1
   0  10 -10    1.37    1.76   1
   0  10  -9   10.53    4.30   1
   0  10  -9    6.25    1.99   1
   0  10  -8    4.24    3.80   1
   0  10  -8    5.08    1.92   1
   0  10  -7   -0.67    2.26   1
   0  10  -7    0.59    1.62   1
   0  10  -6   -2.96    2.30   1
   0  10  -6   -0.38    1.64   1
   0 -10   5   94.81    7.26  -1
   0 -10   5   94.81    7.26   2
   0 -10   5   86.63    6.23  -1
   0 -10   5   86.63    6.23   2
   0 -10   4    8.94    4.11   1
   0 -10   4    3.09    1.89   1
   0 -10   3    7.17    3.90   1
   0 -10   3    3.00    2.92   1
   0 -10   2    7.85    4.39   1
   0 -10   2   10.29    5.33  -1
   0  -9   8   10.29    5.33   2
   0 -10   1    1.63    4.44   1
   0 -10   1    6.45    3.05   1
   0 -10   0    3.14    2.38   1
   0 -10   0    3.72    1.57   1
   0 -10  -1    6.08    4.34   1
   0 -10  -1    2.37    2.59   1
   0 -10  -2    5.81    5.06  -1
   0  -8  11    5.81    5.06   2
   0 -10  -2    1.72    3.53  -1
   0  -8  11    1.72    3.53   2
   0 -10  -3   19.00    5.36   1
   0 -10  -3   22.06    2.51   1
   0 -10  -4    4.36    2.83   1
   0 -10  -4    7.25    2.66   1
   0 -10  -5    6.25    4.23   1
   0 -10  -5    3.35    2.50   1
   0 -10  -6   10.76    4.59   1
   0 -10  -6   11.73    4.97  -1
   0  -7  14   11.73    4.97   2
   0 -10  -7    9.92    4.01   1
   0 -10  -7    0.04    1.63   1
   0 -10  -8    6.85    3.87   1
   0 -10  -8    1.33    2.69   1
   0 -10  -9    6.73    3.68  -1
   0  -6  17    6.73    3.68   2
   0 -10  -9    6.39    4.01  -1
   0  -6  17    6.39    4.01   2
   0 -10 -10    3.00    3.97   1
   0 -10 -10    3.04    2.54   1
   0  11  -7    2.51    2.57   1
   0  11  -7    0.95    2.84   1
   0  11  -6   -1.15    2.52   1
   0  11  -6   -2.54    2.61   1
   0 -11   5   -0.10    2.61   1
   0 -11   5    2.70    2.02   1
   0 -11   4    8.03    4.64   1
   0 -11   4    2.44    3.35   1
   0 -11   3   -2.72    4.00   1
   0 -11   3   -2.82    2.99   1
   0 -11   2    1.47    2.71   1
   0 -11   2    6.71    2.89   1
   0 -11   1   -4.20    4.13   1
   0 -11   1   -1.58    1.66   1
   0 -11   0    1.92    4.39   1
   0 -11   0    5.38    2.85   1
   0 -11  -1    1.91    2.57   1
   0 -11  -1   -1.69    5.58  -1
   0  -9  11   -1.69    5.58   2
   0 -11  -2    8.21    4.26   1
   0 -11  -2   -0.23    2.64   1
   0 -11  -3   22.53    5.19   1
   0 -11  -3    9.25    3.34   1
   0 -11  -4    8.21    2.84   1
   0 -11  -4    4.42    1.93   1
   0 -11  -5    5.02    4.29   1
   0 -11  -5    0.81    2.64   1
   0 -11  -6    7.35    4.68   1
   0 -11  -6    0.25    3.91  -1
   0  -8  15    0.25    3.91   2
   1 -12   0    5.28    4.18   1
   1 -12   1    2.33    4.38   1
   1 -11  -7    7.89    6.01  -1
  -1  -7  16    7.89    6.01   2
   1 -11  -6    9.62    4.08   1
   1 -11  -5    2.33    2.39   1
   1 -11  -4   -0.83    3.59   1
   1 -11  -3    2.57    2.17   1
   1 -11  -3   -1.77    2.07   1
   1 -11  -2   -1.51    3.57   1
   1 -11  -2    0.69    1.24   1
   1 -11  -1    3.88    4.28   1
   1 -11  -1    4.33    2.56   1
   1 -11   0   10.65    3.40  -1
  -1  -9  10   10.65    3.40   2
   1 -11   0   -3.89    3.67  -1
  -1  -9  10   -3.89    3.67   2
   1 -11   1   -0.75    3.58   1
   1 -11   1    0.96    2.24   1
   1 -11   2    3.00    4.46   1
   1 -11   2    5.50    2.61   1
   1 -11   3    3.17    2.75   1
   1 -11   3    2.25    1.69   1
  -1  11  -4    1.22    2.36   1
  -1  11  -4   -2.24    2.13   1
  -1  11  -5   13.73    3.10   1
  -1  11  -5   11.53    2.85   1
  -1  11  -6   -1.79    3.59   1
  -1  11  -6    1.24    2.18   1
  -1  11  -7   -5.22    3.92  -1
   1  11  -4   -5.22    3.92   2
  -1  11  -7    1.48    2.63  -1
   1  11  -4    1.48    2.63   2
  -1  11  -8    6.02    2.55   1
  -1  11  -8    0.72    1.59   1
   1 -10 -10   -4.56    3.47   1
   1 -10  -9    7.25    3.76   1
   1 -10  -8   28.58    4.82   1
   1 -10  -8   19.08    3.10   1
   1 -10  -7    2.47    5.77  -1
  -1  -6  15    2.47    5.77   2
   1 -10  -7    2.66    3.37  -1
  -1  -6  15    2.66    3.37   2
   1 -10  -6   10.79    4.15   1
   1 -10  -6    4.02    1.40   1
   1 -10  -5    4.16    2.31   1
   1 -10  -5    4.34    2.25   1
   1 -10  -4    5.21    4.05   1
   1 -10  -4    5.88    2.14   1
   1 -10  -3    6.93    4.04   1
   1 -10  -2    3.44    2.16   1
   1 -10  -2   -2.92    2.15   1
   1 -10  -1   10.20    2.68   1
   1 -10  -1    6.54    2.32   1
   1 -10   0    8.38    4.60   1
   1 -10   0   66.45    7.99  -1
  -1  -8   9   66.45    7.99   2
   1 -10   1    5.55    4.19   1
   1 -10   1    5.63    2.60   1
   1 -10   2    5.38    3.70   1
   1 -10   2   -1.01    2.21   1
   1 -10   3    8.43    2.96   1
   1 -10   3    7.03    1.81   1
  -1  10  -4   32.47    3.91   1
  -1  10  -4   36.38    2.77   1
  -1  10  -5    3.25    3.55   1
  -1  10  -5   -0.35    2.00   1
  -1  10  -6    4.50    3.75   1
  -1  10  -6    0.27    2.39   1
  -1  10  -7    3.69    3.59   1
  -1  10  -7   -2.68    2.32   1
  -1  10  -8   -3.37    3.94   1
  -1  10  -8    2.54    1.53   1
  -1  10  -9    3.60    2.75   1
  -1  10  -9    6.65    1.73   1
  -1  10 -10   -0.59    2.23   1
  -1  10 -10   -0.09    1.51   1
  -1  10 -11   -1.17    3.69   1
  -1  10 -11    1.98    2.74   1
   1  -9 -13    2.55    3.02   1
   1  -9 -12   10.69    2.24   1
   1  -9 -12    8.61    2.67   1
   1  -9 -11    2.45    2.84   1
   1  -9 -11   -0.97    2.10   1
   1  -9 -10   11.09    2.49   1
   1  -9 -10   10.58    2.69   1
   1  -9  -9   25.51    4.55   1
   1  -9  -9   22.70    3.20   1
   1  -9  -8    4.86    3.07  -1
  -1  -5  15    4.86    3.07   2
   1  -9  -8    1.97    3.16  -1
  -1  -5  15    1.97    3.16   2
   1  -9  -7   16.23    4.05   1
   1  -9  -7    7.04    2.48   1
   1  -9  -6    6.63    3.39   1
   1  -9  -6    0.61    1.83   1
   1  -9  -5    2.82    3.67   1
   1  -9  -5   13.43    3.87  -1
  -1  -6  12   13.43    3.87   2
   1  -9  -4    1.93    2.04   1
   1  -9  -4    0.60    1.90   1
   1  -9  -3   17.48    4.01   1
   1  -9  -3    3.62    2.24   1
   1  -9  -2    6.35    3.76   1
   1  -9  -2   10.69    2.42   1
   1  -9  -1   23.22    6.17  -1
  -1  -7   9   23.22    6.17   2
   1  -9  -1   23.96    3.48  -1
  -1  -7   9   23.96    3.48   2
   1  -9   0   15.18    4.22   1
   1  -9   0    6.26    2.43   1
   1  -9   1    3.87    2.32   1
   1  -9   1    4.62    2.37   1
   1  -9   2    9.76    2.43   1
   1  -9   2   -0.36    2.47   1
   1  -9   3    0.93    2.38   1
   1  -9   3    1.48    2.50   1
  -1   9  -4   44.38    3.59   1
  -1   9  -4   26.19    2.28   1
  -1   9  -5    4.08    2.15   1
  -1   9  -5   -0.67    2.30   1
  -1   9  -6   20.40    4.56  -1
   1   9  -3   20.40    4.56   2
  -1   9  -6    1.97    2.85  -1
   1   9  -3    1.97    2.85   2
  -1   9  -7   10.46    4.21   1
  -1   9  -7    9.21    2.83   1
  -1   9  -8   -3.89    3.79   1
  -1   9  -8    5.98    2.60   1
  -1   9  -9   17.79    4.85   1
  -1   9  -9   16.14    3.05   1
  -1   9 -10   -3.45    3.47   1
  -1   9 -10   -0.08    2.56   1
  -1   9 -11    4.92    3.54   1
  -1   9 -11    2.26    1.86   1
  -1   9 -12   14.78    2.98   1
  -1   9 -12   19.89    3.70   1
  -1   9 -13    5.72    4.43  -1
   1  11   3    5.72    4.43   2
  -1   9 -13    8.16    3.74  -1
   1  11   3    8.16    3.74   2
   1  -8 -14    4.25    2.72   1
   1  -8 -14    3.48    2.73   1
   1  -8 -13   -0.09    1.66   1
   1  -8 -13    4.62    2.44   1
   1  -8 -12   13.49    3.33   1
   1  -8 -12   10.86    2.85   1
   1  -8 -11    0.78    1.72   1
   1  -8 -11   -2.53    2.25   1
   1  -8 -10    7.60    3.12   1
   1  -8 -10    3.47    2.35   1
   1  -8  -9   59.57    5.95   1
   1  -8  -9   55.99    4.61   1
   1  -8  -8    4.16    5.01  -1
  -1  -4  14    4.16    5.01   2
   1  -8  -8   10.22    3.47  -1
  -1  -4  14   10.22    3.47   2
   1  -8  -7   20.77    3.82   1
   1  -8  -7   14.57    2.69   1
   1  -8  -6    7.57    3.41   1
   1  -8  -6    6.65    3.28  -1
  -1  -5  12    6.65    3.28   2
   1  -8  -5   21.15    4.07   1
   1  -8  -5   13.95    2.33   1
   1  -8  -4   20.77    2.76   1
   1  -8  -4   11.72    2.32   1
   1  -8  -3    0.72    1.68   1
   1  -8  -3   -0.19    1.67   1
   1  -8  -2   14.52    2.48   1
   1  -8  -2   12.66    2.54   1
   1  -8  -1  211.10   15.33  -1
  -1  -6   8  211.10   15.33   2
   1  -8  -1  208.00   12.78  -1
  -1  -6   8  208.00   12.78   2
   1  -8   0    9.58    2.46   1
   1  -8   0    9.38    2.22   1
   1  -8   1    3.33    2.05   1
   1  -8   1    3.94    2.14   1
   1  -8   2    7.68    2.45   1
   1  -8   2   11.37    2.39   1
   1  -8   3  101.00    6.19   1
   1  -8   3   88.98    5.76   1
  -1   8  -4   -0.10    2.15   1
  -1   8  -4    4.42    2.06   1
  -1   8  -5    6.71    2.23   1
  -1   8  -5    6.94    2.23   1
  -1   8  -6    1.94    1.91   1
  -1   8  -6    1.26    2.30   1
  -1   8  -7    3.96    2.32   1
  -1   8  -7    8.45    2.55   1
  -1   8  -8    7.50    2.68   1
  -1   8  -8   11.16    2.73   1
  -1   8  -9    3.97    2.19   1
  -1   8  -9   -1.02    2.59   1
  -1   8 -10    9.95    2.48   1
  -1   8 -10    7.89    3.09   1
  -1   8 -11    8.99    4.12   1
  -1   8 -11   12.79    3.43   1
  -1   8 -12    7.41    3.13   1
  -1   8 -12   11.57    7.14  -1
   1  10   3   11.57    7.14   2
  -1   8 -13    4.13    3.88   1
  -1   8 -13    3.96    2.00   1
  -1   8 -14    0.36    3.58   1
  -1   8 -14    2.19    3.48   1
  -1   8 -14    4.52    3.01   1
  -1   8 -15    6.31    3.55   1
  -1   8 -15    3.92    3.27   1
   1  -7 -16   10.89    4.16  -1
  -1  -1  20   10.89    4.16   2
   1  -7 -16   12.18    4.00  -1
  -1  -1  20   12.18    4.00   2
   1  -7 -15    3.30    2.49   1
   1  -7 -15   -1.24    2.69   1
   1  -7 -14    1.72    1.52   1
   1  -7 -14    4.97    2.74   1
   1  -7 -13   18.76    3.42   1
   1  -7 -13   12.32    3.30   1
   1  -7 -12    3.68    2.52   1
   1  -7 -12   -2.68    2.17   1
   1  -7 -11   13.74    3.43   1
   1  -7 -11   13.29    2.76   1
   1  -7 -10   43.60    3.33   1
   1  -7 -10   45.96    4.00   1
   1  -7  -9    5.47    4.13  -1
  -1  -3  14    5.47    4.13   2
   1  -7  -9    7.88    3.15  -1
  -1  -3  14    7.88    3.15   2
   1  -7  -8   26.77    4.01   1
   1  -7  -8   25.48    2.98   1
   1  -7  -7   -0.31    2.93   1
   1  -7  -7    3.97    1.87   1
   1  -7  -6    2.08    2.90   1
   1  -7  -6   48.84    5.43  -1
  -1  -4  11   48.84    5.43   2
   1  -7  -5    1.99    3.19   1
   1  -7  -5    6.89    1.86   1
   1  -7  -4    4.85    3.09   1
   1  -7  -4    5.02    1.77   1
  -1   7   4    3.42    1.56   1
   1  -7  -3   22.38    4.00   1
   1  -7  -3   21.81    2.15   1
  -1   7   3   17.32    2.04   1
   1  -7  -2   60.50    6.27  -1
  -1  -5   8   60.50    6.27   2
   1  -7  -2   56.36    4.42  -1
  -1  -5   8   56.36    4.42   2
  -1   7   2   54.91    4.39  -1
   1   5  -8   54.91    4.39   2
   1  -7  -1   24.07    3.70   1
   1  -7  -1   15.41    2.40   1
  -1   7   1   17.35    2.01   1
   1  -7   0   12.04    3.49   1
   1  -7   0    6.00    1.85   1
  -1   7   0   10.00    1.73   1
   1  -7   1    9.30    1.92   1
   1  -7   1    4.75    2.11   1
   1  -7   2    8.22    2.08   1
   1  -7   2    6.14    2.22   1
   1  -7   3   64.46    4.53   1
   1  -7   3   56.18    3.17   1
  -1   7  -4    5.46    3.14   1
  -1   7  -4    1.71    2.05   1
  -1   7  -5   19.27    4.00  -1
   1   7  -2   19.27    4.00   2
  -1   7  -5   10.49    2.74  -1
   1   7  -2   10.49    2.74   2
  -1   7  -6    3.94    3.39   1
  -1   7  -6    6.16    2.44   1
  -1   7  -7    6.36    3.56   1
  -1   7  -7    6.56    2.39   1
  -1   7  -8   23.21    4.12   1
  -1   7  -8   18.86    3.07   1
  -1   7  -9    7.27    3.49   1
  -1   7  -9    5.80    2.89   1
  -1   7 -10    3.66    3.20   1
  -1   7 -10   -0.48    2.57   1
  -1   7 -11   50.97    5.62   1
  -1   7 -11   47.76    3.64   1
  -1   7 -12   13.98    4.61  -1
   1   9   4   13.98    4.61   2
  -1   7 -12   11.72    4.23  -1
   1   9   4   11.72    4.23   2
  -1   7 -13   -2.01    2.82   1
  -1   7 -13    0.13    3.06   1
  -1   7 -13    2.73    2.69   1
  -1   7 -14    9.32    3.53   1
  -1   7 -14    6.10    3.31   1
  -1   7 -15   -0.65    3.54   1
  -1   7 -15    7.31    2.11   1
  -1   7 -16    2.06    2.09   1
  -1   7 -16    6.48    3.32   1
   1  -6 -17    6.10    3.18   1
   1  -6 -16    7.97    2.97  -1
  -1   0  19    7.97    2.97   2
   1  -6 -16    8.60    5.03  -1
  -1   0  19    8.60    5.03   2
   1  -6 -15    9.41    2.42   1
   1  -6 -15    7.75    2.01   1
   1  -6 -14    1.45    1.48   1
   1  -6 -14    2.56    2.56   1
   1  -6 -13   21.11    3.27   1
   1  -6 -13   17.54    3.34   1
   1  -6 -12    2.54    2.46   1
   1  -6 -12    4.83    2.59   1
   1  -6 -11    3.33    2.72   1
   1  -6 -11    6.15    1.63   1
   1  -6 -10  117.76    7.50   1
   1  -6 -10  163.03   11.67  -1
  -1  -2  14  163.03   11.67   2
   1  -6  -9    2.26    3.53  -1
  -1  -2  13    2.26    3.53   2
   1  -6  -9   10.90    3.53  -1
  -1  -2  13   10.90    3.53   2
   1  -6  -8   35.07    3.93   1
   1  -6  -8   30.70    2.95   1
   1  -6  -7   22.04    3.28   1
   1  -6  -7   20.13    2.52   1
   1  -6  -6   56.65    4.72   1
   1  -6  -6   58.96    3.58   1
  -1   6   6   42.92    2.90   1
   1  -6  -5   39.10    2.88   1
   1  -6  -5   37.08    2.83   1
  -1   6   5   33.61    2.50   1
   1  -6  -4   -0.52    2.46   1
   1  -6  -4   -0.43    1.35   1
  -1   6   4   -0.71    1.23   1
   1  -6  -3   34.15    3.85   1
   1  -6  -3   23.03    2.02   1
  -1   6   3   23.16    1.93   1
   1  -6  -2  465.26   25.62  -1
  -1  -4   7  465.26   25.62   2
   1  -6  -2  437.77   21.76  -1
  -1  -4   7  437.77   21.76   2
  -1   6   2  419.26   22.69  -1
   1   4  -7  419.26   22.69   2
   1  -6  -1   24.62    3.62   1
   1  -6  -1   22.05    2.31   1
  -1   6   1   23.17    2.00   1
   1  -6   0   19.74    3.36   1
   1  -6   0   10.24    1.69   1
  -1   6   0    9.79    1.65   1
   1  -6   1   16.15    2.28   1
   1  -6   1   18.31    2.22   1
  -1   6  -1   18.67    1.91   1
   1  -6   2  187.48    9.77   1
   1  -6   2  164.69    7.39   1
  -1   6  -2  148.58    6.84   1
   1  -6   3   -0.57    1.77   1
   1  -6   3   -0.78    1.13   1
  -1   6  -4   11.39    2.00   1
  -1   6  -4    7.44    2.18   1
  -1   6  -5    3.12    2.01   1
  -1   6  -5   11.04    3.06  -1
   1   6  -1   11.04    3.06   2
  -1   6  -6   12.50    3.35   1
  -1   6  -6    8.71    1.45   1
  -1   6  -7   18.19    2.76   1
  -1   6  -8    3.98    3.02   1
  -1   6  -8    1.61    2.36   1
  -1   6  -9   25.82    4.02   1
  -1   6  -9   21.49    3.48   1
  -1   6 -10   40.96    4.95   1
  -1   6 -10   44.32    3.02   1
  -1   6 -11   19.53    6.71  -1
   1   8   4   19.53    6.71   2
  -1   6 -11   16.55    4.87  -1
   1   8   4   16.55    4.87   2
  -1   6 -12    0.01    3.18   1
  -1   6 -12    5.90    2.95   1
  -1   6 -13    9.35    3.55   1
  -1   6 -13    5.51    3.23   1
  -1   6 -14   12.78    3.57   1
  -1   6 -14    6.76    2.16   1
  -1   6 -15    5.62    3.29   1
  -1   6 -15    1.05    3.13   1
  -1   6 -16    1.76    3.18   1
  -1   6 -16   -0.41    3.00   1
  -1   6 -17    3.11    3.14   1
  -1   6 -17   -2.14    3.16   1
   1  -5 -18    3.20    3.03   1
   1  -5 -17   12.21    3.09  -1
  -1   1  19   12.21    3.09   2
   1  -5 -17   14.28    4.52  -1
  -1   1  19   14.28    4.52   2
   1  -5 -16    2.61    2.97   1
   1  -5 -16    0.59    3.47  -1
  -1   1  18    0.59    3.47   2
   1  -5 -15    5.11    2.37   1
   1  -5 -15    2.57    2.97   1
   1  -5 -14   25.59    3.24   1
   1  -5 -14   28.09    3.98   1
   1  -5 -13    0.83    2.16   1
   1  -5 -13    3.04    1.59   1
   1  -5 -12   11.59    2.72   1
   1  -5 -12   16.28    3.19   1
   1  -5 -11   67.11    4.87   1
   1  -5 -11   69.73    3.60   1
   1  -5 -10    6.41    1.95  -1
  -1  -1  13    6.41    1.95   2
   1  -5 -10    6.85    2.76  -1
  -1  -1  13    6.85    2.76   2
   1  -5  -9   48.31    3.88   1
   1  -5  -9   47.12    3.62   1
   1  -5  -8   10.51    2.68   1
   1  -5  -8   11.56    2.19   1
   1  -5  -7    6.85    1.45   1
   1  -5  -7    3.35    1.85   1
  -1   5   7    1.44    1.41   1
   1  -5  -6    4.48    2.34   1
   1  -5  -6    3.58    1.67   1
  -1   5   6    5.53    1.77   1
   1  -5  -5   11.00    2.45   1
   1  -5  -5   12.78    1.90   1
  -1   5   5   10.62    1.47   1
   1  -5  -4   44.88    2.65   1
   1  -5  -4   40.88    2.51   1
  -1   5   4   40.80    2.27   1
   1  -5  -3  148.10    8.65  -1
  -1  -3   7  148.10    8.65   2
   1  -5  -3  137.62    5.90  -1
  -1  -3   7  137.62    5.90   2
  -1   5   3  145.75    7.13  -1
   1   3  -7  145.75    7.13   2
   1  -5  -2   66.50    4.67   1
   1  -5  -2   59.36    2.81   1
  -1   5   2   60.93    3.45   1
   1  -5  -1   24.25    2.25   1
   1  -5  -1   24.75    1.95   1
  -1   5   1   21.76    1.80   1
   1  -5   0   19.35    3.10   1
   1  -5   0   12.81    1.59   1
  -1   5   0   14.07    1.55   1
   1  -5   1    7.02    2.78   1
   1  -5   1    5.37    1.63   1
  -1   5  -1    8.68    1.41   1
   1  -5   2  121.97    5.51   1
   1  -5   2  113.89    5.18   1
  -1   5  -2  111.79    4.99   1
  -1   5  -3   13.34    3.00   1
  -1   5  -3    9.43    1.64   1
  -1   5  -3   13.84    1.99   1
  -1   5  -4   34.41    3.78  -1
   1   5  -1   34.41    3.78   2
  -1   5  -4   29.94    3.05  -1
   1   5  -1   29.94    3.05   2
  -1   5  -5   21.72    3.36   1
  -1   5  -5   19.27    1.73   1
  -1   5  -6   16.11    3.34   1
  -1   5  -6   17.86    2.53   1
  -1   5  -7   44.80    4.41   1
  -1   5  -7   48.21    3.79   1
  -1   5  -8   15.51    2.04   1
  -1   5  -8   11.30    2.90   1
  -1   5  -9    7.24    1.86   1
  -1   5  -9    4.86    2.63   1
  -1   5 -10  142.80    6.90   1
  -1   5 -10  126.28    6.43   1
  -1   5 -11   32.55    4.57  -1
   1   7   5   32.55    4.57   2
  -1   5 -11   28.17    2.78  -1
   1   7   5   28.17    2.78   2
  -1   5 -12   -0.38    2.70   1
  -1   5 -12   -0.55    2.71   1
  -1   5 -13   11.68    2.24   1
  -1   5 -13   14.14    3.65   1
  -1   5 -14   -0.59    1.81   1
  -1   5 -14    1.16    1.71   1
  -1   5 -15   12.73    2.43   1
  -1   5 -15    8.57    3.57   1
  -1   5 -16   -1.65    3.01   1
  -1   5 -16    0.01    1.84   1
  -1   5 -17    8.66    3.46   1
  -1   5 -17   -2.66    3.50   1
  -1   5 -18   35.07    6.90  -1
   1   9  11   35.07    6.90   2
  -1   5 -18   29.78    4.23  -1
   1   9  11   29.78    4.23   2
   1  -4 -18    2.79    3.27   1
   1  -4 -17    7.43    2.66  -1
  -1   2  18    7.43    2.66   2
   1  -4 -17   12.88    4.42  -1
  -1   2  18   12.88    4.42   2
   1  -4 -16   13.76    2.67   1
   1  -4 -16   10.89    3.72   1
   1  -4 -15    4.12    2.21   1
   1  -4 -15   11.68    3.21   1
   1  -4 -14   32.56    2.34   1
   1  -4 -14   28.41    4.06   1
   1  -4 -13    3.49    2.23   1
   1  -4 -13    3.26    2.76   1
   1  -4 -12    5.93    2.24   1
   1  -4 -12    9.19    2.67   1
   1  -4 -11  284.46   15.86  -1
  -1   0  13  284.46   15.86   2
   1  -4 -10   12.34    3.60  -1
  -1   0  12   12.34    3.60   2
   1  -4  -9   56.77    3.63   1
   1  -4  -9   47.70    3.62   1
   1  -4  -8   52.92    3.51   1
   1  -4  -8   50.17    2.43   1
  -1   4   8   38.88    2.02   1
  -1   4   8   43.48    2.78   1
   1  -4  -7  133.22    6.28   1
   1  -4  -7  128.02    5.56   1
  -1   4   7  118.66    5.63   1
  -1   4   7  120.59    5.30   1
   1  -4  -6   71.75    4.19   1
   1  -4  -6   67.55    3.56   1
  -1   4   6   66.20    3.45   1
  -1   4   6   67.93    3.28   1
   1  -4  -5    1.63    1.69   1
   1  -4  -5    0.40    1.32   1
  -1   4   5    0.07    1.41   1
  -1   4   5   -0.52    1.08   1
   1  -4  -4   34.75    2.94   1
   1  -4  -4   37.11    2.18   1
  -1   4   4   34.66    1.94   1
  -1   4   4   31.92    1.89   1
  -1   4   3  277.89   13.55   1
   1  -4  -3 1060.41   58.49  -1
  -1  -2   6 1060.41   58.49   2
   1  -4  -3  995.54   51.33  -1
  -1  -2   6  995.54   51.33   2
  -1   4   3  965.96   52.12  -1
   1   2  -6  965.96   52.12   2
   1  -4  -2   20.77    3.03   1
   1  -4  -2   19.17    1.97   1
  -1   4   2   19.29    2.16   1
  -1   4   2   18.32    1.38   1
   1  -4  -1   34.54    2.11   1
   1  -4  -1   33.93    1.88   1
  -1   4   1   30.06    1.94   1
  -1   4   1   32.57    1.80   1
   1  -4   0   35.15    2.28   1
   1  -4   0   29.80    1.74   1
  -1   4   0   35.89    2.94   1
  -1   4   0   33.40    1.86   1
   1  -4   1  291.73   11.26   1
   1  -4   1  284.83   10.61   1
  -1   4  -1  303.65   12.84   1
  -1   4  -1  323.14   11.69   1
  -1   4  -2    0.56    1.79   1
  -1   4  -2    0.32    1.31   1
  -1   4  -2    1.66    1.11   1
  -1   4  -2    2.50    1.49   1
  -1   4  -3   15.65    1.51   1
  -1   4  -3   18.49    3.03   1
  -1   4  -3   14.56    1.19   1
  -1   4  -3   20.41    2.12   1
  -1   4  -4   13.00    1.30   1
  -1   4  -4   42.61    6.48  -1
   1   4   0   42.61    6.48   2
  -1   4  -4   48.79    4.97  -1
   1   4   0   48.79    4.97   2
  -1   4  -5   22.71    2.01   1
  -1   4  -5   21.41    1.63   1
  -1   4  -5   25.40    2.44   1
  -1   4  -6   42.89    3.82   1
  -1   4  -6   43.17    2.46   1
  -1   4  -7    7.59    2.72   1
  -1   4  -7    8.51    1.42   1
  -1   4  -8   39.07    3.82   1
  -1   4  -8   38.53    2.58   1
  -1   4  -9  105.08    4.89   1
  -1   4  -9  115.32    6.53   1
  -1   4 -10   43.16    5.70  -1
   1   6   5   43.16    5.70   2
  -1   4 -10   47.58    6.87  -1
   1   6   5   47.58    6.87   2
  -1   4 -11   24.79    3.83  -1
   1   6   6   24.79    3.83   2
  -1   4 -11   22.97    5.06  -1
   1   6   6   22.97    5.06   2
  -1   4 -12    6.72    1.85   1
  -1   4 -12    5.99    1.83   1
  -1   4 -13   11.55    2.04   1
  -1   4 -13    6.04    3.09   1
  -1   4 -14    6.54    3.41   1
  -1   4 -14    9.48    2.14   1
  -1   4 -15    0.50    2.95   1
  -1   4 -15    0.16    2.89   1
  -1   4 -16    1.24    3.12   1
  -1   4 -16   -2.15    1.90   1
  -1   4 -17    2.11    4.06  -1
   1   8  11    2.11    4.06   2
  -1   4 -18    0.40    2.16   1
  -1   4 -18   -3.71    2.13   1
   1  -3 -19    9.72    3.67   1
   1  -3 -18   18.22    2.90  -1
  -1   3  18   18.22    2.90   2
   1  -3 -18   21.57    5.33  -1
  -1   3  18   21.57    5.33   2
   1  -3 -17   11.92    3.80   1
   1  -3 -17    8.10    2.60  -1
  -1   3  17    8.10    2.60   2
   1  -3 -16    6.08    2.29   1
   1  -3 -16    8.11    2.21   1
   1  -3 -15   38.57    3.04   1
   1  -3 -15   32.26    3.11   1
   1  -3 -14    5.08    2.01   1
   1  -3 -14    3.26    1.87   1
   1  -3 -13   13.48    2.33   1
   1  -3 -13   16.66    2.15   1
   1  -3 -12   83.36    4.15   1
   1  -3 -11    8.56    3.08  -1
  -1   1  12    8.56    3.08   2
   1  -3 -11   11.74    2.05  -1
  -1   1  12   11.74    2.05   2
   1  -3 -10   74.56    3.78   1
   1  -3 -10   57.57    4.44   1
  -1   3  10   57.48    3.22   1
   1  -3  -9   18.02    2.34   1
   1  -3  -9   19.32    2.64   1
  -1   3   9   18.50    1.96   1
   1  -3  -8    7.98    1.77   1
   1  -3  -8    4.26    1.15   1
  -1   3   8    3.58    1.40   1
  -1   3   8    3.62    1.57   1
   1  -3  -7   11.73    1.93   1
   1  -3  -7   17.52    2.06   1
  -1   3   7   11.85    1.70   1
  -1   3   7   14.23    1.79   1
   1  -3  -6   10.56    1.88   1
   1  -3  -6    9.33    1.84   1
  -1   3   6   14.59    1.75   1
  -1   3   6   12.25    1.58   1
   1  -3  -5   72.77    3.59   1
   1  -3  -5   73.07    3.26   1
  -1   3   5   66.04    3.27   1
  -1   3   5   75.11    3.10   1
   1  -3  -4  241.70   10.18  -1
  -1  -1   6  241.70   10.18   2
   1  -3  -4  253.60    9.04  -1
  -1  -1   6  253.60    9.04   2
  -1   3   4  257.71   10.53  -1
   1   1  -6  257.71   10.53   2
  -1   3   4  255.77    9.15  -1
   1   1  -6  255.77    9.15   2
   1  -3  -3  134.86    5.79   1
   1  -3  -3  133.80    4.40   1
  -1   3   3  138.67    5.59   1
  -1   3   3  138.04    4.45   1
   1  -3  -2   47.17    3.24   1
   1  -3  -2   48.33    2.25   1
  -1   3   2   43.88    2.81   1
  -1   3   2   46.74    1.83   1
   1  -3  -1   20.01    2.50   1
   1  -3  -1   20.94    1.66   1
  -1   3   1   19.54    2.36   1
  -1   3   1   21.11    1.59   1
   1  -3   0    5.64    1.39   1
   1  -3   0    7.15    1.17   1
  -1   3   0    6.87    2.06   1
  -1   3   0    9.02    1.07   1
   1  -3   1   24.02    1.97   1
   1  -3   1   22.24    1.21   1
  -1   3  -1  197.30    4.75   1
  -1   3  -1  211.88    4.42   1
  -1   3  -2   37.11    3.05   1
  -1   3  -2   36.58    2.19   1
  -1   3  -2   37.76    2.12   1
  -1   3  -2   33.33    1.54   1
   1  -3   3   58.25    2.78  -1
  -1  -3   0   58.25    2.78   2
   1  -3   3   62.22    3.31  -1
  -1  -3   0   62.22    3.31   2
  -1   3  -3   54.62    3.03  -1
   1   3   0   54.62    3.03   2
  -1   3  -3   54.22    3.09  -1
   1   3   0   54.22    3.09   2
   1  -3   4   50.30    3.41   1
   1  -3   4   44.40    2.66   1
  -1   3  -4   47.77    3.39   1
  -1   3  -4   45.02    2.17   1
   1  -3   5   31.99    2.97   1
   1  -3   5   28.55    1.62   1
  -1   3  -5   26.72    3.08   1
  -1   3  -5   30.08    2.87   1
   1  -3   6   79.19    4.33   1
  -1   3  -6   86.35    5.06   1
  -1   3  -6   84.48    4.82   1
  -1   3  -7   27.16    2.07   1
  -1   3  -7   29.98    2.08   1
  -1   3  -8   11.11    2.54   1
  -1   3  -8    7.28    2.52   1
  -1   3  -9  304.69   14.31   1
  -1   3  -9  319.81   15.22   1
  -1   3 -10   38.66    4.66  -1
   1   5   6   38.66    4.66   2
  -1   3 -10   40.87    3.00  -1
   1   5   6   40.87    3.00   2
  -1   3 -11    4.02    2.54   1
  -1   3 -11   -0.15    2.68   1
  -1   3 -12   27.83    2.54   1
  -1   3 -12   29.06    4.09   1
  -1   3 -13    0.81    1.52   1
  -1   3 -13   -2.47    2.65   1
  -1   3 -14   21.80    3.82   1
  -1   3 -14   16.94    3.90   1
  -1   3 -15   -0.53    3.04   1
  -1   3 -15    4.51    3.11   1
  -1   3 -16   10.71    3.62   1
  -1   3 -16    7.09    2.22   1
  -1   3 -17   50.67    4.57  -1
   1   7  12   50.67    4.57   2
  -1   3 -17   41.14    6.81  -1
   1   7  12   41.14    6.81   2
  -1   3 -18    7.41    3.71   1
  -1   3 -18    4.65    2.44   1
  -1   3 -19   19.26    4.25   1
  -1   3 -19   12.28    4.31   1
   1  -2 -19   -1.88    2.19   1
   1  -2 -18    3.95    2.35  -1
  -1   4  17    3.95    2.35   2
   1  -2 -17   16.95    3.97   1
   1  -2 -17   34.93    4.74  -1
  -1   4  16   34.93    4.74   2
   1  -2 -16   16.11    2.53   1
   1  -2 -16   13.37    2.46   1
   1  -2 -15   32.91    3.03   1
   1  -2 -15   30.56    2.89   1
   1  -2 -14   13.19    2.20   1
   1  -2 -14    0.58    3.16   1
   1  -2 -13    4.76    1.76   1
   1  -2 -13    6.67    2.79   1
   1  -2 -12  165.14    8.75   1
   1  -2 -12  339.38   15.66  -1
  -1   2  12  339.38   15.66   2
   1  -2 -11   10.04    1.94  -1
  -1   2  11   10.04    1.94   2
   1  -2 -11   14.90    3.45  -1
  -1   2  11   14.90    3.45   2
  -1   2  11    7.30    2.12  -1
   1  -2 -11    7.30    2.12   2
   1  -2 -10   60.32    3.28   1
   1  -2 -10   63.08    3.08   1
  -1   2  10   57.88    2.88   1
   1  -2  -9   95.01    4.02   1
   1  -2  -9   86.30    5.00   1
  -1   2   9   87.04    3.54   1
   1  -2  -8  227.30    8.35   1
   1  -2  -8  224.35    9.43   1
  -1   2   8  218.74    7.75   1
  -1   2   8  211.88    8.69   1
   1  -2  -7  103.44    4.61   1
   1  -2  -7   96.39    3.56   1
  -1   2   7   98.20    3.65   1
  -1   2   7   97.58    4.34   1
   1  -2  -6    2.51    1.30   1
   1  -2  -6    2.46    1.57   1
  -1   2   6    2.79    1.07   1
  -1   2   6    1.51    1.28   1
   1  -2  -5   44.73    2.35   1
   1  -2  -5   43.31    1.80   1
  -1   2   5   44.45    2.17   1
  -1   2   5   76.31    4.60  -1
   1   0  -6   76.31    4.60   2
   1  -2  -4 2105.10  133.33  -1
  -1   0   5 2105.10  133.33   2
  -1   2   4 2290.99  148.12  -1
   1   0  -5 2290.99  148.12   2
   1  -2  -3   32.82    2.72   1
   1  -2  -3   32.46    1.65   1
  -1   2   3   33.23    2.04   1
  -1   2   3   33.44    1.60   1
   1  -2  -2   79.36    3.43   1
   1  -2  -2   78.68    2.63   1
  -1   2   2   76.35    3.19   1
  -1   2   2   82.37    2.60   1
   1  -2  -1   55.49    3.00   1
   1  -2  -1   57.09    1.64   1
  -1   2   1   58.16    2.90   1
  -1   2   0  522.05   20.11   1
  -1   2   0  495.42   17.47   1
  -1   2   0  508.76   16.89   1
  -1   2   0  478.05   15.36   1
   1  -2   1   -0.50    1.55   1
   1  -2   1    0.42    0.96   1
  -1   2  -1    2.62    1.90   1
  -1   2  -1   -0.28    1.00   1
   1  -2   2   18.26    1.53   1
   1  -2   2   17.52    1.81   1
  -1   2  -2   15.85    1.66   1
  -1   2  -2   17.20    1.87   1
   1  -2   3   29.60    1.63   1
   1  -2   3  102.17    6.31  -1
  -1  -2  -1  102.17    6.31   2
  -1   2  -3   80.38    5.93  -1
   1   2   1   80.38    5.93   2
  -1   2  -3   84.45    5.11  -1
   1   2   1   84.45    5.11   2
   1  -2   4   41.28    2.17   1
   1  -2   4   38.28    2.78   1
  -1   2  -4   33.41    3.20   1
  -1   2  -4   37.87    2.88   1
   1  -2   5   75.64    4.14   1
   1  -2   5   74.91    3.02   1
  -1   2  -5   68.58    3.02   1
  -1   2  -5   79.54    4.17   1
   1  -2   6   14.46    2.34   1
   1  -2   6   13.85    1.40   1
  -1   2  -6   11.83    2.58   1
  -1   2  -6   16.32    1.54   1
   1  -2   7   63.00    3.68   1
  -1   2  -7   58.07    4.17   1
  -1   2  -7   65.27    4.21   1
  -1   2  -8  224.58   10.27   1
  -1   2  -8  227.72    8.85   1
  -1   2  -9   70.33    7.09  -1
   1   4   6   70.33    7.09   2
  -1   2  -9   70.01    7.51  -1
   1   4   6   70.01    7.51   2
  -1   2 -10   49.43    5.46  -1
   1   4   7   49.43    5.46   2
  -1   2 -10   40.52    5.80  -1
   1   4   7   40.52    5.80   2
  -1   2 -11   16.29    2.01   1
  -1   2 -11   13.78    3.27   1
  -1   2 -12    6.84    2.93   1
  -1   2 -12    4.83    1.89   1
  -1   2 -13   18.51    3.38   1
  -1   2 -13   14.88    3.61   1
  -1   2 -14    5.23    2.00   1
  -1   2 -14    4.57    3.34   1
  -1   2 -15    5.29    2.92   1
  -1   2 -15    0.06    1.99   1
  -1   2 -16    4.96    3.81  -1
   1   6  12    4.96    3.81   2
  -1   2 -16   -3.71    5.25  -1
   1   6  12   -3.71    5.25   2
  -1   2 -17   11.04    5.17  -1
   1   6  13   11.04    5.17   2
  -1   2 -17   15.89    4.37  -1
   1   6  13   15.89    4.37   2
  -1   2 -18    9.18    3.88   1
  -1   2 -18   12.87    3.94   1
  -1   2 -19   26.04    4.85   1
  -1   2 -19   24.15    5.08   1
   1  -1 -20    1.32    3.72   1
   1  -1 -19   20.46    3.46  -1
  -1   5  17   20.46    3.46   2
   1  -1 -19   16.58    6.02  -1
  -1   5  17   16.58    6.02   2
   1  -1 -18    0.81    1.98   1
   1  -1 -18    6.84    2.94  -1
  -1   5  16    6.84    2.94   2
   1  -1 -17   15.51    2.81   1
   1  -1 -17   16.56    4.16   1
   1  -1 -16   26.55    3.12   1
   1  -1 -16   21.53    4.40   1
   1  -1 -15   12.26    2.35   1
   1  -1 -15   11.14    2.27   1
   1  -1 -14   13.66    2.24   1
   1  -1 -14   13.06    3.52   1
   1  -1 -13   64.81    3.95   1
   1  -1 -13   53.16    3.63   1
   1  -1 -12   10.82    2.27  -1
  -1   3  11   10.82    2.27   2
   1  -1 -12   14.53    3.44  -1
  -1   3  11   14.53    3.44   2
  -1   1  12    5.18    2.13  -1
   1  -3 -11    5.18    2.13   2
   1  -1 -11   50.85    4.40   1
  -1   1  11   50.77    2.77   1
   1  -1 -11  126.29    6.81  -1
  -1   3  10  126.29    6.81   2
   1  -1 -10   23.39    2.13   1
   1  -1 -10   23.20    2.04   1
  -1   1  10   21.92    1.72   1
   1  -1  -9    6.31    1.46   1
   1  -1  -9    3.39    2.22   1
  -1   1   9    3.52    1.55   1
   1  -1  -8   21.86    1.79   1
   1  -1  -8   23.33    1.78   1
  -1   1   8   20.31    1.48   1
  -1   1   8   18.93    1.52   1
   1  -1  -7   13.09    1.40   1
   1  -1  -7   13.05    2.17   1
  -1   1   7   12.80    1.66   1
  -1   1   7   12.57    1.26   1
   1  -1  -6   73.58    3.26   1
   1  -1  -6   79.49    2.86   1
  -1   1   6   77.35    2.71   1
  -1   1   6   71.62    2.69   1
   1  -1  -5  290.28    9.61  -1
  -1   1   5  290.28    9.61   2
   1  -1  -5  306.81   11.69  -1
  -1   1   5  306.81   11.69   2
  -1   1   5  278.37    8.70  -1
   1  -1  -5  278.37    8.70   2
  -1   1   5  299.78   11.30  -1
   1  -1  -5  299.78   11.30   2
   1  -1  -4  214.16    6.10   1
   1  -1  -4  213.56    7.28   1
  -1   1   4  209.83    5.84   1
  -1   1   4  236.19    7.94   1
   1  -1  -3   76.85    2.41   1
   1  -1  -3   69.96    2.86   1
  -1   1   3   74.01    2.14   1
  -1   1   3   80.15    2.97   1
   1  -1  -2   23.26    1.27   1
   1  -1  -2   21.78    1.26   1
  -1   1   2   26.40    0.93   1
  -1   1   2   22.81    1.21   1
   1  -1  -1    3.08    0.47   1
  -1   1   1    4.41    0.94   1
  -1   1   1    2.30    0.52   1
   1  -1   0  266.11    8.54   1
   1  -1   0  269.73    7.37   1
  -1   1   0  262.87    8.60   1
  -1   1   0  277.80    7.78   1
   1  -1   1   91.79    4.23   1
   1  -1   1   89.96    3.05   1
  -1   1  -1   89.19    4.20   1
  -1   1  -1   89.93    3.28   1
   1  -1   2  124.65    4.23  -1
  -1  -1  -1  124.65    4.23   2
   1  -1   2  125.90    5.12  -1
  -1  -1  -1  125.90    5.12   2
  -1   1  -2  109.70    4.20  -1
   1   1   1  109.70    4.20   2
  -1   1  -2  117.44    5.01  -1
   1   1   1  117.44    5.01   2
   1  -1   3  112.09    5.09   1
   1  -1   3  108.82    4.68   1
  -1   1  -3  104.12    5.22   1
  -1   1  -3  102.90    5.09   1
   1  -1   4   41.48    2.08   1
   1  -1   4   40.76    1.96   1
  -1   1  -4   44.27    3.29   1
  -1   1  -4   36.07    2.16   1
   1  -1   5  123.75    5.37   1
   1  -1   5  127.46    5.59   1
  -1   1  -5  114.82    4.22   1
  -1   1  -5  114.09    4.29   1
   1  -1   6   48.76    3.24   1
   1  -1   6   46.74    2.28   1
  -1   1  -6   50.23    2.60   1
  -1   1  -6   52.79    3.81   1
   1  -1   7    7.36    1.14   1
  -1   1  -7    0.23    2.47   1
  -1   1  -7    3.12    2.55   1
  -1   1  -8  632.53   30.41   1
  -1   1  -8  634.95   30.90   1
  -1   1  -9   59.64    4.64  -1
   1   3   7   59.64    4.64   2
  -1   1  -9   60.73    3.56  -1
   1   3   7   60.73    3.56   2
  -1   1 -10   12.67    3.05   1
  -1   1 -10   13.84    1.99   1
  -1   1 -11   44.05    2.76   1
  -1   1 -11   52.42    4.76   1
  -1   1 -12    3.85    2.80   1
  -1   1 -12    5.16    2.76   1
  -1   1 -13   38.30    4.12   1
  -1   1 -13   39.46    3.14   1
  -1   1 -14    7.86    3.25   1
  -1   1 -14    7.04    3.32   1
  -1   1 -15    5.69    3.54   1
  -1   1 -15    8.03    5.53  -1
   1   5  12    8.03    5.53   2
  -1   1 -16   71.44    6.91  -1
   1   5  13   71.44    6.91   2
  -1   1 -16   65.85    5.06  -1
   1   5  13   65.85    5.06   2
  -1   1 -17    5.23    3.36   1
  -1   1 -17    2.25    3.68   1
  -1   1 -18   25.91    4.34   1
  -1   1 -18   28.38    5.08   1
  -1   1 -19    2.51    3.36   1
  -1   1 -19    4.49    2.44   1
   1   0 -20    1.69    3.46   1
   1   0 -19    8.03    3.45  -1
  -1   6  16    8.03    3.45   2
   1   0 -19   15.66    5.02  -1
  -1   6  16   15.66    5.02   2
   1   0 -18   13.36    2.94   1
   1   0 -18   11.10    4.04   1
   1   0 -17   21.37    2.88   1
   1   0 -16   24.53    2.18   1
   1   0 -16   28.85    4.40   1
   1   0 -15   13.00    2.49   1
   1   0 -15    7.52    2.12   1
   1   0 -14    1.38    2.03   1
   1   0 -14   -6.11    2.87   1
   1   0 -13   84.14    5.13   1
   1   0 -13  268.76   14.40  -1
  -1   4  11  268.76   14.40   2
   1   0 -12   13.74    3.20  -1
  -1   4  10   13.74    3.20   2
   1   0 -12   10.82    4.56  -1
  -1   4  10   10.82    4.56   2
   1   0 -11   43.80    2.94   1
   1   0 -11   44.92    3.93   1
  -1   0  11   36.80    2.45   1
   1   0 -10   96.72    4.28   1
   1   0 -10   90.44    3.94   1
  -1   0  10   93.56    3.88   1
   1   0  -9  195.98    7.48   1
   1   0  -9  201.60    9.02   1
  -1   0   9  191.66    7.10   1
   1   0  -8   87.28    3.61   1
   1   0  -8   84.38    4.79   1
  -1   0   8   85.24    3.34   1
   1   0  -7    0.29    1.12   1
   1   0  -7   -0.47    1.79   1
  -1   0   7    1.04    1.22   1
  -1   0   7   -1.91    1.45   1
   1   0  -6   21.53    1.61   1
   1   0  -6   21.61    2.55   1
  -1   0   6   24.14    1.48   1
  -1   0   6   21.53    2.36   1
   1   0  -5 2143.07  136.66  -1
  -1   2   4 2143.07  136.66   2
   1   0  -5 2162.64  140.55  -1
  -1   2   4 2162.64  140.55   2
  -1   0   5 2155.88  136.08  -1
   1  -2  -4 2155.88  136.08   2
  -1   0   5 2304.89  152.50  -1
   1  -2  -4 2304.89  152.50   2
   1   0  -4   31.21    1.40   1
   1   0  -4   28.49    1.68   1
  -1   0   4   33.53    1.77   1
  -1   0   4   35.53    1.68   1
   1   0  -2   72.45    2.32   1
   1   0  -2   70.36    2.41   1
  -1   0   2   69.11    2.25   1
  -1   0   2   71.73    3.53   1
   1   0  -1  430.99   13.65   1
   1   0  -1  466.46   14.73   1
  -1   0   1  462.46   14.46   1
  -1   0   1  450.78   16.06   1
   1   0   0   -0.15    1.23   1
   1   0   0    0.58    0.76   1
  -1   0   0    0.52    1.32   1
  -1   0   0    1.47    1.23   1
   1   0   1   16.97    2.23   1
   1   0   1   18.60    1.99   1
  -1   0  -1   15.95    1.46   1
  -1   0  -1   15.33    1.29   1
   1   0   2   66.34    4.16   1
  -1   0  -2   61.52    4.08   1
  -1   0  -2   78.67    4.12   1
   1   0   2  118.99    7.30  -1
  -1   0  -2  118.99    7.30   2
   1   0   3   46.44    3.32   1
   1   0   3   44.33    3.13   1
  -1   0  -3   37.57    3.50   1
  -1   0  -3   42.55    3.36   1
   1   0   4  108.14    5.24   1
   1   0   4  105.15    5.07   1
  -1   0  -4  101.15    5.32   1
  -1   0  -4  108.87    5.49   1
   1   0   5   27.58    2.62   1
   1   0   5   25.57    2.63   1
  -1   0  -5   21.28    3.04   1
  -1   0  -5   22.72    3.01   1
   1   0   6   90.17    4.50   1
   1   0   6   90.29    4.62   1
  -1   0  -6   81.87    4.84   1
  -1   0  -6   82.96    3.60   1
   1   0   7  360.72   14.57   1
  -1   0  -7  360.58   15.41   1
  -1   0  -7  350.15   15.98   1
   1   0   8   44.15    2.23   1
  -1   0  -8   90.55    6.88  -1
   1   2   7   90.55    6.88   2
  -1   0  -8   86.90    6.71  -1
   1   2   7   86.90    6.71   2
  -1   0  -9   34.27    3.79   1
  -1   0  -9   51.90    4.36  -1
   1   2   8   51.90    4.36   2
  -1   0 -10   24.37    2.05   1
  -1   0 -10   19.80    3.45   1
  -1   0 -11    5.84    2.72   1
  -1   0 -11    6.46    2.96   1
  -1   0 -12   13.71    3.03   1
  -1   0 -12   13.05    3.41   1
  -1   0 -13    9.17    1.99   1
  -1   0 -13   16.89    3.60   1
  -1   0 -14    7.89    2.16   1
  -1   0 -14   19.16    6.01  -1
   1   4  12   19.16    6.01   2
  -1   0 -15    5.51    3.85  -1
   1   4  13    5.51    3.85   2
  -1   0 -15    8.51    4.95  -1
   1   4  13    8.51    4.95   2
  -1   0 -16   19.16    5.57  -1
   1   4  14   19.16    5.57   2
  -1   0 -16   15.72    7.23  -1
   1   4  14   15.72    7.23   2
  -1   0 -17   14.83    3.94   1
  -1   0 -17   14.91    4.43   1
  -1   0 -18   35.69    3.34   1
  -1   0 -18   34.67    3.72   1
  -1   0 -19    0.43    3.42   1
  -1   0 -19    7.45    3.99   1
   1   1 -20   22.92    4.08  -1
  -1   7  16   22.92    4.08   2
   1   1 -19    2.47    3.69   1
   1   1 -19   10.87    4.22  -1
  -1   7  15   10.87    4.22   2
   1   1 -18   11.98    3.25   1
   1   1 -18   18.75    2.89   1
   1   1 -17   16.00    3.18   1
   1   1 -17   20.07    4.25   1
   1   1 -16   15.03    3.05   1
   1   1 -16   15.20    2.59   1
   1   1 -15    8.50    1.71   1
   1   1 -15    5.13    3.46   1
   1   1 -14   27.08    3.42   1
   1   1 -14   33.99    4.43   1
   1   1 -13    9.72    3.07  -1
  -1   5  10    9.72    3.07   2
   1   1 -13    8.16    2.50  -1
  -1   5  10    8.16    2.50   2
   1   1 -12   33.18    3.04   1
   1   1 -12   32.65    3.92   1
   1   1 -11   23.81    2.46   1
   1   1 -11   24.59    3.28   1
  -1  -1  11   15.29    1.96   1
   1   1 -10    1.88    1.56   1
   1   1 -10    4.22    2.48   1
  -1  -1  10    2.90    1.35   1
   1   1  -9   17.16    2.00   1
   1   1  -9   16.65    2.00   1
  -1  -1   9   16.16    1.88   1
   1   1  -8    9.13    1.62   1
   1   1  -8    8.19    1.55   1
  -1  -1   8    4.61    1.50   1
   1   1  -7   54.40    2.76   1
   1   1  -7   57.44    3.94   1
  -1  -1   7   52.70    2.55   1
  -1  -1   7   55.78    3.61   1
   1   1  -6  229.24    8.82  -1
  -1   3   4  229.24    8.82   2
   1   1  -6  226.07    8.46  -1
  -1   3   4  226.07    8.46   2
  -1  -1   6  238.57    8.72  -1
   1  -3  -4  238.57    8.72   2
  -1  -1   6  250.21   10.62  -1
   1  -3  -4  250.21   10.62   2
   1   1  -4   74.61    3.19   1
   1   1  -4   72.55    2.97   1
   1   1  -4   82.38    4.07   1
   1   1  -4   74.45    3.96   1
   1   1  -3   19.30    1.81   1
   1   1  -3   19.71    1.57   1
  -1  -1   3   17.78    1.95   1
  -1  -1   3   20.54    2.62   1
   1   1  -2    5.46    0.99   1
   1   1  -2    3.15    1.19   1
  -1  -1   2    5.86    1.07   1
  -1  -1   2    3.58    2.04   1
   1   1  -1  122.58    5.42   1
   1   1  -1  128.89    5.51   1
  -1  -1   1  112.82    4.03   1
  -1  -1   1  130.54    5.62   1
   1   1   0   89.88    4.70   1
   1   1   0   97.41    4.80   1
  -1  -1   0   87.72    4.96   1
  -1  -1   0   95.56    4.91   1
   1   1   1  117.78    6.00  -1
  -1   1  -2  117.78    6.00   2
   1   1   1  130.27    5.92  -1
  -1   1  -2  130.27    5.92   2
  -1  -1  -1  120.55    6.26  -1
   1  -1   2  120.55    6.26   2
  -1  -1  -1  132.63    6.38  -1
   1  -1   2  132.63    6.38   2
   1   1   2  116.82    5.74   1
   1   1   2  122.29    5.46   1
  -1  -1  -2   91.85    3.95   1
  -1  -1  -2  115.12    5.44   1
   1   1   3   11.91    2.39   1
   1   1   3   16.59    2.26   1
  -1  -1  -3   13.58    1.53   1
  -1  -1  -3   14.64    2.45   1
   1   1   4  118.83    5.41   1
   1   1   4  120.77    5.35   1
  -1  -1  -4  104.44    5.30   1
  -1  -1  -4  115.51    5.65   1
   1   1   5   51.14    2.44   1
   1   1   5   59.00    3.68   1
  -1  -1  -5   56.44    3.76   1
  -1  -1  -5   53.94    4.05   1
   1   1   6    9.36    2.05   1
   1   1   6    6.49    1.25   1
  -1  -1  -6    7.61    2.20   1
  -1  -1  -6   10.10    2.50   1
   1   1   7  925.85   44.89   1
  -1  -1  -7  875.35   41.75   1
  -1  -1  -7  839.39   38.75   1
  -1  -1  -8   78.19    3.59  -1
   1   1   8   78.19    3.59   2
  -1  -1  -8   81.40    5.59  -1
   1   1   8   81.40    5.59   2
  -1  -1  -9   30.82    2.12   1
  -1  -1  -9   25.64    2.38   1
  -1  -1 -10   62.81    4.37   1
  -1  -1 -10   72.37    3.93   1
  -1  -1 -11   16.67    1.97   1
  -1  -1 -11   14.39    2.25   1
  -1  -1 -12   50.24    3.17   1
  -1  -1 -12   57.63    5.09   1
  -1  -1 -13   20.45    2.30   1
  -1  -1 -13   24.49    4.15   1
  -1  -1 -14   -0.23    1.88   1
  -1  -1 -14    7.98    4.64  -1
   1   3  13    7.98    4.64   2
  -1  -1 -15   78.58    6.26  -1
   1   3  14   78.58    6.26   2
  -1  -1 -15   66.88    5.21  -1
   1   3  14   66.88    5.21   2
  -1  -1 -16    7.26    2.48   1
  -1  -1 -16   13.27    5.32  -1
   1   3  15   13.27    5.32   2
  -1  -1 -17   24.72    2.65   1
  -1  -1 -17   20.60    4.85   1
  -1  -1 -18   -0.27    2.65   1
  -1  -1 -18    1.01    3.47   1
  -1  -1 -19   60.06    5.89   1
  -1  -1 -19   63.83    6.72   1
   1   2 -19    7.59    3.17   1
   1   2 -19    1.78    3.84   1
   1   2 -18   17.05    3.38   1
   1   2 -18   12.42    4.06   1
   1   2 -17   12.72    3.32   1
   1   2 -17   14.71    2.71   1
   1   2 -16   13.19    1.86   1
   1   2 -16   11.16    4.03   1
   1   2 -15    0.34    1.42   1
   1   2 -15    1.52    1.83   1
   1   2 -14   27.66    2.59   1
   1   2 -14   32.95    3.36   1
   1   2 -13    9.30    3.07  -1
  -1   6   9    9.30    3.07   2
   1   2 -13   10.18    4.98  -1
  -1   6   9   10.18    4.98   2
   1   2 -12   27.36    2.95   1
   1   2 -12   24.83    3.95   1
   1   2 -11   75.09    4.61   1
   1   2 -11   77.94    4.11   1
   1   2 -10  109.48    5.26   1
   1   2 -10  108.23    5.07   1
   1   2  -9   52.91    3.33   1
   1   2  -9   58.37    4.56   1
  -1  -2   9   45.20    2.77   1
   1   2  -8   -0.26    0.90   1
   1   2  -8    0.01    1.43   1
   1   2  -8    0.61    2.07   1
   1   2  -7    4.30    1.59   1
   1   2  -7    0.32    1.67   1
   1   2  -7    1.52    1.32   1
   1   2  -6  929.59   49.63  -1
  -1   4   3  929.59   49.63   2
   1   2  -6  995.75   53.14  -1
  -1   4   3  995.75   53.14   2
   1   2  -6  962.21   53.78  -1
  -1   4   3  962.21   53.78   2
   1   2  -6  988.77   55.93  -1
  -1   4   3  988.77   55.93   2
   1   2  -5   14.76    1.98   1
   1   2  -5   15.13    1.26   1
   1   2  -5   13.34    2.47   1
   1   2  -5   15.12    2.60   1
   1   2  -4   70.59    3.63   1
   1   2  -4   72.52    4.09   1
  -1  -2   4   69.12    2.77   1
  -1  -2   4   69.39    4.47   1
   1   2  -3   55.89    3.22   1
   1   2  -3   54.11    2.56   1
  -1  -2   3   52.09    3.60   1
  -1  -2   3   59.40    4.03   1
   1   2  -2   98.19    4.86   1
   1   2  -2   93.77    4.83   1
  -1  -2   2   92.73    3.69   1
  -1  -2   2   93.79    5.25   1
   1   2  -1    7.81    2.29   1
   1   2  -1    9.16    2.17   1
  -1  -2   1    6.25    2.55   1
  -1  -2   1    7.91    2.27   1
   1   2   0   17.07    2.82   1
   1   2   0   14.24    2.41   1
  -1  -2   0   13.13    1.89   1
  -1  -2   0   18.09    2.56   1
   1   2   1   50.35    2.50   1
  -1  -2  -1   45.20    2.74   1
   1   2   1  100.30    7.47  -1
  -1   2  -3  100.30    7.47   2
   1   2   2    4.85    2.43   1
   1   2   2    3.44    1.92   1
  -1  -2  -2    7.41    2.55   1
  -1  -2  -2    4.63    1.35   1
   1   2   3   67.66    3.12   1
   1   2   3   66.54    2.75   1
  -1  -2  -3   65.18    4.32   1
  -1  -2  -3   67.68    2.87   1
   1   2   4   20.64    2.60   1
   1   2   4   18.55    2.35   1
  -1  -2  -4   17.33    2.83   1
  -1  -2  -4   20.51    2.73   1
   1   2   5   60.93    3.63   1
   1   2   5   60.01    2.64   1
  -1  -2  -5   62.50    4.07   1
  -1  -2  -5   69.62    4.29   1
   1   2   6  327.57   14.01   1
   1   2   6  315.22   12.46   1
  -1  -2  -6  340.37   15.11   1
  -1  -2  -6  334.16   15.29   1
  -1  -2  -7   86.48    5.23   1
  -1  -2  -7  104.25    8.53  -1
   1   0   8  104.25    8.53   2
  -1  -2  -8   53.39    5.04  -1
   1   0   9   53.39    5.04   2
  -1  -2  -9   18.74    3.06   1
  -1  -2  -9   25.08    2.23   1
  -1  -2 -10    2.91    2.33   1
  -1  -2 -10    1.11    2.75   1
  -1  -2 -11    4.13    2.76   1
  -1  -2 -11   10.77    3.04   1
  -1  -2 -12    8.63    2.71   1
  -1  -2 -12    6.72    1.91   1
  -1  -2 -13   15.01    3.31   1
  -1  -2 -13   10.85    2.11   1
  -1  -2 -14    4.18    4.09  -1
   1   2  14    4.18    4.09   2
  -1  -2 -14   10.20    5.69  -1
   1   2  14   10.20    5.69   2
  -1  -2 -15   12.41    3.74  -1
   1   2  15   12.41    3.74   2
  -1  -2 -15   17.73    5.54  -1
   1   2  15   17.73    5.54   2
  -1  -2 -16   12.54    4.18   1
  -1  -2 -16   23.51    5.78  -1
   1   2  16   23.51    5.78   2
  -1  -2 -17   33.20    4.49   1
  -1  -2 -17   32.43    3.52   1
  -1  -2 -18    9.90    3.45   1
  -1  -2 -18   11.42    2.42   1
  -1  -2 -19   51.55    3.70   1
  -1  -2 -19   56.14    4.47   1
   1   3 -19   12.90    3.86   1
   1   3 -19   17.65    4.18   1
   1   3 -18    9.83    3.26   1
   1   3 -18   11.10    3.78   1
   1   3 -17   13.66    3.25   1
   1   3 -17   12.51    2.43   1
   1   3 -16    6.52    2.87   1
   1   3 -16    7.49    3.17   1
   1   3 -15   15.14    3.90   1
   1   3 -14    6.93    3.87  -1
  -1   7   9    6.93    3.87   2
   1   3 -14    7.26    2.78  -1
  -1   7   9    7.26    2.78   2
   1   3 -13   14.63    2.76   1
   1   3 -13   13.98    2.31   1
   1   3 -12   16.15    1.86   1
   1   3 -12   15.40    3.27   1
   1   3 -11    0.04    1.96   1
   1   3 -11    1.49    2.55   1
   1   3 -10    9.33    2.32   1
   1   3 -10    9.07    2.98   1
   1   3  -9    3.02    2.00   1
   1   3  -9    4.92    1.52   1
   1   3  -8   25.84    1.88   1
   1   3  -8   24.36    2.13   1
   1   3  -7  124.41    6.43  -1
  -1   5   3  124.41    6.43   2
   1   3  -7  131.31    5.47  -1
  -1   5   3  131.31    5.47   2
   1   3  -7  143.91    8.20  -1
  -1   5   3  143.91    8.20   2
   1   3  -6  106.42    5.02   1
   1   3  -6  109.60    4.22   1
   1   3  -6  113.94    6.09   1
   1   3  -5   51.66    3.20   1
   1   3  -5   53.94    2.57   1
  -1  -3   5   55.69    3.89   1
  -1  -3   5   50.88    2.90   1
   1   3  -4   11.67    2.11   1
   1   3  -4   11.51    1.46   1
  -1  -3   4   12.89    2.51   1
  -1  -3   4   12.82    2.72   1
   1   3  -3    7.02    2.08   1
   1   3  -3    4.55    2.04   1
  -1  -3   3    2.73    1.54   1
  -1  -3   3    6.82    1.43   1
   1   3  -2   27.36    2.71   1
   1   3  -2   23.47    1.72   1
  -1  -3   2   33.97    3.34   1
  -1  -3   2   23.12    3.05   1
   1   3  -1   48.08    2.58   1
   1   3  -1   46.77    2.24   1
  -1  -3   1   49.11    2.90   1
  -1  -3   1   43.20    2.46   1
   1   3   0   67.96    4.31  -1
  -1   3  -3   67.96    4.31   2
   1   3   0   62.65    4.02  -1
  -1   3  -3   62.65    4.02   2
  -1  -3   0   68.73    5.23  -1
   1  -3   3   68.73    5.23   2
  -1  -3   0   66.20    4.54  -1
   1  -3   3   66.20    4.54   2
   1   3   1   57.96    4.13   1
   1   3   1   57.84    2.50   1
  -1  -3  -1   52.91    3.02   1
  -1  -3  -1   54.80    3.83   1
   1   3   2   -0.71    1.19   1
   1   3   2    1.92    1.65   1
  -1  -3  -2    0.56    1.37   1
  -1  -3  -2   -1.59    1.81   1
   1   3   3   62.20    4.09   1
   1   3   3   60.93    3.62   1
  -1  -3  -3   61.81    4.56   1
  -1  -3  -3   69.79    4.48   1
   1   3   4   47.42    3.45   1
   1   3   4   42.84    3.10   1
  -1  -3  -4   40.83    4.04   1
  -1  -3  -4   48.99    2.49   1
   1   3   5    4.81    1.97   1
   1   3   5    3.54    1.75   1
  -1  -3  -5    0.84    2.42   1
  -1  -3  -5   -0.17    1.41   1
  -1  -3  -6  580.78   27.73   1
  -1  -3  -6  562.89   28.02   1
  -1  -3  -7   61.74    5.27  -1
   1  -1   9   61.74    5.27   2
  -1  -3  -7   62.80    5.09  -1
   1  -1   9   62.80    5.09   2
  -1  -3  -8   30.82    3.78   1
  -1  -3  -8   28.24    3.34   1
  -1  -3  -9   58.26    4.72   1
  -1  -3  -9   62.33    4.80   1
  -1  -3 -10   30.08    3.61   1
  -1  -3 -10   27.63    2.46   1
  -1  -3 -11   47.23    4.47   1
  -1  -3 -11   42.15    4.65   1
  -1  -3 -12   38.52    4.17   1
  -1  -3 -12   37.49    4.28   1
  -1  -3 -13   -1.76    1.85   1
  -1  -3 -13    6.20    3.77  -1
   1   1  14    6.20    3.77   2
  -1  -3 -14   64.17    4.28  -1
   1   1  15   64.17    4.28   2
  -1  -3 -14   60.92    6.45  -1
   1   1  15   60.92    6.45   2
  -1  -3 -15    4.81    3.58   1
  -1  -3 -15   17.24    5.62  -1
   1   1  16   17.24    5.62   2
  -1  -3 -16   24.44    4.06   1
  -1  -3 -16   13.71    4.51   1
  -1  -3 -17    4.81    2.01   1
  -1  -3 -17   -0.36    3.79   1
  -1  -3 -18   59.22    4.14   1
  -1  -3 -18   52.02    6.45   1
   1   4 -18    9.22    3.41   1
   1   4 -18    7.79    3.82   1
   1   4 -17    3.62    2.28   1
   1   4 -16    3.05    2.88   1
   1   4 -16    9.97    3.46   1
   1   4 -15    5.31    2.99   1
   1   4 -15    5.12    3.49   1
   1   4 -14    3.69    3.43  -1
  -1   8   8    3.69    3.43   2
   1   4 -14    4.36    5.04  -1
  -1   8   8    4.36    5.04   2
   1   4 -13   12.72    2.96   1
   1   4 -13   11.53    2.31   1
   1   4 -12   49.21    4.45   1
   1   4 -12   46.72    3.58   1
   1   4 -11   48.34    4.22   1
   1   4 -11   46.25    3.24   1
   1   4 -10   23.57    2.10   1
   1   4 -10   21.95    2.30   1
   1   4  -9    1.36    2.39   1
   1   4  -9    3.46    1.58   1
   1   4  -8   -0.45    1.36   1
   1   4  -8    0.17    2.42   1
   1   4  -7  461.93   25.96  -1
  -1   6   2  461.93   25.96   2
   1   4  -7  454.39   22.72  -1
  -1   6   2  454.39   22.72   2
  -1  -4   6    0.97    1.46   1
  -1  -4   6   -2.25    1.46   1
  -1  -4   5   33.64    3.57   1
  -1  -4   5   34.50    2.57   1
  -1  -4   4   35.10    2.46   1
  -1  -4   4   37.04    2.52   1
   1   4  -3    8.01    1.37   1
  -1  -4   3    8.18    1.81   1
  -1  -4   3    6.57    2.58   1
   1   4  -2    9.29    2.00   1
  -1  -4   2    9.94    1.92   1
  -1  -4   2    1.93    2.53   1
   1   4  -1    9.23    1.30   1
  -1  -4   1    6.26    1.86   1
  -1  -4   1    9.32    2.56   1
   1   4   0   25.47    2.63   1
  -1  -4   0   51.20    6.11  -1
   1  -4   4   51.20    6.11   2
  -1  -4   0   41.82    3.72  -1
   1  -4   4   41.82    3.72   2
   1   4   1    3.83    1.63   1
  -1  -4  -1    1.22    2.50   1
  -1  -4  -1   -1.13    2.08   1
  -1  -4  -2   37.64    3.97   1
  -1  -4  -2   35.13    3.46   1
   1   4   3   11.44    2.01   1
  -1  -4  -3   13.69    2.02   1
  -1  -4  -3   14.60    1.62   1
  -1  -4  -4   27.77    3.73   1
  -1  -4  -4   28.70    2.12   1
  -1  -4  -5  215.22   10.80   1
  -1  -4  -5  207.79    8.24   1
  -1  -4  -6   84.27    6.91  -1
   1  -2   9   84.27    6.91   2
  -1  -4  -6   70.89    6.38  -1
   1  -2   9   70.89    6.38   2
  -1  -4  -7   46.38    5.83  -1
   1  -2  10   46.38    5.83   2
  -1  -4  -7   40.64    6.14  -1
   1  -2  10   40.64    6.14   2
  -1  -4  -8   17.01    3.54   1
  -1  -4  -8   17.80    2.13   1
  -1  -4  -9    2.85    1.67   1
  -1  -4  -9    3.16    2.78   1
  -1  -4 -10    0.24    2.92   1
  -1  -4 -10    4.66    2.77   1
  -1  -4 -11    7.05    1.89   1
  -1  -4 -11    8.33    2.03   1
  -1  -4 -12   11.12    3.55   1
  -1  -4 -12   15.82    3.58   1
  -1  -4 -13    5.27    3.77  -1
   1   0  15    5.27    3.77   2
  -1  -4 -13    2.96    4.39  -1
   1   0  15    2.96    4.39   2
  -1  -4 -14   13.82    5.02  -1
   1   0  16   13.82    5.02   2
  -1  -4 -14   15.56    5.14  -1
   1   0  16   15.56    5.14   2
  -1  -4 -15   13.68    3.90   1
  -1  -4 -15   16.88    4.08   1
  -1  -4 -16   29.66    4.51   1
  -1  -4 -16   18.06    4.91   1
  -1  -4 -17    5.79    3.61   1
  -1  -4 -17   11.75    4.12   1
  -1  -4 -18   37.85    5.20   1
  -1  -4 -18   43.31    5.99   1
   1   5 -18    7.85    2.01   1
   1   5 -18    8.41    2.37   1
   1   5 -17    2.28    1.92   1
   1   5 -17    3.79    2.21   1
   1   5 -16    0.73    2.76   1
   1   5 -16    5.74    3.22   1
   1   5 -15    1.25    4.21  -1
  -1   9   8    1.25    4.21   2
   1   5 -15    4.94    4.56  -1
  -1   9   8    4.94    4.56   2
   1   5 -14    1.23    2.71   1
   1   5 -14    5.19    2.08   1
   1   5 -13    9.73    3.25   1
   1   5 -13   10.22    2.32   1
   1   5 -12    0.31    2.45   1
   1   5 -12    0.03    1.67   1
   1   5 -11    7.61    1.86   1
   1   5 -11    9.94    2.04   1
   1   5 -10   -0.12    2.71   1
   1   5 -10    4.96    1.79   1
   1   5  -9   12.37    3.25   1
   1   5  -9   11.43    2.12   1
   1   5  -8   60.19    5.66  -1
  -1   7   2   60.19    5.66   2
   1   5  -8   67.33    6.25  -1
  -1   7   2   67.33    6.25   2
   1   5  -7   55.97    4.98   1
   1   5  -7   61.91    5.03   1
  -1  -5   6   31.94    4.04   1
  -1  -5   6   28.37    2.66   1
  -1  -5   5    6.59    2.82   1
  -1  -5   5    7.98    2.92   1
  -1  -5   4    3.31    2.80   1
  -1  -5   4    2.07    2.58   1
  -1  -5   3    1.63    1.85   1
  -1  -5   3    8.13    2.39   1
  -1  -5   2   23.74    3.99   1
  -1  -5   2   18.73    2.93   1
  -1  -5   1   38.24    4.35  -1
   1  -5   4   38.24    4.35   2
  -1  -5   1   37.29    4.11  -1
   1  -5   4   37.29    4.11   2
  -1  -5   0   28.01    4.27   1
  -1  -5   0   26.77    2.09   1
  -1  -5  -1   -1.45    2.82   1
  -1  -5  -1    2.36    2.15   1
  -1  -5  -2   32.63    4.22   1
  -1  -5  -3   28.55    2.64   1
  -1  -5  -3   37.87    5.61  -1
   1  -4   7   37.87    5.61   2
  -1  -5  -4   -2.02    1.83   1
  -1  -5  -4   -0.39    2.24   1
  -1  -5  -5  297.47   15.76   1
  -1  -5  -5  280.81   13.90   1
  -1  -5  -6   40.17    5.20  -1
   1  -3  10   40.17    5.20   2
  -1  -5  -6   46.80    3.40  -1
   1  -3  10   46.80    3.40   2
  -1  -5  -7   24.91    2.70   1
  -1  -5  -7   22.61    3.49   1
  -1  -5  -8   46.08    4.60   1
  -1  -5  -8   39.65    4.36   1
  -1  -5  -9   27.11    3.89   1
  -1  -5  -9   21.12    3.73   1
  -1  -5 -10   25.35    2.86   1
  -1  -5 -10   26.51    2.52   1
  -1  -5 -11   36.08    4.69   1
  -1  -5 -11   39.62    4.77   1
  -1  -5 -12    0.78    2.92   1
  -1  -5 -12   13.24    6.06  -1
   1  -1  15   13.24    6.06   2
  -1  -5 -13   56.44    5.92  -1
   1  -1  16   56.44    5.92   2
  -1  -5 -13   61.27    6.96  -1
   1  -1  16   61.27    6.96   2
  -1  -5 -14   -1.89    3.11   1
  -1  -5 -14   -4.36    3.35   1
  -1  -5 -15   14.81    3.87   1
  -1  -5 -15   10.29    4.02   1
  -1  -5 -16    0.49    3.29   1
  -1  -5 -16    3.18    3.45   1
  -1  -5 -17   38.85    5.05   1
  -1  -5 -17   35.58    3.75   1
   1   6 -17   -2.02    2.74   1
   1   6 -17    3.20    3.27   1
   1   6 -16    2.39    2.87   1
   1   6 -16   -3.77    3.28   1
   1   6 -15    1.31    5.23  -1
  -1  10   7    1.31    5.23   2
   1   6 -15    8.49    3.54  -1
  -1  10   7    8.49    3.54   2
   1   6 -14    7.39    3.30   1
   1   6 -14    7.91    2.42   1
   1   6 -13   16.50    3.74   1
   1   6 -13   25.09    4.12   1
   1   6 -12   19.11    2.51   1
   1   6 -12   19.13    3.95   1
   1   6 -11    9.09    1.94   1
   1   6 -11    9.93    3.58   1
   1   6 -10    1.18    3.14   1
   1   6 -10    5.05    3.05   1
   1   6  -9   -3.02    2.89   1
   1   6  -9   -1.68    2.92   1
   1   6  -8  190.32   11.84  -1
  -1   8   1  190.32   11.84   2
   1   6  -8  201.93   11.87  -1
  -1   8   1  201.93   11.87   2
  -1  -6   7   -0.30    1.79   1
  -1  -6   7    0.50    1.68   1
  -1  -6   6   15.55    3.60   1
  -1  -6   6   13.13    3.63   1
  -1  -6   5   20.22    2.45   1
  -1  -6   5   20.12    2.34   1
  -1  -6   4   -0.95    3.02   1
  -1  -6   4   -2.84    2.68   1
  -1  -6   3    5.67    3.43   1
  -1  -6   3    4.39    2.82   1
  -1  -6   2   10.10    2.03   1
  -1  -6   2    8.04    2.96   1
  -1  -6   1   14.54    7.37  -1
   1  -6   5   14.54    7.37   2
  -1  -6   1   22.31    4.64  -1
   1  -6   5   22.31    4.64   2
  -1  -6   0    7.19    3.23   1
  -1  -6   0    2.80    1.58   1
  -1  -6  -1   15.51    2.47   1
  -1  -6  -1   14.69    1.86   1
  -1  -6  -2   10.57    2.21   1
  -1  -6  -2    8.37    1.72   1
  -1  -6  -3    9.57    3.65   1
  -1  -6  -3   31.32    5.42  -1
   1  -5   8   31.32    5.42   2
  -1  -6  -4  103.20    7.70   1
  -1  -6  -4   95.34    6.51   1
  -1  -6  -5   31.74    2.58   1
  -1  -6  -5   45.79    8.47  -1
   1  -4  10   45.79    8.47   2
  -1  -6  -6   12.04    3.21   1
  -1  -6  -6   25.54    4.91  -1
   1  -4  11   25.54    4.91   2
  -1  -6  -7   12.29    2.39   1
  -1  -6  -7    9.67    2.18   1
  -1  -6  -8    1.76    3.09   1
  -1  -6  -8    0.07    1.65   1
  -1  -6  -9   -3.86    3.30   1
  -1  -6  -9   -3.01    1.69   1
  -1  -6 -10    1.45    3.09   1
  -1  -6 -10    0.71    2.92   1
  -1  -6 -11    6.39    3.81   1
  -1  -6 -11    9.74    3.44   1
  -1  -6 -12    8.47    4.04  -1
   1  -2  16    8.47    4.04   2
  -1  -6 -12    4.30    5.79  -1
   1  -2  16    4.30    5.79   2
  -1  -6 -13   10.71    5.35  -1
   1  -2  17   10.71    5.35   2
  -1  -6 -13   19.81    6.48  -1
   1  -2  17   19.81    6.48   2
  -1  -6 -14   16.93    3.94   1
  -1  -6 -14   11.33    3.92   1
  -1  -6 -15    5.54    3.88   1
  -1  -6 -16    9.97    3.60   1
  -1  -6 -16    3.89    2.40   1
   1   7 -16   -6.43    4.79  -1
  -1  11   7   -6.43    4.79   2
   1   7 -16   -1.49    3.05  -1
  -1  11   7   -1.49    3.05   2
   1   7 -15    2.28    3.21   1
   1   7 -15    3.77    3.43   1
   1   7 -14    1.28    3.19   1
   1   7 -14    1.36    3.40   1
   1   7 -13    4.03    3.32   1
   1   7 -13    8.09    3.38   1
   1   7 -12    7.85    3.67   1
   1   7 -12   11.09    3.19   1
   1   7 -11    3.41    2.08   1
   1   7 -11    0.35    3.11   1
   1   7 -10    2.22    2.04   1
   1   7 -10    0.19    3.09   1
   1   7  -9   31.22    5.68  -1
  -1   9   1   31.22    5.68   2
   1   7  -9   25.09    5.53  -1
  -1   9   1   25.09    5.53   2
   1   7  -8   32.34    4.40   1
   1   7  -8   24.12    4.14   1
  -1  -7   7   12.11    2.54   1
  -1  -7   7   13.13    2.46   1
  -1  -7   6   14.56    3.76   1
  -1  -7   6    7.23    3.69   1
  -1  -7   5    1.21    2.06   1
  -1  -7   5    8.63    3.18   1
  -1  -7   4    2.37    2.04   1
  -1  -7   4    2.11    2.93   1
  -1  -7   3    6.98    3.54   1
  -1  -7   3    3.56    3.00   1
  -1  -7   2   17.61    4.66  -1
   1  -7   5   17.61    4.66   2
  -1  -7   2   21.84    4.05  -1
   1  -7   5   21.84    4.05   2
  -1  -7   1   15.81    4.36   1
  -1  -7   1   12.04    3.29   1
  -1  -7   0    7.92    3.56   1
  -1  -7   0    4.14    1.76   1
  -1  -7  -1   14.78    2.73   1
  -1  -7  -2   14.06    2.80   1
  -1  -7  -2   25.15    5.54  -1
   1  -6   8   25.15    5.54   2
  -1  -7  -3    1.90    2.08   1
  -1  -7  -3    2.89    1.60   1
  -1  -7  -4  126.95    7.08   1
  -1  -7  -4  120.71    7.72   1
  -1  -7  -5   26.29    5.68  -1
   1  -5  11   26.29    5.68   2
  -1  -7  -5   30.68    4.75  -1
   1  -5  11   30.68    4.75   2
  -1  -7  -6   11.48    3.95   1
  -1  -7  -6    9.11    3.39   1
  -1  -7  -7   22.64    4.74   1
  -1  -7  -7   23.10    3.66   1
  -1  -7  -8   11.80    4.49   1
  -1  -7  -8   14.64    2.29   1
  -1  -7  -9   14.48    4.37   1
  -1  -7  -9   12.44    2.18   1
  -1  -7 -10   28.35    3.16   1
  -1  -7 -10   25.84    4.56   1
  -1  -7 -11   -1.02    3.44   1
  -1  -7 -12   54.61    6.64  -1
   1  -3  17   54.61    6.64   2
  -1  -7 -12   40.09    6.36  -1
   1  -3  17   40.09    6.36   2
  -1  -7 -13    3.45    3.32   1
  -1  -7 -13   -0.30    3.11   1
  -1  -7 -14    4.52    3.54   1
  -1  -7 -14    4.31    3.49   1
  -1  -7 -15   -1.87    3.32   1
  -1  -7 -15    3.61    3.23   1
   1   8 -14    4.37    3.91   1
   1   8 -14    7.18    2.41   1
   1   8 -13    3.30    3.63   1
   1   8 -13    6.70    3.19   1
   1   8 -12    5.70    3.58   1
   1   8 -12    2.40    3.38   1
   1   8 -11    9.19    3.93   1
   1   8 -11    3.58    3.35   1
   1   8 -10   -0.04    3.47   1
   1   8 -10    7.29    3.14   1
   1   8  -9   90.93   11.69  -1
  -1  10   0   90.93   11.69   2
   1   8  -9   76.30   10.71  -1
  -1  10   0   76.30   10.71   2
   1   8  -8    3.03    3.71   1
   1   8  -8    4.28    3.22   1
  -1  -8   7   -1.01    2.28   1
  -1  -8   7    2.93    2.11   1
  -1  -8   6    9.47    4.03   1
  -1  -8   6   10.64    2.39   1
  -1  -8   5   -0.85    2.09   1
  -1  -8   5    3.84    1.88   1
  -1  -8   4   -1.25    2.23   1
  -1  -8   4    1.12    3.00   1
  -1  -8   3   -0.26    2.12   1
  -1  -8   3   -0.51    2.86   1
  -1  -8   2   10.12    2.43   1
  -1  -8   2   -2.47    2.80   1
  -1  -8   1    6.66    2.43   1
  -1  -8   1    5.47    3.08   1
  -1  -8   0    7.35    2.82   1
  -1  -8   0    7.87    3.42   1
  -1  -8  -1    5.62    2.42   1
  -1  -8  -1    1.88    3.01   1
  -1  -8  -2   11.90    4.26   1
  -1  -8  -2   18.37    5.96  -1
   1  -7   9   18.37    5.96   2
  -1  -8  -3   48.65    6.03   1
  -1  -8  -3   36.03    4.27   1
  -1  -8  -4   26.39    6.65  -1
   1  -6  11   26.39    6.65   2
  -1  -8  -4   19.08    5.01  -1
   1  -6  11   19.08    5.01   2
  -1  -8  -5    4.98    3.98   1
  -1  -8  -5    6.91    3.12   1
  -1  -8  -6    7.42    2.62   1
  -1  -8  -6    9.06    3.23   1
  -1  -8  -7   -4.81    3.78   1
  -1  -8  -8    1.21    3.46   1
  -1  -8  -8    0.47    1.66   1
  -1  -8  -9   -1.05    3.71   1
  -1  -8  -9    1.98    2.82   1
  -1  -8 -10    3.32    4.05   1
  -1  -8 -10    6.03    3.28   1
  -1  -8 -11    6.67    5.26  -1
   1  -4  17    6.67    5.26   2
  -1  -8 -11    8.07    5.95  -1
   1  -4  17    8.07    5.95   2
  -1  -8 -12   12.50    2.80   1
  -1  -8 -12    8.67    3.80   1
  -1  -8 -13    7.32    4.03   1
  -1  -8 -13    3.37    3.53   1
   1   9 -12    4.29    4.04   1
   1   9 -12    1.70    1.93   1
   1   9 -11    0.28    3.49   1
   1   9 -11    0.83    2.94   1
   1   9 -10   15.13    5.17  -1
  -1  11   0   15.13    5.17   2
   1   9 -10    5.79    4.74  -1
  -1  11   0    5.79    4.74   2
   1   9  -9   12.89    4.15   1
   1   9  -9   10.49    3.58   1
   1   9  -8    9.08    4.14   1
   1   9  -8    7.50    3.53   1
  -1  -9   7    1.66    2.61   1
  -1  -9   7    6.01    2.36   1
  -1  -9   6    4.83    3.65   1
  -1  -9   6   -1.09    3.07   1
  -1  -9   5   -1.49    3.95   1
  -1  -9   5    6.02    2.01   1
  -1  -9   4   -2.01    3.83   1
  -1  -9   4    2.87    1.79   1
  -1  -9   3    2.21    4.62  -1
   1  -9   6    2.21    4.62   2
  -1  -9   3   16.51    4.61  -1
   1  -9   6   16.51    4.61   2
  -1  -9   2    5.76    3.92   1
  -1  -9   2    1.65    2.80   1
  -1  -9   1    2.08    4.24   1
  -1  -9   1    6.62    2.06   1
  -1  -9   0    3.73    2.51   1
  -1  -9   0   12.80    5.68  -1
   1  -8   9   12.80    5.68   2
  -1  -9  -1    4.13    2.69   1
  -1  -9  -1   -0.03    2.89   1
  -1  -9  -2    2.99    4.00   1
  -1  -9  -2    3.24    1.86   1
  -1  -9  -3   52.02    6.75   1
  -1  -9  -3   40.62    4.93   1
  -1  -9  -4   23.07    5.62  -1
   1  -7  12   23.07    5.62   2
  -1  -9  -4   11.66    4.68  -1
   1  -7  12   11.66    4.68   2
  -1  -9  -5    3.40    2.56   1
  -1  -9  -5    0.98    2.78   1
  -1  -9  -6   10.16    4.45   1
  -1  -9  -6   10.12    2.27   1
  -1  -9  -7   11.28    4.31   1
  -1  -9  -7    6.76    2.02   1
  -1  -9  -8    8.71    2.70   1
  -1  -9  -8    6.10    2.13   1
  -1  -9  -9   13.62    4.39   1
  -1  -9  -9    9.33    2.32   1
  -1  -9 -10   -0.15    3.77   1
  -1  -9 -10    1.93    2.90   1
  -1  -9 -11   37.41    6.94  -1
   1  -5  18   37.41    6.94   2
  -1  -9 -11   26.87    6.01  -1
   1  -5  18   26.87    6.01   2
   1  10 -10   24.34    3.46   1
   1  10 -10   17.04    4.53   1
   1  10  -9   -2.40    3.50   1
   1  10  -9   -0.92    3.04   1
   1  10  -8    6.44    4.10   1
   1  10  -8    3.28    3.14   1
  -1 -10   7   -0.84    2.63   1
  -1 -10   7    4.16    3.95  -1
   1 -11   4    4.16    3.95   2
  -1 -10   6   -0.15    3.95   1
  -1 -10   6   -0.99    3.29   1
  -1 -10   5   -4.13    3.82   1
  -1 -10   5    3.19    3.27   1
  -1 -10   4   -3.21    2.35   1
  -1 -10   4    3.36    3.21   1
  -1 -10   3    4.22    2.56   1
  -1 -10   3    0.64    2.06   1
  -1 -10   2    7.08    2.67   1
  -1 -10   2    5.65    2.24   1
  -1 -10   1    4.38    4.61   1
  -1 -10   1    5.56    3.05   1
  -1 -10   0   -1.41    3.95   1
  -1 -10   0    1.86    3.02   1
  -1 -10  -1    1.58    2.45   1
  -1 -10  -1    1.71    3.11   1
  -1 -10  -2   19.00    3.72   1
  -1 -10  -2   10.75    3.88   1
  -1 -10  -3    9.36    2.27   1
  -1 -10  -3    6.47    6.47  -1
   1  -8  12    6.47    6.47   2
  -1 -10  -4    2.00    4.02   1
  -1 -10  -4    0.89    2.70   1
  -1 -10  -5    6.18    2.88   1
  -1 -10  -5    4.49    2.92   1
  -1 -10  -6   -0.68    4.02   1
  -1 -10  -6   -1.56    2.84   1
  -1 -10  -7    1.17    2.54   1
  -1 -10  -7    2.86    2.78   1
  -1 -10  -8   -5.89    4.29   1
  -1 -10  -8    5.84    4.60  -1
   1  -7  16    5.84    4.60   2
  -1 -11   6    1.15    2.55   1
  -1 -11   6   -2.83    3.34   1
  -1 -11   5   -4.40    2.62   1
  -1 -11   5    1.55    3.26   1
  -1 -11   4    5.88    4.83  -1
   1 -11   7    5.88    4.83   2
  -1 -11   4    2.47    4.67  -1
   1 -11   7    2.47    4.67   2
  -1 -11   3    9.49    4.73   1
  -1 -11   3    3.67    3.60   1
  -1 -11   2    0.33    4.34   1
  -1 -11   2    6.50    3.54   1
  -1 -11   1    0.62    2.62   1
  -1 -11   1    5.22    3.30   1
  -1 -11   0   10.97    4.41   1
  -1 -11   0   -2.50    2.99   1
  -1 -11  -1   -0.74    4.34   1
  -1 -11  -1   -2.77    2.94   1
  -1 -11  -2   14.52    3.30   1
  -1 -11  -2   12.27    3.94   1
  -1 -11  -3    2.23    5.73  -1
   1  -9  13    2.23    5.73   2
  -1 -11  -3    8.43    4.76  -1
   1  -9  13    8.43    4.76   2
  -1 -11  -4   -0.59    4.40   1
  -1 -11  -4   -3.23    2.89   1
   2 -12  -2   -1.74    2.34   1
   2 -12  -1   13.97    4.67   1
   2 -12   0   16.21    3.57   1
   2 -12   1    1.25    2.60   1
  -2  12  -2    9.58    5.84  -1
   2  10  -9    9.58    5.84   2
  -2  12  -3    4.34    2.39   1
   2 -11  -8   -0.02    1.80   1
   2 -11  -7    2.59    3.36   1
   2 -11  -6    0.57    1.93   1
   2 -11  -5   11.68    6.12  -1
  -2  -7  14   11.68    6.12   2
   2 -11  -4   -1.95    2.20   1
   2 -11  -3   13.77    4.51   1
   2 -11  -2    1.00    3.70   1
   2 -11  -1    4.99    2.55   1
   2 -11   0   14.78    5.14   1
   2 -11   1    1.55    2.43   1
   2 -11   1    2.27    1.20   1
  -2  11  -2    0.40    1.66   1
  -2  11  -2   14.84    5.91  -1
   2   9  -8   14.84    5.91   2
  -2  11  -3    0.68    2.07   1
  -2  11  -3   -0.54    1.65   1
  -2  11  -4    5.73    3.65   1
  -2  11  -4   -0.46    1.82   1
  -2  11  -5    3.98    3.66   1
  -2  11  -5   -0.32    1.90   1
  -2  11  -6    2.93    2.55   1
  -2  11  -6    3.74    2.01   1
  -2  11  -7    0.46    2.62   1
  -2  11  -7    3.65    2.00   1
  -2  11  -8   -1.09    3.90   1
  -2  11  -8    2.18    2.17   1
   2 -10 -11   10.04    3.47   1
   2 -10 -10    2.96    2.00   1
   2 -10  -9    0.45    3.08   1
   2 -10  -8    0.09    1.72   1
   2 -10  -7   12.58    3.93   1
   2 -10  -6   -0.40    4.71  -1
  -2  -6  14   -0.40    4.71   2
   2 -10  -5    2.47    2.08   1
   2 -10  -4   17.24    4.21   1
   2 -10  -4   10.59    2.74   1
   2 -10  -3    1.18    3.26   1
   2 -10  -3    7.36    3.04  -1
  -2  -7  11    7.36    3.04   2
   2 -10  -2   16.55    2.71   1
   2 -10  -2    8.07    2.17   1
   2 -10  -1   52.99    5.94   1
   2 -10  -1   34.32    3.10   1
   2 -10   0    8.07    3.91   1
   2 -10   0    0.28    1.64   1
   2 -10   1   20.85    3.75  -1
  -2  -8   8   20.85    3.75   2
   2 -10   1   10.19    2.07  -1
  -2  -8   8   10.19    2.07   2
  -2  10  -2    5.01    2.09   1
  -2  10  -2    0.97    1.70   1
  -2  10  -3   -2.54    2.12   1
  -2  10  -3    4.14    1.72   1
  -2  10  -4    8.02    3.55   1
  -2  10  -4    3.06    1.93   1
  -2  10  -5   -3.55    3.70   1
  -2  10  -5   -0.30    1.85   1
  -2  10  -6    3.78    3.90   1
  -2  10  -6    2.78    1.90   1
  -2  10  -7    7.23    2.72   1
  -2  10  -7    5.04    2.22   1
  -2  10  -8    1.79    4.61  -1
   2  10  -2    1.79    4.61   2
  -2  10  -8    7.44    3.04  -1
   2  10  -2    7.44    3.04   2
  -2  10  -9    7.14    4.07   1
  -2  10  -9    4.92    2.62   1
  -2  10 -10    1.02    3.91   1
  -2  10 -10    5.94    1.67   1
  -2  10 -11    3.50    4.05   1
  -2  10 -11    4.81    2.73   1
   2  -9 -13    9.67    4.18  -1
  -2  -3  19    9.67    4.18   2
   2  -9 -12    7.20    2.70   1
   2  -9 -11    1.69    2.64   1
   2  -9 -10    0.76    2.62   1
   2  -9  -9    2.91    2.71   1
   2  -9  -9   -0.34    1.65   1
   2  -9  -8   -2.74    2.97   1
   2  -9  -8    2.41    1.58   1
   2  -9  -7   10.61    3.02   1
   2  -9  -7    3.42    1.68   1
   2  -9  -6   32.96    6.56  -1
  -2  -5  13   32.96    6.56   2
   2  -9  -6   17.34    3.34  -1
  -2  -5  13   17.34    3.34   2
   2  -9  -5    3.12    2.89   1
   2  -9  -5    0.91    1.46   1
   2  -9  -4   13.19    2.21   1
   2  -9  -4    9.13    1.83   1
   2  -9  -3   11.00    2.14   1
   2  -9  -3    2.87    1.74   1
   2  -9  -2   10.34    3.52   1
   2  -9  -2    2.98    1.68   1
   2  -9  -1   44.00    5.43   1
   2  -9  -1   37.52    2.95   1
   2  -9   0    2.46    3.52   1
   2  -9   0    2.78    1.67   1
   2  -9   1   19.32    4.41  -1
  -2  -7   7   19.32    4.41   2
   2  -9   1   13.91    2.92  -1
  -2  -7   7   13.91    2.92   2
  -2   9  -2   -0.15    1.90   1
  -2   9  -2    1.01    1.44   1
  -2   9  -3   -0.29    1.96   1
  -2   9  -3   -1.13    1.57   1
  -2   9  -4    5.47    2.15   1
  -2   9  -4    4.06    1.29   1
  -2   9  -5   -7.68    3.74   1
  -2   9  -5    8.28    2.12   1
  -2   9  -6    5.06    4.12   1
  -2   9  -6    3.41    2.01   1
  -2   9  -7    6.87    4.13   1
  -2   9  -7    3.86    2.35   1
  -2   9  -8   -0.18    1.31   1
  -2   9  -8   16.89    7.44  -1
   2   9  -1   16.89    7.44   2
  -2   9  -9    0.47    2.09   1
  -2   9  -9   -2.53    2.27   1
  -2   9 -10    5.08    2.45   1
  -2   9 -10    6.21    2.63   1
  -2   9 -11   26.01    4.83   1
  -2   9 -11   25.61    3.82   1
  -2   9 -12    5.75    3.71   1
  -2   9 -12    1.05    2.60   1
  -2   9 -13    4.34    3.59   1
  -2   9 -13   -1.75    2.46   1
   2  -8 -14   68.91    7.10  -1
  -2  -2  19   68.91    7.10   2
   2  -8 -13    6.03    1.62   1
   2  -8 -13    3.25    2.25   1
   2  -8 -12   16.19    3.16   1
   2  -8 -12   15.96    2.63   1
   2  -8 -11   -0.98    1.56   1
   2  -8 -11    3.66    1.97   1
   2  -8 -10    1.40    2.46   1
   2  -8 -10    1.84    2.42   1
   2  -8  -9    2.79    2.66   1
   2  -8  -9    4.07    1.71   1
   2  -8  -8   11.01    3.09   1
   2  -8  -8    6.33    1.85   1
   2  -8  -7   15.15    3.25  -1
  -2  -4  13   15.15    3.25   2
   2  -8  -7    4.72    3.24  -1
  -2  -4  13    4.72    3.24   2
   2  -8  -6   12.84    3.08   1
   2  -8  -6    7.31    1.70   1
  -2   8   6    5.55    1.38   1
   2  -8  -5   39.78    4.41   1
   2  -8  -5   32.02    2.39   1
  -2   8   5   19.42    2.58   1
   2  -8  -4   -3.48    2.55   1
  -2   8   4    0.97    1.14   1
   2  -8  -4    9.09    3.13  -1
  -2  -5  10    9.09    3.13   2
   2  -8  -3   25.16    3.39   1
   2  -8  -3   15.87    1.83   1
  -2   8   3   11.27    1.68   1
   2  -8  -2  126.85    7.83   1
   2  -8  -2   93.43    4.97   1
  -2   8   2   87.89    4.98   1
   2  -8  -1   -5.02    2.65   1
   2  -8  -1    1.96    1.28   1
  -2   8   1    0.74    1.72   1
   2  -8   0   35.98    6.27  -1
  -2  -6   7   35.98    6.27   2
   2  -8   0   32.94    3.44  -1
  -2  -6   7   32.94    3.44   2
  -2   8   0   31.66    3.42  -1
   2   6  -7   31.66    3.42   2
   2  -8   1    3.82    2.15   1
   2  -8   1    1.96    1.01   1
  -2   8  -2    0.22    3.02   1
  -2   8  -2   -1.24    1.40   1
  -2   8  -3    6.28    3.07   1
  -2   8  -3    3.98    1.73   1
  -2   8  -4    3.77    3.50   1
  -2   8  -4    6.47    1.96   1
  -2   8  -5    8.28    3.54   1
  -2   8  -5    6.13    1.99   1
  -2   8  -6    8.07    2.60   1
  -2   8  -6    6.28    2.20   1
  -2   8  -7   21.95    3.20  -1
   2   8  -1   21.95    3.20   2
  -2   8  -7   13.73    3.31  -1
   2   8  -1   13.73    3.31   2
  -2   8  -8    7.03    2.20   1
  -2   8  -8    7.41    2.55   1
  -2   8  -9    5.03    2.35   1
  -2   8  -9    6.11    2.61   1
  -2   8 -10    6.87    4.21   1
  -2   8 -10   12.52    1.95   1
  -2   8 -11   12.93    4.23   1
  -2   8 -11    8.26    2.86   1
  -2   8 -12    2.08    3.65   1
  -2   8 -12    3.03    2.60   1
  -2   8 -13   -2.13    3.25   1
  -2   8 -13    1.53    1.69   1
  -2   8 -14    5.75    2.56  -1
   2  10   5    5.75    2.56   2
  -2   8 -14   -0.26    3.13  -1
   2  10   5   -0.26    3.13   2
  -2   8 -15   -2.46    3.15   1
  -2   8 -15   -1.36    2.88   1
   2  -7 -16    6.66    2.78   1
   2  -7 -15   17.83    3.31   1
   2  -7 -14    9.84    3.27  -1
  -2  -1  18    9.84    3.27   2
   2  -7 -14   16.99    4.26  -1
  -2  -1  18   16.99    4.26   2
   2  -7 -13   12.67    2.73   1
   2  -7 -13   19.72    2.98   1
   2  -7 -12    3.92    2.25   1
   2  -7 -12    2.54    2.06   1
   2  -7 -11   -0.26    1.96   1
   2  -7 -11    0.25    1.71   1
   2  -7 -10   -2.80    2.18   1
   2  -7 -10   -0.01    1.71   1
   2  -7  -9    5.75    2.44   1
   2  -7  -9    2.80    1.80   1
   2  -7  -8   10.94    1.78   1
   2  -7  -8    9.13    1.94   1
   2  -7  -7   55.90    5.14  -1
  -2  -3  12   55.90    5.14   2
   2  -7  -7   51.92    4.61  -1
  -2  -3  12   51.92    4.61   2
  -2   7   7   35.19    4.04  -1
   2   3 -12   35.19    4.04   2
   2  -7  -6   -0.22    1.65   1
   2  -7  -6    4.36    1.38   1
  -2   7   6    3.36    1.13   1
   2  -7  -5   18.00    1.99   1
   2  -7  -5   19.05    2.23   1
  -2   7   5   11.98    1.42   1
   2  -7  -4   12.68    2.78   1
   2  -7  -4    5.64    1.69   1
  -2   7   4    6.41    1.50   1
   2  -7  -3    9.04    2.90   1
   2  -7  -3    6.47    1.32   1
  -2   7   3    8.28    1.24   1
   2  -7  -2  101.30    6.57   1
   2  -7  -2   90.68    3.89   1
  -2   7   2   84.38    4.57   1
   2  -7  -1   -0.30    2.58   1
   2  -7  -1   -0.57    1.58   1
  -2   7   1    0.19    1.06   1
   2  -7   0   28.24    6.19  -1
  -2  -5   6   28.24    6.19   2
   2  -7   0   21.78    2.94  -1
  -2  -5   6   21.78    2.94   2
  -2   7   0   23.00    2.95  -1
   2   5  -6   23.00    2.95   2
   2  -7   1   -0.19    1.77   1
   2  -7   1   -0.65    0.81   1
  -2   7  -1    4.63    1.23   1
  -2   7  -2    2.00    2.80   1
  -2   7  -2    3.84    1.43   1
  -2   7  -2    4.02    1.35   1
  -2   7  -3   19.36    2.31   1
  -2   7  -3   15.41    2.11   1
  -2   7  -4   13.31    2.33   1
  -2   7  -4   11.49    2.03   1
  -2   7  -5   11.07    2.38   1
  -2   7  -5    8.34    2.05   1
  -2   7  -6   25.22    2.94   1
  -2   7  -6   23.10    3.03   1
  -2   7  -7    7.28    2.51   1
  -2   7  -7   22.70    5.53  -1
   2   7   0   22.70    5.53   2
  -2   7  -8   -1.49    3.07   1
  -2   7  -8   -2.27    2.15   1
  -2   7  -9    8.74    3.40   1
  -2   7  -9    7.59    1.57   1
  -2   7 -10   53.64    6.07   1
  -2   7 -10   51.08    3.32   1
  -2   7 -11    1.22    3.35   1
  -2   7 -11    5.27    2.59   1
  -2   7 -12    6.57    3.18   1
  -2   7 -12    0.44    1.57   1
  -2   7 -13    4.31    2.90   1
  -2   7 -13   11.11    4.08  -1
   2   9   5   11.11    4.08   2
  -2   7 -14    5.34    2.22   1
  -2   7 -14    4.67    3.03   1
  -2   7 -15   15.05    4.31   1
  -2   7 -15   12.58    2.33   1
  -2   7 -16    9.14    3.86   1
  -2   7 -16    0.55    3.06   1
   2  -6 -17   -1.59    2.76   1
   2  -6 -16    2.72    2.72   1
   2  -6 -15  107.92    7.92  -1
  -2   0  18  107.92    7.92   2
   2  -6 -15  133.51    8.83  -1
  -2   0  18  133.51    8.83   2
   2  -6 -14    2.10    2.28   1
   2  -6 -14    6.66    3.34  -1
  -2   0  17    6.66    3.34   2
   2  -6 -13   39.66    3.62   1
   2  -6 -12    4.28    2.14   1
   2  -6 -12    3.85    2.19   1
   2  -6 -11    4.94    2.05   1
   2  -6 -11    3.83    1.88   1
   2  -6 -10    4.24    2.19   1
   2  -6 -10    7.69    1.95   1
   2  -6  -9   10.50    2.37   1
   2  -6  -9   12.59    2.10   1
   2  -6  -8   38.51    4.50  -1
  -2  -2  12   38.51    4.50   2
   2  -6  -8   29.98    2.89  -1
  -2  -2  12   29.98    2.89   2
  -2   6   8   24.77    2.67  -1
   2   2 -12   24.77    2.67   2
   2  -6  -7   12.09    2.49   1
   2  -6  -7   10.30    1.65   1
  -2   6   7    6.12    1.82   1
   2  -6  -6   67.20    4.29   1
   2  -6  -6   63.24    3.07   1
  -2   6   6   54.86    3.06   1
   2  -6  -5    0.74    2.08   1
   2  -6  -5    1.27    1.03   1
  -2   6   5   -0.08    0.88   1
   2  -6  -4   27.43    3.19   1
   2  -6  -4   23.34    1.61   1
  -2   6   4   21.02    1.78   1
   2  -6  -3  222.02    8.68   1
   2  -6  -3  211.56    7.54   1
  -2   6   3  205.21    8.40   1
   2  -6  -2   -3.60    2.20   1
   2  -6  -2    1.16    0.88   1
  -2   6   2   -0.03    1.24   1
   2  -6  -1   94.99    7.02  -1
  -2  -4   6   94.99    7.02   2
   2  -6  -1   87.65    4.81  -1
  -2  -4   6   87.65    4.81   2
  -2   6   1   94.31    4.27  -1
   2   4  -6   94.31    4.27   2
   2  -6   0    5.44    1.80   1
   2  -6   0    5.19    1.19   1
  -2   6   0    4.32    1.08   1
  -2   6  -1    7.81    2.83   1
  -2   6  -1    9.41    1.79   1
  -2   6  -1    5.57    1.33   1
  -2   6  -2   13.37    2.87   1
  -2   6  -2    9.05    1.51   1
  -2   6  -2   10.12    1.46   1
  -2   6  -3    7.39    2.88   1
  -2   6  -3    6.85    1.36   1
  -2   6  -3    5.59    1.52   1
  -2   6  -4   15.73    3.89   1
  -2   6  -4   20.77    1.99   1
  -2   6  -5   32.17    2.76   1
  -2   6  -5   24.80    2.79   1
  -2   6  -6   49.68    4.99  -1
   2   6   0   49.68    4.99   2
  -2   6  -6   38.55    3.71  -1
   2   6   0   38.55    3.71   2
  -2   6  -7   10.63    2.08   1
  -2   6  -7   11.23    2.43   1
  -2   6  -8   10.81    2.16   1
  -2   6  -8   16.03    2.78   1
  -2   6  -9   20.82    2.84   1
  -2   6  -9   27.18    3.15   1
  -2   6 -10   20.79    2.44   1
  -2   6 -10   19.55    2.16   1
  -2   6 -11   -0.83    3.14   1
  -2   6 -11    4.30    2.67   1
  -2   6 -12    4.33    3.17   1
  -2   6 -12    3.20    1.76   1
  -2   6 -13    8.39    3.96  -1
   2   8   6    8.39    3.96   2
  -2   6 -13    7.21    3.71  -1
   2   8   6    7.21    3.71   2
  -2   6 -14    5.10    3.36   1
  -2   6 -14    0.75    1.84   1
  -2   6 -15    6.33    2.48   1
  -2   6 -15    9.08    3.20   1
  -2   6 -16    8.55    3.74   1
  -2   6 -16    9.01    2.33   1
  -2   6 -17   -1.46    3.50   1
  -2   6 -17   -2.23    3.06   1
   2  -5 -18   -3.20    1.86   1
   2  -5 -17    1.42    1.86   1
   2  -5 -16   39.34    3.24   1
   2  -5 -15   20.19    3.30  -1
  -2   1  17   20.19    3.30   2
   2  -5 -15   25.50    4.56  -1
  -2   1  17   25.50    4.56   2
   2  -5 -14   29.44    2.85   1
   2  -5 -14   35.59    3.68   1
   2  -5 -13    1.83    1.73   1
   2  -5 -13    1.73    2.29   1
   2  -5 -12    0.39    1.60   1
   2  -5 -12    1.28    2.03   1
   2  -5 -11    1.30    1.74   1
   2  -5 -11    0.17    1.73   1
   2  -5 -10    3.16    1.84   1
   2  -5 -10    2.96    1.84   1
   2  -5  -9   15.28    2.07   1
   2  -5  -9   17.18    2.05   1
  -2   5   9   14.94    1.95   1
  -2   5   9   14.82    1.81   1
   2  -5  -8   95.99    6.27  -1
  -2  -1  11   95.99    6.27   2
   2  -5  -8  119.10    5.85  -1
  -2  -1  11  119.10    5.85   2
  -2   5   8   96.32    6.14  -1
   2   1 -11   96.32    6.14   2
  -2   5   8   96.06    5.69  -1
   2   1 -11   96.06    5.69   2
   2  -5  -7   13.30    2.11   1
  -2   5   7   13.38    1.83   1
  -2   5   7   11.90    1.47   1
   2  -5  -6   38.48    2.77   1
   2  -5  -6   35.65    2.07   1
  -2   5   6   29.48    2.43   1
  -2   5   6   31.66    2.29   1
   2  -5  -5   16.81    2.23   1
   2  -5  -5   15.54    1.76   1
  -2   5   5   14.21    1.94   1
   2  -5  -4    5.25    2.01   1
   2  -5  -4    7.89    1.03   1
  -2   5   4    7.47    1.79   1
  -2   5   4    9.10    1.19   1
   2  -5  -3  161.37    6.04   1
   2  -5  -3  168.07    5.67   1
  -2   5   3  161.45    7.26   1
  -2   5   3  168.27    5.22   1
   2  -5  -2    1.94    2.13   1
   2  -5  -2    2.68    1.07   1
  -2   5   2    2.51    1.74   1
  -2   5   2    4.23    1.01   1
   2  -5  -1   50.61    4.82  -1
  -2  -3   5   50.61    4.82   2
   2  -5  -1   52.95    3.22  -1
  -2  -3   5   52.95    3.22   2
  -2   5   1   50.98    5.39  -1
   2   3  -5   50.98    5.39   2
  -2   5   1   52.51    3.07  -1
   2   3  -5   52.51    3.07   2
   2  -5   0    1.54    1.68   1
  -2   5   0   19.61    1.22   1
  -2   5  -1   22.77    2.80   1
  -2   5  -1   23.31    1.55   1
  -2   5  -1   22.85    1.50   1
  -2   5  -2   43.47    3.93   1
  -2   5  -2   38.37    2.17   1
  -2   5  -2   34.18    2.06   1
  -2   5  -3   34.93    2.71   1
  -2   5  -3   29.98    2.08   1
  -2   5  -3   34.71    2.26   1
  -2   5  -4   16.59    2.03   1
  -2   5  -4   14.26    1.86   1
  -2   5  -4   13.90    2.03   1
  -2   5  -5   91.68    6.59   1
  -2   5  -5   91.34    4.96   1
  -2   5  -6   31.30    6.26  -1
   2   5   1   31.30    6.26   2
  -2   5  -6   41.14    5.42  -1
   2   5   1   41.14    5.42   2
  -2   5  -7    2.12    2.61   1
  -2   5  -7    1.65    2.00   1
  -2   5  -8    8.61    2.88   1
  -2   5  -8    8.22    1.60   1
  -2   5  -9   85.26    6.24   1
  -2   5  -9   87.31    5.44   1
  -2   5 -10    1.55    2.78   1
  -2   5 -10    1.16    1.48   1
  -2   5 -11    3.07    3.06   1
  -2   5 -11    2.26    2.71   1
  -2   5 -12   26.97    5.97  -1
   2   7   6   26.97    5.97   2
  -2   5 -12   21.29    4.02  -1
   2   7   6   21.29    4.02   2
  -2   5 -13    9.56    4.10  -1
   2   7   7    9.56    4.10   2
  -2   5 -13   11.71    5.84  -1
   2   7   7   11.71    5.84   2
  -2   5 -14   38.30    4.62   1
  -2   5 -14   22.96    2.95   1
  -2   5 -15   13.09    3.69   1
  -2   5 -15    9.94    3.75   1
  -2   5 -16   -0.65    2.07   1
  -2   5 -16    5.24    2.05   1
  -2   5 -17   39.46    5.11   1
  -2   5 -17   35.66    5.24   1
   2  -4 -18    3.44    3.05   1
   2  -4 -17    0.40    2.81   1
   2  -4 -16  157.22    7.79  -1
  -2   2  17  157.22    7.79   2
   2  -4 -16  198.61   12.37  -1
  -2   2  17  198.61   12.37   2
   2  -4 -15    6.77    3.01   1
   2  -4 -15    3.55    2.56  -1
  -2   2  16    3.55    2.56   2
   2  -4 -14   57.96    3.54   1
   2  -4 -14   60.23    5.09   1
   2  -4 -13    5.49    1.73   1
   2  -4 -13    6.89    2.62   1
   2  -4 -12   21.77    2.69   1
   2  -4 -12   17.79    2.81   1
  -2   4  12   11.44    1.69   1
   2  -4 -11   17.68    2.43   1
   2  -4 -11   13.61    2.51   1
  -2   4  11   12.53    1.60   1
   2  -4 -10   10.76    1.68   1
   2  -4 -10    8.62    1.36   1
  -2   4  10    9.42    1.40   1
   2  -4  -9   60.36    3.91  -1
  -2   0  11   60.36    3.91   2
   2  -4  -9   59.14    4.09  -1
  -2   0  11   59.14    4.09   2
  -2   4   9   52.81    3.36  -1
   2   0 -11   52.81    3.36   2
  -2   4   9   57.33    3.76  -1
   2   0 -11   57.33    3.76   2
   2  -4  -8    1.21    1.85   1
   2  -4  -8    2.48    1.40   1
  -2   4   8    3.37    1.76   1
  -2   4   8    1.50    1.20   1
   2  -4  -7   92.97    4.02   1
   2  -4  -7   95.85    3.92   1
  -2   4   7   98.94    4.08   1
  -2   4   7   98.31    3.86   1
   2  -4  -6    6.40    1.49   1
   2  -4  -6    3.24    1.16   1
  -2   4   6    3.17    1.30   1
  -2   4   6    3.49    0.96   1
   2  -4  -5   29.90    2.22   1
   2  -4  -5   30.74    1.60   1
  -2   4   5   28.54    2.05   1
  -2   4   5   30.01    1.71   1
   2  -4  -4  389.98   15.47   1
   2  -4  -4  398.32   14.03   1
  -2   4   4  384.60   15.49   1
  -2   4   4  389.76   13.58   1
   2  -4  -3   -0.58    1.49   1
   2  -4  -3    0.29    0.69   1
  -2   4   3   -0.26    1.29   1
  -2   4   3    1.02    0.53   1
   2  -4  -2  180.24    8.43  -1
  -2  -2   5  180.24    8.43   2
   2  -4  -2  169.09    5.01  -1
  -2  -2   5  169.09    5.01   2
  -2   4   2  185.95    7.76  -1
   2   2  -5  185.95    7.76   2
  -2   4   2   19.28    1.34  -1
   2   2  -5   19.28    1.34   2
   2  -4  -1    6.30    1.43   1
  -2   4   1   10.29    1.89   1
  -2   4   1   12.36    0.68   1
  -2   4   0   28.40    1.82   1
  -2   4   0   31.89    2.72   1
  -2   4   0   32.21    1.65   1
  -2   4   0   31.30    1.58   1
  -2   4  -1   24.22    1.71   1
  -2   4  -1   23.36    1.93   1
  -2   4  -1   23.75    1.38   1
  -2   4  -1   23.46    1.43   1
  -2   4  -2    5.77    1.36   1
  -2   4  -2    7.88    2.36   1
  -2   4  -2    5.02    0.74   1
  -2   4  -2   11.59    1.33   1
   2  -4   3   45.17    2.40   1
  -2   4  -3   38.96    2.43   1
  -2   4  -3   43.02    2.50   1
   2  -4   4   91.48    4.13   1
  -2   4  -4   94.99    4.20   1
  -2   4  -4   88.50    4.22   1
   2  -4   5   80.81    4.57  -1
  -2  -4  -1   80.81    4.57   2
  -2   4  -5   82.42    6.21  -1
   2   4   1   82.42    6.21   2
  -2   4  -5   80.30    4.72  -1
   2   4   1   80.30    4.72   2
  -2   4  -6   24.70    3.26   1
  -2   4  -6   23.29    2.74   1
  -2   4  -7   17.59    3.31   1
  -2   4  -7   20.61    1.72   1
  -2   4  -8   35.72    3.89   1
  -2   4  -8   36.19    3.54   1
  -2   4  -9   37.24    3.92   1
  -2   4  -9   38.57    2.49   1
  -2   4 -10   11.07    3.10   1
  -2   4 -10   15.61    3.12   1
  -2   4 -11    0.15    1.63   1
  -2   4 -11   -0.36    1.56   1
  -2   4 -12    9.79    3.98  -1
   2   6   7    9.79    3.98   2
  -2   4 -12   15.86    3.93  -1
   2   6   7   15.86    3.93   2
  -2   4 -13    7.10    3.31   1
  -2   4 -13    3.79    1.98   1
  -2   4 -14   12.94    3.87   1
  -2   4 -14   12.77    3.75   1
  -2   4 -15   16.91    2.77   1
  -2   4 -15   19.03    4.10   1
  -2   4 -16    1.21    3.44   1
  -2   4 -16    0.75    2.00   1
  -2   4 -17   47.98    6.16   1
  -2   4 -17   47.02    5.72   1
  -2   4 -18    4.29    2.20   1
  -2   4 -18    0.56    2.20   1
   2  -3 -19    6.77    3.62   1
   2  -3 -18    8.47    2.21   1
   2  -3 -17   41.91    5.36   1
   2  -3 -16   24.92    2.26  -1
  -2   3  16   24.92    2.26   2
   2  -3 -16   21.53    5.69  -1
  -2   3  16   21.53    5.69   2
   2  -3 -15   84.82    4.63   1
   2  -3 -15   48.01    3.59   1
   2  -3 -14    6.33    1.65   1
   2  -3 -14    4.01    2.82   1
   2  -3 -13    1.54    1.27   1
   2  -3 -13    0.15    2.39   1
  -2   3  13    0.38    1.07   1
   2  -3 -12    1.09    1.25   1
   2  -3 -12   -0.26    2.02   1
  -2   3  12   -0.15    1.00   1
   2  -3 -11    2.16    1.31   1
   2  -3 -11    5.55    2.07   1
  -2   3  11    3.80    1.06   1
   2  -3 -10   24.58    2.70   1
   2  -3 -10   47.87    3.62  -1
  -2   1  11   47.87    3.62   2
  -2   3  10   51.79    3.30  -1
   2  -1 -11   51.79    3.30   2
   2  -3  -9  145.97    6.32  -1
  -2   1  10  145.97    6.32   2
   2  -3  -9  158.42    8.44  -1
  -2   1  10  158.42    8.44   2
  -2   3   9  135.28    6.80  -1
   2  -1 -10  135.28    6.80   2
   2  -3  -8   32.56    1.93   1
   2  -3  -8   33.92    2.49   1
  -2   3   8   31.73    1.70   1
  -2   3   8   34.86    2.23   1
   2  -3  -7   47.63    2.83   1
   2  -3  -7   52.75    2.79   1
  -2   3   7   51.44    2.12   1
  -2   3   7   50.71    2.57   1
   2  -3  -6   16.89    1.43   1
   2  -3  -6   20.06    1.70   1
  -2   3   6   20.37    1.47   1
  -2   3   6   20.43    1.49   1
   2  -3  -5    4.35    1.40   1
   2  -3  -5    7.20    1.38   1
  -2   3   5    5.27    1.15   1
  -2   3   5    7.65    0.97   1
   2  -3  -4  257.22    8.65   1
   2  -3  -4  278.17    8.60   1
  -2   3   4  263.38    9.02   1
  -2   3   4  271.62    8.05   1
   2  -3  -3    9.35    1.41   1
   2  -3  -3    9.02    0.63   1
  -2   3   3    8.50    1.41   1
   2  -3  -2   41.20    2.74  -1
  -2  -1   4   41.20    2.74   2
  -2   3   2  109.49    4.75  -1
   2   1  -4  109.49    4.75   2
  -2   3   1   44.17    1.82   1
  -2   3   1   45.13    1.84   1
  -2   3   1   38.26    0.87   1
  -2   3   1   46.04    1.04   1
   2  -3   1   68.46    3.53   1
   2  -3   1   71.65    2.88   1
  -2   3  -1   62.43    2.76   1
  -2   3  -1   69.00    2.39   1
   2  -3   2   86.22    4.37   1
   2  -3   2   87.09    3.77   1
  -2   3  -2   83.88    4.58   1
  -2   3  -2   76.80    3.18   1
   2  -3   3   23.78    2.54   1
   2  -3   3   24.52    1.88   1
  -2   3  -3   24.24    2.07   1
  -2   3  -3   19.48    1.30   1
   2  -3   4  297.99   13.92   1
   2  -3   4  299.41   12.19   1
  -2   3  -4  834.74   44.95  -1
   2   3   1  834.74   44.95   2
  -2   3  -4  904.45   47.15  -1
   2   3   1  904.45   47.15   2
   2  -3   5   52.14    3.91  -1
  -2  -3  -2   52.14    3.91   2
  -2   3  -5   56.97    6.02  -1
   2   3   2   56.97    6.02   2
  -2   3  -5   56.67    4.60  -1
   2   3   2   56.67    4.60   2
   2  -3   6    3.27    1.65   1
  -2   3  -6    1.87    2.23   1
  -2   3  -6    1.42    1.21   1
  -2   3  -7   20.29    2.11   1
  -2   3  -7   24.68    2.97   1
  -2   3  -8  101.73    4.83   1
  -2   3  -8  115.57    6.34   1
  -2   3  -9    9.21    2.98   1
  -2   3  -9   10.51    1.75   1
  -2   3 -10    6.25    2.92   1
  -2   3 -10    4.48    2.74   1
  -2   3 -11   61.78    7.91  -1
   2   5   7   61.78    7.91   2
  -2   3 -11   59.07    8.37  -1
   2   5   7   59.07    8.37   2
  -2   3 -12   17.71    3.75  -1
   2   5   8   17.71    3.75   2
  -2   3 -12   17.39    3.66  -1
   2   5   8   17.39    3.66   2
  -2   3 -13   55.47    5.48   1
  -2   3 -13   52.79    3.76   1
  -2   3 -14   23.47    4.39   1
  -2   3 -14   20.45    4.34   1
  -2   3 -15    6.09    2.28   1
  -2   3 -15    5.79    2.11   1
  -2   3 -16   64.45    7.22   1
  -2   3 -16   86.55    7.36   1
  -2   3 -17   -4.27    2.25   1
  -2   3 -17   -6.12    3.53   1
  -2   3 -18    5.23    4.76  -1
   2   7  13    5.23    4.76   2
  -2   3 -18   -4.89    4.45  -1
   2   7  13   -4.89    4.45   2
   2  -2 -19    2.26    3.19   1
   2  -2 -18    5.58    2.07   1
   2  -2 -17  154.28    7.69  -1
  -2   4  16  154.28    7.69   2
   2  -2 -17  210.94   13.83  -1
  -2   4  16  210.94   13.83   2
   2  -2 -16    2.70    3.15   1
   2  -2 -16    4.14    2.37  -1
  -2   4  15    4.14    2.37   2
   2  -2 -15   63.88    3.46   1
   2  -2 -15   68.95    5.73   1
   2  -2 -14   14.81    1.82   1
   2  -2 -14   18.07    3.27   1
  -2   2  14    9.50    1.45   1
   2  -2 -13   35.85    2.37   1
   2  -2 -13   39.44    2.70   1
  -2   2  13   36.30    2.47   1
   2  -2 -12   20.27    1.75   1
   2  -2 -12   25.54    3.29   1
  -2   2  12   20.40    1.88   1
   2  -2 -11    7.59    2.39   1
  -2   2  11    5.25    0.95   1
   2  -2 -11   13.63    2.92  -1
  -2   2  11   13.63    2.92   2
   2  -2 -10   84.04    3.80  -1
  -2   2  10   84.04    3.80   2
   2  -2 -10   83.62    5.22  -1
  -2   2  10   83.62    5.22   2
  -2   2  10   78.99    3.40  -1
   2  -2 -10   78.99    3.40   2
   2  -2  -9    1.48    1.78   1
  -2   2   9    0.75    0.78   1
   2  -2  -9    4.48    2.20  -1
  -2   2   9    4.48    2.20   2
   2  -2  -8  124.09    3.87   1
   2  -2  -8  128.31    5.52   1
  -2   2   8  122.20    3.69   1
  -2   2   8  117.58    5.09   1
   2  -2  -7   17.58    1.37   1
   2  -2  -7   17.23    1.92   1
  -2   2   7   17.27    1.19   1
  -2   2   7   14.66    1.53   1
   2  -2  -6   36.39    1.44   1
   2  -2  -6   34.35    2.09   1
  -2   2   6   35.02    1.40   1
  -2   2   6   31.46    1.89   1
   2  -2  -5  530.48   18.05   1
   2  -2  -5  552.12   20.38   1
  -2   2   5  542.10   18.60   1
  -2   2   5  561.56   22.37   1
   2  -2  -4   -0.44    0.65   1
   2  -2  -4    0.94    0.78   1
  -2   2   4   -0.23    0.62   1
  -2   2   4   -0.62    0.99   1
   2  -2  -3  331.08   10.54  -1
  -2   0   4  331.08   10.54   2
   2  -2  -3  305.81    9.74  -1
  -2   0   4  305.81    9.74   2
  -2   2   3  318.91   10.93  -1
   2   0  -4  318.91   10.93   2
  -2   2   3  316.94   10.36  -1
   2   0  -4  316.94   10.36   2
   2  -2  -2   22.73    0.77   1
   2  -2  -2   18.09    0.67   1
  -2   2   2   20.90    1.28   1
  -2   2   2   19.51    1.90   1
   2  -2  -1  102.43    3.71   1
   2  -2  -1  107.11    2.66   1
  -2   2   1   99.87    3.88   1
  -2   2   1  106.91    2.53   1
   2  -2   0   56.79    2.98   1
   2  -2   0   53.58    1.65   1
  -2   2   0   55.77    3.15   1
  -2   2   0   60.44    2.34   1
   2  -2   1   23.82    2.36   1
   2  -2   1   24.33    1.88   1
  -2   2  -1   19.48    1.52   1
  -2   2  -1   24.66    2.25   1
   2  -2   2   75.81    3.99   1
   2  -2   2   71.74    3.02   1
  -2   2  -2   66.28    4.23   1
  -2   2  -2   68.41    3.31   1
   2  -2   3  237.20    9.87   1
   2  -2   3  204.15    6.64   1
  -2   2  -3  226.07    9.82   1
  -2   2  -3  219.48    8.31   1
   2  -2   4  128.52    6.15  -1
  -2  -2  -2  128.52    6.15   2
   2  -2   4  131.47    5.53  -1
  -2  -2  -2  131.47    5.53   2
  -2   2  -4  115.01    4.78  -1
   2   2   2  115.01    4.78   2
  -2   2  -4  127.13    5.85  -1
   2   2   2  127.13    5.85   2
   2  -2   5   44.87    3.23   1
   2  -2   5   47.61    2.95   1
  -2   2  -5   46.08    2.66   1
  -2   2  -5   45.13    2.36   1
   2  -2   6   32.72    2.60   1
  -2   2  -6   33.40    3.52   1
  -2   2  -6   31.87    3.09   1
  -2   2  -7   41.97    4.06   1
  -2   2  -7   47.32    3.68   1
  -2   2  -8   56.10    3.01   1
  -2   2  -8   53.42    4.39   1
  -2   2  -9   34.43    4.02   1
  -2   2  -9   28.13    2.42   1
  -2   2 -10    3.08    1.67   1
  -2   2 -10   -1.52    1.57   1
  -2   2 -11   14.77    3.67  -1
   2   4   8   14.77    3.67   2
  -2   2 -11   13.19    3.78  -1
   2   4   8   13.19    3.78   2
  -2   2 -12   10.07    3.52   1
  -2   2 -12    6.53    3.12   1
  -2   2 -13   13.82    2.58   1
  -2   2 -13   21.57    3.89   1
  -2   2 -14   42.23    5.25   1
  -2   2 -14   40.80    3.47   1
  -2   2 -15    2.88    2.05   1
  -2   2 -15    4.94    3.48   1
  -2   2 -16  112.30    8.96   1
  -2   2 -16  106.73    8.60   1
  -2   2 -17    0.13    2.25   1
  -2   2 -17    1.23    3.36   1
  -2   2 -18    6.91    4.56  -1
   2   6  14    6.91    4.56   2
  -2   2 -18    2.68    2.62  -1
   2   6  14    2.68    2.62   2
  -2   2 -19   11.21    4.12   1
  -2   2 -19   10.60    4.29   1
   2  -1 -19   -2.66    3.19   1
   2  -1 -18   24.83    4.69   1
   2  -1 -17   20.96    2.78  -1
  -2   5  15   20.96    2.78   2
   2  -1 -17   34.11    5.76  -1
  -2   5  15   34.11    5.76   2
   2  -1 -16   39.97    2.90   1
   2  -1 -16   42.15    5.10   1
   2  -1 -15    9.62    1.81   1
   2  -1 -15    5.95    3.11   1
   2  -1 -14   -0.09    1.40   1
   2  -1 -14    1.44    2.48   1
  -2   1  14   -0.87    1.07   1
   2  -1 -13   -1.14    1.26   1
  -2   1  13    0.30    1.03   1
   2  -1 -12   -1.66    1.22   1
   2  -1 -12    2.89    1.37   1
  -2   1  12    1.73    0.95   1
   2  -1 -11   25.46    3.18   1
  -2   1  11   29.35    2.10   1
   2  -1 -11   49.74    3.83  -1
  -2   3  10   49.74    3.83   2
   2  -1 -10  142.93    5.66  -1
  -2   3   9  142.93    5.66   2
   2  -1 -10  152.71    9.17  -1
  -2   3   9  152.71    9.17   2
  -2   1  10  139.59    5.37  -1
   2  -3  -9  139.59    5.37   2
   2  -1  -9   51.35    2.05   1
   2  -1  -9   47.27    3.49   1
  -2   1   9   49.83    1.83   1
   2  -1  -8   53.38    1.89   1
   2  -1  -8   56.70    3.48   1
  -2   1   8   57.29    2.16   1
  -2   1   8   56.51    2.51   1
   2  -1  -7   21.94    1.27   1
   2  -1  -7   24.83    2.37   1
  -2   1   7   23.88    1.15   1
  -2   1   7   26.37    2.13   1
   2  -1  -6    2.23    0.48   1
   2  -1  -6    0.59    1.49   1
  -2   1   6    1.95    1.34   1
   2  -1  -5  235.40    5.58   1
   2  -1  -5    4.35    2.10   1
   2  -1  -5  255.08    8.64   1
   2  -1  -4   17.79    1.72   1
   2  -1  -4   17.67    1.65   1
  -2   1   3   92.77    2.14   1
   2  -1  -3  205.95    5.43  -1
  -2   1   3  205.95    5.43   2
   2  -1  -3  191.11    7.51  -1
  -2   1   3  191.11    7.51   2
  -2   1   3  198.71    8.26  -1
   2  -1  -3  198.71    8.26   2
   2  -1  -2  120.94    3.63   1
   2  -1  -2  120.37    3.95   1
  -2   1   2  119.16    3.86   1
  -2   1   2  120.57    4.92   1
   2  -1  -1  217.61    6.90   1
   2  -1  -1  234.57    7.26   1
  -2   1   1  231.79    7.58   1
  -2   1   1  232.48    7.43   1
   2  -1   0   79.68    3.36   1
   2  -1   0   78.73    3.13   1
  -2   1   0   72.31    3.79   1
  -2   1   0   77.04    3.20   1
   2  -1   1  170.19    6.61   1
   2  -1   1  164.56    5.83   1
  -2   1  -1  162.75    7.21   1
  -2   1  -1  169.45    6.25   1
   2  -1   2   34.70    2.93   1
   2  -1   2   29.21    2.48   1
  -2   1  -2   28.92    3.26   1
  -2   1  -2   30.04    2.71   1
  -2   1  -3  805.20   35.94   1
   2  -1   3 2090.06  139.09  -1
  -2  -1  -2 2090.06  139.09   2
  -2   1  -3 2081.96  138.56  -1
   2   1   2 2081.96  138.56   2
   2  -1   4   49.10    2.27   1
  -2   1  -4   52.38    2.87   1
   2  -1   4  117.24    6.96  -1
  -2  -1  -3  117.24    6.96   2
  -2   1  -4  109.23    7.35  -1
   2   1   3  109.23    7.35   2
   2  -1   5    0.48    1.08   1
   2  -1   5    1.26    0.98   1
  -2   1  -5   -1.30    2.43   1
  -2   1  -5    3.57    2.19   1
   2  -1   6   37.16    3.00   1
   2  -1   6   35.06    2.76   1
  -2   1  -6   36.69    3.85   1
  -2   1  -6   38.41    2.37   1
  -2   1  -7   97.59    4.36   1
  -2   1  -7  100.14    5.86   1
  -2   1  -8   25.95    3.48   1
  -2   1  -8   23.71    3.29   1
  -2   1  -9   -0.46    2.64   1
  -2   1  -9    2.67    1.55   1
  -2   1 -10   96.68    7.39  -1
   2   3   8   96.68    7.39   2
  -2   1 -10   99.45    6.41  -1
   2   3   8   99.45    6.41   2
  -2   1 -11   32.93    5.69  -1
   2   3   9   32.93    5.69   2
  -2   1 -11   30.46    5.43  -1
   2   3   9   30.46    5.43   2
  -2   1 -12   66.25    4.12   1
  -2   1 -12   60.35    5.90   1
  -2   1 -13   41.20    4.84   1
  -2   1 -13   33.72    4.81   1
  -2   1 -14    6.91    3.55   1
  -2   1 -14    5.62    3.64   1
  -2   1 -15  144.29    9.71   1
  -2   1 -15  146.45    9.84   1
  -2   1 -16   -0.68    3.22   1
  -2   1 -16    0.21    2.09   1
  -2   1 -17   -5.89    5.08  -1
   2   5  14   -5.89    5.08   2
  -2   1 -17   -1.32    3.76  -1
   2   5  14   -1.32    3.76   2
  -2   1 -18   21.52    6.89  -1
   2   5  15   21.52    6.89   2
  -2   1 -18   15.51    7.86  -1
   2   5  15   15.51    7.86   2
  -2   1 -19    4.99    2.26   1
  -2   1 -19   -2.32    3.87   1
   2   0 -20   10.19    3.55   1
   2   0 -19   -0.01    3.04   1
   2   0 -18  141.76   12.67  -1
  -2   6  15  141.76   12.67   2
   2   0 -17    2.47    1.84   1
   2   0 -17   -2.29    3.11  -1
  -2   6  14   -2.29    3.11   2
   2   0 -16   54.94    3.81   1
   2   0 -16   61.02    5.76   1
   2   0 -15   18.26    2.53   1
   2   0 -15   22.47    2.52   1
   2   0 -14   43.55    3.94   1
   2   0 -14   48.31    4.65   1
   2   0 -13   22.89    2.28   1
   2   0 -13   23.17    3.62   1
   2   0 -12    2.64    1.35   1
   2   0 -12    0.47    2.36   1
  -2   0  12    0.28    1.14   1
   2   0 -11   63.15    3.88  -1
  -2   4   9   63.15    3.88   2
  -2   0  11   52.93    3.20  -1
   2  -4  -9   52.93    3.20   2
   2   0 -10   12.65    1.97   1
   2   0 -10   11.55    1.66   1
  -2   0  10   11.72    1.30   1
   2   0  -9   84.14    3.07   1
   2   0  -9   84.53    3.63   1
  -2   0   9   82.45    2.91   1
   2   0  -8   25.99    1.80   1
   2   0  -8   31.29    2.92   1
  -2   0   8   25.08    1.23   1
   2   0  -7   15.90    0.77   1
   2   0  -7   23.41    1.56   1
   2   0  -7   12.67    1.37   1
   2   0  -7   21.68    2.36   1
   2   0  -6  384.45   12.93   1
   2   0  -6  382.77   12.73   1
   2   0  -6  380.63   15.73   1
   2   0  -6  386.12   15.63   1
   2   0  -5    0.65    0.85   1
   2   0  -5    0.98    0.86   1
   2   0  -5    0.96    1.54   1
   2   0  -5    1.26    0.97   1
   2   0  -4  329.70   10.99  -1
  -2   2   3  329.70   10.99   2
   2   0  -4  323.99   11.94  -1
  -2   2   3  323.99   11.94   2
  -2   0   4  328.29   10.91  -1
   2  -2  -3  328.29   10.91   2
  -2   0   4  324.17   14.03  -1
   2  -2  -3  324.17   14.03   2
   2   0  -3   39.65    1.62   1
   2   0  -3   36.96    2.53   1
  -2   0   3   35.67    2.07   1
  -2   0   3   34.95    2.81   1
   2   0  -2  142.95    5.31   1
   2   0  -2  125.99    4.16   1
  -2   0   2  134.49    4.36   1
  -2   0   2  129.57    5.70   1
   2   0  -1   69.21    3.06   1
   2   0  -1   75.51    3.74   1
  -2   0   1   78.22    3.68   1
  -2   0   1   71.79    3.62   1
   2   0   0   27.00    1.56   1
   2   0   0   34.51    1.76   1
  -2   0   0   28.63    2.71   1
  -2   0   0   32.15    1.69   1
   2   0   1   55.56    2.33   1
   2   0   1   69.01    3.70   1
  -2   0  -1   57.83    2.72   1
  -2   0  -1   63.07    3.90   1
   2   0   2  343.45   13.66   1
   2   0   2  366.70   13.88   1
  -2   0  -2  314.57   11.57   1
  -2   0  -2  350.45   14.24   1
   2   0   3  136.27    6.25  -1
  -2   0  -3  136.27    6.25   2
   2   0   3  142.90    6.87  -1
  -2   0  -3  142.90    6.87   2
  -2   0  -3  136.47    7.16  -1
   2   0   3  136.47    7.16   2
  -2   0  -3  127.09    5.04  -1
   2   0   3  127.09    5.04   2
   2   0   4   76.49    4.48   1
   2   0   4   72.36    4.09   1
  -2   0  -4   74.11    4.78   1
  -2   0  -4   65.41    4.66   1
   2   0   5   36.60    3.09   1
   2   0   5   36.72    2.97   1
  -2   0  -5   36.25    3.63   1
  -2   0  -5   32.03    2.30   1
   2   0   6   41.57    2.37   1
  -2   0  -6   36.94    2.39   1
  -2   0  -6   42.43    2.57   1
  -2   0  -7   61.64    3.21   1
  -2   0  -7   72.88    4.63   1
  -2   0  -8   33.06    2.55   1
  -2   0  -8   39.60    2.65   1
  -2   0  -9    6.74    2.94   1
  -2   0  -9    7.41    2.89   1
  -2   0 -10   21.79    3.73  -1
   2   2   9   21.79    3.73   2
  -2   0 -10   21.47    4.11  -1
   2   2   9   21.47    4.11   2
  -2   0 -11    3.58    2.95   1
  -2   0 -12   18.05    3.69   1
  -2   0 -12   20.41    2.72   1
  -2   0 -13   59.44    4.01   1
  -2   0 -13   61.17    4.12   1
  -2   0 -14    4.54    3.19   1
  -2   0 -14    0.41    1.94   1
  -2   0 -15  176.15   11.43   1
  -2   0 -15  180.40   11.62   1
  -2   0 -16    8.71    4.13   1
  -2   0 -16   31.87    5.79  -1
   2   4  14   31.87    5.79   2
  -2   0 -17    9.65    4.57  -1
   2   4  15    9.65    4.57   2
  -2   0 -17   15.38    4.95  -1
   2   4  15   15.38    4.95   2
  -2   0 -18    9.25    3.85   1
  -2   0 -18   19.83    5.58  -1
   2   4  16   19.83    5.58   2
  -2   0 -19    4.07    2.17   1
  -2   0 -19   -0.10    2.30   1
   2   1 -19   21.71    3.05   1
   2   1 -18   16.99    3.47  -1
  -2   7  14   16.99    3.47   2
   2   1 -18   14.23    5.43  -1
  -2   7  14   14.23    5.43   2
   2   1 -17   29.70    3.40   1
   2   1 -17   31.30    4.75   1
   2   1 -16   10.28    2.24   1
   2   1 -16    3.96    2.02   1
   2   1 -15    2.80    1.76   1
   2   1 -15   -5.52    2.81   1
   2   1 -14   -0.90    1.80   1
   2   1 -14   -4.20    2.82   1
   2   1 -13    1.40    1.61   1
   2   1 -13    1.10    2.71   1
   2   1 -12   17.60    2.13   1
   2   1 -12   16.20    2.20   1
  -2  -1  12   13.19    1.64   1
   2   1 -11  108.13    6.53  -1
  -2   5   8  108.13    6.53   2
   2   1 -11  111.96    7.64  -1
  -2   5   8  111.96    7.64   2
   2   1  -9   42.27    2.30   1
   2   1  -9   41.86    2.37   1
   2   1  -9   48.01    3.89   1
   2   1  -8   19.50    1.56   1
   2   1  -8   20.99    2.14   1
   2   1  -8   16.33    2.75   1
   2   1  -7   15.63    1.44   1
   2   1  -7   12.70    1.46   1
   2   1  -7   14.35    2.68   1
   2   1  -6  133.33    4.64   1
   2   1  -6  128.82    4.57   1
   2   1  -6  147.56    6.43   1
   2   1  -6  143.74    6.69   1
   2   1  -5   19.02    1.53   1
   2   1  -5   15.39    1.61   1
  -2  -1   5   17.18    1.57   1
  -2  -1   5   18.27    2.83   1
   2   1  -4  126.63    6.06  -1
  -2   3   2  126.63    6.06   2
   2   1  -4  123.22    7.69  -1
  -2   3   2  123.22    7.69   2
  -2  -1   4  111.66    5.93  -1
   2  -3  -2  111.66    5.93   2
  -2  -1   4  129.09    8.69  -1
   2  -3  -2  129.09    8.69   2
   2   1  -3  104.64    4.24   1
   2   1  -3  108.44    3.98   1
  -2  -1   3  107.97    4.43   1
  -2  -1   3  111.03    5.77   1
   2   1  -2  158.89    5.19   1
   2   1  -2  175.62    7.26   1
  -2  -1   2  165.38    6.76   1
  -2  -1   2  174.55    7.81   1
   2   1  -1   54.09    3.15   1
   2   1  -1   52.19    3.48   1
  -2  -1   1   52.55    3.54   1
  -2  -1   1   49.90    3.77   1
   2   1   0  160.09    5.60   1
   2   1   0  182.93    7.54   1
  -2  -1   0  171.06    7.72   1
  -2  -1   0  178.26    7.83   1
   2   1   1   14.73    2.40   1
   2   1   1   13.76    2.27   1
  -2  -1  -1   10.55    1.65   1
  -2  -1  -1   16.70    2.67   1
   2   1   2 1328.08   66.39   1
   2   1   2 1050.05   54.14   1
  -2  -1  -2  996.23   50.51   1
  -2  -1  -2 2051.19  138.62  -1
   2  -1   3 2051.19  138.62   2
   2   1   3   65.15    2.94   1
   2   1   3  108.56    6.36  -1
  -2   1  -4  108.56    6.36   2
  -2  -1  -3  104.76    8.74  -1
   2  -1   4  104.76    8.74   2
  -2  -1  -3  119.27    7.35  -1
   2  -1   4  119.27    7.35   2
   2   1   4   -0.12    1.95   1
   2   1   4   -0.60    1.80   1
  -2  -1  -4   -1.48    2.09   1
  -2  -1  -4    1.68    1.31   1
   2   1   5   45.74    2.43   1
   2   1   5   49.77    3.39   1
  -2  -1  -5   46.06    2.56   1
  -2  -1  -5   52.23    3.95   1
  -2  -1  -6   44.65    4.09   1
  -2  -1  -6   48.17    2.81   1
  -2  -1  -7   33.31    2.34   1
  -2  -1  -7   39.67    2.60   1
  -2  -1  -8    1.85    2.47   1
  -2  -1  -8    3.79    2.61   1
  -2  -1  -9  107.66    5.92   1
  -2  -1  -9   68.59    3.97   1
  -2  -1 -10   34.65    4.24  -1
   2   1  10   34.65    4.24   2
  -2  -1 -10   38.55    5.58  -1
   2   1  10   38.55    5.58   2
  -2  -1 -11   74.60    5.96   1
  -2  -1 -11  128.75   10.00  -1
   2   1  11  128.75   10.00   2
  -2  -1 -12   53.29    5.15   1
  -2  -1 -12   49.97    3.57   1
  -2  -1 -13    4.10    3.08   1
  -2  -1 -13    4.38    2.03   1
  -2  -1 -14  199.34   11.32   1
  -2  -1 -14  201.09   10.01   1
  -2  -1 -15   -0.53    1.95   1
  -2  -1 -15    2.55    2.06   1
  -2  -1 -16   -0.40    4.39  -1
   2   3  15   -0.40    4.39   2
  -2  -1 -16   -1.33    4.47  -1
   2   3  15   -1.33    4.47   2
  -2  -1 -17   11.76    4.92  -1
   2   3  16   11.76    4.92   2
  -2  -1 -17   31.62    4.76  -1
   2   3  16   31.62    4.76   2
  -2  -1 -18    0.70    2.27   1
   2   2 -19   73.20    9.94  -1
  -2   8  14   73.20    9.94   2
   2   2 -18   -2.11    2.35   1
   2   2 -18    2.01    1.91   1
   2   2 -17   34.52    3.87   1
   2   2 -17   42.94    5.10   1
   2   2 -16   22.32    3.08   1
   2   2 -16   21.56    4.18   1
   2   2 -15   33.01    3.36   1
   2   2 -15   32.95    3.24   1
   2   2 -14   21.85    2.73   1
   2   2 -14   21.64    2.67   1
   2   2 -13    3.76    1.97   1
   2   2 -13    3.70    3.00   1
   2   2 -12   29.46    3.78  -1
  -2   6   8   29.46    3.78   2
   2   2 -12   22.22    5.41  -1
  -2   6   8   22.22    5.41   2
   2   2 -11   15.52    2.19   1
   2   2 -11   20.03    3.37   1
   2   2 -10   38.53    2.58   1
   2   2 -10   46.59    3.06   1
   2   2 -10   48.50    2.96   1
   2   2  -9   27.52    2.16   1
   2   2  -9   23.41    2.27   1
   2   2  -9   22.90    3.48   1
   2   2  -8   10.52    1.69   1
   2   2  -8   13.68    1.97   1
   2   2  -8   11.89    2.87   1
   2   2  -7  140.78    5.84   1
   2   2  -7  146.74    5.89   1
   2   2  -7  158.26    7.43   1
   2   2  -6    0.88    0.83   1
  -2  -2   6    2.17    1.55   1
  -2  -2   6    2.79    1.42   1
   2   2  -5  195.83    8.81  -1
  -2   4   2  195.83    8.81   2
   2   2  -5  193.07    7.98  -1
  -2   4   2  193.07    7.98   2
  -2  -2   5  191.06    8.89  -1
   2  -4  -2  191.06    8.89   2
  -2  -2   5  195.71   10.07  -1
   2  -4  -2  195.71   10.07   2
   2   2  -4   36.43    2.58   1
   2   2  -4   38.75    2.29   1
  -2  -2   4   40.25    3.14   1
  -2  -2   4   44.37    3.95   1
   2   2  -3   50.23    2.32   1
   2   2  -3   57.42    3.61   1
  -2  -2   3   53.71    3.51   1
  -2  -2   3   55.08    4.28   1
   2   2  -2   40.53    2.96   1
   2   2  -2   41.42    3.18   1
  -2  -2   2   36.27    2.24   1
  -2  -2   2   40.50    3.72   1
   2   2  -1   18.73    1.69   1
   2   2  -1   20.62    2.59   1
  -2  -2   1   22.79    2.95   1
  -2  -2   1   18.87    3.05   1
   2   2   0   39.95    3.29   1
   2   2   0   31.98    3.15   1
  -2  -2   0   37.29    3.73   1
  -2  -2   0   33.02    3.46   1
   2   2   1  305.06   13.15   1
   2   2   1  310.93   11.66   1
  -2  -2  -1  309.87   14.05   1
  -2  -2  -1  302.05   11.45   1
   2   2   2  143.46    7.33  -1
  -2   2  -4  143.46    7.33   2
   2   2   2  133.15    5.40  -1
  -2   2  -4  133.15    5.40   2
  -2  -2  -2  132.88    7.63  -1
   2  -2   4  132.88    7.63   2
  -2  -2  -2  143.55    7.47  -1
   2  -2   4  143.55    7.47   2
   2   2   3   60.27    2.89   1
   2   2   3   64.24    3.89   1
  -2  -2  -3   59.39    4.76   1
  -2  -2  -3   58.52    3.06   1
   2   2   4   26.06    1.88   1
   2   2   4   23.49    1.74   1
  -2  -2  -4   24.49    2.10   1
  -2  -2  -4   25.96    2.18   1
  -2  -2  -5   21.99    2.12   1
  -2  -2  -5   22.50    3.44   1
  -2  -2  -6   47.16    4.38   1
  -2  -2  -6   42.02    2.75   1
  -2  -2  -7   43.23    4.29   1
  -2  -2  -7   38.66    2.75   1
  -2  -2  -8   14.76    3.25   1
  -2  -2  -8   13.84    2.01   1
  -2  -2  -9   18.60    3.65  -1
   2   0  10   18.60    3.65   2
  -2  -2  -9   21.00    4.30  -1
   2   0  10   21.00    4.30   2
  -2  -2 -10    6.91    3.16   1
  -2  -2 -10    6.51    4.73  -1
   2   0  11    6.51    4.73   2
  -2  -2 -11   19.50    3.67   1
  -2  -2 -11   14.73    3.84   1
  -2  -2 -12   60.41    5.21   1
  -2  -2 -12   59.85    3.92   1
  -2  -2 -13    3.43    3.05   1
  -2  -2 -13    3.97    2.02   1
  -2  -2 -14  204.13   11.56   1
  -2  -2 -14  178.41   12.11   1
  -2  -2 -15   16.43    4.41   1
  -2  -2 -15   34.43    6.61  -1
   2   2  15   34.43    6.61   2
  -2  -2 -16    6.23    3.75  -1
   2   2  16    6.23    3.75   2
  -2  -2 -16    7.47    4.32  -1
   2   2  16    7.47    4.32   2
  -2  -2 -17   16.32    4.44   1
  -2  -2 -17   14.93    5.70  -1
   2   2  17   14.93    5.70   2
  -2  -2 -18   -1.72    1.95   1
  -2  -2 -18    3.06    3.49   1
   2   3 -19   19.74    5.76  -1
  -2   9  13   19.74    5.76   2
   2   3 -18   15.36    3.13   1
   2   3 -18   12.05    2.67   1
   2   3 -17    6.87    2.71   1
   2   3 -17   10.78    3.64   1
   2   3 -16    2.98    2.19   1
   2   3 -16   -2.48    3.13   1
   2   3 -15   -0.98    2.22   1
   2   3 -15   -0.87    3.05   1
   2   3 -14    0.30    1.95   1
   2   3 -14   -0.10    1.75   1
   2   3 -13   12.54    2.35   1
   2   3 -13   10.60    2.34   1
   2   3 -12   61.18    5.97  -1
  -2   7   7   61.18    5.97   2
   2   3 -12   57.51    5.10  -1
  -2   7   7   57.51    5.10   2
   2   3 -11   45.06    3.38   1
   2   3 -11   41.07    3.13   1
   2   3 -10   25.42    2.86   1
   2   3 -10   31.80    3.90   1
   2   3  -9   11.34    2.50   1
   2   3  -9   12.80    3.09   1
   2   3  -8    0.31    1.63   1
   2   3  -8   -0.14    1.48   1
   2   3  -6   11.95    1.98   1
  -2  -3   6   12.50    2.39   1
  -2  -3   6   21.41    3.07   1
   2   3  -5   46.41    3.40  -1
  -2   5   1   46.41    3.40   2
  -2  -3   5   51.93    4.55  -1
   2  -5  -1   51.93    4.55   2
  -2  -3   5   54.58    5.67  -1
   2  -5  -1   54.58    5.67   2
   2   3  -4   65.55    3.95   1
  -2  -3   4   71.11    4.49   1
  -2  -3   4   71.00    4.99   1
   2   3  -3   60.12    3.95   1
   2   3  -3   59.69    3.89   1
  -2  -3   3   61.00    4.38   1
  -2  -3   3   72.68    5.01   1
   2   3  -2   30.49    2.85   1
   2   3  -2   25.02    1.83   1
  -2  -3   2   24.59    3.39   1
  -2  -3   2   27.15    2.28   1
   2   3  -1   99.38    5.26   1
   2   3  -1  106.17    5.50   1
  -2  -3   1  104.05    6.11   1
  -2  -3   1   98.19    5.79   1
   2   3   0    4.51    2.15   1
   2   3   0    3.40    1.99   1
  -2  -3   0   -1.86    2.55   1
  -2  -3   0    2.99    2.34   1
   2   3   1  549.22   24.76   1
   2   3   1  550.98   24.92   1
  -2  -3  -1  584.79   28.34   1
  -2  -3  -1  578.32   25.23   1
   2   3   2   35.37    3.03   1
  -2  -3  -2   60.04    6.23  -1
   2  -3   5   60.04    6.23   2
  -2  -3  -2   52.98    5.80  -1
   2  -3   5   52.98    5.80   2
  -2  -3  -3    4.70    2.72   1
  -2  -3  -3   -0.69    2.46   1
  -2  -3  -4   42.22    4.37   1
  -2  -3  -4   47.10    4.31   1
  -2  -3  -5    6.68    2.76   1
  -2  -3  -5    6.40    1.61   1
  -2  -3  -6   40.50    4.10   1
  -2  -3  -6   30.78    4.11   1
  -2  -3  -7    1.33    1.53   1
  -2  -3  -7   -0.58    2.62   1
  -2  -3  -8   92.70    8.77  -1
   2  -1  10   92.70    8.77   2
  -2  -3  -8  103.46    8.23  -1
   2  -1  10  103.46    8.23   2
  -2  -3  -9   34.89    4.90  -1
   2  -1  11   34.89    4.90   2
  -2  -3  -9   33.15    5.49  -1
   2  -1  11   33.15    5.49   2
  -2  -3 -10   42.39    4.66   1
  -2  -3 -10   37.82    3.17   1
  -2  -3 -11   52.46    5.16   1
  -2  -3 -11   41.23    5.05   1
  -2  -3 -12    4.74    1.95   1
  -2  -3 -12    7.28    2.12   1
  -2  -3 -13  174.41    8.70   1
  -2  -3 -13  178.89   11.51   1
  -2  -3 -14    7.22    3.91   1
  -2  -3 -14    1.74    5.27  -1
   2   1  15    1.74    5.27   2
  -2  -3 -15   -4.16    3.96  -1
   2   1  16   -4.16    3.96   2
  -2  -3 -15   -2.57    5.09  -1
   2   1  16   -2.57    5.09   2
  -2  -3 -16   22.54    5.02  -1
   2   1  17   22.54    5.02   2
  -2  -3 -16   20.39    7.52  -1
   2   1  17   20.39    7.52   2
  -2  -3 -17    3.05    1.87   1
  -2  -3 -17   -3.67    2.26   1
  -2  -3 -18    4.26    2.48   1
  -2  -3 -18   11.65    2.84   1
   2   4 -18   20.74    3.48   1
   2   4 -18   20.49    3.06   1
   2   4 -17   16.16    3.46   1
   2   4 -17   19.20    4.43   1
   2   4 -16   19.19    2.30   1
   2   4 -16   13.62    4.48   1
   2   4 -15   15.33    3.14   1
   2   4 -15   16.40    4.27   1
   2   4 -14   -1.91    2.32   1
   2   4 -14    0.30    2.00   1
   2   4 -13   14.38    4.41  -1
  -2   8   7   14.38    4.41   2
   2   4 -13   13.93    3.30  -1
  -2   8   7   13.93    3.30   2
   2   4 -12   20.39    3.00   1
   2   4 -12   11.23    2.30   1
   2   4 -11   23.42    3.19   1
   2   4 -11   28.26    2.83   1
   2   4 -10   23.95    3.32   1
   2   4 -10   18.67    3.89   1
   2   4  -9    4.15    1.34   1
   2   4  -9    8.30    2.97   1
   2   4  -8   50.44    4.05   1
   2   4  -8   48.61    3.11   1
  -2  -4   7   -4.05    2.32   1
  -2  -4   7    0.73    2.93   1
  -2  -4   6   88.39    6.46  -1
   2  -6  -1   88.39    6.46   2
  -2  -4   6   91.37    5.33  -1
   2  -6  -1   91.37    5.33   2
  -2  -4   5   27.38    3.14   1
  -2  -4   5   27.36    4.00   1
  -2  -4   4   20.72    3.27   1
  -2  -4   4   19.96    3.24   1
  -2  -4   3   22.61    2.32   1
  -2  -4   3   27.62    3.68   1
  -2  -4   2   12.37    2.16   1
  -2  -4   2   15.68    3.21   1
  -2  -4   1   17.42    3.35   1
  -2  -4   1   13.09    1.85   1
  -2  -4   0  179.87    9.56   1
  -2  -4   0  166.94    8.56   1
  -2  -4  -1   90.81    4.90  -1
   2  -4   5   90.81    4.90   2
  -2  -4  -1   98.33    6.85  -1
   2  -4   5   98.33    6.85   2
  -2  -4  -2   42.27    4.23   1
  -2  -4  -2   38.57    3.98   1
  -2  -4  -3   12.85    3.35   1
  -2  -4  -3   21.36    3.25   1
  -2  -4  -4    6.25    1.78   1
  -2  -4  -4    9.66    2.93   1
  -2  -4  -5   21.36    3.81   1
  -2  -4  -5   13.62    3.35   1
  -2  -4  -6   22.60    3.93   1
  -2  -4  -6   24.84    2.46   1
  -2  -4  -7   13.98    3.38   1
  -2  -4  -7   11.18    3.37   1
  -2  -4  -8   12.19    2.43  -1
   2  -2  11   12.19    2.43   2
  -2  -4  -8   18.01    4.15  -1
   2  -2  11   18.01    4.15   2
  -2  -4  -9    5.36    3.03   1
  -2  -4  -9    1.81    1.97   1
  -2  -4 -10   17.13    2.41   1
  -2  -4 -10   11.79    2.27   1
  -2  -4 -11   48.57    5.13   1
  -2  -4 -11   41.74    5.31   1
  -2  -4 -12    3.50    3.54   1
  -2  -4 -12    4.19    2.21   1
  -2  -4 -13  160.02   10.62   1
  -2  -4 -13  140.20    9.84   1
  -2  -4 -14   23.86    4.77   1
  -2  -4 -15    8.68    2.74  -1
   2   0  17    8.68    2.74   2
  -2  -4 -15   10.53    2.98  -1
   2   0  17   10.53    2.98   2
  -2  -4 -16   12.05    2.65   1
  -2  -4 -16   13.27    5.65  -1
   2   0  18   13.27    5.65   2
  -2  -4 -17    2.91    2.18   1
  -2  -4 -17   -4.04    3.23   1
   2   5 -17   -0.09    2.60   1
   2   5 -17    7.90    3.54   1
   2   5 -16    4.44    2.91   1
   2   5 -16    7.92    3.71   1
   2   5 -15    3.10    2.70   1
   2   5 -15    0.34    2.05   1
   2   5 -14    6.56    1.86   1
   2   5 -14    6.92    2.13   1
   2   5 -13   30.73    5.85  -1
  -2   9   6   30.73    5.85   2
   2   5 -13   27.01    4.17  -1
  -2   9   6   27.01    4.17   2
   2   5 -12   28.78    3.68   1
   2   5 -12   24.83    2.99   1
   2   5 -11   18.73    2.34   1
   2   5 -11   14.29    2.46   1
   2   5 -10    9.12    2.89   1
   2   5 -10    7.77    2.09   1
   2   5  -9    1.91    1.47   1
   2   5  -9   -5.32    2.81   1
  -2  -5   8    5.40    1.74   1
  -2  -5   8    9.27    2.26   1
  -2  -5   7    7.76    1.83   1
  -2  -5   7    7.53    2.09   1
  -2  -5   6   27.61    5.88  -1
   2  -7   0   27.61    5.88   2
  -2  -5   6   20.35    6.54  -1
   2  -7   0   20.35    6.54   2
  -2  -5   5   34.01    4.11   1
  -2  -5   5   39.56    3.12   1
  -2  -5   4   21.40    2.23   1
  -2  -5   4   23.54    3.39   1
  -2  -5   3   11.73    3.52   1
  -2  -5   3    8.19    3.25   1
  -2  -5   2   61.34    3.81   1
  -2  -5   2   59.69    5.04   1
  -2  -5   1    6.34    3.06   1
  -2  -5   1   -1.57    2.56   1
  -2  -5   0  284.40   13.17   1
  -2  -5   0  276.39   12.03   1
  -2  -5  -1   41.77    6.42  -1
   2  -5   6   41.77    6.42   2
  -2  -5  -1   39.45    5.28  -1
   2  -5   6   39.45    5.28   2
  -2  -5  -2    1.57    2.89   1
  -2  -5  -2    0.27    1.38   1
  -2  -5  -3   30.66    4.21   1
  -2  -5  -3   31.54    4.06   1
  -2  -5  -4   -0.76    3.12   1
  -2  -5  -4    5.09    2.72   1
  -2  -5  -5   24.43    4.38   1
  -2  -5  -5   67.24    7.44  -1
   2  -4   9   67.24    7.44   2
  -2  -5  -6    0.38    3.13   1
  -2  -5  -6    1.68    1.78   1
  -2  -5  -7   27.62    2.93   1
  -2  -5  -8   10.20    6.33  -1
   2  -3  12   10.20    6.33   2
  -2  -5  -8    7.40    4.79  -1
   2  -3  12    7.40    4.79   2
  -2  -5  -9   20.62    4.78   1
  -2  -5  -9   24.87    2.67   1
  -2  -5 -10   24.27    4.46   1
  -2  -5 -10   22.44    4.43   1
  -2  -5 -11   -0.88    1.84   1
  -2  -5 -11    2.78    3.09   1
  -2  -5 -12  132.71    9.31   1
  -2  -5 -12  113.89    7.17   1
  -2  -5 -13    0.84    3.48   1
  -2  -5 -13   -2.87    3.30   1
  -2  -5 -14    6.23    4.88  -1
   2  -1  17    6.23    4.88   2
  -2  -5 -14   -1.87    3.31  -1
   2  -1  17   -1.87    3.31   2
  -2  -5 -15   17.11    5.44  -1
   2  -1  18   17.11    5.44   2
  -2  -5 -15    8.91    5.70  -1
   2  -1  18    8.91    5.70   2
  -2  -5 -16    0.53    1.97   1
  -2  -5 -16   -1.06    3.57   1
   2   6 -16    6.54    2.03   1
   2   6 -16   10.44    2.63   1
   2   6 -15    4.70    1.83   1
   2   6 -15    2.28    3.59   1
   2   6 -14    3.95    4.75  -1
  -2  10   6    3.95    4.75   2
   2   6 -14    8.23    5.13  -1
  -2  10   6    8.23    5.13   2
   2   6 -13   13.98    3.46   1
   2   6 -13    8.27    3.71   1
   2   6 -12    6.17    3.37   1
   2   6 -12    9.69    3.64   1
   2   6 -11   13.57    2.22   1
   2   6 -11   12.88    4.10   1
   2   6 -10    0.40    2.60   1
   2   6 -10   -0.41    2.89   1
   2   6  -9   18.54    3.66   1
   2   6  -9   11.51    3.97   1
  -2  -6   8   -3.00    1.88   1
  -2  -6   8    5.85    2.04   1
  -2  -6   7   37.25    5.62  -1
   2  -8   0   37.25    5.62   2
  -2  -6   7   30.92    5.75  -1
   2  -8   0   30.92    5.75   2
  -2  -6   6   18.97    3.72   1
  -2  -6   6   13.56    3.94   1
  -2  -6   5    3.01    1.72   1
  -2  -6   5    0.43    1.87   1
  -2  -6   4    9.63    3.62   1
  -2  -6   4   30.81    6.78  -1
   2  -7   3   30.81    6.78   2
  -2  -6   3   11.20    3.96   1
  -2  -6   3    9.98    2.28   1
  -2  -6   2    4.39    2.11   1
  -2  -6   2    6.23    3.09   1
  -2  -6   1   79.05    7.03   1
  -2  -6   1   84.01    6.29   1
  -2  -6   0   46.30    6.16  -1
   2  -6   6   46.30    6.16   2
  -2  -6   0   45.01    5.20  -1
   2  -6   6   45.01    5.20   2
  -2  -6  -1   29.27    4.73   1
  -2  -6  -1   26.64    3.90   1
  -2  -6  -2   10.59    2.36   1
  -2  -6  -2   12.02    3.26   1
  -2  -6  -3    2.63    2.16   1
  -2  -6  -4    6.38    3.87   1
  -2  -6  -4   89.76    8.49  -1
   2  -5   9   89.76    8.49   2
  -2  -6  -5   12.21    4.04   1
  -2  -6  -5   14.38    3.86   1
  -2  -6  -6    6.90    3.82   1
  -2  -6  -6   10.64    2.14   1
  -2  -6  -7    4.55    2.62  -1
   2  -4  12    4.55    2.62   2
  -2  -6  -7   10.42    4.10  -1
   2  -4  12   10.42    4.10   2
  -2  -6  -8    2.64    3.53   1
  -2  -6  -8    0.64    3.13   1
  -2  -6  -9    4.38    3.79   1
  -2  -6  -9    2.87    2.16   1
  -2  -6 -10   24.95    4.80   1
  -2  -6 -10   18.11    4.44   1
  -2  -6 -11    5.43    2.21   1
  -2  -6 -11   -1.43    3.32   1
  -2  -6 -12   97.00    7.83   1
  -2  -6 -12   88.26    5.63   1
  -2  -6 -13   10.17    4.10   1
  -2  -6 -13   20.04    7.94  -1
   2  -2  17   20.04    7.94   2
  -2  -6 -14    2.03    2.68  -1
   2  -2  18    2.03    2.68   2
  -2  -6 -14    8.15    2.79  -1
   2  -2  18    8.15    2.79   2
  -2  -6 -15    6.83    2.50   1
  -2  -6 -15    8.61    3.87   1
   2   7 -15   -0.18    1.71   1
   2   7 -15   -2.42    2.06   1
   2   7 -14   10.46    4.84  -1
  -2  11   5   10.46    4.84   2
   2   7 -14   12.38    3.80  -1
  -2  11   5   12.38    3.80   2
   2   7 -13   14.37    3.86   1
   2   7 -13   13.94    2.71   1
   2   7 -12   13.16    4.08   1
   2   7 -12   12.28    2.71   1
   2   7 -11    4.40    3.30   1
   2   7 -11    2.84    2.25   1
   2   7 -10    3.83    3.01   1
   2   7 -10    2.24    2.02   1
   2   7  -9    0.89    2.06   1
   2   7  -9    8.94    2.13   1
  -2  -7   8   -4.34    3.52   1
  -2  -7   8   10.47    2.38   1
  -2  -7   7   13.97    6.38  -1
   2  -9   1   13.97    6.38   2
  -2  -7   7    9.40    6.77  -1
   2  -9   1    9.40    6.77   2
  -2  -7   6   14.24    4.14   1
  -2  -7   6   21.56    4.22   1
  -2  -7   5   -0.25    3.47   1
  -2  -7   5    7.83    2.25   1
  -2  -7   4   -0.65    2.26   1
  -2  -7   4    5.26    3.11   1
  -2  -7   3   28.65    3.24   1
  -2  -7   3   23.09    4.59   1
  -2  -7   2   -0.04    3.58   1
  -2  -7   2   -1.13    2.93   1
  -2  -7   1  159.48   11.11   1
  -2  -7   1  146.44   10.02   1
  -2  -7   0   29.24    8.71  -1
   2  -7   7   29.24    8.71   2
  -2  -7   0   22.21    5.81  -1
   2  -7   7   22.21    5.81   2
  -2  -7  -1   -0.04    3.24   1
  -2  -7  -1   -1.82    2.82   1
  -2  -7  -2   15.97    4.69   1
  -2  -7  -2   22.32    2.48   1
  -2  -7  -3    1.86    3.55   1
  -2  -7  -3   -0.06    2.91   1
  -2  -7  -4   10.71    2.63   1
  -2  -7  -4   31.28    4.95  -1
   2  -6  10   31.28    4.95   2
  -2  -7  -5    3.10    2.49   1
  -2  -7  -5    3.26    1.98   1
  -2  -7  -6   11.40    3.70   1
  -2  -7  -6   30.24    7.51  -1
   2  -5  12   30.24    7.51   2
  -2  -7  -7   22.65    6.87  -1
   2  -5  13   22.65    6.87   2
  -2  -7  -7   11.03    5.13  -1
   2  -5  13   11.03    5.13   2
  -2  -7  -8   11.68    2.76   1
  -2  -7  -8   11.77    3.55   1
  -2  -7  -9   19.29    4.86   1
  -2  -7  -9   14.12    4.22   1
  -2  -7 -10   -1.37    3.71   1
  -2  -7 -10   -1.81    2.12   1
  -2  -7 -11   67.03    7.11   1
  -2  -7 -11   59.78    6.96   1
  -2  -7 -12    1.13    3.87   1
  -2  -7 -12   -3.48    3.45   1
  -2  -7 -13    6.70    4.75  -1
   2  -3  18    6.70    4.75   2
  -2  -7 -13    2.87    4.90  -1
   2  -3  18    2.87    4.90   2
  -2  -7 -14   10.78    4.68  -1
   2  -3  19   10.78    4.68   2
  -2  -7 -14   16.95    5.90  -1
   2  -3  19   16.95    5.90   2
   2   8 -14    7.12    3.40   1
   2   8 -14    5.56    3.76   1
   2   8 -13    2.32    3.78   1
   2   8 -13    7.76    3.81   1
   2   8 -12    7.82    3.78   1
   2   8 -12    4.31    2.21   1
   2   8 -11    6.02    2.23   1
   2   8 -11    4.22    2.33   1
   2   8 -10    5.97    2.23   1
   2   8 -10    1.83    2.03   1
   2   8  -9    2.09    1.94   1
   2   8  -9   -3.40    1.99   1
  -2  -8   8    9.50    5.72  -1
   2 -10   1    9.50    5.72   2
  -2  -8   8   14.48    5.37  -1
   2 -10   1   14.48    5.37   2
  -2  -8   7    4.42    3.29   1
  -2  -8   7   -1.93    3.47   1
  -2  -8   6   -0.43    3.34   1
  -2  -8   6    1.24    3.23   1
  -2  -8   5    1.58    3.66   1
  -2  -8   5   16.77    7.33  -1
   2  -9   4   16.77    7.33   2
  -2  -8   4    7.63    2.31   1
  -2  -8   3    2.01    3.64   1
  -2  -8   3   -0.69    2.68   1
  -2  -8   2   41.64    5.69   1
  -2  -8   2   36.32    4.88   1
  -2  -8   1   27.09    5.71  -1
   2  -8   7   27.09    5.71   2
  -2  -8   1   15.87    3.35  -1
   2  -8   7   15.87    3.35   2
  -2  -8   0    7.04    4.41   1
  -2  -8   0    8.81    3.60   1
  -2  -8  -1    0.60    4.00   1
  -2  -8  -1    6.09    3.27   1
  -2  -8  -2   -0.77    4.02   1
  -2  -8  -3   -2.75    2.34   1
  -2  -8  -3   60.13    8.97  -1
  -2  -8  -2   60.13    8.97  -1
   2  -7  10   60.13    8.97   2
  -2  -8  -4    8.37    4.15   1
  -2  -8  -4    3.65    3.34   1
  -2  -8  -5    3.22    4.06   1
  -2  -8  -5    9.26    3.48   1
  -2  -8  -6   12.10    4.63  -1
   2  -6  13   12.10    4.63   2
  -2  -8  -6    0.50    4.33  -1
   2  -6  13    0.50    4.33   2
  -2  -8  -7    6.53    3.81   1
  -2  -8  -7   -3.84    3.06   1
  -2  -8  -8    0.85    4.30   1
  -2  -8  -8    6.51    3.53   1
  -2  -8  -9    9.71    4.31   1
  -2  -8  -9    9.26    3.80   1
  -2  -8 -10    2.79    2.52   1
  -2  -8 -10   -0.12    3.02   1
  -2  -8 -11   35.91    6.08   1
  -2  -8 -11   37.63    3.85   1
  -2  -8 -12    9.34    2.79   1
  -2  -8 -12   17.27    4.36   1
   2   9 -12    4.25    2.19   1
   2   9 -12   -2.45    3.61   1
   2   9 -11    2.26    3.54   1
   2   9 -10   -0.65    2.10   1
   2   9 -10   -0.36    1.99   1
   2   9  -9    1.03    2.15   1
   2   9  -9    1.35    1.98   1
  -2  -9   8    6.27    5.61  -1
   2 -11   2    6.27    5.61   2
  -2  -9   8    5.78    4.33  -1
   2 -11   2    5.78    4.33   2
  -2  -9   7    8.30    2.66   1
  -2  -9   7   11.64    2.75   1
  -2  -9   6    0.31    2.36   1
  -2  -9   6   11.28    3.44   1
  -2  -9   5    4.69    2.67   1
  -2  -9   5    5.20    3.49   1
  -2  -9   4   14.11    2.85   1
  -2  -9   4    2.57    4.28   1
  -2  -9   3    2.97    2.38   1
  -2  -9   3   -2.94    3.12   1
  -2  -9   2   59.17    7.08   1
  -2  -9   2   53.00    4.46   1
  -2  -9   1    8.88    4.65   1
  -2  -9   1    0.16    2.20   1
  -2  -9   0    2.49    4.18   1
  -2  -9  -1   17.10    4.98   1
  -2  -9  -1   27.45    7.51  -1
   2  -8  10   27.45    7.51   2
  -2  -9  -2    4.01    2.42   1
  -2  -9  -2   -3.04    3.06   1
  -2  -9  -3    1.97    2.62   1
  -2  -9  -3   11.87    5.08  -1
   2  -8  11   11.87    5.08   2
  -2  -9  -4   -1.78    4.11   1
  -2  -9  -4    3.55    2.08   1
  -2  -9  -5    7.11    2.17   1
  -2  -9  -5   16.29    7.10  -1
   2  -7  13   16.29    7.10   2
  -2  -9  -6    7.70    4.03   1
  -2  -9  -6    1.64    2.09   1
  -2  -9  -7   -0.86    4.05   1
  -2  -9  -7    6.18    2.06   1
  -2  -9  -8    4.39    4.17   1
  -2  -9  -8    4.73    2.30   1
  -2  -9  -9    0.10    3.83   1
  -2  -9  -9    2.05    3.16   1
  -2  -9 -10   34.73    6.23   1
  -2  -9 -10   22.43    5.72  -1
   2  -6  17   22.43    5.72   2
   2  10  -9   11.21    3.60  -1
  -2  12  -2   11.21    3.60   2
   2  10  -9    5.99    3.35  -1
  -2  12  -2    5.99    3.35   2
  -2 -10   8    5.63    2.59   1
  -2 -10   8    1.06    2.50   1
  -2 -10   7    0.64    2.32   1
  -2 -10   7    0.73    2.14   1
  -2 -10   6    6.53    3.88   1
  -2 -10   6    2.38    2.49   1
  -2 -10   5    3.15    4.06   1
  -2 -10   5    0.22    2.19   1
  -2 -10   4   -1.58    4.16   1
  -2 -10   4    2.12    2.22   1
  -2 -10   3    9.81    4.77   1
  -2 -10   3   10.36    2.67   1
  -2 -10   2    3.73    3.46  -1
   2 -10   8    3.73    3.46   2
  -2 -10   2   12.05    4.58  -1
   2 -10   8   12.05    4.58   2
  -2 -10   1    2.67    2.53   1
  -2 -10   1    2.50    3.57   1
  -2 -10   0    2.45    4.42   1
  -2 -10   0    4.47    3.64   1
  -2 -10  -1   -4.51    4.70   1
  -2 -10  -2    0.57    2.63   1
  -2 -10  -2   31.17    6.88  -1
   2  -9  11   31.17    6.88   2
  -2 -10  -3    5.93    4.15   1
  -2 -10  -3    0.47    3.43   1
  -2 -10  -4    6.96    4.42   1
  -2 -10  -4    1.69    3.17   1
  -2 -10  -5    6.18    3.23  -1
   2  -8  14    6.18    3.23   2
  -2 -10  -5   -1.77    4.53  -1
   2  -8  14   -1.77    4.53   2
  -2 -10  -6   -7.20    3.95   1
  -2 -10  -6    4.37    3.06   1
  -2 -10  -7    4.01    2.74   1
  -2 -10  -7    0.60    3.20   1
  -2 -11   2    7.36    4.41   1
  -2 -11   2    3.60    3.65   1
  -2 -11   1    1.83    2.63   1
  -2 -11   1   -0.61    3.10   1
  -2 -11   0   14.04    4.36   1
  -2 -11   0   -4.12    3.58   1
   3 -12  -2    0.02    2.18   1
  -3  12   1   -1.93    3.33   1
  -3  12   0   -0.35    1.92   1
  -3  12  -1    9.46    3.84   1
  -3  12  -2    2.12    2.09   1
   3 -11  -8    7.62    3.46   1
   3 -11  -7    4.84    3.32   1
   3 -11  -6    4.44    2.21   1
   3 -11  -5   15.77    3.92   1
   3 -11  -4    1.21    3.05  -1
  -3  -7  13    1.21    3.05   2
   3 -11  -3    6.38    3.77   1
   3 -11  -2   -1.34    2.28   1
  -3  11   1    4.78    2.01   1
  -3  11   0    4.19    3.25   1
  -3  11  -1   14.11    3.87   1
  -3  11  -2    0.86    2.03   1
  -3  11  -3   18.66    6.04  -1
   3   9  -7   18.66    6.04   2
  -3  11  -4    8.32    4.28   1
  -3  11  -5    2.92    2.36   1
  -3  11  -5   -0.01    1.62   1
  -3  11  -6    4.81    2.50   1
  -3  11  -6    5.24    2.06   1
  -3  11  -7   25.43    4.99   1
  -3  11  -7    8.44    2.42   1
  -3  11  -8    4.46    3.68   1
  -3  11  -8   -2.76    1.92   1
   3 -10 -11    0.84    3.15  -1
  -3  -4  18    0.84    3.15   2
   3 -10 -10    3.67    2.87   1
   3 -10  -9   15.06    3.33   1
   3 -10  -8    2.06    2.78   1
   3 -10  -7    6.50    3.17   1
   3 -10  -6   15.96    3.92   1
   3 -10  -5    7.09    2.17   1
   3 -10  -4   25.24    6.21  -1
  -3  -6  12   25.24    6.21   2
   3 -10  -3   -1.73    3.21   1
   3 -10  -2    2.03    2.29   1
  -3  10   1    0.06    1.65   1
  -3  10   0    9.58    3.18   1
  -3  10   0    2.97    1.31   1
  -3  10  -1    2.21    2.93   1
  -3  10  -1    0.37    1.26   1
  -3  10  -2   -1.61    1.77   1
  -3  10  -2    1.73    1.27   1
  -3  10  -3   12.13    4.13  -1
   3   8  -6   12.13    4.13   2
  -3  10  -3    8.13    2.82  -1
   3   8  -6    8.13    2.82   2
  -3  10  -4    5.16    3.84   1
  -3  10  -4    3.42    1.68   1
  -3  10  -5    9.23    4.38   1
  -3  10  -5    7.23    1.99   1
  -3  10  -6    6.24    2.46   1
  -3  10  -6    4.84    1.99   1
  -3  10  -7    5.81    2.48   1
  -3  10  -7    5.51    2.13   1
  -3  10  -8    7.42    3.80   1
  -3  10  -8   -3.61    2.03   1
  -3  10  -9    1.26    3.78   1
  -3  10  -9    0.75    1.33   1
  -3  10 -10    3.10    2.33   1
  -3  10 -10   13.16    4.71  -1
   3  10   0   13.16    4.71   2
  -3  10 -11    4.57    3.58   1
  -3  10 -11   -1.01    1.36   1
   3  -9 -12    9.70    4.47  -1
  -3  -3  18    9.70    4.47   2
   3  -9 -11   -2.25    2.33   1
   3  -9 -10    1.54    2.35   1
   3  -9  -9    8.88    1.82   1
   3  -9  -8    4.96    2.66   1
   3  -9  -7   10.91    3.23   1
   3  -9  -6   23.04    2.58   1
   3  -9  -5   14.70    4.86  -1
  -3  -5  12   14.70    4.86   2
   3  -9  -5    3.39    2.22  -1
  -3  -5  12    3.39    2.22   2
   3  -9  -4   -2.91    2.84   1
   3  -9  -4    2.56    1.23   1
   3  -9  -3    0.16    2.87   1
   3  -9  -3    0.75    0.93   1
   3  -9  -2    2.65    1.99   1
   3  -9  -2    1.87    1.05   1
  -3   9   1    2.13    1.66   1
  -3   9   1   -2.02    0.95   1
  -3   9   0   17.10    3.34   1
  -3   9   0   11.61    1.49   1
  -3   9  -1    7.08    3.07   1
  -3   9  -1    2.71    1.48   1
  -3   9  -1    4.73    1.33   1
  -3   9  -2   50.08    6.21  -1
   3   7  -6   50.08    6.21   2
  -3   9  -2   29.69    2.88  -1
   3   7  -6   29.69    2.88   2
  -3   9  -3   22.51    4.01   1
  -3   9  -3   13.11    1.92   1
  -3   9  -4    5.57    2.17   1
  -3   9  -4    4.15    1.70   1
  -3   9  -5    3.40    2.19   1
  -3   9  -5    3.90    1.74   1
  -3   9  -6   56.35    6.55   1
  -3   9  -6   46.27    3.82   1
  -3   9  -7   11.23    3.69   1
  -3   9  -7    2.06    2.13   1
  -3   9  -8   -0.45    2.23   1
  -3   9  -8   -1.82    1.94   1
  -3   9  -9   13.02    4.61  -1
   3   9   0   13.02    4.61   2
  -3   9  -9   12.67    3.16  -1
   3   9   0   12.67    3.16   2
  -3   9 -10    6.04    3.65   1
  -3   9 -10    1.13    1.42   1
  -3   9 -11    6.71    3.88   1
  -3   9 -11    3.63    2.48   1
  -3   9 -12   -4.47    3.52   1
  -3   9 -12    3.94    1.58   1
  -3   9 -13    7.89    2.46   1
  -3   9 -13    3.12    2.68   1
   3  -8 -12    6.87    3.29  -1
  -3  -2  17    6.87    3.29   2
   3  -8 -11   18.61    3.01   1
   3  -8 -10   35.62    3.56   1
   3  -8 -10   21.69    2.87   1
   3  -8  -9    0.21    2.04   1
   3  -8  -9    0.60    1.06   1
   3  -8  -8   13.47    1.75   1
   3  -8  -8    5.17    1.81   1
   3  -8  -7   38.06    3.63   1
   3  -8  -7   31.17    1.97   1
   3  -8  -6   13.70    2.93   1
   3  -8  -6    9.33    1.46   1
   3  -8  -5   52.01    6.16  -1
  -3  -4  11   52.01    6.16   2
   3  -8  -5   39.08    3.11  -1
  -3  -4  11   39.08    3.11   2
  -3   8   5   33.29    2.68  -1
   3   4 -11   33.29    2.68   2
   3  -8  -4   -0.15    2.64   1
   3  -8  -4    2.42    0.78   1
  -3   8   4    3.53    1.02   1
   3  -8  -3    2.47    2.56   1
   3  -8  -3    3.29    1.06   1
  -3   8   3   -0.21    0.78   1
   3  -8  -2    1.90    1.72   1
   3  -8  -2    2.05    0.82   1
  -3   8   2    0.77    1.23   1
  -3   8   1   11.55    3.01   1
  -3   8   1    6.75    1.54   1
  -3   8   1    5.87    1.33   1
  -3   8   0    1.21    1.75   1
  -3   8   0    5.10    1.58   1
  -3   8   0    5.79    1.44   1
  -3   8  -1    1.36    1.53   1
  -3   8  -1    0.14    1.11   1
  -3   8  -1   -0.62    0.98   1
  -3   8  -2    3.06    1.46   1
  -3   8  -2   25.02    4.06  -1
   3   6  -5   25.02    4.06   2
  -3   8  -2   22.61    2.91  -1
   3   6  -5   22.61    2.91   2
  -3   8  -3    4.85    3.40   1
  -3   8  -3    4.57    1.56   1
  -3   8  -4   13.93    3.59   1
  -3   8  -4   10.60    1.85   1
  -3   8  -5   13.59    3.73   1
  -3   8  -5   11.08    2.13   1
  -3   8  -6   29.36    4.56   1
  -3   8  -6   26.80    2.79   1
  -3   8  -7    6.87    2.08   1
  -3   8  -7    3.90    1.33   1
  -3   8  -8    4.49    2.24   1
  -3   8  -8    2.08    2.18   1
  -3   8  -9   14.68    7.24  -1
   3   8   1   14.68    7.24   2
  -3   8  -9   24.80    5.24  -1
   3   8   1   24.80    5.24   2
  -3   8 -10    3.90    3.23   1
  -3   8 -10   -2.55    2.18   1
  -3   8 -11    5.68    3.49   1
  -3   8 -11    6.28    2.48   1
  -3   8 -12    3.84    2.18   1
  -3   8 -12    1.05    2.57   1
  -3   8 -13   -1.92    3.35   1
  -3   8 -13    2.77    2.61   1
  -3   8 -14    2.14    3.51   1
  -3   8 -14   -0.52    2.73   1
   3  -7 -14    1.82    1.74   1
   3  -7 -13   16.92    3.34  -1
  -3  -1  17   16.92    3.34   2
   3  -7 -13    4.50    2.91  -1
  -3  -1  17    4.50    2.91   2
   3  -7 -12    4.45    1.91   1
   3  -7 -12    2.97    1.85   1
   3  -7 -11   -2.21    1.72   1
   3  -7 -11    2.11    1.43   1
   3  -7 -10   13.19    2.44   1
   3  -7 -10   11.82    1.81   1
   3  -7  -9    8.15    2.27   1
   3  -7  -9    5.36    1.86   1
  -3   7   9    4.76    1.58   1
   3  -7  -8   23.13    2.58   1
   3  -7  -8   16.86    1.89   1
  -3   7   8   13.62    1.38   1
   3  -7  -7   55.50    4.06   1
   3  -7  -7   49.65    2.81   1
  -3   7   7   39.01    2.16   1
   3  -7  -6   10.50    3.86  -1
  -3  -3  11   10.50    3.86   2
   3  -7  -6   10.44    1.86  -1
  -3  -3  11   10.44    1.86   2
  -3   7   6    9.08    1.75  -1
   3   3 -11    9.08    1.75   2
   3  -7  -5    7.87    2.44   1
   3  -7  -5    7.84    0.86   1
  -3   7   5    5.44    1.05   1
   3  -7  -4    4.78    2.04   1
   3  -7  -4    2.11    0.82   1
  -3   7   4    0.99    0.74   1
   3  -7  -3   -4.17    2.26   1
   3  -7  -3   -0.57    0.74   1
  -3   7   3    1.12    0.67   1
   3  -7  -2    1.04    1.63   1
  -3   7   2    4.37    0.76   1
  -3   7   1   34.39    3.33   1
  -3   7   1   33.99    1.99   1
  -3   7   1   26.14    1.34   1
  -3   7   0   17.19    3.00   1
  -3   7   0   14.90    1.50   1
  -3   7   0   13.32    1.09   1
  -3   7  -1   70.43    6.65  -1
   3   5  -5   70.43    6.65   2
  -3   7  -1   58.56    4.01  -1
   3   5  -5   58.56    4.01   2
  -3   7  -1   54.23    3.60  -1
   3   5  -5   54.23    3.60   2
  -3   7  -2   33.57    4.47   1
  -3   7  -2   28.77    2.57   1
  -3   7  -2   35.36    2.19   1
  -3   7  -3   14.82    3.14   1
  -3   7  -3   11.57    1.49   1
  -3   7  -3   10.04    1.67   1
  -3   7  -4    6.54    3.08   1
  -3   7  -4    4.03    1.68   1
  -3   7  -5  148.44    9.38   1
  -3   7  -5  136.12    6.63   1
  -3   7  -6    5.01    3.13   1
  -3   7  -6    3.33    1.92   1
  -3   7  -7    2.14    1.84   1
  -3   7  -7    0.66    1.19   1
  -3   7  -8   29.04    5.26  -1
   3   7   1   29.04    5.26   2
  -3   7  -8   26.22    3.75  -1
   3   7   1   26.22    3.75   2
  -3   7  -9   -1.98    3.32   1
  -3   7  -9    5.58    2.27   1
  -3   7 -10   13.14    4.12   1
  -3   7 -10   17.73    3.09   1
  -3   7 -11    4.23    3.32   1
  -3   7 -11    2.05    1.66   1
  -3   7 -12    5.81    2.32   1
  -3   7 -12   10.90    3.06   1
  -3   7 -13   11.76    3.83   1
  -3   7 -13    7.83    2.09   1
  -3   7 -14    0.24    3.37   1
  -3   7 -14    1.18    2.92   1
  -3   7 -15    4.88    4.25  -1
   3   9   7    4.88    4.25   2
  -3   7 -15    7.22    2.26  -1
   3   9   7    7.22    2.26   2
   3  -6 -17   -0.07    2.22   1
   3  -6 -16   12.45    2.87   1
   3  -6 -15   -0.14    2.06   1
   3  -6 -14   40.85    3.71   1
   3  -6 -13   14.77    2.34  -1
  -3   0  16   14.77    2.34   2
   3  -6 -13   15.93    3.66  -1
  -3   0  16   15.93    3.66   2
   3  -6 -12   29.80    2.54   1
   3  -6 -12   27.53    2.92   1
   3  -6 -11   52.74    3.45   1
   3  -6 -11   55.36    3.33   1
   3  -6 -10    2.08    1.51   1
   3  -6 -10   -2.38    1.27   1
  -3   6  10    1.09    1.20   1
   3  -6  -9   13.80    2.08   1
   3  -6  -9   11.65    1.55   1
  -3   6   9   11.34    1.83   1
   3  -6  -8   76.03    4.11   1
   3  -6  -8   83.31    3.93   1
  -3   6   8   64.64    3.08   1
   3  -6  -7   21.86    2.30   1
   3  -6  -7   17.44    1.38   1
  -3   6   7   12.33    1.18   1
   3  -6  -6  119.92    6.71  -1
  -3  -2  10  119.92    6.71   2
   3  -6  -6  114.77    4.85  -1
  -3  -2  10  114.77    4.85   2
  -3   6   6  100.63    4.39  -1
   3   2 -10  100.63    4.39   2
   3  -6  -5    7.01    2.02   1
   3  -6  -5    6.04    0.77   1
   3  -6  -4   -0.24    1.77   1
   3  -6  -3    4.13    1.28   1
   3  -6  -3    2.77    0.45   1
  -3   6   3    2.17    0.41   1
  -3   6   2   11.64    2.41   1
  -3   6   2   10.38    0.64   1
  -3   6   1   10.76    2.40   1
  -3   6   1   11.23    0.79   1
  -3   6   1   10.86    0.94   1
  -3   6   0   11.06    2.43   1
  -3   6   0    6.61    1.14   1
  -3   6   0    8.13    0.87   1
  -3   6  -1   56.04    6.82  -1
   3   4  -4   56.04    6.82   2
  -3   6  -1   53.25    3.53  -1
   3   4  -4   53.25    3.53   2
  -3   6  -1   52.88    3.13  -1
   3   4  -4   52.88    3.13   2
  -3   6  -2    8.15    2.79   1
  -3   6  -2    9.87    1.68   1
  -3   6  -2   10.40    1.36   1
  -3   6  -3   21.10    3.35   1
  -3   6  -3   18.95    1.66   1
  -3   6  -3   20.02    1.87   1
  -3   6  -4   34.68    4.01   1
  -3   6  -4   20.17    2.07   1
  -3   6  -4   26.32    2.26   1
  -3   6  -5   56.92    5.30   1
  -3   6  -5   61.69    3.69   1
  -3   6  -6   12.54    3.27   1
  -3   6  -6    8.25    1.31   1
  -3   6  -7    2.85    3.04   1
  -3   6  -7   -1.77    1.80   1
  -3   6  -8   21.80    6.49  -1
   3   6   2   21.80    6.49   2
  -3   6  -8   28.62    3.12  -1
   3   6   2   28.62    3.12   2
  -3   6  -9    3.25    1.83   1
  -3   6  -9    3.40    2.13   1
  -3   6 -10    9.60    2.26   1
  -3   6 -10   10.81    2.95   1
  -3   6 -11    5.68    3.33   1
  -3   6 -11   -0.40    2.71   1
  -3   6 -12    4.77    3.21   1
  -3   6 -12    1.29    2.73   1
  -3   6 -13    9.07    2.28   1
  -3   6 -13    1.78    1.94   1
  -3   6 -14    8.04    3.50   1
  -3   6 -14   18.07    7.41  -1
   3   8   7   18.07    7.41   2
  -3   6 -15    0.54    5.83  -1
   3   8   8    0.54    5.83   2
  -3   6 -15    2.43    4.12  -1
   3   8   8    2.43    4.12   2
  -3   6 -16    7.66    2.42   1
  -3   6 -16    3.17    2.01   1
   3  -5 -18    8.08    2.90   1
   3  -5 -17   -0.61    2.48   1
   3  -5 -16    3.84    2.48   1
   3  -5 -15    0.34    2.14   1
   3  -5 -14   11.83    2.87  -1
  -3   1  16   11.83    2.87   2
   3  -5 -14   15.24    3.68  -1
  -3   1  16   15.24    3.68   2
   3  -5 -13   10.34    2.48   1
   3  -5 -13   33.09    3.90  -1
  -3   1  15   33.09    3.90   2
   3  -5 -12   -1.12    1.19   1
   3  -5 -12   -0.63    1.76   1
  -3   5  12    2.32    1.02   1
   3  -5 -11   28.70    2.35   1
   3  -5 -11   21.94    2.43   1
  -3   5  11   16.61    1.56   1
   3  -5 -10   12.73    1.50   1
   3  -5 -10   12.11    1.74   1
  -3   5  10    8.59    1.32   1
  -3   5  10    8.13    1.63   1
   3  -5  -9   21.55    1.90   1
   3  -5  -9   22.90    1.85   1
  -3   5   9   16.73    1.66   1
  -3   5   9   20.84    1.82   1
   3  -5  -8  110.96    4.71   1
   3  -5  -8  113.52    4.31   1
  -3   5   8   93.70    4.09   1
  -3   5   8   95.38    4.42   1
   3  -5  -7   23.10    2.77  -1
  -3  -1  10   23.10    2.77   2
   3  -5  -7   22.60    2.51  -1
  -3  -1  10   22.60    2.51   2
  -3   5   7   17.76    2.54  -1
   3   1 -10   17.76    2.54   2
  -3   5   7   21.08    2.05  -1
   3   1 -10   21.08    2.05   2
   3  -5  -6   14.34    1.78   1
   3  -5  -6   17.92    1.36   1
  -3   5   6   16.58    1.67   1
  -3   5   6   15.39    1.28   1
   3  -5  -5    3.43    1.52   1
   3  -5  -5    3.98    0.72   1
  -3   5   5   -0.88    1.41   1
  -3   5   5    4.24    0.41   1
   3  -5  -4    5.54    1.71   1
   3  -5  -4    2.14    0.31   1
  -3   5   4    4.51    1.40   1
  -3   5   4    2.00    0.30   1
  -3   5   3    9.73    1.07   1
  -3   5   3    9.92    1.89   1
  -3   5   2   57.04    3.22   1
  -3   5   2   59.90    3.55   1
  -3   5   1   27.65    2.57   1
  -3   5   1   28.29    1.96   1
  -3   5   1   31.08    0.86   1
  -3   5   1   30.28    1.03   1
  -3   5   0   68.67    4.72  -1
   3   3  -4   68.67    4.72   2
  -3   5   0   65.94    2.73  -1
   3   3  -4   65.94    2.73   2
  -3   5   0   70.21    3.00  -1
   3   3  -4   70.21    3.00   2
  -3   5  -1   53.93    3.95   1
  -3   5  -1   50.52    2.27   1
  -3   5  -1   55.66    2.07   1
  -3   5  -2   39.83    3.64   1
  -3   5  -2   36.29    2.04   1
   3  -5   3    5.51    1.19   1
  -3   5  -3    5.13    2.40   1
  -3   5  -3    4.24    1.39   1
   3  -5   4  289.46   12.41   1
  -3   5  -4  303.22   14.68   1
  -3   5  -4  305.14   12.47   1
  -3   5  -5    7.13    2.77   1
  -3   5  -5    2.86    1.83   1
  -3   5  -6    7.10    2.64   1
  -3   5  -6   -2.19    1.80   1
  -3   5  -7   61.24    4.17  -1
   3   5   2   61.24    4.17   2
  -3   5  -7   61.92    3.50  -1
   3   5   2   61.92    3.50   2
  -3   5  -8   27.48    2.74   1
  -3   5  -8   28.10    3.46   1
  -3   5  -9   40.29    4.68   1
  -3   5  -9   39.62    3.94   1
  -3   5 -10    3.70    3.31   1
  -3   5 -10    7.77    1.81   1
  -3   5 -11   20.79    2.75   1
  -3   5 -11   20.26    3.78   1
  -3   5 -12   23.29    2.86   1
  -3   5 -12   20.16    3.73   1
  -3   5 -13    5.86    3.67   1
  -3   5 -13   11.39    2.13   1
  -3   5 -14    7.29    2.65  -1
   3   7   8    7.29    2.65   2
  -3   5 -14   13.29    3.95  -1
   3   7   8   13.29    3.95   2
  -3   5 -15    5.71    3.94   1
  -3   5 -15    9.94    3.44   1
  -3   5 -16   15.82    4.54   1
  -3   5 -16   11.80    2.43   1
  -3   5 -17    2.80    2.40   1
  -3   5 -17    0.83    3.44   1
   3  -4 -18    2.32    2.89   1
   3  -4 -17   10.26    2.16   1
   3  -4 -15   51.32    4.77   1
   3  -4 -14   18.49    2.16  -1
  -3   2  15   18.49    2.16   2
   3  -4 -14   35.58    4.63  -1
  -3   2  15   35.58    4.63   2
   3  -4 -13   35.68    2.53   1
   3  -4 -13   43.33    3.85   1
   3  -4 -12   76.01    3.66   1
   3  -4 -12   81.84    4.67   1
  -3   4  12   63.06    3.17   1
   3  -4 -11    0.59    0.91   1
   3  -4 -11   -0.19    1.73   1
  -3   4  11    1.64    1.13   1
   3  -4 -10   10.88    1.12   1
   3  -4 -10   16.96    2.05   1
  -3   4  10   11.31    1.38   1
   3  -4  -9  143.40    4.91   1
   3  -4  -9  154.24    6.08   1
  -3   4   9  124.63    4.78   1
  -3   4   9  132.14    5.53   1
   3  -4  -8   19.08    1.41   1
  -3   4   8   17.43    1.67   1
  -3   4   8   18.75    1.96   1
   3  -4  -7  208.29    8.73  -1
  -3   0   9  208.29    8.73   2
  -3   4   7  199.12    8.28  -1
   3   0  -9  199.12    8.28   2
   3  -4  -6   10.13    1.59   1
   3  -4  -6   12.90    1.33   1
  -3   4   6   10.47    1.19   1
  -3   4   6   10.33    1.12   1
   3  -4  -5    1.48    1.08   1
   3  -4  -5    2.73    0.65   1
  -3   4   5    4.54    1.04   1
  -3   4   5    3.90    0.61   1
   3  -4  -4    5.22    0.41   1
   3  -4  -4    5.51    0.37   1
  -3   4   4    4.66    1.18   1
  -3   4   4    4.10    1.28   1
  -3   4   3   17.64    1.62   1
  -3   4   3   15.46    1.56   1
  -3   4   2   22.76    1.29   1
  -3   4   2   27.78    2.28   1
  -3   4   1   21.13    2.10   1
  -3   4   1   24.81    2.25   1
  -3   4   1   17.97    0.57   1
  -3   4   1   24.16    0.74   1
   3  -4   0  104.29    6.26  -1
  -3  -2   3  104.29    6.26   2
   3  -4   0  103.37    3.56  -1
  -3  -2   3  103.37    3.56   2
  -3   4   0  107.50    6.76  -1
   3   2  -3  107.50    6.76   2
  -3   4   0  112.01    4.02  -1
   3   2  -3  112.01    4.02   2
   3  -4   1   18.24    2.18   1
   3  -4   1   22.10    1.52   1
  -3   4  -1   20.44    2.70   1
  -3   4  -1   24.24    1.72   1
   3  -4   2   33.52    1.74   1
  -3   4  -2   32.57    2.10   1
  -3   4  -2   32.53    1.93   1
   3  -4   3   46.15    2.46   1
  -3   4  -3   44.11    2.73   1
  -3   4  -3   47.22    2.69   1
   3  -4   4  110.03    4.85   1
  -3   4  -4  109.72    6.46   1
  -3   4  -4  117.81    5.26   1
   3  -4   5   25.46    2.30   1
  -3   4  -5   30.31    3.51   1
  -3   4  -5   25.37    1.80   1
  -3   4  -6   13.67    4.26  -1
   3   4   2   13.67    4.26   2
  -3   4  -6   10.93    3.28  -1
   3   4   2   10.93    3.28   2
  -3   4  -7   44.38    6.69  -1
   3   4   3   44.38    6.69   2
  -3   4  -7   44.45    4.80  -1
   3   4   3   44.45    4.80   2
  -3   4  -8    9.84    1.93   1
  -3   4  -8   11.54    2.78   1
  -3   4  -9   25.56    3.99   1
  -3   4  -9   27.91    3.55   1
  -3   4 -10   16.98    3.81   1
  -3   4 -10   19.07    3.43   1
  -3   4 -11    9.44    2.32   1
  -3   4 -11    7.47    3.13   1
  -3   4 -12   21.03    4.49   1
  -3   4 -12   23.76    2.63   1
  -3   4 -13   26.82    6.16  -1
   3   6   8   26.82    6.16   2
  -3   4 -13   24.53    5.84  -1
   3   6   8   24.53    5.84   2
  -3   4 -14   -0.34    3.42  -1
   3   6   9   -0.34    3.42   2
  -3   4 -14    9.76    5.29  -1
   3   6   9    9.76    5.29   2
  -3   4 -15   -1.89    3.59   1
  -3   4 -15    7.99    3.46   1
  -3   4 -16   48.48    4.58   1
  -3   4 -16   56.28    4.32   1
  -3   4 -17    2.50    3.45   1
  -3   4 -17   -1.62    3.01   1
   3  -3 -19    7.28    3.31   1
   3  -3 -18    1.32    2.80   1
   3  -3 -17    3.22    2.76   1
   3  -3 -16    2.50    2.49   1
   3  -3 -15   16.36    2.03  -1
  -3   3  15   16.36    2.03   2
   3  -3 -15   28.11    4.12  -1
  -3   3  15   28.11    4.12   2
   3  -3 -14   18.69    3.27   1
   3  -3 -14   36.17    2.76  -1
  -3   3  14   36.17    2.76   2
   3  -3 -13   -1.13    1.12   1
   3  -3 -13    4.00    2.06   1
  -3   3  13    0.14    0.66   1
   3  -3 -12   28.32    1.76   1
   3  -3 -12   25.66    3.09   1
  -3   3  12   25.21    1.52   1
   3  -3 -11   13.32    1.31   1
   3  -3 -11   10.33    2.20   1
  -3   3  11   11.52    0.88   1
   3  -3 -10   15.72    1.28   1
   3  -3 -10   19.43    2.20   1
  -3   3  10   14.22    1.10   1
   3  -3  -9  147.49    4.53   1
  -3   3   9  139.64    4.10   1
  -3   3   9  150.06    6.24   1
   3  -3  -8   28.68    1.89  -1
  -3   1   9   28.68    1.89   2
   3  -3  -8   31.42    2.95  -1
  -3   1   9   31.42    2.95   2
  -3   3   8   30.25    1.59  -1
   3  -1  -9   30.25    1.59   2
  -3   3   8   31.72    2.62  -1
   3  -1  -9   31.72    2.62   2
   3  -3  -7   29.44    1.27   1
   3  -3  -7   32.83    1.88   1
  -3   3   7   29.63    1.13   1
  -3   3   7   31.54    1.77   1
   3  -3  -6   11.49    0.79   1
   3  -3  -6   12.21    1.18   1
  -3   3   6   10.26    0.93   1
   3  -3  -5   29.86    1.36   1
   3  -3  -5   28.94    1.57   1
  -3   3   5   29.11    1.53   1
  -3   3   5   25.13    1.46   1
   3  -3  -4   18.55    1.15   1
   3  -3  -4   16.46    0.89   1
  -3   3   4   18.04    1.51   1
  -3   3   4   13.79    1.10   1
   3  -3  -3  114.09    2.69   1
   3  -3  -3   94.91    2.23   1
  -3   3   3  103.89    3.41   1
  -3   3   3  107.81    3.67   1
   3  -3  -2   55.50    2.54   1
   3  -3  -2   51.35    1.18   1
  -3   3   2   52.08    2.48   1
  -3   3   2   50.85    1.29   1
   3  -3  -1   65.58    3.78  -1
  -3  -1   3   65.58    3.78   2
   3  -3  -1   58.55    1.91  -1
  -3  -1   3   58.55    1.91   2
  -3   3   1   57.09    3.55  -1
   3   1  -3   57.09    3.55   2
  -3   3   1   68.94    2.22  -1
   3   1  -3   68.94    2.22   2
   3  -3   0   82.23    3.87   1
   3  -3   0   85.64    2.86   1
  -3   3   0   81.28    3.94   1
  -3   3   0   82.91    3.04   1
   3  -3   1   78.91    3.15   1
   3  -3   1   91.96    3.43   1
  -3   3  -1   87.52    4.46   1
  -3   3  -1   95.23    3.93   1
   3  -3   2    3.23    1.10   1
   3  -3   2    6.28    1.12   1
  -3   3  -2    6.34    2.23   1
  -3   3  -2    6.04    1.37   1
   3  -3   3  506.19   23.42   1
   3  -3   3  515.53   21.42   1
  -3   3  -3  510.24   21.11   1
  -3   3  -3  542.89   22.29   1
   3  -3   4    4.20    0.90   1
  -3   3  -4    3.37    2.33   1
  -3   3  -4    2.49    1.84   1
   3  -3   5    4.08    1.50   1
  -3   3  -5    2.40    2.50   1
  -3   3  -5    3.00    2.00   1
  -3   3  -6  114.89    5.49  -1
   3   3   3  114.89    5.49   2
  -3   3  -6  119.53    6.82  -1
   3   3   3  119.53    6.82   2
  -3   3  -7   66.72    5.58   1
  -3   3  -7   82.07    5.08   1
  -3   3  -8   70.54    5.69   1
  -3   3  -8   70.80    3.60   1
  -3   3  -9   11.93    2.22   1
  -3   3  -9   13.95    1.98   1
  -3   3 -10   33.24    4.31   1
  -3   3 -10   22.80    3.85   1
  -3   3 -11   55.01    4.07   1
  -3   3 -11   59.10    5.39   1
  -3   3 -12   20.01    4.04   1
  -3   3 -12   11.19    3.37   1
  -3   3 -13   20.02    2.92  -1
   3   5   9   20.02    2.92   2
  -3   3 -13   13.33    4.73  -1
   3   5   9   13.33    4.73   2
  -3   3 -14   -1.21    3.65   1
  -3   3 -14    7.73    3.35   1
  -3   3 -15   15.36    4.38   1
  -3   3 -15   18.04    2.90   1
  -3   3 -16    5.51    3.75   1
  -3   3 -16    1.80    3.73   1
  -3   3 -17    3.95    3.71   1
  -3   3 -17   -2.23    3.06   1
  -3   3 -18    7.31    4.04   1
  -3   3 -18    1.56    3.64   1
   3  -2 -19    6.08    3.10   1
   3  -2 -18    6.94    3.33   1
   3  -2 -17   -3.75    2.92   1
   3  -2 -16   35.24    4.42   1
   3  -2 -15   19.50    2.10  -1
  -3   4  14   19.50    2.10   2
   3  -2 -15   27.61    4.96  -1
  -3   4  14   27.61    4.96   2
   3  -2 -14   32.52    3.95   1
   3  -2 -14   73.02    4.64  -1
  -3   4  13   73.02    4.64   2
   3  -2 -13   80.15    2.92   1
   3  -2 -13   98.09    5.79   1
  -3   2  13   71.78    2.67   1
   3  -2 -12    0.63    0.84   1
   3  -2 -12   -0.77    1.22   1
  -3   2  12    0.54    0.77   1
   3  -2 -11    8.17    1.03   1
   3  -2 -11    7.69    2.12   1
  -3   2  11    7.79    0.79   1
   3  -2 -10  166.61    4.82   1
   3  -2 -10  194.31    8.47   1
  -3   2  10   13.48    1.05   1
   3  -2  -9   18.35    2.23   1
  -3   2   9   14.13    0.51   1
  -3   2   9   16.00    1.92   1
   3  -2  -9   30.35    1.36  -1
  -3   2   9   30.35    1.36   2
   3  -2  -8  261.89   11.64  -1
  -3   2   8  261.89   11.64   2
   3  -2  -7   19.12    1.81   1
   3  -2  -7   19.42    1.82   1
   3  -2  -6   12.82    1.49   1
   3  -2  -6   12.58    1.49   1
   3  -2  -5   12.12    1.34   1
   3  -2  -5   14.34    1.79   1
  -3   2   5    9.43    0.39   1
  -3   2   5   11.96    0.48   1
   3  -2  -4   23.55    1.45   1
   3  -2  -4   22.19    1.38   1
  -3   2   4    8.90    0.46   1
  -3   2   4   22.88    0.98   1
   3  -2  -3   41.84    1.97   1
   3  -2  -3   41.72    2.06   1
  -3   2   3   38.24    1.89   1
  -3   2   3   39.16    1.73   1
   3  -2  -2   57.36    2.27   1
   3  -2  -2   54.75    1.90   1
  -3   2   2   48.52    2.23   1
  -3   2   2   56.68    2.61   1
   3  -2  -1  144.61    6.41  -1
  -3   0   2  144.61    6.41   2
   3  -2  -1  154.81    5.61  -1
  -3   0   2  154.81    5.61   2
  -3   2   1  145.26    6.78  -1
   3   0  -2  145.26    6.78   2
  -3   2   1  153.79    5.56  -1
   3   0  -2  153.79    5.56   2
   3  -2   0   35.52    2.41   1
   3  -2   0   37.77    1.87   1
  -3   2   0   33.27    2.72   1
  -3   2   0   35.15    1.85   1
   3  -2   1   35.61    2.51   1
   3  -2   1   34.87    1.94   1
  -3   2  -1   39.55    3.13   1
  -3   2  -1   37.18    2.18   1
   3  -2   2   54.63    2.43   1
   3  -2   2   61.09    2.93   1
  -3   2  -2   60.59    4.02   1
  -3   2  -2   60.12    3.32   1
   3  -2   3  168.05    7.21   1
   3  -2   3  168.70    6.42   1
  -3   2  -3  167.43    6.48   1
  -3   2  -3  171.05    5.85   1
   3  -2   4   55.05    3.56   1
   3  -2   4   56.87    3.14   1
  -3   2  -4   56.05    4.52   1
  -3   2  -4   59.13    3.73   1
  -3   2  -5    2.78    1.59   1
   3  -2   5   13.31    3.60  -1
  -3  -2  -3   13.31    3.60   2
  -3   2  -5   19.91    3.68  -1
   3   2   3   19.91    3.68   2
  -3   2  -6   76.09    6.95  -1
   3   2   4   76.09    6.95   2
  -3   2  -6   86.11    5.97  -1
   3   2   4   86.11    5.97   2
  -3   2  -7   30.60    3.93   1
  -3   2  -7   25.63    3.40   1
  -3   2  -8   35.16    2.88   1
  -3   2  -8   37.77    3.98   1
  -3   2  -9   39.76    4.53   1
  -3   2  -9   46.13    3.06   1
  -3   2 -10    8.39    2.21   1
  -3   2 -10    7.27    2.11   1
  -3   2 -11   63.42    5.68   1
  -3   2 -11   60.36    3.88   1
  -3   2 -12   35.96    5.93  -1
   3   4   9   35.96    5.93   2
  -3   2 -12   42.93    6.77  -1
   3   4   9   42.93    6.77   2
  -3   2 -13    3.13    4.93  -1
   3   4  10    3.13    4.93   2
  -3   2 -13    2.99    4.27  -1
   3   4  10    2.99    4.27   2
  -3   2 -14    6.36    3.72   1
  -3   2 -14   -1.50    3.40   1
  -3   2 -15   73.04    7.33   1
  -3   2 -15   74.98    7.00   1
  -3   2 -16    9.36    4.02   1
  -3   2 -16    1.70    3.85   1
  -3   2 -17   -2.16    2.14   1
  -3   2 -17    3.24    3.61   1
  -3   2 -18    5.02    3.87   1
  -3   2 -18    2.50    2.42   1
   3  -1 -19   -2.67    1.93   1
   3  -1 -18    1.18    2.92   1
   3  -1 -17    1.24    1.83   1
   3  -1 -16   16.40    5.26  -1
  -3   5  14   16.40    5.26   2
   3  -1 -15   26.24    3.57   1
   3  -1 -15   32.57    2.98  -1
  -3   5  13   32.57    2.98   2
   3  -1 -14    2.29    1.27   1
   3  -1 -14    0.38    1.52   1
  -3   1  14   -0.16    0.73   1
   3  -1 -13   22.74    1.45   1
   3  -1 -13   29.82    3.46   1
  -3   1  13   22.25    1.32   1
   3  -1 -12   12.85    1.31   1
   3  -1 -12   14.11    2.65   1
  -3   1  12   13.61    1.20   1
   3  -1 -11   10.66    1.12   1
  -3   1  11    8.45    0.95   1
   3  -1 -10  138.73    4.11   1
   3  -1 -10  139.53    4.32   1
   3  -1 -10  153.29    7.08   1
   3  -1  -9   31.35    1.44  -1
  -3   3   8   31.35    1.44   2
   3  -1  -9   27.99    1.45  -1
  -3   3   8   27.99    1.45   2
   3  -1  -9   27.75    4.04  -1
  -3   3   8   27.75    4.04   2
   3  -1  -8   34.80    0.95   1
   3  -1  -8   31.29    0.89   1
   3  -1  -8   35.18    2.61   1
   3  -1  -8   39.78    2.86   1
   3  -1  -7   21.43    2.13   1
   3  -1  -7   26.79    2.38   1
   3  -1  -6   71.50    3.45   1
   3  -1  -6   69.68    2.63   1
   3  -1  -5   18.41    1.87   1
  -3   1   5   17.21    1.37   1
   3  -1  -4  144.03    3.66   1
   3  -1  -4  142.76    5.43   1
  -3   1   4  149.80    3.91   1
  -3   1   4  135.73    5.52   1
   3  -1  -3   70.73    2.15   1
   3  -1  -3   73.48    3.18   1
  -3   1   3   70.18    2.73   1
  -3   1   3   70.77    3.49   1
   3  -1  -2   61.36    3.02  -1
  -3   1   2   61.36    3.02   2
   3  -1  -2   63.60    3.62  -1
  -3   1   2   63.60    3.62   2
  -3   1   2   64.45    3.21  -1
   3  -1  -2   64.45    3.21   2
  -3   1   2   61.54    3.85  -1
   3  -1  -2   61.54    3.85   2
   3  -1  -1  111.96    4.12   1
   3  -1  -1  109.77    4.48   1
  -3   1   1  108.29    4.44   1
  -3   1   1   95.81    4.37   1
   3  -1   0  172.23    6.31   1
   3  -1   0  168.85    6.40   1
  -3   1   0  168.27    6.86   1
  -3   1   0  165.27    6.49   1
   3  -1   1    2.99    1.04   1
   3  -1   1    4.80    1.49   1
  -3   1  -1    4.50    2.13   1
  -3   1  -1    1.48    1.76   1
   3  -1   2  700.21   30.79   1
   3  -1   2  691.62   30.39   1
  -3   1  -2  672.25   28.81   1
  -3   1  -2  698.01   31.04   1
   3  -1   3   -1.71    1.65   1
   3  -1   3    1.29    1.45   1
  -3   1  -3   -0.54    1.43   1
  -3   1  -3   -1.84    1.83   1
   3  -1   4    0.61    1.10   1
   3  -1   4    0.47    1.57   1
  -3   1  -4    1.90    2.53   1
  -3   1  -4    1.31    2.16   1
   3  -1   5  156.72    7.68  -1
  -3  -1  -4  156.72    7.68   2
  -3   1  -5  177.89    9.49  -1
   3   1   4  177.89    9.49   2
  -3   1  -5  168.52    8.86  -1
   3   1   4  168.52    8.86   2
  -3   1  -6  176.80    7.70   1
  -3   1  -6  179.78    9.12   1
  -3   1  -7  107.13    5.21   1
  -3   1  -7  111.29    4.94   1
  -3   1  -8   31.65    2.81   1
  -3   1  -8   31.56    3.96   1
  -3   1  -9   40.87    4.92   1
  -3   1  -9   38.32    2.76   1
  -3   1 -10  141.73    8.70   1
  -3   1 -10  124.04    5.79   1
  -3   1 -11    8.73    2.29   1
  -3   1 -11    7.01    3.41   1
  -3   1 -12   14.83    4.22  -1
   3   3  10   14.83    4.22   2
  -3   1 -12   18.48    4.55  -1
   3   3  10   18.48    4.55   2
  -3   1 -13   11.83    3.97   1
  -3   1 -13   28.74    5.63  -1
   3   3  11   28.74    5.63   2
  -3   1 -14   25.78    3.09   1
  -3   1 -14   26.40    4.68   1
  -3   1 -15    9.73    4.04   1
  -3   1 -15    7.51    3.98   1
  -3   1 -16    2.27    3.71   1
  -3   1 -16    4.49    2.31   1
  -3   1 -17    1.15    2.28   1
  -3   1 -17    3.55    2.21   1
  -3   1 -18   -2.47    2.25   1
  -3   1 -18   12.74    7.07  -1
   3   5  15   12.74    7.07   2
   3   0 -19    5.30    3.47   1
   3   0 -18    2.40    1.88   1
   3   0 -17   20.04    4.02   1
   3   0 -16   10.77    2.69  -1
  -3   6  13   10.77    2.69   2
   3   0 -16   19.61    4.66  -1
  -3   6  13   19.61    4.66   2
   3   0 -15   17.43    2.45   1
   3   0 -15   19.41    2.40   1
   3   0 -13   -0.40    1.01   1
   3   0 -13    0.23    1.37   1
   3   0 -13   -4.10    2.40   1
   3   0 -12    1.97    0.88   1
   3   0 -12    3.45    1.09   1
   3   0 -12    3.29    2.45   1
   3   0 -11  122.54    4.63   1
   3   0 -11  134.31    5.17   1
   3   0 -11  159.95    7.93   1
   3   0 -10    9.90    1.27   1
   3   0 -10    8.23    1.24   1
   3   0 -10   11.34    1.64   1
   3   0  -9  206.66    7.75  -1
  -3   4   7  206.66    7.75   2
   3   0  -9  205.34    8.20  -1
  -3   4   7  205.34    8.20   2
   3   0  -9  210.73   10.98  -1
  -3   4   7  210.73   10.98   2
   3   0  -8   22.30    1.38   1
   3   0  -8   24.56    1.92   1
   3   0  -7   22.71    1.29   1
   3   0  -7   20.99    1.26   1
   3   0  -7   24.74    2.42   1
   3   0  -7   20.62    2.62   1
   3   0  -6   14.62    1.21   1
   3   0  -6   12.37    1.25   1
  -3   0   6   12.14    0.89   1
  -3   0   6   13.79    1.60   1
   3   0  -5   16.40    1.40   1
   3   0  -5   13.45    1.32   1
  -3   0   5   14.96    1.06   1
  -3   0   5   18.62    2.42   1
   3   0  -4   38.93    1.65   1
   3   0  -4   36.62    2.67   1
  -3   0   4   36.79    1.76   1
  -3   0   4   37.55    3.12   1
   3   0  -3   89.17    3.11   1
   3   0  -3   80.48    4.13   1
  -3   0   3   94.24    4.17   1
  -3   0   3   80.58    4.59   1
   3   0  -2  146.58    5.92  -1
  -3   2   1  146.58    5.92   2
   3   0  -2  157.56    7.12  -1
  -3   2   1  157.56    7.12   2
  -3   0   2  145.34    7.34  -1
   3  -2  -1  145.34    7.34   2
  -3   0   2  153.84    8.25  -1
   3  -2  -1  153.84    8.25   2
   3   0  -1   45.25    2.56   1
   3   0  -1   41.69    2.02   1
  -3   0   1   43.57    3.09   1
  -3   0   1   42.53    3.24   1
   3   0   0   26.76    2.27   1
   3   0   0   31.65    2.54   1
  -3   0   0   24.56    1.82   1
  -3   0   0   28.02    2.86   1
   3   0   1   42.79    2.15   1
   3   0   1   50.80    2.32   1
  -3   0  -1   49.36    3.63   1
  -3   0  -1   51.35    3.81   1
   3   0   2  157.42    5.60   1
   3   0   2  168.54    7.06   1
  -3   0  -2  177.59    7.89   1
  -3   0  -2  173.42    7.67   1
   3   0   3   80.24    3.24   1
   3   0   3   78.75    4.27   1
  -3   0  -3   85.33    5.19   1
  -3   0  -3   75.58    4.89   1
   3   0   4    9.49    1.37   1
   3   0   4    9.58    2.01   1
  -3   0  -4    9.13    1.88   1
  -3   0  -4   25.73    4.32  -1
   3   0   4   25.73    4.32   2
  -3   0  -5  109.04    6.94  -1
   3   0   5  109.04    6.94   2
  -3   0  -5  113.57    7.99  -1
   3   0   5  113.57    7.99   2
  -3   0  -6   55.53    4.85   1
  -3   0  -6   51.06    4.59   1
  -3   0  -7   37.11    4.37   1
  -3   0  -7   34.10    3.90   1
  -3   0  -8   71.34    5.75   1
  -3   0  -8   65.40    5.23   1
  -3   0  -9   11.44    3.49   1
  -3   0  -9   10.95    3.36   1
  -3   0 -10  140.41    8.70   1
  -3   0 -10  120.30    6.23   1
  -3   0 -11   45.65    5.16   1
  -3   0 -11   47.53    8.27  -1
   3   2  10   47.53    8.27   2
  -3   0 -12    6.06    3.98  -1
   3   2  11    6.06    3.98   2
  -3   0 -12   11.86    5.29  -1
   3   2  11   11.86    5.29   2
  -3   0 -13   18.58    2.80   1
  -3   0 -13    8.98    4.24   1
  -3   0 -14   77.85    4.88   1
  -3   0 -14   62.99    6.62   1
  -3   0 -15    2.31    3.64   1
  -3   0 -15    3.17    3.36   1
  -3   0 -16   -0.97    3.71   1
  -3   0 -16   -7.01    3.86   1
  -3   0 -17    6.38    2.59   1
  -3   0 -17   13.95    4.15   1
  -3   0 -18   -1.82    3.70  -1
   3   4  16   -1.82    3.70   2
  -3   0 -18    3.74    4.70  -1
   3   4  16    3.74    4.70   2
   3   1 -19   -0.90    3.04   1
   3   1 -18    4.72    3.39   1
   3   1 -17   11.29    3.58  -1
  -3   7  13   11.29    3.58   2
   3   1 -16   18.89    2.33   1
   3   1 -16   19.38    3.99   1
   3   1 -15    3.60    1.65   1
   3   1 -15   -1.32    2.93   1
   3   1 -14   10.76    1.64   1
   3   1 -14   20.87    2.02   1
   3   1 -14   22.97    3.65   1
   3   1 -13   10.61    1.95   1
   3   1 -13   13.15    1.65   1
   3   1 -13    9.10    3.41   1
   3   1 -12    1.94    1.60   1
   3   1 -12    5.72    1.94   1
   3   1 -12    9.46    2.91   1
   3   1 -11   83.62    4.41   1
   3   1 -11  101.51    4.78   1
   3   1 -11  104.11    6.04   1
   3   1 -10   20.22    2.32  -1
  -3   5   7   20.22    2.32   2
   3   1 -10   21.60    3.03  -1
  -3   5   7   21.60    3.03   2
   3   1 -10   22.75    4.12  -1
  -3   5   7   22.75    4.12   2
   3   1  -9   23.65    2.11   1
   3   1  -9   27.05    2.19   1
   3   1  -9   31.23    3.42   1
   3   1  -8   31.50    2.28   1
   3   1  -8   30.66    2.23   1
   3   1  -8   26.51    2.26   1
   3   1  -7   65.36    2.66   1
  -3  -1   7   64.49    2.24   1
  -3  -1   7   64.51    3.33   1
   3   1  -6   14.62    1.80   1
  -3  -1   6   14.61    1.43   1
  -3  -1   6   14.36    2.72   1
   3   1  -5  100.77    3.83   1
   3   1  -5   96.20    5.13   1
  -3  -1   5   99.59    4.01   1
  -3  -1   5  104.60    4.40   1
   3   1  -4   42.30    2.30   1
   3   1  -4   43.68    3.08   1
  -3  -1   4   39.44    2.37   1
  -3  -1   4   35.46    3.14   1
   3   1  -3   64.32    3.45  -1
  -3   3   1   64.32    3.45   2
   3   1  -3   63.49    4.28  -1
  -3   3   1   63.49    4.28   2
  -3  -1   3   63.80    4.66  -1
   3  -3  -1   63.80    4.66   2
  -3  -1   3   67.99    5.79  -1
   3  -3  -1   67.99    5.79   2
   3   1  -2   61.00    3.28   1
   3   1  -2   59.73    2.66   1
  -3  -1   2   56.47    2.53   1
  -3  -1   2   57.85    3.92   1
   3   1  -1  144.39    6.39   1
   3   1  -1  138.08    5.20   1
  -3  -1   1  145.69    6.56   1
  -3  -1   1  133.14    6.67   1
   3   1   0    4.11    1.84   1
   3   1   0    2.04    1.22   1
  -3  -1   0    1.18    2.38   1
  -3  -1   0    7.24    2.25   1
   3   1   1  426.33   18.04   1
   3   1   1  439.27   19.32   1
  -3  -1  -1  450.60   19.18   1
  -3  -1  -1  457.41   19.88   1
   3   1   2    1.71    1.71   1
   3   1   2    3.21    1.81   1
  -3  -1  -2   -0.78    1.49   1
  -3  -1  -2   -1.19    2.37   1
   3   1   3    1.51    1.15   1
   3   1   3   -0.73    1.14   1
  -3  -1  -3    0.95    1.47   1
  -3  -1  -3    2.96    1.32   1
  -3  -1  -4  171.73    9.15  -1
   3  -1   5  171.73    9.15   2
  -3  -1  -4  179.08   10.12  -1
   3  -1   5  179.08   10.12   2
  -3  -1  -5  183.28    7.78   1
  -3  -1  -5  352.48   20.33  -1
   3  -1   6  352.48   20.33   2
  -3  -1  -6   92.31    4.48   1
  -3  -1  -6  112.68    6.65   1
  -3  -1  -7   35.69    4.17   1
  -3  -1  -7   44.62    4.29   1
  -3  -1  -8   32.69    4.19   1
  -3  -1  -8   32.16    2.69   1
  -3  -1  -9  205.65   11.18   1
  -3  -1  -9  206.47   11.25   1
  -3  -1 -10   10.67    2.33   1
  -3  -1 -10   32.21    6.21  -1
   3   1  10   32.21    6.21   2
  -3  -1 -11   22.87    4.30  -1
   3   1  11   22.87    4.30   2
  -3  -1 -11   21.61    5.07  -1
   3   1  11   21.61    5.07   2
  -3  -1 -12    8.55    2.28   1
  -3  -1 -12   17.99    4.64  -1
   3   1  12   17.99    4.64   2
  -3  -1 -13   17.21    3.95   1
  -3  -1 -13   18.28    2.64   1
  -3  -1 -14   13.00    4.06   1
  -3  -1 -14    9.21    2.46   1
  -3  -1 -15    8.59    3.67   1
  -3  -1 -15    4.08    3.88   1
  -3  -1 -16   -0.07    3.21   1
  -3  -1 -16   10.80    6.45  -1
   3   3  15   10.80    6.45   2
  -3  -1 -17    3.02    3.86   1
  -3  -1 -17    4.96    4.13  -1
   3   3  16    4.96    4.13   2
  -3  -1 -18   -0.02    3.90  -1
   3   3  17   -0.02    3.90   2
  -3  -1 -18   11.67    4.66  -1
   3   3  17   11.67    4.66   2
   3   2 -19    7.22    3.70   1
   3   2 -18   12.83    3.98   1
   3   2 -17   11.88    2.84  -1
  -3   8  12   11.88    2.84   2
   3   2 -17    4.72    4.94  -1
  -3   8  12    4.72    4.94   2
   3   2 -16    6.97    2.10   1
   3   2 -16    5.61    2.17   1
   3   2 -15   41.54    3.41   1
   3   2 -15   45.55    3.62   1
   3   2 -14    0.81    1.77   1
   3   2 -14    3.18    2.01   1
   3   2 -13    4.09    1.68   1
   3   2 -13    1.37    1.74   1
   3   2 -12   79.09    4.27   1
   3   2 -12   82.35    4.53   1
   3   2 -11    5.19    1.60   1
   3   2 -11    8.70    1.62   1
   3   2 -11    4.59    1.83   1
   3   2 -10  109.78    6.39  -1
  -3   6   6  109.78    6.39   2
   3   2 -10  116.67    6.52  -1
  -3   6   6  116.67    6.52   2
   3   2 -10  132.29    9.79  -1
  -3   6   6  132.29    9.79   2
   3   2  -9   22.05    2.01   1
   3   2  -9   25.92    2.25   1
   3   2  -9   25.69    3.51   1
   3   2  -7    6.56    1.43   1
  -3  -2   7    7.01    1.56   1
  -3  -2   7    4.53    1.78   1
   3   2  -6    9.60    1.56   1
  -3  -2   6    8.86    1.81   1
  -3  -2   6    3.89    2.71   1
   3   2  -5   24.39    1.47   1
  -3  -2   5   24.94    2.34   1
  -3  -2   5   26.31    2.26   1
   3   2  -4   87.48    3.36   1
  -3  -2   4   82.48    4.64   1
  -3  -2   4   96.29    4.40   1
   3   2  -3  104.95    6.00  -1
  -3   4   0  104.95    6.00   2
  -3  -2   3  110.22    7.61  -1
   3  -4   0  110.22    7.61   2
  -3  -2   3  121.76    9.41  -1
   3  -4   0  121.76    9.41   2
   3   2  -2   38.24    2.95   1
   3   2  -2   35.37    2.12   1
  -3  -2   2   37.38    3.44   1
  -3  -2   2   39.44    2.49   1
   3   2  -1   18.93    2.64   1
   3   2  -1   14.93    2.46   1
  -3  -2   1   19.94    1.86   1
  -3  -2   1   13.21    2.88   1
   3   2   0   27.54    2.90   1
   3   2   0   23.31    1.92   1
  -3  -2   0   22.02    2.26   1
  -3  -2   0   23.94    2.20   1
   3   2   1  101.26    4.46   1
  -3  -2  -1  109.89    6.86   1
  -3  -2  -1  104.21    6.08   1
  -3  -2  -2   54.73    3.11   1
  -3  -2  -2   60.58    4.65   1
  -3  -2  -3   14.08    3.30   1
  -3  -2  -3   17.46    4.79  -1
   3  -2   5   17.46    4.79   2
  -3  -2  -4   73.25    4.70  -1
   3  -2   6   73.25    4.70   2
  -3  -2  -4   78.23    6.74  -1
   3  -2   6   78.23    6.74   2
  -3  -2  -5   34.88    2.82   1
  -3  -2  -5   35.32    4.07   1
  -3  -2  -6   20.79    3.70   1
  -3  -2  -6   20.09    2.36   1
  -3  -2  -7   71.24    4.11   1
  -3  -2  -7   71.03    4.11   1
  -3  -2  -8   11.11    3.74   1
  -3  -2  -8   10.68    2.10   1
  -3  -2  -9  168.52    9.98   1
  -3  -2  -9  165.40   10.09   1
  -3  -2 -10   24.49    2.79   1
  -3  -2 -10   40.29    5.31  -1
   3   0  11   40.29    5.31   2
  -3  -2 -11   -1.16    2.28  -1
   3   0  12   -1.16    2.28   2
  -3  -2 -11    0.58    4.57  -1
   3   0  12    0.58    4.57   2
  -3  -2 -12   10.99    2.38   1
  -3  -2 -12   16.91    6.56  -1
   3   0  13   16.91    6.56   2
  -3  -2 -13   47.91    5.48   1
  -3  -2 -13   41.12    5.44   1
  -3  -2 -14    6.47    4.13   1
  -3  -2 -14   17.75    4.36   1
  -3  -2 -15    0.45    3.30   1
  -3  -2 -15    1.34    3.69   1
  -3  -2 -16    4.21    2.23   1
  -3  -2 -16    8.40    2.71   1
  -3  -2 -17    2.26    3.64  -1
   3   2  17    2.26    3.64   2
  -3  -2 -17   -3.90    3.89  -1
   3   2  17   -3.90    3.89   2
   3   3 -17   14.22    2.81   1
   3   3 -17   14.77    4.11   1
   3   3 -16    3.37    2.31   1
   3   3 -16    3.51    2.15   1
   3   3 -15   12.86    2.51   1
   3   3 -15   11.35    2.70   1
   3   3 -14    8.16    2.29   1
   3   3 -14   10.65    2.26   1
   3   3 -13    0.79    1.84   1
   3   3 -13    0.51    1.74   1
   3   3 -12   49.65    3.70   1
   3   3 -12   51.75    3.83   1
   3   3 -11   15.81    3.61  -1
  -3   7   6   15.81    3.61   2
   3   3 -11   17.54    3.46  -1
  -3   7   6   17.54    3.46   2
   3   3 -10   14.57    2.37   1
   3   3 -10   16.35    3.50   1
   3   3  -9   24.56    2.61   1
   3   3  -9   29.34    3.87   1
  -3  -3   8   49.54    3.55   1
  -3  -3   8   55.27    3.62   1
  -3  -3   7   10.54    2.37   1
  -3  -3   7   10.47    3.26   1
  -3  -3   6   55.50    2.91   1
  -3  -3   6   59.53    4.89   1
  -3  -3   5   19.66    2.91   1
  -3  -3   5   16.10    3.44   1
  -3  -3   4   74.62    6.14  -1
   3  -5   0   74.62    6.14   2
  -3  -3   4   80.08    7.22  -1
   3  -5   0   80.08    7.22   2
  -3  -3   3   26.84    3.28   1
  -3  -3   3   28.55    3.88   1
  -3  -3   2   80.04    5.49   1
  -3  -3   2   80.35    5.48   1
  -3  -3   1    4.28    2.48   1
  -3  -3   1    2.94    2.61   1
  -3  -3   0  182.20    9.84   1
  -3  -3   0  188.82    7.75   1
  -3  -3  -1   -0.32    2.75   1
  -3  -3  -1    2.38    1.52   1
  -3  -3  -2    1.00    1.63   1
  -3  -3  -2    1.31    1.63   1
  -3  -3  -3  133.46    8.68  -1
   3  -3   6  133.46    8.68   2
  -3  -3  -3  135.99    9.06  -1
   3  -3   6  135.99    9.06   2
  -3  -3  -4  113.74    7.48   1
  -3  -3  -4  109.35    7.38   1
  -3  -3  -5   69.87    4.01   1
  -3  -3  -5   71.71    5.55   1
  -3  -3  -6   41.86    4.42   1
  -3  -3  -6   37.49    2.99   1
  -3  -3  -7   18.70    3.99   1
  -3  -3  -7   19.55    2.49   1
  -3  -3  -8  181.73   10.64   1
  -3  -3  -8  182.91    8.88   1
  -3  -3  -9   12.61    2.30   1
  -3  -3  -9    8.24    3.68   1
  -3  -3 -10   21.46    4.40  -1
   3  -1  12   21.46    4.40   2
  -3  -3 -10   14.58    5.27  -1
   3  -1  12   14.58    5.27   2
  -3  -3 -11    5.07    3.64   1
  -3  -3 -11   25.82    6.10  -1
   3  -1  13   25.82    6.10   2
  -3  -3 -12    6.39    2.40   1
  -3  -3 -12    8.11    3.88   1
  -3  -3 -13    9.34    2.49   1
  -3  -3 -13    7.43    4.10   1
  -3  -3 -14   10.70    2.49   1
  -3  -3 -14    2.78    2.46   1
  -3  -3 -15    4.14    2.39   1
  -3  -3 -15    2.35    2.38   1
  -3  -3 -16    2.93    3.79   1
  -3  -3 -16   11.96    4.87  -1
   3   1  17   11.96    4.87   2
  -3  -3 -17    1.37    2.57  -1
   3   1  18    1.37    2.57   2
  -3  -3 -17    6.22    4.56  -1
   3   1  18    6.22    4.56   2
   3   4 -18    0.34    4.65  -1
  -3  10  11    0.34    4.65   2
   3   4 -17    0.82    2.27   1
   3   4 -17   -2.79    2.10   1
   3   4 -16   23.68    3.47   1
   3   4 -16   28.84    3.42   1
   3   4 -15    1.76    2.34   1
   3   4 -15   -0.12    1.98   1
   3   4 -14   -1.48    2.17   1
   3   4 -14   -3.07    2.03   1
   3   4 -13   37.38    3.60   1
   3   4 -13   43.06    3.54   1
   3   4 -12    5.75    2.25   1
   3   4 -12    5.20    2.21   1
   3   4 -11   50.30    4.08  -1
  -3   8   5   50.30    4.08   2
   3   4 -11   59.98    5.32  -1
  -3   8   5   59.98    5.32   2
   3   4 -10   18.69    2.80   1
   3   4 -10   20.15    4.05   1
  -3  -4   9    2.99    1.47   1
  -3  -4   9    3.19    2.10   1
  -3  -4   8    5.16    2.32   1
  -3  -4   8    5.51    2.19   1
  -3  -4   7   -0.47    2.27   1
  -3  -4   7   10.26    3.11   1
  -3  -4   6   11.81    1.86   1
  -3  -4   6   14.84    2.38   1
  -3  -4   5   61.45    5.00   1
  -3  -4   5   55.32    4.94   1
  -3  -4   4   68.51    7.44  -1
   3  -6   1   68.51    7.44   2
  -3  -4   4   66.82    8.32  -1
   3  -6   1   66.82    8.32   2
  -3  -4   3   27.13    3.84   1
  -3  -4   3   21.22    2.49   1
  -3  -4   2    7.66    1.76   1
  -3  -4   2   10.05    1.97   1
  -3  -4   1    9.88    3.53   1
  -3  -4   1    9.45    2.11   1
  -3  -4   0   39.05    3.45   1
  -3  -4   0   87.45    7.09   1
  -3  -4  -1   41.93    4.50   1
  -3  -4  -1   35.10    4.14   1
  -3  -4  -2   15.22    3.55   1
  -3  -4  -2   11.72    6.30  -1
   3  -4   6   11.72    6.30   2
  -3  -4  -3   51.55    7.61  -1
   3  -4   7   51.55    7.61   2
  -3  -4  -3   43.04    6.24  -1
   3  -4   7   43.04    6.24   2
  -3  -4  -4   21.66    4.00   1
  -3  -4  -4   21.45    3.78   1
  -3  -4  -5    4.18    3.17   1
  -3  -4  -5   27.74    6.77  -1
   3  -3   9   27.74    6.77   2
  -3  -4  -6   52.91    5.30   1
  -3  -4  -6   49.35    3.76   1
  -3  -4  -7    4.98    2.17   1
  -3  -4  -7    4.16    2.11   1
  -3  -4  -8  138.81    9.24   1
  -3  -4  -8  124.60    6.77   1
  -3  -4  -9   32.96    5.93  -1
   3  -2  12   32.96    5.93   2
  -3  -4  -9   32.89    6.69  -1
   3  -2  12   32.89    6.69   2
  -3  -4 -10   15.98    4.87  -1
   3  -2  13   15.98    4.87   2
  -3  -4 -10    5.35    5.01  -1
   3  -2  13    5.35    5.01   2
  -3  -4 -11    6.67    3.77   1
  -3  -4 -11    8.14    2.44   1
  -3  -4 -12   17.16    4.80   1
  -3  -4 -12   20.77    4.72   1
  -3  -4 -13   11.75    2.48   1
  -3  -4 -13    9.82    2.71   1
  -3  -4 -14    3.84    2.50   1
  -3  -4 -14    8.96    4.02   1
  -3  -4 -15    2.10    2.34   1
  -3  -4 -16    3.22    4.53  -1
   3   0  18    3.22    4.53   2
  -3  -4 -16    4.96    5.30  -1
   3   0  18    4.96    5.30   2
   3   5 -17    2.99    2.75   1
   3   5 -17    8.45    2.53   1
   3   5 -16   11.85    1.99   1
   3   5 -16    8.98    4.05   1
   3   5 -15   10.86    2.78   1
   3   5 -15    1.30    3.72   1
   3   5 -14   -0.69    2.32   1
   3   5 -14    3.40    3.31   1
   3   5 -13   19.84    3.46   1
   3   5 -13   29.40    4.85   1
   3   5 -12    8.01    4.62  -1
  -3   9   5    8.01    4.62   2
   3   5 -12   16.96    6.02  -1
  -3   9   5   16.96    6.02   2
   3   5 -11    5.82    1.65   1
   3   5 -11    3.17    3.63   1
   3   5 -10   19.53    3.46   1
   3   5 -10   17.76    4.27   1
  -3  -5   9   30.10    3.81   1
  -3  -5   9   32.98    3.22   1
  -3  -5   8    7.38    2.67   1
  -3  -5   8    7.39    3.71   1
  -3  -5   7   29.25    3.89   1
  -3  -5   7   34.44    4.80   1
  -3  -5   6   10.37    3.15   1
  -3  -5   6    5.08    2.27   1
  -3  -5   5   66.63    7.21  -1
   3  -7   1   66.63    7.21   2
  -3  -5   5   57.63    7.25  -1
   3  -7   1   57.63    7.25   2
  -3  -5   4   18.08    2.35   1
  -3  -5   4   14.45    2.52   1
  -3  -5   3   41.85    4.71   1
  -3  -5   3   37.42    4.87   1
  -3  -5   2    2.76    1.77   1
  -3  -5   2   36.99    7.22  -1
   3  -6   4   36.99    7.22   2
  -3  -5   1   60.05    5.60   1
  -3  -5   1   50.68    3.53   1
  -3  -5   0    0.51    2.82   1
  -3  -5   0   -1.81    2.84   1
  -3  -5  -1   -1.23    3.25   1
  -3  -5  -1    2.70    2.71   1
  -3  -5  -2   74.73    6.92  -1
   3  -5   7   74.73    6.92   2
  -3  -5  -2   61.58    4.70  -1
   3  -5   7   61.58    4.70   2
  -3  -5  -3   46.39    5.54   1
  -3  -5  -3   53.61    5.38   1
  -3  -5  -4   37.17    5.15   1
  -3  -5  -4   37.39    5.01   1
  -3  -5  -5   22.13    4.44   1
  -3  -5  -5   23.14    2.51   1
  -3  -5  -6    6.12    2.27   1
  -3  -5  -6    8.27    2.23   1
  -3  -5  -7  116.68    9.20   1
  -3  -5  -7  124.45    6.98   1
  -3  -5  -8   16.16    4.38   1
  -3  -5  -8   11.36    2.64   1
  -3  -5  -9   15.01    4.52  -1
   3  -3  13   15.01    4.52   2
  -3  -5  -9   10.58    3.28  -1
   3  -3  13   10.58    3.28   2
  -3  -5 -10    3.02    2.36   1
  -3  -5 -10   10.73    3.59   1
  -3  -5 -11    0.99    3.43   1
  -3  -5 -11   -2.63    2.08   1
  -3  -5 -12    3.51    4.27   1
  -3  -5 -12   11.11    4.03   1
  -3  -5 -13    1.00    2.10   1
  -3  -5 -13   -1.17    2.16   1
  -3  -5 -14    2.70    2.37   1
  -3  -5 -14    7.57    3.94   1
  -3  -5 -15    1.63    2.37   1
  -3  -5 -15   -0.80    5.73  -1
   3  -1  18   -0.80    5.73   2
   3   6 -16    6.58    3.09   1
   3   6 -16    3.78    3.85   1
   3   6 -15    0.01    2.83   1
   3   6 -15   -3.12    2.07   1
   3   6 -14   16.96    3.40   1
   3   6 -14   13.38    2.69   1
   3   6 -13    3.92    1.86   1
   3   6 -13   -1.47    2.15   1
   3   6 -12   29.72    6.13  -1
  -3  10   4   29.72    6.13   2
   3   6 -12   24.37    4.40  -1
  -3  10   4   24.37    4.40   2
   3   6 -11   13.60    3.44   1
   3   6 -11   11.93    2.63   1
   3   6 -10    4.51    1.78   1
   3   6 -10   12.06    2.42   1
  -3  -6   9    8.97    3.13   1
  -3  -6   9    7.18    4.09   1
  -3  -6   8    2.71    2.58   1
  -3  -6   8   -1.13    3.43   1
  -3  -6   7    3.91    3.03   1
  -3  -6   7    1.70    3.26   1
  -3  -6   6   32.69    4.87   1
  -3  -6   6   32.04    3.43   1
  -3  -6   5   34.09    4.35  -1
   3  -8   2   34.09    4.35   2
  -3  -6   5   26.82    7.66  -1
   3  -8   2   26.82    7.66   2
  -3  -6   4   10.41    2.58   1
  -3  -6   4   12.05    2.48   1
  -3  -6   3   10.78    3.85   1
  -3  -6   3    6.03    3.56   1
  -3  -6   2    1.21    3.62   1
  -3  -6   1   13.11    2.70   1
  -3  -6   1  166.68   15.18  -1
  -3  -6   2  166.68   15.18  -1
   3  -7   5  166.68   15.18   2
  -3  -6   0   13.84    2.50   1
  -3  -6   0   15.74    3.82   1
  -3  -6  -1    4.63    2.27   1
  -3  -6  -1    5.63    3.22   1
  -3  -6  -2   25.22    5.07  -1
   3  -6   8   25.22    5.07   2
  -3  -6  -2   19.17    7.07  -1
   3  -6   8   19.17    7.07   2
  -3  -6  -3    6.55    2.44   1
  -3  -6  -3   10.38    2.16   1
  -3  -6  -4   -2.44    3.20   1
  -3  -6  -4    0.68    1.90   1
  -3  -6  -5   24.35    5.01   1
  -3  -6  -5   31.42    4.70   1
  -3  -6  -6    7.43    2.45   1
  -3  -6  -6   26.99    7.15  -1
   3  -5  11   26.99    7.15   2
  -3  -6  -7   84.42    7.96   1
  -3  -6  -7   74.92    7.07   1
  -3  -6  -8    9.47    4.07   1
  -3  -6  -8   41.37    9.04  -1
   3  -4  13   41.37    9.04   2
  -3  -6  -9    8.69    7.03  -1
   3  -4  14    8.69    7.03   2
  -3  -6  -9    9.85    3.91  -1
   3  -4  14    9.85    3.91   2
  -3  -6 -10   11.16    2.44   1
  -3  -6 -10    7.85    2.83   1
  -3  -6 -12   14.95    4.51   1
  -3  -6 -12    5.14    2.58   1
  -3  -6 -13    0.04    2.49   1
  -3  -6 -13   10.81    3.60   1
  -3  -6 -14    2.59    3.82   1
  -3  -6 -14   -3.77    2.36   1
   3   7 -14    9.48    3.23   1
   3   7 -14    0.65    3.99   1
   3   7 -13    8.49    5.86  -1
  -3  11   4    8.49    5.86   2
   3   7 -13   17.89    6.89  -1
  -3  11   4   17.89    6.89   2
   3   7 -12   12.14    3.29   1
   3   7 -12   -2.10    4.06   1
   3   7 -11   13.49    2.35   1
   3   7 -11   13.51    4.24   1
  -3  -7  10    2.59    1.76   1
  -3  -7  10    0.51    2.34   1
  -3  -7   9   -3.29    3.14   1
  -3  -7   9   -0.85    3.82   1
  -3  -7   8   11.86    3.81   1
  -3  -7   8   12.67    4.51   1
  -3  -7   7    1.35    2.08   1
  -3  -7   7    0.51    3.55   1
  -3  -7   6   44.71    7.20  -1
   3  -9   2   44.71    7.20   2
  -3  -7   6   45.65    5.52  -1
   3  -9   2   45.65    5.52   2
  -3  -7   5    7.42    3.90   1
  -3  -7   5    1.88    3.95   1
  -3  -7   4   17.87    4.32   1
  -3  -7   4   17.32    3.95   1
  -3  -7   3    9.42    4.10   1
  -3  -7   2    2.43    3.78   1
  -3  -7   2   19.76    7.45  -1
  -3  -7   3   19.76    7.45  -1
   3  -8   5   19.76    7.45   2
  -3  -7   1    8.51    4.13   1
  -3  -7   1    3.99    3.43   1
  -3  -7   0    4.50    3.87   1
  -3  -7   0    7.75    3.65   1
  -3  -7  -1   34.54    6.11  -1
   3  -7   8   34.54    6.11   2
  -3  -7  -1   32.35    5.53  -1
   3  -7   8   32.35    5.53   2
  -3  -7  -2   15.32    4.76   1
  -3  -7  -2   18.88    4.19   1
  -3  -7  -3   19.61    4.61   1
  -3  -7  -3   14.57    4.26   1
  -3  -7  -4   20.51    3.29   1
  -3  -7  -4   30.30    7.78  -1
   3  -6  11   30.30    7.78   2
  -3  -7  -5    1.86    2.31   1
  -3  -7  -5    0.48    3.38   1
  -3  -7  -6   65.99    7.38   1
  -3  -7  -6   59.33    4.74   1
  -3  -7  -7   10.27    2.73   1
  -3  -7  -7    5.78    4.05   1
  -3  -7  -8   10.02    4.76  -1
   3  -5  14   10.02    4.76   2
  -3  -7  -8   10.40    5.21  -1
   3  -5  14   10.40    5.21   2
  -3  -7  -9    4.18    2.59   1
  -3  -7  -9   -0.39    3.51   1
  -3  -7 -10    3.13    3.83   1
  -3  -7 -10   -1.03    3.46   1
  -3  -7 -11    6.46    4.10   1
  -3  -7 -11    4.26    2.46   1
  -3  -7 -12    2.88    2.47   1
  -3  -7 -12    2.79    4.04   1
   3   8 -13    7.82    3.65  -1
  -3  12   3    7.82    3.65   2
   3   8 -13    6.77    6.31  -1
  -3  12   3    6.77    6.31   2
   3   8 -12    4.81    2.11   1
   3   8 -12    0.95    3.74   1
   3   8 -11   -0.26    3.09   1
   3   8 -11   -3.98    3.47   1
  -3  -8  10    2.42    2.20   1
  -3  -8  10    1.21    3.97  -1
   3 -11   0    1.21    3.97   2
  -3  -8   9   -2.06    3.27   1
  -3  -8   9   -0.42    4.01   1
  -3  -8   8   -3.59    3.38   1
  -3  -8   8   -4.14    3.85   1
  -3  -8   7   15.02    4.39   1
  -3  -8   7   22.24    4.88   1
  -3  -8   6   14.43    7.27  -1
   3 -10   3   14.43    7.27   2
  -3  -8   6   12.04    7.62  -1
   3 -10   3   12.04    7.62   2
  -3  -8   5    6.01    3.97   1
  -3  -8   5    9.99    2.63   1
  -3  -8   4   -0.06    3.71   1
  -3  -8   4    2.72    2.10   1
  -3  -8   3    2.27    4.17   1
  -3  -8   3   -4.54    3.75   1
  -3  -8   2    8.58    4.04   1
  -3  -8   2   -5.85    3.81   1
  -3  -8   1    9.25    4.50   1
  -3  -8   1   12.03    4.08   1
  -3  -8   0    2.15    4.02   1
  -3  -8   0    3.56    2.27   1
  -3  -8  -1   16.39    8.64  -1
   3  -8   9   16.39    8.64   2
  -3  -8  -1   13.69    4.25  -1
   3  -8   9   13.69    4.25   2
  -3  -8  -2    1.89    3.87   1
  -3  -8  -2   -0.65    3.16   1
  -3  -8  -3    5.26    2.55   1
  -3  -8  -3    6.01    3.57   1
  -3  -8  -4   18.62    4.71   1
  -3  -8  -4   11.58    4.22   1
  -3  -8  -5    1.13    3.92   1
  -3  -8  -5   13.43    6.41  -1
   3  -7  12   13.43    6.41   2
  -3  -8  -6   37.28    4.40   1
  -3  -8  -6   29.56    5.31   1
  -3  -8  -7   14.59    4.95   1
  -3  -8  -7   12.88    4.21   1
  -3  -8  -8    7.63    4.60  -1
   3  -6  15    7.63    4.60   2
  -3  -8  -8   -0.24    3.82  -1
   3  -6  15   -0.24    3.82   2
  -3  -8  -9    7.69    4.44   1
  -3  -8  -9    3.85    2.53   1
  -3  -8 -10    5.00    3.74   1
  -3  -8 -10   -1.46    3.51   1
  -3  -9  10    2.84    2.30   1
  -3  -9  10    0.09    2.38   1
  -3  -9   9   13.09    4.32   1
  -3  -9   9    3.02    4.69   1
  -3  -9   8   -2.48    3.42   1
  -3  -9   8    1.85    3.48   1
  -3  -9   7   19.76    6.20  -1
   3 -11   3   19.76    6.20   2
  -3  -9   7   16.12    7.26  -1
   3 -11   3   16.12    7.26   2
  -3  -9   6    4.05    4.02   1
  -3  -9   6    7.35    4.12   1
  -3  -9   5    8.64    4.29   1
  -3  -9   5   13.23    4.53   1
  -3  -9   4    3.01    2.68   1
  -3  -9   4    5.07    6.10  -1
   3 -10   6    5.07    6.10   2
  -3  -9   3    4.68    2.44   1
  -3  -9   3   -0.80    3.94   1
  -3  -9   2    1.08    2.64   1
  -3  -9   2    0.17    3.64   1
  -3  -9   1    4.02    4.33   1
  -3  -9   1    3.78    2.40   1
  -3  -9   0   24.60    6.10  -1
   3  -9   9   24.60    6.10   2
  -3  -9   0   10.06    3.87  -1
   3  -9   9   10.06    3.87   2
  -3  -9  -1    6.95    4.39   1
  -3  -9  -1    2.62    2.36   1
  -3  -9  -2    2.66    2.83   1
  -3  -9  -2    6.78    2.34   1
  -3  -9  -3   10.51    4.48   1
  -3  -9  -3   12.48    5.26  -1
   3  -8  12   12.48    5.26   2
  -3  -9  -4    3.35    4.14   1
  -3  -9  -4   -3.48    2.04   1
  -3  -9  -5   25.99    3.69   1
  -3  -9  -5   28.00    3.56   1
  -3  -9  -6    9.46    4.51   1
  -3  -9  -6    5.27    2.41   1
  -3  -9  -7    6.25    3.13  -1
   3  -7  15    6.25    3.13   2
  -3  -9  -7    7.48    4.37  -1
   3  -7  15    7.48    4.37   2
  -3  -9  -8   -2.19    4.26   1
  -3  -9  -8   -0.03    3.37   1
  -3 -10   6    5.16    2.69   1
  -3 -10   6    4.99    2.64   1
  -3 -10   5    0.11    3.83   1
  -3 -10   5   -1.58    2.33   1
  -3 -10   4   31.16    7.84  -1
   3 -11   7   31.16    7.84   2
  -3 -10   3    1.14    4.50   1
  -3 -10   3    4.60    2.26   1
  -3 -10   2    1.92    2.84   1
  -3 -10   2    5.46    2.51   1
  -3 -10   1    0.98    2.77   1
  -3 -10   1    0.78    2.32   1
  -3 -10   0    9.20    4.87   1
  -3 -10   0    7.59    2.64   1
  -3 -10  -1   -1.64    4.06   1
  -3 -10  -1    0.29    2.11   1
  -3 -10  -2    4.97    2.65   1
  -3 -10  -2    0.12    2.25   1
  -3 -10  -3    7.27    4.70   1
  -3 -10  -3    4.76    2.43   1
  -3 -10  -4   -3.09    4.21   1
  -3 -10  -4    0.03    2.12   1
  -4  12   1    0.97    1.76   1
  -4  12   0    2.45    3.33   1
   4 -11  -8    2.44    2.84   1
   4 -11  -7    7.22    3.35   1
   4 -11  -6    4.62    2.10   1
   4 -11  -5   -3.64    2.15   1
  -4  11   4    2.18    2.85   1
  -4  11   3   -0.20    1.62   1
  -4  11   2   10.85    5.03  -1
   4   7 -11   10.85    5.03   2
  -4  11   1    4.63    2.01   1
  -4  11   0    3.53    3.18   1
  -4  11  -1   -2.11    3.00   1
  -4  11  -2   14.43    2.77   1
  -4  11  -3    1.83    3.30   1
  -4  11  -4    3.73    3.60   1
  -4  11  -5    7.04    3.74  -1
   4   9  -5    7.04    3.74   2
  -4  11  -6    6.24    3.78   1
  -4  11  -7    2.67    3.59   1
   4 -10 -10   12.34    5.25  -1
  -4  -4  17   12.34    5.25   2
   4 -10  -9    1.77    2.26   1
   4 -10  -8    2.40    2.65   1
   4 -10  -7    5.95    2.98   1
   4 -10  -6    7.86    2.02   1
   4 -10  -5   -2.48    1.86   1
  -4  10   4    1.90    2.44   1
  -4  10   3    8.73    2.90  -1
   4   6 -11    8.73    2.90   2
  -4  10   2    3.91    2.74   1
  -4  10   1    2.94    2.81   1
  -4  10   0   11.06    2.24   1
  -4  10  -1    5.18    3.43   1
  -4  10  -2    9.96    3.95   1
  -4  10  -3    4.41    2.02   1
  -4  10  -4    3.93    5.22  -1
   4   8  -5    3.93    5.22   2
  -4  10  -5    3.74    3.26   1
  -4  10  -5    1.29    1.64   1
  -4  10  -6    5.39    2.30   1
  -4  10  -6    2.02    1.88   1
  -4  10  -7   -0.45    3.32   1
  -4  10  -7    0.03    1.68   1
  -4  10  -8    0.21    3.68   1
  -4  10  -8    1.86    2.03   1
  -4  10  -9    3.99    2.60   1
  -4  10  -9    3.40    2.14   1
  -4  10 -10   -1.37    3.40   1
  -4  10 -10    0.11    2.02   1
   4  -9 -10   20.47    3.87  -1
  -4  -3  16   20.47    3.87   2
   4  -9  -9    4.43    2.32   1
   4  -9  -8    0.28    2.09   1
   4  -9  -7   12.07    2.98   1
   4  -9  -6   -1.48    1.63   1
   4  -9  -5    1.56    1.55   1
  -4   9   4    3.23    2.38   1
  -4   9   3   26.94    4.53  -1
   4   5 -10   26.94    4.53   2
  -4   9   2   25.48    2.37   1
  -4   9   1    3.61    2.72   1
  -4   9   0   -0.47    3.08   1
  -4   9   0    4.89    1.32   1
  -4   9  -1   34.74    3.21   1
  -4   9  -1   28.69    2.47   1
  -4   9  -2   -2.96    2.94   1
  -4   9  -2    3.21    1.25   1
  -4   9  -3   10.38    3.66   1
  -4   9  -3    7.41    1.59   1
  -4   9  -4   24.02    4.96  -1
   4   7  -4   24.02    4.96   2
  -4   9  -4   11.24    2.89  -1
   4   7  -4   11.24    2.89   2
  -4   9  -5    6.94    2.04   1
  -4   9  -5    0.57    1.64   1
  -4   9  -6   -0.26    1.64   1
  -4   9  -7    7.90    3.50   1
  -4   9  -7    0.29    1.94   1
  -4   9  -8    0.89    2.40   1
  -4   9  -8    2.95    1.25   1
  -4   9  -9   -3.30    3.57   1
  -4   9  -9    3.50    2.14   1
  -4   9 -10   13.84    4.10   1
  -4   9 -10    7.32    2.73   1
  -4   9 -11   16.54    4.25  -1
   4   9   2   16.54    4.25   2
  -4   9 -11   11.60    4.13  -1
   4   9   2   11.60    4.13   2
  -4   9 -12   11.03    3.41   1
  -4   9 -12   -1.96    2.63   1
   4  -8 -11   26.86    4.53  -1
  -4  -2  16   26.86    4.53   2
   4  -8 -10    5.35    2.09   1
   4  -8  -9    3.93    1.88   1
   4  -8  -8    9.88    2.34   1
   4  -8  -7    1.82    1.99   1
   4  -8  -6    9.81    1.76   1
  -4   8   5    2.83    1.29   1
  -4   8   4   16.48    4.31  -1
   4   4 -10   16.48    4.31   2
  -4   8   3    3.09    2.13   1
  -4   8   2    6.41    2.31   1
  -4   8   2    1.95    0.43   1
  -4   8   2    1.98    0.44   1
  -4   8   1   12.09    2.89   1
  -4   8   1    4.10    0.64   1
  -4   8   1   12.36    1.05   1
  -4   8   0   14.37    2.08   1
  -4   8   0   13.28    1.50   1
  -4   8   0   14.88    1.12   1
  -4   8  -1   27.16    3.95   1
  -4   8  -1   25.26    1.62   1
  -4   8  -1   26.62    2.10   1
  -4   8  -2    2.97    2.96   1
  -4   8  -2    2.95    1.12   1
  -4   8  -2    1.72    1.44   1
  -4   8  -3   10.40    3.92  -1
   4   6  -4   10.40    3.92   2
  -4   8  -3    7.71    2.36  -1
   4   6  -4    7.71    2.36   2
  -4   8  -3    9.19    2.66  -1
   4   6  -4    9.19    2.66   2
  -4   8  -4    0.63    1.94   1
  -4   8  -4    3.01    1.53   1
  -4   8  -5    9.53    3.35   1
  -4   8  -5    7.00    1.83   1
  -4   8  -6    3.37    3.61   1
  -4   8  -6    5.29    1.93   1
  -4   8  -7    4.45    3.95   1
  -4   8  -7    9.53    2.36   1
  -4   8  -8   11.28    2.48   1
  -4   8  -8   12.02    2.68   1
  -4   8  -9    9.08    3.80   1
  -4   8  -9    8.86    2.73   1
  -4   8 -10   24.09    5.28  -1
   4   8   2   24.09    5.28   2
  -4   8 -10   14.79    3.96  -1
   4   8   2   14.79    3.96   2
  -4   8 -11   10.97    2.34   1
  -4   8 -11    5.84    1.91   1
  -4   8 -12    5.46    3.46   1
  -4   8 -12    2.63    2.86   1
  -4   8 -13   26.45    5.06   1
  -4   8 -13   19.91    3.73   1
   4  -7 -11   32.74    3.10  -1
  -4  -1  15   32.74    3.10   2
   4  -7 -10    0.99    1.45   1
   4  -7 -10    0.09    0.98   1
   4  -7  -9   -2.14    1.55   1
   4  -7  -9    0.32    0.79   1
   4  -7  -8   17.30    2.20   1
   4  -7  -8   11.33    1.16   1
   4  -7  -7    0.69    1.77   1
   4  -7  -7    1.10    0.54   1
  -4   7   7    1.37    0.40   1
   4  -7  -6   14.12    1.69   1
  -4   7   5    8.86    2.13   1
  -4   7   4   73.38    5.63  -1
   4   3  -9   73.38    5.63   2
  -4   7   3   51.82    3.61   1
  -4   7   2   13.59    2.77   1
  -4   7   1   10.10    1.72   1
  -4   7   1    6.49    0.64   1
  -4   7   1    7.65    0.66   1
  -4   7   0   99.96    4.69   1
  -4   7   0   87.39    3.31   1
  -4   7   0   95.90    3.50   1
  -4   7  -1    0.67    2.41   1
  -4   7  -1    1.18    0.85   1
  -4   7  -1    3.22    0.95   1
  -4   7  -2   23.66    3.54   1
  -4   7  -2   17.77    1.47   1
  -4   7  -2   25.81    1.84   1
  -4   7  -3   22.54    5.10  -1
   4   5  -3   22.54    5.10   2
  -4   7  -3   18.92    2.49  -1
   4   5  -3   18.92    2.49   2
  -4   7  -3   21.54    2.83  -1
   4   5  -3   21.54    2.83   2
  -4   7  -4    0.22    1.66   1
  -4   7  -4   -2.28    1.53   1
  -4   7  -5    3.90    1.90   1
  -4   7  -5    1.00    1.80   1
  -4   7  -6   10.16    3.43   1
  -4   7  -6    7.28    2.13   1
  -4   7  -7    9.28    3.61   1
  -4   7  -7   12.65    2.55   1
  -4   7  -8    0.14    1.74   1
  -4   7  -8    0.48    1.22   1
  -4   7  -9   16.47    4.27   1
  -4   7  -9   19.24    3.35   1
  -4   7 -10   11.57    6.63  -1
   4   7   3   11.57    6.63   2
  -4   7 -10   21.14    5.13  -1
   4   7   3   21.14    5.13   2
  -4   7 -11   11.85    2.69   1
  -4   7 -11   12.20    2.04   1
  -4   7 -12   12.91    4.15   1
  -4   7 -12   17.92    3.53   1
  -4   7 -13   -0.22    3.32   1
  -4   7 -13    1.21    2.80   1
  -4   7 -14    6.24    2.21   1
  -4   7 -14    0.60    2.98   1
  -4   7 -15   -1.06    3.57   1
  -4   7 -15    1.95    1.78   1
   4  -6 -15   -0.92    1.93   1
   4  -6 -14    3.67    1.89   1
   4  -6 -13   11.45    2.04   1
   4  -6 -12   52.45    3.97  -1
  -4   0  15   52.45    3.97   2
   4  -6 -12   61.07    5.27  -1
  -4   0  15   61.07    5.27   2
   4  -6 -11    9.08    1.42   1
   4  -6 -11   10.62    2.03   1
   4  -6 -10    4.50    1.41   1
   4  -6 -10    7.37    1.60   1
  -4   6  10    3.75    1.13   1
  -4   6  10    3.96    1.13   1
   4  -6  -9    7.26    1.97   1
   4  -6  -9    9.86    1.12   1
  -4   6   9    6.60    1.28   1
  -4   6   9    7.97    1.34   1
   4  -6  -8    2.04    1.27   1
   4  -6  -8    2.35    0.74   1
  -4   6   8   -0.23    1.10   1
  -4   6   8    2.39    0.90   1
   4  -6  -7   12.73    1.31   1
   4  -6  -7   16.41    0.91   1
  -4   6   7   13.95    1.63   1
   4  -6  -6    3.43    0.30   1
  -4   6   6    4.02    1.35   1
  -4   6   6    6.38    1.43   1
  -4   6   5   18.00    3.16  -1
   4   2  -9   18.00    3.16   2
  -4   6   4    4.67    1.76   1
  -4   6   3    8.24    2.05   1
  -4   6   2   27.70    2.73   1
  -4   6   1   33.33    3.12   1
  -4   6   1   24.73    0.70   1
  -4   6   0   73.45    4.66   1
  -4   6   0   60.95    2.06   1
  -4   6   0   69.06    2.51   1
  -4   6  -1    5.56    2.44   1
  -4   6  -1    6.73    1.10   1
  -4   6  -1    7.17    1.30   1
  -4   6  -2    8.84    2.36  -1
   4   4  -3    8.84    2.36   2
  -4   6  -2    5.72    1.03  -1
   4   4  -3    5.72    1.03   2
  -4   6  -2   16.77    2.38  -1
   4   4  -3   16.77    2.38   2
   4  -6   3    3.13    1.13   1
  -4   6  -3    2.67    1.77   1
  -4   6  -3    2.84    1.36   1
   4  -6   4    3.58    1.41   1
  -4   6  -4    6.04    2.72   1
  -4   6  -4    7.32    1.70   1
  -4   6  -5    7.45    3.16   1
  -4   6  -5   10.87    1.92   1
  -4   6  -6   10.40    2.02   1
  -4   6  -6   16.80    2.43   1
  -4   6  -7   20.42    2.50   1
  -4   6  -7   21.66    2.96   1
  -4   6  -8    7.68    3.59   1
  -4   6  -8    9.78    2.50   1
  -4   6  -9   40.56    4.11  -1
   4   6   3   40.56    4.11   2
  -4   6  -9   32.64    4.75  -1
   4   6   3   32.64    4.75   2
  -4   6 -10    9.28    3.71   1
  -4   6 -10    9.33    2.94   1
  -4   6 -11    4.66    3.69   1
  -4   6 -11    6.21    1.76   1
  -4   6 -12   68.56    4.96   1
  -4   6 -12   67.78    4.32   1
  -4   6 -13    0.80    3.31   1
  -4   6 -13    0.56    2.77   1
  -4   6 -14    1.38    3.66   1
  -4   6 -14    2.54    3.08   1
  -4   6 -15    4.29    2.42   1
  -4   6 -15    4.24    2.07   1
   4  -5 -17    5.77    2.61   1
   4  -5 -16    0.96    2.21   1
   4  -5 -15    3.19    2.35   1
   4  -5 -14   24.46    2.92   1
   4  -5 -13   33.56    3.19   1
   4  -5 -12   40.62    2.65  -1
  -4   1  14   40.62    2.65   2
   4  -5 -12   61.14    4.38  -1
  -4   1  14   61.14    4.38   2
   4  -5 -11    5.07    0.89   1
   4  -5 -11    8.12    1.64   1
  -4   5  11    4.17    0.78   1
   4  -5 -10    0.43    1.03   1
   4  -5 -10   -0.42    1.19   1
  -4   5  10    0.07    0.94   1
  -4   5  10   -0.88    0.99   1
   4  -5  -9   14.83    1.53   1
   4  -5  -9   15.79    1.84   1
  -4   5   9    9.82    1.33   1
  -4   5   9   10.77    1.56   1
   4  -5  -8   -1.26    0.56   1
   4  -5  -8   -0.73    0.49   1
   4  -5  -8    0.49    1.02   1
  -4   5   8    0.13    1.09   1
   4  -5  -7   43.58    1.91   1
   4  -5  -7   43.34    1.62   1
  -4   5   7   39.25    2.46   1
  -4   5   7   41.37    2.32   1
   4  -5  -6   22.17    0.87   1
   4  -5  -6   22.58    0.83   1
  -4   5   6   22.38    1.62   1
  -4   5   6   26.38    1.74   1
  -4   5   5  128.62    6.30  -1
   4   1  -8  128.62    6.30   2
  -4   5   5  143.70    6.57  -1
   4   1  -8  143.70    6.57   2
  -4   5   4   80.55    3.64   1
  -4   5   4   81.80    3.78   1
  -4   5   3   25.25    2.07   1
  -4   5   3   29.24    2.37   1
  -4   5   2    8.08    1.62   1
  -4   5   2    6.40    1.86   1
  -4   5   1  225.69    9.91   1
  -4   5   1  146.65    4.00   1
  -4   5   1  220.04    5.87   1
   4  -5   0    2.04    0.68   1
  -4   5   0    1.89    1.94   1
  -4   5   0    1.68    0.87   1
   4  -5   1   48.93    2.33   1
  -4   5  -1   56.97    4.09   1
  -4   5  -1   52.23    2.21   1
   4  -5   2   29.78    2.68  -1
  -4  -3   2   29.78    2.68   2
  -4   5  -2   22.13    3.85  -1
   4   3  -2   22.13    3.85   2
  -4   5  -2   29.35    2.57  -1
   4   3  -2   29.35    2.57   2
   4  -5   3    0.77    1.08   1
  -4   5  -3    0.45    1.34   1
  -4   5  -3   -0.89    1.28   1
   4  -5   4    4.10    1.49   1
  -4   5  -4    3.59    2.65   1
  -4   5  -4    8.41    1.72   1
  -4   5  -5    1.75    3.07   1
  -4   5  -5   11.82    2.04   1
  -4   5  -6   25.24    2.43   1
  -4   5  -6   20.52    1.85   1
  -4   5  -7   -1.34    2.78   1
  -4   5  -7   -0.92    1.31   1
  -4   5  -8   40.11    2.82   1
  -4   5  -8   64.75    7.99  -1
   4   5   3   64.75    7.99   2
  -4   5  -9   42.76    6.55  -1
   4   5   4   42.76    6.55   2
  -4   5  -9   27.45    3.49  -1
   4   5   4   27.45    3.49   2
  -4   5 -10   15.56    4.01   1
  -4   5 -10   12.02    2.08   1
  -4   5 -11   33.40    3.40   1
  -4   5 -11   32.79    2.89   1
  -4   5 -12    8.69    4.04   1
  -4   5 -12   10.46    3.38   1
  -4   5 -13   -0.62    1.99   1
  -4   5 -13    3.18    2.79   1
  -4   5 -14   -0.15    3.67   1
  -4   5 -14    3.03    3.12   1
  -4   5 -15    1.78    1.91   1
  -4   5 -15    2.36    5.12  -1
   4   7   9    2.36    5.12   2
  -4   5 -16    7.90    6.32  -1
   4   7  10    7.90    6.32   2
  -4   5 -16   -2.31    4.52  -1
   4   7  10   -2.31    4.52   2
   4  -4 -18    4.56    2.71   1
   4  -4 -17   17.11    3.13   1
   4  -4 -16   -1.00    1.42   1
   4  -4 -15    4.07    2.30   1
   4  -4 -14   29.92    3.31   1
   4  -4 -13   91.67    7.16  -1
  -4   2  14   91.67    7.16   2
   4  -4 -12   20.07    1.12   1
   4  -4 -12   26.38    2.70   1
   4  -4 -11    7.39    0.72   1
   4  -4 -11    8.59    1.84   1
  -4   4  11    6.12    0.46   1
   4  -4 -10    5.03    0.67   1
   4  -4 -10    0.19    0.86   1
   4  -4 -10    8.59    1.57   1
  -4   4  10    2.06    0.37   1
   4  -4  -9    0.76    1.11   1
   4  -4  -9    3.26    1.14   1
  -4   4   9    0.14    0.60   1
   4  -4  -8   22.31    1.47   1
   4  -4  -8   23.10    1.99   1
  -4   4   8   18.84    0.96   1
  -4   4   8   19.92    1.18   1
   4  -4  -7   12.04    1.08   1
   4  -4  -7   13.93    1.09   1
  -4   4   7    9.50    1.02   1
  -4   4   7   11.24    1.11   1
   4  -4  -6   19.94    1.95  -1
  -4   0   8   19.94    1.95   2
   4  -4  -6   17.05    1.93  -1
  -4   0   8   17.05    1.93   2
  -4   4   6   16.62    2.14  -1
   4   0  -8   16.62    2.14   2
  -4   4   6   16.45    2.06  -1
   4   0  -8   16.45    2.06   2
   4  -4  -5    8.23    0.72   1
   4  -4  -5    7.67    0.72   1
  -4   4   5    7.64    1.34   1
  -4   4   5    7.67    1.07   1
   4  -4  -4    8.76    0.55   1
   4  -4  -4    5.85    0.35   1
  -4   4   4    7.27    1.49   1
  -4   4   4    9.61    1.25   1
  -4   4   3   36.73    2.49   1
  -4   4   3   37.90    2.26   1
   4  -4  -2   48.06    2.59   1
   4  -4  -2   42.75    1.10   1
  -4   4   2   43.16    2.59   1
  -4   4   2   39.46    1.06   1
   4  -4  -1  126.62    5.35   1
   4  -4  -1  122.61    3.47   1
  -4   4   1  128.29    5.67   1
  -4   4   1  133.55    4.01   1
   4  -4   0   16.95    2.10   1
   4  -4   0   15.27    1.18   1
  -4   4   0   10.91    2.18   1
  -4   4   0   17.51    1.48   1
   4  -4   1   25.04    1.89  -1
  -4  -2   2   25.04    1.89   2
  -4   4  -1   26.50    3.17  -1
   4   2  -2   26.50    3.17   2
  -4   4  -1   24.48    2.59  -1
   4   2  -2   24.48    2.59   2
   4  -4   2    7.20    1.45   1
  -4   4  -2    8.07    2.44   1
  -4   4  -2    7.58    1.53   1
   4  -4   3    2.40    1.11   1
  -4   4  -3    3.79    2.28   1
  -4   4  -3   -1.51    1.40   1
   4  -4   4   19.18    1.85   1
  -4   4  -4   16.36    2.06   1
  -4   4  -4   23.19    2.25   1
  -4   4  -5   33.10    3.76   1
  -4   4  -5   36.42    3.22   1
  -4   4  -6   35.06    2.84   1
  -4   4  -6   40.87    3.39   1
  -4   4  -7   13.54    3.42   1
  -4   4  -7    9.03    1.76   1
  -4   4  -8   53.12    4.35  -1
   4   4   4   53.12    4.35   2
  -4   4  -9   24.49    4.17   1
  -4   4  -9   22.77    3.55   1
  -4   4 -10    9.50    3.80   1
  -4   4 -10    9.99    3.21   1
  -4   4 -11  130.67    9.98   1
  -4   4 -11  143.18    9.00   1
  -4   4 -12    2.66    3.20   1
  -4   4 -12   -0.80    2.93   1
  -4   4 -13   -0.21    3.46   1
  -4   4 -13    0.70    3.01   1
  -4   4 -14   12.17    4.55   1
  -4   4 -14   11.23    2.56   1
  -4   4 -15    3.82    4.44  -1
   4   6  10    3.82    4.44   2
  -4   4 -15   10.67    3.02  -1
   4   6  10   10.67    3.02   2
  -4   4 -16   17.08    4.68   1
  -4   4 -16   12.07    2.83   1
  -4   4 -17    6.14    4.66   1
  -4   4 -17   18.35    4.47   1
   4  -3 -18    0.95    2.66   1
   4  -3 -17    3.96    1.66   1
   4  -3 -16    6.68    2.74   1
   4  -3 -15   23.29    2.24   1
   4  -3 -14   43.09    4.13   1
   4  -3 -13   61.46    5.23  -1
  -4   3  13   61.46    5.23   2
   4  -3 -12   12.69    2.37   1
   4  -3 -11    2.37    1.57   1
   4  -3 -10    3.82    1.57   1
   4  -3  -9    1.80    1.20   1
   4  -3  -9    2.67    1.31   1
   4  -3  -8   52.84    3.13   1
   4  -3  -7   54.73    3.02   1
   4  -3  -7   50.21    2.93   1
   4  -3  -6  223.81    8.60  -1
  -4   1   7  223.81    8.60   2
   4  -3  -6  221.08    8.99  -1
  -4   1   7  221.08    8.99   2
  -4   3   6  118.97    3.72  -1
   4  -1  -7  118.97    3.72   2
  -4   3   6  213.84    6.60  -1
   4  -1  -7  213.84    6.60   2
   4  -3  -5  131.96    4.38   1
   4  -3  -5  118.41    3.94   1
  -4   3   5  118.30    3.80   1
  -4   3   5  121.19    3.92   1
   4  -3  -4   56.31    2.24   1
  -4   3   4   50.76    2.40   1
  -4   3   4   33.37    1.24   1
   4  -3  -3    4.30    1.41   1
   4  -3  -3    5.67    1.01   1
  -4   3   3    4.24    1.51   1
  -4   3   3    3.32    1.01   1
   4  -3  -2  448.87   17.65   1
   4  -3  -2  474.66   17.05   1
  -4   3   2  432.47   17.14   1
  -4   3   2  445.66   15.92   1
   4  -3  -1    2.86    0.80   1
   4  -3  -1    0.57    0.98   1
  -4   3   1    2.62    1.50   1
  -4   3   1    1.09    0.93   1
   4  -3   0   88.96    4.18   1
   4  -3   0   90.86    3.62   1
  -4   3   0   88.60    4.54   1
  -4   3   0   96.60    4.29   1
   4  -3   1   29.71    3.05  -1
  -4  -1   1   29.71    3.05   2
   4  -3   1   28.60    2.62  -1
  -4  -1   1   28.60    2.62   2
  -4   3  -1   30.56    3.43  -1
   4   1  -1   30.56    3.43   2
  -4   3  -1   34.52    2.64  -1
   4   1  -1   34.52    2.64   2
   4  -3   2   20.74    1.67   1
  -4   3  -2   17.05    1.78   1
  -4   3  -2   21.09    2.04   1
   4  -3   3   10.64    1.61   1
  -4   3  -3   12.22    2.75   1
  -4   3  -3   15.37    2.05   1
   4  -3   4   19.17    1.94   1
  -4   3  -4   16.93    2.04   1
  -4   3  -4   18.28    1.62   1
  -4   3  -5   44.13    4.19   1
  -4   3  -5   39.64    2.41   1
  -4   3  -6    7.29    2.95   1
  -4   3  -6    3.53    2.35   1
  -4   3  -7   54.43    3.10   1
  -4   3  -7  110.81    8.99  -1
   4   3   4  110.81    8.99   2
  -4   3  -8   55.74    7.31  -1
   4   3   5   55.74    7.31   2
  -4   3  -8   48.65    6.08  -1
   4   3   5   48.65    6.08   2
  -4   3  -9   18.85    2.48   1
  -4   3  -9   14.21    3.42   1
  -4   3 -10   68.81    6.50   1
  -4   3 -10   61.65    3.96   1
  -4   3 -11   16.80    4.15   1
  -4   3 -11   12.65    2.43   1
  -4   3 -12    7.66    2.43   1
  -4   3 -12    7.53    2.21   1
  -4   3 -13   -0.91    3.55   1
  -4   3 -13    2.66    1.94   1
  -4   3 -14    8.84    5.26  -1
   4   5  10    8.84    5.26   2
  -4   3 -14    8.06    5.30  -1
   4   5  10    8.06    5.30   2
  -4   3 -15    2.39    5.21  -1
   4   5  11    2.39    5.21   2
  -4   3 -15    0.87    4.46  -1
   4   5  11    0.87    4.46   2
  -4   3 -16    5.43    2.61   1
  -4   3 -16    0.84    3.74   1
  -4   3 -17   13.53    5.04   1
  -4   3 -17   18.13    4.47   1
   4  -2 -19    2.83    3.04   1
   4  -2 -18   20.61    3.85   1
   4  -2 -17   -0.89    1.50   1
   4  -2 -16    3.61    2.61   1
   4  -2 -15   39.64    4.06   1
   4  -2 -14   75.41    6.24  -1
  -4   4  13   75.41    6.24   2
   4  -2 -13   31.55    3.51   1
   4  -2 -12   11.08    2.43   1
   4  -2 -11    2.00    1.97   1
   4  -2 -10    0.26    1.54   1
   4  -2  -9   18.04    2.18   1
   4  -2  -8   18.06    1.88   1
   4  -2  -8   17.34    1.95   1
   4  -2  -7   12.56    2.26  -1
  -4   2   7   12.56    2.26   2
   4  -2  -7   11.67    2.68  -1
  -4   2   7   11.67    2.68   2
   4  -2  -6   16.32    1.72   1
   4  -2  -6   12.40    1.67   1
   4  -2  -5   11.47    0.69   1
   4  -2  -5   10.67    1.31   1
  -4   2   5    9.94    0.79   1
  -4   2   5   10.84    1.57   1
   4  -2  -4   43.86    1.85   1
   4  -2  -4   42.53    2.03   1
  -4   2   4   44.47    2.02   1
  -4   2   4   38.77    2.30   1
   4  -2  -3   62.28    2.68   1
   4  -2  -3   49.61    2.50   1
  -4   2   3   56.74    3.02   1
  -4   2   3   50.36    2.72   1
   4  -2  -2  189.95    6.50   1
   4  -2  -2  190.64    6.83   1
  -4   2   2  192.13    6.88   1
  -4   2   2  178.55    6.61   1
   4  -2  -1   28.03    2.01   1
   4  -2  -1   28.80    1.82   1
  -4   2   1   30.94    2.40   1
  -4   2   1   27.66    2.01   1
   4  -2   0   39.09    3.06  -1
  -4   0   1   39.09    3.06   2
   4  -2   0   40.07    2.95  -1
  -4   0   1   40.07    2.95   2
  -4   2   0   38.82    3.26  -1
   4   0  -1   38.82    3.26   2
  -4   2   0   41.93    3.39  -1
   4   0  -1   41.93    3.39   2
   4  -2   1   13.28    1.33   1
   4  -2   1   14.85    1.63   1
  -4   2  -1   16.33    2.08   1
  -4   2  -1   48.95    4.29  -1
   4   0   0   48.95    4.29   2
   4  -2   2    0.46    0.95   1
   4  -2   2    1.48    1.28   1
  -4   2  -2    2.18    1.34   1
  -4   2  -2    3.34    1.72   1
   4  -2   3   29.84    2.51   1
  -4   2  -3   31.69    2.32   1
  -4   2  -3   30.85    2.90   1
   4  -2   4   55.54    3.43   1
  -4   2  -4   61.80    4.94   1
  -4   2  -4   61.91    3.99   1
  -4   2  -5   64.42    5.34   1
  -4   2  -5   68.42    4.62   1
  -4   2  -6    1.06    3.02   1
  -4   2  -6    6.81    2.38   1
  -4   2  -7   84.14    6.92  -1
   4   2   5   84.14    6.92   2
  -4   2  -7   76.60    6.21  -1
   4   2   5   76.60    6.21   2
  -4   2  -8   28.46    3.93   1
  -4   2  -8   66.43    7.07  -1
   4   2   6   66.43    7.07   2
  -4   2  -9   11.66    3.64   1
  -4   2  -9    7.55    1.91   1
  -4   2 -10  210.77   13.04   1
  -4   2 -10  205.40   11.61   1
  -4   2 -11   -4.10    2.26   1
  -4   2 -11   -1.65    3.18   1
  -4   2 -12    2.59    3.78   1
  -4   2 -12    5.83    3.17   1
  -4   2 -13   27.26    4.49   1
  -4   2 -13   62.22   10.99  -1
   4   4  10   62.22   10.99   2
  -4   2 -14   36.26    5.71  -1
   4   4  11   36.26    5.71   2
  -4   2 -14   25.86    6.04  -1
   4   4  11   25.86    6.04   2
  -4   2 -15    8.71    4.12   1
  -4   2 -15   40.08    9.60  -1
   4   4  12   40.08    9.60   2
  -4   2 -16   28.06    5.37   1
  -4   2 -16   19.34    4.77   1
  -4   2 -17   -0.76    2.29   1
  -4   2 -17   -5.82    3.74   1
   4  -1 -19    6.97    3.32   1
   4  -1 -18    5.10    1.99   1
   4  -1 -17    5.57    3.04   1
   4  -1 -16   14.78    3.36   1
   4  -1 -15   43.88    4.53   1
   4  -1 -14   35.94    2.07  -1
  -4   5  12   35.94    2.07   2
   4  -1 -14   61.17    4.96  -1
  -4   5  12   61.17    4.96   2
   4  -1 -13   10.22    0.97   1
   4  -1 -13    7.50    0.72   1
   4  -1 -13   14.34    1.86   1
   4  -1 -12    1.08    0.47   1
   4  -1 -12    1.20    0.36   1
   4  -1 -12   -0.47    1.32   1
   4  -1 -11    0.20    0.27   1
   4  -1 -11   -0.68    2.01   1
   4  -1 -10   -1.30    1.89   1
   4  -1  -9   46.65    3.42   1
   4  -1  -8   59.08    3.95   1
   4  -1  -7  213.28   10.62  -1
  -4   3   6  213.28   10.62   2
   4  -1  -7  220.56   10.64  -1
  -4   3   6  220.56   10.64   2
   4  -1  -6  116.66    2.95   1
   4  -1  -6  112.15    5.30   1
  -4   1   6  119.72    3.07   1
  -4   1   6  118.82    5.64   1
   4  -1  -5   69.60    2.24   1
   4  -1  -5   69.51    3.51   1
  -4   1   5   76.94    2.58   1
  -4   1   5   72.15    3.95   1
   4  -1  -4    0.64    0.71   1
   4  -1  -4   -0.66    1.28   1
  -4   1   4    0.35    1.19   1
  -4   1   4   -1.11    1.57   1
   4  -1  -3  566.47   21.72   1
   4  -1  -3  584.09   25.39   1
  -4   1   3  579.60   22.42   1
  -4   1   3  565.46   25.51   1
   4  -1  -2    0.68    1.11   1
   4  -1  -2    0.29    1.26   1
  -4   1   2    0.12    1.27   1
  -4   1   2    1.47    1.55   1
   4  -1  -1  112.29    4.38   1
   4  -1  -1  107.56    4.53   1
  -4   1   1  102.35    3.60   1
  -4   1   1   99.61    4.83   1
   4  -1   0   25.96    2.25  -1
  -4   1   0   25.96    2.25   2
   4  -1   0   25.58    2.97  -1
  -4   1   0   25.58    2.97   2
  -4   1   0   21.97    3.67  -1
   4  -1   0   21.97    3.67   2
  -4   1   0   25.03    3.42  -1
   4  -1   0   25.03    3.42   2
   4  -1   1   67.81    2.75   1
   4  -1   1   68.51    3.62   1
  -4   1  -1   67.03    2.96   1
  -4   1  -1   74.57    4.39   1
   4  -1   2   21.28    2.37   1
   4  -1   2   23.01    2.40   1
  -4   1  -2   18.52    3.16   1
  -4   1  -2   26.55    2.82   1
   4  -1   3   21.64    2.45   1
  -4   1  -3   24.88    2.10   1
  -4   1  -3   25.00    3.16   1
  -4   1  -4   66.23    3.59   1
  -4   1  -4   59.34    3.10   1
  -4   1  -5   16.94    3.52   1
  -4   1  -5   11.86    3.09   1
  -4   1  -6  146.51    7.78   1
  -4   1  -6   82.68    6.03   1
  -4   1  -7   75.91    6.55  -1
   4   1   6   75.91    6.55   2
  -4   1  -7   66.71    4.85  -1
   4   1   6   66.71    4.85   2
  -4   1  -8   19.15    3.46   1
  -4   1  -9   78.42    4.77   1
  -4   1  -9   68.49    4.13   1
  -4   1 -10   21.39    2.94   1
  -4   1 -10   28.85    4.36   1
  -4   1 -11    8.32    3.88   1
  -4   1 -11    7.96    2.11   1
  -4   1 -12   -4.33    2.22   1
  -4   1 -12    5.76    6.48  -1
   4   3  10    5.76    6.48   2
  -4   1 -13    0.41    3.69   1
  -4   1 -13    1.58    2.03   1
  -4   1 -14   -2.55    2.77  -1
   4   3  12   -2.55    2.77   2
  -4   1 -14    1.61    4.20  -1
   4   3  12    1.61    4.20   2
  -4   1 -15   12.82    4.31   1
  -4   1 -15   18.67    7.78  -1
   4   3  13   18.67    7.78   2
  -4   1 -16   35.42    5.68   1
  -4   1 -16   36.78    5.63   1
  -4   1 -17    2.99    4.37   1
  -4   1 -17   18.23    4.55   1
   4   0 -19   14.87    3.80   1
   4   0 -18   -0.50    2.90   1
   4   0 -17    0.64    2.90   1
   4   0 -16   31.82    2.98   1
   4   0 -15   76.07    6.26  -1
  -4   6  12   76.07    6.26   2
   4   0 -14   23.53    1.64   1
   4   0 -14   33.81    2.73   1
   4   0 -13    6.15    0.96   1
   4   0 -13    6.55    1.33   1
   4   0 -13   11.86    1.93   1
   4   0 -12   -0.59    0.95   1
   4   0 -12    0.65    0.94   1
   4   0 -12    1.52    1.43   1
   4   0 -11   -0.26    0.84   1
   4   0 -11    1.10    0.66   1
   4   0 -11    4.12    2.21   1
   4   0 -10    7.56    1.05   1
   4   0 -10    8.53    0.98   1
   4   0 -10   10.68    2.61   1
   4   0  -9   17.02    1.23   1
   4   0  -9   17.35    1.13   1
   4   0  -9   18.51    1.97   1
   4   0  -8   15.43    1.83  -1
  -4   4   6   15.43    1.83   2
   4   0  -8   13.85    1.67  -1
  -4   4   6   13.85    1.67   2
   4   0  -8   19.35    4.28  -1
  -4   4   6   19.35    4.28   2
   4   0  -7   20.19    1.17   1
  -4   0   7   20.77    1.40   1
  -4   0   7   19.71    2.99   1
   4   0  -6   12.87    1.38   1
  -4   0   6   11.23    1.43   1
  -4   0   6   10.56    2.46   1
   4   0  -5   31.19    1.99   1
   4   0  -5   31.37    2.57   1
  -4   0   5   30.31    2.12   1
  -4   0   5   29.81    3.06   1
   4   0  -4   37.09    2.57   1
   4   0  -4   49.85    3.23   1
  -4   0   4   41.31    2.33   1
  -4   0   4   50.64    3.63   1
   4   0  -3  166.70    5.93   1
   4   0  -3  148.49    6.64   1
  -4   0   3  171.35    6.51   1
  -4   0   3  162.94    7.75   1
   4   0  -2   36.97    2.30   1
   4   0  -2   33.69    1.99   1
  -4   0   2   32.40    2.50   1
  -4   0   2   36.12    3.21   1
   4   0  -1   42.60    3.70  -1
  -4   2   0   42.60    3.70   2
   4   0  -1   41.88    3.70  -1
  -4   2   0   41.88    3.70   2
  -4   0   1   44.18    4.59  -1
   4  -2   0   44.18    4.59   2
  -4   0   1   37.90    4.48  -1
   4  -2   0   37.90    4.48   2
   4   0   0   31.49    2.53   1
   4   0   0   24.41    2.65   1
  -4   0   0   27.51    3.14   1
  -4   0   0   48.49    5.28  -1
   4  -2   1   48.49    5.28   2
   4   0   1   16.46    2.12   1
   4   0   1   13.20    1.45   1
  -4   0  -1   15.19    2.77   1
  -4   0  -1   11.68    1.64   1
  -4   0  -2   30.01    3.25   1
  -4   0  -2   29.44    2.31   1
  -4   0  -3   88.23    4.01   1
  -4   0  -3   84.51    3.93   1
  -4   0  -4   80.41    5.41   1
  -4   0  -4   74.24    5.37   1
  -4   0  -5    0.04    1.51   1
  -4   0  -5    0.37    1.57   1
  -4   0  -6   89.68    6.91  -1
   4   0   6   89.68    6.91   2
  -4   0  -6   92.21    6.78  -1
   4   0   6   92.21    6.78   2
  -4   0  -7   47.08    3.34   1
  -4   0  -7   91.00    8.37  -1
   4   0   7   91.00    8.37   2
  -4   0  -8    8.76    3.45   1
  -4   0  -8    4.98    3.20   1
  -4   0  -9  255.08   13.95   1
  -4   0  -9  233.06   12.81   1
  -4   0 -10    7.14    3.65   1
  -4   0 -10    5.87    2.21   1
  -4   0 -11    4.49    3.57   1
  -4   0 -11    2.61    2.04   1
  -4   0 -12   71.37    6.32   1
  -4   0 -12   36.42    5.73   1
  -4   0 -13   60.99    7.02  -1
   4   2  12   60.99    7.02   2
  -4   0 -13   63.65    7.88  -1
   4   2  12   63.65    7.88   2
  -4   0 -14   19.70    3.12   1
  -4   0 -14   60.92    7.37  -1
   4   2  13   60.92    7.37   2
  -4   0 -15   43.89    4.19   1
  -4   0 -15  129.32   11.45  -1
   4   2  14  129.32   11.45   2
  -4   0 -16   12.60    3.84   1
  -4   0 -16   -0.71    2.29   1
  -4   0 -17   47.65    6.33   1
  -4   0 -17   41.54    4.24   1
   4   1 -19    4.65    2.27   1
   4   1 -18    3.01    2.11   1
   4   1 -17    8.30    3.82   1
   4   1 -16   39.05    5.13   1
   4   1 -15   38.24    3.42  -1
  -4   7  11   38.24    3.42   2
   4   1 -15   48.17    6.15  -1
  -4   7  11   48.17    6.15   2
   4   1 -14   11.60    3.53   1
   4   1 -13    1.42    1.02   1
   4   1 -13    3.39    1.26   1
   4   1 -13    3.30    2.89   1
   4   1 -12   -0.60    0.93   1
   4   1 -12    1.58    1.04   1
   4   1 -12    4.13    2.61   1
   4   1 -11   -0.35    1.28   1
   4   1 -11    1.62    1.06   1
   4   1 -11    5.26    2.64   1
   4   1 -10   21.56    1.61   1
   4   1 -10   25.72    1.71   1
   4   1 -10   30.04    2.47   1
   4   1  -9   42.22    2.20   1
   4   1  -9   46.48    2.17   1
   4   1  -9   47.72    4.42   1
   4   1  -8  134.78    5.94  -1
  -4   5   5  134.78    5.94   2
  -4  -1   8  134.12    5.79  -1
   4  -5  -5  134.12    5.79   2
  -4  -1   8  151.12   10.23  -1
   4  -5  -5  151.12   10.23   2
   4   1  -7   70.56    2.98   1
  -4  -1   7   77.62    3.33   1
  -4  -1   7   87.59    4.04   1
   4   1  -6   58.47    2.82   1
  -4  -1   6   56.83    2.71   1
  -4  -1   6   66.26    3.47   1
   4   1  -5   -2.35    1.18   1
  -4  -1   5   -0.22    1.27   1
  -4  -1   5   -1.20    1.21   1
   4   1  -4  418.79   17.42   1
  -4  -1   4  421.62   17.66   1
  -4  -1   4  427.30   20.27   1
   4   1  -3   -0.41    1.49   1
  -4  -1   3    4.58    1.72   1
  -4  -1   3   -2.30    2.30   1
   4   1  -2   77.02    3.00   1
  -4  -1   2   73.60    4.98   1
  -4  -1   2  190.77   10.99  -1
   4  -3   0  190.77   10.99   2
   4   1  -1   30.28    3.22  -1
  -4   3  -1   30.28    3.22   2
  -4  -1   1   26.40    4.08  -1
   4  -3   1   26.40    4.08   2
  -4  -1   1   32.70    4.88  -1
   4  -3   1   32.70    4.88   2
   4   1   0   93.05    4.70   1
  -4  -1   0   94.39    4.13   1
  -4  -1   0   91.95    4.24   1
  -4  -1  -1   25.62    3.33   1
  -4  -1  -1   23.45    3.58   1
  -4  -1  -2   25.05    3.73   1
  -4  -1  -2   19.53    3.59   1
  -4  -1  -3   64.46    5.24   1
  -4  -1  -3   58.06    3.48   1
  -4  -1  -4   35.94    2.81   1
  -4  -1  -4   34.89    4.11   1
  -4  -1  -5  154.25   11.47  -1
   4  -1   6  154.25   11.47   2
  -4  -1  -5  150.13   10.56  -1
   4  -1   6  150.13   10.56   2
  -4  -1  -6   63.31    4.46  -1
   4  -1   7   63.31    4.46   2
  -4  -1  -6   69.31    4.85  -1
   4  -1   7   69.31    4.85   2
  -4  -1  -7   17.00    3.63   1
  -4  -1  -7   12.29    2.29   1
  -4  -1  -7   36.89    7.11  -1
   4  -1   8   36.89    7.11   2
  -4  -1  -8   70.00    5.81   1
  -4  -1  -8   58.59    3.95   1
  -4  -1  -9   23.27    2.78   1
  -4  -1  -9   23.97    4.36   1
  -4  -1 -10   11.90    2.40   1
  -4  -1 -10    6.95    2.40   1
  -4  -1 -11   -0.17    2.11   1
  -4  -1 -11    5.50    3.29   1
  -4  -1 -12   -8.35    3.99  -1
   4   1  12   -8.35    3.99   2
  -4  -1 -12    0.50    5.00  -1
   4   1  12    0.50    5.00   2
  -4  -1 -13   -4.83    2.47  -1
   4   1  13   -4.83    2.47   2
  -4  -1 -13   -1.84    2.98  -1
   4   1  13   -1.84    2.98   2
  -4  -1 -14   11.90    2.68   1
  -4  -1 -14   14.31    4.13   1
  -4  -1 -15   59.28    6.42   1
  -4  -1 -15   46.55    6.30   1
  -4  -1 -16   12.52    4.50   1
  -4  -1 -16   14.17    4.83   1
  -4  -1 -17   43.45    6.07   1
  -4  -1 -17   24.69    5.70   1
   4   2 -18    2.37    2.16   1
   4   2 -17   21.43    4.45   1
   4   2 -16   39.66    8.67  -1
  -4   8  11   39.66    8.67   2
   4   2 -15   21.66    2.39   1
   4   2 -15   23.70    4.40   1
   4   2 -14    7.44    1.76   1
   4   2 -14    4.76    3.21   1
   4   2 -13    2.73    1.51   1
   4   2 -13   -1.27    3.10   1
   4   2 -12   -0.18    1.22   1
   4   2 -12    1.78    1.41   1
   4   2 -12    4.59    2.90   1
   4   2 -11    1.65    1.28   1
   4   2 -11    4.91    1.52   1
   4   2 -11    3.00    1.89   1
   4   2 -10    9.83    1.54   1
   4   2 -10   14.25    1.76   1
   4   2 -10   17.33    3.56   1
   4   2  -9   13.44    3.27  -1
  -4   6   5   13.44    3.27   2
  -4  -2   9   15.75    2.84  -1
   4  -6  -5   15.75    2.84   2
  -4  -2   9   14.70    3.48  -1
   4  -6  -5   14.70    3.48   2
   4   2  -8   14.74    1.80   1
  -4  -2   8   15.11    1.92   1
  -4  -2   8   24.36    3.63   1
   4   2  -7   10.08    1.62   1
  -4  -2   7    9.14    1.88   1
  -4  -2   7   11.48    2.00   1
   4   2  -6   16.70    1.93   1
  -4  -2   6   18.72    2.31   1
  -4  -2   6   20.09    3.62   1
   4   2  -5   18.62    2.28   1
  -4  -2   5   23.43    2.46   1
  -4  -2   5   27.51    3.94   1
   4   2  -4  100.66    5.05   1
  -4  -2   4  109.10    5.46   1
  -4  -2   4  110.58    6.95   1
   4   2  -3   28.72    2.75   1
  -4  -2   3   27.99    3.16   1
  -4  -2   3   25.38    3.84   1
  -4  -2   2   24.47    3.72  -1
   4  -4   1   24.47    3.72   2
  -4  -2   2   23.43    4.15  -1
   4  -4   1   23.43    4.15   2
  -4  -2   1   20.46    3.23   1
  -4  -2   1   25.59    2.22   1
  -4  -2   0   15.87    2.04   1
  -4  -2   0   16.24    2.03   1
  -4  -2  -1   26.54    3.54   1
  -4  -2  -1   19.10    2.27   1
  -4  -2  -2   81.97    5.75   1
  -4  -2  -2   80.26    5.67   1
  -4  -2  -3   59.52    5.35   1
  -4  -2  -3   56.38    4.94   1
  -4  -2  -4    9.74    1.95   1
  -4  -2  -4    4.22    1.90   1
  -4  -2  -5   73.36    6.47  -1
   4  -2   7   73.36    6.47   2
  -4  -2  -5   78.61    6.91  -1
   4  -2   7   78.61    6.91   2
  -4  -2  -6   25.93    4.29   1
  -4  -2  -6   64.97    9.58  -1
   4  -2   8   64.97    9.58   2
  -4  -2  -7    7.05    3.72   1
  -4  -2  -7    4.84    2.08   1
  -4  -2  -8  170.33    8.28   1
  -4  -2  -8  153.51    8.01   1
  -4  -2  -9   12.13    4.00   1
  -4  -2  -9   14.36    4.17   1
  -4  -2 -10    4.64    3.21   1
  -4  -2 -10   -3.84    3.51   1
  -4  -2 -11   39.10    3.53   1
  -4  -2 -11   75.48    9.82  -1
   4   0  12   75.48    9.82   2
  -4  -2 -12   55.36    6.59  -1
   4   0  13   55.36    6.59   2
  -4  -2 -12   66.64    8.31  -1
   4   0  13   66.64    8.31   2
  -4  -2 -13   26.61    3.15   1
  -4  -2 -13   24.62    5.15   1
  -4  -2 -14   51.00    4.58   1
  -4  -2 -14  123.62   13.82  -1
   4   0  15  123.62   13.82   2
  -4  -2 -15   -2.66    3.42   1
  -4  -2 -16   67.25    7.36   1
  -4  -2 -16   67.43    7.31   1
   4   3 -18    5.04    2.43   1
   4   3 -17   25.63    5.06   1
   4   3 -16   31.87    6.14  -1
  -4   9  10   31.87    6.14   2
   4   3 -15    6.20    1.98   1
   4   3 -15    4.76    3.43   1
   4   3 -14   -0.30    1.85   1
   4   3 -14    5.49    3.28   1
   4   3 -13    3.21    1.91   1
   4   3 -13    1.96    3.40   1
   4   3 -12    1.12    1.94   1
   4   3 -12    1.84    3.28   1
   4   3 -11   12.01    2.09   1
   4   3 -11   17.72    2.61   1
   4   3 -10   28.84    2.75   1
   4   3 -10   27.84    2.92   1
  -4  -3  10    2.51    1.47   1
  -4  -3   9   64.67    5.40  -1
   4  -7  -4   64.67    5.40   2
  -4  -3   9   79.28    8.52  -1
   4  -7  -4   79.28    8.52   2
  -4  -3   8   36.98    3.02   1
  -4  -3   8   37.45    3.22   1
  -4  -3   7   39.38    3.34   1
  -4  -3   7   46.27    5.03   1
  -4  -3   6    1.31    2.04   1
  -4  -3   6    1.18    1.86   1
  -4  -3   5  248.07   11.90   1
  -4  -3   5  229.81   10.68   1
  -4  -3   4   -0.70    2.15   1
  -4  -3   4    2.70    2.79   1
  -4  -3   3   46.95    4.16   1
  -4  -3   3   47.72    4.92   1
  -4  -3   2   32.06    5.82  -1
   4  -5   2   32.06    5.82   2
  -4  -3   2   38.30    5.16  -1
   4  -5   2   38.30    5.16   2
  -4  -3   1   69.57    3.85   1
  -4  -3   1   74.34    3.92   1
  -4  -3   0   18.64    3.64   1
  -4  -3   0   22.64    2.46   1
  -4  -3  -1   16.94    3.56   1
  -4  -3  -1   14.80    3.57   1
  -4  -3  -2   34.36    4.45   1
  -4  -3  -2   65.12    7.91  -1
   4  -4   5   65.12    7.91   2
  -4  -3  -3   52.19    5.32   1
  -4  -3  -3   44.80    5.03   1
  -4  -3  -4   75.74    5.81   1
  -4  -3  -4   44.86    3.65   1
  -4  -3  -5   54.06    6.45  -1
   4  -3   8   54.06    6.45   2
  -4  -3  -5   54.93    6.93  -1
   4  -3   8   54.93    6.93   2
  -4  -3  -6   11.30    2.36   1
  -4  -3  -6   13.11    4.07   1
  -4  -3  -7   34.68    5.07   1
  -4  -3  -7   21.98    5.04   1
  -4  -3  -8   20.93    4.15   1
  -4  -3  -8   11.98    4.09   1
  -4  -3  -9   13.57    2.50   1
  -4  -3  -9   13.91    2.61   1
  -4  -3 -10   -1.03    3.43   1
  -4  -3 -10    4.90    6.67  -1
   4  -1  12    4.90    6.67   2
  -4  -3 -11   -0.27    3.31   1
  -4  -3 -11    0.40    2.23   1
  -4  -3 -12   -1.22    4.48  -1
   4  -1  14   -1.22    4.48   2
  -4  -3 -12    3.83    5.14  -1
   4  -1  14    3.83    5.14   2
  -4  -3 -13    9.69    2.87   1
  -4  -3 -13   10.22    5.89  -1
   4  -1  15   10.22    5.89   2
  -4  -3 -14   44.03    6.02   1
  -4  -3 -14   42.35    6.24   1
  -4  -3 -15   15.53    4.65   1
  -4  -3 -15   15.01    4.72   1
  -4  -3 -16   33.28    5.74   1
  -4  -3 -16   26.41    3.70   1
   4   4 -17   18.09    7.68  -1
  -4  10  10   18.09    7.68   2
   4   4 -16    8.02    2.79   1
   4   4 -16   18.72    4.17   1
   4   4 -15    5.07    2.46   1
   4   4 -15    9.20    3.82   1
   4   4 -14   -1.51    1.21   1
   4   4 -14   -0.12    3.41   1
   4   4 -13   -2.81    2.09   1
   4   4 -13   -4.56    3.53   1
   4   4 -12    0.43    2.07   1
   4   4 -12   -3.00    3.30   1
   4   4 -11    7.63    2.29   1
   4   4 -11   13.12    3.84   1
  -4  -4  10   11.59    3.50  -1
   4  -8  -4   11.59    3.50   2
  -4  -4  10   15.54    4.02  -1
   4  -8  -4   15.54    4.02   2
  -4  -4   9   14.21    2.75   1
  -4  -4   9   15.17    2.61   1
  -4  -4   8   11.40    2.59   1
  -4  -4   8   10.59    3.81   1
  -4  -4   7    5.93    2.71   1
  -4  -4   7    9.29    3.69   1
  -4  -4   6   11.55    1.92   1
  -4  -4   6   24.32    7.67  -1
   4  -7  -1   24.32    7.67   2
  -4  -4   5   45.34    4.54   1
  -4  -4   5   50.68    3.76   1
  -4  -4   4   13.21    3.44   1
  -4  -4   4   22.63    3.96   1
  -4  -4   3   13.76    3.96  -1
   4  -6   2   13.76    3.96   2
  -4  -4   3   17.65    3.37  -1
   4  -6   2   17.65    3.37   2
  -4  -4   2   22.49    3.97   1
  -4  -4   2   20.29    3.86   1
  -4  -4   1   12.80    2.38   1
  -4  -4   1   11.21    3.46   1
  -4  -4   0    4.41    3.39   1
  -4  -4   0    6.24    1.97   1
  -4  -4  -1   54.02    5.62   1
  -4  -4  -1   82.82    8.43  -1
   4  -5   5   82.82    8.43   2
  -4  -4  -2   28.68    4.78   1
  -4  -4  -2   28.52    2.90   1
  -4  -4  -3    9.35    3.71   1
  -4  -4  -3   11.99    3.77   1
  -4  -4  -4   57.83    6.63  -1
   4  -4   8   57.83    6.63   2
  -4  -4  -4   51.76    7.35  -1
   4  -4   8   51.76    7.35   2
  -4  -4  -5   12.23    2.63   1
  -4  -4  -5   11.66    3.70   1
  -4  -4  -6    7.03    3.57   1
  -4  -4  -6    3.26    2.24   1
  -4  -4  -7   71.42    4.76   1
  -4  -4  -7   76.15    7.48   1
  -4  -4  -8    8.95    3.53   1
  -4  -4  -8    3.92    3.80   1
  -4  -4  -9    2.57    2.28   1
  -4  -4  -9    8.73    6.90  -1
   4  -3  12    8.73    6.90   2
  -4  -4 -10   27.17    4.98   1
  -4  -4 -10   29.54    3.41   1
  -4  -4 -11   38.13    5.65  -1
   4  -2  14   38.13    5.65   2
  -4  -4 -11   33.18    6.90  -1
   4  -2  14   33.18    6.90   2
  -4  -4 -12   10.01    2.79   1
  -4  -4 -12   44.42    9.35  -1
   4  -2  15   44.42    9.35   2
  -4  -4 -13   56.04    4.92   1
  -4  -4 -13   55.55    6.84   1
  -4  -4 -14   -3.20    2.44   1
  -4  -4 -14   -0.71    2.43   1
  -4  -4 -15   59.56    5.33   1
  -4  -4 -15   58.88    5.07   1
   4   5 -16    2.66    2.36   1
   4   5 -16    2.92    2.25   1
   4   5 -15    4.03    2.43   1
   4   5 -15    1.41    2.24   1
   4   5 -14    1.16    2.40   1
   4   5 -14    5.54    2.20   1
   4   5 -13    1.84    2.50   1
   4   5 -13    2.02    2.18   1
   4   5 -12    6.89    2.65   1
   4   5 -12    6.84    2.45   1
   4   5 -11   10.29    2.99   1
   4   5 -11   13.87    2.62   1
  -4  -5  10   25.83    5.17  -1
   4  -9  -3   25.83    5.17   2
  -4  -5  10   38.41    6.59  -1
   4  -9  -3   38.41    6.59   2
  -4  -5   9   17.01    2.14   1
  -4  -5   9   23.32    4.51   1
  -4  -5   8   23.89    3.64   1
  -4  -5   8   26.67    4.89   1
  -4  -5   7    1.39    1.65   1
  -4  -5   6  114.00    7.51   1
  -4  -5   6   97.61    8.24   1
  -4  -5   5   -1.78    1.80   1
  -4  -5   5   -1.44    3.04   1
  -4  -5   4   18.34    3.75   1
  -4  -5   4   16.69    2.76   1
  -4  -5   3   30.67    5.32  -1
   4  -7   3   30.67    5.32   2
  -4  -5   3   24.72    6.87  -1
   4  -7   3   24.72    6.87   2
  -4  -5   2   49.61    5.30   1
  -4  -5   2   46.09    3.83   1
  -4  -5   1    5.15    3.73   1
  -4  -5   1    9.97    3.48   1
  -4  -5   0   12.36    4.25   1
  -4  -5   0   12.71    2.34   1
  -4  -5  -1   14.28    4.11   1
  -4  -5  -1   30.70    7.06  -1
   4  -6   6   30.70    7.06   2
  -4  -5  -2   44.93    5.64   1
  -4  -5  -2   42.24    5.16   1
  -4  -5  -3   31.07    5.05   1
  -4  -5  -3   28.47    3.43   1
  -4  -5  -4   27.11    5.11  -1
   4  -5   9   27.11    5.11   2
  -4  -5  -4   32.81    4.54  -1
   4  -5   9   32.81    4.54   2
  -4  -5  -5    3.16    2.19   1
  -4  -5  -5    3.60    3.61   1
  -4  -5  -6   12.23    4.13   1
  -4  -5  -6  171.27   14.13  -1
   4  -4  11  171.27   14.13   2
  -4  -5  -7   12.59    2.57   1
  -4  -5  -7    8.87    2.66   1
  -4  -5  -8    7.76    4.21   1
  -4  -5  -8    5.38    2.53   1
  -4  -5  -9    6.17    2.49   1
  -4  -5  -9    8.32    4.28   1
  -4  -5 -10    0.97    3.71   1
  -4  -5 -10    5.40    6.28  -1
   4  -3  14    5.40    6.28   2
  -4  -5 -11   -1.39    3.25  -1
   4  -3  15   -1.39    3.25   2
  -4  -5 -12   -1.41    3.93   1
  -4  -5 -12    7.11    3.96   1
  -4  -5 -13   30.28    3.58   1
  -4  -5 -13   19.30    3.49   1
  -4  -5 -14   10.26    2.83   1
  -4  -5 -14    6.10    4.05   1
   4   6 -15   -4.82    2.60   1
   4   6 -15    2.46    3.86   1
   4   6 -14    0.86    2.73   1
   4   6 -14   -2.75    3.66   1
   4   6 -13    3.22    2.91   1
   4   6 -13    4.70    3.81   1
   4   6 -12   -0.68    2.64   1
   4   6 -12    7.01    3.53   1
  -4  -6  11    0.70    2.60  -1
   4 -10  -3    0.70    2.60   2
  -4  -6  11    6.88    3.80  -1
   4 -10  -3    6.88    3.80   2
  -4  -6  10    1.85    2.60   1
  -4  -6  10    6.09    4.11   1
  -4  -6   9    5.91    1.81   1
  -4  -6   9    2.66    4.00   1
  -4  -6   8    6.51    3.04   1
  -4  -6   8    7.92    3.84   1
  -4  -6   7    6.59    3.00   1
  -4  -6   7   -0.03    2.21   1
  -4  -6   6   16.52    2.59   1
  -4  -6   6   24.80    3.01   1
  -4  -6   5    6.20    3.73   1
  -4  -6   5    4.02    3.39   1
  -4  -6   4    2.36    4.90  -1
   4  -8   3    2.36    4.90   2
  -4  -6   4    7.13    4.77  -1
   4  -8   3    7.13    4.77   2
  -4  -6   3   14.65    4.25   1
  -4  -6   3   16.13    2.81   1
  -4  -6   2   12.53    2.57   1
  -4  -6   2   11.16    4.12   1
  -4  -6   1    1.56    2.14   1
  -4  -6   1    2.77    5.26  -1
   4  -7   6    2.77    5.26   2
  -4  -6   0   27.99    3.40   1
  -4  -6   0   30.84    3.16   1
  -4  -6  -1   18.44    2.98   1
  -4  -6  -1   17.62    4.14   1
  -4  -6  -2   19.16    2.83   1
  -4  -6  -2   10.23    4.14   1
  -4  -6  -3   35.39    6.09  -1
   4  -6   9   35.39    6.09   2
  -4  -6  -3   36.03    7.10  -1
   4  -6   9   36.03    7.10   2
  -4  -6  -4    8.50    4.21   1
  -4  -6  -4    5.74    4.10   1
  -4  -6  -5    1.05    2.29   1
  -4  -6  -5   11.81    3.88   1
  -4  -6  -6   28.29    5.21   1
  -4  -6  -6   25.42    8.84  -1
   4  -5  12   25.42    8.84   2
  -4  -6  -7    0.89    4.17   1
  -4  -6  -7    8.70    3.99   1
  -4  -6  -8    4.16    3.97   1
  -4  -6  -8    5.83    6.24  -1
   4  -5  13    5.83    6.24   2
  -4  -6  -9   23.22    3.24   1
  -4  -6  -9   18.47    4.93   1
  -4  -6 -10   20.86    4.77  -1
   4  -4  15   20.86    4.77   2
  -4  -6 -10   12.79    3.82  -1
   4  -4  15   12.79    3.82   2
  -4  -6 -11    6.09    4.47   1
  -4  -6 -11    6.43    4.26   1
  -4  -6 -12   41.13    4.31   1
  -4  -6 -12   30.61    4.35   1
   4   7 -13    6.08    1.85   1
   4   7 -13   -0.12    3.84   1
   4   7 -12    1.64    3.09   1
   4   7 -12    9.52    3.93   1
  -4  -7  11    6.99    3.00  -1
   4 -11  -2    6.99    3.00   2
  -4  -7  11    4.78    3.89  -1
   4 -11  -2    4.78    3.89   2
  -4  -7  10    9.36    3.33   1
  -4  -7  10    9.94    4.78   1
  -4  -7   9   14.81    2.42   1
  -4  -7   9   12.34    4.73   1
  -4  -7   8   -1.71    1.96   1
  -4  -7   8   12.51    7.25  -1
   4 -10   1   12.51    7.25   2
  -4  -7   7   30.53    4.69   1
  -4  -7   7   38.85    5.80   1
  -4  -7   6   -4.29    3.30   1
  -4  -7   6   -0.13    2.30   1
  -4  -7   5    2.41    4.30   1
  -4  -7   5   10.44    2.40   1
  -4  -7   4   26.08    7.63  -1
   4  -9   4   26.08    7.63   2
  -4  -7   4   21.67    7.87  -1
   4  -9   4   21.67    7.87   2
  -4  -7   3    7.05    4.45   1
  -4  -7   3   21.55    4.74   1
  -4  -7   2    6.85    2.59   1
  -4  -7   2    2.53    3.80   1
  -4  -7   1    9.74    4.46   1
  -4  -7   1    7.10    5.75  -1
   4  -8   7    7.10    5.75   2
  -4  -7   0    5.75    3.98   1
  -4  -7   0    3.64    2.41   1
  -4  -7  -1   25.49    5.45   1
  -4  -7  -1   35.52    5.36   1
  -4  -7  -2   21.50    5.00   1
  -4  -7  -2   16.21    4.48   1
  -4  -7  -3   25.19    5.55  -1
   4  -7  10   25.19    5.55   2
  -4  -7  -3   21.50    7.54  -1
   4  -7  10   21.50    7.54   2
  -4  -7  -4   -5.27    2.41   1
  -4  -7  -4    8.03    3.73   1
  -4  -7  -5    5.72    4.05   1
  -4  -7  -5   82.89   12.25  -1
   4  -6  12   82.89   12.25   2
  -4  -7  -6    4.58    2.70   1
  -4  -7  -6    6.64    3.93   1
  -4  -7  -7    6.96    4.51   1
  -4  -7  -7   11.66    7.14  -1
   4  -6  13   11.66    7.14   2
  -4  -7  -8    5.59    2.59   1
  -4  -7  -8    2.35    2.46   1
  -4  -7  -9    3.21    3.71   1
  -4  -7  -9    3.10    5.65  -1
   4  -5  15    3.10    5.65   2
  -4  -7 -10    5.31    7.14  -1
   4  -5  16    5.31    7.14   2
  -4  -7 -10   -8.95    6.10  -1
   4  -5  16   -8.95    6.10   2
  -4  -7 -11   -1.55    2.63   1
  -4  -7 -11   -4.07    2.43   1
  -4  -8  11    1.09    2.12   1
  -4  -8  11    5.57    2.64   1
  -4  -8  10    2.56    3.30   1
  -4  -8  10    4.11    4.19   1
  -4  -8   9    1.68    2.97   1
  -4  -8   9    3.49    4.08   1
  -4  -8   8    0.79    3.44   1
  -4  -8   8    3.97    4.05   1
  -4  -8   7    6.98    2.41   1
  -4  -8   7    6.06    4.36   1
  -4  -8   6    2.38    2.18   1
  -4  -8   6    2.65    3.96   1
  -4  -8   5    7.52    3.42  -1
   4 -10   4    7.52    3.42   2
  -4  -8   5    4.71    4.86  -1
   4 -10   4    4.71    4.86   2
  -4  -8   4   14.94    3.07   1
  -4  -8   4   11.86    4.63   1
  -4  -8   3    0.80    2.39   1
  -4  -8   3    4.94    2.37   1
  -4  -8   2   -2.30    3.83   1
  -4  -8   1   19.37    5.50   1
  -4  -8   1   15.61    6.76  -1
   4  -9   7   15.61    6.76   2
  -4  -8   0   12.22    4.56   1
  -4  -8   0    3.67    4.08   1
  -4  -8  -1   17.25    5.16   1
  -4  -8  -2   21.04    5.99  -1
   4  -8  10   21.04    5.99   2
  -4  -8  -2   19.77    8.02  -1
   4  -8  10   19.77    8.02   2
  -4  -8  -3    5.77    3.86   1
  -4  -8  -3   -5.33    3.51   1
  -4  -8  -4   -1.57    3.75   1
  -4  -8  -4    1.78    3.21   1
  -4  -8  -5    9.60    3.03   1
  -4  -8  -5   14.17    6.55  -1
   4  -7  13   14.17    6.55   2
  -4  -8  -6   10.96    4.21   1
  -4  -8  -6   -4.65    2.29   1
  -4  -8  -7    0.97    2.44   1
  -4  -8  -7    0.30    2.29   1
  -4  -8  -8   11.69    4.72   1
  -4  -8  -8    5.69    4.42   1
  -4  -9   8    9.24    4.10   1
  -4  -9   8    8.12    2.92   1
  -4  -9   7   -3.69    3.74   1
  -4  -9   7   -1.78    2.52   1
  -4  -9   6    8.52    3.82   1
  -4  -9   6    3.94    2.75   1
  -4  -9   5    1.85    7.27  -1
   4 -11   5    1.85    7.27   2
  -4  -9   5   15.77    7.13  -1
   4 -11   5   15.77    7.13   2
  -4  -9   4   -1.24    2.25   1
  -4  -9   4   11.51    3.70   1
  -4  -9   3    5.15    2.78   1
  -4  -9   3    0.97    4.07   1
  -4  -9   2    3.63    2.81   1
  -4  -9   2    3.11    4.14   1
  -4  -9   1   -3.39    4.23   1
  -4  -9   1   -1.76    6.77  -1
   4 -10   8   -1.76    6.77   2
  -4  -9   0   15.89    5.22   1
  -4  -9   0   10.41    4.66   1
  -4  -9  -1    7.71    2.99   1
  -4  -9  -1    7.75    4.33   1
  -4  -9  -2    3.61    6.67  -1
   4  -9  11    3.61    6.67   2
  -4  -9  -2   11.05    6.04  -1
   4  -9  11   11.05    6.04   2
  -4  -9  -3   -8.37    4.13   1
  -4  -9  -3    3.48    3.56   1
  -4  -9  -4    1.64    2.38   1
  -4  -9  -4    1.97    2.26   1
  -4  -9  -5    3.00    4.32   1
  -4  -9  -5    4.51    2.55   1
  -5  11   7    3.16    2.25   1
  -5  11   6    1.54    2.30   1
  -5  11   5   -1.45    2.37   1
  -5  11   4    6.36    2.82   1
  -5  11   3   -1.23    2.55   1
  -5  11   2   12.29    3.55   1
  -5  11   1   21.65    6.44  -1
   5   7 -10   21.65    6.44   2
  -5  11   0    1.33    1.64   1
  -5  11  -1    7.21    3.44   1
  -5  11  -2    2.35    1.83   1
  -5  11  -3    4.15    3.33   1
  -5  11  -4   -3.59    3.30   1
  -5  11  -5   -4.80    3.71   1
  -5  11  -6    1.93    5.56  -1
   5   9  -4    1.93    5.56   2
  -5  10   8   -2.01    2.56  -1
   5   4 -15   -2.01    2.56   2
  -5  10   7    1.13    2.00   1
  -5  10   6    3.69    2.22   1
  -5  10   5    5.94    2.33   1
  -5  10   4    6.42    1.80   1
  -5  10   3    5.40    2.66   1
  -5  10   2    4.93    2.96   1
  -5  10   1   13.51    4.34  -1
   5   6  -9   13.51    4.34   2
  -5  10   0   -0.48    2.41   1
  -5  10  -1   16.38    2.44   1
  -5  10  -2   -3.84    3.05   1
  -5  10  -3    8.43    2.25   1
  -5  10  -4   -0.92    3.01   1
  -5  10  -5   -0.44    3.25   1
  -5  10  -6   18.16    4.19  -1
   5   8  -3   18.16    4.19   2
  -5  10  -7    7.19    3.82   1
  -5  10  -8    0.43    3.30   1
  -5  10  -9    2.17    2.32   1
  -5   9   9    2.07    1.82   1
  -5   9   8    5.18    2.02   1
  -5   9   7    5.57    2.17   1
  -5   9   6    4.21    2.10   1
  -5   9   5    7.68    2.48   1
  -5   9   4    5.13    2.48   1
  -5   9   3   25.70    3.61   1
  -5   9   2   29.57    5.84  -1
   5   5  -9   29.57    5.84   2
  -5   9   1   -2.12    2.23   1
  -5   9   0   21.24    2.33   1
  -5   9  -1   -3.89    2.75   1
  -5   9  -2   13.83    3.32   1
  -5   9  -3    1.09    1.77   1
  -5   9  -3    1.69    1.35   1
  -5   9  -4    5.39    3.20   1
  -5   9  -4    3.23    1.58   1
  -5   9  -5   20.80    3.95  -1
   5   7  -3   20.80    3.95   2
  -5   9  -5   10.91    3.85  -1
   5   7  -3   10.91    3.85   2
  -5   9  -6   -2.06    3.14   1
  -5   9  -6    0.73    1.73   1
  -5   9  -7    6.06    3.76   1
  -5   9  -7    9.37    2.35   1
  -5   9  -8   13.33    2.65   1
  -5   9  -8    9.37    2.71   1
  -5   9  -9    0.78    3.66   1
  -5   9  -9    6.14    2.47   1
  -5   9 -10   -3.41    3.62   1
  -5   9 -10    3.22    2.24   1
  -5   9 -11   -0.21    3.52   1
  -5   9 -11    1.31    2.37   1
  -5   8   9    5.57    2.57  -1
   5   2 -14    5.57    2.57   2
  -5   8   8    0.77    1.58   1
  -5   8   7    2.29    1.69   1
  -5   8   6   10.66    2.25   1
  -5   8   5   21.73    3.00   1
  -5   8   4   10.87    2.60   1
  -5   8   3    5.80    1.54   1
  -5   8   2   11.56    3.71  -1
   5   4  -8   11.56    3.71   2
  -5   8   1    2.09    2.25   1
  -5   8   0   29.08    2.50   1
  -5   8   0   23.81    1.37   1
  -5   8  -1   -3.00    2.47   1
  -5   8  -1    1.06    0.85   1
  -5   8  -2   16.13    3.24   1
  -5   8  -2   14.51    1.95   1
  -5   8  -3    8.18    2.13   1
  -5   8  -3    7.61    1.50   1
  -5   8  -4   16.53    3.85   1
  -5   8  -4   16.21    2.14   1
  -5   8  -5   28.41    4.07  -1
   5   6  -2   28.41    4.07   2
  -5   8  -5   27.68    3.88  -1
   5   6  -2   27.68    3.88   2
  -5   8  -6    7.72    3.66   1
  -5   8  -6   11.46    2.37   1
  -5   8  -7    2.19    3.54   1
  -5   8  -7    6.95    2.17   1
  -5   8  -8   12.89    2.43   1
  -5   8  -8   11.00    2.77   1
  -5   8  -9    0.97    3.42   1
  -5   8  -9    3.22    2.34   1
  -5   8 -10    1.84    2.09   1
  -5   8 -10   -1.89    2.17   1
  -5   8 -11    2.10    3.71   1
  -5   8 -11    0.98    2.61   1
  -5   8 -12   12.36    6.36  -1
   5   8   4   12.36    6.36   2
  -5   8 -12    5.10    5.13  -1
   5   8   4    5.10    5.13   2
  -5   7  10    1.89    1.22   1
  -5   7   9   18.99    2.47   1
  -5   7   8   16.50    1.90   1
  -5   7   7    1.90    1.49   1
  -5   7   6   10.44    2.05   1
  -5   7   5   11.48    2.01   1
  -5   7   4   33.39    3.02   1
  -5   7   3   58.97    4.94  -1
   5   3  -8   58.97    4.94   2
  -5   7   2    0.23    1.18   1
  -5   7   1   32.29    3.16   1
  -5   7   0    2.05    2.10   1
  -5   7   0   -0.01    0.35   1
  -5   7   0    0.22    0.62   1
  -5   7  -1   18.56    2.14   1
  -5   7  -1   13.09    1.26   1
  -5   7  -1   17.43    1.29   1
  -5   7  -2    0.31    2.43   1
  -5   7  -2    1.43    0.90   1
  -5   7  -2    1.47    1.12   1
   5  -7   3    2.80    1.17   1
  -5   7  -3    3.43    2.59   1
  -5   7  -3    6.97    1.51   1
  -5   7  -4   41.76    5.99  -1
   5   5  -2   41.76    5.99   2
  -5   7  -4   41.54    3.78  -1
   5   5  -2   41.54    3.78   2
  -5   7  -5    8.16    3.46   1
  -5   7  -5   12.36    2.09   1
  -5   7  -6   16.83    2.44   1
  -5   7  -6   13.64    2.56   1
  -5   7  -7   28.26    4.40   1
  -5   7  -7   31.80    3.51   1
  -5   7  -8   16.28    2.71   1
  -5   7  -8   11.29    2.76   1
  -5   7  -9    0.38    3.50   1
  -5   7  -9    6.34    2.60   1
  -5   7 -10   -3.62    3.55   1
  -5   7 -10   -1.47    2.50   1
  -5   7 -11    3.92    4.25  -1
   5   7   4    3.92    4.25   2
  -5   7 -11    7.71    3.90  -1
   5   7   4    7.71    3.90   2
  -5   7 -12    6.08    3.50   1
  -5   7 -12   -1.42    2.80   1
  -5   7 -13    1.99    2.23   1
  -5   7 -13   -0.62    2.81   1
  -5   7 -14   -5.36    3.65   1
  -5   7 -14   -0.30    1.82   1
   5  -6 -11    4.47    1.46   1
   5  -6 -10    1.87    1.19  -1
  -5   0  13    1.87    1.19   2
  -5   6  10    3.18    1.51  -1
   5   0 -13    3.18    1.51   2
   5  -6  -9   -0.23    0.79   1
  -5   6   9    0.12    1.28   1
   5  -6  -8    2.15    0.65   1
   5  -6  -8    2.93    0.53   1
  -5   6   8    3.58    1.23   1
  -5   6   8    2.09    1.08   1
  -5   6   7   12.99    1.46   1
  -5   6   7   16.75    1.49   1
  -5   6   6   22.61    1.96   1
  -5   6   6   31.28    2.13   1
  -5   6   5   14.67    2.59   1
  -5   6   5   29.42    2.26   1
  -5   6   4   13.66    1.95   1
  -5   6   3   16.08    2.91  -1
   5   2  -7   16.08    2.91   2
  -5   6   2    0.02    1.60   1
  -5   6   1   39.52    3.37   1
  -5   6   0    1.42    1.12   1
  -5   6   0   -1.19    0.79   1
   5  -6   1   22.81    1.63   1
  -5   6  -1   29.87    3.20   1
  -5   6  -1   29.42    1.73   1
   5  -6   2   15.82    1.31   1
  -5   6  -2   15.91    2.94   1
  -5   6  -2   19.84    2.16   1
   5  -6   3   31.96    2.15   1
  -5   6  -3   41.09    2.66   1
  -5   6  -3   43.85    2.64   1
  -5   6  -4   56.95    6.75  -1
   5   4  -1   56.95    6.75   2
  -5   6  -4   58.09    4.44  -1
   5   4  -1   58.09    4.44   2
  -5   6  -5   19.85    2.64   1
  -5   6  -5   26.62    2.63   1
  -5   6  -6    4.50    3.00   1
  -5   6  -6    6.82    2.32   1
  -5   6  -7   46.10    3.70   1
  -5   6  -7   46.97    3.01   1
  -5   6  -8    1.03    2.87   1
  -5   6  -8    1.51    2.36   1
  -5   6  -9    0.80    2.13   1
  -5   6  -9    3.87    2.60   1
  -5   6 -10    2.59    3.79   1
  -5   6 -10    3.32    2.79   1
  -5   6 -11   22.30    4.69  -1
   5   6   5   22.30    4.69   2
  -5   6 -11   32.77    6.09  -1
   5   6   5   32.77    6.09   2
  -5   6 -12    2.80    3.71   1
  -5   6 -12    3.54    3.14   1
  -5   6 -13    1.65    3.89   1
  -5   6 -13    4.32    2.01   1
  -5   6 -14    4.34    3.86   1
  -5   6 -14    5.59    2.21   1
   5  -5 -15    4.73    2.03   1
   5  -5 -14   46.85    3.40   1
   5  -5 -13    0.15    1.53   1
   5  -5 -12   19.75    2.18   1
   5  -5 -11   45.58    3.83  -1
  -5   1  13   45.58    3.83   2
   5  -5 -10   25.46    2.03   1
   5  -5 -10   40.55    2.18   1
  -5   5  10   30.91    1.37   1
   5  -5  -9   25.46    1.47   1
   5  -5  -9   32.90    1.69   1
  -5   5   9   24.57    1.14   1
  -5   5   9   26.50    1.40   1
   5  -5  -8    2.93    1.00   1
   5  -5  -8    2.85    0.74   1
  -5   5   8    3.12    0.92   1
  -5   5   8    2.24    0.99   1
   5  -5  -7   13.66    1.06   1
   5  -5  -7   13.18    0.98   1
  -5   5   7    9.77    1.03   1
  -5   5   7   14.09    1.55   1
   5  -5  -6   35.42    1.27   1
   5  -5  -6   29.98    1.02   1
  -5   5   6   33.96    1.85   1
  -5   5   6   38.99    1.93   1
  -5   5   5   36.01    2.01   1
  -5   5   5   40.87    2.18   1
  -5   5   4   96.35    6.15  -1
   5   1  -7   96.35    6.15   2
  -5   5   4  101.68    5.54  -1
   5   1  -7  101.68    5.54   2
  -5   5   3    0.78    1.28   1
  -5   5   3    1.17    1.39   1
   5  -5  -1    1.68    0.59   1
  -5   5   1    2.29    1.06   1
  -5   5   1    1.99    0.77   1
   5  -5   0   24.68    1.50   1
  -5   5   0   26.52    2.85   1
  -5   5   0   31.79    1.89   1
   5  -5   1    4.48    0.94   1
  -5   5  -1    3.15    1.46   1
  -5   5  -1    6.22    1.56   1
   5  -5   2    8.55    1.13   1
  -5   5  -2    7.79    2.67   1
  -5   5  -2   11.04    1.60   1
   5  -5   3   54.96    3.91  -1
  -5  -3   1   54.96    3.91   2
  -5   5  -3   69.92    5.73  -1
   5   3  -1   69.92    5.73   2
  -5   5  -3   74.40    4.69  -1
   5   3  -1   74.40    4.69   2
  -5   5  -4   11.90    3.09   1
  -5   5  -4   12.31    2.20   1
  -5   5  -5   25.15    2.62   1
  -5   5  -5   28.63    3.02   1
  -5   5  -6   46.55    5.17   1
  -5   5  -6   48.10    3.82   1
  -5   5  -7   32.42    4.55   1
  -5   5  -7   26.43    3.34   1
  -5   5  -8    8.57    3.71   1
  -5   5  -8    6.76    2.80   1
  -5   5  -9   -3.42    3.40   1
  -5   5  -9   -2.48    1.61   1
  -5   5 -10    4.76    4.00  -1
   5   5   5    4.76    4.00   2
  -5   5 -10   -1.02    3.37  -1
   5   5   5   -1.02    3.37   2
  -5   5 -11   11.57    3.70   1
  -5   5 -11    0.10    1.80   1
  -5   5 -12    4.12    2.27   1
  -5   5 -12    6.05    2.05   1
  -5   5 -13    7.90    4.16   1
  -5   5 -13    5.08    2.23   1
  -5   5 -14    4.35    2.54   1
  -5   5 -14    3.75    2.17   1
  -5   5 -15    3.38    4.09   1
  -5   5 -15    3.94    2.14   1
   5  -4 -17    2.68    2.29   1
   5  -4 -16    5.32    2.39   1
   5  -4 -15   15.82    2.64   1
   5  -4 -14    5.15    2.13   1
   5  -4 -13   17.12    2.40   1
   5  -4 -12    6.66    1.74   1
   5  -4 -11    0.33    1.65  -1
  -5   2  12    0.33    1.65   2
   5  -4 -10   -0.76    1.13   1
   5  -4 -10    1.49    1.19   1
   5  -4  -9    1.59    0.97   1
   5  -4  -9    3.87    1.19   1
   5  -4  -8   23.31    1.61   1
   5  -4  -8   22.63    1.59   1
  -5   4   8   14.64    0.59   1
  -5   4   8   18.00    0.67   1
   5  -4  -7   44.63    2.34   1
   5  -4  -7   45.20    2.38   1
  -5   4   7    9.36    0.62   1
  -5   4   7   42.86    1.56   1
   5  -4  -6   53.18    2.41   1
   5  -4  -6   51.34    2.25   1
  -5   4   6   47.55    2.20   1
  -5   4   6   51.65    2.25   1
   5  -4  -5   15.10    1.24   1
   5  -4  -5   12.19    1.08   1
  -5   4   5   15.11    1.16   1
  -5   4   5   14.68    1.25   1
   5  -4  -4   20.18    1.61  -1
  -5   0   6   20.18    1.61   2
  -5   4   4    2.55    1.09  -1
   5   0  -6    2.55    1.09   2
  -5   4   4   20.81    2.36  -1
   5   0  -6   20.81    2.36   2
  -5   4   4   16.69    1.16  -1
   5   0  -6   16.69    1.16   2
   5  -4  -3   -1.02    1.06   1
   5  -4  -3   -0.11    0.69   1
  -5   4   3    2.34    1.23   1
  -5   4   3    0.23    0.73   1
   5  -4  -2   49.90    2.95   1
   5  -4  -2   41.63    1.56   1
  -5   4   2   45.35    2.75   1
  -5   4   2   47.78    2.09   1
   5  -4  -1    1.23    1.41   1
   5  -4  -1    1.29    0.74   1
  -5   4   1   -2.14    1.58   1
  -5   4   1    1.58    1.23   1
   5  -4   0   43.38    2.01   1
  -5   4   0   46.45    3.29   1
  -5   4   0   52.86    2.51   1
   5  -4   1   42.00    2.63   1
  -5   4  -1   47.83    3.67   1
  -5   4  -1   48.06    2.61   1
   5  -4   2   70.11    3.33   1
  -5   4  -2   79.06    3.78   1
  -5   4  -2   86.55    4.83   1
   5  -4   3   78.16    4.65  -1
  -5  -2   0   78.16    4.65   2
  -5   4  -3  100.15    7.17  -1
   5   2   0  100.15    7.17   2
  -5   4  -3   93.96    5.22  -1
   5   2   0   93.96    5.22   2
  -5   4  -4   59.56    5.02   1
  -5   4  -4   55.38    3.99   1
  -5   4  -5    7.27    1.95   1
  -5   4  -5    7.13    2.36   1
  -5   4  -6  115.17    7.82   1
  -5   4  -6  117.36    6.40   1
  -5   4  -7    4.22    2.09   1
  -5   4  -7    5.15    2.44   1
  -5   4  -8   -0.29    3.31   1
  -5   4  -8    3.36    2.48   1
  -5   4  -9   22.50    4.54   1
  -5   4  -9   15.56    3.59   1
  -5   4 -10   61.03    5.51  -1
   5   4   6   61.03    5.51   2
  -5   4 -10   45.91    6.37  -1
   5   4   6   45.91    6.37   2
  -5   4 -11    4.19    4.38   1
  -5   4 -11   13.69    2.17   1
  -5   4 -12    9.06    2.72   1
  -5   4 -12    7.92    2.21   1
  -5   4 -13   20.42    4.71   1
  -5   4 -13   11.82    2.44   1
  -5   4 -14    3.94    4.03   1
  -5   4 -14   -3.97    1.92   1
  -5   4 -15   17.63    3.26   1
  -5   4 -15   18.73    2.76   1
  -5   4 -16   13.03    4.81   1
  -5   4 -16    9.45    2.66   1
   5  -3 -18   24.12    2.76   1
   5  -3 -17    1.79    2.61   1
   5  -3 -16    6.31    2.42   1
   5  -3 -15   41.33    3.82   1
   5  -3 -14    2.06    2.05   1
   5  -3 -13   22.29    2.66   1
   5  -3 -12   53.33    5.25  -1
  -5   3  12   53.33    5.25   2
   5  -3 -11   64.30    3.67   1
   5  -3 -10   49.73    3.09   1
   5  -3  -9    1.61    1.28   1
   5  -3  -9    3.42    1.43   1
   5  -3  -8   12.05    1.61   1
   5  -3  -8   14.39    1.58   1
   5  -3  -7   86.14    4.19   1
   5  -3  -7   88.21    3.76   1
   5  -3  -6   45.88    2.30   1
   5  -3  -6   45.33    2.83   1
  -5   3   6    0.75    0.42   1
  -5   3   6   45.68    1.64   1
   5  -3  -5   63.73    2.75   1
   5  -3  -5  148.74    5.73  -1
  -5   1   6  148.74    5.73   2
  -5   3   5  153.67    6.32  -1
   5  -1  -6  153.67    6.32   2
  -5   3   5  146.03    7.00  -1
   5  -1  -6  146.03    7.00   2
   5  -3  -4    0.06    1.14   1
  -5   3   4   -0.26    0.93   1
  -5   3   4    1.37    1.29   1
   5  -3  -4    3.90    1.95  -1
  -5   1   5    3.90    1.95   2
   5  -3  -3   30.59    1.93   1
   5  -3  -3   24.70    1.95   1
  -5   3   3   31.01    2.11   1
  -5   3   3   32.07    1.93   1
   5  -3  -2    1.84    1.31   1
   5  -3  -2    2.17    0.98   1
  -5   3   2    2.15    1.46   1
  -5   3   2    2.09    1.52   1
   5  -3  -1   42.03    2.57   1
   5  -3  -1   35.26    2.35   1
  -5   3   1   41.66    3.03   1
  -5   3   1   36.53    2.40   1
   5  -3   0   13.28    1.96   1
   5  -3   0   14.53    1.53   1
  -5   3   0   15.32    2.35   1
  -5   3   0   17.94    1.82   1
   5  -3   1   10.84    1.46   1
  -5   3  -1   12.79    2.52   1
  -5   3  -1   10.24    1.84   1
   5  -3   2  101.43    5.89  -1
  -5  -1   0  101.43    5.89   2
  -5   3  -2  117.35    8.37  -1
   5   1   0  117.35    8.37   2
  -5   3  -2  123.57    6.10  -1
   5   1   0  123.57    6.10   2
   5  -3   3   13.52    1.94   1
  -5   3  -3   14.40    2.52   1
  -5   3  -3   49.29    6.79  -1
   5   1   1   49.29    6.79   2
  -5   3  -4   37.89    4.36   1
  -5   3  -4   37.79    3.29   1
  -5   3  -5  105.52    7.14   1
  -5   3  -5  100.00    5.92   1
  -5   3  -6   39.10    3.24   1
  -5   3  -6   41.27    4.11   1
  -5   3  -7   17.93    2.57   1
  -5   3  -7   18.25    2.07   1
  -5   3  -8   -3.90    3.40   1
  -5   3  -8   -5.27    2.67   1
  -5   3  -9    8.55    4.15  -1
   5   3   6    8.55    4.15   2
  -5   3  -9    1.71    2.54  -1
   5   3   6    1.71    2.54   2
  -5   3 -10    2.92    3.05   1
  -5   3 -10    6.88    5.09  -1
   5   3   7    6.88    5.09   2
  -5   3 -11    3.62    3.97   1
  -5   3 -11    6.95    3.27   1
  -5   3 -12   18.26    4.61   1
  -5   3 -12    4.13    3.58   1
  -5   3 -13   10.05    2.84   1
  -5   3 -13    6.69    3.68   1
  -5   3 -14   -1.33    3.72   1
  -5   3 -14    1.84    3.08   1
  -5   3 -15   10.04    5.01   1
  -5   3 -15   15.85    4.29   1
  -5   3 -16   39.78    4.80  -1
   5   5  12   39.78    4.80   2
  -5   3 -16   47.36    6.85  -1
   5   5  12   47.36    6.85   2
   5  -2 -18    8.56    3.08   1
   5  -2 -17    5.42    2.74   1
   5  -2 -16   17.53    3.02   1
   5  -2 -15    1.69    2.30   1
   5  -2 -14   16.37    1.96   1
   5  -2 -13   11.38    1.75   1
   5  -2 -12    1.07    2.34  -1
  -5   4  11    1.07    2.34   2
   5  -2 -11    2.97    2.09   1
   5  -2 -10    2.97    1.83   1
   5  -2  -9   25.49    2.56   1
   5  -2  -8   55.53    3.39   1
   5  -2  -7   69.57    3.59   1
  -5   2   7   -0.42    1.54   1
   5  -2  -6   18.63    1.85   1
  -5   2   6   22.04    1.12   1
  -5   2   6   21.93    2.20   1
   5  -2  -6   49.32    2.19  -1
  -5   2   6   49.32    2.19   2
   5  -2  -5   29.62    1.66  -1
  -5   2   5   29.62    1.66   2
   5  -2  -5   28.75    3.03  -1
  -5   2   5   28.75    3.03   2
  -5   2   5   30.61    1.89  -1
   5  -2  -5   30.61    1.89   2
  -5   2   5   29.00    2.93  -1
   5  -2  -5   29.00    2.93   2
   5  -2  -4    0.53    0.77   1
   5  -2  -4    0.17    1.15   1
  -5   2   4    0.11    0.92   1
  -5   2   4   -2.64    1.44   1
   5  -2  -3   36.62    1.88   1
   5  -2  -3   31.35    2.24   1
  -5   2   3   38.43    2.21   1
  -5   2   3   30.09    2.55   1
   5  -2  -2    1.18    1.22   1
   5  -2  -2    0.91    1.36   1
  -5   2   2    5.90    1.62   1
  -5   2   2    5.67    1.42   1
   5  -2  -1   64.52    3.16   1
   5  -2  -1   60.84    3.22   1
  -5   2   1   74.07    3.71   1
  -5   2   1   68.95    3.79   1
   5  -2   0   76.27    2.97   1
   5  -2   0   78.51    3.67   1
  -5   2   0   83.33    4.48   1
  -5   2   0   83.00    4.22   1
   5  -2   1   91.33    4.53   1
  -5   2  -1   92.51    4.10   1
  -5   2  -1  103.62    5.41   1
   5  -2   2  122.15    6.54  -1
  -5   0  -1  122.15    6.54   2
  -5   2  -2  144.70    7.98  -1
   5   0   1  144.70    7.98   2
  -5   2  -2  130.46    7.25  -1
   5   0   1  130.46    7.25   2
  -5   2  -3   83.90    5.30   1
  -5   2  -3  212.96   14.28  -1
   5   0   2  212.96   14.28   2
  -5   2  -4    2.33    3.14   1
  -5   2  -4   10.35    2.55   1
  -5   2  -5  231.60   12.46   1
  -5   2  -5  213.66   11.05   1
  -5   2  -6    0.90    3.20   1
  -5   2  -6    1.58    2.46   1
  -5   2  -7    3.32    3.30   1
  -5   2  -7    1.21    2.68   1
  -5   2  -8   62.17    6.31   1
  -5   2  -8   74.87    7.90  -1
   5   2   6   74.87    7.90   2
  -5   2  -9   68.80    5.61  -1
   5   2   7   68.80    5.61   2
  -5   2  -9   71.33    7.44  -1
   5   2   7   71.33    7.44   2
  -5   2 -10   15.20    2.95   1
  -5   2 -10   12.03    3.78   1
  -5   2 -11   19.04    4.67   1
  -5   2 -11   14.98    2.56   1
  -5   2 -12   20.14    4.96   1
  -5   2 -12   15.09    4.27   1
  -5   2 -13    1.11    2.20   1
  -5   2 -13   -3.70    3.28   1
  -5   2 -14   10.30    2.92   1
  -5   2 -14   13.68    4.27   1
  -5   2 -15   43.13    7.51  -1
   5   4  12   43.13    7.51   2
  -5   2 -15   40.81    8.07  -1
   5   4  12   40.81    8.07   2
  -5   2 -16    5.98    5.39  -1
   5   4  13    5.98    5.39   2
  -5   2 -16   -3.70    4.89  -1
   5   4  13   -3.70    4.89   2
   5  -1 -18    0.71    2.76   1
   5  -1 -17    0.12    2.52   1
   5  -1 -16   31.56    4.25   1
   5  -1 -15    3.34    1.68   1
   5  -1 -14   16.81    2.19   1
   5  -1 -13   51.21    4.66  -1
  -5   5  11   51.21    4.66   2
   5  -1 -12   60.07    4.73   1
   5  -1 -10    2.56    1.45   1
   5  -1  -9    9.30    2.48   1
   5  -1  -7   34.19    1.34   1
  -5   1   7   34.07    1.40   1
  -5   1   7   33.86    3.19   1
   5  -1  -6  143.50    5.14  -1
  -5   3   5  143.50    5.14   2
  -5   1   6  145.20    5.59  -1
   5  -3  -5  145.20    5.59   2
  -5   1   6  143.76    9.50  -1
   5  -3  -5  143.76    9.50   2
   5  -1  -5    0.24    1.52   1
  -5   1   5    2.63    1.07   1
   5  -1  -5    3.04    1.59  -1
  -5   3   4    3.04    1.59   2
  -5   1   5    0.83    1.92  -1
   5  -3  -4    0.83    1.92   2
   5  -1  -4   15.09    1.24   1
   5  -1  -4    9.64    1.23   1
  -5   1   4   11.14    1.54   1
  -5   1   4   14.08    2.44   1
   5  -1  -3    0.21    1.02   1
   5  -1  -3    2.32    1.45   1
  -5   1   3   -0.94    1.29   1
  -5   1   3    3.37    1.76   1
   5  -1  -2   37.42    2.24   1
   5  -1  -2   33.30    1.92   1
  -5   1   2   33.90    2.52   1
  -5   1   2   35.08    3.16   1
   5  -1  -1   26.17    2.19   1
   5  -1  -1   24.48    2.38   1
  -5   1   1   19.68    2.53   1
  -5   1   1   28.18    1.79   1
   5  -1   0    4.44    1.82   1
   5  -1   0    5.58    1.80   1
  -5   1   0    7.33    2.27   1
  -5   1   0    6.44    2.35   1
  -5   1  -1  135.89    7.08  -1
   5  -1   1  135.89    7.08   2
  -5   1  -1  132.32    7.73  -1
   5  -1   1  132.32    7.73   2
  -5   1  -2   20.29    2.18   1
  -5   1  -2   53.79    4.64  -1
   5  -1   2   53.79    4.64   2
  -5   1  -3   43.39    4.10   1
  -5   1  -3   33.19    2.54   1
  -5   1  -4  146.50    8.45   1
  -5   1  -4  132.71    7.84   1
  -5   1  -5   61.51    5.57   1
  -5   1  -5   58.13    5.33   1
  -5   1  -6   26.37    2.85   1
  -5   1  -6   27.16    3.99   1
  -5   1  -7   -1.39    1.91   1
  -5   1  -7    4.50    2.71   1
  -5   1  -8    5.13    2.40  -1
   5   1   7    5.13    2.40   2
  -5   1  -8   -2.93    4.03  -1
   5   1   7   -2.93    4.03   2
  -5   1  -9   -1.23    2.25   1
  -5   1  -9    0.10    2.89   1
  -5   1 -10   11.97    3.49   1
  -5   1 -10   21.21    7.45  -1
   5   1   9   21.21    7.45   2
  -5   1 -11   17.17    4.76   1
  -5   1 -11   24.80    4.58   1
  -5   1 -12   14.78    4.51   1
  -5   1 -12   11.50    2.84   1
  -5   1 -13   -6.52    3.83   1
  -5   1 -13    1.63    1.97   1
  -5   1 -14   10.33    4.10   1
  -5   1 -14   24.92    6.66  -1
   5   3  12   24.92    6.66   2
  -5   1 -15   80.40    5.98  -1
   5   3  13   80.40    5.98   2
  -5   1 -15   79.60   10.01  -1
   5   3  13   79.60   10.01   2
  -5   1 -16    4.29    4.08   1
  -5   1 -16    7.27    6.64  -1
   5   3  14    7.27    6.64   2
   5   0 -18    4.04    2.04   1
   5   0 -17    4.03    3.26   1
   5   0 -16    2.85    2.93   1
   5   0 -15   11.93    3.59   1
   5   0 -14    0.90    2.74   1
   5   0 -13    3.51    3.14  -1
  -5   6  10    3.51    3.14   2
   5   0 -12    0.53    0.68   1
   5   0 -12   -1.39    1.53   1
   5   0 -11    1.81    0.52   1
   5   0 -11    1.32    0.74   1
   5   0 -11    5.88    2.50   1
   5   0 -10   14.45    1.14   1
   5   0 -10   12.17    1.07   1
   5   0 -10   15.18    3.09   1
   5   0  -9   30.16    1.46   1
  -5   0   9   -1.43    1.83   1
   5   0  -8   63.66    2.29   1
  -5   0   8   65.25    2.71   1
  -5   0   8   69.93    3.56   1
   5   0  -7   18.37    1.57   1
  -5   0   7   16.11    1.71   1
  -5   0   7   23.02    3.05   1
   5   0  -6   18.63    1.80  -1
  -5   4   4   18.63    1.80   2
  -5   0   6   20.18    2.43  -1
   5  -4  -4   20.18    2.43   2
  -5   0   6   20.96    4.00  -1
   5  -4  -4   20.96    4.00   2
   5   0  -5   -0.01    0.98   1
  -5   0   5   -0.53    1.62   1
  -5   0   5   -0.78    1.34   1
   5   0  -4   10.93    1.48   1
  -5   0   4   13.67    1.88   1
  -5   0   4   16.88    2.72   1
   5   0  -3    2.09    1.34   1
  -5   0   3    1.29    1.55   1
  -5   0   3   47.87    6.00  -1
   5  -3  -1   47.87    6.00   2
   5   0  -2   59.46    2.50   1
  -5   0   2   62.14    3.13   1
   5   0  -1   90.51    4.43   1
  -5   0   1   99.20    4.13   1
  -5   0   1  102.71    5.83   1
  -5   0   0   62.79    4.75   1
  -5   0   0  188.10   10.95  -1
   5  -2   1  188.10   10.95   2
  -5   0  -1  149.35    7.98  -1
   5  -2   2  149.35    7.98   2
  -5   0  -1  136.47    8.63  -1
   5  -2   2  136.47    8.63   2
  -5   0  -2  104.55    6.44   1
  -5   0  -2   84.47    6.18   1
  -5   0  -3    1.09    1.61   1
  -5   0  -3   15.64    3.07   1
  -5   0  -4  259.29   12.96   1
  -5   0  -4  245.07   12.47   1
  -5   0  -5    0.54    1.75   1
  -5   0  -5    2.10    1.77   1
  -5   0  -6    0.90    1.91   1
  -5   0  -6    3.58    1.77   1
  -5   0  -7   89.72    6.52   1
  -5   0  -7   41.32    5.46   1
  -5   0  -8   73.56    7.03  -1
   5   0   8   73.56    7.03   2
  -5   0  -8   79.86    7.84  -1
   5   0   8   79.86    7.84   2
  -5   0  -9   21.96    4.57   1
  -5   0  -9   50.88    8.02  -1
   5   0   9   50.88    8.02   2
  -5   0 -10   39.13    5.53   1
  -5   0 -10   36.28    5.17   1
  -5   0 -11   24.77    4.75   1
  -5   0 -11   18.23    2.97   1
  -5   0 -12    7.66    4.42   1
  -5   0 -12   11.97    3.89   1
  -5   0 -13    0.65    3.47   1
  -5   0 -13   24.56    7.73  -1
   5   2  12   24.56    7.73   2
  -5   0 -14   58.50    7.47  -1
   5   2  13   58.50    7.47   2
  -5   0 -14   66.76    8.86  -1
   5   2  13   66.76    8.86   2
  -5   0 -15    1.07    2.55  -1
   5   2  14    1.07    2.55   2
  -5   0 -15   -2.03    2.85  -1
   5   2  14   -2.03    2.85   2
  -5   0 -16   31.17    5.62   1
  -5   0 -16   88.11   10.44  -1
   5   2  15   88.11   10.44   2
   5   1 -18    2.27    3.27   1
   5   1 -17   15.38    2.71   1
   5   1 -16   -1.15    2.00   1
   5   1 -15    6.62    2.10   1
   5   1 -14   40.08    4.82  -1
  -5   7  10   40.08    4.82   2
   5   1 -13   31.33    2.39   1
   5   1 -13   33.83    3.26   1
   5   1 -12   34.85    2.38   1
   5   1 -12   42.79    4.77   1
   5   1 -11    1.89    0.92   1
   5   1 -11    3.31    1.47   1
   5   1 -11    4.23    2.82   1
   5   1 -10    1.86    0.97   1
   5   1 -10    1.35    1.31   1
   5   1 -10    2.21    1.79   1
   5   1  -9   89.59    3.90   1
  -5  -1   9   95.86    4.02   1
  -5  -1   9  115.12    7.38   1
   5   1  -8   19.23    1.99   1
  -5  -1   8   18.72    1.80   1
  -5  -1   8   23.98    2.42   1
   5   1  -7  101.11    5.76  -1
  -5   5   4  101.11    5.76   2
  -5  -1   7  107.50    5.86  -1
   5  -5  -4  107.50    5.86   2
  -5  -1   7  120.18    9.92  -1
   5  -5  -4  120.18    9.92   2
   5   1  -6    2.64    1.29   1
  -5  -1   6    2.91    1.43   1
  -5  -1   6    4.01    2.42   1
   5   1  -5    3.54    1.47   1
  -5  -1   5    0.95    1.63   1
  -5  -1   5    4.69    2.50   1
   5   1  -4   -0.78    1.33   1
  -5  -1   4    3.18    1.63   1
  -5  -1   4    2.13    4.44  -1
   5  -4  -1    2.13    4.44   2
   5   1  -3   17.34    2.22   1
  -5  -1   3   17.44    2.58   1
  -5  -1   3   24.30    3.35   1
  -5  -1   2   30.42    3.22   1
  -5  -1   2   30.37    3.73   1
  -5  -1   1   -0.48    2.21   1
  -5  -1   1    5.32    2.58   1
  -5  -1   0  117.39    7.24  -1
   5  -3   2  117.39    7.24   2
  -5  -1   0  109.06    9.06  -1
   5  -3   2  109.06    9.06   2
  -5  -1  -1   19.40    3.49   1
  -5  -1  -1   38.59    4.97  -1
   5  -3   3   38.59    4.97   2
  -5  -1  -2   28.85    2.49   1
  -5  -1  -2   19.49    2.32   1
  -5  -1  -3  107.99    5.68   1
  -5  -1  -3  319.27   22.10  -1
   5  -2   5  319.27   22.10   2
  -5  -1  -4   66.42    5.75   1
  -5  -1  -4   51.27    3.75   1
  -5  -1  -5   21.09    2.60   1
  -5  -1  -6    7.08    3.50   1
  -5  -1  -6    3.48    5.33  -1
   5  -1   7    3.48    5.33   2
  -5  -1  -7   -1.92    3.35  -1
   5  -1   8   -1.92    3.35   2
  -5  -1  -7    2.48    3.53  -1
   5  -1   8    2.48    3.53   2
  -5  -1  -8   -3.08    2.18   1
  -5  -1  -8   -3.46    4.83  -1
   5  -1   9   -3.46    4.83   2
  -5  -1  -9    6.54    2.52   1
  -5  -1  -9   12.37    3.94   1
  -5  -1 -10   40.45    5.93   1
  -5  -1 -10   39.34    3.60   1
  -5  -1 -11   22.73    5.03   1
  -5  -1 -11   21.44    4.45   1
  -5  -1 -12    0.85    3.86   1
  -5  -1 -12    1.45    2.17   1
  -5  -1 -13   19.13    4.82   1
  -5  -1 -13    5.28    4.22   1
  -5  -1 -14   95.66    8.95  -1
   5   1  14   95.66    8.95   2
  -5  -1 -14   85.63   10.80  -1
   5   1  14   85.63   10.80   2
  -5  -1 -15   12.82    4.99  -1
   5   1  15   12.82    4.99   2
  -5  -1 -15    7.80    6.46  -1
   5   1  15    7.80    6.46   2
   5   2 -17   -1.36    2.23   1
   5   2 -16   -0.95    2.01   1
   5   2 -15    5.63    2.24   1
   5   2 -14    1.44    2.43  -1
  -5   8   9    1.44    2.43   2
   5   2 -13    2.66    1.43   1
   5   2 -13    2.84    2.08   1
   5   2 -12    3.32    1.97   1
   5   2 -12    6.04    3.39   1
   5   2 -11    4.77    1.32   1
   5   2 -11    9.12    1.58   1
   5   2 -11   12.66    3.63   1
   5   2 -10   12.91    1.79   1
  -5  -2  10   19.42    2.08   1
  -5  -2  10   20.30    2.75   1
   5   2  -9   36.31    2.70   1
  -5  -2   9   44.22    2.91   1
  -5  -2   9   53.47    4.95   1
   5   2  -8    9.96    1.67   1
  -5  -2   8   10.69    2.03   1
  -5  -2   8   16.17    3.36   1
  -5  -2   7   14.16    2.83  -1
   5  -6  -3   14.16    2.83   2
  -5  -2   7   22.91    4.74  -1
   5  -6  -3   22.91    4.74   2
  -5  -2   6    0.57    1.65   1
  -5  -2   6    0.37    1.46   1
  -5  -2   5    4.79    1.99   1
  -5  -2   5    1.75    2.93   1
  -5  -2   4    3.41    1.40   1
  -5  -2   3   43.54    3.96   1
  -5  -2   3   45.47    7.46  -1
   5  -5   0   45.47    7.46   2
  -5  -2   2   79.65    5.40   1
  -5  -2   2   72.19    4.12   1
  -5  -2   1   27.22    2.55   1
  -5  -2   1  121.52    8.69  -1
   5  -4   2  121.52    8.69   2
  -5  -2   0   99.28    7.20  -1
   5  -4   3   99.28    7.20   2
  -5  -2   0   95.58    8.13  -1
   5  -4   3   95.58    8.13   2
  -5  -2  -1   78.51    6.00   1
  -5  -2  -1   69.23    6.17   1
  -5  -2  -2    4.52    3.36   1
  -5  -2  -2   11.03    2.22   1
  -5  -2  -3  199.16    9.16   1
  -5  -2  -3  179.19   10.69   1
  -5  -2  -4    9.34    2.24   1
  -5  -2  -4   43.33    8.38  -1
   5  -3   6   43.33    8.38   2
  -5  -2  -5   -0.36    3.36   1
  -5  -2  -5    4.91    3.41   1
  -5  -2  -6   40.65    5.32   1
  -5  -2  -6   79.93    8.54  -1
   5  -2   8   79.93    8.54   2
  -5  -2  -7   65.10    7.77  -1
   5  -2   9   65.10    7.77   2
  -5  -2  -7   68.07    7.80  -1
   5  -2   9   68.07    7.80   2
  -5  -2  -8   19.07    4.47   1
  -5  -2  -8   42.65    7.74  -1
   5  -2  10   42.65    7.74   2
  -5  -2  -9   38.53    3.87   1
  -5  -2  -9   43.45    3.82   1
  -5  -2 -10   18.74    3.20   1
  -5  -2 -10   14.00    4.86   1
  -5  -2 -11   17.50    3.20   1
  -5  -2 -11   15.08    2.94   1
  -5  -2 -12   10.92    4.64   1
  -5  -2 -12   17.41    7.70  -1
   5   0  13   17.41    7.70   2
  -5  -2 -13   30.12    3.74   1
  -5  -2 -13   57.37    8.04  -1
   5   0  14   57.37    8.04   2
  -5  -2 -14   -5.93    4.70  -1
   5   0  15   -5.93    4.70   2
  -5  -2 -14    0.95    4.89  -1
   5   0  15    0.95    4.89   2
  -5  -2 -15   27.13    5.33   1
  -5  -2 -15   94.57   13.12  -1
   5   0  16   94.57   13.12   2
   5   3 -17    3.35    2.18   1
   5   3 -16    5.57    2.17   1
   5   3 -15   24.44    5.23  -1
  -5   9   9   24.44    5.23   2
   5   3 -14   10.01    2.93   1
   5   3 -14   15.67    2.87   1
   5   3 -13   23.88    2.69   1
   5   3 -13   25.14    3.24   1
   5   3 -12    0.75    2.44   1
   5   3 -12   11.73    2.34   1
  -5  -3  11   -0.31    1.12   1
  -5  -3  11   -3.68    2.17   1
  -5  -3  10   68.61    4.20   1
  -5  -3  10   85.24    7.21   1
  -5  -3   9    7.75    1.99   1
  -5  -3   9    4.66    3.65   1
  -5  -3   8   64.51    6.09  -1
   5  -7  -3   64.51    6.09   2
  -5  -3   8   74.67    9.50  -1
   5  -7  -3   74.67    9.50   2
  -5  -3   7    2.00    2.07   1
  -5  -3   7    3.72    3.38   1
  -5  -3   6    1.05    2.12   1
  -5  -3   6   -0.39    2.69   1
  -5  -3   5    1.44    2.27   1
  -5  -3   4   17.10    3.01   1
  -5  -3   4   11.11    6.29  -1
   5  -6   0   11.11    6.29   2
  -5  -3   3   16.68    2.24   1
  -5  -3   3   19.93    2.61   1
  -5  -3   2   -0.58    2.59   1
  -5  -3   2   -0.06    2.81   1
  -5  -3   1   76.78    6.92  -1
   5  -5   3   76.78    6.92   2
  -5  -3   1   74.86    7.55  -1
   5  -5   3   74.86    7.55   2
  -5  -3   0   15.10    2.32   1
  -5  -3   0   20.30    4.04   1
  -5  -3  -1   12.94    2.35   1
  -5  -3  -1   15.04    2.32   1
  -5  -3  -2   59.05    4.26   1
  -5  -3  -2  181.55   15.39  -1
   5  -4   6  181.55   15.39   2
  -5  -3  -3   49.52    5.61   1
  -5  -3  -3   42.04    3.72   1
  -5  -3  -4   16.31    4.27   1
  -5  -3  -4   19.87    2.72   1
  -5  -3  -5   -0.09    1.90   1
  -5  -3  -5    4.99    3.40   1
  -5  -3  -6    2.90    3.83  -1
   5  -3   9    2.90    3.83   2
  -5  -3  -6   -4.03    4.76  -1
   5  -3   9   -4.03    4.76   2
  -5  -3  -7   -0.40    2.19   1
  -5  -3  -7   -7.14    5.82  -1
   5  -3  10   -7.14    5.82   2
  -5  -3  -8    4.90    4.08   1
  -5  -3  -8    3.39    2.25   1
  -5  -3  -9   28.47    5.31   1
  -5  -3  -9   29.94    5.36   1
  -5  -3 -10   18.95    2.90   1
  -5  -3 -10   10.92    2.93   1
  -5  -3 -11   10.32    2.78   1
  -5  -3 -11    8.75    4.32   1
  -5  -3 -12   15.02    4.31   1
  -5  -3 -12    3.54    2.37   1
  -5  -3 -13   69.83    7.99  -1
   5  -1  15   69.83    7.99   2
  -5  -3 -13   77.62   10.61  -1
   5  -1  15   77.62   10.61   2
  -5  -3 -14    0.77    2.57   1
  -5  -3 -14    2.81    4.90  -1
   5  -1  16    2.81    4.90   2
   5   4 -16   11.44    4.24   1
   5   4 -15    9.38    4.88  -1
  -5  10   8    9.38    4.88   2
   5   4 -14   -0.58    2.19   1
   5   4 -14    6.14    3.60   1
   5   4 -13    1.52    1.99   1
   5   4 -13   -2.85    3.33   1
   5   4 -12    7.01    2.28   1
   5   4 -12   12.89    4.17   1
  -5  -4  11    9.65    1.61   1
  -5  -4  11    7.29    2.78   1
  -5  -4  10   25.83    3.22   1
  -5  -4  10   31.60    3.31   1
  -5  -4   9    5.44    2.32   1
  -5  -4   9   10.21    2.47   1
  -5  -4   8    5.55    3.48  -1
   5  -8  -2    5.55    3.48   2
  -5  -4   8    9.56    5.19  -1
   5  -8  -2    9.56    5.19   2
  -5  -4   7   -1.48    1.45   1
  -5  -4   7    2.63    1.90   1
  -5  -4   6    3.15    2.38   1
  -5  -4   6   -0.02    2.83   1
  -5  -4   5    4.62    2.94   1
  -5  -4   5   22.98    7.45  -1
   5  -7   1   22.98    7.45   2
  -5  -4   4   25.22    2.45   1
  -5  -4   4   27.44    3.10   1
  -5  -4   3   44.19    4.74   1
  -5  -4   3   38.95    5.33   1
  -5  -4   2   10.39    3.53   1
  -5  -4   2    7.18    2.23   1
  -5  -4   1   57.95    7.13  -1
   5  -6   4   57.95    7.13   2
  -5  -4   1   58.00    7.86  -1
   5  -6   4   58.00    7.86   2
  -5  -4   0   39.37    3.40   1
  -5  -4   0   39.17    5.15   1
  -5  -4  -1   -1.02    1.88   1
  -5  -4  -1    2.05    1.91   1
  -5  -4  -2   98.15    5.85   1
  -5  -4  -2   90.35    7.13   1
  -5  -4  -3   -1.06    3.27   1
  -5  -4  -3   34.92    6.09  -1
   5  -5   7   34.92    6.09   2
  -5  -4  -4    4.33    3.74   1
  -5  -4  -4   -0.08    3.41   1
  -5  -4  -5   43.27    3.67   1
  -5  -4  -5   53.94    8.47  -1
   5  -4   9   53.94    8.47   2
  -5  -4  -6   52.17    8.05  -1
   5  -4  10   52.17    8.05   2
  -5  -4  -6   54.63    8.19  -1
   5  -4  10   54.63    8.19   2
  -5  -4  -7   13.09    2.97   1
  -5  -4  -7   20.82    4.68   1
  -5  -4  -8   42.60    5.58   1
  -5  -4  -8   33.59    6.05   1
  -5  -4  -9   14.17    4.54   1
  -5  -4  -9    7.56    2.83   1
  -5  -4 -10   23.94    3.20   1
  -5  -4 -10   23.39    5.11   1
  -5  -4 -11    1.42    3.87   1
  -5  -4 -11    1.13    3.92   1
  -5  -4 -12   15.75    5.02   1
  -5  -4 -12   34.48    7.09  -1
   5  -2  15   34.48    7.09   2
  -5  -4 -13    5.26    6.06  -1
   5  -2  16    5.26    6.06   2
  -5  -4 -13    9.99    3.79  -1
   5  -2  16    9.99    3.79   2
   5   5 -15    4.00    2.54   1
   5   5 -14   10.28    2.89   1
   5   5 -14    9.64    2.93   1
   5   5 -13   -4.31    2.35   1
   5   5 -13   -2.17    2.39   1
   5   5 -12    1.54    2.37   1
  -5  -5  11   36.35    4.18   1
  -5  -5  11   43.38    4.25   1
  -5  -5  10    1.69    1.47   1
  -5  -5  10   -3.42    3.32   1
  -5  -5   9   25.39    5.36  -1
   5  -9  -2   25.39    5.36   2
  -5  -5   9   32.53    8.50  -1
   5  -9  -2   32.53    8.50   2
  -5  -5   8    5.27    1.71   1
  -5  -5   8   11.40    3.74   1
  -5  -5   7    2.83    2.46   1
  -5  -5   7   -0.06    2.15   1
  -5  -5   6   -0.14    1.67   1
  -5  -5   6   -2.87    1.84   1
  -5  -5   5    8.34    3.25   1
  -5  -5   5   -2.24    5.17  -1
   5  -8   1   -2.24    5.17   2
  -5  -5   4   12.57    3.67   1
  -5  -5   4    9.28    4.28   1
  -5  -5   3    2.53    2.01   1
  -5  -5   3    8.61    2.37   1
  -5  -5   2   30.80    5.73  -1
   5  -7   4   30.80    5.73   2
  -5  -5   2   42.88    7.84  -1
   5  -7   4   42.88    7.84   2
  -5  -5   1   14.46    4.32   1
  -5  -5   1   13.25    4.16   1
  -5  -5   0    9.33    3.76   1
  -5  -5   0    2.07    2.15   1
  -5  -5  -1   29.89    3.45   1
  -5  -5  -1   26.93    3.25   1
  -5  -5  -2   17.58    2.97   1
  -5  -5  -2    9.01    4.51   1
  -5  -5  -3   14.91    2.87   1
  -5  -5  -3    1.06    5.71  -1
   5  -6   8    1.06    5.71   2
  -5  -5  -4    4.15    3.86   1
  -5  -5  -4    3.73    3.92   1
  -5  -5  -5    7.66    4.62  -1
   5  -5  10    7.66    4.62   2
  -5  -5  -5   -0.89    5.24  -1
   5  -5  10   -0.89    5.24   2
  -5  -5  -6    5.57    4.38   1
  -5  -5  -6    9.80    4.19   1
  -5  -5  -7    5.22    2.44   1
  -5  -5  -7    1.49    3.84   1
  -5  -5  -8   22.33    5.04   1
  -5  -5  -8   26.37    3.53   1
  -5  -5  -9   18.35    3.21   1
  -5  -5  -9   16.28    4.95   1
  -5  -5 -10    5.06    4.30   1
  -5  -5 -10    9.36    7.53  -1
   5  -4  14    9.36    7.53   2
  -5  -5 -11    4.07    3.93   1
  -5  -5 -11    4.60    2.64   1
  -5  -5 -12   45.89    7.26  -1
   5  -3  16   45.89    7.26   2
  -5  -5 -12   54.80    9.60  -1
   5  -3  16   54.80    9.60   2
   5   6 -13    2.16    2.47   1
   5   6 -13   -2.36    3.81   1
  -5  -6  12    1.15    1.62   1
  -5  -6  12   -0.35    2.32   1
  -5  -6  11   12.60    3.12   1
  -5  -6  11   18.11    4.58   1
  -5  -6  10    3.97    1.59   1
  -5  -6  10    0.64    4.11   1
  -5  -6   9    7.63    4.14  -1
   5 -10  -1    7.63    4.14   2
  -5  -6   9    9.19    5.64  -1
   5 -10  -1    9.19    5.64   2
  -5  -6   8    6.82    3.00   1
  -5  -6   8   -0.25    3.95   1
  -5  -6   7    2.77    1.81   1
  -5  -6   7   -2.92    3.75   1
  -5  -6   6    1.64    3.12   1
  -5  -6   6   18.63    6.41  -1
   5  -9   2   18.63    6.41   2
  -5  -6   5   11.39    4.00   1
  -5  -6   5   16.37    3.00   1
  -5  -6   4   20.85    4.79   1
  -5  -6   4   23.59    5.20   1
  -5  -6   3   -4.77    3.32   1
  -5  -6   2   25.37    6.44  -1
   5  -8   5   25.37    6.44   2
  -5  -6   2   30.08    7.47  -1
   5  -8   5   30.08    7.47   2
  -5  -6   1   24.22    3.16   1
  -5  -6   1   21.92    3.22   1
  -5  -6   0   -3.73    3.65   1
  -5  -6   0   -0.61    2.20   1
  -5  -6  -1   48.90    6.42   1
  -5  -6  -1   41.48    6.11   1
  -5  -6  -2    1.28    3.95   1
  -5  -6  -2   26.99    7.64  -1
   5  -7   8   26.99    7.64   2
  -5  -6  -3   -0.27    3.63   1
  -5  -6  -4   32.73    5.14   1
  -5  -6  -4   43.64   10.27  -1
   5  -6  10   43.64   10.27   2
  -5  -6  -5   27.49    8.03  -1
   5  -6  11   27.49    8.03   2
  -5  -6  -5   32.33    7.12  -1
   5  -6  11   32.33    7.12   2
  -5  -6  -6    6.83    2.88   1
  -5  -6  -6    6.96    2.75   1
  -5  -6  -7   25.50    5.35   1
  -5  -6  -7   25.33    3.59   1
  -5  -6  -8    4.26    2.72   1
  -5  -6  -8    3.73    4.22   1
  -5  -6  -9   21.14    5.15   1
  -5  -6  -9   26.55    7.20  -1
   5  -5  14   26.55    7.20   2
  -5  -6 -10   -0.70    4.07   1
  -5  -6 -10    1.94    2.50   1
  -5  -6 -11    5.58    4.53   1
  -5  -6 -11   33.47    9.21  -1
   5  -4  16   33.47    9.21   2
  -5  -7  12    0.14    1.73   1
  -5  -7  12    3.34    2.54   1
  -5  -7  11    7.79    2.94   1
  -5  -7  11   -1.16    4.36   1
  -5  -7  10   10.80    4.70  -1
   5 -11  -1   10.80    4.70   2
  -5  -7  10   22.97    8.32  -1
   5 -11  -1   22.97    8.32   2
  -5  -7   9    5.93    2.02   1
  -5  -7   9    6.52    4.37   1
  -5  -7   8    4.77    2.92   1
  -5  -7   8   -0.04    4.14   1
  -5  -7   7   -3.89    3.11   1
  -5  -7   7    6.68    3.73   1
  -5  -7   6    9.58    3.62   1
  -5  -7   6    4.42    3.95   1
  -5  -7   5    4.46    3.76   1
  -5  -7   5    9.10    4.26   1
  -5  -7   4    4.87    3.78   1
  -5  -7   4    5.95    2.57   1
  -5  -7   3   15.53    6.13  -1
   5  -9   5   15.53    6.13   2
  -5  -7   3   22.58    5.11  -1
   5  -9   5   22.58    5.11   2
  -5  -7   2    5.13    4.16   1
  -5  -7   2    7.56    2.73   1
  -5  -7   1    4.38    3.88   1
  -5  -7   1    1.87    2.31   1
  -5  -7   0   15.54    4.88   1
  -5  -7   0   24.63    5.19   1
  -5  -7  -1    8.08    4.12   1
  -5  -7  -1    7.93    4.00   1
  -5  -7  -2   10.99    3.06   1
  -5  -7  -2    8.46    4.27   1
  -5  -7  -3    0.73    3.97   1
  -5  -7  -3    1.65    3.70   1
  -5  -7  -4    7.97    5.89  -1
   5  -7  11    7.97    5.89   2
  -5  -7  -4    7.71    5.38  -1
   5  -7  11    7.71    5.38   2
  -5  -7  -5    2.67    2.52   1
  -5  -7  -6   -6.36    3.92   1
  -5  -7  -6    0.03    2.30   1
  -5  -7  -7   11.60    2.99   1
  -5  -7  -7   12.41    5.01   1
  -5  -7  -8   15.57    4.86   1
  -5  -7  -8   10.06    4.72   1
  -5  -8   9   -0.47    3.23   1
  -5  -8   9    3.10    2.56   1
  -5  -8   8    3.42    2.98   1
  -5  -8   8   -2.00    2.29   1
  -5  -8   7   -0.25    3.30   1
  -5  -8   6    9.51    3.93   1
  -5  -8   6    9.23    4.69   1
  -5  -8   5    5.82    4.16   1
  -5  -8   5    4.20    3.93   1
  -5  -8   4   -2.52    4.00   1
  -5  -8   4   -5.41    4.15   1
  -5  -8   3   16.09    7.39  -1
   5 -10   6   16.09    7.39   2
  -5  -8   3   25.46    8.20  -1
   5 -10   6   25.46    8.20   2
  -5  -8   2    5.61    4.75   1
  -5  -8   2   13.93    4.77   1
  -5  -8   1    0.82    4.01   1
  -5  -8   1    1.65    3.87   1
  -5  -8   0   10.29    4.95   1
  -5  -8   0   11.33    4.79   1
  -5  -8  -1    6.55    2.90   1
  -5  -8  -1    6.42    7.13  -1
   5  -9   9    6.42    7.13   2
  -5  -8  -2   -0.19    3.78   1
  -5  -8  -2   -2.85    3.83   1
  -5  -8  -3   15.96    5.28   1
  -5  -8  -3   18.12    3.07   1
  -5  -8  -4   29.53    7.42  -1
   5  -8  12   29.53    7.42   2
  -5  -8  -4   17.52    5.20  -1
   5  -8  12   17.52    5.20   2
  -5  -8  -5    0.66    4.28   1
  -5  -8  -5    0.68    4.03   1
  -5  -8  -6   16.09    3.38   1
  -5  -8  -6   28.66    8.70  -1
   5  -7  14   28.66    8.70   2
  -5  -9   3   -6.66    4.11   1
  -5  -9   3   -0.16    4.26   1
  -5  -9   2   -2.77    3.85   1
  -5  -9   2    0.38    3.96   1
  -5  -9   1    6.06    4.66   1
  -5  -9   1    6.98    5.32  -1
   5 -10   9    6.98    5.32   2
  -5  -9   0    2.57    2.77   1
  -5  -9   0   -1.50    3.92   1
  -6  11   5    5.94    1.68   1
  -6  11   4   11.75    2.80   1
  -6  11   3   -0.81    2.44   1
  -6  11   2   -0.57    2.38   1
  -6  11   1    0.80    2.56   1
  -6  11   0    1.52    2.75   1
  -6  11  -1   -1.57    4.05  -1
   6   7  -8   -1.57    4.05   2
  -6  11  -2   -1.70    2.84   1
  -6  11  -3    5.00    3.41   1
  -6  10   6    2.35    1.28   1
  -6  10   5    2.70    2.24   1
  -6  10   4   14.43    2.01   1
  -6  10   3   -0.34    2.17   1
  -6  10   2   12.37    3.01   1
  -6  10   1   -0.04    2.28   1
  -6  10   0   -1.32    4.47  -1
   6   6  -8   -1.32    4.47   2
  -6  10  -1   10.59    2.97   1
  -6  10  -2    8.35    2.35   1
  -6  10  -3    5.32    3.31   1
  -6  10  -4   -1.05    1.82   1
  -6  10  -5    7.47    3.34   1
  -6  10  -6    1.90    2.03   1
  -6  10  -7    4.04    5.46  -1
   6   8  -2    4.04    5.46   2
  -6   9   7    2.71    2.17  -1
   6   3 -13    2.71    2.17   2
  -6   9   6    3.45    2.04   1
  -6   9   5   19.69    2.84   1
  -6   9   4   -0.13    1.93   1
  -6   9   3   10.83    2.62   1
  -6   9   2   -0.57    2.17   1
  -6   9   1    8.38    2.72   1
  -6   9   0   12.79    4.09  -1
   6   5  -7   12.79    4.09   2
  -6   9  -1    1.25    2.73   1
  -6   9  -2    4.99    2.97   1
  -6   9  -3    4.56    3.03   1
  -6   9  -4    2.28    3.12   1
  -6   9  -5    3.83    3.23   1
  -6   9  -6   -0.16    1.81   1
  -6   9  -7    6.48    5.24  -1
   6   7  -1    6.48    5.24   2
  -6   9  -8    5.26    2.45   1
  -6   9  -9   -5.24    3.45   1
  -6   9  -9    4.03    2.28   1
  -6   8   7   -1.08    1.50   1
  -6   8   6    1.04    1.67   1
  -6   8   5   42.13    3.33   1
  -6   8   4    0.91    1.11   1
  -6   8   3   10.00    2.28   1
  -6   8   2    1.78    1.35   1
  -6   8   1   13.86    4.68  -1
   6   4  -7   13.86    4.68   2
  -6   8   0    6.52    1.77   1
  -6   8  -1   19.79    3.17   1
  -6   8  -2    8.21    1.93   1
  -6   8  -3    1.91    2.52   1
  -6   8  -3    1.19    1.80   1
  -6   8  -4   11.68    2.17   1
  -6   8  -4   12.39    2.05   1
  -6   8  -5    8.21    3.22   1
  -6   8  -5    9.62    2.08   1
  -6   8  -6   10.23    4.49  -1
   6   6  -1   10.23    4.49   2
  -6   8  -6   11.12    3.66  -1
   6   6  -1   11.12    3.66   2
  -6   8  -7   11.04    3.99   1
  -6   8  -7   13.40    1.93   1
  -6   8  -8    0.01    2.00   1
  -6   8  -8   -1.78    2.26   1
  -6   8  -9    7.44    3.58   1
  -6   8  -9    3.01    2.60   1
  -6   8 -10    3.34    2.33   1
  -6   8 -10    8.26    2.85   1
  -6   8 -11    4.35    3.79   1
  -6   8 -11    1.72    2.88   1
  -6   7   8    3.81    1.50  -1
   6   1 -12    3.81    1.50   2
  -6   7   7    8.42    1.56   1
  -6   7   6   49.18    3.67   1
  -6   7   5   -0.57    1.47   1
  -6   7   4   23.12    2.38   1
  -6   7   3    1.48    1.74   1
  -6   7   2    2.92    2.06   1
  -6   7   1   10.55    2.04  -1
   6   3  -6   10.55    2.04   2
  -6   7   0    2.18    2.21   1
  -6   7   0    1.27    0.90   1
  -6   7  -1   20.07    1.97   1
  -6   7  -1   14.40    1.32   1
  -6   7  -2   13.56    3.33   1
  -6   7  -2   19.39    1.77   1
  -6   7  -3   16.63    3.42   1
  -6   7  -3   18.61    2.09   1
  -6   7  -4    9.04    3.21   1
  -6   7  -4   10.43    2.05   1
  -6   7  -5    0.76    3.00   1
  -6   7  -5    3.73    1.87   1
  -6   7  -6    8.58    4.18  -1
   6   5   0    8.58    4.18   2
  -6   7  -6   10.19    3.25  -1
   6   5   0   10.19    3.25   2
  -6   7  -7   16.33    3.96   1
  -6   7  -7   15.65    2.79   1
  -6   7  -8    3.97    2.18   1
  -6   7  -8    5.91    2.18   1
  -6   7  -9    0.67    3.70   1
  -6   7  -9    6.51    2.56   1
  -6   7 -10   -1.65    2.30   1
  -6   7 -10    4.02    2.70   1
  -6   7 -11    8.72    4.14   1
  -6   7 -11    9.00    3.30   1
  -6   7 -12    7.17    2.56   1
  -6   7 -12    3.58    3.07   1
  -6   6   8   -0.65    1.10   1
  -6   6   7    1.03    1.32   1
  -6   6   6   43.63    2.72   1
  -6   6   6   53.80    3.18   1
  -6   6   5    1.05    1.61   1
  -6   6   5   -0.66    1.18   1
  -6   6   4    9.97    1.77   1
  -6   6   3    3.91    1.69   1
  -6   6   2   36.50    4.35  -1
   6   2  -6   36.50    4.35   2
   6  -6  -1   10.97    0.85   1
  -6   6   1   14.63    2.55   1
  -6   6   1   13.52    1.14   1
   6  -6   1    6.79    1.02   1
  -6   6  -1   12.36    2.71   1
  -6   6  -1   14.36    1.69   1
   6  -6   2    6.13    1.20   1
  -6   6  -2    6.46    2.73   1
  -6   6  -2    9.02    1.59   1
   6  -6   3   12.51    1.56   1
  -6   6  -3   16.87    3.43   1
  -6   6  -3   20.28    2.04   1
  -6   6  -4    8.18    1.97   1
  -6   6  -4   13.88    2.19   1
  -6   6  -5    7.50    3.89  -1
   6   4   0    7.50    3.89   2
  -6   6  -5   13.35    3.35  -1
   6   4   0   13.35    3.35   2
  -6   6  -6   25.45    4.07   1
  -6   6  -6   24.37    3.16   1
  -6   6  -7   -2.11    1.89   1
  -6   6  -7    2.15    2.07   1
  -6   6  -8    7.97    3.75   1
  -6   6  -8    8.23    1.75   1
  -6   6  -9    7.11    2.51   1
  -6   6  -9    9.96    2.73   1
  -6   6 -10   19.05    4.22   1
  -6   6 -10   10.72    3.10   1
  -6   6 -11   20.74    3.39   1
  -6   6 -11   24.42    3.86   1
  -6   6 -12   27.26    6.29  -1
   6   6   6   27.26    6.29   2
  -6   6 -12   22.43    5.28  -1
   6   6   6   22.43    5.28   2
  -6   6 -13    5.06    3.92   1
  -6   6 -13    3.43    3.25   1
   6  -5 -12   13.20    1.71   1
   6  -5 -11    1.20    1.14   1
   6  -5 -10   55.26    3.07   1
   6  -5  -9    6.48    1.40  -1
  -6   1  11    6.48    1.40   2
   6  -5  -8    4.97    0.81   1
   6  -5  -8    3.98    1.01   1
  -6   5   8    5.14    0.66   1
  -6   5   8    2.87    0.85   1
   6  -5  -7   56.99    2.41   1
   6  -5  -7   47.44    2.03   1
  -6   5   7   46.64    2.44   1
  -6   5   7   59.85    2.64   1
   6  -5  -6    0.69    0.66   1
   6  -5  -6    0.53    0.55   1
  -6   5   6    0.24    1.13   1
  -6   5   6   -0.34    0.92   1
   6  -5  -5   23.93    1.10   1
   6  -5  -5   20.80    0.97   1
  -6   5   5   24.66    1.77   1
  -6   5   5   35.38    2.44   1
   6  -5  -4    0.88    0.46   1
   6  -5  -4    1.05    0.49   1
  -6   5   4    1.03    0.82   1
  -6   5   4   -0.51    1.31   1
   6  -5  -3    4.66    0.71   1
  -6   5   3    6.05    1.64   1
  -6   5   3    4.43    0.88   1
   6  -5  -2    7.37    1.11  -1
  -6  -1   5    7.37    1.11   2
  -6   5   2   11.45    2.52  -1
   6   1  -5   11.45    2.52   2
  -6   5   2    8.21    1.45  -1
   6   1  -5    8.21    1.45   2
   6  -5  -1    1.89    0.71   1
  -6   5   1    1.12    1.88   1
  -6   5   1    3.51    0.98   1
   6  -5   0   24.99    1.52   1
  -6   5   0   27.75    2.08   1
  -6   5   0   33.03    2.49   1
   6  -5   2   25.52    1.91   1
  -6   5  -2   41.81    3.88   1
  -6   5  -2   30.91    3.29   1
  -6   5  -3   14.41    3.05   1
  -6   5  -3   14.04    2.21   1
  -6   5  -4    3.25    1.59   1
  -6   5  -4    3.71    1.94   1
  -6   5  -5   17.08    4.11  -1
   6   3   1   17.08    4.11   2
  -6   5  -5    5.89    3.19  -1
   6   3   1    5.89    3.19   2
  -6   5  -6   19.86    4.26   1
  -6   5  -6   23.28    3.21   1
  -6   5  -7    0.25    1.98   1
  -6   5  -7    0.65    2.33   1
  -6   5  -8   -0.88    3.74   1
  -6   5  -8    9.78    2.82   1
  -6   5  -9    6.85    4.04   1
  -6   5  -9    8.50    1.93   1
  -6   5 -10   13.84    3.00   1
  -6   5 -10   17.63    3.50   1
  -6   5 -11   13.82    3.65   1
  -6   5 -11   20.47    6.68  -1
   6   5   6   20.47    6.68   2
  -6   5 -12   80.42   10.75  -1
   6   5   7   80.42   10.75   2
  -6   5 -12   72.02    8.50  -1
   6   5   7   72.02    8.50   2
  -6   5 -13    1.35    2.50   1
  -6   5 -13    2.91    3.12   1
  -6   5 -14   33.33    5.80   1
  -6   5 -14   29.25    3.26   1
   6  -4 -15    1.72    1.87   1
   6  -4 -14    2.26    1.70   1
   6  -4 -13    5.79    1.77   1
   6  -4 -12   32.19    2.43   1
   6  -4 -11    8.14    1.59   1
   6  -4 -10   22.35    2.09   1
   6  -4  -9    1.34    1.04   1
   6  -4  -9    0.40    1.15   1
   6  -4  -8   -0.80    1.21   1
   6  -4  -8    0.53    1.30   1
   6  -4  -7   70.01    3.02   1
   6  -4  -7   73.20    3.55   1
  -6   4   7   68.08    2.14   1
  -6   4   7   73.71    2.60   1
   6  -4  -6    0.87    1.13   1
   6  -4  -6    1.64    0.88   1
  -6   4   6    1.33    0.68   1
  -6   4   6   -0.19    0.81   1
   6  -4  -5   17.16    1.76   1
   6  -4  -5   18.68    1.39   1
  -6   4   5   20.22    1.84   1
  -6   4   5   16.55    1.69   1
   6  -4  -4   14.40    1.55   1
   6  -4  -4   14.22    1.49   1
  -6   4   4   17.15    1.65   1
  -6   4   4   13.02    1.81   1
   6  -4  -3   27.00    1.64   1
  -6   4   3   63.53    2.81   1
  -6   4   3   30.58    2.67   1
   6  -4  -3   76.37    5.26  -1
  -6   0   5   76.37    5.26   2
   6  -4  -2   20.74    1.46   1
  -6   4   2   30.70    1.97   1
  -6   4   2   64.19    5.39  -1
   6   0  -4   64.19    5.39   2
   6  -4  -1   36.70    2.00   1
  -6   4   1   42.98    2.36   1
  -6   4   1   43.44    2.61   1
   6  -4   0   12.68    1.41   1
  -6   4   0   13.31    2.52   1
  -6   4   0   14.81    1.85   1
   6  -4   1   25.46    2.06   1
  -6   4  -1   39.62    3.71   1
  -6   4  -1   36.02    2.83   1
   6  -4   2   17.04    1.75   1
  -6   4  -2   20.92    2.15   1
  -6   4  -2   22.75    2.27   1
  -6   4  -3   16.78    2.24   1
  -6   4  -3   17.93    2.57   1
  -6   4  -4    8.33    3.59  -1
   6   2   1    8.33    3.59   2
  -6   4  -4    8.12    3.62  -1
   6   2   1    8.12    3.62   2
  -6   4  -5   26.34    6.88  -1
   6   2   2   26.34    6.88   2
  -6   4  -5   29.31    4.35  -1
   6   2   2   29.31    4.35   2
  -6   4  -6    3.64    3.09   1
  -6   4  -6    0.85    1.38   1
  -6   4  -7   10.18    2.32   1
  -6   4  -7    9.29    2.90   1
  -6   4  -8   30.98    3.24   1
  -6   4  -8   21.52    4.11   1
  -6   4  -9   20.91    4.87   1
  -6   4  -9   23.08    3.97   1
  -6   4 -10   39.62    5.92   1
  -6   4 -10   36.28    3.25   1
  -6   4 -11   53.43    7.14  -1
   6   4   7   53.43    7.14   2
  -6   4 -11   48.65    7.49  -1
   6   4   7   48.65    7.49   2
  -6   4 -12   -0.97    3.16   1
  -6   4 -12    9.85    7.45  -1
   6   4   8    9.85    7.45   2
  -6   4 -13   36.34    6.24   1
  -6   4 -13   30.36    5.16   1
  -6   4 -14   10.76    2.87   1
  -6   4 -14    3.56    2.36   1
   6  -3 -17    7.62    2.92  -1
  -6   5  16    7.62    2.92   2
   6  -3 -16    2.25    2.15   1
   6  -3 -15    4.60    2.24   1
   6  -3 -14    0.86    2.02   1
   6  -3 -13   17.53    2.62   1
   6  -3 -12    2.22    1.84   1
   6  -3 -11   62.54    4.03   1
   6  -3 -10    5.65    1.96  -1
  -6   3  10    5.65    1.96   2
   6  -3  -9    4.13    1.60   1
   6  -3  -8   60.07    3.34   1
   6  -3  -8   74.67    3.90   1
   6  -3  -7    0.71    1.20   1
  -6   3   7    0.93    0.42   1
  -6   3   7    1.70    0.59   1
   6  -3  -6   45.86    1.81   1
   6  -3  -6   33.73    2.72   1
  -6   3   6   42.48    2.03   1
  -6   3   6   41.84    2.68   1
   6  -3  -5    3.99    0.94   1
   6  -3  -5    1.30    1.17   1
  -6   3   5    3.13    1.22   1
  -6   3   5    0.07    1.47   1
   6  -3  -4   10.38    1.30   1
   6  -3  -4   11.80    1.59   1
  -6   3   4   14.30    1.57   1
  -6   3   4   10.29    1.76   1
   6  -3  -3   12.51    1.73  -1
  -6   1   4   12.51    1.73   2
   6  -3  -3    8.12    1.65  -1
  -6   1   4    8.12    1.65   2
  -6   3   3   11.96    1.95  -1
   6  -1  -4   11.96    1.95   2
  -6   3   3    8.76    2.78  -1
   6  -1  -4    8.76    2.78   2
   6  -3  -2    4.31    1.40   1
   6  -3  -2    4.04    1.29   1
  -6   3   2    3.91    1.78   1
  -6   3   2    4.31    1.52   1
   6  -3  -1   34.96    2.27   1
  -6   3   1   41.21    3.31   1
  -6   3   1   36.35    2.86   1
   6  -3   0   64.44    3.52   1
  -6   3   0   78.08    4.71   1
  -6   3   0   75.44    4.31   1
  -6   3  -1   56.95    3.20   1
  -6   3  -1   46.33    3.74   1
  -6   3  -2   16.49    3.21   1
  -6   3  -2   14.51    1.74   1
  -6   3  -3    7.53    2.91   1
  -6   3  -3    3.91    2.18   1
  -6   3  -4   10.53    4.12  -1
   6   1   2   10.53    4.12   2
  -6   3  -4   13.29    3.32  -1
   6   1   2   13.29    3.32   2
  -6   3  -5   18.41    3.22   1
  -6   3  -5   36.37    7.70  -1
   6   1   3   36.37    7.70   2
  -6   3  -6    6.00    3.63   1
  -6   3  -6    7.94    2.81   1
  -6   3  -7    7.50    2.49   1
  -6   3  -7    5.86    3.05   1
  -6   3  -8   26.03    3.33   1
  -6   3  -8   22.87    2.41   1
  -6   3  -9   24.44    5.34   1
  -6   3  -9   31.16    4.04   1
  -6   3 -10   10.92    4.35   1
  -6   3 -10   11.59    2.48   1
  -6   3 -11  161.64   13.10  -1
   6   3   8  161.64   13.10   2
  -6   3 -11  135.69   10.86  -1
   6   3   8  135.69   10.86   2
  -6   3 -12    4.34    3.48   1
  -6   3 -12    6.41    5.79  -1
   6   3   9    6.41    5.79   2
  -6   3 -13   59.85    6.70   1
  -6   3 -13   47.66    6.18   1
  -6   3 -14    4.63    4.15   1
  -6   3 -14   -0.74    3.42   1
  -6   3 -15    4.16    2.53   1
  -6   3 -15    3.42    2.30   1
   6  -2 -17   -2.04    1.52   1
   6  -2 -16    1.04    1.53   1
   6  -2 -15    2.08    2.42   1
   6  -2 -14    8.74    2.67   1
   6  -2 -13   31.18    2.57   1
   6  -2 -12   13.05    2.62   1
   6  -2 -11   23.48    2.93   1
   6  -2 -10    3.03    1.29   1
   6  -2  -9    0.89    1.84   1
  -6   2   8    6.78    1.51   1
   6  -2  -7    0.43    0.69   1
  -6   2   7    1.58    0.69   1
  -6   2   7    2.44    1.82   1
   6  -2  -6   22.17    1.51   1
  -6   2   6   22.21    1.27   1
  -6   2   6   20.98    2.63   1
   6  -2  -5   34.00    1.76   1
  -6   2   5   34.43    2.37   1
  -6   2   5   28.12    2.66   1
   6  -2  -4   85.60    3.20   1
   6  -2  -4   48.71    3.19   1
   6  -2  -4  102.66    4.75  -1
  -6   2   4  102.66    4.75   2
  -6   2   4  103.06    5.03  -1
   6  -2  -4  103.06    5.03   2
  -6   2   4  109.94    7.70  -1
   6  -2  -4  109.94    7.70   2
   6  -2  -3   31.27    2.73   1
  -6   2   3   38.47    3.19   1
   6  -2  -3   77.12    3.63  -1
  -6   2   3   77.12    3.63   2
   6  -2  -2   57.56    3.04   1
   6  -2  -2   46.20    3.13   1
  -6   2   2   62.01    3.42   1
  -6   2   2   56.22    3.85   1
  -6   2   1   13.69    2.39   1
  -6   2   1   22.58    2.54   1
  -6   2   0   91.35    5.22   1
  -6   2   0   78.79    5.13   1
  -6   2  -1   21.63    3.17   1
  -6   2  -1   20.39    2.90   1
  -6   2  -2   31.83    3.83   1
  -6   2  -2   27.78    3.42   1
  -6   2  -3    3.83    3.06  -1
   6   0   2    3.83    3.06   2
  -6   2  -3    3.29    3.58  -1
   6   0   2    3.29    3.58   2
  -6   2  -4   10.99    4.53  -1
   6   0   3   10.99    4.53   2
  -6   2  -4   16.27    5.03  -1
   6   0   3   16.27    5.03   2
  -6   2  -5    1.14    2.88   1
  -6   2  -5    2.45    1.57   1
  -6   2  -6   11.64    2.51   1
  -6   2  -6   11.05    2.11   1
  -6   2  -7   46.98    3.99   1
  -6   2  -7   50.69    4.97   1
  -6   2  -8   31.54    5.12   1
  -6   2  -8   29.51    4.27   1
  -6   2  -9   53.98    3.94   1
  -6   2  -9  107.09   12.54  -1
   6   2   7  107.09   12.54   2
  -6   2 -10   88.86    8.57  -1
   6   2   8   88.86    8.57   2
  -6   2 -10   69.21    8.92  -1
   6   2   8   69.21    8.92   2
  -6   2 -11   11.93    5.57  -1
   6   2   9   11.93    5.57   2
  -6   2 -11    2.83    4.97  -1
   6   2   9    2.83    4.97   2
  -6   2 -12   56.63    7.22   1
  -6   2 -12   45.96    6.13   1
  -6   2 -13    5.15    2.48   1
  -6   2 -13    0.89    3.61   1
  -6   2 -14    8.74    4.56   1
  -6   2 -14    5.20    3.97   1
  -6   2 -15   -1.77    4.13   1
  -6   2 -15    3.03    3.70   1
   6  -1 -17    3.79    2.97   1
   6  -1 -16    3.93    2.99   1
   6  -1 -15   -1.13    2.66   1
   6  -1 -14   17.92    3.52   1
   6  -1 -13    0.80    2.46   1
   6  -1 -12   60.56    3.73   1
   6  -1 -11    6.78    3.11  -1
  -6   5   9    6.78    3.11   2
   6  -1 -10    3.08    1.48   1
   6  -1  -8    0.66    0.72   1
  -6   1   8    0.32    0.74   1
  -6   1   8    2.85    2.21   1
   6  -1  -7   31.21    1.80   1
  -6   1   7   31.38    1.90   1
  -6   1   7   30.85    3.47   1
   6  -1  -6    8.13    1.30   1
  -6   1   6    8.59    1.60   1
  -6   1   6    9.81    2.55   1
   6  -1  -5   10.10    1.18   1
  -6   1   5    9.32    2.58   1
  -6   1   5   25.78    3.18  -1
   6  -3  -4   25.78    3.18   2
   6  -1  -4   10.14    1.64  -1
  -6   3   3   10.14    1.64   2
  -6   1   4    8.60    2.51  -1
   6  -3  -3    8.60    2.51   2
  -6   1   4   10.68    3.07  -1
   6  -3  -3   10.68    3.07   2
  -6   1   3    2.92    1.29   1
   6  -1  -3    7.21    2.43  -1
  -6   3   2    7.21    2.43   2
  -6   1   3    7.11    3.57  -1
   6  -3  -2    7.11    3.57   2
  -6   1   2   38.66    3.10   1
  -6   1   2   34.56    3.57   1
  -6   1   1  101.51    5.24   1
  -6   1   1   82.17    5.28   1
  -6   1   0   58.92    4.27   1
  -6   1   0  172.94   11.83  -1
   6  -2   0  172.94   11.83   2
  -6   1  -1   27.19    3.42   1
  -6   1  -1   25.24    3.30   1
  -6   1  -2    4.46    2.61   1
  -6   1  -2   -0.52    2.44   1
  -6   1  -3   10.78    3.36  -1
   6  -1   3   10.78    3.36   2
  -6   1  -3    7.92    3.51  -1
   6  -1   3    7.92    3.51   2
  -6   1  -4   10.65    2.24   1
  -6   1  -4   13.58    3.25   1
  -6   1  -5    9.17    3.68   1
  -6   1  -5   10.42    3.30   1
  -6   1  -6   12.16    3.99   1
  -6   1  -6    9.83    3.25   1
  -6   1  -7   42.73    5.59   1
  -6   1  -7   37.91    5.04   1
  -6   1  -8   29.23    4.96   1
  -6   1  -8   27.84    3.20   1
  -6   1  -9   11.82    4.02   1
  -6   1  -9   35.75    6.29  -1
   6   1   8   35.75    6.29   2
  -6   1 -10  205.92   14.76  -1
   6   1   9  205.92   14.76   2
  -6   1 -10  188.61   13.10  -1
   6   1   9  188.61   13.10   2
  -6   1 -11    5.92    3.61   1
  -6   1 -11    9.85    5.23  -1
   6   1  10    9.85    5.23   2
  -6   1 -12   74.90    5.38   1
  -6   1 -12  194.22   18.02  -1
   6   1  11  194.22   18.02   2
  -6   1 -13    1.45    3.97   1
  -6   1 -13   -3.48    3.51   1
  -6   1 -14    1.97    2.50   1
  -6   1 -14    4.11    3.68   1
  -6   1 -15    8.65    4.26   1
  -6   1 -15   16.91    7.06  -1
   6   3  13   16.91    7.06   2
   6   0 -17   -1.19    1.93   1
   6   0 -16   -0.73    1.92   1
   6   0 -15    5.72    2.03   1
   6   0 -14   25.82    4.03   1
   6   0 -13   17.61    3.58   1
   6   0 -12   26.42    4.22   1
   6   0 -11    2.35    0.79   1
   6   0 -11    2.86    1.80   1
  -6   0  10   -3.11    1.72   1
   6   0  -9   35.83    1.97   1
  -6   0   9   42.34    2.27   1
  -6   0   9   56.96    4.89   1
   6   0  -8   -0.62    0.75   1
  -6   0   8    1.52    1.19   1
  -6   0   8   -4.51    2.39   1
   6   0  -7   15.99    1.29   1
  -6   0   7   15.63    1.96   1
  -6   0   7   13.00    3.11   1
   6   0  -6   35.34    2.64   1
  -6   0   6   42.02    2.46   1
  -6   0   6   38.04    2.67   1
   6   0  -5   72.91    4.57  -1
  -6   4   3   72.91    4.57   2
  -6   0   5   86.08    4.92  -1
   6  -4  -3   86.08    4.92   2
  -6   0   5   93.51    5.70  -1
   6  -4  -3   93.51    5.70   2
   6   0  -4   26.96    2.25   1
  -6   0   4   32.62    2.65   1
  -6   0   4   69.89    5.37  -1
   6  -4  -2   69.89    5.37   2
  -6   0   3   55.10    3.46   1
  -6   0   3   49.49    3.15   1
  -6   0   2    6.30    2.31   1
  -6   0   2    3.07    1.59   1
  -6   0   1  115.97    6.27   1
  -6   0   1  114.78    5.52   1
  -6   0   0   20.20    3.54   1
  -6   0   0   74.95    7.96  -1
   6  -3   1   74.95    7.96   2
  -6   0  -1   20.99    3.62   1
  -6   0  -1   19.43    3.68   1
  -6   0  -2    1.78    3.16  -1
   6  -2   3    1.78    3.16   2
  -6   0  -2    8.76    4.00  -1
   6  -2   3    8.76    4.00   2
  -6   0  -3   -0.86    2.83   1
  -6   0  -3   13.67    4.34  -1
   6  -2   4   13.67    4.34   2
  -6   0  -4    3.69    2.84   1
  -6   0  -4   -1.14    1.72   1
  -6   0  -5    8.79    3.57   1
  -6   0  -5    7.29    2.18   1
  -6   0  -6   63.42    4.43   1
  -6   0  -6   67.41    4.34   1
  -6   0  -7   26.43    4.10   1
  -6   0  -7   15.21    2.63   1
  -6   0  -8   55.16    6.31   1
  -6   0  -8  127.35   12.57  -1
   6   0   8  127.35   12.57   2
  -6   0  -9   98.91    8.74  -1
   6   0   9   98.91    8.74   2
  -6   0  -9   90.46   10.33  -1
   6   0   9   90.46   10.33   2
  -6   0 -10    7.99    4.71  -1
   6   0  10    7.99    4.71   2
  -6   0 -10    5.23    5.42  -1
   6   0  10    5.23    5.42   2
  -6   0 -11   69.67    7.02   1
  -6   0 -11  157.87   14.43  -1
   6   0  11  157.87   14.43   2
  -6   0 -12   -0.84    4.03   1
  -6   0 -12    6.73    3.76   1
  -6   0 -13    9.28    4.33   1
  -6   0 -13    7.02    2.52   1
  -6   0 -14   -3.99    4.05   1
  -6   0 -14   10.25    6.97  -1
   6   2  13   10.25    6.97   2
   6   1 -17    6.70    3.76   1
   6   1 -16    1.81    3.32   1
   6   1 -15   11.94    3.54   1
   6   1 -14   -0.20    3.15   1
   6   1 -13   39.77    5.29   1
   6   1 -12   11.26    4.09  -1
  -6   7   8   11.26    4.09   2
   6   1 -11    1.84    1.01   1
   6   1 -11   -0.06    1.74   1
  -6  -1  10   24.53    1.76   1
  -6  -1  10   38.96    4.71   1
   6   1  -9    0.72    1.05   1
  -6  -1   9    0.14    1.57   1
  -6  -1   9    2.10    2.94   1
   6   1  -8   13.87    2.05   1
  -6  -1   8   18.77    2.30   1
  -6  -1   8   19.16    3.73   1
   6   1  -7    7.54    1.50   1
  -6  -1   7   10.72    1.74   1
  -6  -1   7   16.21    2.12   1
   6   1  -6    3.40    1.38   1
  -6  -1   6    1.76    1.71   1
  -6  -1   6    5.09    2.94   1
  -6  -1   5    8.14    2.61  -1
   6  -5  -2    8.14    2.61   2
  -6  -1   5   21.43    4.17  -1
   6  -5  -2   21.43    4.17   2
  -6  -1   4    4.97    2.00   1
  -6  -1   4    1.45    1.77   1
  -6  -1   3   26.73    3.08   1
  -6  -1   3   23.24    2.44   1
  -6  -1   2   79.57    5.19   1
  -6  -1   2  171.46   13.31  -1
   6  -4   1  171.46   13.31   2
  -6  -1   1   52.04    4.29   1
  -6  -1   0   24.61    3.63   1
  -6  -1   0   20.71    2.36   1
  -6  -1  -1    1.92    2.75   1
  -6  -1  -1   10.86    5.09  -1
   6  -3   3   10.86    5.09   2
  -6  -1  -2   10.04    3.81  -1
   6  -3   4   10.04    3.81   2
  -6  -1  -2    4.93    2.67  -1
   6  -3   4    4.93    2.67   2
  -6  -1  -3   13.27    3.66   1
  -6  -1  -3   30.95    7.46  -1
   6  -3   5   30.95    7.46   2
  -6  -1  -4    6.44    3.83   1
  -6  -1  -4    9.05    6.37  -1
   6  -2   6    9.05    6.37   2
  -6  -1  -5   17.28    4.43   1
  -6  -1  -5   10.39    4.11   1
  -6  -1  -6   43.60    5.27   1
  -6  -1  -6   36.10    5.30   1
  -6  -1  -7   23.37    3.03   1
  -6  -1  -7   12.85    4.56   1
  -6  -1  -8   11.97    4.11   1
  -6  -1  -8   30.79    6.04  -1
   6  -1   9   30.79    6.04   2
  -6  -1  -9  207.72   14.04  -1
   6  -1  10  207.72   14.04   2
  -6  -1  -9  182.38   10.64  -1
   6  -1  10  182.38   10.64   2
  -6  -1 -10    6.98    3.99   1
  -6  -1 -10    7.81    6.48  -1
   6  -1  11    7.81    6.48   2
  -6  -1 -11  109.70    9.64   1
  -6  -1 -11   99.25    6.67   1
  -6  -1 -12   -8.48    3.95   1
  -6  -1 -12    4.04    4.13   1
  -6  -1 -13   -1.34    3.86   1
  -6  -1 -13    0.99    3.79   1
  -6  -1 -14   10.96    2.89   1
  -6  -1 -14   37.44    8.57  -1
   6   1  14   37.44    8.57   2
   6   2 -16    8.25    3.83   1
   6   2 -15   27.23    5.02   1
   6   2 -14    6.65    3.80   1
   6   2 -13    6.70    3.89   1
   6   2 -12    1.48    1.29   1
   6   2 -12    1.57    3.46   1
  -6  -2  11   -0.16    1.41   1
  -6  -2  11   -0.82    2.01   1
  -6  -2  10   17.32    2.17   1
  -6  -2  10   25.92    3.00   1
  -6  -2   9   -2.73    1.56   1
  -6  -2   9   -2.57    3.25   1
  -6  -2   8    6.72    1.92   1
  -6  -2   8   13.13    3.67   1
  -6  -2   7   33.13    2.14   1
  -6  -2   7   33.21    4.76   1
  -6  -2   6   37.44    4.58  -1
   6  -6  -2   37.44    4.58   2
  -6  -2   6   46.64    5.24  -1
   6  -6  -2   46.64    5.24   2
  -6  -2   5   21.87    3.08   1
  -6  -2   5   24.79    4.38   1
  -6  -2   4   36.68    3.68   1
  -6  -2   4   41.10    3.23   1
  -6  -2   3   -0.15    2.18   1
  -6  -2   3   41.30    7.47  -1
   6  -5   1   41.30    7.47   2
  -6  -2   2  102.03    5.01   1
  -6  -2   2  101.13    5.37   1
  -6  -2   1   11.44    3.31   1
  -6  -2   1   13.32    3.76   1
  -6  -2   0    6.64    3.27   1
  -6  -2   0   11.92    3.67   1
  -6  -2  -1    9.52    4.08  -1
   6  -4   4    9.52    4.08   2
  -6  -2  -1    1.83    5.35  -1
   6  -4   4    1.83    5.35   2
  -6  -2  -2   -0.62    2.01   1
  -6  -2  -2   22.25    5.36  -1
   6  -4   5   22.25    5.36   2
  -6  -2  -3    3.42    2.18   1
  -6  -2  -3    0.87    3.42   1
  -6  -2  -4    8.18    4.02   1
  -6  -2  -4    9.43    5.14  -1
   6  -3   7    9.43    5.14   2
  -6  -2  -5   58.83    4.33   1
  -6  -2  -5   55.16    5.97   1
  -6  -2  -6   -0.84    3.51   1
  -6  -2  -6   32.34    7.86  -1
   6  -3   8   32.34    7.86   2
  -6  -2  -7   38.86    3.92   1
  -6  -2  -7  113.49   13.97  -1
   6  -2   9  113.49   13.97   2
  -6  -2  -8   82.16    8.64  -1
   6  -2  10   82.16    8.64   2
  -6  -2  -8   79.94    6.73  -1
   6  -2  10   79.94    6.73   2
  -6  -2  -9    0.09    3.43   1
  -6  -2  -9    5.23    5.48  -1
   6  -2  11    5.23    5.48   2
  -6  -2 -10   60.66    4.96   1
  -6  -2 -10  142.88   16.71  -1
   6  -2  12  142.88   16.71   2
  -6  -2 -11    5.19    4.89   1
  -6  -2 -11    6.69    4.12   1
  -6  -2 -12    4.85    4.79   1
  -6  -2 -12    7.71    2.55   1
  -6  -2 -13   -4.95    4.31   1
  -6  -2 -13   -1.89    3.99   1
   6   3 -16    3.93    2.21   1
   6   3 -15   11.57    2.78   1
   6   3 -14   12.45    3.03   1
   6   3 -13    2.12    2.66  -1
  -6   9   7    2.12    2.66   2
  -6  -3  12   -0.92    1.04   1
  -6  -3  11   10.34    1.99   1
  -6  -3  11   13.51    3.97   1
  -6  -3  10    1.57    1.77   1
  -6  -3  10    3.02    3.45   1
  -6  -3   9   10.62    2.22   1
  -6  -3   9    5.94    3.86   1
  -6  -3   8    9.97    2.44   1
  -6  -3   8   10.47    2.59   1
  -6  -3   7    0.84    1.30   1
  -6  -3   7    0.46    2.96   1
  -6  -3   6    9.49    2.05  -1
   6  -7  -1    9.49    2.05   2
  -6  -3   6   13.54    3.03  -1
   6  -7  -1   13.54    3.03   2
  -6  -3   5    4.20    2.49   1
  -6  -3   5    3.49    3.52   1
  -6  -3   4   20.13    3.39   1
  -6  -3   4   11.29    3.78   1
  -6  -3   3   58.65    5.10   1
  -6  -3   3   56.46    6.11   1
  -6  -3   2   33.44    2.95   1
  -6  -3   2   43.67    6.56  -1
   6  -6   2   43.67    6.56   2
  -6  -3   1   20.01    2.50   1
  -6  -3   1   17.02    2.68   1
  -6  -3   0    6.23    3.10   1
  -6  -3   0    3.05    3.31   1
  -6  -3  -1   12.31    3.16  -1
   6  -5   5   12.31    3.16   2
  -6  -3  -1    9.17    4.93  -1
   6  -5   5    9.17    4.93   2
  -6  -3  -2    3.87    2.16   1
  -6  -3  -2    3.08    2.15   1
  -6  -3  -3    8.83    3.85   1
  -6  -3  -3    4.63    2.33   1
  -6  -3  -4    8.33    4.11   1
  -6  -3  -4   11.58    2.72   1
  -6  -3  -5   27.02    3.31   1
  -6  -3  -5   63.26    8.45  -1
   6  -4   8   63.26    8.45   2
  -6  -3  -6   -1.33    4.21   1
  -6  -3  -6    9.36    2.56   1
  -6  -3  -7    1.52    2.25   1
  -6  -3  -7   24.41    8.64  -1
   6  -3  10   24.41    8.64   2
  -6  -3  -8  138.83    9.65  -1
   6  -3  11  138.83    9.65   2
  -6  -3  -8  133.95   12.87  -1
   6  -3  11  133.95   12.87   2
  -6  -3  -9    7.70    4.56   1
  -6  -3  -9    5.70    8.15  -1
   6  -3  12    5.70    8.15   2
  -6  -3 -10   75.90    7.86   1
  -6  -3 -10   68.79    5.54   1
  -6  -3 -11    6.51    4.14   1
  -6  -3 -11    0.01    3.99   1
  -6  -3 -12    5.99    2.71   1
   6   4 -15   11.41    4.57   1
   6   4 -14   13.47    4.44   1
   6   4 -13    1.55    3.55   1
  -6  -4  12    0.44    1.09   1
  -6  -4  12   -2.96    2.21   1
  -6  -4  11    6.31    2.24   1
  -6  -4  11   11.49    3.91   1
  -6  -4  10    0.22    1.91   1
  -6  -4  10   -0.13    2.04   1
  -6  -4   9    4.11    1.59   1
  -6  -4   9   15.22    2.52   1
  -6  -4   8   22.50    3.48   1
  -6  -4   8   26.13    4.98   1
  -6  -4   7   10.06    4.77  -1
   6  -8  -1   10.06    4.77   2
  -6  -4   7   26.60    6.53  -1
   6  -8  -1   26.60    6.53   2
  -6  -4   6   11.65    2.14   1
  -6  -4   6   12.30    2.70   1
  -6  -4   5   26.35    3.60   1
  -6  -4   5   23.53    3.12   1
  -6  -4   4   -3.90    2.80   1
  -6  -4   4   -1.49    3.84   1
  -6  -4   3   63.94    4.34   1
  -6  -4   3   73.31    6.96   1
  -6  -4   2    9.96    3.54   1
  -6  -4   2    7.07    2.32   1
  -6  -4   1    1.04    3.04   1
  -6  -4   1    4.50    3.51   1
  -6  -4   0   16.65    5.72  -1
   6  -6   5   16.65    5.72   2
  -6  -4   0   19.25    6.59  -1
   6  -6   5   19.25    6.59   2
  -6  -4  -1    1.13    3.48   1
  -6  -4  -1    2.89    3.56   1
  -6  -4  -2    4.27    2.25   1
  -6  -4  -2    5.74    2.28   1
  -6  -4  -3    1.67    3.86   1
  -6  -4  -3    5.32    2.38   1
  -6  -4  -4   37.77    5.54   1
  -6  -4  -4   36.05    3.68   1
  -6  -4  -5   -0.46    2.33   1
  -6  -4  -5   -0.36    2.19   1
  -6  -4  -6   16.96    5.33   1
  -6  -4  -6   28.81    5.08   1
  -6  -4  -7   54.19    5.66  -1
   6  -4  11   54.19    5.66   2
  -6  -4  -7   63.96    9.24  -1
   6  -4  11   63.96    9.24   2
  -6  -4  -8   -1.41    3.90   1
  -6  -4  -8    3.67    5.96  -1
   6  -4  12    3.67    5.96   2
  -6  -4  -9   48.41    6.48   1
  -6  -4  -9   35.95    4.44   1
  -6  -4 -10    6.09    2.73   1
  -6  -4 -10    5.80    4.71   1
  -6  -4 -11    2.94    2.54   1
  -6  -4 -11    1.10    2.67   1
   6   5 -13    0.03    2.21   1
  -6  -5  12    3.99    2.46   1
  -6  -5  12    3.28    2.65   1
  -6  -5  11    1.07    2.12   1
  -6  -5  11   -3.20    2.30   1
  -6  -5  10    4.55    2.58   1
  -6  -5  10   10.44    2.59   1
  -6  -5   9    5.15    2.66   1
  -6  -5   9    5.36    2.51   1
  -6  -5   8    0.59    2.20   1
  -6  -5   8    4.06    3.55   1
  -6  -5   7    4.79    3.89  -1
   6  -9   0    4.79    3.89   2
  -6  -5   7    6.51    5.21  -1
   6  -9   0    6.51    5.21   2
  -6  -5   6    0.71    1.83   1
  -6  -5   6    3.76    3.67   1
  -6  -5   5    1.99    3.20   1
  -6  -5   5    6.84    2.44   1
  -6  -5   4   24.35    4.22   1
  -6  -5   3   18.11    4.20   1
  -6  -5   3   28.93    8.95  -1
   6  -8   3   28.93    8.95   2
  -6  -5   2    9.95    3.89   1
  -6  -5   2   16.35    4.47   1
  -6  -5   1   -1.66    3.42   1
  -6  -5   1    7.55    3.63   1
  -6  -5   0   -4.11    4.81  -1
   6  -7   6   -4.11    4.81   2
  -6  -5   0    4.10    4.89  -1
   6  -7   6    4.10    4.89   2
  -6  -5  -1   -1.35    3.10   1
  -6  -5  -1    0.90    2.13   1
  -6  -5  -2   10.51    4.05   1
  -6  -5  -2    6.85    2.54   1
  -6  -5  -3    5.24    2.64   1
  -6  -5  -3    5.66    2.53   1
  -6  -5  -4   23.41    5.13   1
  -6  -5  -4   18.88    3.23   1
  -6  -5  -5   -1.25    3.82   1
  -6  -5  -5    4.83    3.61   1
  -6  -5  -6    0.91    4.01   1
  -6  -5  -6    7.02    6.08  -1
   6  -5  11    7.02    6.08   2
  -6  -5  -7   82.89    7.59  -1
   6  -5  12   82.89    7.59   2
  -6  -5  -7   76.79   10.82  -1
   6  -5  12   76.79   10.82   2
  -6  -5  -8    5.03    4.62   1
  -6  -5  -8    3.13    2.46   1
  -6  -5  -9   43.75    4.24   1
  -6  -5  -9   35.60    6.00   1
  -6  -5 -10   -2.52    2.54   1
  -6  -5 -10   -0.75    4.06   1
  -6  -6  11   -3.14    2.39   1
  -6  -6  11   -0.58    2.45   1
  -6  -6  10    2.66    1.64   1
  -6  -6  10    2.18    2.44   1
  -6  -6   9   19.20    3.18   1
  -6  -6   9   10.31    3.11   1
  -6  -6   8    5.84    3.74  -1
   6 -10   0    5.84    3.74   2
  -6  -6   8    2.27    5.71  -1
   6 -10   0    2.27    5.71   2
  -6  -6   7    4.97    2.12   1
  -6  -6   7    1.02    4.01   1
  -6  -6   6   15.03    2.55   1
  -6  -6   6   10.66    4.28   1
  -6  -6   5   -1.35    3.13   1
  -6  -6   5   -0.68    6.78  -1
   6  -9   3   -0.68    6.78   2
  -6  -6   4   39.47    5.59   1
  -6  -6   4   46.24    6.63   1
  -6  -6   3   -1.86    3.22   1
  -6  -6   3    0.67    3.83   1
  -6  -6   2    1.61    3.55   1
  -6  -6   2    3.15    2.54   1
  -6  -6   1    9.33    6.09  -1
   6  -8   6    9.33    6.09   2
  -6  -6   1    8.28    4.18  -1
   6  -8   6    8.28    4.18   2
  -6  -6   0    6.88    4.21   1
  -6  -6   0    5.31    2.59   1
  -6  -6  -1    1.39    2.39   1
  -6  -6  -1    1.76    2.34   1
  -6  -6  -2   -0.26    3.88   1
  -6  -6  -2    1.72    2.16   1
  -6  -6  -3   20.61    5.11   1
  -6  -6  -3   20.29    3.41   1
  -6  -6  -4    2.54    2.48   1
  -6  -6  -4    3.22    4.08   1
  -6  -6  -5   11.58    5.02   1
  -6  -6  -5   16.19    4.93   1
  -6  -6  -6   29.18    6.96  -1
   6  -6  12   29.18    6.96   2
  -6  -6  -6   39.81    8.89  -1
   6  -6  12   39.81    8.89   2
  -6  -6  -7    1.45    4.22   1
  -6  -6  -7    0.90    2.42   1
  -6  -6  -8   19.97    3.33   1
  -6  -6  -8   22.78    3.83   1
  -6  -7   9    0.54    1.65   1
  -6  -7   9   -0.15    2.39   1
  -6  -7   8    3.33    3.83  -1
   6 -11   1    3.33    3.83   2
  -6  -7   8    2.31    3.49  -1
   6 -11   1    2.31    3.49   2
  -6  -7   7    1.03    2.98   1
  -6  -7   7    0.38    2.39   1
  -6  -7   6    2.50    3.21   1
  -6  -7   6   -2.05    2.11   1
  -6  -7   5   10.65    4.20   1
  -6  -7   5   32.18    9.14  -1
  -6  -7   4   32.18    9.14  -1
   6 -10   4   32.18    9.14   2
  -6  -7   4    4.14    3.89   1
  -6  -7   3   14.00    4.32   1
  -6  -7   3    7.21    3.02   1
  -6  -7   2   -0.22    3.36   1
  -6  -7   2   -3.46    2.59   1
  -6  -7   1    0.85    3.33  -1
   6  -9   7    0.85    3.33   2
  -6  -7   1    0.05    3.43  -1
   6  -9   7    0.05    3.43   2
  -6  -7   0    1.91    2.25   1
  -6  -7   0    0.09    2.33   1
  -6  -7  -1    5.37    4.06   1
  -6  -7  -1   -3.01    2.24   1
  -6  -7  -2    4.23    4.37   1
  -6  -7  -2    2.98    2.51   1
  -6  -7  -3   14.93    3.11   1
  -6  -7  -3    6.32    2.65   1
  -6  -7  -4    5.08    4.41   1
  -6  -7  -4    4.62    4.26   1
  -6  -7  -5   -0.90    2.63   1
  -6  -7  -5   -0.86    3.99   1
  -6  -8   4    8.32    3.72   1
  -6  -8   4   -6.42    3.93   1
  -6  -8   3    5.77    4.00   1
  -6  -8   3    1.00    4.41   1
  -6  -8   2   12.89    6.06  -1
   6 -10   7   12.89    6.06   2
  -6  -8   2   10.56    7.78  -1
   6 -10   7   10.56    7.78   2
  -6  -8   1    5.67    2.65   1
  -6  -8   1    2.38    4.31   1
  -6  -8   0   -0.92    3.96   1
  -6  -8   0    3.80    3.98   1
  -7  10   5    2.35    2.38  -1
   7   4 -12    2.35    2.38   2
  -7  10   4   -1.32    2.22   1
  -7  10   3    6.52    2.66   1
  -7  10   2   -1.99    2.39   1
  -7  10   1    0.07    1.47   1
  -7  10   0   10.75    3.06   1
  -7  10  -1    2.95    2.73   1
  -7  10  -2   -1.36    3.10  -1
   7   6  -6   -1.36    3.10   2
  -7  10  -3   12.66    3.53   1
  -7  10  -4    1.49    1.79   1
  -7  10  -5   -4.32    3.27   1
  -7   9   5   -3.71    1.94   1
  -7   9   4    4.30    2.06   1
  -7   9   3    5.34    2.24   1
  -7   9   2    3.79    2.31   1
  -7   9   1    3.03    2.36   1
  -7   9   0    4.92    2.59   1
  -7   9  -1   12.45    5.15  -1
   7   5  -6   12.45    5.15   2
  -7   9  -2    3.95    2.77   1
  -7   9  -3   16.75    3.76   1
  -7   9  -4    0.82    1.78   1
  -7   9  -5   -2.61    3.17   1
  -7   9  -6    0.64    1.71   1
  -7   9  -7   -3.99    3.38   1
  -7   8   6    3.11    1.79  -1
   7   2 -11    3.11    1.79   2
  -7   8   4    8.73    2.01   1
  -7   8   3    5.00    2.10   1
  -7   8   2    1.27    2.03   1
  -7   8   1   25.84    3.21   1
  -7   8   0    5.00    2.57   1
  -7   8  -1    6.04    3.21  -1
   7   4  -5    6.04    3.21   2
  -7   8  -2   42.02    4.69   1
  -7   8  -3   -2.31    2.78   1
  -7   8  -4    3.39    3.02   1
  -7   8  -5    2.00    2.90   1
  -7   8  -6    2.45    2.03   1
  -7   8  -7    3.41    3.36   1
  -7   8  -8    2.97    5.09  -1
   7   6   1    2.97    5.09   2
  -7   8  -8    9.54    3.64  -1
   7   6   1    9.54    3.64   2
  -7   8  -9    7.63    4.16   1
  -7   8  -9   12.43    3.12   1
  -7   7   6   -1.25    1.26   1
  -7   7   5    0.82    1.44   1
  -7   7   4    8.63    1.92   1
  -7   7   3    9.16    2.08   1
  -7   7   2    5.83    1.34   1
  -7   7   1    2.33    2.09   1
  -7   7   0   17.79    4.40  -1
   7   3  -5   17.79    4.40   2
  -7   7  -1    6.09    3.66  -1
   7   3  -4    6.09    3.66   2
  -7   7  -2   25.00    2.54   1
  -7   7  -2   24.02    2.48   1
  -7   7  -3    1.71    2.61   1
  -7   7  -3    0.60    2.01   1
  -7   7  -4   -0.50    2.87   1
  -7   7  -4   -2.10    1.73   1
  -7   7  -5    4.32    1.90   1
  -7   7  -5    1.64    2.02   1
  -7   7  -6    2.62    3.33   1
  -7   7  -6    5.85    2.34   1
  -7   7  -7   12.25    5.53  -1
   7   5   1   12.25    5.53   2
  -7   7  -7   11.59    4.07  -1
   7   5   1   11.59    4.07   2
  -7   7  -8    9.81    2.46   1
  -7   7  -8   10.92    2.80   1
  -7   7  -9   10.17    4.13   1
  -7   7  -9    8.13    3.10   1
  -7   7 -10    3.76    3.60   1
  -7   7 -10   -1.24    2.65   1
  -7   7 -11    5.78    2.63   1
  -7   7 -11    5.30    2.00   1
  -7   6   7    0.32    1.05  -1
   7   0 -10    0.32    1.05   2
  -7   6   6    2.25    1.60   1
  -7   6   5   12.43    1.69   1
  -7   6   4   19.34    2.08   1
  -7   6   3    0.55    1.53   1
  -7   6   2   36.55    3.10   1
  -7   6   2   29.59    1.84   1
  -7   6   1    3.94    2.27   1
  -7   6   1    5.60    1.46   1
  -7   6   0    4.65    2.58  -1
   7   2  -4    4.65    2.58   2
  -7   6   0    0.34    1.95  -1
   7   2  -4    0.34    1.95   2
  -7   6  -1   67.99    5.17   1
  -7   6  -1   65.93    3.84   1
  -7   6  -2    1.54    2.27   1
  -7   6  -2   -0.67    1.81   1
  -7   6  -3   12.40    2.02   1
  -7   6  -3    8.13    2.73   1
  -7   6  -4   -0.06    2.87   1
  -7   6  -4    3.42    1.95   1
  -7   6  -5   11.37    3.63   1
  -7   6  -5    9.67    2.40   1
  -7   6  -6    8.03    2.28   1
  -7   6  -6   12.36    2.68   1
  -7   6  -7   19.98    3.46  -1
   7   4   2   19.98    3.46   2
  -7   6  -7   12.56    3.81  -1
   7   4   2   12.56    3.81   2
  -7   6  -8   19.31    4.32   1
  -7   6  -8   12.53    2.37   1
  -7   6  -9   11.97    4.18   1
  -7   6  -9    8.65    3.21   1
  -7   6 -10   12.20    2.68   1
  -7   6 -10    9.64    2.12   1
  -7   6 -11    6.94    4.21   1
  -7   6 -11    6.66    3.33   1
  -7   6 -12    0.35    2.31   1
  -7   6 -12    6.04    3.08   1
   7  -5  -7    0.10    0.66   1
  -7   5   7    1.70    1.06   1
   7  -5  -6    1.34    0.95   1
  -7   5   6    2.14    1.09   1
   7  -5  -4   11.00    1.28   1
  -7   5   4   14.56    1.91   1
  -7   5   4   13.89    1.59   1
   7  -5  -3    5.87    1.13   1
  -7   5   3   10.85    1.91   1
  -7   5   3   12.65    1.71   1
   7  -5  -2    5.46    1.21   1
  -7   5   2    6.99    2.02   1
  -7   5   2    9.67    1.30   1
   7  -5  -1    5.60    1.11   1
  -7   5   1    9.66    1.63   1
  -7   5   1   14.75    3.29  -1
   7   1  -4   14.75    3.29   2
   7  -5   0    4.70    1.42   1
  -7   5   0    9.87    3.48  -1
   7   1  -3    9.87    3.48   2
  -7   5   0    9.25    3.67  -1
   7   1  -3    9.25    3.67   2
  -7   5  -2    2.98    1.66   1
  -7   5  -2    2.73    2.32   1
  -7   5  -3   -1.02    1.72   1
  -7   5  -3   -1.23    1.78   1
  -7   5  -4    6.13    3.00   1
  -7   5  -4    8.44    2.43   1
  -7   5  -5   15.85    3.75   1
  -7   5  -5   11.34    2.90   1
  -7   5  -6   32.94    5.93  -1
   7   3   2   32.94    5.93   2
  -7   5  -6   28.87    5.30  -1
   7   3   2   28.87    5.30   2
  -7   5  -7   55.14    7.93  -1
   7   3   3   55.14    7.93   2
  -7   5  -7   55.31    6.19  -1
   7   3   3   55.31    6.19   2
  -7   5  -8   14.04    2.66   1
  -7   5  -8   10.84    2.08   1
  -7   5  -9   -0.85    3.68   1
  -7   5  -9    5.09    2.80   1
  -7   5 -10    6.31    4.30   1
  -7   5 -10   10.48    2.29   1
  -7   5 -11    9.57    2.91   1
  -7   5 -11   10.96    3.73   1
  -7   5 -12    2.93    4.32   1
  -7   5 -12    7.43    3.43   1
   7  -4 -12   36.01    3.05   1
   7  -4 -11    2.45    1.57   1
   7  -4 -10    4.98    1.43   1
   7  -4  -9    0.57    1.25   1
   7  -4  -8    1.56    1.75  -1
  -7   2   9    1.56    1.75   2
   7  -4  -7   -0.51    1.03   1
   7  -4  -7    3.12    1.16   1
  -7   4   7    1.60    0.92   1
  -7   4   7    0.89    0.65   1
   7  -4  -6   13.37    1.26   1
   7  -4  -6    8.07    1.73   1
  -7   4   6   12.45    1.24   1
  -7   4   6   12.58    2.13   1
   7  -4  -5   28.63    2.58   1
  -7   4   5   26.22    2.49   1
  -7   4   5   27.23    2.86   1
   7  -4  -5   44.11    3.53  -1
  -7   1   6   44.11    3.53   2
   7  -4  -4    0.56    1.26   1
   7  -4  -4    1.39    1.03   1
  -7   4   4    0.44    1.36   1
  -7   4   4    1.31    1.37   1
   7  -4  -2    7.29    1.30   1
  -7   4   2    4.76    1.85   1
  -7   4   2   21.39    4.17  -1
   7   0  -4   21.39    4.17   2
   7  -4  -1    1.71    1.40  -1
  -7   0   3    1.71    1.40   2
  -7   4   1    6.84    2.27  -1
   7   0  -3    6.84    2.27   2
  -7   4   1    3.31    1.84  -1
   7   0  -3    3.31    1.84   2
  -7   4   0  113.42    6.04   1
  -7   4   0  225.98   14.70  -1
   7   0  -2  225.98   14.70   2
  -7   4  -1    3.94    2.40   1
  -7   4  -1   -0.09    1.82   1
  -7   4  -2   10.43    2.98   1
  -7   4  -2   10.12    2.42   1
  -7   4  -3   11.59    3.40   1
  -7   4  -3    7.83    2.42   1
  -7   4  -4   22.50    4.10   1
  -7   4  -4   26.01    2.24   1
  -7   4  -5   24.15    3.69   1
  -7   4  -5   48.13    8.51  -1
   7   2   2   48.13    8.51   2
  -7   4  -6   26.50    5.53  -1
   7   2   3   26.50    5.53   2
  -7   4  -6   22.79    4.38  -1
   7   2   3   22.79    4.38   2
  -7   4  -7   33.62    2.87   1
  -7   4  -7   50.78    8.05  -1
   7   2   4   50.78    8.05   2
  -7   4  -8   27.70    4.73   1
  -7   4  -8   20.68    4.03   1
  -7   4  -9   14.02    3.23   1
  -7   4  -9   14.94    3.63   1
  -7   4 -10    5.32    4.23   1
  -7   4 -10    3.28    3.09   1
  -7   4 -11    2.09    3.89   1
  -7   4 -11    0.36    2.99   1
  -7   4 -12    8.31    3.61   1
  -7   4 -12    3.54    7.04  -1
   7   4   8    3.54    7.04   2
  -7   4 -13    7.15    3.75  -1
   7   4   9    7.15    3.75   2
  -7   4 -13   14.42    5.34  -1
   7   4   9   14.42    5.34   2
   7  -3 -16   19.02    3.09   1
   7  -3 -15    0.70    2.07   1
   7  -3 -14    4.20    2.12   1
   7  -3 -13   35.47    3.57   1
   7  -3 -12    4.55    2.05   1
   7  -3 -11   18.74    2.33   1
   7  -3 -10    3.63    1.89   1
   7  -3  -9    1.50    1.79   1
  -7   3   8    0.22    1.00   1
   7  -3  -7    2.41    1.00   1
  -7   3   7    2.18    0.93   1
  -7   3   7   -0.73    1.68   1
   7  -3  -6   20.38    1.79   1
  -7   3   6   17.99    1.96   1
  -7   3   6   18.41    2.48   1
   7  -3  -5   27.68    2.33   1
  -7   3   5   26.02    1.94   1
  -7   3   5   27.57    2.62   1
   7  -3  -4   19.06    1.72   1
  -7   3   4   20.48    2.61   1
  -7   3   4   19.43    2.64   1
  -7   3   3   14.10    2.05   1
  -7   3   3   14.53    2.28   1
  -7   3   2   19.71    3.03  -1
   7  -1  -3   19.71    3.03   2
  -7   3   2   22.07    4.19  -1
   7  -1  -3   22.07    4.19   2
  -7   3   1    2.24    1.92   1
  -7   3   1   11.58    3.34  -1
   7  -1  -2   11.58    3.34   2
  -7   3   0   74.85    4.86   1
  -7   3   0   66.39    4.61   1
  -7   3  -1    1.04    2.44   1
  -7   3  -1   19.48    4.50  -1
   7   0   0   19.48    4.50   2
  -7   3  -2   -0.04    1.61   1
  -7   3  -2   -3.30    2.20   1
  -7   3  -3   17.76    3.49   1
  -7   3  -3   19.19    3.01   1
  -7   3  -4   25.60    3.63   1
  -7   3  -4   59.21    8.83  -1
   7   1   2   59.21    8.83   2
  -7   3  -5   31.85    4.65   1
  -7   3  -5   35.37    5.13  -1
   7   1   3   35.37    5.13   2
  -7   3  -6   94.40    9.89  -1
   7   1   4   94.40    9.89   2
  -7   3  -6   84.05    8.36  -1
   7   1   4   84.05    8.36   2
  -7   3  -7   12.06    3.66   1
  -7   3  -7   34.55    8.50  -1
   7   1   5   34.55    8.50   2
  -7   3  -8    5.97    4.15   1
  -7   3  -8    9.13    3.60   1
  -7   3  -9    9.75    4.04   1
  -7   3  -9   10.68    3.55   1
  -7   3 -10   21.36    3.38   1
  -7   3 -10   13.35    4.16   1
  -7   3 -11    1.70    2.45   1
  -7   3 -11   -0.19    1.91   1
  -7   3 -12   23.64    6.14  -1
   7   3   9   23.64    6.14   2
  -7   3 -12   21.77    6.71  -1
   7   3   9   21.77    6.71   2
  -7   3 -13    3.98    3.51   1
  -7   3 -13    1.61    6.63  -1
   7   3  10    1.61    6.63   2
   7  -2 -16   34.83    4.60  -1
  -7   6  14   34.83    4.60   2
   7  -2 -15   -1.54    2.50   1
   7  -2 -14   -2.49    2.51   1
   7  -2 -13   43.54    4.14   1
   7  -2 -12    1.05    2.29   1
   7  -2 -11    0.45    2.18   1
   7  -2 -10    7.74    2.51   1
  -7   2   9   -1.77    1.42  -1
   7  -4  -8   -1.77    1.42   2
  -7   2   8    2.18    0.70   1
  -7   2   8    1.84    2.05   1
   7  -2  -7   11.57    1.28   1
  -7   2   7    9.75    1.05   1
  -7   2   7   10.90    2.59   1
   7  -2  -6   25.87    1.69   1
  -7   2   6   30.42    1.92   1
   7  -2  -5    5.87    1.23   1
  -7   2   5   10.00    1.92   1
  -7   2   5   53.73    6.57  -1
   7  -3  -5   53.73    6.57   2
   7  -2  -4   38.66    2.51   1
  -7   2   4   58.65    3.26   1
  -7   2   4   48.20    4.08   1
  -7   2   3   13.05    2.14   1
  -7   2   3   13.06    1.67   1
  -7   2   2    5.60    2.04  -1
   7  -2  -2    5.60    2.04   2
  -7   2   2    4.05    2.54  -1
   7  -2  -2    4.05    2.54   2
  -7   2   1  132.25    7.65   1
  -7   2   1  299.39   15.66  -1
   7  -2  -1  299.39   15.66   2
  -7   2   0    0.23    2.36   1
  -7   2   0    7.62    2.32   1
  -7   2  -1   14.38    1.88   1
  -7   2  -1    9.55    2.69   1
  -7   2  -2   23.45    3.56   1
  -7   2  -2   19.25    2.25   1
  -7   2  -3   53.21    5.22   1
  -7   2  -3   47.29    4.64   1
  -7   2  -4   31.04    3.89   1
  -7   2  -4   65.34    6.71  -1
   7   0   3   65.34    6.71   2
  -7   2  -5   26.68    5.04  -1
   7   0   4   26.68    5.04   2
  -7   2  -5   23.84    4.23  -1
   7   0   4   23.84    4.23   2
  -7   2  -6   25.42    4.22   1
  -7   2  -6   77.12    9.83  -1
   7   0   5   77.12    9.83   2
  -7   2  -7   41.38    5.30   1
  -7   2  -7  125.37   14.06  -1
   7   0   6  125.37   14.06   2
  -7   2  -8   18.51    4.85   1
  -7   2  -8   23.22    4.28   1
  -7   2  -9    3.90    4.24   1
  -7   2  -9    7.19    2.35   1
  -7   2 -10   -2.91    3.51   1
  -7   2 -10    2.34    6.91  -1
   7   2   8    2.34    6.91   2
  -7   2 -11   -0.04    2.08   1
  -7   2 -11    5.91    5.23  -1
   7   2   9    5.91    5.23   2
  -7   2 -12   24.42    4.23  -1
   7   2  10   24.42    4.23   2
  -7   2 -12   14.92    5.46  -1
   7   2  10   14.92    5.46   2
  -7   2 -13    9.68    2.85   1
  -7   2 -13   -5.93    3.74   1
   7  -1 -16    0.25    1.85   1
   7  -1 -15    3.52    1.93   1
   7  -1 -14   31.48    4.20   1
   7  -1 -13    3.15    3.01   1
   7  -1 -12   19.10    3.70   1
   7  -1 -11    6.25    1.80   1
  -7   1  10   -2.65    1.56   1
  -7   1   9   -0.73    1.46   1
  -7   1   8   -0.06    0.96   1
  -7   1   8    0.22    2.26   1
   7  -1  -7   11.91    1.57   1
  -7   1   7   16.79    1.84   1
  -7   1   7   20.02    3.36   1
   7  -1  -6   25.80    1.85   1
  -7   1   6   34.14    2.72   1
  -7   1   6   31.28    3.53   1
   7  -1  -5   19.43    1.81   1
  -7   1   5   24.76    2.30   1
  -7   1   5   24.47    3.46   1
  -7   1   4   17.08    2.36   1
  -7   1   4   14.14    3.11   1
  -7   1   3   25.13    2.92  -1
   7  -3  -2   25.13    2.92   2
  -7   1   3   19.29    5.48  -1
   7  -3  -2   19.29    5.48   2
  -7   1   2    2.26    1.58   1
  -7   1   2   10.01    2.85  -1
   7  -3  -1   10.01    2.85   2
  -7   1   1   61.89    4.57   1
  -7   1   1   60.71    3.81   1
  -7   1   0    7.54    2.56   1
  -7   1   0   22.09    5.18  -1
   7  -2   1   22.09    5.18   2
  -7   1  -1    0.77    2.41   1
  -7   1  -1   -0.37    2.53   1
  -7   1  -2   27.92    3.83   1
  -7   1  -2   22.77    2.28   1
  -7   1  -3   36.29    4.36   1
  -7   1  -3   77.80    8.13  -1
   7  -1   3   77.80    8.13   2
  -7   1  -4   43.87    5.36  -1
   7  -1   4   43.87    5.36   2
  -7   1  -4   35.20    7.69  -1
   7  -1   4   35.20    7.69   2
  -7   1  -5  112.52    8.61  -1
   7  -1   5  112.52    8.61   2
  -7   1  -5  104.15   10.95  -1
   7  -1   5  104.15   10.95   2
  -7   1  -6   16.87    2.85   1
  -7   1  -6   17.61    4.04   1
  -7   1  -7   33.84    5.10   1
  -7   1  -7   26.82    4.71   1
  -7   1  -8    9.58    4.12   1
  -7   1  -8    5.98    2.45   1
  -7   1  -9   14.24    4.75   1
  -7   1  -9   11.63    4.23   1
  -7   1 -10    6.95    3.84   1
  -7   1 -10    4.50    6.56  -1
   7   1   9    4.50    6.56   2
  -7   1 -11   37.56    6.03  -1
   7   1  10   37.56    6.03   2
  -7   1 -11   24.51    6.67  -1
   7   1  10   24.51    6.67   2
  -7   1 -12   -3.01    5.15  -1
   7   1  11   -3.01    5.15   2
  -7   1 -12   -3.88    3.95  -1
   7   1  11   -3.88    3.95   2
  -7   1 -13    7.73    4.35   1
  -7   1 -13   12.03    7.37  -1
   7   1  12   12.03    7.37   2
   7   0 -16    2.72    3.13   1
   7   0 -15    3.80    3.03   1
   7   0 -14   42.01    5.46   1
   7   0 -13   -1.88    3.16   1
   7   0 -12    2.40    1.89   1
  -7   0  11   -0.10    1.69   1
  -7   0  10    5.90    3.47  -1
   7  -6  -7    5.90    3.47   2
  -7   0   9    2.13    1.40   1
  -7   0   9    3.21    1.75   1
  -7   0   8    7.37    1.31   1
  -7   0   8    8.73    3.16   1
   7   0  -7   12.45    1.47   1
  -7   0   7   17.74    1.86   1
  -7   0   7   18.96    3.75   1
  -7   0   6   20.39    2.00   1
  -7   0   6   20.47    2.54   1
  -7   0   5   38.67    3.08   1
  -7   0   5   43.02    4.72   1
  -7   0   4   19.93    3.63   1
  -7   0   4   24.11    4.22  -1
   7  -4  -2   24.11    4.22   2
  -7   0   3    2.66    2.39  -1
   7  -4  -1    2.66    2.39   2
  -7   0   3    6.77    2.03  -1
   7  -4  -1    6.77    2.03   2
  -7   0   2   89.27    6.71   1
  -7   0   2  227.57   15.28  -1
   7  -4   0  227.57   15.28   2
  -7   0   1    0.06    2.26   1
  -7   0   1    0.86    2.54   1
  -7   0   0    9.83    3.08   1
  -7   0   0    8.21    1.77   1
  -7   0  -1   34.20    4.23   1
  -7   0  -1   34.32    7.07  -1
   7  -3   2   34.32    7.07   2
  -7   0  -2   50.33    5.07   1
  -7   0  -2   44.39    3.47   1
  -7   0  -3   31.38    4.34   1
  -7   0  -3   78.85    8.72  -1
   7  -2   4   78.85    8.72   2
  -7   0  -4   24.61    5.05  -1
   7  -2   5   24.61    5.05   2
  -7   0  -4   27.23    5.08  -1
   7  -2   5   27.23    5.08   2
  -7   0  -5   19.40    4.51   1
  -7   0  -5   82.79    8.07  -1
   7  -2   6   82.79    8.07   2
  -7   0  -6   61.02    4.45   1
  -7   0  -6   56.68    6.57   1
  -7   0  -7   19.60    3.07   1
  -7   0  -7   17.75    4.68   1
  -7   0  -8   11.94    4.76   1
  -7   0  -8   11.71    2.63   1
  -7   0  -9    2.47    3.72   1
  -7   0  -9   -6.25    6.23  -1
   7   0   9   -6.25    6.23   2
  -7   0 -10    9.83    2.73   1
  -7   0 -10    1.60    4.29  -1
   7   0  10    1.60    4.29   2
  -7   0 -11   13.08    5.00  -1
   7   0  11   13.08    5.00   2
  -7   0 -11    7.46    5.10  -1
   7   0  11    7.46    5.10   2
  -7   0 -12   10.22    4.86   1
  -7   0 -12    7.65    2.72   1
  -7   0 -13   -1.42    3.63   1
  -7   0 -13   18.99    7.49  -1
   7   0  13   18.99    7.49   2
   7   1 -15   18.99    4.70   1
   7   1 -14   -1.14    3.29   1
   7   1 -13   11.39    4.00   1
   7   1 -12   10.29    3.94   1
  -7  -1  11    3.21    1.98   1
  -7  -1  10   -3.54    3.11   1
  -7  -1   9    0.02    1.16   1
  -7  -1   9   -0.23    2.89   1
  -7  -1   8   11.93    2.58   1
  -7  -1   8   20.73    3.80   1
  -7  -1   7   22.76    2.31   1
  -7  -1   7   27.27    4.01   1
  -7  -1   6   18.94    2.62   1
  -7  -1   6   22.41    3.87   1
  -7  -1   5   10.03    2.26   1
  -7  -1   5   10.23    3.50   1
  -7  -1   4   17.58    3.75  -1
   7  -5  -1   17.58    3.75   2
  -7  -1   4   22.26    6.73  -1
   7  -5  -1   22.26    6.73   2
  -7  -1   3    0.42    1.79   1
  -7  -1   3    8.97    4.15  -1
   7  -5   0    8.97    4.15   2
  -7  -1   2   37.70    3.89   1
  -7  -1   2   30.98    4.54   1
  -7  -1   1    8.34    2.89   1
  -7  -1   1    7.12    2.04   1
  -7  -1   0    1.08    2.81   1
  -7  -1   0    4.37    3.24   1
  -7  -1  -1   27.53    4.36   1
  -7  -1  -1   36.89    4.88   1
  -7  -1  -2   26.80    2.83   1
  -7  -1  -2   22.55    2.85   1
  -7  -1  -3   36.15    4.83   1
  -7  -1  -3   53.44    8.90  -1
   7  -3   5   53.44    8.90   2
  -7  -1  -4  103.88    9.19  -1
   7  -3   6  103.88    9.19   2
  -7  -1  -4   81.83    9.56  -1
   7  -3   6   81.83    9.56   2
  -7  -1  -5   11.51    4.28   1
  -7  -1  -5    6.74    4.14   1
  -7  -1  -6   46.11    4.17   1
  -7  -1  -6   34.72    6.00   1
  -7  -1  -7    6.37    2.94   1
  -7  -1  -7    4.97    2.55   1
  -7  -1  -8   20.46    4.63   1
  -7  -1  -8    8.98    4.59   1
  -7  -1  -9   -1.47    3.77   1
  -7  -1  -9    4.13    6.11  -1
   7  -1  10    4.13    6.11   2
  -7  -1 -10   27.01    5.77  -1
   7  -1  11   27.01    5.77   2
  -7  -1 -10   18.49    4.60  -1
   7  -1  11   18.49    4.60   2
  -7  -1 -11    0.63    5.15  -1
   7  -1  12    0.63    5.15   2
  -7  -1 -11    3.85    5.10  -1
   7  -1  12    3.85    5.10   2
  -7  -1 -12    8.22    2.78   1
  -7  -1 -12    6.77    5.80  -1
   7  -1  13    6.77    5.80   2
   7   2 -15   19.42    4.92   1
   7   2 -14    2.60    3.69   1
   7   2 -13   -0.60    3.43   1
  -7  -2  12    2.75    2.32   1
  -7  -2  11    2.77    4.02  -1
   7  -8  -6    2.77    4.02   2
  -7  -2  10    1.90    1.54   1
  -7  -2  10    0.47    2.06   1
  -7  -2   9    6.93    1.86   1
  -7  -2   9    0.82    3.63   1
  -7  -2   8    7.06    2.03   1
  -7  -2   8   31.02    8.03  -1
   7  -7  -3   31.02    8.03   2
  -7  -2   7   23.50    2.78   1
  -7  -2   7   26.68    2.75   1
  -7  -2   6   19.88    2.88   1
  -7  -2   6   17.49    4.44   1
  -7  -2   5   11.52    2.82   1
  -7  -2   5   13.44    4.14   1
  -7  -2   4   -0.57    2.78  -1
   7  -6   0   -0.57    2.78   2
  -7  -2   4   -3.60    3.82  -1
   7  -6   0   -3.60    3.82   2
  -7  -2   3   40.30    4.55   1
  -7  -2   3   46.24    5.40   1
  -7  -2   2   -0.16    1.50   1
  -7  -2   2    0.81    1.93   1
  -7  -2   1    8.23    3.19   1
  -7  -2   1    6.59    3.61   1
  -7  -2   0   37.33    3.20   1
  -7  -2   0   31.26    6.12  -1
   7  -5   3   31.26    6.12   2
  -7  -2  -1   30.52    2.96   1
  -7  -2  -1   23.27    2.94   1
  -7  -2  -2   23.29    2.93   1
  -7  -2  -2   53.57    8.73  -1
   7  -4   5   53.57    8.73   2
  -7  -2  -3   29.27    5.56  -1
   7  -4   6   29.27    5.56   2
  -7  -2  -3   26.55    5.55  -1
   7  -4   6   26.55    5.55   2
  -7  -2  -4   17.93    3.11   1
  -7  -2  -4   21.35    4.59   1
  -7  -2  -5   66.98    7.36   1
  -7  -2  -5   59.56    8.62  -1
   7  -3   8   59.56    8.62   2
  -7  -2  -6   14.63    2.89   1
  -7  -2  -6   21.70    3.12   1
  -7  -2  -7    3.05    2.66   1
  -7  -2  -7    7.42    2.70   1
  -7  -2  -8    0.04    3.60   1
  -7  -2  -8   -0.17    3.81   1
  -7  -2  -9   -3.62    4.25   1
  -7  -2  -9    2.58    6.50  -1
   7  -2  11    2.58    6.50   2
  -7  -2 -10   17.60    3.85  -1
   7  -2  12   17.60    3.85   2
  -7  -2 -10   15.00    6.04  -1
   7  -2  12   15.00    6.04   2
  -7  -2 -11   17.40    3.29   1
  -7  -2 -11    5.04    4.79   1
   7   3 -14    6.16    2.65   1
   7   3 -13    7.68    2.49   1
  -7  -3  12    0.63    2.20   1
  -7  -3  11   -3.65    2.36   1
  -7  -3  10    1.32    1.74   1
  -7  -3  10   -1.24    3.55   1
  -7  -3   9    7.39    2.35   1
  -7  -3   9   13.68    4.15   1
  -7  -3   8   22.57    2.93   1
  -7  -3   8   28.84    5.01   1
  -7  -3   7   14.72    2.85   1
  -7  -3   7   18.59    2.71   1
  -7  -3   6   18.40    2.72   1
  -7  -3   6    6.56    4.23   1
  -7  -3   5   15.17    4.82  -1
   7  -7   0   15.17    4.82   2
  -7  -3   5   17.86    7.42  -1
   7  -7   0   17.86    7.42   2
  -7  -3   4    1.63    2.13   1
  -7  -3   4    7.63    5.41  -1
   7  -7   1    7.63    5.41   2
  -7  -3   3   21.15    2.38   1
  -7  -3   3   22.55    4.60   1
  -7  -3   2    8.66    3.35   1
  -7  -3   2   17.26    6.48  -1
   7  -6   3   17.26    6.48   2
  -7  -3   1    3.51    3.14   1
  -7  -3   1    2.13    3.44   1
  -7  -3   0   22.72    4.10   1
  -7  -3   0   25.53    3.11   1
  -7  -3  -1   17.81    2.75   1
  -7  -3  -1   11.60    2.90   1
  -7  -3  -2   29.03    5.49  -1
   7  -5   6   29.03    5.49   2
  -7  -3  -2   26.33    6.36  -1
   7  -5   6   26.33    6.36   2
  -7  -3  -3   17.54    4.95   1
  -7  -3  -3   58.06    8.36  -1
   7  -5   7   58.06    8.36   2
  -7  -3  -4    1.78    2.41   1
  -7  -3  -4    3.05    2.32   1
  -7  -3  -5   38.02    5.90   1
  -7  -3  -5   37.05    4.05   1
  -7  -3  -6    6.44    2.62   1
  -7  -3  -6    3.48    2.48   1
  -7  -3  -7    6.85    4.21   1
  -7  -3  -7   -0.64    3.91   1
  -7  -3  -8    1.95    3.88   1
  -7  -3  -8   22.05    9.03  -1
   7  -3  11   22.05    9.03   2
  -7  -3  -9   30.16    4.71  -1
   7  -3  12   30.16    4.71   2
  -7  -3  -9   25.60    5.40  -1
   7  -3  12   25.60    5.40   2
  -7  -3 -10    6.33    4.67   1
  -7  -3 -10   -1.35    4.05  -1
   7  -3  13   -1.35    4.05   2
  -7  -4  13    0.63    2.24   1
  -7  -4  12   15.11    5.51  -1
   7 -10  -5   15.11    5.51   2
  -7  -4  11   -0.30    3.50   1
  -7  -4  10    0.51    2.00   1
  -7  -4  10   -0.20    3.50   1
  -7  -4   9    3.53    2.20   1
  -7  -4   9    0.97    6.26  -1
   7  -9  -2    0.97    6.26   2
  -7  -4   8   20.87    2.93   1
  -7  -4   8   21.36    3.33   1
  -7  -4   7    7.74    2.97   1
  -7  -4   7   19.66    2.74   1
  -7  -4   6    4.95    2.83   1
  -7  -4   6   11.60    4.29   1
  -7  -4   5   -0.48    1.92  -1
   7  -8   1   -0.48    1.92   2
  -7  -4   5    6.82    4.59  -1
   7  -8   1    6.82    4.59   2
  -7  -4   4   17.25    3.59   1
  -7  -4   4   19.04    4.67   1
  -7  -4   3   -1.17    3.03   1
  -7  -4   3   -3.56    3.89   1
  -7  -4   2    3.46    3.16   1
  -7  -4   2   39.19    7.77  -1
  -7  -4   1   39.19    7.77  -1
   7  -7   4   39.19    7.77   2
  -7  -4   1   24.72    4.54   1
  -7  -4   0   10.84    3.84   1
  -7  -4   0   16.04    4.26   1
  -7  -4  -1   13.07    4.37   1
  -7  -4  -1   20.77    4.64   1
  -7  -4  -2   20.85    3.67  -1
   7  -6   7   20.85    3.67   2
  -7  -4  -2   16.04    6.06  -1
   7  -6   7   16.04    6.06   2
  -7  -4  -3    2.50    4.25   1
  -7  -4  -3   12.25    4.08   1
  -7  -4  -4   56.33    6.68   1
  -7  -4  -4   46.23    4.32   1
  -7  -4  -5    3.07    4.02   1
  -7  -4  -5    9.01    2.77   1
  -7  -4  -6    3.16    4.42   1
  -7  -4  -6    7.24    2.86   1
  -7  -4  -7   -0.63    4.12   1
  -7  -4  -7   17.62    8.46  -1
   7  -5  11   17.62    8.46   2
  -7  -4  -8   -2.15    4.09   1
  -7  -4  -8    4.34    5.83  -1
   7  -4  12    4.34    5.83   2
  -7  -4  -9   10.43    5.82  -1
   7  -4  13   10.43    5.82   2
  -7  -4  -9   10.46    5.44  -1
   7  -4  13   10.46    5.44   2
  -7  -5  11   -1.15    2.06   1
  -7  -5  11    4.28    3.57   1
  -7  -5  10    3.43    2.15   1
  -7  -5  10    5.36    3.90   1
  -7  -5   9   13.04    2.85   1
  -7  -5   9    8.91    4.91   1
  -7  -5   8    8.47    2.01   1
  -7  -5   8    6.93    2.75   1
  -7  -5   7    7.45    3.02   1
  -7  -5   7    8.37    2.41   1
  -7  -5   6    8.16    4.11  -1
   7  -9   1    8.16    4.11   2
  -7  -5   6    4.07    4.53  -1
   7  -9   1    4.07    4.53   2
  -7  -5   5   -3.65    1.75   1
  -7  -5   5    1.88    2.36   1
  -7  -5   4    8.32    2.11   1
  -7  -5   4   -3.27    4.19   1
  -7  -5   3    6.06    3.52   1
  -7  -5   3    7.37    5.60  -1
   7  -8   4    7.37    5.60   2
  -7  -5   2    2.76    2.20   1
  -7  -5   2   -0.16    3.79   1
  -7  -5   1   17.88    2.71   1
  -7  -5   1    7.87    4.69   1
  -7  -5   0    3.08    2.19   1
  -7  -5   0    2.82    3.93   1
  -7  -5  -1   12.95    5.42  -1
   7  -7   7   12.95    5.42   2
  -7  -5  -1   19.82    7.62  -1
   7  -7   7   19.82    7.62   2
  -7  -5  -2   17.18    4.54   1
  -7  -5  -2   21.16    5.02   1
  -7  -5  -3   -0.34    2.28   1
  -7  -5  -3    4.76    4.03   1
  -7  -5  -4   32.14    5.56   1
  -7  -5  -4   20.65    3.27   1
  -7  -5  -5   -2.33    2.51   1
  -7  -5  -5    3.17    2.43   1
  -7  -5  -6    2.33    3.99   1
  -7  -5  -6    5.27    4.12   1
  -7  -5  -7    3.02    2.86   1
  -7  -5  -7    2.68    4.37   1
  -7  -6   8    6.35    2.94   1
  -7  -6   8    5.06    4.39   1
  -7  -6   7    5.72    2.94   1
  -7  -6   7    3.20    3.96   1
  -7  -6   6    5.00    3.99  -1
   7 -10   2    5.00    3.99   2
  -7  -6   6   -1.60    5.11  -1
   7 -10   2   -1.60    5.11   2
  -7  -6   5    6.65    2.27   1
  -7  -6   5   -0.21    4.20   1
  -7  -6   4   -1.90    2.02   1
  -7  -6   4   -7.19    4.19   1
  -7  -6   3   -0.41    1.92   1
  -7  -6   3   24.57   10.94  -1
  -7  -6   2   24.57   10.94  -1
   7  -9   5   24.57   10.94   2
  -7  -6   2   14.62    2.92   1
  -7  -6   1    1.44    3.65   1
  -7  -6   1    1.16    3.97   1
  -7  -6   0    7.37    4.31   1
  -7  -6   0   12.60    4.43   1
  -7  -6  -1    4.91    5.76  -1
   7  -8   8    4.91    5.76   2
  -7  -6  -1    2.01    5.86  -1
   7  -8   8    2.01    5.86   2
  -7  -6  -2    1.36    2.42   1
  -7  -6  -2   -1.30    3.57   1
  -7  -6  -3   35.56    5.74   1
  -7  -6  -3   15.47    5.37   1
  -7  -6  -4    1.51    2.55   1
  -7  -6  -4    4.18    2.79   1
  -8   9   3    4.90    2.27   1
  -8   9   2   13.67    2.79   1
  -8   9   1   -0.13    2.09   1
  -8   9   0   -0.31    1.46   1
  -8   9  -1    3.24    2.60   1
  -8   9  -2    4.70    2.88   1
  -8   9  -3    6.88    3.38  -1
   8   5  -4    6.88    3.38   2
  -8   9  -4    5.06    3.13   1
  -8   8   4   -2.27    3.05  -1
   8   2  -9   -2.27    3.05   2
  -8   8   3   27.70    3.01   1
  -8   8   2    0.91    2.02   1
  -8   8   1    2.79    2.15   1
  -8   8   0   -1.96    2.36   1
  -8   8  -1   -0.47    2.43   1
  -8   8  -2    0.06    3.31  -1
   8   4  -4    0.06    3.31   2
  -8   8  -3   -1.38    4.86  -1
   8   4  -3   -1.38    4.86   2
  -8   8  -4   12.73    3.58   1
  -8   8  -5    0.36    2.94   1
  -8   8  -6   11.35    2.41   1
  -8   8  -7    0.22    2.97   1
  -8   7   4   10.75    2.01   1
  -8   7   3   26.81    2.92   1
  -8   7   2   -1.05    1.93   1
  -8   7   1    0.30    2.02   1
  -8   7   0    2.31    2.29   1
  -8   7  -1    9.47    2.78   1
  -8   7  -2    4.83    3.27  -1
   8   3  -3    4.83    3.27   2
  -8   7  -3    3.27    2.91   1
  -8   7  -4   16.40    3.79   1
  -8   7  -5   -1.73    2.05   1
  -8   7  -6   20.06    4.14   1
  -8   7  -7    9.19    3.54   1
  -8   7  -7    3.62    2.59   1
  -8   7  -8    4.47    2.24   1
  -8   7  -8    0.73    2.52   1
  -8   6   5    5.12    2.88  -1
   8   0  -8    5.12    2.88   2
  -8   6   4   52.81    3.53   1
  -8   6   3   -1.28    1.72   1
  -8   6   2    4.84    2.12   1
  -8   6   1   -0.76    2.04   1
  -8   6   0    4.92    2.41   1
  -8   6  -1    1.90    3.93  -1
   8   2  -3    1.90    3.93   2
  -8   6  -2    7.42    4.98  -1
   8   2  -2    7.42    4.98   2
  -8   6  -2   12.28    3.40  -1
   8   2  -2   12.28    3.40   2
  -8   6  -3   17.61    3.70   1
  -8   6  -3   12.79    2.32   1
  -8   6  -4    4.23    3.03   1
  -8   6  -4    0.83    1.90   1
  -8   6  -5   13.87    3.52   1
  -8   6  -5    8.51    2.76   1
  -8   6  -6    3.41    3.18   1
  -8   6  -6    1.88    2.59   1
  -8   6  -7    4.62    2.33   1
  -8   6  -7    4.06    2.64   1
  -8   6  -8   13.43    5.20  -1
   8   4   3   13.43    5.20   2
  -8   6  -8   16.02    5.45  -1
   8   4   3   16.02    5.45   2
  -8   6  -9    2.25    1.79   1
  -8   6  -9    8.49    6.75  -1
   8   4   4    8.49    6.75   2
  -8   5   5    5.79    1.57   1
  -8   5   4   47.19    3.17   1
  -8   5   3    3.63    1.77   1
  -8   5   3    0.39    1.50   1
  -8   5   2    1.44    1.93   1
  -8   5   2    0.92    1.47   1
  -8   5   1    1.50    2.11   1
  -8   5   1   -1.95    1.64   1
  -8   5   0    2.99    2.42   1
  -8   5   0    3.15    1.86   1
  -8   5  -1   12.04    3.38  -1
   8   1  -2   12.04    3.38   2
  -8   5  -1    7.94    2.38  -1
   8   1  -2    7.94    2.38   2
  -8   5  -2    5.52    2.81   1
  -8   5  -2    3.09    2.13   1
  -8   5  -3   15.85    3.93   1
  -8   5  -3   17.68    2.95   1
  -8   5  -4    0.89    3.04   1
  -8   5  -4    2.39    2.21   1
  -8   5  -5   30.07    4.58   1
  -8   5  -5   28.63    3.74   1
  -8   5  -6    8.32    3.52   1
  -8   5  -6    5.30    2.95   1
  -8   5  -7   -5.37    3.41   1
  -8   5  -7    2.28    2.60   1
  -8   5  -8   97.43    9.60  -1
   8   3   4   97.43    9.60   2
  -8   5  -8   77.53    7.52  -1
   8   3   4   77.53    7.52   2
  -8   5  -9    0.93    2.31   1
  -8   5  -9   -1.24    1.69   1
  -8   5 -10   -3.53    2.36   1
  -8   5 -10    2.49    2.89   1
   8  -4  -8   31.19    2.62   1
  -8   4   7    0.08    1.47   1
  -8   4   6    3.12    2.06   1
  -8   4   6    2.01    1.75  -1
   8  -2  -7    2.01    1.75   2
  -8   4   5   87.42    4.33   1
  -8   4   5   81.92    4.89   1
  -8   4   4    0.23    1.35   1
  -8   4   4    1.53    2.91  -1
   8  -1  -5    1.53    2.91   2
  -8   4   3   13.56    2.01   1
  -8   4   3   11.20    2.35   1
  -8   4   2    0.04    1.12   1
  -8   4   2    2.91    3.37  -1
   8  -1  -4    2.91    3.37   2
  -8   4   1    0.83    1.90   1
  -8   4   1    2.66    2.01   1
  -8   4   0    1.00    1.89   1
  -8   4   0    2.70    2.68  -1
   8   0  -2    2.70    2.68   2
  -8   4  -1    6.48    3.48  -1
   8   0  -1    6.48    3.48   2
  -8   4  -1    5.71    3.82  -1
   8   0  -1    5.71    3.82   2
  -8   4  -2   29.69    3.80   1
  -8   4  -2   30.92    3.45   1
  -8   4  -3   12.94    3.23   1
  -8   4  -3    4.31    2.75   1
  -8   4  -4   15.73    3.91   1
  -8   4  -4   17.55    3.23   1
  -8   4  -5   12.23    3.54   1
  -8   4  -5    6.88    1.82   1
  -8   4  -6    3.45    3.50   1
  -8   4  -6    5.44    1.88   1
  -8   4  -7   16.40    5.40  -1
   8   2   4   16.40    5.40   2
  -8   4  -7   18.75    4.99  -1
   8   2   4   18.75    4.99   2
  -8   4  -8   21.68    7.10  -1
   8   2   5   21.68    7.10   2
  -8   4  -8   20.82    6.51  -1
   8   2   5   20.82    6.51   2
  -8   4  -9    4.89    3.71   1
  -8   4  -9    3.38    2.01   1
  -8   4 -10    1.35    3.51   1
  -8   4 -10   -0.81    2.96   1
  -8   4 -11    1.86    2.43   1
  -8   4 -11   -0.30    1.99   1
   8  -3 -12    1.69    1.98   1
   8  -3 -11    9.78    2.45   1
   8  -3 -10    5.84    2.32   1
  -8   3   9   -2.48    1.23   1
  -8   3   8    8.10    2.35   1
  -8   3   7   17.26    3.12  -1
   8  -3  -7   17.26    3.12   2
  -8   3   6    2.09    2.12   1
  -8   3   5   62.86    3.57   1
  -8   3   5   64.23    4.95   1
  -8   3   4    3.51    1.70   1
  -8   3   4    6.24    2.47   1
  -8   3   3   -2.06    1.56   1
  -8   3   3    5.00    2.13   1
  -8   3   2    0.58    1.91   1
  -8   3   2    2.69    2.17   1
  -8   3   1   -1.77    2.26   1
  -8   3   1   -3.67    3.55  -1
   8  -1  -2   -3.67    3.55   2
  -8   3   0    9.05    2.97  -1
   8  -1  -1    9.05    2.97   2
  -8   3   0    7.86    2.96  -1
   8  -1  -1    7.86    2.96   2
  -8   3  -1    7.12    2.72   1
  -8   3  -1   17.82    4.07  -1
   8  -1   0   17.82    4.07   2
  -8   3  -2   38.37    4.22   1
  -8   3  -2   23.99    3.74   1
  -8   3  -3    1.40    3.01   1
  -8   3  -4   33.23    4.74   1
  -8   3  -4   33.47    4.49   1
  -8   3  -5    5.61    3.59   1
  -8   3  -5    7.35    1.95   1
  -8   3  -6    2.11    1.76   1
  -8   3  -6    1.54    4.12  -1
   8   1   4    1.54    4.12   2
  -8   3  -7  149.77    8.70  -1
   8   1   5  149.77    8.70   2
  -8   3  -7  122.42    9.62  -1
   8   1   5  122.42    9.62   2
  -8   3  -8    0.52    2.92   1
  -8   3  -9   -1.77    4.06   1
  -8   3  -9    4.29    2.12   1
  -8   3 -10   12.87    4.63   1
  -8   3 -10    4.52    3.89   1
  -8   3 -11   11.13    4.63   1
  -8   3 -11    4.17    2.47   1
   8  -2 -14   24.22    4.86  -1
  -8   6  12   24.22    4.86   2
   8  -2 -13    3.21    1.61   1
   8  -2 -12    0.42    2.42   1
   8  -2 -11   26.48    3.66   1
  -8   2  10   -1.80    1.47   1
  -8   2   9   34.33    3.82   1
  -8   2   8   -1.90    2.10   1
  -8   2   7    5.80    4.57  -1
   8  -4  -6    5.80    4.57   2
  -8   2   6  112.08    5.16   1
  -8   2   6  104.05    6.66   1
  -8   2   5   -0.78    2.07   1
  -8   2   5    3.12    1.52   1
  -8   2   4   17.54    2.12   1
  -8   2   4   10.75    2.10   1
  -8   2   3   -0.23    1.94   1
  -8   2   3    2.15    1.38   1
  -8   2   2    7.95    2.29   1
  -8   2   2    0.91    2.62   1
  -8   2   1    2.40    2.60   1
  -8   2   1    2.74    2.46  -1
   8  -2  -1    2.74    2.46   2
  -8   2   0    6.41    2.76  -1
   8  -2   0    6.41    2.76   2
  -8   2   0   15.84    4.82  -1
   8  -2   0   15.84    4.82   2
  -8   2  -1   38.46    3.13   1
  -8   2  -2   17.42    2.29   1
  -8   2  -2   12.32    5.29  -1
   8  -1   2   12.32    5.29   2
  -8   2  -3   29.46    4.15   1
  -8   2  -3   30.26    4.06   1
  -8   2  -4   10.65    3.44   1
  -8   2  -4    3.84    2.07   1
  -8   2  -5    0.37    1.82   1
  -8   2  -5    5.09    5.27  -1
   8   0   4    5.09    5.27   2
  -8   2  -6   24.93    5.11  -1
   8   0   5   24.93    5.11   2
  -8   2  -6   30.03    4.54  -1
   8   0   5   30.03    4.54   2
  -8   2  -7   31.49    5.73  -1
   8   0   6   31.49    5.73   2
  -8   2  -7   31.33    7.47  -1
   8   0   6   31.33    7.47   2
  -8   2  -8    6.94    2.41   1
  -8   2  -8   -0.64    3.48   1
  -8   2  -9   -0.41    2.45   1
  -8   2  -9   -2.78    2.17   1
  -8   2 -10    1.41    2.43   1
  -8   2 -10    2.55    3.45   1
  -8   2 -11    1.01    2.48   1
  -8   2 -11   -4.37    2.13   1
   8  -1 -14    6.91    3.15   1
   8  -1 -13    0.54    2.82   1
   8  -1 -12    8.55    3.35   1
  -8   1  10   11.94    3.43   1
  -8   1   9    3.14    1.86   1
  -8   1   8   21.69    4.32  -1
   8  -5  -6   21.69    4.32   2
  -8   1   7    4.18    1.32   1
  -8   1   7    4.57    2.99   1
  -8   1   6   54.85    3.98   1
  -8   1   6   58.62    5.61   1
  -8   1   5    6.64    1.64   1
  -8   1   5   23.64    5.96  -1
  -8   1   4   23.64    5.96  -1
   8  -4  -3   23.64    5.96   2
  -8   1   4    1.48    1.72   1
  -8   1   3    6.89    2.17   1
  -8   1   3    0.29    1.58   1
  -8   1   2   -3.88    2.76   1
  -8   1   2    0.58    3.12  -1
   8  -3  -1    0.58    3.12   2
  -8   1   1   12.64    3.23  -1
   8  -3   0   12.64    3.23   2
  -8   1   1    6.44    3.17  -1
   8  -3   0    6.44    3.17   2
  -8   1   0    8.57    3.12   1
  -8   1   0   27.01    5.55  -1
   8  -3   1   27.01    5.55   2
  -8   1  -1   34.94    2.83   1
  -8   1  -1   27.89    4.61   1
  -8   1  -2   -3.66    3.07   1
  -8   1  -2   -6.08    3.20   1
  -8   1  -3   41.45    3.30   1
  -8   1  -3   32.54    3.07   1
  -8   1  -4   10.03    3.78   1
  -8   1  -4    8.29    2.28   1
  -8   1  -5   -0.20    1.87   1
  -8   1  -5    6.34    5.10  -1
   8  -1   5    6.34    5.10   2
  -8   1  -6  161.90    8.83  -1
   8  -1   6  161.90    8.83   2
  -8   1  -6  169.92    9.06  -1
   8  -1   6  169.92    9.06   2
  -8   1  -7    5.71    3.71   1
  -8   1  -7    2.85    3.93  -1
   8  -1   7    2.85    3.93   2
  -8   1  -8    0.16    3.43   1
  -8   1  -9   25.39    5.11   1
  -8   1  -9   18.71    3.08   1
  -8   1 -10   10.29    4.48   1
  -8   1 -10    5.50    3.90   1
  -8   1 -11    5.63    2.54   1
  -8   1 -11   13.50    7.72  -1
   8   1  10   13.50    7.72   2
   8   0 -14    0.16    3.07   1
   8   0 -13    4.66    3.39   1
   8   0 -12   23.46    2.94   1
  -8   0  11   -0.01    1.69   1
  -8   0  10   26.67    4.46   1
  -8   0   9    0.40    2.86   1
  -8   0   8   -1.25    5.42  -1
   8  -6  -5   -1.25    5.42   2
  -8   0   7   81.71    4.54   1
  -8   0   7   88.34    6.80   1
  -8   0   6   -1.82    1.59   1
  -8   0   6   -0.98    2.75   1
  -8   0   5   13.90    2.34   1
  -8   0   5   16.55    3.88   1
  -8   0   4    5.63    2.11   1
  -8   0   4    5.03    5.23  -1
   8  -5  -2    5.03    5.23   2
  -8   0   3    6.92    2.35   1
  -8   0   3    4.29    1.94   1
  -8   0   2    3.68    2.87   1
  -8   0   2    1.58    2.53  -1
   8  -4   0    1.58    2.53   2
  -8   0   1    4.02    3.47  -1
   8  -4   1    4.02    3.47   2
  -8   0   1    8.07    4.35  -1
   8  -4   1    8.07    4.35   2
  -8   0   0   37.59    3.01   1
  -8   0   0   37.09    5.00   1
  -8   0  -1   27.03    4.36   1
  -8   0  -1   19.86    6.12  -1
   8  -3   3   19.86    6.12   2
  -8   0  -2   30.06    4.44   1
  -8   0  -2   30.46    4.56   1
  -8   0  -3   10.61    4.08   1
  -8   0  -4    5.50    2.05   1
  -8   0  -4    7.63    5.35  -1
   8  -2   5    7.63    5.35   2
  -8   0  -5   23.63    4.91  -1
   8  -2   6   23.63    4.91   2
  -8   0  -5   22.37    6.06  -1
   8  -2   6   22.37    6.06   2
  -8   0  -6   26.29    5.51  -1
   8  -2   7   26.29    5.51   2
  -8   0  -6   29.83    6.71  -1
   8  -2   7   29.83    6.71   2
  -8   0  -7   10.31    2.61   1
  -8   0  -7    7.82    4.27   1
  -8   0  -8   -1.57    3.88   1
  -8   0  -8   -2.47    3.90   1
  -8   0  -9   10.39    4.03   1
  -8   0  -9   -0.62    2.44   1
  -8   0 -10   -0.24    4.25   1
  -8   0 -10   -2.26    3.62   1
   8   1 -13    8.71    4.00   1
  -8  -1  12   10.03    2.60   1
  -8  -1  11    5.29    2.28   1
  -8  -1  10    6.39    2.24   1
  -8  -1   9   12.08    4.78  -1
   8  -7  -5   12.08    4.78   2
  -8  -1   8    1.70    1.48   1
  -8  -1   8    7.07    3.26   1
  -8  -1   7   32.53    2.87   1
  -8  -1   7   35.91    4.75   1
  -8  -1   6    2.84    2.04   1
  -8  -1   6    4.33    5.71  -1
   8  -6  -2    4.33    5.71   2
  -8  -1   5   -0.71    2.03   1
  -8  -1   5    2.68    1.99   1
  -8  -1   4    4.38    2.38   1
  -8  -1   4    3.62    3.29   1
  -8  -1   3    0.96    2.31   1
  -8  -1   3    0.01    3.12   1
  -8  -1   2   10.01    3.11  -1
   8  -5   1   10.01    3.11   2
  -8  -1   2    5.47    2.43  -1
   8  -5   1    5.47    2.43   2
  -8  -1   1    6.19    1.91   1
  -8  -1   1    5.97    3.54   1
  -8  -1   0   31.12    4.10   1
  -8  -1   0   26.82    4.78   1
  -8  -1  -1    3.77    3.27   1
  -8  -1  -1   22.32    5.88  -1
   8  -4   4   22.32    5.88   2
  -8  -1  -2   25.98    4.47   1
  -8  -1  -2   17.51    3.05   1
  -8  -1  -3    3.52    3.30   1
  -8  -1  -3    8.19    5.33  -1
   8  -4   5    8.19    5.33   2
  -8  -1  -4    2.25    3.11   1
  -8  -1  -4    1.05    2.19   1
  -8  -1  -5  151.80   11.52  -1
   8  -3   7  151.80   11.52   2
  -8  -1  -5  126.15    8.01  -1
   8  -3   7  126.15    8.01   2
  -8  -1  -6   -0.03    2.34   1
  -8  -1  -6    1.47    2.04   1
  -8  -1  -7   -2.31    4.01   1
  -8  -1  -7   -1.90    3.95   1
  -8  -1  -8   28.10    5.79   1
  -8  -1  -8   13.97    5.37   1
  -8  -1  -9   17.58    5.23   1
  -8  -1  -9   14.42    3.22   1
  -8  -1 -10   11.25    3.37   1
  -8  -1 -10    7.39    4.83   1
  -8  -2  12   -0.59    3.41   1
  -8  -2  11   18.12    4.48   1
  -8  -2  10    2.11    3.47   1
  -8  -2   9    9.10    6.88  -1
   8  -8  -4    9.10    6.88   2
  -8  -2   8   45.74    3.79   1
  -8  -2   8   60.26    4.82   1
  -8  -2   7    0.31    1.11   1
  -8  -2   7    0.90    2.88   1
  -8  -2   6    4.83    2.44   1
  -8  -2   6    4.28    3.57   1
  -8  -2   5    7.91    2.59   1
  -8  -2   5    6.11    2.39   1
  -8  -2   4    3.80    2.68   1
  -8  -2   4    8.47    3.62   1
  -8  -2   3   -3.44    3.43   1
  -8  -2   3   -8.51    4.62  -1
   8  -6   1   -8.51    4.62   2
  -8  -2   2   -0.25    3.43  -1
   8  -6   2   -0.25    3.43   2
  -8  -2   2    3.37    5.71  -1
   8  -6   2    3.37    5.71   2
  -8  -2   1   28.74    2.90   1
  -8  -2   1   27.84    3.28   1
  -8  -2   0   22.34    4.36   1
  -8  -2   0   28.04    3.18   1
  -8  -2  -1   22.75    4.52   1
  -8  -2  -1   21.95    4.81   1
  -8  -2  -2    5.39    3.76   1
  -8  -2  -2   37.51    7.43  -1
   8  -5   5   37.51    7.43   2
  -8  -2  -3   -3.01    2.05   1
  -8  -2  -3    1.44    3.63   1
  -8  -2  -4   16.95    5.50  -1
   8  -4   7   16.95    5.50   2
  -8  -2  -4   13.21    7.73  -1
   8  -4   7   13.21    7.73   2
  -8  -2  -5   23.71    6.29  -1
   8  -4   8   23.71    6.29   2
  -8  -2  -5   21.41    5.38  -1
   8  -4   8   21.41    5.38   2
  -8  -2  -6   10.68    4.42   1
  -8  -2  -6    5.31    2.40   1
  -8  -2  -7    0.98    3.79   1
  -8  -2  -7    1.04    3.77   1
  -8  -2  -8   -1.37    4.07   1
  -8  -2  -8   -4.09    3.93   1
  -8  -2  -9   -2.28    2.34   1
  -8  -2  -9    3.12    2.43   1
  -8  -3  11    3.98    3.88   1
  -8  -3  10   14.02    3.49  -1
   8  -9  -4   14.02    3.49   2
  -8  -3   9   -0.24    2.22   1
  -8  -3   8   20.62    2.97   1
  -8  -3   8   21.69    4.94   1
  -8  -3   7    0.06    2.02   1
  -8  -3   7    0.23    3.13   1
  -8  -3   6   -0.89    2.04   1
  -8  -3   6    6.59    5.35  -1
   8  -8  -1    6.59    5.35   2
  -8  -3   5    7.36    2.88   1
  -8  -3   5   14.17    4.10   1
  -8  -3   4   -2.26    1.58   1
  -8  -3   4    1.37    2.16   1
  -8  -3   3    5.65    3.54  -1
   8  -7   2    5.65    3.54   2
  -8  -3   3    5.86    2.88  -1
   8  -7   2    5.86    2.88   2
  -8  -3   2    0.94    2.90   1
  -8  -3   2    1.25    3.69   1
  -8  -3   1   15.04    3.90   1
  -8  -3   1   11.64    4.14   1
  -8  -3   0    7.62    2.21   1
  -8  -3   0    3.24    4.04   1
  -8  -3  -1   12.27    4.01   1
  -8  -3  -1   29.67    6.89  -1
   8  -6   5   29.67    6.89   2
  -8  -3  -2   10.20    3.97   1
  -8  -3  -2    3.95    4.23   1
  -8  -3  -3    0.48    3.60   1
  -8  -3  -3   -3.96    5.07  -1
   8  -5   7   -3.96    5.07   2
  -8  -3  -4   88.64    9.66  -1
   8  -5   8   88.64    9.66   2
  -8  -3  -4   81.61    9.78  -1
   8  -5   8   81.61    9.78   2
  -8  -3  -5    1.92    2.46   1
  -8  -3  -5    3.41    2.47   1
  -8  -3  -6    0.71    3.55   1
  -8  -3  -6    0.56    2.44   1
  -8  -3  -7   17.29    3.36   1
  -8  -3  -7   17.23    4.98   1
  -8  -4   9   20.21    2.31   1
  -8  -4   9   32.00    3.88   1
  -8  -4   8    3.01    2.43   1
  -8  -4   8    9.68    3.84   1
  -8  -4   7    3.58    1.69   1
  -8  -4   7    0.98    3.34   1
  -8  -4   6    6.05    2.83   1
  -8  -4   6    2.49    4.10   1
  -8  -4   5    3.39    2.74   1
  -8  -4   5    1.01    3.83   1
  -8  -4   4    3.60    3.86   1
  -8  -4   4    6.79    4.19  -1
   8  -8   2    6.79    4.19   2
  -8  -4   3   -0.70    3.68   1
  -8  -4   3    0.11    5.38  -1
   8  -8   3    0.11    5.38   2
  -8  -4   2   15.19    3.94   1
  -8  -4   2   15.01    4.70   1
  -8  -4   1   23.69    4.40   1
  -8  -4   1   24.54    7.77  -1
   8  -7   5   24.54    7.77   2
  -8  -4   0   15.24    4.11   1
  -8  -4   0    9.52    4.83   1
  -8  -4  -1    9.39    2.51   1
  -8  -4  -1   20.19    4.41   1
  -8  -4  -2   -2.81    2.21   1
  -8  -4  -2   -4.72    3.99   1
  -8  -4  -3   16.17    6.28  -1
   8  -6   8   16.17    6.28   2
  -8  -4  -3   14.30    8.14  -1
   8  -6   8   14.30    8.14   2
  -8  -4  -4    3.22    4.03   1
  -8  -4  -4    8.35    5.72  -1
   8  -6   9    8.35    5.72   2
  -8  -4  -5    7.57    4.41   1
  -8  -4  -5    7.87    2.65   1
  -8  -5   7    1.63    1.61   1
  -8  -5   7    2.51    5.22  -1
   8 -10   0    2.51    5.22   2
  -8  -5   6   -0.86    2.84   1
  -8  -5   6   -1.16    2.27   1
  -8  -5   5   -1.07    2.69   1
  -8  -5   5   -0.32    2.33   1
  -8  -5   4    6.81    3.85  -1
   8  -9   3    6.81    3.85   2
  -8  -5   4   10.92    5.48  -1
   8  -9   3   10.92    5.48   2
  -8  -5   3   -1.42    3.17   1
  -8  -5   3   -2.00    3.96   1
  -8  -5   2    1.57    3.69   1
  -8  -5   2    8.59    2.94   1
  -8  -5   1    4.74    2.31   1
  -8  -5   1   27.08    8.08  -1
  -8  -5   0   27.08    8.08  -1
   8  -8   6   27.08    8.08   2
  -8  -5   0   10.92    2.76   1
  -8  -5  -1   -2.61    3.63   1
  -8  -5  -1   -1.98    2.27   1
  -8  -5  -2   -0.91    3.68   1
  -8  -5  -2   -0.44    2.23   1
  -9   8   2    1.33    2.05   1
  -9   8   1   -0.85    1.46   1
  -9   8   0    0.15    1.43   1
  -9   8  -1   -1.46    1.60   1
  -9   8  -2    3.20    2.74   1
  -9   8  -3    1.53    2.88   1
  -9   7   2    4.60    1.40   1
  -9   7   1    9.73    2.47   1
  -9   7   0    0.73    2.31   1
  -9   7  -1   13.68    3.09   1
  -9   7  -2    0.90    2.62   1
  -9   7  -3    2.52    4.48  -1
   9   3  -2    2.52    4.48   2
  -9   7  -4   68.38    6.29  -1
   9   3  -1   68.38    6.29   2
  -9   7  -5    1.07    1.90   1
  -9   6   3    5.62    2.03   1
  -9   6   2    5.86    2.26   1
  -9   6   1    2.58    2.26   1
  -9   6   0   -2.06    2.39   1
  -9   6  -1    2.32    2.68   1
  -9   6  -2   13.01    3.22   1
  -9   6  -3   24.24    4.63  -1
   9   2  -1   24.24    4.63   2
  -9   6  -4   10.73    3.72   1
  -9   6  -5    3.31    3.34   1
  -9   6  -6    4.98    3.55   1
  -9   5   3    4.73    1.98   1
  -9   5   2   21.58    2.95   1
  -9   5   1    4.66    2.32   1
  -9   5   0   22.77    3.39   1
  -9   5  -1   -1.48    2.46   1
  -9   5  -1    0.54    1.99   1
  -9   5  -2    3.21    2.16   1
  -9   5  -2    6.52    3.35  -1
   9   1  -1    6.52    3.35   2
  -9   5  -3  132.20   10.75  -1
   9   1   0  132.20   10.75   2
  -9   5  -3  102.79    9.49  -1
   9   1   0  102.79    9.49   2
  -9   5  -4    6.00    3.23   1
  -9   5  -4    3.99    2.63   1
  -9   5  -5   -1.42    3.11   1
  -9   5  -5    2.33    2.33   1
  -9   5  -6   -1.48    3.27   1
  -9   5  -6    2.14    2.60   1
  -9   5  -7   -6.78    3.38   1
  -9   5  -7    2.85    2.81   1
  -9   4   4    7.87    2.55   1
  -9   4   4   10.31    3.02  -1
   9  -2  -5   10.31    3.02   2
  -9   4   3    6.91    2.10   1
  -9   4   3   10.34    2.43   1
  -9   4   2   -0.55    1.90   1
  -9   4   2    5.54    3.84  -1
   9  -1  -3    5.54    3.84   2
  -9   4   1    2.64    2.26   1
  -9   4   1    3.88    2.37   1
  -9   4   0    4.85    1.62   1
  -9   4   0   -1.37    2.42   1
  -9   4  -1   19.47    3.22   1
  -9   4  -1   29.90    5.99  -1
   9   0  -1   29.90    5.99   2
  -9   4  -2   39.26    5.23  -1
   9   0   0   39.26    5.23   2
  -9   4  -2   41.61    4.87  -1
   9   0   0   41.61    4.87   2
  -9   4  -3   13.04    3.16   1
  -9   4  -3   39.15    7.07  -1
   9   0   1   39.15    7.07   2
  -9   4  -4    7.86    2.08   1
  -9   4  -4    5.87    2.95   1
  -9   4  -5    6.75    2.19   1
  -9   4  -5   -0.86    3.01   1
  -9   4  -6    2.41    2.19   1
  -9   4  -6    2.89    3.06   1
  -9   4  -7    0.59    2.04   1
  -9   4  -7    5.41    2.97   1
  -9   4  -8    9.42    3.59   1
  -9   3   8    0.43    2.16   1
  -9   3   7   -0.53    2.30   1
  -9   3   6   19.66    3.14   1
  -9   3   5    3.73    4.43  -1
   9  -3  -5    3.73    4.43   2
  -9   3   4    3.89    1.93   1
  -9   3   4   10.78    2.88   1
  -9   3   3   29.93    3.00   1
  -9   3   3   37.31    6.12  -1
   9  -2  -3   37.31    6.12   2
  -9   3   2    0.03    2.11   1
  -9   3   2    3.71    2.38   1
  -9   3   1   34.04    3.31   1
  -9   3   1   26.99    2.59   1
  -9   3   0    1.04    2.34   1
  -9   3   0   -1.59    2.37   1
  -9   3  -1    1.62    2.56   1
  -9   3  -1    8.68    3.36  -1
   9  -1   0    8.68    3.36   2
  -9   3  -2  190.45   12.23  -1
   9  -1   1  190.45   12.23   2
  -9   3  -2  173.48   13.96  -1
   9  -1   1  173.48   13.96   2
  -9   3  -3    7.64    1.95   1
  -9   3  -3    1.03    1.60   1
  -9   3  -4   -2.99    1.87   1
  -9   3  -4   -0.50    1.65   1
  -9   3  -5    9.80    3.22   1
  -9   3  -5   -1.61    3.05   1
  -9   3  -6   -0.19    3.33   1
  -9   3  -6    2.86    1.92   1
  -9   3  -7    3.04    2.16   1
  -9   3  -7    9.57    6.48  -1
   9   1   5    9.57    6.48   2
  -9   3  -8   26.63    5.66  -1
   9   1   6   26.63    5.66   2
  -9   3  -8   14.30    6.75  -1
   9   1   6   14.30    6.75   2
   9  -2 -12    9.48    3.18   1
   9  -2 -11   26.99    3.97   1
  -9   2  10    6.38    3.12   1
  -9   2   9    2.44    2.68   1
  -9   2   8   -0.76    2.62   1
  -9   2   7    6.32    2.97   1
  -9   2   6   10.23    3.96  -1
   9  -4  -5   10.23    3.96   2
  -9   2   5    4.45    2.66   1
  -9   2   5   14.39    2.94  -1
   9  -4  -4   14.39    2.94   2
  -9   2   4   13.60    2.05   1
  -9   2   4   11.35    2.20   1
  -9   2   3    4.59    2.23   1
  -9   2   3    8.29    4.86  -1
   9  -3  -2    8.29    4.86   2
  -9   2   2    7.00    2.77   1
  -9   2   2   11.88    3.15   1
  -9   2   1    5.01    2.63   1
  -9   2   1   12.88    2.99   1
  -9   2   0   13.19    3.44   1
  -9   2   0   24.03    4.75  -1
   9  -2   0   24.03    4.75   2
  -9   2  -1   44.48    3.50  -1
   9  -2   1   44.48    3.50   2
  -9   2  -1   45.13    5.63  -1
   9  -2   1   45.13    5.63   2
  -9   2  -2   24.23    2.84   1
  -9   2  -2   58.62    7.42  -1
   9  -2   2   58.62    7.42   2
  -9   2  -3    5.21    1.93   1
  -9   2  -3    0.20    3.16   1
  -9   2  -4    6.29    3.12   1
  -9   2  -4   -2.23    2.84   1
  -9   2  -5    1.65    3.15   1
  -9   2  -5    3.12    3.17   1
  -9   2  -6    2.09    3.30   1
  -9   2  -6    4.34    5.69  -1
   9   0   5    4.34    5.69   2
  -9   2  -7    5.21    2.43   1
  -9   2  -7   12.07    6.14  -1
   9   0   6   12.07    6.14   2
  -9   2  -8   24.85    3.68  -1
   9   0   7   24.85    3.68   2
  -9   2  -8   18.55    5.09  -1
   9   0   7   18.55    5.09   2
   9  -1 -12    2.69    3.29   1
  -9   1  11   18.89    2.84   1
  -9   1  10   12.00    3.38   1
  -9   1   9   -2.44    2.84   1
  -9   1   8    3.58    1.97   1
  -9   1   7   12.01    3.45   1
  -9   1   6    2.31    5.37  -1
   9  -5  -4    2.31    5.37   2
  -9   1   5    5.67    1.92   1
  -9   1   5    4.97    3.32   1
  -9   1   4   34.19    3.31   1
  -9   1   4   38.42    6.27  -1
   9  -4  -2   38.42    6.27   2
  -9   1   3    2.91    2.08   1
  -9   1   3   -0.06    2.99   1
  -9   1   2   30.60    3.71   1
  -9   1   2   36.80    6.50  -1
   9  -4  -1   36.80    6.50   2
  -9   1   1   -2.59    2.42   1
  -9   1   1    1.38    2.60   1
  -9   1   0   -1.52    1.70   1
  -9   1   0   -2.70    3.22  -1
   9  -3   1   -2.70    3.22   2
  -9   1  -1  195.33   12.82  -1
   9  -3   2  195.33   12.82   2
  -9   1  -1  189.05   13.48  -1
   9  -3   2  189.05   13.48   2
  -9   1  -2    2.70    3.00   1
  -9   1  -2    7.17    5.30  -1
   9  -3   3    7.17    5.30   2
  -9   1  -3    1.78    3.05   1
  -9   1  -3    2.87    5.37  -1
   9  -2   4    2.87    5.37   2
  -9   1  -4   11.87    3.83   1
  -9   1  -4    6.78    3.61   1
  -9   1  -5   -1.76    3.58   1
  -9   1  -5   -3.10    3.12   1
  -9   1  -6    2.16    3.40   1
  -9   1  -7   15.69    4.78  -1
   9  -1   7   15.69    4.78   2
  -9   1  -7    9.96    5.64  -1
   9  -1   7    9.96    5.64   2
  -9   1  -8   46.82    4.64  -1
   9  -1   8   46.82    4.64   2
  -9   1  -8   52.00    9.55  -1
   9  -1   8   52.00    9.55   2
  -9   0  11    2.16    3.07   1
  -9   0  10    9.29    2.27   1
  -9   0   9   -3.36    3.22   1
  -9   0   8    3.70    3.42   1
  -9   0   7    3.52    3.43  -1
   9  -6  -4    3.52    3.43   2
  -9   0   6    2.80    1.81   1
  -9   0   6    5.00    3.36   1
  -9   0   5   12.08    2.27   1
  -9   0   5   12.19    2.60   1
  -9   0   4    1.55    2.36   1
  -9   0   4    7.03    3.13   1
  -9   0   3   13.05    2.71   1
  -9   0   3    9.07    4.92  -1
   9  -5  -1    9.07    4.92   2
  -9   0   2    3.05    2.62   1
  -9   0   2    7.20    2.07   1
  -9   0   1   10.85    3.03   1
  -9   0   1    4.37    3.65   1
  -9   0   0   38.73    4.69  -1
   9  -4   2   38.73    4.69   2
  -9   0   0   46.04    6.03  -1
   9  -4   2   46.04    6.03   2
  -9   0  -1   11.26    3.88   1
  -9   0  -1   39.92    6.79  -1
   9  -4   3   39.92    6.79   2
  -9   0  -2    6.08    3.35   1
  -9   0  -2    3.10    3.44   1
  -9   0  -3   -0.70    1.86   1
  -9   0  -3    1.89    3.10   1
  -9   0  -4    4.07    3.59   1
  -9   0  -4    2.23    3.61   1
  -9   0  -5    1.77    3.80   1
  -9   0  -5    0.32    3.33   1
  -9   0  -6   -0.18    3.41   1
  -9   0  -6   23.27    5.40  -1
   9  -2   7   23.27    5.40   2
  -9   0  -7   37.73    6.31  -1
   9  -2   8   37.73    6.31   2
  -9   0  -7   19.60    5.63  -1
   9  -2   8   19.60    5.63   2
  -9  -1  10   -2.62    3.26   1
  -9  -1   9    0.56    3.33   1
  -9  -1   8    8.42    2.67   1
  -9  -1   7   -2.20    5.56  -1
   9  -7  -3   -2.20    5.56   2
  -9  -1   6    3.05    2.09   1
  -9  -1   6    1.38    3.59   1
  -9  -1   5   16.91    3.06   1
  -9  -1   5   21.87    3.14   1
  -9  -1   4    0.74    2.23   1
  -9  -1   4    1.44    3.22   1
  -9  -1   3   18.74    3.26   1
  -9  -1   3   24.30    7.11  -1
   9  -6   0   24.30    7.11   2
  -9  -1   2    1.62    2.76   1
  -9  -1   2    4.00    3.05   1
  -9  -1   1    0.18    2.02   1
  -9  -1   1    3.78    4.17  -1
   9  -5   2    3.78    4.17   2
  -9  -1   0  117.68   10.01  -1
   9  -5   3  117.68   10.01   2
  -9  -1   0  114.91    9.52  -1
   9  -5   3  114.91    9.52   2
  -9  -1  -1    0.87    1.82   1
  -9  -1  -1    3.90    2.26   1
  -9  -1  -2    4.26    3.19   1
  -9  -1  -2   -3.75    2.02   1
  -9  -1  -3   12.66    2.57   1
  -9  -1  -3    9.10    2.70   1
  -9  -1  -4    2.50    4.33  -1
   9  -4   6    2.50    4.33   2
  -9  -1  -5    6.32    2.70   1
  -9  -1  -5    3.13    4.90  -1
   9  -3   7    3.13    4.90   2
  -9  -1  -6    4.16    5.11  -1
   9  -3   8    4.16    5.11   2
  -9  -1  -6   11.38    6.88  -1
   9  -3   8   11.38    6.88   2
  -9  -2   9   -4.43    2.33   1
  -9  -2   8    2.29    4.57  -1
   9  -8  -3    2.29    4.57   2
  -9  -2   7    2.29    3.75   1
  -9  -2   6   10.54    2.59   1
  -9  -2   6    4.69    4.02   1
  -9  -2   5    2.72    2.50   1
  -9  -2   5    7.92    5.21  -1
   9  -7   0    7.92    5.21   2
  -9  -2   4    6.39    2.84   1
  -9  -2   4    6.34    2.58   1
  -9  -2   3    3.96    2.92   1
  -9  -2   3    8.20    3.82   1
  -9  -2   2    4.17    2.87   1
  -9  -2   2    0.01    3.69   1
  -9  -2   1   24.06    4.71  -1
   9  -6   3   24.06    4.71   2
  -9  -2   1   34.25    5.90  -1
   9  -6   3   34.25    5.90   2
  -9  -2   0   17.68    3.96   1
  -9  -2   0    8.92    4.42   1
  -9  -2  -1    6.49    2.21   1
  -9  -2  -2   -1.89    3.14   1
  -9  -2  -2    0.74    3.62   1
  -9  -2  -3   -1.77    3.49   1
  -9  -2  -3   -1.17    4.95  -1
   9  -5   6   -1.17    4.95   2
  -9  -2  -4    3.16    3.78   1
  -9  -2  -4   -2.05    6.36  -1
   9  -5   7   -2.05    6.36   2
  -9  -2  -5    4.84    2.37   1
  -9  -2  -5   12.84    6.39  -1
   9  -4   8   12.84    6.39   2
  -9  -3   7   -6.07    4.01   1
  -9  -3   6   11.37    2.96   1
  -9  -3   6   13.47    4.57   1
  -9  -3   5   -0.24    1.43   1
  -9  -3   5    2.86    3.68   1
  -9  -3   4    7.22    1.82   1
  -9  -3   4    7.33    4.34   1
  -9  -3   3    2.24    2.73   1
  -9  -3   3   -0.02    2.31   1
  -9  -3   2    1.10    2.16   1
  -9  -3   2    0.35    3.63  -1
   9  -7   3    0.35    3.63   2
  -9  -3   1   63.39    7.92  -1
   9  -7   4   63.39    7.92   2
  -9  -3   1   58.04    9.08  -1
   9  -7   4   58.04    9.08   2
  -9  -3   0    3.29    3.22   1
  -9  -3   0    0.23    2.20   1
  -9  -3  -1    3.69    3.34   1
  -9  -3  -1   -7.94    6.06  -1
   9  -6   6   -7.94    6.06   2
  -9  -3  -2    7.91    2.59   1
  -9  -3  -2   10.14    4.48   1
 -10   6   1    9.02    2.54   1
 -10   6   0    3.72    2.25   1
 -10   6  -1   -0.86    2.46   1
 -10   5   2   38.70    5.42  -1
  10  -1  -4   38.70    5.42   2
 -10   5   1    7.61    2.54   1
 -10   5   0    1.06    2.41   1
 -10   5  -1   -0.89    2.48   1
 -10   5  -2   14.79    3.36   1
 -10   4   2   11.21    1.60   1
 -10   4   1    5.51    2.36   1
 -10   4   0   -2.93    2.38   1
 -10   4  -1   -3.42    2.46   1
 -10   4  -1    1.97    4.38  -1
  10  -1  -1    1.97    4.38   2
 -10   4  -2   11.71    2.16   1
 -10   4  -2    7.48    2.80   1
 -10   4  -3   -2.70    1.60   1
 -10   4  -3    5.82    4.06  -1
  10   0   1    5.82    4.06   2
 -10   4  -4    4.84    4.22  -1
  10   0   2    4.84    4.22   2
 -10   4  -4    3.16    2.36  -1
  10   0   2    3.16    2.36   2
 -10   3   4   16.86    4.95  -1
  10  -3  -4   16.86    4.95   2
 -10   3   3   22.20    2.87   1
 -10   3   2   11.25    2.45   1
 -10   3   2    8.56    3.19   1
 -10   3   1    2.16    2.31   1
 -10   3   0   -1.82    1.37   1
 -10   3   0    4.03    2.69   1
 -10   3  -1   12.09    3.08   1
 -10   3  -1   10.18    2.06   1
 -10   3  -2    2.73    2.52   1
 -10   3  -2    3.38    3.52  -1
  10  -1   1    3.38    3.52   2
 -10   3  -3    1.81    3.22  -1
  10  -1   2    1.81    3.22   2
 -10   3  -3    5.23    3.62  -1
  10  -1   2    5.23    3.62   2
 -10   3  -4   13.35    3.41   1
 -10   3  -4   54.50    7.33  -1
  10  -1   3   54.50    7.33   2
 -10   2   8    5.26    3.10   1
 -10   2   7   -2.89    2.96   1
 -10   2   6    0.41    2.90   1
 -10   2   5    7.54    3.54   1
 -10   2   4   36.82    7.72  -1
  10  -4  -3   36.82    7.72   2
 -10   2   3   23.18    3.04   1
 -10   2   3   20.70    4.17   1
 -10   2   2    6.39    2.47   1
 -10   2   2    8.64    5.22  -1
  10  -3  -1    8.64    5.22   2
 -10   2   1    4.17    2.64   1
 -10   2   1    4.66    1.83   1
 -10   2   0    0.40    1.63   1
 -10   2   0   -2.22    4.37  -1
  10  -3   0   -2.22    4.37   2
 -10   2  -1   11.16    3.36   1
 -10   2  -1   21.29    5.12  -1
  10  -2   1   21.29    5.12   2
 -10   2  -2    3.99    3.11   1
 -10   2  -2    6.93    3.28  -1
  10  -2   2    6.93    3.28   2
 -10   2  -3    3.59    3.20  -1
  10  -2   3    3.59    3.20   2
 -10   2  -3    8.22    4.02  -1
  10  -2   3    8.22    4.02   2
 -10   2  -4   17.19    2.82   1
 -10   2  -4   43.90    5.61  -1
  10  -2   4   43.90    5.61   2
 -10   1   8   -0.57    3.05   1
 -10   1   7    4.80    3.13   1
 -10   1   6    3.18    3.20   1
 -10   1   5   18.80    5.77  -1
  10  -5  -3   18.80    5.77   2
 -10   1   4   31.93    3.40   1
 -10   1   3    7.04    2.36   1
 -10   1   3    6.30    3.51   1
 -10   1   2    4.41    2.61   1
 -10   1   2    0.01    3.73  -1
  10  -4   0    0.01    3.73   2
 -10   1   1    1.31    2.52   1
 -10   1   1    3.05    1.98   1
 -10   1   0    2.90    1.69   1
 -10   1  -1    1.79    3.21   1
 -10   1  -1    3.77    4.53  -1
  10  -3   2    3.77    4.53   2
 -10   1  -2   -1.49    3.24  -1
  10  -3   3   -1.49    3.24   2
 -10   1  -2    6.44    3.73  -1
  10  -3   3    6.44    3.73   2
 -10   1  -3   17.48    4.12   1
 -10   1  -3   58.77    7.58  -1
  10  -3   4   58.77    7.58   2
 -10   0   7    9.28    3.19   1
 -10   0   6    8.68    3.94   1
 -10   0   5   22.41    7.84  -1
  10  -6  -2   22.41    7.84   2
 -10   0   4   11.31    2.90   1
 -10   0   4   20.32    2.76   1
 -10   0   3    9.96    2.71   1
 -10   0   3    5.52    4.62  -1
  10  -5   0    5.52    4.62   2
 -10   0   2   -3.90    2.52   1
 -10   0   2    3.73    3.13   1
 -10   0   1    0.75    2.51   1
 -10   0   1   -5.13    3.85  -1
  10  -5   1   -5.13    3.85   2
 -10   0   0    6.64    3.51   1
 -10   0   0   17.05    5.70  -1
  10  -4   2   17.05    5.70   2
 -10   0  -1   -2.53    3.47   1
 -10   0  -1    3.54    3.47  -1
  10  -4   3    3.54    3.47   2
 -10   0  -2   -3.31    4.15  -1
  10  -4   4   -3.31    4.15   2
 -10   0  -2    1.82    5.21  -1
  10  -4   4    1.82    5.21   2
 -10  -1   4    5.66    2.43   1
 -10  -1   4    1.52    2.33   1
 -10  -1   3    3.54    1.58   1
 -10  -1   2   -2.82    1.65   1
 -10  -1   2   -2.26    5.71  -1
  10  -6   1   -2.26    5.71   2
 -10  -1   1    2.75    2.79   1
 -10  -1   1    0.22    3.31   1
   0   0   1    4.58    0.73   2
   0   0   1    4.02    0.76   2
   0   0  -1    3.35    0.42   2
   0   0  -1    4.31    0.74   2
   0   0   2   11.67    1.59   2
   0   0   2    9.33    0.97   2
   0   0  -2    9.41    1.54   2
   0   0   3  102.06    4.70   2
   0   0   3  105.60    4.77   2
   0   0  -3   92.10    3.04   2
   0   0  -3  108.24    4.67   2
   0   0   4   77.98    4.35   2
   0   0   4   73.05    3.88   2
   0   0  -4   75.54    3.79   2
   0   0  -4   81.28    3.91   2
   0   0   5  136.89    5.86   2
   0   0   5  135.32    5.91   2
   0   0  -5  131.47    5.52   2
   0   0  -5  130.49    5.46   2
   0   0   6    7.23    1.23   2
   0   0   6    8.41    2.28   2
   0   0  -6    7.94    1.91   2
   0   0  -6    9.63    1.20   2
   0   0   8   23.94    1.85   2
   0   0   8   24.80    3.08   2
   0   0  -8   27.93    2.62   2
   0   0  -8   23.14    2.53   2
   0   0   9   29.20    2.85   2
   0   0   9   29.62    3.29   2
   0   0  -9   29.97    2.76   2
   0   0  10   18.99    3.01   2
   0   0  10   23.53    2.17   2
   0   0  11   55.68    4.46   2
   0   0  11   57.16    4.79   2
   0   0  12  153.99    8.48   2
   0   0  12  162.76    7.17   2
   0   0  13   28.74    4.16   2
   0   0  15    3.44    1.88   2
   0   0  15    3.40    2.09   2
   0   0  16    0.73    2.64   2
   0   0  16   -3.23    3.08   2
   0   0  17    6.38    1.85   2
   0   0  17   -1.23    2.15   2
   0   0  18    4.55    3.17   2
   0   0  18    3.90    3.55   2
   0   0  19    6.20    2.19   2
   0   0  19   11.49    4.05   2
   0  -1  19   39.78    4.92   2
   0  -1  19   34.35    5.28   2
   0  -1  18   18.08    3.95   2
   0  -1  18   14.48    4.23   2
   0  -1  17   13.29    2.37   2
   0  -1  17    8.30    3.86   2
   0  -1  16   23.26    4.05   2
   0  -1  16   28.12    2.91   2
   0  -1  13  200.60    8.97   2
   0  -1  13  193.87   11.11   2
   0  -1  12   14.04    3.25   2
   0  -1  12   12.05    1.88   2
   0  -1  11   35.90    3.74   2
   0  -1  11   38.98    4.03   2
   0  -1  10   52.09    4.33   2
   0  -1  10   48.47    4.19   2
   0   1  -9    1.10    1.16   2
   0   1  -9    4.54    1.75   2
   0  -1   9    2.06    2.32   2
   0  -1   9    3.20    2.15   2
   0   1  -8   17.73    2.68   2
   0  -1   8   20.92    3.01   2
   0  -1   8   17.51    1.77   2
   0   1  -7   28.04    1.91   2
   0   1  -7   23.07    1.65   2
   0   1  -6   81.48    4.33   2
   0   1  -6   87.96    4.26   2
   0  -1   6   88.17    4.70   2
   0  -1   6   80.39    4.55   2
   0   1  -5   11.69    2.42   2
   0   1  -5   15.75    1.34   2
   0  -1   5   14.66    2.56   2
   0  -1   5   14.39    2.30   2
   0   1  -4   65.52    3.94   2
   0   1  -4   64.28    3.36   2
   0  -1   4   60.95    4.26   2
   0  -1   4   63.25    3.55   2
   0   1  -3   29.19    1.93   2
   0   1  -3   30.68    2.47   2
   0  -1   3   28.45    3.22   2
   0  -1   3   29.13    2.41   2
   0   1  -2  107.98    5.25   2
   0   1  -2  102.90    3.95   2
   0  -1   2   98.25    5.07   2
   0  -1   2   97.49    3.88   2
   0   1  -1  231.02    7.37   2
   0   1  -1  235.96    7.63   2
   0  -1   1  231.85    8.42   2
   0  -1   1  236.76    7.60   2
   0   1   0  248.98    8.28   2
   0   1   0  253.74    8.16   2
   0  -1   0  244.20    8.24   2
   0  -1   0  238.55    7.77   2
   0   1   1  134.42    4.71   2
   0   1   1  135.71    4.90   2
   0  -1  -1  126.19    3.66   2
   0  -1  -1  138.34    5.10   2
   0   1   2   27.01    1.42   2
   0   1   2   31.25    2.83   2
   0  -1  -2   38.84    2.45   2
   0  -1  -2   34.23    2.85   2
   0   1   3   70.13    3.63   2
   0   1   3   72.48    2.98   2
   0  -1  -3   83.39    3.73   2
   0  -1  -3   83.92    4.42   2
   0   1   4    3.71    1.06   2
   0   1   4    4.62    2.27   2
   0  -1  -4    4.47    1.69   2
   0  -1  -4    3.91    1.15   2
   0   1   5   95.05    4.17   2
   0   1   5   97.28    5.31   2
   0  -1  -5  101.40    3.78   2
   0  -1  -6   69.15    3.42   2
   0  -1  -7   26.01    2.83   2
   0   1   8   27.43    2.69   2
   0   1   8   29.14    3.44   2
   0  -1  -8   26.37    2.36   2
   0   1   9   58.19    3.93   2
   0   1   9   57.84    4.41   2
   0  -1  -9   59.23    3.50   2
   0   1  10   32.77    3.23   2
   0   1  10   33.04    2.59   2
   0   1  11   20.48    3.19   2
   0   1  11   18.59    3.23   2
   0   1  12  252.86   12.30   2
   0   1  12  236.53   12.75   2
   0   1  15   32.10    3.33   2
   0   1  16   23.02    4.06   2
   0   1  16   30.05    4.85   2
   0   1  17   15.03    3.38   2
   0   1  17   18.94    2.80   2
   0   1  18   69.87    5.63   2
   0   1  18   65.09    7.09   2
   0   1  19    1.94    1.78   2
   0   1  19    1.14    2.26   2
   0  -2  19    3.28    3.28   2
   0  -2  19    0.84    1.97   2
   0  -2  18    0.09    3.17   2
   0  -2  18    2.09    3.18   2
   0  -2  17   -5.07    3.13   2
   0  -2  17    3.22    2.98   2
   0  -2  16    6.23    2.20   2
   0  -2  16    4.93    3.16   2
   0  -2  14   10.13    3.26   2
   0  -2  14    0.25    3.08   2
   0  -2  13  117.48    7.78   2
   0  -2  13  109.90    7.44   2
   0  -2  12   36.62    4.41   2
   0  -2  12   41.32    4.01   2
   0  -2  11   13.91    3.31   2
   0  -2  11   18.59    3.23   2
   0  -2  10   29.77    3.81   2
   0  -2  10   28.78    3.43   2
   0   2  -9    4.04    1.83   2
   0  -2   9    1.80    1.58   2
   0  -2   9    1.49    2.09   2
   0   2  -7    9.00    2.12   2
   0   2  -7    7.02    1.71   2
   0  -2   7    7.03    1.64   2
   0  -2   7    2.28    1.97   2
   0   2  -6   71.24    4.48   2
   0   2  -6   68.33    3.66   2
   0  -2   6   76.04    4.93   2
   0  -2   6   77.31    3.11   2
   0   2  -5    5.51    2.09   2
   0   2  -5    7.23    1.65   2
   0  -2   5    2.22    1.46   2
   0  -2   5    5.34    1.85   2
   0   2  -4   59.27    4.24   2
   0   2  -4   63.82    3.33   2
   0  -2   4   61.31    4.58   2
   0  -2   4   67.06    3.64   2
   0   2  -3   19.55    2.91   2
   0   2  -3   16.48    1.35   2
   0  -2   3   13.84    3.08   2
   0  -2   3   17.64    1.30   2
   0   2  -2    0.37    2.14   2
   0   2  -2    1.80    1.50   2
   0  -2   2    1.49    1.25   2
   0  -2   2   -0.14    1.56   2
   0   2   0   10.36    1.43   2
   0   2   0   10.72    2.18   2
   0  -2   0    9.84    2.44   2
   0  -2   0   11.39    2.27   2
   0   2   1    4.21    1.23   2
   0   2   1    4.16    1.25   2
   0  -2  -1    3.13    2.00   2
   0  -2  -1    2.09    1.98   2
   0   2   2  102.72    5.01   2
   0   2   2  106.63    5.34   2
   0  -2  -2  117.20    5.43   2
   0  -2  -2  116.38    5.52   2
   0   2   3  122.65    5.28   2
   0   2   3  116.89    4.47   2
   0  -2  -3  126.58    5.48   2
   0  -2  -3  128.02    4.57   2
   0   2   4  103.54    3.71   2
   0   2   4  109.03    4.37   2
   0  -2  -4  130.23    5.26   2
   0  -2  -4  123.79    5.85   2
   0   2   5   11.08    1.34   2
   0   2   5   11.76    1.62   2
   0  -2  -5   12.06    1.90   2
   0  -2  -5   12.92    1.59   2
   0   2   7   70.30    4.13   2
   0   2   7   73.38    4.97   2
   0  -2  -7   78.58    3.78   2
   0   2   8   22.14    1.65   2
   0   2   8   27.47    3.37   2
   0  -2  -8   28.77    2.38   2
   0   2   9   21.73    2.77   2
   0   2   9   21.56    3.35   2
   0  -2  -9   21.44    2.23   2
   0   2  10   59.98    4.09   2
   0   2  10   64.47    5.07   2
   0   2  11  158.76    6.25   2
   0   2  11  145.42    9.07   2
   0   2  12   57.41    3.93   2
   0   2  12   33.07    3.26   2
   0   2  14    8.11    3.59   2
   0   2  15    0.46    1.71   2
   0   2  15    2.76    2.08   2
   0   2  16    1.05    2.95   2
   0   2  16   11.82    3.77   2
   0   2  17    3.62    2.98   2
   0   2  17   13.45    4.14   2
   0   2  18   15.91    3.40   2
   0   2  18   19.27    4.92   2
   0   2  19   10.09    2.17   2
   0   2  19    6.90    4.17   2
   0  -3  19    8.91    4.30   2
   0  -3  19   14.02    3.52   2
   0  -3  18    9.88    3.88   2
   0  -3  18    4.96    3.29   2
   0  -3  17   21.00    2.75   2
   0  -3  17   10.11    2.40   2
   0  -3  16   -1.70    2.12   2
   0  -3  14  126.94    7.10   2
   0  -3  14  113.69    7.37   2
   0  -3  13   10.99    2.26   2
   0  -3  13    3.18    2.88   2
   0  -3  12   23.79    4.26   2
   0  -3  12   21.37    3.59   2
   0  -3  11   39.47    4.75   2
   0  -3  11   36.21    3.93   2
   0  -3  10   -0.75    2.85   2
   0  -3  10    2.16    2.26   2
   0  -3   9   12.59    2.21   2
   0  -3   9   12.15    2.56   2
   0   3  -7   45.16    2.24   2
   0  -3   7   44.34    4.53   2
   0  -3   7   51.16    2.55   2
   0   3  -6   16.24    2.65   2
   0   3  -6   17.81    2.08   2
   0  -3   6   16.03    3.19   2
   0  -3   6   17.33    2.41   2
   0   3  -5   39.01    3.68   2
   0   3  -5   38.05    2.67   2
   0  -3   5   38.06    4.03   2
   0  -3   5   34.00    2.90   2
   0   3  -4   21.12    2.88   2
   0   3  -4   18.94    2.14   2
   0  -3   4   19.31    2.04   2
   0  -3   4   16.10    2.21   2
   0   3  -3   50.27    3.71   2
   0   3  -3   46.32    2.91   2
   0  -3   3   52.33    4.22   2
   0  -3   3   42.02    3.18   2
   0   3  -2  137.18    5.37   2
   0   3  -2  139.86    5.89   2
   0  -3   2  138.42    7.28   2
   0  -3   2  130.78    4.86   2
   0   3  -1  159.35    7.12   2
   0   3  -1  167.74    7.12   2
   0  -3   1  152.02    6.13   2
   0  -3   1  158.62    7.24   2
   0   3   0  101.22    5.07   2
   0   3   0  110.27    5.04   2
   0  -3   0   99.44    4.11   2
   0  -3   0   92.45    3.64   2
   0   3   1   16.02    2.44   2
   0   3   1   17.44    1.56   2
   0   3   1   21.28    2.48   2
   0   3   1   14.57    1.57   2
   0   3   2   27.84    1.91   2
   0   3   2   33.84    2.94   2
   0  -3  -2   32.93    1.88   2
   0  -3  -2   32.11    1.95   2
   0   3   3   -2.36    1.92   2
   0   3   3   -1.67    1.29   2
   0  -3  -3   -1.68    1.77   2
   0  -3  -3   -0.49    1.22   2
   0   3   4   61.88    3.73   2
   0   3   4   54.96    2.98   2
   0  -3  -4   59.57    3.54   2
   0  -3  -4   56.96    3.74   2
   0   3   7   55.68    3.82   2
   0   3   7   47.61    4.39   2
   0  -3  -7   52.18    3.36   2
   0   3   8   45.85    3.59   2
   0   3   8   49.70    4.55   2
   0  -3  -8   48.06    3.08   2
   0   3   9   17.73    1.83   2
   0   3   9   16.76    3.70   2
   0   3  10   15.73    2.82   2
   0   3  10   18.93    3.71   2
   0   3  11  183.25    9.21   2
   0   3  11  171.66   10.30   2
   0   3  14   30.23    5.17   2
   0   3  15   26.14    3.79   2
   0   3  15   24.54    4.59   2
   0   3  16   17.07    3.33   2
   0   3  16   12.21    3.05   2
   0   3  17   88.20    6.36   2
   0   3  17   85.85    7.98   2
   0   3  18   -5.79    4.02   2
   0  -4  19    2.93    2.32   2
   0  -4  19   -0.17    2.83   2
   0  -4  18   -0.28    2.13   2
   0  -4  18    4.07    2.74   2
   0  -4  17    5.92    2.38   2
   0  -4  17    4.90    3.13   2
   0  -4  15    2.84    2.10   2
   0  -4  15    4.70    1.79   2
   0  -4  14   66.67    4.56   2
   0  -4  14   59.27    5.50   2
   0  -4  13   35.96    5.12   2
   0  -4  12   18.69    4.32   2
   0  -4  11   22.96    4.35   2
   0  -4  11   19.95    3.29   2
   0  -4  10    4.17    1.83   2
   0  -4  10   -0.24    2.35   2
   0   4  -8    1.87    1.73   2
   0  -4   8    6.52    2.91   2
   0  -4   8    1.43    1.98   2
   0   4  -7   27.53    2.45   2
   0  -4   7   29.33    2.86   2
   0  -4   7   27.97    3.00   2
   0   4  -6   -0.22    1.63   2
   0  -4   6   -3.26    1.67   2
   0  -4   6   -2.48    1.82   2
   0   4  -5   22.08    2.26   2
   0  -4   5   23.97    2.47   2
   0  -4   5   27.86    2.76   2
   0   4  -4   15.67    2.22   2
   0  -4   4   11.71    3.55   2
   0  -4   4   19.48    2.42   2
   0   4  -3   -0.78    1.29   2
   0   4  -3    0.53    1.48   2
   0  -4   3    1.34    2.54   2
   0  -4   3   -1.71    1.14   2
   0   4  -1    9.62    1.40   2
   0   4  -1   10.09    2.20   2
   0  -4   1    8.06    2.60   2
   0  -4   1   11.26    1.61   2
   0   4   0    2.99    1.06   2
   0   4   0    4.18    1.79   2
   0  -4   0   -0.03    1.49   2
   0  -4   0   -1.02    1.31   2
   0   4   1   71.31    3.13   2
   0   4   1   80.29    3.39   2
   0   4   1   74.15    3.26   2
   0   4   1   76.20    3.28   2
   0   4   2   71.02    3.09   2
   0   4   2   70.18    4.79   2
   0   4   2   66.86    3.09   2
   0   4   2   63.41    3.08   2
   0   4   3   62.66    4.11   2
   0   4   3   49.48    2.78   2
   0  -4  -3   51.05    2.50   2
   0  -4  -3   52.66    2.67   2
   0   4   4   13.53    1.66   2
   0   4   4   12.29    2.80   2
   0  -4  -4    7.88    1.31   2
   0   4   6   92.28    5.12   2
   0   4   6   95.42    5.81   2
   0  -4  -6   81.90    4.76   2
   0   4   7   21.19    2.94   2
   0   4   7   21.68    2.24   2
   0   4   8    9.69    2.64   2
   0   4   8   10.91    2.00   2
   0   4   9   38.47    4.09   2
   0   4   9   49.04    3.34   2
   0   4  10  105.67    6.25   2
   0   4  10   98.21    5.35   2
   0   4  11   31.40    3.17   2
   0   4  13    7.15    3.15   2
   0   4  13   13.26    4.01   2
   0   4  14    7.27    1.84   2
   0   4  14    0.75    3.66   2
   0   4  15   -4.10    2.68   2
   0   4  15   -1.62    2.30   2
   0   4  16    9.42    3.19   2
   0   4  16    7.10    4.13   2
   0   4  17   11.16    3.36   2
   0   4  17   27.40    5.15   2
   0   4  18   13.11    2.96   2
   0  -5  18   14.53    4.24   2
   0  -5  18    6.74    3.44   2
   0  -5  17   -4.56    3.71   2
   0  -5  17   -2.77    3.12   2
   0  -5  15   56.30    6.89   2
   0  -5  15   46.87    5.54   2
   0  -5  14    4.10    2.35   2
   0  -5  14    4.16    2.79   2
   0  -5  13   16.65    2.82   2
   0  -5  13    8.70    3.48   2
   0  -5  12   25.63    4.65   2
   0  -5  12   18.15    3.55   2
   0  -5  11    0.57    3.37   2
   0  -5  11    2.00    2.27   2
   0  -5  10    4.39    2.24   2
   0  -5  10    2.56    2.56   2
   0  -5   8   17.58    4.25   2
   0  -5   8   19.38    2.95   2
   0  -5   7   17.83    2.34   2
   0  -5   7   15.75    2.75   2
   0  -5   6   24.22    2.76   2
   0   5  -5   12.80    2.07   2
   0  -5   5   11.36    2.14   2
   0  -5   5   12.61    2.62   2
   0   5  -4   13.18    2.15   2
   0  -5   4   17.55    2.33   2
   0  -5   4   15.51    2.74   2
   0   5  -3   52.54    3.48   2
   0  -5   3   60.23    5.44   2
   0  -5   3   49.94    4.30   2
   0   5  -2   63.43    4.01   2
   0  -5   2   69.11    5.33   2
   0  -5   2   70.28    4.68   2
   0   5  -1   49.90    3.43   2
   0  -5   1   60.80    4.88   2
   0  -5   1   55.48    4.21   2
   0   5   0   18.30    3.18   2
   0   5   0    7.62    2.64   2
   0   5   1   14.80    1.80   2
   0   5   1   15.80    1.78   2
   0   5   2    1.46    1.46   2
   0   5   2    0.92    1.31   2
   0   5   3   24.71    2.13   2
   0   5   3   25.50    3.12   2
   0   5   5    5.26    2.57   2
   0   5   5    3.74    2.71   2
   0   5   6   54.52    4.37   2
   0   5   6   58.95    4.80   2
   0   5   7   36.30    3.89   2
   0   5   7   33.97    4.12   2
   0   5   8    8.60    2.57   2
   0   5   8    5.68    1.99   2
   0   5   9   13.61    1.95   2
   0   5   9   12.02    2.21   2
   0   5  10   89.35    6.22   2
   0   5  10   83.10    5.09   2
   0   5  12   -4.18    3.45   2
   0   5  13   21.60    4.03   2
   0   5  13   24.95    4.84   2
   0   5  14   13.17    2.18   2
   0   5  14    9.31    4.05   2
   0   5  15   12.83    3.31   2
   0   5  15   10.96    2.74   2
   0   5  16   80.01    6.63   2
   0   5  16   82.55    7.61   2
   0  -6  16    4.46    4.00   2
   0  -6  16    1.14    2.82   2
   0  -6  15   22.62    5.53   2
   0  -6  15   24.65    4.13   2
   0  -6  14   16.29    5.00   2
   0  -6  13    3.75    3.80   2
   0  -6  12   14.75    2.90   2
   0  -6  12   12.14    3.20   2
   0  -6  11    2.86    3.77   2
   0  -6  11    1.18    2.52   2
   0  -6   9    0.64    3.32   2
   0  -6   9    0.34    2.34   2
   0  -6   8    8.84    2.59   2
   0  -6   8    6.57    2.49   2
   0  -6   7   11.33    3.42   2
   0  -6   7    1.83    2.62   2
   0  -6   6   14.09    4.01   2
   0  -6   6   12.71    2.85   2
   0  -6   5    9.55    2.47   2
   0  -6   4   -0.80    2.81   2
   0  -6   4    2.84    2.46   2
   0  -6   2    8.92    2.26   2
   0  -6   2    9.71    2.70   2
   0  -6   1    5.16    1.86   2
   0  -6   1    2.16    1.57   2
   0   6   0   51.10    4.61   2
   0   6   0   39.19    2.74   2
   0   6   1   44.06    4.50   2
   0   6   1   43.06    4.23   2
   0   6   2   18.97    2.41   2
   0   6   2   19.00    2.21   2
   0   6   3    9.86    3.10   2
   0   6   3   10.72    2.75   2
   0   6   5   75.49    4.17   2
   0   6   5   72.99    3.96   2
   0   6   6   13.21    3.00   2
   0   6   6   13.54    2.24   2
   0   6   7    8.13    2.93   2
   0   6   7    9.85    2.17   2
   0   6   8   21.97    2.57   2
   0   6   8   30.51    2.85   2
   0   6   9   47.28    4.96   2
   0   6   9   45.82    3.51   2
   0   6  10   20.75    2.58   2
   0   6  10   25.23    2.88   2
   0   6  12   10.18    3.28   2
   0   6  12    5.26    2.38   2
   0   6  13    2.71    1.87   2
   0   6  13    4.14    3.82   2
   0   6  14   -5.41    3.31   2
   0   6  14   -2.19    3.93   2
   0   6  15    4.81    3.25   2
   0   6  15    6.75    4.15   2
   0   6  16   13.90    3.95   2
   0   6  16   12.26    2.94   2
   0  -7  16   31.42    5.84   2
   0  -7  16   20.02    3.67   2
   0  -7  15    1.24    2.60   2
   0  -7  15    2.56    2.79   2
   0  -7  14    4.37    2.71   2
   0  -7  13    5.20    4.65   2
   0  -7  13    7.11    2.98   2
   0  -7  12   -2.37    4.01   2
   0  -7  12    1.63    1.56   2
   0  -7  11    2.09    2.32   2
   0  -7  11   -0.76    2.33   2
   0  -7  10    7.71    4.30   2
   0  -7   9    8.97    2.32   2
   0  -7   9    1.54    2.91   2
   0  -7   8   16.20    4.46   2
   0  -7   8   11.84    3.23   2
   0  -7   7   14.96    4.83   2
   0  -7   6    7.11    2.39   2
   0  -7   6   14.38    2.85   2
   0  -7   5    2.72    3.88   2
   0  -7   5    7.18    2.86   2
   0  -7   4   18.41    4.87   2
   0  -7   4   19.21    2.33   2
   0  -7   3   29.11    4.80   2
   0  -7   3   24.03    3.91   2
   0  -7   2   26.39    3.22   2
   0  -7   2   25.97    3.95   2
   0   7  -1    3.75    2.13   2
   0   7  -1    4.75    2.84   2
   0   7   0    8.67    3.27   2
   0   7   0    5.41    3.03   2
   0   7   1    2.78    3.02   2
   0   7   1   -5.51    2.66   2
   0   7   2    7.57    2.24   2
   0   7   2    9.87    1.90   2
   0   7   4    3.11    1.81   2
   0   7   4    1.43    2.88   2
   0   7   5   53.60    5.00   2
   0   7   5   49.06    5.19   2
   0   7   6   23.47    2.51   2
   0   7   6   28.58    4.25   2
   0   7   7    3.22    3.03   2
   0   7   7    6.45    3.29   2
   0   7   8    8.70    2.28   2
   0   7   8   12.07    3.60   2
   0   7   9   37.91    4.88   2
   0   7   9   36.13    4.95   2
   0   7  11   -0.54    1.84   2
   0   7  11    1.19    3.18   2
   0   7  12   12.36    3.72   2
   0   7  12    8.00    2.68   2
   0   7  13    1.34    3.09   2
   0   7  13    2.60    2.36   2
   0   7  14    6.10    2.29   2
   0   7  14    8.64    3.89   2
   0   7  15   51.62    6.05   2
   0   7  15   49.84    6.57   2
   0  -8  15    5.12    4.81   2
   0  -8  14    2.56    4.57   2
   0  -8  14    4.80    2.96   2
   0  -8  13   11.23    4.50   2
   0  -8  13    5.65    3.12   2
   0  -8  12   -2.63    2.36   2
   0  -8  12   -0.52    2.71   2
   0  -8  10   -0.45    2.53   2
   0  -8  10   -1.20    1.68   2
   0  -8   9    3.79    4.32   2
   0  -8   9    3.56    1.78   2
   0  -8   8   10.70    2.75   2
   0  -8   8    8.80    1.88   2
   0  -8   7    3.94    4.13   2
   0  -8   7    6.83    1.91   2
   0  -8   6    7.72    2.62   2
   0  -8   6    6.48    2.03   2
   0  -8   5    1.74    2.28   2
   0  -8   5   -1.51    2.76   2
   0  -8   3    4.04    4.47   2
   0  -8   3    8.61    3.29   2
   0  -8   2   -0.98    2.00   2
   0  -8   2    3.84    1.98   2
   0   8  -1   20.93    2.98   2
   0   8  -1   22.21    2.49   2
   0   8   0   22.95    2.85   2
   0   8   0   15.77    2.46   2
   0   8   1    4.56    2.21   2
   0   8   1    6.90    3.16   2
   0   8   2    4.08    3.74   2
   0   8   2    3.46    2.98   2
   0   8   4   54.69    3.95   2
   0   8   4   50.50    5.60   2
   0   8   5   11.95    3.54   2
   0   8   5    6.27    3.36   2
   0   8   6    2.84    3.12   2
   0   8   7   15.15    2.60   2
   0   8   7   17.57    4.10   2
   0   8   8   10.38    3.82   2
   0   8   8   15.95    3.99   2
   0   8   9   17.40    4.06   2
   0   8   9   16.44    4.16   2
   0   8  11    6.33    3.64   2
   0   8  11    7.71    2.27   2
   0   8  12   -0.48    3.47   2
   0   8  12    7.47    3.78   2
   0   8  13   -1.55    3.51   2
   0   8  13   -4.61    3.78   2
   0   8  14    0.04    3.26   2
   0   8  14    4.06    3.73   2
   0  -9  13    1.03    2.70   2
   0  -9  13    1.46    2.92   2
   0  -9  12   -0.24    4.05   2
   0  -9  12   -3.57    2.95   2
   0  -9  11    0.52    2.87   2
   0  -9  10    2.43    2.49   2
   0  -9  10    1.09    1.69   2
   0  -9   9   -2.41    4.59   2
   0  -9   9    8.01    3.15   2
   0  -9   8    1.93    2.80   2
   0  -9   7    4.68    4.75   2
   0  -9   7    9.24    3.35   2
   0  -9   6    7.84    4.17   2
   0  -9   6    2.85    3.27   2
   0  -9   5    9.77    3.04   2
   0  -9   5    4.64    3.47   2
   0  -9   4   17.27    4.99   2
   0  -9   4    8.04    3.83   2
   0  -9   3    3.71    2.60   2
   0  -9   3    3.10    2.07   2
   0   9  -2    8.38    4.09   2
   0   9  -2    7.25    3.17   2
   0   9  -1    4.83    4.19   2
   0   9  -1    8.37    3.30   2
   0   9   0    1.73    3.68   2
   0   9   0    1.15    2.99   2
   0   9   1    2.70    3.71   2
   0   9   1   -0.35    3.01   2
   0   9   3    4.26    3.57   2
   0   9   3    4.47    3.11   2
   0   9   4   27.99    3.09   2
   0   9   4   28.93    4.68   2
   0   9   5   13.39    2.70   2
   0   9   5   18.32    4.00   2
   0   9   6    2.69    3.58   2
   0   9   6    1.17    3.30   2
   0   9   7    4.95    3.56   2
   0   9   7    5.03    3.56   2
   0   9   8   10.34    3.78   2
   0   9   8    4.88    3.84   2
   0   9  10    5.23    3.44   2
   0   9  10   -4.03    2.07   2
   0   9  11    6.06    3.23   2
   0   9  11   -3.83    3.56   2
   0   9  12    1.07    3.27   2
   0   9  12   -3.69    3.54   2
   0 -10  11   -1.32    4.63   2
   0 -10  11    3.81    2.94   2
   0 -10  10    2.40    4.59   2
   0 -10  10    2.75    2.96   2
   0 -10   9    3.65    5.09   2
   0 -10   9   16.16    3.87   2
   0 -10   8    3.71    2.61   2
   0 -10   8   -1.50    3.24   2
   0 -10   7   13.47    4.50   2
   0 -10   7    5.52    3.76   2
   0 -10   6   -2.58    4.28   2
   0 -10   6    1.38    1.85   2
   0  10  -4    8.65    2.73   2
   0 -10   4   -5.01    2.78   2
   0 -10   4    4.87    2.21   2
   0  10  -3   -0.79    4.20   2
   0  10  -3    6.11    3.17   2
   0  10  -2    5.50    4.53   2
   0  10  -2    8.89    3.42   2
   0  10  -1    1.66    4.05   2
   0  10  -1    6.46    3.37   2
   0  10   0    8.60    2.73   2
   0  10   0   10.47    3.66   2
   0  10   1    2.75    2.45   2
   0  10   1   -1.16    2.95   2
   0  10   3   22.37    3.25   2
   0  10   3   20.82    2.80   2
   0  10   4    8.98    2.47   2
   0  10   4    4.55    2.48   2
   0  10   5    5.96    3.58   2
   0  10   5   -0.54    3.34   2
   0  10   6    0.08    3.69   2
   0  10   6    1.21    3.48   2
   0  10   7    4.68    3.65   2
   0  10   7    5.15    3.82   2
   0  10   8    7.17    3.94   2
   0  10   8   10.86    4.02   2
   0  10  10   -0.52    2.01   2
   0  10  10    0.65    3.41   2
   0 -11   7   -4.96    4.26   2
   0 -11   7   -2.06    3.37   2
   0 -11   6    4.61    3.12   2
   0 -11   6    2.97    2.11   2
   0  11  -5    1.95    2.73   2
   0  11  -5    1.38    1.87   2
   0  11  -4    7.39    4.78   2
   0  11  -4    4.74    2.08   2
   0  11  -3    4.28    4.52   2
   0  11  -3    4.39    3.00   2
   0  11  -2    3.56    2.49   2
   0  11  -2    4.43    3.13   2
   0  11  -1   -1.54    2.61   2
   0  11  -1   -1.79    3.07   2
   0  11   0    3.86    3.82   2
   0  11   0   -0.05    1.86   2
   0  11   1    2.75    4.02   2
   0  11   1    3.71    1.95   2
   0  11   2    4.17    3.34   2
   0  11   2   -4.95    2.96   2
   0  11   3   16.40    4.85   2
   0  11   3   15.15    4.17   2
   0  11   4    9.84    4.45   2
   0  11   4   12.66    4.03   2
   0  11   5    0.58    3.66   2
   0  11   5    2.13    2.05   2
   0  11   6   -0.29    3.38   2
   0  11   6    0.45    3.30   2
  -1  12   0    1.24    2.61   2
  -1  12   0    2.29    2.18   2
  -1  12  -1    1.99    2.55   2
  -1  12  -1   -4.06    3.38   2
  -1  11   6    6.91    3.94   2
  -1  11   6    8.01    4.17   2
  -1  11   5   -4.80    2.29   2
  -1  11   5    1.77    3.54   2
  -1  11   4   -3.42    2.15   2
  -1  11   4   -1.54    3.37   2
  -1  11   3   -4.34    2.26   2
  -1  11   3   -0.67    3.52   2
  -1  11   2    0.12    2.34   2
  -1  11   2    1.62    2.10   2
  -1  11   1    6.29    2.71   2
  -1  11   1    6.91    2.43   2
  -1  11  -1    9.14    4.39   2
  -1  11  -1    6.36    3.74   2
  -1  11  -2   11.39    4.20   2
  -1  11  -2   -0.54    3.52   2
   1 -11   3    0.27    2.63   2
   1 -11   3    2.01    2.55   2
   1 -11   4    1.36    2.74   2
   1 -11   5   16.16    5.21   2
   1 -11   5    7.99    2.73   2
   1 -11   6    2.44    4.18   2
   1 -11   6   -0.69    3.63   2
   1 -11   8    2.98    4.74   2
   1 -11   8    6.93    3.53   2
  -1  10  10   -0.42    2.00   2
  -1  10  10   -3.21    3.68   2
  -1  10   9    7.08    3.47   2
  -1  10   9    5.84    4.11   2
  -1  10   8   32.49    4.91   2
  -1  10   8   23.36    5.65   2
  -1  10   6    7.86    2.33   2
  -1  10   6    4.12    2.57   2
  -1  10   5    5.55    3.62   2
  -1  10   5    4.62    2.34   2
  -1  10   4    5.79    3.67   2
  -1  10   4    3.65    2.00   2
  -1  10   3    6.60    3.80   2
  -1  10   2    8.19    3.77   2
  -1  10   2   -1.30    3.24   2
  -1  10   1    7.66    4.08   2
  -1  10   1   12.69    3.77   2
  -1  10  -1   13.10    4.71   2
  -1  10  -1   11.66    3.63   2
   1 -10   2   -0.47    2.36   2
   1 -10   2   -3.52    2.36   2
   1 -10   3   13.56    4.89   2
   1 -10   3    6.74    4.32   2
   1 -10   4   46.29    4.75   2
   1 -10   4   45.02    6.22   2
   1 -10   5    4.66    4.09   2
   1 -10   5    0.77    3.51   2
   1 -10   6    2.91    4.41   2
   1 -10   6   -3.90    2.18   2
   1 -10   7    4.32    2.92   2
   1 -10   7    3.23    2.34   2
   1 -10   8   -2.03    4.31   2
   1 -10   8   -4.81    3.57   2
   1 -10   9   12.29    3.28   2
   1 -10   9    7.57    4.01   2
   1 -10  10    0.45    1.83   2
   1 -10  11    1.48    3.19   2
   1 -10  11    7.70    3.69   2
  -1   9  13   -1.93    3.12   2
  -1   9  13   -1.03    2.22   2
  -1   9  12   11.69    3.80   2
  -1   9  12   12.74    2.96   2
  -1   9  11   -2.72    2.89   2
  -1   9  11    3.22    3.37   2
  -1   9  10    8.94    3.83   2
  -1   9  10   15.34    4.34   2
  -1   9   9   33.17    3.09   2
  -1   9   9   31.06    5.67   2
  -1   9   7   12.65    4.02   2
  -1   9   7   14.71    4.27   2
  -1   9   6   -0.07    1.84   2
  -1   9   6    3.51    3.53   2
  -1   9   5    1.04    3.24   2
  -1   9   5   -5.02    3.40   2
  -1   9   4    0.19    3.08   2
  -1   9   4    1.09    2.99   2
  -1   9   3    5.51    2.30   2
  -1   9   3    1.93    3.48   2
  -1   9   2    9.28    2.28   2
  -1   9   2    3.53    3.68   2
  -1   9   0    3.38    3.88   2
  -1   9   0   11.70    3.60   2
   1  -9   1   -1.58    2.04   2
   1  -9   1    4.26    2.24   2
   1  -9   2    4.39    4.30   2
   1  -9   2    8.15    3.67   2
   1  -9   3    0.76    3.68   2
   1  -9   3    7.55    3.79   2
   1  -9   4   37.91    6.27   2
   1  -9   4   40.21    5.41   2
   1  -9   5    5.38    2.74   2
   1  -9   5   -3.65    3.38   2
   1  -9   7   10.26    4.24   2
   1  -9   7   -0.72    3.45   2
   1  -9   8   -7.47    4.36   2
   1  -9   8   -1.14    3.08   2
   1  -9   9    3.39    5.17   2
   1  -9   9   13.66    4.04   2
   1  -9  10    7.15    4.07   2
   1  -9  10    0.60    2.01   2
   1  -9  11   -3.89    2.60   2
   1  -9  11    5.20    3.09   2
   1  -9  12   19.01    5.09   2
   1  -9  12   10.48    4.35   2
  -1   8  14    2.98    3.27   2
  -1   8  14    6.95    2.67   2
  -1   8  13    7.60    3.24   2
  -1   8  13    2.73    2.50   2
  -1   8  12   12.23    2.29   2
  -1   8  12   16.69    4.41   2
  -1   8  11   -1.82    3.02   2
  -1   8  11   -2.94    3.48   2
  -1   8  10    3.81    3.24   2
  -1   8  10    5.35    3.72   2
  -1   8   9   72.16    6.48   2
  -1   8   9   73.33    7.26   2
  -1   8   7   13.34    3.71   2
  -1   8   7   26.02    4.59   2
  -1   8   6    7.67    2.10   2
  -1   8   6    9.73    3.80   2
  -1   8   5   21.51    3.94   2
  -1   8   5   23.73    4.25   2
  -1   8   4   21.33    2.58   2
  -1   8   4   16.72    4.09   2
  -1   8   3   -0.83    3.20   2
  -1   8   3    4.74    3.05   2
  -1   8   2   13.32    3.77   2
  -1   8   2   18.93    2.52   2
   1  -8   0   -0.39    1.98   2
   1  -8   0    2.52    1.98   2
   1  -8   1   10.20    3.71   2
   1  -8   1    0.94    3.41   2
   1  -8   2    8.37    4.15   2
   1  -8   2   16.62    3.95   2
   1  -8   3  100.46    8.07   2
   1  -8   3   84.62    5.36   2
   1  -8   4    8.81    3.95   2
   1  -8   4    1.32    2.01   2
   1  -8   5    5.66    3.84   2
   1  -8   5    3.12    2.04   2
   1  -8   6   -0.03    2.22   2
   1  -8   6    0.80    2.66   2
   1  -8   7    4.31    3.83   2
   1  -8   7    3.33    3.27   2
   1  -8   8   12.19    2.90   2
   1  -8   8   13.15    3.83   2
   1  -8   9   -2.69    4.38   2
   1  -8  10    7.90    3.31   2
   1  -8  10    8.63    2.40   2
   1  -8  11   19.08    5.30   2
   1  -8  11    9.11    3.85   2
   1  -8  12   -2.03    3.23   2
   1  -8  13    4.06    2.63   2
   1  -8  13    2.44    1.99   2
   1  -8  14    5.09    4.99   2
   1  -8  14   12.15    3.52   2
   1  -8  15   -2.86    4.43   2
   1  -8  15    1.82    1.94   2
  -1   7  15   -0.73    3.72   2
  -1   7  14    1.01    1.69   2
  -1   7  14    3.57    3.77   2
  -1   7  13   18.67    3.60   2
  -1   7  13   19.62    4.80   2
  -1   7  12    5.32    2.82   2
  -1   7  12   -0.97    3.45   2
  -1   7  11   18.92    3.55   2
  -1   7  11   13.85    4.02   2
  -1   7  10   53.50    3.61   2
  -1   7  10   50.60    3.98   2
  -1   7   8   28.91    3.89   2
  -1   7   8   28.11    4.76   2
  -1   7   7    5.30    1.75   2
  -1   7   7   -0.36    3.43   2
  -1   7   6   -1.12    2.61   2
  -1   7   6   -3.88    3.07   2
  -1   7   5    2.59    2.50   2
  -1   7   5   -2.88    2.83   2
  -1   7   4    3.86    1.74   2
  -1   7   4    7.08    3.18   2
  -1   7   3   28.55    3.86   2
  -1   7   3   22.43    2.70   2
  -1   7   1   22.58    4.05   2
  -1   7   1   23.09    4.00   2
   1  -7   0   13.41    3.65   2
   1  -7   0   13.74    2.29   2
   1  -7   1   13.14    3.76   2
   1  -7   1   12.59    3.40   2
   1  -7   2    2.19    3.62   2
   1  -7   2    8.67    2.02   2
   1  -7   3   64.54    6.38   2
   1  -7   3   65.36    6.04   2
   1  -7   4    6.42    3.76   2
   1  -7   4    3.15    2.77   2
   1  -7   6   15.27    4.09   2
   1  -7   6    9.40    3.23   2
   1  -7   7    5.42    2.82   2
   1  -7   7    8.15    3.38   2
   1  -7   8   25.12    5.51   2
   1  -7   8   28.99    4.34   2
   1  -7   9   11.67    4.67   2
   1  -7  10   11.45    4.34   2
   1  -7  10    6.73    3.32   2
   1  -7  11   59.59    4.88   2
   1  -7  11   43.79    4.06   2
   1  -7  13   -1.53    4.27   2
   1  -7  14    5.34    3.14   2
   1  -7  14   11.89    3.61   2
   1  -7  15    3.23    2.95   2
   1  -7  16    5.97    2.69   2
  -1   6  17   -2.13    3.55   2
  -1   6  15   15.02    2.14   2
  -1   6  15   19.94    3.06   2
  -1   6  14    4.70    2.86   2
  -1   6  14    5.64    2.38   2
  -1   6  13   26.23    3.72   2
  -1   6  13   32.35    5.04   2
  -1   6  12    3.94    2.45   2
  -1   6  12    0.05    3.44   2
  -1   6  11    4.30    2.76   2
  -1   6  11    8.04    3.51   2
  -1   6  10  132.95    7.84   2
  -1   6  10  120.13    9.01   2
  -1   6   8   37.85    3.80   2
  -1   6   8   29.70    3.06   2
  -1   6   7   26.76    3.20   2
  -1   6   7   21.90    2.51   2
  -1   6   6   58.10    3.51   2
  -1   6   6   71.50    5.61   2
  -1   6   5   36.49    2.59   2
  -1   6   5   43.68    4.48   2
  -1   6   4   -1.75    1.43   2
  -1   6   4   -1.88    1.66   2
  -1   6   3   25.38    2.33   2
  -1   6   3   23.42    3.62   2
   1  -6  -1   12.53    1.95   2
   1  -6  -1    8.95    2.03   2
   1  -6   0   19.85    3.35   2
   1  -6   0   16.67    2.10   2
   1  -6   1   21.06    3.92   2
   1  -6   1   23.05    3.42   2
   1  -6   2  188.29    8.65   2
   1  -6   2  185.63   10.26   2
   1  -6   3    3.19    3.27   2
   1  -6   4    7.95    3.62   2
   1  -6   4   12.51    3.19   2
   1  -6   6   14.45    2.63   2
   1  -6   6   13.69    3.36   2
   1  -6   7   32.04    3.24   2
   1  -6   7   25.56    3.85   2
   1  -6   8    8.26    4.09   2
   1  -6   9   33.78    3.59   2
   1  -6   9   23.34    4.03   2
   1  -6  10   62.25    7.00   2
   1  -6  10   52.98    5.28   2
   1  -6  12    2.51    2.54   2
   1  -6  12    4.22    3.15   2
   1  -6  13   10.50    4.53   2
   1  -6  13    7.73    3.28   2
   1  -6  14   12.38    4.43   2
   1  -6  14   -0.03    3.21   2
   1  -6  15   11.63    4.74   2
   1  -6  15    8.00    3.76   2
   1  -6  16    8.51    4.16   2
   1  -6  16    1.78    2.09   2
   1  -6  17    0.13    4.11   2
   1  -6  17    2.38    3.32   2
  -1   5  18    3.97    4.03   2
  -1   5  16    3.75    3.79   2
  -1   5  15    2.50    1.58   2
  -1   5  15    5.31    2.41   2
  -1   5  14   32.81    3.78   2
  -1   5  14   39.36    3.63   2
  -1   5  13    2.98    2.22   2
  -1   5  13    1.53    2.19   2
  -1   5  12   17.45    3.10   2
  -1   5  12   21.52    2.67   2
  -1   5  11   78.67    3.87   2
  -1   5  11   80.09    4.68   2
  -1   5   9   56.52    4.13   2
  -1   5   9   46.16    3.47   2
  -1   5   8    9.92    2.37   2
  -1   5   8    6.84    3.04   2
  -1   5   7    1.31    2.02   2
  -1   5   7    2.27    2.65   2
  -1   5   6    6.45    1.29   2
  -1   5   6    0.03    1.70   2
  -1   5   5    7.87    1.27   2
  -1   5   5   10.54    2.38   2
  -1   5   5   11.85    2.82   2
  -1   5   4   37.70    2.92   2
  -1   5   4   46.61    3.44   2
  -1   5   4   48.55    2.91   2
  -1   5   2   59.70    3.82   2
  -1   5   2   61.95    4.30   2
  -1   5   2   67.75    4.78   2
   1  -5  -1   29.54    3.27   2
   1  -5  -1   20.06    3.66   2
  -1   5   1   20.89    2.72   2
   1  -5   0   17.85    3.11   2
   1  -5   0   17.90    3.11   2
   1  -5   1    6.85    1.77   2
   1  -5   1    7.35    2.71   2
   1  -5   2  130.79    7.68   2
   1  -5   2  115.41    6.42   2
   1  -5   3   14.27    2.33   2
   1  -5   3   16.32    1.99   2
   1  -5   5   21.83    4.33   2
   1  -5   5   30.59    3.55   2
   1  -5   6   20.14    4.44   2
   1  -5   6   20.57    2.10   2
   1  -5   7   54.15    3.64   2
   1  -5   7   50.77    4.50   2
   1  -5   8   10.70    3.93   2
   1  -5   9    9.27    2.44   2
   1  -5   9    3.65    2.77   2
   1  -5  10  152.04   10.60   2
   1  -5  10  147.41    9.30   2
   1  -5  12   -1.79    2.24   2
   1  -5  12    2.05    2.84   2
   1  -5  13    9.54    2.86   2
   1  -5  13    9.09    3.66   2
   1  -5  14    4.86    4.21   2
   1  -5  14    6.70    3.29   2
   1  -5  15   20.87    4.49   2
   1  -5  15    5.46    2.41   2
   1  -5  16   -7.36    4.31   2
   1  -5  16   -2.99    3.47   2
   1  -5  17    4.24    4.23   2
   1  -5  17    6.25    3.49   2
  -1   4  18   -4.79    3.69   2
  -1   4  16   11.87    4.40   2
  -1   4  15    7.43    2.39   2
  -1   4  15    8.18    2.30   2
  -1   4  14   37.74    3.45   2
  -1   4  14   26.78    3.37   2
  -1   4  13    5.70    2.33   2
  -1   4  13    3.54    3.43   2
  -1   4  12    5.99    2.11   2
  -1   4  12    1.13    3.30   2
  -1   4  11  168.81   10.81   2
   1  -4  -9   45.38    2.98   2
  -1   4   9   53.34    3.49   2
  -1   4   9   52.88    3.41   2
   1  -4  -8   46.53    2.97   2
  -1   4   8   57.61    3.53   2
  -1   4   8   53.49    4.53   2
   1  -4  -7  137.25    5.85   2
  -1   4   7  140.51    8.00   2
   1  -4  -6   80.41    3.82   2
  -1   4   6   71.37    2.95   2
  -1   4   6   69.67    3.59   2
   1  -4  -5    2.22    1.36   2
  -1   4   5    1.55    1.76   2
  -1   4   5    2.09    2.33   2
  -1   4   4   38.37    1.87   2
  -1   4   4   35.29    2.67   2
  -1   4   4   34.28    3.61   2
  -1   4   2   16.92    2.10   2
  -1   4   2   22.27    2.66   2
  -1   4   2   20.24    2.63   2
  -1   4   2   19.04    3.08   2
   1  -4  -1   33.60    3.15   2
   1  -4  -1   32.39    2.30   2
  -1   4   1   29.16    2.59   2
  -1   4   1   28.78    2.73   2
   1  -4   0   34.75    2.25   2
   1  -4   0   40.49    3.93   2
  -1   4   0   34.02    3.00   2
  -1   4   0   35.92    2.14   2
   1  -4   1  335.83   12.86   2
   1  -4   1  301.95   11.53   2
  -1   4  -1  323.23   14.13   2
  -1   4  -1  341.28   14.45   2
   1  -4   2    0.45    1.48   2
   1  -4   2    2.75    2.30   2
  -1   4  -2   -1.02    1.91   2
  -1   4  -2    0.98    1.72   2
   1  -4   3   20.17    3.62   2
   1  -4   3   16.31    2.98   2
  -1   4  -3   16.92    2.76   2
  -1   4  -3   16.97    1.67   2
  -1   4  -4   19.73    2.60   2
   1  -4   5   22.72    2.47   2
   1  -4   5   24.98    2.94   2
  -1   4  -5   22.39    1.79   2
   1  -4   6   48.22    5.17   2
   1  -4   6   51.99    4.29   2
   1  -4   7   11.54    3.75   2
   1  -4   8   49.51    3.75   2
   1  -4   8   46.88    4.47   2
   1  -4   9  142.60    9.70   2
   1  -4   9  125.56    7.95   2
   1  -4  10   10.58    3.34   2
   1  -4  11   11.68    3.49   2
   1  -4  12    7.16    2.51   2
   1  -4  12    6.33    3.27   2
   1  -4  13   12.66    4.45   2
   1  -4  13   13.93    2.33   2
   1  -4  14    5.83    4.33   2
   1  -4  14    8.22    3.34   2
   1  -4  15    3.36    4.01   2
   1  -4  15    1.75    3.41   2
   1  -4  16    0.57    2.36   2
   1  -4  16   -3.39    3.16   2
   1  -4  18   -1.45    2.13   2
   1  -4  18    1.34    2.10   2
  -1   3  19    0.70    3.56   2
  -1   3  17    6.96    4.08   2
  -1   3  16    7.66    2.83   2
  -1   3  16   17.07    2.82   2
  -1   3  15   38.98    3.58   2
  -1   3  15   32.42    5.26   2
  -1   3  14    4.66    2.22   2
  -1   3  14    5.47    3.57   2
  -1   3  13   17.07    2.49   2
  -1   3  13   13.21    3.92   2
  -1   3  12   98.96    5.12   2
  -1   3  12   92.10    7.05   2
   1  -3 -10   79.37    3.78   2
  -1   3  10   74.48    5.71   2
   1  -3  -9   18.93    1.84   2
  -1   3   9   19.65    2.24   2
  -1   3   9   20.65    3.46   2
   1  -3  -8    4.53    1.33   2
  -1   3   8    8.01    1.73   2
  -1   3   8    8.29    2.50   2
   1  -3  -7   16.17    1.72   2
  -1   3   7   13.29    1.86   2
  -1   3   7   13.24    2.69   2
   1  -3  -6   14.05    1.53   2
   1  -3  -6   14.91    2.38   2
  -1   3   6   12.93    1.67   2
  -1   3   6   11.87    1.65   2
   1  -3  -5   77.33    3.37   2
   1  -3  -5   75.38    4.34   2
  -1   3   5   80.31    4.36   2
  -1   3   5   78.06    4.90   2
  -1   3   3  145.95    5.53   2
  -1   3   3  134.10    5.63   2
  -1   3   3  152.41    6.84   2
  -1   3   3  145.45    6.87   2
  -1   3   2   45.03    2.63   2
  -1   3   2   43.49    1.98   2
  -1   3   2   47.72    3.41   2
  -1   3   2   47.95    2.59   2
   1  -3  -1   22.01    2.68   2
   1  -3  -1   20.28    1.85   2
  -1   3   1   18.75    1.59   2
  -1   3   1   26.25    2.67   2
   1  -3   0    5.44    1.41   2
   1  -3   0    8.09    2.45   2
  -1   3   0    6.82    2.13   2
  -1   3   0    7.75    2.24   2
   1  -3   1  223.35   10.43   2
   1  -3   1  230.36   10.12   2
  -1   3  -1  220.03    9.44   2
  -1   3  -1  221.34    7.81   2
   1  -3   2   46.47    2.86   2
   1  -3   2   41.09    3.66   2
  -1   3  -2   43.27    3.81   2
  -1   3  -2   46.06    3.27   2
   1  -3   4   51.17    3.14   2
   1  -3   4   50.52    3.87   2
  -1   3  -4   54.17    4.25   2
  -1   3  -4   52.63    3.49   2
   1  -3   5   39.24    2.86   2
   1  -3   5   37.49    3.52   2
  -1   3  -5   31.31    3.55   2
  -1   3  -5   34.28    2.01   2
   1  -3   6   97.22    6.40   2
   1  -3   6   90.52    5.39   2
  -1   3  -6   83.36    4.75   2
   1  -3   7   36.70    4.46   2
   1  -3   7   33.07    3.59   2
  -1   3  -7   32.92    3.09   2
   1  -3   8   10.59    3.15   2
   1  -3   8    7.90    2.94   2
   1  -3   9  349.76   16.20   2
   1  -3   9  365.36   18.74   2
   1  -3  11    7.08    3.33   2
   1  -3  11    2.69    3.10   2
   1  -3  12   32.83    4.75   2
   1  -3  12   22.60    4.31   2
   1  -3  13    2.77    3.31   2
   1  -3  13    1.41    1.86   2
   1  -3  14   18.43    4.36   2
   1  -3  14   23.80    2.66   2
   1  -3  15    3.73    3.59   2
   1  -3  15    0.76    3.27   2
   1  -3  16    5.12    2.38   2
   1  -3  16    3.07    3.22   2
   1  -3  18   12.27    4.34   2
   1  -3  18    6.13    2.42   2
   1  -3  19   15.56    4.65   2
   1  -3  19   18.83    2.95   2
  -1   2  19   -3.97    3.78   2
  -1   2  17   20.55    3.10   2
  -1   2  17   16.63    4.16   2
  -1   2  16   24.52    3.16   2
  -1   2  16   11.51    4.24   2
  -1   2  15   39.64    3.25   2
  -1   2  15   36.35    3.34   2
  -1   2  14    9.92    2.34   2
  -1   2  14    8.25    3.61   2
  -1   2  13    5.32    2.16   2
  -1   2  13    5.49    3.02   2
  -1   2  12  198.27   10.76   2
   1  -2 -10   62.03    3.08   2
  -1   2  10   61.76    4.19   2
  -1   2  10   65.38    4.86   2
   1  -2  -9   96.06    3.91   2
  -1   2   9   94.52    4.22   2
  -1   2   9   97.31    5.74   2
   1  -2  -8  240.53    8.66   2
  -1   2   8  237.05    8.62   2
  -1   2   8  257.24   11.47   2
   1  -2  -7  107.80    3.88   2
   1  -2  -7  111.25    4.36   2
  -1   2   7  104.60    3.98   2
  -1   2   7  103.02    4.11   2
   1  -2  -6    2.90    1.09   2
   1  -2  -6    0.76    0.97   2
  -1   2   6    0.68    1.20   2
  -1   2   6   -0.51    1.92   2
   1  -2  -5   48.02    2.12   2
   1  -2  -5   47.71    3.16   2
  -1   2   5   46.34    2.25   2
  -1   2   5   42.28    2.46   2
   1  -2  -3   32.98    1.74   2
   1  -2  -3   36.51    2.98   2
  -1   2   3   33.35    2.38   2
  -1   2   3   27.00    3.01   2
   1  -2  -1   61.23    3.24   2
   1  -2  -1   66.43    4.28   2
  -1   2   1   63.02    3.03   2
  -1   2   1   64.78    2.53   2
   1  -2   0  581.98   22.70   2
   1  -2   0  573.12   22.55   2
  -1   2   0  588.80   24.59   2
  -1   2   0  662.41   27.60   2
   1  -2   1   -1.82    2.36   2
   1  -2   1    2.00    2.08   2
  -1   2  -1    1.64    1.20   2
  -1   2  -1   -0.73    1.14   2
   1  -2   2   19.37    3.48   2
   1  -2   2   19.14    2.96   2
  -1   2  -2   21.39    3.03   2
  -1   2  -2   19.56    2.79   2
   1  -2   3   36.41    3.92   2
  -1   2  -3   39.51    3.87   2
   1  -2   4   43.47    4.23   2
   1  -2   4   42.00    2.43   2
  -1   2  -4   44.61    2.63   2
  -1   2  -4   43.20    3.21   2
   1  -2   5   83.24    3.99   2
   1  -2   5   88.43    5.40   2
  -1   2  -5   84.99    4.86   2
  -1   2  -5   79.66    3.41   2
   1  -2   6   17.18    3.39   2
   1  -2   6   15.05    1.79   2
  -1   2  -6   17.60    2.87   2
  -1   2  -6   14.01    1.50   2
   1  -2   7   68.75    3.75   2
   1  -2   7   72.35    4.85   2
  -1   2  -7   68.58    4.22   2
   1  -2   8  269.92   11.47   2
   1  -2   8  271.73   13.10   2
   1  -2  11   17.52    2.39   2
   1  -2  11   13.19    3.41   2
   1  -2  12    6.33    2.12   2
   1  -2  12    4.10    3.22   2
   1  -2  13   14.02    3.88   2
   1  -2  13   11.79    3.71   2
   1  -2  14    4.69    3.99   2
   1  -2  14   12.08    3.51   2
   1  -2  15    5.12    3.69   2
   1  -2  15    5.91    3.62   2
   1  -2  18   15.83    4.37   2
   1  -2  18   10.39    4.28   2
   1  -2  19   28.85    5.26   2
   1  -2  19   25.07    3.43   2
  -1   1  20   11.07    2.46   2
  -1   1  18    1.05    2.00   2
  -1   1  17   17.72    3.02   2
  -1   1  17   20.58    4.21   2
  -1   1  16   36.77    3.65   2
  -1   1  16   35.48    4.88   2
  -1   1  15   12.74    2.70   2
  -1   1  15   13.22    3.54   2
  -1   1  14    9.25    2.45   2
  -1   1  14   13.67    3.20   2
  -1   1  13   66.07    4.34   2
  -1   1  13   70.14    5.57   2
   1  -1 -11   59.63    3.49   2
  -1   1  11   55.29    4.85   2
   1  -1 -10   25.63    2.07   2
  -1   1  10   25.75    2.37   2
   1  -1  -9    5.33    1.44   2
   1  -1  -9    3.77    1.10   2
  -1   1   9    4.51    1.76   2
  -1   1   9    5.74    2.26   2
   1  -1  -8   21.94    1.92   2
   1  -1  -8   21.89    2.46   2
  -1   1   8   25.21    2.15   2
  -1   1   8   21.48    2.90   2
   1  -1  -7   14.83    1.48   2
   1  -1  -7   11.51    1.96   2
  -1   1   7   12.94    1.69   2
  -1   1   7   16.09    2.37   2
   1  -1  -6   82.42    3.08   2
   1  -1  -6   91.60    4.29   2
  -1   1   6   83.86    3.26   2
  -1   1   6   86.66    4.35   2
   1  -1  -4  230.96    7.08   2
   1  -1  -4  234.99    8.88   2
  -1   1   4  230.69    7.16   2
  -1   1   4  229.54    7.26   2
   1  -1  -3   79.93    1.79   2
   1  -1  -3   84.07    3.70   2
  -1   1   3   71.71    2.21   2
  -1   1   3   83.55    3.86   2
  -1   1   2   23.90    1.05   2
  -1   1   2   23.76    0.95   2
  -1   1   2   22.04    2.23   2
  -1   1   2   22.14    2.07   2
   1  -1  -1    2.36    1.02   2
   1  -1  -1    2.19    1.51   2
  -1   1   1    4.60    1.37   2
  -1   1   1    4.45    1.70   2
   1  -1   0  297.39   10.65   2
   1  -1   0  317.73   11.51   2
  -1   1   0  302.48   10.57   2
  -1   1   0  299.24    9.38   2
   1  -1   1  102.12    5.36   2
   1  -1   1  105.63    5.30   2
  -1   1  -1  100.99    3.79   2
  -1   1  -1  105.11    4.90   2
   1  -1   3  109.10    4.72   2
   1  -1   3  117.88    6.10   2
  -1   1  -3  134.35    6.78   2
  -1   1  -3  125.06    4.53   2
   1  -1   4   43.12    4.21   2
   1  -1   4   41.61    2.46   2
  -1   1  -4   53.56    3.92   2
  -1   1  -4   43.64    3.47   2
   1  -1   5  131.70    7.06   2
   1  -1   5  128.47    5.15   2
  -1   1  -5  140.23    6.92   2
  -1   1  -5  145.99    5.35   2
   1  -1   6   54.94    4.52   2
   1  -1   6   54.34    4.33   2
  -1   1  -6   57.09    2.95   2
  -1   1  -6   54.98    3.62   2
   1  -1   7    9.58    1.79   2
   1  -1   7    7.19    2.74   2
  -1   1  -7    7.52    2.44   2
  -1   1  -7    5.53    2.22   2
   1  -1   8  697.75   32.12   2
   1  -1   8  666.43   34.02   2
   1  -1  10    9.45    3.15   2
   1  -1  10   12.03    3.16   2
   1  -1  11   50.03    3.44   2
   1  -1  11   46.77    4.93   2
   1  -1  12    5.09    2.98   2
   1  -1  12    3.40    3.18   2
   1  -1  13   44.71    5.08   2
   1  -1  13   37.77    4.77   2
   1  -1  14    9.94    2.47   2
   1  -1  14   11.99    3.72   2
   1  -1  15    7.68    2.38   2
   1  -1  17    3.52    3.64   2
   1  -1  17    5.78    3.67   2
   1  -1  18   25.74    4.91   2
   1  -1  18   20.63    5.06   2
   1  -1  19    1.25    3.58   2
   1  -1  19    2.63    2.25   2
  -1   0  20    0.36    1.79   2
  -1   0  18   13.61    3.05   2
  -1   0  18    7.57    2.18   2
  -1   0  17   28.91    3.66   2
  -1   0  17   30.43    4.19   2
  -1   0  16   29.82    3.50   2
  -1   0  16   28.37    3.01   2
  -1   0  15    9.85    2.90   2
  -1   0  15   14.41    3.28   2
  -1   0  14    4.34    2.31   2
  -1   0  14    1.02    1.63   2
  -1   0  13  123.48    7.72   2
   1   0 -11   42.44    3.02   2
  -1   0  11   50.70    3.61   2
  -1   0  11   49.20    4.00   2
   1   0 -10   98.38    4.50   2
  -1   0  10  110.68    5.21   2
  -1   0  10   99.83    4.16   2
   1   0  -9  205.92    8.24   2
   1   0  -9  213.67    8.90   2
  -1   0   9  213.31    8.65   2
  -1   0   9  216.65    8.97   2
   1   0  -8   99.12    4.17   2
   1   0  -8   97.00    4.40   2
  -1   0   8   94.84    4.35   2
  -1   0   8   97.59    4.74   2
   1   0  -7   -0.73    1.26   2
   1   0  -7    2.66    1.39   2
  -1   0   7    0.91    1.40   2
  -1   0   7    1.81    1.61   2
   1   0  -6   24.18    2.01   2
  -1   0   6   25.50    2.23   2
   1   0  -5 1401.58   73.23   2
  -1   0   5 1338.80   72.69   2
   1   0  -4   37.63    2.50   2
   1   0  -4   34.55    1.92   2
  -1   0   4   33.62    2.49   2
  -1   0   4   34.59    2.08   2
   1   0  -3  122.94    3.67   2
   1   0  -3  116.85    3.58   2
  -1   0   3  121.14    4.19   2
  -1   0   3  123.14    3.71   2
   1   0  -2   75.22    2.06   2
   1   0  -2   71.31    1.85   2
  -1   0   2   71.84    2.42   2
  -1   0   2   70.50    2.16   2
   1   0  -1  498.36   16.61   2
   1   0  -1  530.22   17.09   2
  -1   0   1  511.64   16.98   2
  -1   0   1  551.71   17.76   2
   1   0   0    1.33    1.43   2
   1   0   0    0.98    1.22   2
  -1   0   0    1.69    1.25   2
  -1   0   0    1.90    0.65   2
   1   0   1   17.80    2.66   2
   1   0   1   19.02    1.39   2
  -1   0  -1   15.69    1.39   2
  -1   0  -1   18.92    2.27   2
   1   0   2   50.95    2.56   2
  -1   0  -2   57.60    2.62   2
   1   0   3   43.74    3.75   2
   1   0   3   46.95    3.85   2
  -1   0  -3   42.21    2.31   2
  -1   0  -3   42.99    3.51   2
   1   0   4  106.29    5.44   2
   1   0   4  111.31    6.09   2
  -1   0  -4  117.63    5.85   2
  -1   0  -4  121.98    5.53   2
   1   0   5   26.77    3.19   2
   1   0   5   26.36    3.38   2
  -1   0  -5   31.25    3.07   2
  -1   0  -5   30.79    3.06   2
   1   0   6   90.36    5.44   2
   1   0   6   90.46    5.76   2
  -1   0  -6  101.14    5.15   2
  -1   0  -6   95.05    3.97   2
   1   0   7  391.27   17.36   2
   1   0   7  395.19   17.88   2
  -1   0  -7  402.20   17.51   2
  -1   0  -7  403.53   17.75   2
   1   0   8   43.01    2.63   2
   1   0   9   35.47    2.78   2
   1   0  10   24.66    3.74   2
   1   0  10   19.17    3.69   2
   1   0  11    8.68    2.08   2
   1   0  11   10.02    3.17   2
   1   0  12   22.40    3.68   2
   1   0  12   14.23    4.02   2
   1   0  13   12.14    2.14   2
   1   0  13   12.94    2.32   2
   1   0  14   -1.31    3.22   2
   1   0  14   11.06    3.48   2
   1   0  17   21.54    4.21   2
   1   0  17   13.88    4.61   2
   1   0  18   42.06    5.04   2
   1   0  18   32.03    5.68   2
   1   0  19    9.85    3.92   2
   1   0  19   10.09    4.25   2
  -1  -1  19    1.67    1.60   2
  -1  -1  19    0.83    3.01   2
  -1  -1  18   12.26    3.42   2
  -1  -1  18   18.58    3.76   2
  -1  -1  17   18.36    3.46   2
  -1  -1  17   17.99    2.47   2
  -1  -1  16   18.45    3.29   2
  -1  -1  16   10.26    3.35   2
  -1  -1  15   11.46    3.05   2
  -1  -1  15    8.26    3.10   2
  -1  -1  14   30.26    2.59   2
  -1  -1  14   34.11    3.82   2
  -1  -1  12   32.60    2.39   2
  -1  -1  12   38.04    3.63   2
  -1  -1  11   25.23    3.01   2
  -1  -1  11   26.01    2.93   2
   1   1 -10    4.80    1.81   2
   1   1 -10    3.59    1.45   2
  -1  -1  10    2.44    2.02   2
  -1  -1  10    3.51    1.85   2
   1   1  -9   15.43    1.36   2
   1   1  -9   15.64    1.87   2
  -1  -1   9   17.89    2.58   2
  -1  -1   9   13.80    2.15   2
   1   1  -8    8.52    1.80   2
   1   1  -8    7.18    1.45   2
  -1  -1   8    7.40    2.04   2
  -1  -1   8   11.06    1.78   2
   1   1  -7   58.96    3.26   2
   1   1  -7   60.57    2.88   2
  -1  -1   7   62.12    3.74   2
  -1  -1   7   61.98    3.12   2
   1   1  -5  205.41    7.90   2
   1   1  -5  205.11    7.29   2
  -1  -1   5  212.07    8.11   2
  -1  -1   5  219.87    7.29   2
   1   1  -4   87.63    4.05   2
  -1  -1   4   81.56    2.95   2
  -1  -1   4   87.73    3.35   2
   1   1  -3   19.16    1.32   2
   1   1  -3   22.39    1.11   2
  -1  -1   3   18.52    2.22   2
  -1  -1   3   21.29    1.32   2
   1   1  -2    3.47    1.62   2
  -1  -1   2    2.07    1.70   2
   1   1  -1  122.49    5.34   2
   1   1  -1  117.80    3.30   2
  -1  -1   1  121.97    5.18   2
  -1  -1   1  121.44    3.28   2
   1   1   0   96.33    4.95   2
   1   1   0   95.03    3.68   2
  -1  -1   0   99.28    4.64   2
  -1  -1   0   99.27    3.68   2
   1   1   2  112.07    5.67   2
   1   1   2  119.36    5.56   2
  -1  -1  -2  122.08    4.35   2
  -1  -1  -2  130.15    5.72   2
   1   1   3   14.84    1.67   2
   1   1   3   19.39    2.96   2
  -1  -1  -3   19.65    1.74   2
  -1  -1  -3   18.87    2.57   2
   1   1   4  113.48    5.88   2
   1   1   4  118.98    4.67   2
  -1  -1  -4  125.38    5.96   2
  -1  -1  -4  131.27    6.06   2
   1   1   5   59.21    2.90   2
   1   1   5   66.38    4.72   2
  -1  -1  -5   72.26    4.05   2
  -1  -1  -5   62.27    2.88   2
   1   1   6    7.19    2.33   2
   1   1   6    7.06    2.85   2
  -1  -1  -6    7.68    2.12   2
  -1  -1  -6    6.49    1.38   2
   1   1   7  949.87   47.28   2
   1   1   7  938.13   45.58   2
  -1  -1  -7  964.28   48.54   2
   1   1   9   34.84    2.35   2
   1   1   9   26.56    2.56   2
   1   1  10   66.88    3.56   2
   1   1  10   73.29    5.60   2
   1   1  11   15.42    3.52   2
   1   1  11   15.28    2.45   2
   1   1  12   60.94    5.18   2
   1   1  12   58.43    5.60   2
   1   1  13   27.94    3.88   2
   1   1  13   21.86    3.01   2
   1   1  14   -0.64    3.49   2
   1   1  16    9.50    4.03   2
   1   1  17   25.63    4.41   2
   1   1  17   28.41    5.46   2
   1   1  18    4.14    3.19   2
   1   1  18    2.17    2.71   2
   1   1  19   70.07    6.79   2
   1   1  19   68.95    7.32   2
  -1  -2  19    4.54    3.28   2
  -1  -2  19    7.97    2.09   2
  -1  -2  18   12.53    3.83   2
  -1  -2  18   21.81    3.69   2
  -1  -2  17   16.20    3.80   2
  -1  -2  17   15.48    3.44   2
  -1  -2  16    9.18    3.06   2
  -1  -2  15   -2.57    2.46   2
  -1  -2  14   34.95    4.72   2
  -1  -2  12   20.93    3.50   2
  -1  -2  12   18.63    2.93   2
  -1  -2  11   82.68    5.61   2
  -1  -2  11   74.63    4.51   2
   1   2 -10  101.38    5.08   2
  -1  -2  10  116.12    6.51   2
  -1  -2  10  124.52    5.87   2
   1   2  -9   52.96    3.59   2
   1   2  -9   53.13    2.99   2
  -1  -2   9   55.17    4.08   2
  -1  -2   9   54.29    3.15   2
   1   2  -8    0.69    1.55   2
   1   2  -8    0.31    1.09   2
  -1  -2   8   -1.44    1.12   2
  -1  -2   8    0.10    1.32   2
   1   2  -7    2.25    1.85   2
   1   2  -7    3.81    1.33   2
  -1  -2   7    4.70    1.30   2
  -1  -2   7    3.37    1.56   2
   1   2  -6  690.28   34.56   2
   1   2  -5   17.30    1.48   2
   1   2  -5   17.65    1.40   2
  -1  -2   5   20.01    1.67   2
  -1  -2   5   15.71    1.46   2
   1   2  -4   78.51    4.33   2
   1   2  -4   76.25    2.71   2
  -1  -2   4   69.89    4.31   2
  -1  -2   4   81.76    3.32   2
   1   2  -3   60.89    2.72   2
   1   2  -3   57.64    2.18   2
  -1  -2   3   57.97    4.05   2
  -1  -2   3   59.28    2.80   2
   1   2  -2   94.55    4.67   2
   1   2  -2   96.93    3.32   2
  -1  -2   2  102.55    5.35   2
  -1  -2   2   89.20    3.19   2
   1   2  -1    6.80    1.36   2
   1   2  -1    6.67    1.37   2
   1   2  -1    5.94    1.31   2
   1   2  -1    5.52    1.40   2
   1   2   0   17.46    1.69   2
   1   2   0   15.04    2.16   2
  -1  -2   0   17.46    2.58   2
  -1  -2   0   15.49    1.90   2
  -1  -2  -1   55.29    3.49   2
   1   2   2    3.56    2.28   2
   1   2   2    3.24    2.11   2
  -1  -2  -2    4.02    1.30   2
  -1  -2  -2    2.83    2.00   2
   1   2   3   65.04    3.03   2
   1   2   3   68.06    3.18   2
  -1  -2  -3   77.37    4.40   2
  -1  -2  -3   74.17    2.98   2
   1   2   4   20.47    2.88   2
   1   2   4   21.83    3.16   2
  -1  -2  -4   22.92    1.79   2
  -1  -2  -4   21.52    1.82   2
   1   2   5   60.17    4.17   2
   1   2   5   69.86    4.72   2
  -1  -2  -5   71.01    4.13   2
  -1  -2  -5   65.53    4.13   2
   1   2   6  352.37   15.77   2
   1   2   6  372.94   17.13   2
  -1  -2  -6  370.41   15.66   2
  -1  -2  -7   80.11    4.49   2
   1   2   8   33.99    2.69   2
   1   2   9   24.28    3.53   2
   1   2  10    2.00    2.60   2
   1   2  10    2.25    1.90   2
   1   2  11   12.10    2.95   2
   1   2  11   -2.00    3.32   2
   1   2  12    9.63    3.16   2
   1   2  12    8.72    4.00   2
   1   2  13   14.85    3.21   2
   1   2  13    4.09    2.33   2
   1   2  16   18.55    5.14   2
   1   2  17   40.13    5.19   2
   1   2  17   32.14    4.02   2
   1   2  18    4.40    2.06   2
   1   2  18   16.39    4.33   2
   1   2  19   56.03    5.87   2
   1   2  19   64.45    5.06   2
  -1  -3  19   16.35    3.95   2
  -1  -3  19   13.44    3.60   2
  -1  -3  18   13.50    3.53   2
  -1  -3  18    2.51    3.22   2
  -1  -3  17   12.08    3.85   2
  -1  -3  17   16.49    3.40   2
  -1  -3  16   11.38    3.26   2
  -1  -3  16    3.64    2.91   2
  -1  -3  15   12.43    3.59   2
  -1  -3  15   15.96    3.24   2
  -1  -3  13   15.31    2.32   2
  -1  -3  13   12.82    2.89   2
  -1  -3  12   16.46    3.48   2
  -1  -3  12   17.50    2.81   2
  -1  -3  11   -3.29    2.48   2
  -1  -3  11    1.53    1.88   2
   1   3 -10    8.63    1.73   2
  -1  -3  10   16.23    3.07   2
  -1  -3  10    8.03    2.11   2
   1   3  -9    6.32    1.54   2
  -1  -3   9    1.72    2.54   2
  -1  -3   9    3.55    1.77   2
   1   3  -8   30.85    2.13   2
  -1  -3   8   30.01    3.69   2
  -1  -3   8   27.02    2.43   2
   1   3  -6  129.81    6.52   2
   1   3  -6  124.37    4.99   2
  -1  -3   6  136.76    5.56   2
  -1  -3   6  125.98    4.96   2
   1   3  -5   55.83    3.58   2
   1   3  -5   59.41    3.16   2
  -1  -3   5   56.32    4.33   2
  -1  -3   5   59.21    2.80   2
   1   3  -4   12.00    1.42   2
   1   3  -4   12.33    1.49   2
  -1  -3   4   12.36    1.71   2
  -1  -3   4   14.32    2.16   2
   1   3  -3    6.10    2.01   2
   1   3  -3    5.67    1.26   2
  -1  -3   3    8.02    1.51   2
  -1  -3   3    5.39    1.49   2
   1   3  -2   25.41    1.74   2
   1   3  -2   30.57    2.00   2
  -1  -3   2   25.05    2.15   2
  -1  -3   2   21.94    2.00   2
   1   3  -1   48.31    3.59   2
   1   3  -1   45.26    3.73   2
   1   3  -1   50.35    2.67   2
   1   3  -1   47.50    2.76   2
   1   3   1   52.51    4.24   2
   1   3   1   54.74    3.72   2
  -1  -3  -1   58.72    4.00   2
  -1  -3  -1   55.89    2.45   2
   1   3   2    2.63    2.23   2
   1   3   2   -4.39    1.90   2
  -1  -3  -2    0.84    0.99   2
   1   3   3   63.16    3.08   2
   1   3   3   62.21    3.07   2
  -1  -3  -3   69.64    4.27   2
  -1  -3  -3   70.98    4.10   2
   1   3   4   53.86    3.98   2
   1   3   4   48.55    4.03   2
  -1  -3  -4   47.34    2.56   2
  -1  -3  -4   51.05    3.61   2
   1   3   5    3.37    2.49   2
   1   3   5    6.27    2.52   2
  -1  -3  -5    2.31    2.15   2
   1   3   6  597.47   26.01   2
   1   3   6  611.10   27.10   2
   1   3   8   29.69    4.08   2
   1   3   9   74.02    5.58   2
   1   3   9   69.08    5.67   2
   1   3  10   35.95    2.64   2
   1   3  10   26.87    4.20   2
   1   3  11   55.23    5.02   2
   1   3  11   51.18    3.79   2
   1   3  12   39.35    4.43   2
   1   3  12   42.91    5.57   2
   1   3  13    1.52    3.53   2
   1   3  15    2.32    3.74   2
   1   3  16   18.29    3.99   2
   1   3  16   22.16    3.24   2
   1   3  17    6.96    3.32   2
   1   3  17   -3.14    4.09   2
   1   3  18   61.95    5.83   2
   1   3  18   65.05    7.53   2
  -1  -4  18    8.98    3.76   2
  -1  -4  18    9.85    2.83   2
  -1  -4  17    5.70    3.51   2
  -1  -4  17    4.04    2.51   2
  -1  -4  16   -0.88    3.21   2
  -1  -4  16    1.76    2.34   2
  -1  -4  15    9.84    3.76   2
  -1  -4  15    7.77    2.75   2
  -1  -4  13   20.75    2.70   2
  -1  -4  13    9.67    2.87   2
  -1  -4  12   51.30    5.45   2
  -1  -4  12   42.49    3.79   2
  -1  -4  11   59.38    5.51   2
   1   4 -10   21.96    2.42   2
  -1  -4  10   26.68    4.15   2
  -1  -4  10   25.72    2.71   2
   1   4  -9    1.17    1.34   2
  -1  -4   9   -0.70    1.63   2
  -1  -4   9   -1.18    1.58   2
   1   4  -8    0.07    1.35   2
  -1  -4   8   -2.13    2.71   2
  -1  -4   8    0.13    1.47   2
   1   4  -6    7.60    1.52   2
  -1  -4   6    8.52    3.06   2
  -1  -4   6   11.33    2.37   2
   1   4  -5   37.92    2.39   2
  -1  -4   5   39.11    2.70   2
  -1  -4   5   38.59    2.65   2
   1   4  -4   36.53    2.32   2
  -1  -4   4   38.05    3.98   2
  -1  -4   4   38.32    2.70   2
   1   4  -3    7.46    1.64   2
  -1  -4   3    7.40    1.79   2
  -1  -4   3   11.07    1.17   2
   1   4  -2   10.35    1.59   2
  -1  -4   2    1.70    1.58   2
  -1  -4   2    0.71    1.03   2
   1   4  -1    8.60    2.78   2
   1   4  -1   10.97    1.80   2
   1   4  -1    7.34    2.04   2
   1   4   0   28.33    2.42   2
   1   4   1    2.34    2.48   2
   1   4   1    2.64    2.00   2
  -1  -4  -1    2.06    1.85   2
   1   4   2   36.13    3.57   2
   1   4   2   28.76    2.12   2
  -1  -4  -2   32.07    2.93   2
   1   4   3   14.89    2.85   2
   1   4   3   10.91    2.62   2
   1   4   4   30.41    3.55   2
   1   4   4   33.04    2.35   2
   1   4   5  226.15    9.22   2
   1   4   5  211.76    8.75   2
   1   4   8   24.79    2.44   2
   1   4   8   21.23    2.65   2
   1   4   9   -0.28    2.76   2
   1   4   9    1.44    1.84   2
   1   4  10    5.61    3.15   2
   1   4  10    3.33    2.11   2
   1   4  11    9.03    2.16   2
   1   4  11    0.31    3.63   2
   1   4  12   18.84    4.14   2
   1   4  15   20.19    3.98   2
   1   4  15   11.93    4.94   2
   1   4  16   28.16    4.71   2
   1   4  16   26.15    3.55   2
   1   4  17   10.12    3.59   2
   1   4  17    6.99    4.10   2
   1   4  18   42.45    5.36   2
   1   4  18   39.91    4.08   2
  -1  -5  18    4.19    3.87   2
  -1  -5  17    3.14    3.29   2
  -1  -5  17    2.01    2.40   2
  -1  -5  16    5.91    2.17   2
  -1  -5  16   -0.28    2.59   2
  -1  -5  14    4.04    3.79   2
  -1  -5  14    5.22    2.35   2
  -1  -5  13    5.78    3.68   2
  -1  -5  13    5.05    2.30   2
  -1  -5  12    1.27    2.12   2
  -1  -5  11   11.02    3.68   2
  -1  -5  11    8.11    2.33   2
  -1  -5  10    2.54    2.13   2
  -1  -5  10    4.21    1.76   2
  -1  -5   9   17.77    3.88   2
  -1  -5   9   14.59    2.36   2
   1   5  -7   52.98    3.49   2
  -1  -5   7   69.92    5.91   2
  -1  -5   7   61.31    3.64   2
   1   5  -6   28.28    2.61   2
  -1  -5   6   32.16    2.69   2
  -1  -5   6   34.22    2.86   2
   1   5  -5    6.72    1.64   2
  -1  -5   5    8.88    3.19   2
  -1  -5   5    7.81    2.02   2
   1   5  -4    8.00    1.65   2
  -1  -5   4    5.20    3.02   2
  -1  -5   4    6.71    2.05   2
   1   5  -3    3.86    1.63   2
  -1  -5   3    2.06    3.15   2
  -1  -5   3    5.89    1.92   2
   1   5  -2   17.81    3.67   2
   1   5  -2   19.73    2.19   2
   1   5  -2   20.82    2.48   2
   1   5   0   31.30    3.97   2
   1   5   0   27.27    1.89   2
   1   5   1    5.77    1.57   2
   1   5   1   -3.01    2.16   2
   1   5   2   31.78    3.92   2
   1   5   2   29.93    3.42   2
   1   5   3   27.37    3.79   2
   1   5   3   28.06    3.48   2
   1   5   4   -1.91    1.63   2
   1   5   4    5.78    1.56   2
   1   5   5  313.89   15.89   2
   1   5   5  310.99   13.55   2
   1   5   7   23.17    3.89   2
   1   5   7   27.25    2.50   2
   1   5   8   47.58    5.02   2
   1   5   8   50.16    3.71   2
   1   5   9   32.97    4.50   2
   1   5   9   32.00    3.13   2
   1   5  10   30.03    3.02   2
   1   5  10   31.87    4.90   2
   1   5  11   40.03    5.04   2
   1   5  11   35.45    5.61   2
   1   5  12   -4.02    3.29   2
   1   5  14    6.96    3.69   2
   1   5  14    6.64    3.94   2
   1   5  15   12.12    4.01   2
   1   5  15   10.87    4.66   2
   1   5  16    8.94    2.38   2
   1   5  16    2.20    2.79   2
   1   5  17   34.08    3.39   2
   1   5  17   40.12    6.29   2
  -1  -6  17    8.23    4.15   2
  -1  -6  16    2.35    3.81   2
  -1  -6  14    5.18    4.12   2
  -1  -6  14    3.97    2.37   2
  -1  -6  13   21.60    3.44   2
  -1  -6  13   18.52    2.97   2
  -1  -6  12   18.39    4.73   2
  -1  -6  11   10.99    2.52   2
  -1  -6  11    8.49    2.41   2
  -1  -6  10    2.96    3.47   2
  -1  -6  10    2.25    2.14   2
  -1  -6   9    4.80    1.99   2
  -1  -6   9   -0.79    1.27   2
  -1  -6   7    9.12    3.49   2
  -1  -6   7    3.31    1.99   2
  -1  -6   6   20.52    4.25   2
  -1  -6   5   26.13    4.34   2
  -1  -6   5   25.24    2.95   2
  -1  -6   4    0.55    3.07   2
  -1  -6   4    1.99    1.91   2
  -1  -6   3    0.75    1.78   2
  -1  -6   3    0.83    1.20   2
   1   6  -2    9.22    2.01   2
   1   6  -2    6.14    2.11   2
   1   6  -1    9.33    2.56   2
   1   6   0    9.05    3.44   2
   1   6   0    9.03    2.58   2
   1   6   1   16.09    3.49   2
   1   6   1   13.54    2.68   2
   1   6   2   15.07    3.42   2
   1   6   2    8.08    1.72   2
   1   6   3   11.30    3.41   2
   1   6   3   13.48    1.92   2
   1   6   4   94.86    5.02   2
   1   6   4   99.51    6.50   2
   1   6   7   13.85    3.80   2
   1   6   7   10.92    3.46   2
   1   6   8   -1.80    1.81   2
   1   6   8    2.14    1.71   2
   1   6   9   -3.64    3.07   2
   1   6   9    0.15    1.97   2
   1   6  10    6.64    3.59   2
   1   6  10    6.02    2.25   2
   1   6  11   16.57    4.13   2
   1   6  11   12.28    4.36   2
   1   6  14   13.75    4.12   2
   1   6  14   11.35    4.70   2
   1   6  15    8.54    3.96   2
   1   6  15   15.62    4.61   2
   1   6  16   12.32    4.02   2
   1   6  16   12.09    3.05   2
  -1  -7  15   -1.53    2.32   2
  -1  -7  14    4.77    2.42   2
  -1  -7  14    5.64    2.47   2
  -1  -7  13    2.09    3.92   2
  -1  -7  13    6.45    2.51   2
  -1  -7  12    4.52    2.69   2
  -1  -7  12    4.71    2.37   2
  -1  -7  11   12.77    4.13   2
  -1  -7  11    2.21    2.47   2
  -1  -7  10    1.96    3.69   2
  -1  -7  10    3.84    2.16   2
  -1  -7   8   31.05    3.53   2
  -1  -7   8   22.93    3.10   2
  -1  -7   7   13.59    4.65   2
  -1  -7   7   16.58    1.96   2
  -1  -7   6    5.34    3.93   2
  -1  -7   6    6.77    2.45   2
  -1  -7   5    7.08    3.81   2
  -1  -7   5    4.80    2.54   2
  -1  -7   4    2.44    2.17   2
  -1  -7   4    2.26    1.41   2
   1   7  -3    4.86    3.40   2
   1   7  -3    4.03    2.29   2
   1   7  -1   22.30    4.02   2
   1   7  -1   11.02    2.89   2
   1   7   0   10.47    3.56   2
   1   7   0    1.34    2.36   2
   1   7   1   17.65    2.43   2
   1   7   1   11.32    3.04   2
   1   7   2   10.68    2.24   2
   1   7   2   13.08    3.15   2
   1   7   3    2.80    3.01   2
   1   7   3   -0.20    2.67   2
   1   7   4  136.06    9.32   2
   1   7   4  115.86    6.21   2
   1   7   6   13.52    3.74   2
   1   7   6   15.39    3.73   2
   1   7   7   32.64    4.55   2
   1   7   7   21.86    4.39   2
   1   7   8   13.36    2.54   2
   1   7   8   17.65    3.94   2
   1   7   9   12.13    3.92   2
   1   7   9   14.83    3.73   2
   1   7  10   36.63    5.08   2
   1   7  10   26.00    3.36   2
   1   7  11    5.40    3.60   2
   1   7  11    1.42    2.08   2
   1   7  13    6.09    2.32   2
   1   7  13    4.13    4.05   2
   1   7  14    3.87    2.32   2
   1   7  14    4.43    2.54   2
   1   7  15    5.28    3.79   2
   1   7  15   -1.05    3.91   2
  -1  -8  14    5.58    4.43   2
  -1  -8  13    4.70    4.22   2
  -1  -8  12    0.03    2.68   2
  -1  -8  12    7.26    2.44   2
  -1  -8  11    5.79    3.96   2
  -1  -8  11   -2.24    2.03   2
  -1  -8  10   -1.00    2.51   2
  -1  -8  10    1.96    2.25   2
  -1  -8   9   79.08    7.97   2
  -1  -8   8    6.60    2.62   2
  -1  -8   8    3.36    2.70   2
  -1  -8   7   11.44    4.42   2
  -1  -8   7    9.27    2.94   2
  -1  -8   6    5.48    4.54   2
  -1  -8   6   15.88    2.96   2
  -1  -8   5    2.00    2.16   2
  -1  -8   5   -0.21    1.37   2
   1   8  -4    0.79    2.15   2
   1   8  -4    0.44    2.20   2
   1   8  -3    4.04    2.52   2
   1   8  -3    4.48    2.44   2
   1   8  -2    5.89    2.33   2
   1   8  -2    7.61    2.60   2
   1   8  -1    5.26    2.30   2
   1   8  -1    4.76    2.68   2
   1   8   0    6.67    2.43   2
   1   8   0    5.72    2.68   2
   1   8   1    4.54    2.16   2
   1   8   1    2.43    2.82   2
   1   8   2    2.24    2.23   2
   1   8   2    6.87    2.96   2
   1   8   3   29.16    4.90   2
   1   8   3   44.85    4.79   2
   1   8   5    4.17    3.68   2
   1   8   5    6.81    3.28   2
   1   8   6   11.63    2.49   2
   1   8   6    6.34    3.41   2
   1   8   7   -1.81    1.98   2
   1   8   7    0.03    2.95   2
   1   8   8    1.08    3.30   2
   1   8   8    1.46    1.84   2
   1   8   9    2.43    2.04   2
   1   8  10   12.80    4.39   2
   1   8  10   15.02    4.24   2
   1   8  12    2.48    2.45   2
   1   8  12   13.37    4.13   2
   1   8  13    5.01    2.70   2
   1   8  13    9.63    2.76   2
  -1  -9  12   -2.81    2.65   2
  -1  -9  11    6.50    4.25   2
  -1  -9  11    1.32    2.67   2
  -1  -9   9    6.95    4.28   2
  -1  -9   9    3.00    2.76   2
  -1  -9   8    5.30    2.70   2
  -1  -9   8    5.73    2.77   2
  -1  -9   7   10.42    4.23   2
  -1  -9   7    0.14    2.56   2
  -1  -9   6    0.86    2.48   2
  -1  -9   6   -1.52    1.57   2
   1   9  -5   -1.68    2.44   2
   1   9  -5    6.24    2.45   2
   1   9  -4    5.71    2.65   2
   1   9  -4    5.83    2.49   2
   1   9  -2    3.51    3.96   2
   1   9  -2    0.70    2.55   2
   1   9  -1   11.64    4.62   2
   1   9  -1   14.63    3.22   2
   1   9   0   16.30    4.48   2
   1   9   0    2.74    2.58   2
   1   9   1   11.04    3.88   2
   1   9   1    3.99    1.90   2
   1   9   2   -4.51    3.37   2
   1   9   2    1.02    1.66   2
   1   9   3   51.35    6.16   2
   1   9   3   41.38    3.39   2
   1   9   5    7.70    3.84   2
   1   9   5    4.90    3.48   2
   1   9   6   14.45    4.19   2
   1   9   6   11.29    4.00   2
   1   9   7    4.93    3.87   2
   1   9   7   10.14    2.38   2
   1   9   8    8.12    2.61   2
   1   9   8    4.48    2.36   2
   1   9   9   17.25    2.89   2
   1   9   9   19.37    4.36   2
   1   9  10    4.15    2.39   2
   1   9  10    0.86    3.63   2
  -1 -10  10   21.26    3.90   2
  -1 -10   9   -2.42    4.27   2
  -1 -10   9   -1.10    1.62   2
  -1 -10   8    4.64    2.73   2
  -1 -10   8   -1.59    2.54   2
  -1 -10   7   -1.88    2.65   2
  -1 -10   7    0.15    1.79   2
   1  10  -6    5.43    4.31   2
   1  10  -6    1.56    2.43   2
   1  10  -5    7.00    2.62   2
   1  10  -4   -1.14    4.18   2
   1  10  -4   -1.78    2.38   2
   1  10  -3   -3.10    4.19   2
   1  10  -3    2.61    1.64   2
   1  10  -2    1.25    2.83   2
   1  10  -2    8.29    1.87   2
   1  10  -1   12.38    3.02   2
   1  10  -1    1.76    2.73   2
   1  10   0    1.12    3.89   2
   1  10   0    0.91    2.67   2
   1  10   1    2.01    3.81   2
   1  10   1    2.24    2.76   2
   1  10   2   11.87    4.56   2
   1  10   2   13.99    3.86   2
   1  10   3    6.57    2.17   2
   1  10   4    6.28    4.18   2
   1  10   4    4.20    2.17   2
   1  10   5    4.35    3.73   2
   1  10   5    1.18    3.16   2
   1  10   6    0.83    3.93   2
   1  10   6    5.27    3.47   2
   1  10   7   -1.63    3.63   2
   1  10   7    4.01    2.10   2
   1  10   8    2.77    3.89   2
   1  10   8    3.61    2.21   2
   1  11  -6    2.09    2.54   2
   1  11  -6   -4.02    2.38   2
   1  11  -5   -3.72    4.21   2
   1  11  -5   -0.13    2.50   2
   1  11  -3   -1.78    2.75   2
   1  11  -3    4.41    2.69   2
   1  11  -2    5.10    5.00   2
   1  11  -2    5.90    2.92   2
   1  11  -1    1.50    2.42   2
   1  11   0   -1.59    3.69   2
   1  11   0    1.50    1.75   2
   1  11   1    0.35    2.26   2
   1  11   1    2.26    2.02   2
   1  11   2   11.16    2.96   2
   1  11   2   13.17    3.75   2
   1  11   4   -0.56    3.89   2
   1  11   4    0.74    2.01   2
  -2  12   2    2.43    3.90   2
  -2  12   2    2.25    2.32   2
  -2  12   1    1.32    4.07   2
  -2  12   1    5.92    4.03   2
  -2  12   0   11.89    4.97   2
  -2  12   0   11.42    4.52   2
  -2  12  -1   -0.54    4.10   2
  -2  12  -1   -5.51    3.80   2
   2 -12   2   -3.38    2.68   2
   2 -12   3    2.05    2.50   2
   2 -12   3   -1.25    2.34   2
  -2  11   8   -0.09    3.42   2
  -2  11   8    9.49    3.99   2
  -2  11   7   -3.94    3.20   2
  -2  11   7    2.48    3.67   2
  -2  11   6    1.76    2.01   2
  -2  11   6    0.60    3.66   2
  -2  11   4    0.74    3.35   2
  -2  11   4    3.02    2.35   2
  -2  11   3    1.01    4.21   2
  -2  11   3    9.45    2.64   2
  -2  11   2   -3.04    3.62   2
  -2  11   2    5.43    3.69   2
  -2  11   1    7.60    4.25   2
  -2  11   1    6.05    3.99   2
  -2  11   0   25.89    5.24   2
  -2  11   0   17.00    4.81   2
   2 -11   1    4.04    2.43   2
   2 -11   1    1.74    2.72   2
   2 -11   3    3.06    2.58   2
   2 -11   3    4.66    2.39   2
   2 -11   4    0.38    4.20   2
   2 -11   4   -5.08    4.05   2
   2 -11   5    1.77    4.58   2
   2 -11   5    5.88    3.82   2
   2 -11   6    2.36    3.00   2
   2 -11   6    8.52    4.07   2
   2 -11   7    0.86    4.49   2
   2 -11   7    0.19    2.45   2
   2 -11   8   -3.37    2.72   2
   2 -11   8    2.51    4.06   2
  -2  10  11    5.12    3.44   2
  -2  10  11    9.96    4.08   2
  -2  10  10    5.92    3.11   2
  -2  10  10    0.49    2.33   2
  -2  10   9    1.29    3.01   2
  -2  10   9    2.24    2.35   2
  -2  10   8    0.39    3.14   2
  -2  10   8    0.88    2.31   2
  -2  10   7    4.52    2.10   2
  -2  10   7    9.34    3.99   2
  -2  10   5   15.82    3.65   2
  -2  10   5    6.20    4.43   2
  -2  10   4   24.17    4.70   2
  -2  10   4   25.39    5.05   2
  -2  10   3    2.52    2.01   2
  -2  10   3   -3.02    3.53   2
  -2  10   2   15.43    4.34   2
  -2  10   2   20.50    4.70   2
  -2  10   1   44.98    6.01   2
  -2  10   1   49.47    6.13   2
   2 -10   0    4.26    2.28   2
   2 -10   0   -0.70    2.51   2
   2 -10   2    3.27    3.80   2
   2 -10   3   -4.29    2.47   2
   2 -10   3    1.00    3.86   2
   2 -10   4    6.71    2.60   2
   2 -10   4    0.10    2.39   2
   2 -10   5   -3.96    3.84   2
   2 -10   5    3.00    2.42   2
   2 -10   6   10.88    2.99   2
   2 -10   6    3.43    4.31   2
   2 -10   7   -6.44    4.76   2
   2 -10   7    9.40    3.57   2
   2 -10   9    3.26    4.52   2
   2 -10   9    4.44    2.52   2
   2 -10  10    3.28    2.89   2
   2 -10  10    2.26    3.81   2
   2 -10  11    8.83    5.10   2
   2 -10  11    7.79    4.19   2
  -2   9  12    9.80    3.48   2
  -2   9  12   13.84    4.66   2
  -2   9  11    8.25    2.83   2
  -2   9  11    1.70    2.54   2
  -2   9  10   -2.02    2.56   2
  -2   9  10   -1.16    2.33   2
  -2   9   9    0.92    1.70   2
  -2   9   9    3.03    2.25   2
  -2   9   8    9.28    3.19   2
  -2   9   8    9.88    2.69   2
  -2   9   7    2.94    1.76   2
  -2   9   7    8.39    2.41   2
  -2   9   5    3.71    1.78   2
  -2   9   5   -2.39    2.12   2
  -2   9   4   14.40    4.06   2
  -2   9   4   18.21    2.98   2
  -2   9   3    5.87    3.40   2
  -2   9   3    7.86    2.30   2
  -2   9   2    4.38    2.17   2
  -2   9   2    4.28    2.26   2
   2  -9  -1    2.80    1.97   2
   2  -9  -1    0.62    2.46   2
   2  -9   0   -0.49    3.19   2
   2  -9   0    3.98    3.66   2
   2  -9   2    7.14    3.94   2
   2  -9   2    2.65    3.90   2
   2  -9   3   -0.46    3.68   2
   2  -9   3    2.28    3.61   2
   2  -9   4    8.56    2.73   2
   2  -9   5    8.67    2.77   2
   2  -9   5    0.28    3.89   2
   2  -9   6    1.28    4.32   2
   2  -9   6    6.28    3.55   2
   2  -9   7    0.66    2.76   2
   2  -9   7   12.51    3.94   2
   2  -9   8    4.31    4.82   2
   2  -9   8    5.77    2.56   2
   2  -9   9   -1.50    2.83   2
   2  -9   9    6.36    3.67   2
   2  -9  10   12.14    5.19   2
   2  -9  11   28.65    6.75   2
   2  -9  12    1.54    2.76   2
   2  -9  12   -6.26    3.50   2
   2  -9  13    8.78    4.55   2
   2  -9  13   -1.97    3.56   2
  -2   8  15    5.71    4.17   2
  -2   8  13    1.25    2.71   2
  -2   8  13    5.17    2.35   2
  -2   8  12   17.91    3.49   2
  -2   8  12   19.92    2.94   2
  -2   8  11    7.61    2.59   2
  -2   8  11   -0.69    2.25   2
  -2   8  10   -1.71    2.59   2
  -2   8  10   -1.68    2.14   2
  -2   8   9    6.84    2.45   2
  -2   8   9    4.55    2.38   2
  -2   8   8   12.10    3.19   2
  -2   8   8   14.49    2.79   2
  -2   8   6    8.62    2.95   2
  -2   8   6   13.81    3.60   2
  -2   8   5   39.46    4.39   2
  -2   8   5   40.39    5.17   2
  -2   8   4   -2.61    2.73   2
  -2   8   4    1.15    3.20   2
  -2   8   3   21.00    3.89   2
  -2   8   3   21.97    4.33   2
  -2   8   2  123.33    8.50   2
  -2   8   2  116.52    6.80   2
   2  -8  -1   -5.91    2.83   2
   2  -8  -1    2.55    2.07   2
   2  -8   1   -1.74    3.13   2
   2  -8   1   -0.32    3.23   2
   2  -8   2   -4.59    3.46   2
   2  -8   2   -0.53    3.40   2
   2  -8   3    8.89    4.29   2
   2  -8   3   11.15    2.33   2
   2  -8   4    2.51    3.63   2
   2  -8   4    2.81    1.94   2
   2  -8   5   10.84    4.39   2
   2  -8   5   11.21    2.60   2
   2  -8   6   12.09    3.16   2
   2  -8   6    9.20    2.54   2
   2  -8   8    6.45    2.87   2
   2  -8   8    3.22    2.36   2
   2  -8   9    8.07    4.75   2
   2  -8   9    5.56    3.98   2
   2  -8  10   13.14    3.56   2
   2  -8  11   12.90    5.15   2
   2  -8  12   10.10    5.14   2
   2  -8  12    4.31    3.76   2
   2  -8  13    1.92    3.06   2
   2  -8  13    8.51    3.62   2
   2  -8  15    1.24    2.73   2
   2  -8  15    1.33    3.44   2
  -2   7  16   -3.20    2.37   2
  -2   7  15   29.09    3.50   2
  -2   7  13   28.44    3.58   2
  -2   7  13   27.77    4.93   2
  -2   7  12    7.59    2.53   2
  -2   7  12    3.03    3.79   2
  -2   7  11   -1.04    2.28   2
  -2   7  11   -2.10    3.42   2
  -2   7  10    2.12    2.25   2
  -2   7  10    1.09    3.31   2
  -2   7   9    4.57    2.18   2
  -2   7   9    2.52    2.04   2
  -2   7   8    9.06    2.67   2
  -2   7   8    9.11    2.43   2
  -2   7   6    3.80    2.49   2
  -2   7   6    4.28    3.09   2
  -2   7   5   21.99    3.13   2
  -2   7   5   21.27    4.23   2
  -2   7   4   10.04    2.93   2
  -2   7   4   11.07    2.20   2
  -2   7   3   10.67    1.78   2
  -2   7   3   -0.56    3.47   2
   2  -7  -2   88.67    4.65   2
   2  -7  -2   91.21    4.98   2
   2  -7  -1    7.82    2.73   2
   2  -7  -1    2.50    1.96   2
   2  -7   1    1.07    1.83   2
   2  -7   1    5.79    2.05   2
   2  -7   2    1.53    3.38   2
   2  -7   2    3.39    1.99   2
   2  -7   3   24.79    4.55   2
   2  -7   4   14.54    3.08   2
   2  -7   4   18.58    4.06   2
   2  -7   5    6.85    2.36   2
   2  -7   5    4.07    2.18   2
   2  -7   6   29.53    5.42   2
   2  -7   6   23.86    3.15   2
   2  -7   8   -0.16    2.21   2
   2  -7   8    0.34    1.77   2
   2  -7   9    8.75    4.75   2
   2  -7   9    3.96    3.47   2
   2  -7  10   61.64    7.53   2
   2  -7  11   -4.07    2.64   2
   2  -7  11   -3.02    3.61   2
   2  -7  12   15.31    4.48   2
   2  -7  12   -4.34    3.25   2
   2  -7  13    4.28    3.63   2
   2  -7  14   -6.76    4.31   2
   2  -7  14   -3.51    3.93   2
   2  -7  15   25.32    5.44   2
   2  -7  15    8.25    4.46   2
   2  -7  16    5.96    4.32   2
   2  -7  16   -4.83    3.40   2
  -2   6  17    0.62    3.43   2
  -2   6  16    2.52    3.80   2
  -2   6  14    4.46    2.35   2
  -2   6  13   48.75    3.83   2
  -2   6  13   38.70    3.67   2
  -2   6  12    4.02    1.99   2
  -2   6  12    4.71    2.01   2
  -2   6  11    3.03    2.08   2
  -2   6  11    2.42    3.33   2
  -2   6  10   14.87    2.33   2
  -2   6  10   13.74    3.71   2
  -2   6   9   10.15    2.30   2
  -2   6   9    8.34    3.58   2
  -2   6   7   13.11    2.49   2
  -2   6   7   12.25    2.10   2
  -2   6   6   69.87    3.43   2
  -2   6   6   80.61    5.74   2
  -2   6   5    4.09    2.11   2
  -2   6   5    7.27    2.89   2
  -2   6   4   26.10    2.95   2
  -2   6   4   28.21    4.08   2
  -2   6   3  244.94   11.74   2
  -2   6   3  253.81   11.20   2
   2  -6  -2   -3.01    2.23   2
   2  -6  -2    1.49    2.95   2
   2  -6   0    7.82    2.72   2
   2  -6   0    3.93    3.36   2
   2  -6   1   12.16    3.09   2
   2  -6   1   12.49    3.64   2
   2  -6   2   14.40    2.47   2
   2  -6   2   10.41    2.26   2
   2  -6   3    8.79    2.11   2
   2  -6   3    0.33    3.20   2
   2  -6   4   27.63    2.88   2
   2  -6   4   25.82    4.06   2
   2  -6   5   33.10    3.31   2
   2  -6   5   32.25    2.83   2
   2  -6   7   12.34    4.45   2
   2  -6   7   14.65    3.72   2
   2  -6   8   18.46    2.88   2
   2  -6   8   12.67    3.92   2
   2  -6   9   29.96    5.29   2
   2  -6   9   20.84    4.17   2
   2  -6  10   19.30    5.48   2
   2  -6  11    8.07    2.94   2
   2  -6  11    8.82    3.59   2
   2  -6  12   -2.38    2.70   2
   2  -6  12   -5.43    3.29   2
   2  -6  14    1.06    4.30   2
   2  -6  14    2.29    2.25   2
   2  -6  15   10.28    4.67   2
   2  -6  15    1.35    3.85   2
   2  -6  16   15.44    5.06   2
   2  -6  16   10.75    4.35   2
   2  -6  17   -1.87    4.42   2
  -2   5  18   -3.86    3.45   2
  -2   5  17    3.73    3.61   2
  -2   5  16   42.91    5.80   2
  -2   5  14   41.66    3.28   2
  -2   5  14   39.33    5.23   2
  -2   5  13    2.70    1.88   2
  -2   5  13   11.79    3.48   2
  -2   5  12    2.22    1.76   2
  -2   5  12    1.04    3.09   2
  -2   5  11    2.28    1.75   2
  -2   5  11    7.50    3.02   2
   2  -5 -10    5.49    1.50   2
  -2   5  10    9.59    1.95   2
  -2   5  10    7.00    3.25   2
   2  -5  -9   13.81    1.75   2
  -2   5   9   16.50    2.91   2
  -2   5   9   21.59    2.29   2
  -2   5   8    0.26    0.80   2
  -2   5   7   10.79    1.75   2
  -2   5   7   13.10    2.06   2
  -2   5   7   18.80    3.17   2
  -2   5   6   32.18    2.45   2
  -2   5   6   39.05    2.87   2
  -2   5   6   40.23    4.07   2
  -2   5   5   16.09    1.79   2
  -2   5   5   19.18    2.22   2
  -2   5   5   16.79    2.16   2
  -2   5   4    8.86    1.64   2
  -2   5   4    8.43    1.90   2
  -2   5   4   10.72    3.09   2
   2  -5  -3   55.20    2.79   2
   2  -5  -3   56.06    3.61   2
  -2   5   3  179.04    5.58   2
   2  -5  -2    5.60    1.27   2
   2  -5  -2    7.76    2.90   2
  -2   5   2    2.21    1.70   2
   2  -5   0   16.57    1.91   2
   2  -5   0   20.42    2.27   2
  -2   5   0   17.83    2.55   2
   2  -5   1   35.77    3.91   2
   2  -5   1   30.11    2.64   2
   2  -5   2   53.64    4.87   2
   2  -5   2   40.90    3.15   2
   2  -5   3   42.86    5.13   2
   2  -5   3   41.70    4.45   2
   2  -5   4   15.73    4.06   2
   2  -5   4   17.69    2.24   2
   2  -5   5   99.89    8.38   2
   2  -5   5   93.52    7.01   2
   2  -5   7    8.39    3.89   2
   2  -5   7    3.23    1.85   2
   2  -5   8   11.29    2.75   2
   2  -5   8   11.13    2.16   2
   2  -5   9  110.27    9.52   2
   2  -5  10    6.44    4.23   2
   2  -5  11    4.39    2.56   2
   2  -5  11    4.96    2.13   2
   2  -5  12    8.19    4.02   2
   2  -5  14   38.21    4.30   2
   2  -5  14   30.50    5.62   2
   2  -5  15   15.28    3.29   2
   2  -5  15   18.05    4.25   2
   2  -5  16    7.38    2.79   2
   2  -5  16    9.29    3.87   2
   2  -5  17   37.85    4.15   2
   2  -5  17   24.02    3.29   2
  -2   4  18    4.83    3.75   2
  -2   4  17   -1.22    3.49   2
  -2   4  15    1.45    2.01   2
  -2   4  14   67.29    4.60   2
  -2   4  14   62.64    4.38   2
  -2   4  13    9.76    1.81   2
  -2   4  13    5.64    2.09   2
   2  -4 -12   12.66    2.01   2
  -2   4  12   19.03    2.07   2
  -2   4  12   23.46    3.76   2
   2  -4 -11   11.39    1.94   2
  -2   4  11   16.22    2.41   2
  -2   4  11   20.68    3.41   2
   2  -4 -10    9.56    1.41   2
  -2   4  10    8.96    1.73   2
  -2   4  10   12.04    3.20   2
   2  -4  -8    3.38    1.18   2
  -2   4   8    2.02    1.33   2
  -2   4   8    2.63    2.49   2
   2  -4  -7  100.00    3.99   2
  -2   4   7  112.97    4.51   2
  -2   4   7  112.78    5.04   2
  -2   4   6    4.80    1.17   2
  -2   4   6    2.56    1.80   2
  -2   4   6    3.85    2.31   2
  -2   4   5   30.10    1.91   2
  -2   4   5   31.43    2.16   2
  -2   4   5   34.42    3.35   2
  -2   4   4  401.71   15.76   2
  -2   4   4  402.78   15.81   2
  -2   4   4  418.18   18.47   2
   2  -4  -3   -1.51    1.41   2
   2  -4  -3    1.08    1.34   2
  -2   4   3   -0.38    0.79   2
  -2   4   3   -0.03    1.00   2
   2  -4  -1   14.63    2.32   2
   2  -4  -1   17.74    3.18   2
  -2   4   1   12.90    2.10   2
  -2   4   1    9.70    2.63   2
   2  -4   0   39.08    3.56   2
   2  -4   0   39.70    2.66   2
  -2   4   0   33.36    2.02   2
  -2   4   0   42.86    3.30   2
   2  -4   1   30.11    3.49   2
   2  -4   1   27.17    3.77   2
  -2   4  -1   22.38    2.76   2
  -2   4  -1   25.96    1.89   2
   2  -4   2   10.79    1.90   2
   2  -4   2    7.33    2.81   2
  -2   4  -2   13.06    2.38   2
  -2   4  -2    6.23    2.16   2
   2  -4   3   51.98    4.79   2
   2  -4   3   44.26    4.31   2
   2  -4   4  113.65    7.37   2
   2  -4   4   95.91    4.64   2
   2  -4   6   27.11    4.59   2
   2  -4   6   24.53    2.56   2
   2  -4   7   30.73    4.31   2
   2  -4   7   22.46    2.48   2
   2  -4   8   48.39    5.47   2
   2  -4   8   33.76    3.11   2
   2  -4   9   46.43    3.59   2
   2  -4  10   18.60    2.76   2
   2  -4  10   15.41    3.85   2
   2  -4  11   -1.54    2.34   2
   2  -4  11   -2.02    3.14   2
   2  -4  13    3.82    2.51   2
   2  -4  13    9.98    3.73   2
   2  -4  14    9.53    2.90   2
   2  -4  14    8.87    4.09   2
   2  -4  15   25.08    3.60   2
   2  -4  15   16.99    3.22   2
   2  -4  16   -0.64    2.49   2
   2  -4  16    1.63    2.16   2
   2  -4  17   51.94    7.18   2
   2  -4  17   44.63    4.38   2
   2  -4  18    2.87    4.33   2
   2  -4  18    3.53    2.43   2
  -2   3  19   10.01    3.72   2
  -2   3  18   -1.24    3.44   2
  -2   3  17   48.68    4.35   2
  -2   3  15   51.51    3.28   2
  -2   3  15   51.13    5.54   2
  -2   3  14    5.76    1.85   2
  -2   3  14    6.33    3.27   2
   2  -3 -13   -0.25    1.16   2
  -2   3  13    2.88    1.58   2
  -2   3  13    2.76    2.88   2
   2  -3 -12    1.10    1.10   2
  -2   3  12   -0.32    1.37   2
  -2   3  12    4.24    2.70   2
   2  -3 -11    4.57    1.17   2
  -2   3  11    5.76    1.37   2
  -2   3  11    5.38    1.80   2
  -2   3  10   24.25    3.53   2
   2  -3  -8   36.10    1.64   2
  -2   3   8   37.66    2.36   2
  -2   3   8   34.44    3.47   2
   2  -3  -7   56.03    2.70   2
  -2   3   7   54.46    2.20   2
  -2   3   7   56.13    2.89   2
   2  -3  -6   20.05    1.49   2
   2  -3  -6   21.23    1.70   2
  -2   3   6   21.65    1.34   2
  -2   3   6   22.26    1.83   2
  -2   3   5    7.12    1.29   2
  -2   3   5    5.29    1.45   2
  -2   3   5    7.04    1.89   2
  -2   3   5    2.90    1.33   2
  -2   3   4  297.67   10.26   2
  -2   3   4  273.85    9.06   2
  -2   3   4  290.83   11.74   2
  -2   3   4  286.84   11.90   2
   2  -3  -3    9.71    1.36   2
   2  -3  -3   11.51    2.54   2
  -2   3   3   12.05    1.41   2
  -2   3   3    8.99    1.34   2
   2  -3  -1   55.13    3.41   2
   2  -3  -1   50.82    3.85   2
  -2   3   1   53.66    3.11   2
  -2   3   1   49.05    2.51   2
   2  -3   0   93.81    5.10   2
   2  -3   0  100.61    5.60   2
  -2   3   0   97.86    4.61   2
  -2   3   0   90.07    3.60   2
   2  -3   1   84.67    5.14   2
   2  -3   1   78.47    3.51   2
  -2   3  -1   73.05    3.01   2
  -2   3  -1   77.84    3.49   2
   2  -3   2   86.82    3.94   2
   2  -3   2   92.23    5.54   2
  -2   3  -2   93.05    5.12   2
  -2   3  -2   86.43    4.87   2
   2  -3   3   27.12    3.76   2
   2  -3   3   27.53    3.33   2
  -2   3  -3   25.07    3.20   2
  -2   3  -3   23.67    1.85   2
   2  -3   4  325.89   13.81   2
   2  -3   4  314.88   15.98   2
  -2   3  -4  318.65   15.73   2
  -2   3  -4  317.31   15.25   2
  -2   3  -5   25.01    3.08   2
   2  -3   6    5.89    1.89   2
   2  -3   6   -1.33    2.71   2
   2  -3   7   21.50    4.16   2
   2  -3   7   24.47    3.81   2
   2  -3   8  141.38    8.77   2
   2  -3   8  124.42    6.26   2
   2  -3   9    8.74    3.87   2
   2  -3   9   12.54    3.69   2
   2  -3  10    1.58    3.48   2
   2  -3  10    3.31    3.31   2
   2  -3  11   26.43    4.59   2
   2  -3  13   52.27    6.34   2
   2  -3  13   47.84    3.98   2
   2  -3  14   28.00    3.31   2
   2  -3  14   21.09    3.09   2
   2  -3  15    3.66    2.53   2
   2  -3  15    5.88    3.78   2
   2  -3  16   81.97    8.42   2
   2  -3  16   68.91    8.14   2
   2  -3  17   -2.76    3.75   2
   2  -3  17   -4.19    3.83   2
  -2   2  19    3.57    3.33   2
  -2   2  18   -2.80    3.11   2
  -2   2  16    1.07    1.81   2
  -2   2  15   68.94    5.00   2
  -2   2  15   87.70    4.62   2
   2  -2 -14   11.45    1.69   2
  -2   2  14   16.68    1.93   2
  -2   2  14   13.47    3.52   2
   2  -2 -13   35.23    2.31   2
  -2   2  13   44.20    2.64   2
  -2   2  13   45.55    4.23   2
   2  -2 -12   21.18    1.71   2
  -2   2  12   25.71    2.15   2
  -2   2  12   24.59    3.49   2
   2  -2 -11    5.75    1.45   2
  -2   2  11   12.89    2.59   2
   2  -2  -9    2.49    0.81   2
  -2   2   9   -1.79    1.94   2
   2  -2  -8  133.34    4.31   2
   2  -2  -8  129.11    5.86   2
  -2   2   8  131.13    4.03   2
  -2   2   8  124.81    6.13   2
   2  -2  -7   16.01    1.14   2
   2  -2  -7   13.14    2.09   2
  -2   2   7   16.47    1.25   2
  -2   2   7   18.91    1.55   2
   2  -2  -6   36.60    1.23   2
   2  -2  -6   36.38    2.72   2
  -2   2   6   38.75    1.54   2
  -2   2   6   38.42    2.93   2
  -2   2   5  534.54   17.47   2
  -2   2   5   87.28    7.13   2
  -2   2   5  526.37   20.51   2
  -2   2   4   -0.06    0.54   2
  -2   2   4   -0.19    0.57   2
  -2   2   4    0.99    0.86   2
  -2   2   4    1.44    0.95   2
   2  -2  -2   22.57    1.61   2
   2  -2  -2   23.27    2.99   2
  -2   2   2   27.30    1.97   2
  -2   2   2   24.27    2.50   2
   2  -2  -1  115.25    4.68   2
   2  -2  -1  118.96    4.56   2
  -2   2   1  112.88    4.39   2
  -2   2   1  118.69    5.43   2
   2  -2   0   56.57    3.70   2
   2  -2   0   57.71    4.12   2
  -2   2   0   61.10    3.32   2
  -2   2   0   63.77    2.81   2
   2  -2   1   25.16    3.30   2
   2  -2   1   24.34    2.04   2
  -2   2  -1   26.77    1.86   2
  -2   2  -1   19.38    3.01   2
   2  -2   2   77.93    5.18   2
   2  -2   2   72.35    3.40   2
  -2   2  -2   71.97    3.18   2
  -2   2  -2   78.05    4.55   2
   2  -2   3  229.09    9.12   2
   2  -2   3  239.27    9.02   2
  -2   2  -3  241.25    9.17   2
  -2   2  -3  248.72   10.67   2
   2  -2   5   49.04    4.82   2
   2  -2   5   51.74    3.25   2
  -2   2  -5   57.59    4.40   2
  -2   2  -5   50.65    3.82   2
   2  -2   6   32.67    4.20   2
   2  -2   6   37.62    2.74   2
   2  -2   7   54.27    4.84   2
   2  -2   7   43.40    2.94   2
   2  -2   8   52.52    5.12   2
   2  -2   8   62.03    5.22   2
   2  -2   9   34.07    4.09   2
   2  -2   9   30.55    2.82   2
   2  -2  10   -1.22    3.25   2
   2  -2  10    2.39    1.81   2
   2  -2  12   10.31    2.47   2
   2  -2  12    9.28    3.78   2
   2  -2  13   17.88    4.66   2
   2  -2  13   17.58    4.23   2
   2  -2  14   36.62    5.70   2
   2  -2  14   38.18    5.52   2
   2  -2  15    7.31    2.51   2
   2  -2  15   -2.25    3.94   2
   2  -2  16  112.19    9.32   2
   2  -2  16  106.50    8.89   2
   2  -2  17    4.87    3.88   2
   2  -2  19   11.68    4.74   2
   2  -2  19   12.80    2.98   2
  -2   1  19    1.59    1.91   2
  -2   1  18   37.62    4.92   2
  -2   1  16   42.70    3.47   2
  -2   1  16   46.03    4.72   2
  -2   1  15    5.54    1.95   2
  -2   1  15   11.90    2.93   2
  -2   1  14    5.05    1.78   2
  -2   1  14    3.43    2.47   2
   2  -1 -13    1.98    1.24   2
  -2   1  13   -0.73    1.46   2
  -2   1  13   -0.91    2.30   2
   2  -1 -12    3.03    1.64   2
  -2   1  12    0.11    1.47   2
  -2   1  12    1.14    2.07   2
  -2   1  11   26.67    2.00   2
   2  -1  -9   56.39    2.76   2
   2  -1  -9   56.72    3.23   2
  -2   1   9   54.23    2.39   2
  -2   1   9   60.93    3.62   2
   2  -1  -8   60.80    2.17   2
   2  -1  -8   61.85    3.08   2
  -2   1   8   60.28    2.23   2
  -2   1   8   60.29    3.41   2
   2  -1  -7   24.70    1.95   2
  -2   1   7   24.18    1.54   2
  -2   1   7   24.24    2.25   2
   2  -1  -6    4.44    0.43   2
   2  -1  -6    4.03    1.35   2
  -2   1   6    1.83    0.74   2
  -2   1   6    4.13    1.53   2
   2  -1  -5  264.14    6.78   2
   2  -1  -5  286.24   10.00   2
  -2   1   5  272.79    7.10   2
  -2   1   5  283.34   10.14   2
  -2   1   4   18.74    1.64   2
  -2   1   4   17.89    1.75   2
   2  -1  -3  109.04    2.57   2
  -2   1   3  105.13    2.39   2
   2  -1  -2  122.87    3.49   2
   2  -1  -2  132.32    5.15   2
  -2   1   2  123.40    3.77   2
  -2   1   2  126.83    4.53   2
   2  -1  -1  235.62    7.99   2
   2  -1  -1  251.67    9.27   2
  -2   1   1  239.63    7.88   2
  -2   1   1  261.00    9.16   2
   2  -1   0   72.66    4.16   2
   2  -1   0   86.01    4.51   2
  -2   1   0   88.61    4.01   2
  -2   1   0   88.66    4.07   2
   2  -1   1  174.73    7.89   2
   2  -1   1  184.18    6.36   2
  -2   1  -1  194.22    8.00   2
  -2   1  -1  184.62    6.32   2
   2  -1   2   33.42    3.40   2
   2  -1   2   33.65    3.57   2
  -2   1  -2   34.86    3.38   2
  -2   1  -2   34.92    3.33   2
   2  -1   3  736.13   35.86   2
  -2   1  -3 1114.73   53.88   2
  -2   1  -3 1070.35   51.70   2
  -2   1  -4   68.71    4.69   2
   2  -1   5    1.63    2.76   2
   2  -1   5    3.53    2.72   2
  -2   1  -5    4.85    2.27   2
  -2   1  -5    3.15    1.37   2
   2  -1   6   40.00    2.96   2
   2  -1   6   42.11    2.80   2
  -2   1  -6   42.93    2.58   2
  -2   1  -6   39.54    2.49   2
   2  -1   7  120.85    7.61   2
   2  -1   7  115.55    6.88   2
   2  -1   8   24.90    2.57   2
   2  -1   8   22.17    3.70   2
   2  -1   9    0.76    3.09   2
   2  -1   9    4.74    1.85   2
   2  -1  12   78.83    6.71   2
   2  -1  12   62.32    4.49   2
   2  -1  13   53.40    4.00   2
   2  -1  13   40.85    3.65   2
   2  -1  14    9.31    3.78   2
   2  -1  14   -1.27    3.51   2
   2  -1  15  160.09    8.39   2
   2  -1  15  153.53   11.57   2
   2  -1  16    3.86    3.88   2
   2  -1  16    3.91    4.12   2
   2  -1  19    7.79    3.91   2
   2  -1  19    2.72    4.40   2
  -2   0  20    7.14    3.21   2
  -2   0  19    2.90    2.75   2
  -2   0  17    5.10    2.85   2
  -2   0  16   58.23    4.21   2
  -2   0  16   58.73    4.89   2
  -2   0  15   25.44    2.90   2
  -2   0  15   27.83    3.54   2
  -2   0  14   53.02    3.52   2
  -2   0  14   53.70    4.29   2
  -2   0  13   20.34    2.48   2
  -2   0  13   26.22    2.06   2
   2   0 -12    3.51    1.43   2
  -2   0  12    4.55    1.69   2
  -2   0  12    5.73    1.98   2
   2   0 -10   12.74    1.47   2
   2   0 -10   13.28    1.80   2
  -2   0  10   12.45    2.40   2
  -2   0  10   11.33    1.95   2
   2   0  -9   96.16    3.99   2
   2   0  -9   97.48    4.22   2
  -2   0   9   98.24    4.09   2
  -2   0   9   99.03    4.34   2
   2   0  -8   28.07    2.18   2
   2   0  -8   28.76    1.89   2
  -2   0   8   29.83    2.34   2
  -2   0   8   27.05    2.75   2
   2   0  -7   23.94    1.50   2
   2   0  -7   25.15    1.66   2
  -2   0   7   22.29    2.04   2
  -2   0   7   26.01    1.81   2
   2   0  -6  430.94   15.96   2
  -2   0   6  421.11   14.63   2
  -2   0   6  438.32   16.21   2
   2   0  -5    1.08    0.81   2
   2   0  -5    0.75    1.00   2
  -2   0   5    0.03    1.08   2
  -2   0   5    0.62    1.11   2
   2   0  -2  144.31    4.95   2
   2   0  -2  147.28    4.62   2
  -2   0   2  139.73    4.73   2
  -2   0   2  150.63    4.60   2
   2   0  -1   85.50    3.86   2
   2   0  -1   82.72    3.09   2
  -2   0   1   82.61    3.55   2
  -2   0   1   86.24    3.12   2
   2   0   0   37.17    3.16   2
   2   0   0   35.26    2.61   2
  -2   0   0   34.16    2.72   2
  -2   0   0   38.26    1.72   2
   2   0   1   76.16    4.94   2
   2   0   1   72.85    4.22   2
  -2   0  -1   70.16    4.08   2
  -2   0  -1   78.83    2.89   2
   2   0   2  379.77   16.60   2
   2   0   2  390.37   16.30   2
  -2   0  -2  372.33   15.39   2
  -2   0  -2  406.65   16.15   2
   2   0   4   62.63    3.24   2
   2   0   4   75.70    4.98   2
  -2   0  -4   69.17    3.22   2
  -2   0  -4   74.14    4.22   2
   2   0   5   37.25    2.51   2
   2   0   5   43.38    2.76   2
  -2   0  -5   44.58    3.73   2
  -2   0  -5   43.24    3.39   2
   2   0   6   51.61    4.50   2
   2   0   6   56.61    3.20   2
  -2   0  -6   52.45    3.91   2
   2   0   7   65.07    4.85   2
   2   0   7   73.61    3.87   2
   2   0   8   41.26    4.03   2
   2   0   8   44.89    3.10   2
   2   0   9    4.89    1.95   2
   2   0   9    7.01    2.10   2
   2   0  11    6.10    3.66   2
   2   0  12   19.87    2.93   2
   2   0  12   27.33    4.41   2
   2   0  13   81.55    6.64   2
   2   0  13   63.12    4.46   2
   2   0  14    2.61    3.57   2
   2   0  14    5.60    3.57   2
   2   0  15  171.26   11.24   2
   2   0  15  174.54   11.90   2
   2   0  16   10.30    4.23   2
   2   0  16    8.51    4.45   2
   2   0  18    2.88    4.27   2
   2   0  19   -0.90    2.03   2
   2   0  19    5.70    3.97   2
  -2  -1  19   19.90    3.66   2
  -2  -1  17   32.43    3.60   2
  -2  -1  17   26.71    3.67   2
  -2  -1  16    5.51    2.51   2
  -2  -1  16    9.84    2.62   2
  -2  -1  15    0.99    2.16   2
  -2  -1  15    5.20    2.25   2
  -2  -1  14   -1.09    1.97   2
  -2  -1  14    0.18    1.94   2
  -2  -1  13   -0.31    1.87   2
  -2  -1  13   -0.40    1.70   2
   2   1 -12   12.91    1.96   2
  -2  -1  12   17.99    2.45   2
  -2  -1  12   17.98    2.37   2
   2   1 -10   52.88    3.05   2
   2   1 -10   57.84    2.93   2
  -2  -1  10   54.83    3.41   2
  -2  -1  10   57.87    3.02   2
   2   1  -9   44.47    2.75   2
   2   1  -9   48.80    2.48   2
  -2  -1   9   50.14    3.06   2
  -2  -1   9   50.14    2.60   2
   2   1  -8   17.34    1.83   2
   2   1  -8   23.37    1.50   2
  -2  -1   8   22.27    2.16   2
  -2  -1   8   21.00    1.49   2
   2   1  -7    0.20    1.28   2
   2   1  -7    2.57    0.84   2
  -2  -1   7    1.99    1.50   2
  -2  -1   7   -1.60    1.20   2
   2   1  -6  148.92    5.73   2
   2   1  -6  154.45    4.79   2
  -2  -1   6  162.99    6.24   2
  -2  -1   6  162.51    5.11   2
   2   1  -5   19.50    1.81   2
  -2  -1   5   17.55    1.75   2
  -2  -1   5   18.28    0.91   2
   2   1  -3  104.91    3.30   2
   2   1  -3  100.94    4.35   2
   2   1  -2  169.11    6.79   2
   2   1  -2  181.85    4.91   2
  -2  -1   2  187.03    6.96   2
  -2  -1   2  178.10    4.72   2
   2   1  -1   54.08    2.42   2
   2   1  -1   56.19    2.20   2
  -2  -1   1   57.75    3.29   2
  -2  -1   1   54.42    2.02   2
   2   1   0  174.36    6.41   2
   2   1   0  188.46    6.70   2
  -2  -1   0  184.10    7.72   2
  -2  -1   0  186.55    6.32   2
   2   1   1   17.25    3.08   2
   2   1   1   14.08    2.22   2
  -2  -1  -1   14.92    2.45   2
  -2  -1  -1   17.78    2.07   2
   2   1   2 1268.95   73.68   2
  -2  -1  -2 1630.44   89.32   2
   2   1   3   88.97    5.34   2
  -2  -1  -3   82.17    4.51   2
   2   1   4    0.75    1.31   2
   2   1   4    0.87    1.30   2
  -2  -1  -4   -0.81    1.16   2
  -2  -1  -4   -0.55    1.81   2
   2   1   5   52.49    4.40   2
   2   1   5   50.45    4.44   2
  -2  -1  -5   61.21    4.07   2
  -2  -1  -5   54.01    3.78   2
   2   1   6   45.85    4.11   2
   2   1   6   48.55    4.35   2
   2   1   7   37.76    2.80   2
   2   1   7   45.15    2.94   2
   2   1   8    5.16    1.72   2
   2   1   8    1.44    1.77   2
   2   1   9   67.03    3.86   2
   2   1   9   80.05    6.00   2
   2   1  11   73.80    6.57   2
   2   1  12   55.15    5.21   2
   2   1  12   59.84    6.14   2
   2   1  13    9.88    3.58   2
   2   1  13    6.59    2.42   2
   2   1  14  222.03   10.35   2
   2   1  14  216.13   13.97   2
   2   1  15    6.82    4.38   2
   2   1  18   -1.00    3.23   2
   2   1  18    0.88    2.17   2
  -2  -2  18   -3.06    2.33   2
  -2  -2  18    1.92    2.14   2
  -2  -2  17   25.85    3.79   2
  -2  -2  17   33.39    3.56   2
  -2  -2  16   18.97    3.24   2
  -2  -2  16   15.11    2.78   2
  -2  -2  15   33.28    3.86   2
  -2  -2  15   33.98    3.37   2
  -2  -2  14   21.53    2.10   2
  -2  -2  14   17.66    3.33   2
  -2  -2  13    2.10    2.16   2
  -2  -2  13    4.82    1.84   2
   2   2 -11   16.43    1.69   2
  -2  -2  11   20.22    2.81   2
  -2  -2  11   18.52    1.95   2
   2   2 -10   43.60    2.45   2
  -2  -2  10   55.65    3.78   2
  -2  -2  10   50.55    2.79   2
   2   2  -9   27.77    2.61   2
   2   2  -9   27.83    1.67   2
  -2  -2   9   31.10    2.99   2
  -2  -2   9   30.84    2.04   2
   2   2  -8   10.28    1.81   2
   2   2  -8   11.91    1.13   2
  -2  -2   8   16.18    2.47   2
  -2  -2   8   13.77    1.69   2
   2   2  -7  160.00    6.99   2
   2   2  -7  156.19    5.31   2
  -2  -2   7  173.30    7.65   2
  -2  -2   7  166.16    5.85   2
   2   2  -6    1.05    1.48   2
   2   2  -6    0.84    0.70   2
  -2  -2   6    2.36    1.75   2
  -2  -2   6    2.37    0.89   2
   2   2  -4   36.52    1.66   2
  -2  -2   4    9.91    1.61   2
   2   2  -3   54.19    2.39   2
   2   2  -3   52.07    2.38   2
   2   2  -3   55.00    1.77   2
   2   2  -3   56.26    1.89   2
   2   2  -2   44.44    2.18   2
  -2  -2   2   41.64    2.11   2
  -2  -2   2   42.85    2.01   2
   2   2  -1   19.12    1.74   2
   2   2  -1   20.34    1.58   2
  -2  -2   1   19.43    1.72   2
  -2  -2   1   22.43    2.03   2
   2   2   0   36.03    3.58   2
   2   2   0   34.34    1.66   2
  -2  -2   0   38.99    3.24   2
  -2  -2   0   35.48    1.56   2
   2   2   1  319.62   14.15   2
   2   2   1  306.73   12.25   2
  -2  -2  -1  330.46   13.59   2
  -2  -2  -1  303.63   10.54   2
   2   2   3   59.91    4.54   2
   2   2   3   59.85    3.03   2
  -2  -2  -3   75.50    4.61   2
  -2  -2  -3   63.99    2.78   2
   2   2   4   27.81    3.55   2
   2   2   4   29.44    3.43   2
  -2  -2  -4   32.39    3.30   2
  -2  -2  -4   28.42    2.76   2
   2   2   5   20.19    2.22   2
   2   2   5   26.79    2.31   2
   2   2   6   38.80    4.05   2
   2   2   6   48.31    4.56   2
   2   2   7   48.58    4.33   2
   2   2   7   40.91    4.45   2
   2   2   8   15.70    2.07   2
   2   2   8    7.22    3.68   2
   2   2  10    3.95    3.50   2
   2   2  11   17.57    3.93   2
   2   2  11   16.88    4.19   2
   2   2  12   61.77    4.20   2
   2   2  12   72.43    6.72   2
   2   2  13    6.93    2.08   2
   2   2  13    2.32    2.23   2
   2   2  14  201.90    9.65   2
   2   2  14  215.94   14.02   2
   2   2  15   15.61    3.15   2
   2   2  17   12.40    2.94   2
   2   2  18   -0.08    2.21   2
   2   2  18    1.57    3.84   2
  -2  -3  18   18.43    3.71   2
  -2  -3  17    2.87    2.89   2
  -2  -3  17    7.66    2.39   2
  -2  -3  16    3.75    2.77   2
  -2  -3  16    3.31    2.10   2
  -2  -3  15    1.06    2.62   2
  -2  -3  15    1.85    1.99   2
  -2  -3  14    3.46    2.43   2
  -2  -3  14   -1.17    1.77   2
  -2  -3  13   11.25    3.08   2
  -2  -3  13   11.29    2.11   2
   2   3 -11   30.74    2.91   2
  -2  -3  11   47.79    4.16   2
  -2  -3  11   40.86    2.75   2
   2   3 -10   26.04    1.89   2
  -2  -3  10   33.61    3.52   2
  -2  -3  10   26.33    2.10   2
   2   3  -9   10.16    1.23   2
  -2  -3   9   13.42    1.67   2
  -2  -3   9   10.32    1.41   2
   2   3  -8    1.37    1.10   2
  -2  -3   8   -1.91    1.36   2
  -2  -3   8    2.42    1.22   2
   2   3  -7   53.03    2.64   2
  -2  -3   7   61.01    4.26   2
  -2  -3   7   50.58    2.61   2
   2   3  -6   15.27    2.29   2
  -2  -3   6   13.76    2.69   2
  -2  -3   6   11.80    1.41   2
   2   3  -4   67.68    3.07   2
   2   3  -4   70.50    3.21   2
   2   3  -4   67.22    2.34   2
   2   3  -4   63.00    2.34   2
  -2  -3   4    3.92    2.20   2
   2   3  -3   70.94    4.15   2
   2   3  -3   66.00    4.35   2
   2   3  -3   61.07    2.27   2
   2   3  -3   61.62    2.86   2
   2   3  -2   28.35    2.99   2
   2   3  -2   35.16    3.49   2
   2   3  -2   26.52    1.63   2
   2   3  -2   24.89    2.34   2
   2   3  -1   99.03    5.74   2
   2   3  -1  108.86    4.23   2
  -2  -3   1   95.36    3.95   2
  -2  -3   1  102.80    4.06   2
   2   3   0    1.24    2.38   2
   2   3   0    1.48    1.56   2
  -2  -3   0    3.05    1.26   2
  -2  -3   0    0.62    1.40   2
  -2  -3  -1  581.25   28.52   2
  -2  -3  -1  603.22   27.78   2
   2   3   3   -1.65    2.46   2
   2   3   3    0.17    1.31   2
  -2  -3  -3   -1.60    1.12   2
   2   3   4   45.21    2.77   2
   2   3   4   44.05    2.72   2
   2   3   5    5.65    2.72   2
   2   3   5    1.41    2.65   2
   2   3   6   36.08    2.82   2
   2   3   6   36.42    4.19   2
   2   3   7    1.17    2.71   2
   2   3   7   -0.05    1.58   2
   2   3  10   45.69    3.57   2
   2   3  10   43.72    3.63   2
   2   3  11   51.52    3.82   2
   2   3  11   43.57    5.85   2
   2   3  12    6.10    2.22   2
   2   3  12    4.88    2.40   2
   2   3  13  210.87   10.18   2
   2   3  13  194.18   12.93   2
   2   3  14    2.01    2.04   2
   2   3  14    1.99    2.40   2
   2   3  17    4.99    3.86   2
   2   3  17    3.08    4.18   2
   2   3  18   12.39    3.99   2
   2   3  18    7.58    3.16   2
  -2  -4  18   18.31    3.88   2
  -2  -4  17   23.09    4.20   2
  -2  -4  16   15.82    2.46   2
  -2  -4  16   14.75    2.57   2
  -2  -4  15    9.65    3.20   2
  -2  -4  15    5.81    2.11   2
  -2  -4  14    4.63    2.88   2
  -2  -4  14    0.18    1.67   2
   2   4 -12    9.91    1.85   2
  -2  -4  12   21.93    3.90   2
  -2  -4  12   15.82    2.02   2
   2   4 -11   14.88    1.80   2
  -2  -4  11   27.22    2.52   2
  -2  -4  11   19.11    2.07   2
   2   4 -10   18.28    1.75   2
  -2  -4  10   20.59    3.72   2
  -2  -4  10   19.29    2.43   2
   2   4  -9    6.22    1.37   2
  -2  -4   9    7.60    3.14   2
  -2  -4   9    8.40    1.81   2
   2   4  -8   48.75    3.10   2
  -2  -4   8   54.27    4.70   2
  -2  -4   8   50.51    2.68   2
   2   4  -7    1.97    1.06   2
  -2  -4   7    2.60    2.65   2
  -2  -4   7    2.06    1.57   2
   2   4  -5   27.82    2.14   2
  -2  -4   5   30.47    3.75   2
  -2  -4   5   29.33    2.29   2
   2   4  -4   17.45    3.30   2
   2   4  -4   19.89    1.58   2
   2   4  -4   17.95    2.05   2
   2   4  -3   22.86    3.36   2
   2   4  -3   23.21    1.75   2
   2   4  -3   19.82    1.77   2
   2   4  -2    8.95    2.96   2
   2   4  -2   11.21    1.54   2
   2   4  -2    6.00    1.58   2
   2   4  -1   12.59    1.84   2
   2   4  -1   13.18    1.70   2
   2   4  -1   11.97    1.98   2
   2   4   0  168.55    8.76   2
   2   4   0  177.91    7.62   2
  -2  -4   0  161.73    7.04   2
   2   4   2   42.31    2.88   2
   2   4   2   40.56    2.39   2
   2   4   3   19.01    3.23   2
   2   4   3   15.74    1.84   2
   2   4   4   11.80    1.98   2
   2   4   4    6.42    1.80   2
   2   4   5   20.59    3.78   2
   2   4   5   20.14    2.21   2
   2   4   6   28.32    2.69   2
   2   4   6   29.59    3.98   2
   2   4   7   11.42    3.59   2
   2   4   7   13.28    3.32   2
   2   4   9   -3.99    3.10   2
   2   4   9    0.57    1.91   2
   2   4  10   14.97    2.53   2
   2   4  10   16.78    4.21   2
   2   4  11   50.86    3.90   2
   2   4  11   49.71    6.16   2
   2   4  12    3.70    3.76   2
   2   4  12    6.12    4.06   2
   2   4  13  185.05   12.03   2
   2   4  13  157.96   12.11   2
   2   4  14   27.16    3.33   2
   2   4  16    9.53    2.86   2
   2   4  17    3.08    2.24   2
   2   4  17   -2.95    4.10   2
  -2  -5  17   -0.04    3.21   2
  -2  -5  16    2.77    3.40   2
  -2  -5  15    4.29    3.21   2
  -2  -5  14    1.93    2.00   2
  -2  -5  14    6.53    1.74   2
  -2  -5  12   28.06    4.20   2
  -2  -5  12   18.75    2.25   2
   2   5 -11    8.39    2.27   2
  -2  -5  11   10.09    3.99   2
  -2  -5  11   10.94    1.93   2
   2   5 -10    5.35    1.65   2
  -2  -5  10    8.39    2.07   2
   2   5  -9    2.06    1.38   2
  -2  -5   9    5.81    2.95   2
  -2  -5   9    2.47    1.95   2
   2   5  -8   13.47    1.87   2
  -2  -5   8   15.34    3.86   2
  -2  -5   8   13.82    2.21   2
   2   5  -7    5.45    2.08   2
  -2  -5   7    3.84    3.27   2
  -2  -5   7    7.59    2.00   2
   2   5  -4   24.07    3.36   2
   2   5  -4   19.33    2.33   2
   2   5  -4   21.34    1.99   2
   2   5  -3   11.59    1.77   2
   2   5  -3    8.38    1.66   2
   2   5  -3    8.74    1.78   2
   2   5  -2   48.54    4.71   2
   2   5  -2   52.48    3.08   2
   2   5  -2   48.61    3.10   2
   2   5  -1    3.98    2.76   2
   2   5  -1   -0.12    1.47   2
   2   5  -1    3.12    1.91   2
   2   5   0  283.29   12.29   2
   2   5   0  278.53   13.15   2
   2   5   2    2.22    1.74   2
   2   5   2    2.51    2.13   2
   2   5   3   31.69    4.08   2
   2   5   3   33.29    3.45   2
   2   5   4   -3.99    2.58   2
   2   5   4    3.24    2.42   2
   2   5   5   28.81    4.15   2
   2   5   5   20.82    3.79   2
   2   5   6    0.66    2.72   2
   2   5   9   27.60    4.80   2
   2   5   9   19.11    4.50   2
   2   5  10   38.12    5.46   2
   2   5  10   33.54    5.02   2
   2   5  11   -1.68    3.32   2
   2   5  11    2.95    2.24   2
   2   5  12  145.42   10.57   2
   2   5  12  126.11   10.21   2
   2   5  13    2.51    3.69   2
   2   5  13    4.34    4.04   2
   2   5  16   -1.32    3.67   2
   2   5  16   -3.95    2.56   2
  -2  -6  16    9.42    4.01   2
  -2  -6  15    0.90    2.09   2
  -2  -6  13   13.69    3.92   2
  -2  -6  13    8.44    2.13   2
  -2  -6  12    9.18    2.38   2
  -2  -6  12    7.80    2.01   2
  -2  -6  11   18.22    3.97   2
  -2  -6  11   12.76    2.69   2
  -2  -6  10    7.97    2.37   2
  -2  -6  10    3.05    1.75   2
   2   6  -9   11.76    2.03   2
  -2  -6   9   19.00    4.17   2
  -2  -6   9   10.77    2.65   2
   2   6  -8   -0.71    2.01   2
  -2  -6   8    3.72    3.30   2
  -2  -6   8   -2.25    1.50   2
   2   6  -6    9.99    1.83   2
  -2  -6   6   16.19    2.62   2
  -2  -6   6   15.26    2.11   2
   2   6  -5   -1.59    3.17   2
   2   6  -5    5.16    1.47   2
   2   6  -5    0.43    1.64   2
   2   6  -4    5.93    3.38   2
   2   6  -4    9.30    1.85   2
   2   6  -3    9.23    3.34   2
   2   6  -3    8.11    2.07   2
   2   6  -2    6.80    3.17   2
   2   6  -2    3.55    1.91   2
   2   6  -1   80.33    5.96   2
   2   6  -1   76.98    4.61   2
   2   6   1   26.34    2.58   2
   2   6   1   25.56    3.20   2
   2   6   2    9.61    3.41   2
   2   6   2    7.39    1.71   2
   2   6   3   -2.77    2.76   2
   2   6   3    1.89    1.55   2
   2   6   4    6.17    2.17   2
   2   6   4   10.01    2.96   2
   2   6   5   12.52    3.71   2
   2   6   5   14.93    3.37   2
   2   6   6   14.16    3.84   2
   2   6   6    8.62    3.35   2
   2   6   8   -2.99    1.90   2
   2   6   8    3.38    1.91   2
   2   6   9    6.26    2.38   2
   2   6   9    7.90    2.40   2
   2   6  10   23.31    5.01   2
   2   6  10   18.64    4.59   2
   2   6  11   -3.29    3.54   2
   2   6  11    5.79    3.68   2
   2   6  12  110.09    8.94   2
   2   6  12   91.62    6.06   2
   2   6  13   19.94    5.07   2
   2   6  13   26.98    5.04   2
   2   6  15    7.53    4.25   2
   2   6  15    2.26    4.33   2
  -2  -7  15    2.54    2.36   2
  -2  -7  13    8.30    4.49   2
  -2  -7  12   16.31    3.12   2
  -2  -7  11    3.11    3.92   2
  -2  -7  10    2.65    2.30   2
  -2  -7  10    2.23    1.81   2
  -2  -7   9    5.05    3.57   2
  -2  -7   9    2.73    1.85   2
  -2  -7   8   -1.41    3.42   2
  -2  -7   8    2.45    1.69   2
   2   7  -6   22.91    2.85   2
   2   7  -6   15.92    2.41   2
   2   7  -5    3.22    2.14   2
   2   7  -5    2.06    1.87   2
   2   7  -4    0.18    3.39   2
   2   7  -4    2.02    1.69   2
   2   7  -3   20.68    4.73   2
   2   7  -3   24.45    2.92   2
   2   7  -2    3.19    3.29   2
   2   7  -2   -1.31    1.79   2
   2   7  -1  140.16    9.49   2
   2   7  -1  128.99    7.49   2
   2   7   0   11.12    2.92   2
   2   7   1   -2.50    1.79   2
   2   7   1    3.26    2.32   2
   2   7   2   24.41    2.90   2
   2   7   2   25.37    3.45   2
   2   7   3    4.66    3.60   2
   2   7   3    3.86    2.83   2
   2   7   4   15.13    3.92   2
   2   7   4    7.96    3.09   2
   2   7   5   -0.53    3.35   2
   2   7   5    1.38    1.68   2
   2   7   8    9.29    2.57   2
   2   7   8   13.23    4.00   2
   2   7   9   13.85    2.84   2
   2   7   9   14.51    2.73   2
   2   7  10   15.33    3.74   2
   2   7  10   -3.81    2.11   2
   2   7  11   71.58    7.72   2
   2   7  11   65.28    6.97   2
   2   7  12   -3.36    3.92   2
   2   7  12    3.40    2.24   2
  -2  -8  14    6.66    4.39   2
  -2  -8  13    6.19    4.16   2
  -2  -8  12    6.72    2.76   2
  -2  -8  11    3.43    4.03   2
  -2  -8  10    0.85    2.43   2
  -2  -8  10   -0.61    1.76   2
  -2  -8   9    1.64    3.79   2
  -2  -8   9    1.06    1.88   2
   2   8  -7    8.88    2.63   2
   2   8  -7    7.15    2.13   2
   2   8  -6   -2.79    3.57   2
   2   8  -6    3.65    1.89   2
   2   8  -5    7.22    3.79   2
   2   8  -5    6.90    2.03   2
   2   8  -4    9.87    3.77   2
   2   8  -4    1.57    2.22   2
   2   8  -3   -0.30    2.03   2
   2   8  -2   31.23    3.60   2
   2   8  -2   27.90    3.38   2
   2   8   0   21.86    2.85   2
   2   8   0    9.21    2.95   2
   2   8   1    5.77    2.30   2
   2   8   1    2.00    2.78   2
   2   8   2   -1.34    1.90   2
   2   8   2   -0.08    2.79   2
   2   8   3    3.74    2.45   2
   2   8   3    5.02    2.92   2
   2   8   4    4.53    2.31   2
   2   8   4    4.91    1.92   2
   2   8   5   12.42    4.07   2
   2   8   5   12.59    3.58   2
   2   8   7    4.19    3.71   2
   2   8   7    1.34    3.22   2
   2   8   8    6.70    3.98   2
   2   8   8    3.55    2.30   2
   2   8   9   50.59    5.45   2
   2   8   9   12.12    4.70   2
   2   8  10   -3.96    4.07   2
   2   8  10   -6.00    3.63   2
   2   8  11   49.11    6.71   2
   2   8  11   40.52    4.38   2
   2   8  12   19.46    4.72   2
   2   8  12    8.62    4.43   2
  -2  -9  12   -0.75    2.47   2
  -2  -9  11    2.39    4.02   2
  -2  -9  10    4.10    2.91   2
  -2  -9   9    0.62    2.63   2
   2   9  -8    3.31    2.10   2
   2   9  -7    8.88    4.12   2
   2   9  -7    4.14    2.21   2
   2   9  -6    2.36    3.68   2
   2   9  -6    0.43    1.95   2
   2   9  -5    0.90    2.29   2
   2   9  -5    2.80    2.04   2
   2   9  -4   11.90    2.85   2
   2   9  -4    9.66    2.59   2
   2   9  -3    3.46    3.87   2
   2   9  -3   -0.02    1.19   2
   2   9  -2   55.01    7.47   2
   2   9  -2   47.16    3.22   2
   2   9  -1   14.72    3.15   2
   2   9   0    0.87    2.24   2
   2   9   0   -0.45    2.49   2
   2   9   1    6.05    2.75   2
   2   9   1   11.66    3.01   2
   2   9   2    3.66    2.31   2
   2   9   2    1.41    2.76   2
   2   9   3    3.32    2.47   2
   2   9   3    2.61    1.77   2
   2   9   4    6.48    2.33   2
   2   9   4    3.23    3.02   2
   2   9   5    3.17    3.19   2
   2   9   6    3.41    2.53   2
   2   9   6   10.08    3.19   2
   2   9   7    3.19    2.61   2
   2   9   7    4.15    2.17   2
   2   9   8    8.69    2.75   2
   2   9   8   13.96    3.96   2
   2   9   9   -0.29    2.30   2
   2   9   9   -2.26    3.45   2
   2   9  10   23.19    3.51   2
   2   9  10   22.79    3.35   2
   2  10  -8    2.46    2.58   2
   2  10  -7    2.47    3.83   2
   2  10  -7    2.45    2.11   2
   2  10  -6   -2.26    2.36   2
   2  10  -6    3.26    2.14   2
   2  10  -5    4.02    3.96   2
   2  10  -5    1.67    1.47   2
   2  10  -4   -5.16    3.79   2
   2  10  -4    1.24    2.03   2
   2  10  -3    8.20    3.02   2
   2  10  -3   11.76    2.94   2
   2  10  -1    7.08    4.61   2
   2  10  -1    7.03    2.89   2
   2  10   0   -2.92    3.93   2
   2  10   0    3.91    1.69   2
   2  10   1    2.20    3.74   2
   2  10   1   -2.37    2.67   2
   2  10   2    2.80    2.38   2
   2  10   2   -3.27    2.72   2
   2  10   3    2.68    2.55   2
   2  10   3    5.15    1.97   2
   2  10   4    5.43    2.46   2
   2  10   4    2.20    3.26   2
   2  10   6   -1.17    3.76   2
   2  10   6    4.05    3.05   2
   2  10   7    5.39    3.91   2
   2  10   7    1.39    1.91   2
   2  11  -2    2.75    4.25   2
   2  11  -2    1.04    1.79   2
   2  11  -1    2.84    2.63   2
   2  11  -1    3.37    2.71   2
   2  11   0   10.15    4.54   2
   2  11   0    5.48    3.09   2
  -3  12   2    1.64    2.07   2
  -3  12   2   -2.39    3.74   2
  -3  12   1   -2.22    2.31   2
  -3  12   1   -2.57    2.24   2
  -3  12   0   -0.02    2.26   2
  -3  12   0   -0.07    2.31   2
   3 -12   1    4.51    2.40   2
   3 -12   1   -0.53    2.56   2
   3 -12   2   -0.39    3.65   2
   3 -12   2   -1.40    4.05   2
  -3  11   8    0.80    2.90   2
  -3  11   8    5.52    2.64   2
  -3  11   7    1.95    1.79   2
  -3  11   7    7.64    4.00   2
  -3  11   6   10.71    3.81   2
  -3  11   6   15.37    4.90   2
  -3  11   5    6.34    4.22   2
  -3  11   3    5.31    3.22   2
  -3  11   3   -4.07    3.69   2
  -3  11   2    0.68    2.06   2
  -3  11   2   -0.13    2.13   2
  -3  11   1    3.80    2.40   2
  -3  11   1    6.18    2.49   2
   3 -11   0    2.42    2.29   2
   3 -11   1   11.18    2.64   2
   3 -11   1   -0.10    4.80   2
   3 -11   2   10.58    3.97   2
   3 -11   2   -2.47    4.48   2
   3 -11   4    2.21    4.87   2
   3 -11   4   14.39    4.75   2
   3 -11   5    3.22    2.79   2
   3 -11   5    3.98    2.71   2
   3 -11   6   -3.70    4.25   2
   3 -11   6   -3.37    4.19   2
   3 -11   7   32.42    4.53   2
   3 -11   8    3.07    4.83   2
   3 -11   8    3.56    2.30   2
  -3  10  10    5.04    3.03   2
  -3  10  10    9.78    4.35   2
  -3  10   9   13.33    3.40   2
  -3  10   9   18.86    4.83   2
  -3  10   8   -0.50    2.76   2
  -3  10   8   -2.10    2.26   2
  -3  10   7   10.09    3.06   2
  -3  10   7    6.42    2.58   2
  -3  10   6   18.53    3.63   2
  -3  10   6   11.24    2.94   2
  -3  10   5    9.44    2.40   2
  -3  10   5   13.45    2.90   2
  -3  10   3    1.19    3.25   2
  -3  10   3    2.73    2.35   2
  -3  10   2    5.20    2.16   2
  -3  10   2    2.24    2.44   2
   3 -10  -1    2.56    1.94   2
   3 -10  -1   -2.15    2.15   2
   3 -10   0    4.66    2.15   2
   3 -10   0    4.48    2.61   2
   3 -10   1    3.34    2.09   2
   3 -10   1   -0.69    2.38   2
   3 -10   2    4.01    2.44   2
   3 -10   2   -0.30    2.40   2
   3 -10   4    9.00    4.67   2
   3 -10   5    5.19    2.86   2
   3 -10   5    9.39    4.14   2
   3 -10   6    1.95    4.32   2
   3 -10   7   28.21    5.31   2
   3 -10   7   10.43    3.06   2
   3 -10   8    1.93    4.29   2
   3 -10   8   -2.15    3.91   2
   3 -10   9    2.34    2.86   2
   3 -10   9    2.92    3.82   2
   3 -10  10    2.06    5.01   2
   3 -10  10    1.54    2.48   2
   3 -10  11    8.67    3.28   2
   3 -10  11    4.62    4.31   2
  -3   9  13    3.70    4.02   2
  -3   9  11   -3.01    2.35   2
  -3   9  11    4.50    3.54   2
  -3   9  10    3.45    2.47   2
  -3   9  10    0.98    3.89   2
  -3   9   9    7.03    1.77   2
  -3   9   9    9.38    4.29   2
  -3   9   8    5.84    2.70   2
  -3   9   8    7.19    3.72   2
  -3   9   7   18.20    3.27   2
  -3   9   7   14.70    4.09   2
  -3   9   6   29.84    3.93   2
  -3   9   6   27.41    5.31   2
  -3   9   4    2.90    1.71   2
  -3   9   4   -4.57    3.25   2
  -3   9   3   -0.69    3.02   2
  -3   9   3   -4.78    3.73   2
   3  -9  -2    4.14    1.91   2
   3  -9  -2    0.76    2.16   2
   3  -9  -1   -1.69    2.90   2
   3  -9  -1    4.34    2.34   2
   3  -9   0   17.20    4.26   2
   3  -9   0   20.14    3.01   2
   3  -9   1   11.03    3.91   2
   3  -9   1    5.25    2.58   2
   3  -9   3   19.10    3.22   2
   3  -9   3   20.50    3.29   2
   3  -9   4    8.64    2.58   2
   3  -9   4    5.98    2.47   2
   3  -9   5   10.45    4.84   2
   3  -9   5    8.38    2.89   2
   3  -9   6   77.85    9.11   2
   3  -9   6   68.38    7.98   2
   3  -9   7   -8.38    4.10   2
   3  -9   7    2.82    4.09   2
   3  -9   8    7.75    4.53   2
   3  -9   8   -2.51    3.85   2
   3  -9  10    1.84    2.61   2
   3  -9  10    0.47    3.82   2
   3  -9  11    7.65    5.12   2
   3  -9  11    5.74    4.15   2
   3  -9  12    1.89    4.73   2
   3  -9  12   -1.83    3.52   2
   3  -9  13    0.95    3.46   2
   3  -9  13    9.52    4.15   2
  -3   8  15   20.28    4.78   2
  -3   8  14   -2.88    3.65   2
  -3   8  13   37.49    5.82   2
  -3   8  11   17.07    4.71   2
  -3   8  10   33.47    3.64   2
  -3   8  10   33.75    5.48   2
  -3   8   9    0.36    2.13   2
  -3   8   9    3.12    3.55   2
  -3   8   8   17.60    2.87   2
  -3   8   8   12.37    4.14   2
  -3   8   7   40.91    3.85   2
  -3   8   7   35.57    5.29   2
  -3   8   6   16.57    2.99   2
  -3   8   6   18.40    2.79   2
  -3   8   4   -3.33    2.45   2
  -3   8   4    8.67    3.34   2
   3  -8  -3    2.71    1.57   2
   3  -8  -3    1.19    2.12   2
   3  -8  -2    3.30    1.63   2
   3  -8  -2    1.04    3.54   2
   3  -8  -1    5.80    3.18   2
   3  -8  -1   14.52    2.54   2
   3  -8   0    9.52    3.19   2
   3  -8   0    6.12    2.51   2
   3  -8   1    7.36    3.54   2
   3  -8   1    7.54    4.02   2
   3  -8   3    9.37    4.39   2
   3  -8   3   12.63    4.15   2
   3  -8   4   21.57    4.64   2
   3  -8   4   12.46    4.36   2
   3  -8   5   16.39    4.65   2
   3  -8   6   32.73    3.93   2
   3  -8   6   28.74    5.27   2
   3  -8   7    8.53    4.60   2
   3  -8   7    2.51    3.79   2
   3  -8   8    0.45    2.89   2
   3  -8   8    7.51    3.75   2
   3  -8  10    2.24    4.80   2
   3  -8  10    5.68    3.80   2
   3  -8  11    4.34    2.95   2
   3  -8  11    1.65    3.81   2
   3  -8  12   -2.41    4.67   2
   3  -8  13    4.83    4.70   2
   3  -8  13   -3.34    3.50   2
   3  -8  14    2.31    4.32   2
   3  -8  14   -1.94    3.53   2
  -3   7  16    0.76    2.21   2
  -3   7  15    3.62    2.24   2
  -3   7  14    3.62    2.26   2
  -3   7  12    6.62    2.02   2
  -3   7  12    6.36    2.29   2
  -3   7  11    2.46    1.95   2
  -3   7  11    6.88    2.28   2
  -3   7  10   15.31    2.53   2
  -3   7  10   23.21    4.18   2
  -3   7   9    6.78    2.11   2
  -3   7   9    9.81    3.71   2
  -3   7   8   22.01    2.83   2
  -3   7   8   22.76    4.03   2
  -3   7   7   64.54    4.32   2
  -3   7   7   62.55    4.32   2
  -3   7   5    9.26    2.33   2
  -3   7   5   12.35    3.45   2
  -3   7   4    3.94    2.33   2
  -3   7   4    2.28    1.94   2
   3  -7  -3    2.48    1.93   2
   3  -7  -3   -1.53    3.16   2
   3  -7  -2    2.29    2.46   2
   3  -7  -2    5.81    3.47   2
   3  -7  -1   35.41    2.66   2
   3  -7  -1   38.33    3.40   2
   3  -7   0   15.85    3.62   2
   3  -7   0   16.76    4.29   2
   3  -7   2   41.52    5.20   2
   3  -7   2   44.49    3.75   2
   3  -7   3   20.67    4.20   2
   3  -7   3   12.21    4.19   2
   3  -7   4    6.37    4.02   2
   3  -7   4    7.43    3.87   2
   3  -7   5  186.36   13.38   2
   3  -7   6    3.35    2.35   2
   3  -7   6   -1.68    3.25   2
   3  -7   7   -1.51    4.06   2
   3  -7   7   -2.86    3.45   2
   3  -7   9   10.59    2.94   2
   3  -7   9    6.47    2.47   2
   3  -7  10   18.22    5.51   2
   3  -7  10   17.59    4.60   2
   3  -7  11    4.92    4.59   2
   3  -7  12   13.66    3.43   2
   3  -7  13    7.19    3.13   2
   3  -7  13    8.24    4.35   2
   3  -7  14    7.23    2.97   2
   3  -7  14    7.25    4.27   2
  -3   6  17   -1.93    3.47   2
  -3   6  16   10.20    4.17   2
  -3   6  15   -0.12    3.16   2
  -3   6  14   57.64    6.03   2
  -3   6  12   28.30    2.40   2
  -3   6  12   39.55    4.75   2
  -3   6  10    2.12    1.27   2
  -3   6  10    0.17    1.52   2
  -3   6  10    1.97    1.88   2
  -3   6   9    9.71    2.03   2
  -3   6   9   15.65    2.70   2
  -3   6   9   13.79    3.66   2
  -3   6   8   76.71    4.12   2
  -3   6   8   91.30    4.59   2
  -3   6   8   92.47    6.60   2
  -3   6   7   16.63    2.04   2
  -3   6   7   22.14    2.13   2
  -3   6   7   19.35    2.50   2
  -3   6   5    2.76    1.62   2
  -3   6   5    3.15    1.71   2
  -3   6   5    5.29    1.93   2
   3  -6  -4   -0.65    1.07   2
   3  -6  -4    2.33    1.75   2
  -3   6   4    0.40    1.52   2
   3  -6  -3    0.11    1.87   2
   3  -6  -3    3.00    1.81   2
   3  -6  -2   12.74    2.60   2
   3  -6  -2   15.95    3.69   2
   3  -6  -1   16.95    2.81   2
   3  -6  -1   12.82    3.81   2
   3  -6   0    7.02    3.01   2
   3  -6   0    6.51    3.05   2
   3  -6   2   13.24    2.30   2
   3  -6   2   10.20    3.73   2
   3  -6   3   21.04    2.87   2
   3  -6   3   23.85    2.77   2
   3  -6   4   28.52    4.62   2
   3  -6   5   68.28    6.23   2
   3  -6   5   58.08    5.98   2
   3  -6   6   17.03    2.84   2
   3  -6   6   14.68    3.98   2
   3  -6   7    2.02    3.96   2
   3  -6   7    5.45    3.33   2
   3  -6   9   -2.13    2.58   2
   3  -6   9    3.44    2.15   2
   3  -6  10   16.39    4.98   2
   3  -6  10   17.92    4.61   2
   3  -6  11    6.09    4.88   2
   3  -6  12    7.54    4.98   2
   3  -6  12    4.50    2.63   2
   3  -6  13    3.89    3.25   2
   3  -6  13   23.83    4.66   2
   3  -6  14   -3.03    4.24   2
   3  -6  16    0.49    4.47   2
   3  -6  16    0.63    2.44   2
  -3   5  18    7.94    3.59   2
  -3   5  17    6.63    3.57   2
  -3   5  16    2.89    3.48   2
  -3   5  15   -1.03    3.15   2
  -3   5  13   12.74    3.59   2
   3  -5 -12    0.60    1.25   2
  -3   5  12    2.17    1.59   2
  -3   5  12    2.81    2.79   2
  -3   5  10   11.52    1.70   2
  -3   5  10   13.67    1.99   2
  -3   5  10    9.52    3.38   2
  -3   5   9   21.57    1.70   2
  -3   5   9   25.19    1.85   2
  -3   5   9   27.17    3.71   2
  -3   5   8  108.76    4.58   2
  -3   5   8  124.64    4.99   2
  -3   5   8  117.73    7.19   2
  -3   5   6   17.31    1.69   2
  -3   5   6   17.53    1.77   2
  -3   5   6   20.03    3.49   2
  -3   5   5    6.49    1.84   2
  -3   5   5    6.13    1.50   2
  -3   5   5    0.89    2.69   2
   3  -5  -4    2.69    1.53   2
   3  -5  -4    4.85    1.74   2
  -3   5   4    5.31    1.44   2
   3  -5  -3    8.87    1.92   2
   3  -5  -3   10.87    1.92   2
  -3   5   3    9.87    1.78   2
   3  -5  -2   68.34    4.10   2
   3  -5  -2   75.91    5.74   2
  -3   5   2   66.88    3.96   2
   3  -5  -1   32.73    2.21   2
   3  -5  -1   36.77    3.96   2
  -3   5   1   30.87    1.98   2
   3  -5   1   63.92    4.97   2
   3  -5   1   60.92    3.68   2
   3  -5   2   40.75    4.38   2
   3  -5   2   39.24    4.61   2
   3  -5   3    3.60    3.29   2
   3  -5   3    8.73    3.23   2
   3  -5   4  364.87   20.37   2
   3  -5   5   -0.98    1.90   2
   3  -5   5    1.88    1.68   2
   3  -5   6    0.45    3.53   2
   3  -5   6    2.46    2.03   2
   3  -5   8   41.59    5.81   2
   3  -5   8   32.57    3.49   2
   3  -5   9   46.99    6.54   2
   3  -5   9   43.54    5.45   2
   3  -5  10   13.22    4.47   2
   3  -5  10    6.39    2.45   2
   3  -5  11   24.52    5.58   2
   3  -5  12   27.87    5.99   2
   3  -5  12   22.84    3.42   2
   3  -5  13   18.19    4.90   2
   3  -5  13    1.17    4.19   2
   3  -5  15    0.37    4.91   2
   3  -5  15    6.51    2.51   2
   3  -5  16   15.45    4.96   2
   3  -5  16   13.44    3.09   2
   3  -5  17   -4.89    4.37   2
   3  -5  17    5.92    3.77   2
  -3   4  18    2.55    2.83   2
  -3   4  17   14.19    3.72   2
  -3   4  16    1.36    2.88   2
  -3   4  15   45.57    5.16   2
  -3   4  13   47.83    4.91   2
   3  -4 -12   75.06    3.58   2
  -3   4  12   85.00    3.65   2
  -3   4  12   91.77    6.16   2
   3  -4 -11   -0.51    0.72   2
  -3   4  11    2.47    1.11   2
  -3   4  11    0.82    1.49   2
   3  -4 -10   11.07    1.02   2
  -3   4  10   15.02    1.39   2
  -3   4  10   14.56    3.03   2
  -3   4   9  150.03    5.68   2
  -3   4   9  155.99    5.62   2
  -3   4   9  172.39    7.21   2
  -3   4   8   19.28    1.54   2
  -3   4   8   18.02    1.53   2
  -3   4   8   23.87    3.19   2
  -3   4   6   11.94    1.49   2
  -3   4   6   13.86    1.53   2
  -3   4   6   14.62    2.76   2
  -3   4   5    2.09    1.00   2
  -3   4   5    2.72    1.29   2
  -3   4   5    6.24    2.33   2
   3  -4  -4    6.96    1.24   2
   3  -4  -4    7.22    2.67   2
  -3   4   4    8.78    1.32   2
   3  -4  -3   21.88    1.87   2
   3  -4  -3   16.10    3.01   2
  -3   4   3   18.84    1.80   2
   3  -4  -2   28.84    2.49   2
   3  -4  -2   33.71    2.46   2
  -3   4   2   27.50    2.26   2
   3  -4  -1   29.49    2.84   2
   3  -4  -1   29.20    3.81   2
  -3   4   1   25.37    2.40   2
   3  -4   1   25.72    3.63   2
   3  -4   1   28.01    3.71   2
  -3   4  -1   26.75    2.76   2
   3  -4   2   39.44    4.07   2
   3  -4   2   33.84    3.79   2
  -3   4  -2   36.48    3.36   2
   3  -4   3   52.56    5.21   2
   3  -4   3   50.23    3.35   2
   3  -4   4  127.00    8.38   2
   3  -4   4  134.79    8.19   2
   3  -4   5   34.30    3.05   2
   3  -4   5   28.71    4.06   2
   3  -4   6   -2.45    3.00   2
   3  -4   8   11.09    4.07   2
   3  -4   8   13.09    3.84   2
   3  -4   9   28.19    3.38   2
   3  -4   9   24.05    2.94   2
   3  -4  10   19.46    3.29   2
   3  -4  10   21.59    4.23   2
   3  -4  11    7.74    2.59   2
   3  -4  11    7.40    2.48   2
   3  -4  12   27.60    3.42   2
   3  -4  12   27.38    5.37   2
   3  -4  13    8.19    4.53   2
   3  -4  15    8.22    4.59   2
   3  -4  15    4.36    2.69   2
   3  -4  16   61.57    7.90   2
   3  -4  16   54.78    5.01   2
   3  -4  17   -0.38    2.51   2
   3  -4  17   -3.42    4.00   2
  -3   3  19    7.06    3.32   2
  -3   3  18    2.29    2.08   2
  -3   3  17    1.09    3.15   2
  -3   3  16    3.63    2.99   2
  -3   3  14   17.23    3.78   2
   3  -3 -13   -0.77    0.99   2
  -3   3  13   -1.59    1.20   2
  -3   3  13   -0.93    1.62   2
   3  -3 -12   25.30    1.69   2
  -3   3  12   30.85    1.96   2
  -3   3  12   32.15    3.52   2
   3  -3 -11   12.58    1.14   2
  -3   3  11   12.51    1.21   2
  -3   3  11   13.56    2.76   2
   3  -3 -10   17.35    1.02   2
  -3   3  10   20.27    1.23   2
  -3   3  10   18.53    2.00   2
  -3   3   7   34.47    1.25   2
  -3   3   7   29.95    1.02   2
  -3   3   7   33.80    3.04   2
  -3   3   6   12.68    0.84   2
  -3   3   6   11.00    0.76   2
  -3   3   6   13.55    1.34   2
  -3   3   6   13.07    1.53   2
  -3   3   5   30.65    1.41   2
  -3   3   5   28.63    1.31   2
  -3   3   5   27.89    1.77   2
  -3   3   5   33.59    2.97   2
   3  -3  -4   18.41    1.39   2
   3  -3  -4   17.01    1.74   2
  -3   3   4   21.20    1.46   2
  -3   3   4   20.12    1.60   2
   3  -3  -3  121.84    4.19   2
   3  -3  -3  120.13    4.84   2
  -3   3   3  129.80    4.86   2
  -3   3   3  126.24    6.03   2
   3  -3  -2   62.75    2.95   2
   3  -3  -2   68.47    4.61   2
  -3   3   2   63.45    3.52   2
  -3   3   2   60.83    3.65   2
   3  -3   0   92.96    5.12   2
   3  -3   0   87.59    3.98   2
  -3   3   0   98.77    4.64   2
  -3   3   0   88.39    4.58   2
   3  -3   1   95.38    3.82   2
   3  -3   1   87.94    5.59   2
  -3   3  -1   95.44    4.78   2
  -3   3  -1   93.10    3.94   2
   3  -3   2    6.63    1.68   2
   3  -3   2    2.01    2.88   2
  -3   3  -2    5.50    2.16   2
  -3   3  -2    6.88    1.26   2
   3  -3   3  599.77   28.91   2
   3  -3   3  590.29   26.15   2
  -3   3  -3  560.29   25.53   2
   3  -3   4    1.22    1.74   2
   3  -3   4    4.13    2.86   2
   3  -3   5   -1.32    2.83   2
   3  -3   5    0.59    2.79   2
   3  -3   7   83.93    6.61   2
   3  -3   7   80.75    6.83   2
   3  -3   8   82.58    7.07   2
   3  -3   8   85.44    7.01   2
   3  -3   9   19.52    4.61   2
   3  -3  10   38.03    5.25   2
   3  -3  10   35.17    5.44   2
   3  -3  11   73.23    5.00   2
   3  -3  11   65.90    6.85   2
   3  -3  12   14.86    2.87   2
   3  -3  12   12.47    4.37   2
   3  -3  14   -0.17    3.91   2
   3  -3  14    6.40    2.43   2
   3  -3  15   23.51    5.68   2
   3  -3  15   22.33    3.39   2
   3  -3  16    5.22    2.76   2
   3  -3  16    6.42    2.55   2
   3  -3  17    2.38    4.02   2
   3  -3  17   -0.96    2.28   2
   3  -3  18    3.22    4.38   2
   3  -3  18    5.84    2.74   2
  -3   2  18    6.91    3.10   2
  -3   2  17    2.60    1.59   2
  -3   2  16   45.36    4.80   2
  -3   2  14   33.68    2.01   2
  -3   2  14   39.69    3.66   2
   3  -2 -13   77.15    3.01   2
  -3   2  13   89.99    3.45   2
  -3   2  13  101.95    5.99   2
   3  -2 -12    0.05    0.92   2
  -3   2  12    0.54    0.78   2
  -3   2  12    0.79    1.26   2
   3  -2 -11    7.45    0.94   2
  -3   2  11    8.25    1.15   2
  -3   2  11   10.09    2.38   2
   3  -2 -10  179.22    5.17   2
  -3   2  10  189.02    5.73   2
  -3   2  10  211.18    7.77   2
   3  -2  -9   16.66    0.67   2
   3  -2  -9   16.78    2.05   2
  -3   2   9   19.92    2.42   2
  -3   2   8    2.19    1.05   2
  -3   2   7   19.51    1.97   2
  -3   2   7   20.45    2.16   2
  -3   2   6   14.71    1.78   2
  -3   2   6   14.80    1.97   2
  -3   2   5   15.82    1.72   2
  -3   2   5   11.60    1.21   2
   3  -2  -4   27.13    0.96   2
   3  -2  -4   22.78    2.41   2
  -3   2   4   24.20    0.89   2
  -3   2   4   26.10    1.50   2
   3  -2  -3   44.46    2.15   2
   3  -2  -3   45.82    3.23   2
  -3   2   3   45.41    1.97   2
  -3   2   3   46.17    2.03   2
   3  -2  -2   60.56    2.69   2
   3  -2  -2   57.98    3.81   2
  -3   2   2   63.99    2.56   2
  -3   2   2   56.18    2.43   2
   3  -2   0   37.31    3.20   2
   3  -2   0   37.59    3.35   2
  -3   2   0   38.95    2.74   2
  -3   2   0   42.77    2.19   2
   3  -2   1   39.66    3.57   2
   3  -2   1   35.91    2.47   2
  -3   2  -1   39.64    3.04   2
  -3   2  -1   41.79    3.22   2
   3  -2   2   62.99    3.08   2
   3  -2   2   63.87    3.34   2
  -3   2  -2   61.81    2.97   2
  -3   2  -2   66.74    3.92   2
   3  -2   3  170.99    7.02   2
   3  -2   3  206.96    9.74   2
  -3   2  -3  173.30    6.89   2
  -3   2  -3  187.56    8.61   2
   3  -2   4   58.01    3.41   2
   3  -2   4   67.73    3.63   2
  -3   2  -4   61.99    4.13   2
   3  -2   5    5.77    1.88   2
   3  -2   7   26.18    4.40   2
   3  -2   7   31.60    4.29   2
   3  -2   8   44.77    5.19   2
   3  -2   8   37.32    3.06   2
   3  -2   9   44.45    5.76   2
   3  -2   9   49.43    5.08   2
   3  -2  10   16.72    2.71   2
   3  -2  10    4.86    3.96   2
   3  -2  11   78.51    6.91   2
   3  -2  11   69.93    4.70   2
   3  -2  14    0.25    4.07   2
   3  -2  14    5.25    2.57   2
   3  -2  15   85.85    7.98   2
   3  -2  15   73.35    5.72   2
   3  -2  16    4.03    2.63   2
   3  -2  16    5.54    2.60   2
   3  -2  17    2.39    3.53   2
   3  -2  17   -1.78    2.38   2
   3  -2  18    6.73    2.74   2
   3  -2  18    1.82    4.34   2
  -3   1  19   -4.72    2.76   2
  -3   1  18    1.94    2.56   2
  -3   1  17   -0.31    2.31   2
  -3   1  15   26.02    3.29   2
   3  -1 -14    1.12    0.98   2
  -3   1  14   -0.91    1.67   2
  -3   1  14    0.96    2.10   2
   3  -1 -13   22.27    1.65   2
  -3   1  13   27.76    1.88   2
  -3   1  13   32.38    3.13   2
   3  -1 -12   14.38    1.58   2
  -3   1  12   13.77    1.77   2
  -3   1  12   11.70    2.27   2
   3  -1 -11    9.21    1.01   2
   3  -1 -11   12.42    1.65   2
  -3   1  11    9.75    1.41   2
  -3   1  11   13.44    2.11   2
   3  -1 -10  144.13    5.01   2
   3  -1 -10  153.04    6.60   2
  -3   1  10  152.50    4.96   2
  -3   1  10  170.35    7.01   2
   3  -1  -8   37.86    2.65   2
  -3   1   8   35.37    1.32   2
  -3   1   8   41.18    2.40   2
   3  -1  -7   22.00    0.69   2
   3  -1  -7   23.61    0.78   2
  -3   1   7   26.45    1.76   2
  -3   1   7   25.43    1.86   2
   3  -1  -5   17.85    0.63   2
   3  -1  -5   19.64    0.70   2
  -3   1   5   18.47    1.33   2
  -3   1   5   19.47    1.54   2
   3  -1  -4  158.36    4.38   2
   3  -1  -4  147.65    5.24   2
  -3   1   4  164.73    4.47   2
  -3   1   4  150.91    5.20   2
   3  -1  -3   76.33    2.59   2
   3  -1  -3   76.42    3.43   2
  -3   1   3   82.80    2.96   2
  -3   1   3   81.57    3.18   2
   3  -1  -1  126.21    5.00   2
   3  -1  -1  119.64    5.23   2
  -3   1   1  118.46    4.49   2
  -3   1   1  116.93    3.97   2
   3  -1   0  181.87    7.42   2
   3  -1   0  182.37    6.46   2
  -3   1   0  176.22    5.89   2
  -3   1   0  190.26    7.49   2
   3  -1   1    4.19    2.34   2
   3  -1   1    1.37    2.19   2
  -3   1  -1    3.02    1.09   2
  -3   1  -1    4.62    1.85   2
   3  -1   2  784.20   37.59   2
   3  -1   2  780.69   37.81   2
  -3   1  -2  798.00   37.70   2
  -3   1  -2  801.31   36.39   2
   3  -1   3    0.40    1.42   2
   3  -1   3   -1.54    1.29   2
  -3   1  -3    1.02    2.00   2
  -3   1  -3    1.01    1.87   2
   3  -1   4   -5.02    2.35   2
   3  -1   4    5.50    1.52   2
  -3   1  -4    4.11    2.15   2
  -3   1  -4    1.43    1.19   2
   3  -1   6  165.31    9.89   2
   3  -1   7  109.56    5.32   2
   3  -1   7  115.00    7.55   2
   3  -1   8   34.77    4.35   2
   3  -1   8   34.69    3.04   2
   3  -1   9   43.71    3.70   2
   3  -1   9   40.51    3.42   2
   3  -1  10  147.04   10.03   2
   3  -1  10  155.88   10.13   2
   3  -1  11   14.49    2.53   2
   3  -1  11   10.95    4.44   2
   3  -1  13    7.74    4.01   2
   3  -1  14   25.55    4.63   2
   3  -1  14   26.16    3.52   2
   3  -1  15    5.18    4.21   2
   3  -1  15   13.47    2.98   2
   3  -1  16    6.14    4.02   2
   3  -1  16    6.00    2.75   2
   3  -1  17    5.75    3.87   2
   3  -1  17    5.90    4.57   2
   3  -1  18    0.32    3.99   2
  -3   0  18   -0.19    2.04   2
  -3   0  17   23.81    3.02   2
  -3   0  15   15.00    2.10   2
  -3   0  15   15.79    2.56   2
   3   0 -14   46.74    3.61   2
  -3   0  14   69.00    4.13   2
  -3   0  14   74.32    4.31   2
   3   0 -13    0.77    1.12   2
  -3   0  13   -0.15    1.42   2
  -3   0  13    3.21    1.64   2
   3   0 -12    1.88    1.12   2
   3   0 -12    3.56    1.52   2
  -3   0  12    6.09    1.39   2
  -3   0  12    3.75    1.54   2
   3   0 -11  132.80    5.41   2
   3   0 -11  142.39    5.87   2
  -3   0  11  150.08    5.78   2
  -3   0  11  155.24    6.05   2
   3   0 -10   10.06    1.16   2
   3   0 -10    8.24    1.32   2
  -3   0  10   12.92    1.89   2
  -3   0  10   10.07    1.59   2
   3   0  -8   23.47    1.36   2
   3   0  -8   25.93    1.39   2
  -3   0   8   24.16    1.73   2
  -3   0   8   24.03    1.83   2
   3   0  -7   24.93    1.65   2
  -3   0   7   21.45    0.97   2
  -3   0   7   27.54    1.66   2
   3   0  -6   12.90    1.31   2
   3   0  -6   11.45    1.39   2
  -3   0   6   12.25    0.87   2
  -3   0   6   12.46    1.14   2
   3   0  -5   13.60    1.02   2
   3   0  -5   16.57    1.52   2
  -3   0   5   16.12    1.10   2
  -3   0   5   15.36    1.00   2
   3   0  -4   38.61    1.89   2
   3   0  -4   37.54    1.58   2
  -3   0   4   39.44    1.81   2
  -3   0   4   42.32    1.67   2
   3   0  -3   85.77    3.56   2
   3   0  -3   97.75    3.44   2
  -3   0   3   95.22    4.25   2
  -3   0   3   97.15    3.37   2
   3   0  -1   40.98    3.13   2
   3   0  -1   49.70    2.63   2
  -3   0   1   47.02    2.84   2
  -3   0   1   49.12    2.42   2
   3   0   0   30.07    3.11   2
   3   0   0   31.19    2.55   2
  -3   0   0   35.02    2.67   2
  -3   0   0   30.83    2.31   2
   3   0   1   61.66    4.23   2
   3   0   1   58.84    3.78   2
  -3   0  -1   56.71    3.57   2
  -3   0  -1   55.14    3.52   2
   3   0   2  184.90    7.13   2
   3   0   2  201.83    8.83   2
  -3   0  -2  186.07    8.29   2
  -3   0  -2  198.68    8.21   2
   3   0   3   84.02    4.02   2
   3   0   3   91.97    5.14   2
  -3   0  -3   92.87    5.03   2
  -3   0  -3   94.27    4.99   2
   3   0   4   12.46    2.11   2
  -3   0  -4   13.22    1.62   2
  -3   0  -4   12.53    1.56   2
   3   0   6   44.71    3.11   2
   3   0   6   51.76    4.68   2
   3   0   7   40.20    4.47   2
   3   0   7   39.79    4.23   2
   3   0   8   74.62    5.94   2
   3   0   8   64.30    5.62   2
   3   0   9   10.59    2.18   2
   3   0   9   11.83    3.67   2
   3   0  10  121.73    6.18   2
   3   0  10  136.96    8.97   2
   3   0  11   30.05    4.73   2
   3   0  13    6.12    3.99   2
   3   0  14   88.05    7.97   2
   3   0  14   75.15    5.55   2
   3   0  15    7.89    2.61   2
   3   0  15    0.76    4.32   2
   3   0  16   -3.12    3.85   2
   3   0  16   -0.98    4.14   2
   3   0  17    9.58    2.71   2
   3   0  17    7.29    4.79   2
  -3  -1  16   13.45    2.50   2
  -3  -1  16   16.20    2.46   2
  -3  -1  15    0.62    1.86   2
  -3  -1  15    2.63    1.78   2
  -3  -1  14   21.75    2.49   2
  -3  -1  14   19.57    2.30   2
   3   1 -13    7.13    1.54   2
  -3  -1  13    9.59    2.08   2
  -3  -1  13   14.12    1.87   2
   3   1 -12    3.50    1.52   2
  -3  -1  12    2.74    1.83   2
  -3  -1  12    3.74    1.85   2
   3   1 -11   89.06    4.44   2
   3   1 -11   97.47    4.70   2
  -3  -1  11  102.53    4.71   2
  -3  -1  11  108.01    4.21   2
   3   1  -9   21.96    1.88   2
   3   1  -9   25.93    1.38   2
  -3  -1   9   25.37    2.11   2
  -3  -1   9   28.18    1.81   2
   3   1  -8   30.52    2.10   2
   3   1  -8   28.07    1.23   2
  -3  -1   8   32.62    2.78   2
  -3  -1   8   34.24    1.52   2
   3   1  -7   70.26    3.08   2
   3   1  -7   17.87    0.75   2
  -3  -1   7   76.38    2.69   2
  -3  -1   7   71.49    1.91   2
   3   1  -6   13.52    1.54   2
   3   1  -6   16.63    1.65   2
   3   1  -5   92.78    3.69   2
   3   1  -5  100.56    4.30   2
   3   1  -4   41.81    2.43   2
   3   1  -4   38.28    2.57   2
   3   1  -2   63.96    3.89   2
   3   1  -2   62.86    2.35   2
  -3  -1   2   65.08    3.61   2
  -3  -1   2   66.11    2.43   2
   3   1  -1  137.18    6.67   2
   3   1  -1  155.90    5.34   2
  -3  -1   1  151.18    6.27   2
  -3  -1   1  147.79    5.57   2
   3   1   0    4.54    2.33   2
   3   1   0    3.05    1.64   2
  -3  -1   0    5.00    1.81   2
  -3  -1   0    3.61    1.36   2
   3   1   1  494.30   22.15   2
   3   1   1  477.00   20.32   2
  -3  -1  -1  492.52   21.44   2
  -3  -1  -1  491.17   20.26   2
   3   1   2   -0.87    1.44   2
   3   1   2    3.35    1.89   2
  -3  -1  -2    0.07    1.11   2
  -3  -1  -2    0.68    1.50   2
   3   1   3    5.03    1.68   2
   3   1   3    0.12    2.25   2
  -3  -1  -3    1.00    1.81   2
  -3  -1  -3    1.27    1.06   2
   3   1   5  302.51   13.45   2
   3   1   5  196.06   11.41   2
   3   1   6  123.20    7.51   2
   3   1   6  118.69    7.42   2
   3   1   7   48.93    4.86   2
   3   1   7   49.40    4.92   2
   3   1   8   38.10    4.55   2
   3   1   8   39.79    4.58   2
   3   1   9  219.22   12.06   2
   3   1   9  212.85    9.76   2
   3   1  10   15.26    2.73   2
   3   1  12    8.01    4.23   2
   3   1  13   20.50    4.71   2
   3   1  13   16.92    3.21   2
   3   1  14   14.00    4.14   2
   3   1  14    9.90    4.89   2
   3   1  15    1.83    2.30   2
   3   1  15    6.69    4.05   2
   3   1  16    2.05    3.90   2
   3   1  16    3.50    2.59   2
   3   1  17    4.23    4.36   2
  -3  -2  16    8.30    2.46   2
  -3  -2  16    6.32    2.36   2
  -3  -2  15   50.16    3.83   2
  -3  -2  15   34.15    3.50   2
  -3  -2  14    3.07    2.23   2
  -3  -2  14    2.11    1.47   2
   3   2 -13    2.15    1.18   2
  -3  -2  13    6.62    2.02   2
  -3  -2  13    2.42    1.32   2
   3   2 -12   61.56    3.15   2
  -3  -2  12   81.91    4.62   2
  -3  -2  12   75.57    3.96   2
   3   2 -11    4.56    0.99   2
  -3  -2  11    8.06    2.24   2
  -3  -2  11    4.15    1.45   2
   3   2  -9   19.90    2.13   2
   3   2  -9   19.49    1.10   2
  -3  -2   9   24.07    2.64   2
  -3  -2   9   21.20    1.29   2
   3   2  -8   19.33    2.01   2
   3   2  -8   17.26    0.60   2
  -3  -2   8   23.89    2.41   2
  -3  -2   8   18.25    0.74   2
   3   2  -7    9.18    1.70   2
  -3  -2   7    8.62    1.37   2
   3   2  -6    5.13    1.68   2
   3   2  -6    6.68    1.14   2
   3   2  -5   21.79    1.42   2
   3   2  -5   22.17    2.51   2
   3   2  -4   90.72    4.19   2
   3   2  -4   87.49    4.55   2
   3   2  -4   79.58    1.90   2
   3   2  -4   95.40    2.33   2
   3   2  -2   39.18    3.61   2
   3   2  -2   44.24    1.96   2
  -3  -2   2   39.07    2.22   2
  -3  -2   2   43.93    2.24   2
   3   2  -1   21.00    2.76   2
   3   2  -1   16.80    1.75   2
  -3  -2   1   15.78    1.57   2
  -3  -2   1   17.66    1.36   2
   3   2   0   30.43    3.33   2
   3   2   0   30.42    2.51   2
  -3  -2   0   25.41    1.89   2
  -3  -2   0   27.34    2.01   2
   3   2   1  105.07    4.72   2
   3   2   1  121.50    5.49   2
  -3  -2  -1  101.41    4.25   2
  -3  -2  -1  104.20    4.60   2
   3   2   2   69.41    5.38   2
   3   2   2   65.73    4.43   2
  -3  -2  -2   65.28    3.77   2
   3   2   3   11.54    2.00   2
   3   2   5   43.72    4.70   2
   3   2   5   38.42    4.01   2
   3   2   6   21.84    2.47   2
   3   2   6   23.61    2.35   2
   3   2   7   74.86    4.29   2
   3   2   7   81.07    5.84   2
   3   2   8   12.69    2.37   2
   3   2   8    9.87    3.58   2
   3   2   9  165.66    7.66   2
   3   2   9  160.37    7.95   2
   3   2  10   29.29    3.20   2
   3   2  12   17.27    4.36   2
   3   2  12   14.44    3.02   2
   3   2  13   46.39    5.83   2
   3   2  13   43.45    6.51   2
   3   2  14   21.00    4.25   2
   3   2  14    5.29    4.70   2
   3   2  15    5.67    2.30   2
   3   2  15    2.61    2.61   2
   3   2  16   11.78    2.89   2
   3   2  16   11.02    4.82   2
  -3  -3  17   10.71    3.14   2
  -3  -3  16    4.91    2.39   2
  -3  -3  15   14.98    1.98   2
  -3  -3  14    8.28    2.57   2
  -3  -3  14    7.60    1.54   2
  -3  -3  13    2.15    1.48   2
  -3  -3  13   -0.33    1.14   2
   3   3 -12   33.18    2.54   2
  -3  -3  12   46.48    4.04   2
  -3  -3  12   41.49    2.36   2
   3   3 -10   14.06    1.27   2
  -3  -3  10   21.11    2.97   2
  -3  -3  10   13.38    1.38   2
  -3  -3   9   29.83    3.32   2
  -3  -3   9   22.53    1.39   2
  -3  -3   8   55.64    4.02   2
  -3  -3   8   41.27    1.53   2
   3   3  -7    7.79    0.48   2
  -3  -3   7    2.73    1.48   2
   3   3  -6   57.23    2.87   2
   3   3  -6   54.66    1.43   2
   3   3  -6   49.19    1.57   2
   3   3  -5   20.27    2.64   2
   3   3  -5   13.76    1.00   2
   3   3  -3   27.02    3.39   2
   3   3  -3   25.70    1.66   2
   3   3  -3   29.19    1.52   2
   3   3  -2   77.17    4.82   2
   3   3  -2   81.33    3.87   2
  -3  -3   2   71.85    2.88   2
   3   3  -1    0.95    2.58   2
   3   3  -1    4.46    1.47   2
  -3  -3   1    1.66    1.14   2
   3   3   0  181.92    9.42   2
   3   3   0  190.48    7.93   2
  -3  -3   0  182.03    7.46   2
   3   3   1    3.97    1.50   2
   3   3   1    1.94    1.80   2
  -3  -3  -1   -0.31    0.96   2
   3   3   2   -1.05    2.56   2
   3   3   2   -2.14    1.91   2
  -3  -3  -2    1.02    0.93   2
   3   3   4  105.55    7.27   2
   3   3   4  122.27    7.10   2
   3   3   5   82.80    5.91   2
   3   3   5   67.80    5.43   2
   3   3   6   34.14    4.69   2
   3   3   6   42.31    4.57   2
   3   3   7   14.09    2.44   2
   3   3   7   19.45    3.84   2
   3   3   8  194.55    9.16   2
   3   3   8  203.64   11.61   2
   3   3   9   13.65    2.85   2
   3   3   9   20.43    2.90   2
   3   3  11    9.07    2.43   2
   3   3  12    7.37    2.51   2
   3   3  12    4.94    3.99   2
   3   3  13   17.99    4.59   2
   3   3  13   11.92    3.04   2
   3   3  14    8.80    4.05   2
   3   3  14    2.40    4.36   2
   3   3  15    8.90    4.70   2
   3   3  16    1.24    4.28   2
  -3  -4  17    0.70    2.76   2
  -3  -4  16   18.49    2.52   2
  -3  -4  15    2.99    2.92   2
  -3  -4  14    2.43    2.69   2
  -3  -4  13   35.76    2.83   2
  -3  -4  13   25.97    2.34   2
  -3  -4  12    2.38    2.88   2
  -3  -4  12    2.96    1.05   2
   3   4 -10   10.85    1.37   2
  -3  -4  10   24.56    3.41   2
  -3  -4  10   13.12    1.39   2
   3   4  -9    9.15    1.18   2
  -3  -4   9   14.23    1.99   2
  -3  -4   9    9.23    1.11   2
   3   4  -8    5.97    1.10   2
  -3  -4   8    7.93    1.89   2
   3   4  -7    3.36    1.59   2
   3   4  -7    2.69    0.78   2
   3   4  -7    4.95    0.96   2
   3   4  -6   17.32    2.91   2
   3   4  -6   11.25    1.30   2
   3   4  -6    7.55    1.23   2
   3   4  -5   55.50    4.58   2
   3   4  -5   58.18    2.75   2
   3   4  -5   56.71    2.62   2
   3   4  -3   29.24    2.23   2
   3   4  -3   24.77    2.02   2
   3   4  -3   28.37    1.89   2
   3   4  -2    8.02    2.63   2
   3   4  -2    3.44    0.80   2
   3   4  -2    9.64    1.54   2
   3   4  -1    7.04    3.16   2
   3   4  -1   12.05    1.94   2
  -3  -4   1   11.23    1.67   2
   3   4   0   37.26    2.96   2
   3   4   0   45.85    3.32   2
  -3  -4   0   37.93    2.07   2
   3   4   1   36.15    4.05   2
   3   4   1   40.12    3.33   2
   3   4   4   14.28    3.75   2
   3   4   4   23.89    2.29   2
   3   4   5    7.61    2.17   2
   3   4   5    8.62    2.96   2
   3   4   6   54.70    3.97   2
   3   4   6   58.53    3.86   2
   3   4   7    5.23    2.23   2
   3   4   7    8.17    3.39   2
   3   4   8  134.43    9.50   2
   3   4   8  133.77    9.43   2
   3   4  11    5.83    4.27   2
   3   4  11   14.18    4.43   2
   3   4  12   14.59    4.93   2
   3   4  12   23.00    5.08   2
   3   4  13   11.52    4.50   2
   3   4  13    9.32    4.55   2
   3   4  14    2.19    2.46   2
   3   4  14    3.08    2.44   2
   3   4  15    7.69    2.87   2
   3   4  15   11.86    4.61   2
  -3  -5  17    4.41    3.07   2
  -3  -5  16   12.76    2.40   2
  -3  -5  15    0.71    2.97   2
  -3  -5  14   -0.62    2.97   2
  -3  -5  13   16.61    3.90   2
  -3  -5  11   10.71    3.11   2
  -3  -5  11    4.76    1.33   2
   3   5 -10   10.44    1.81   2
  -3  -5  10   21.69    2.44   2
  -3  -5  10   12.47    1.74   2
   3   5  -9   21.94    2.15   2
  -3  -5   9   38.93    4.48   2
  -3  -5   9   20.98    1.57   2
   3   5  -8    2.84    1.11   2
  -3  -5   8   -3.31    1.69   2
   3   5  -7   29.34    3.81   2
   3   5  -7   24.97    1.88   2
   3   5  -7   22.53    1.97   2
   3   5  -6    8.50    2.98   2
   3   5  -6    6.06    1.49   2
   3   5  -6    5.95    1.56   2
   3   5  -4    6.56    3.50   2
   3   5  -4   16.12    1.60   2
   3   5  -4   12.11    1.64   2
   3   5  -3   36.12    4.38   2
   3   5  -3   31.58    2.29   2
   3   5  -3   32.55    2.39   2
   3   5  -2    1.33    1.75   2
   3   5  -2    2.19    1.43   2
   3   5  -2    4.37    1.61   2
   3   5  -1   49.55    3.31   2
   3   5  -1   13.48    1.69   2
   3   5  -1   51.47    3.45   2
   3   5   0    1.53    2.82   2
   3   5   0    2.54    1.82   2
   3   5   1   -1.80    2.62   2
   3   5   1    0.59    1.95   2
   3   5   3   55.04    3.58   2
   3   5   3   46.66    4.43   2
   3   5   4   39.11    4.89   2
   3   5   4   35.07    4.24   2
   3   5   5   31.96    4.66   2
   3   5   5   28.60    4.09   2
   3   5   6    8.43    3.64   2
   3   5   6    6.08    3.35   2
   3   5   7  133.17    7.25   2
   3   5   7  133.13    8.85   2
   3   5   8    9.92    2.57   2
   3   5   8    8.55    2.32   2
   3   5  10    9.62    2.74   2
   3   5  10    8.50    2.57   2
   3   5  11    4.08    2.24   2
   3   5  11   -0.19    3.81   2
   3   5  12    4.38    2.70   2
   3   5  12    3.66    2.54   2
   3   5  13    7.08    2.75   2
   3   5  13   -0.91    4.22   2
   3   5  14    5.57    4.29   2
   3   5  14   12.27    4.64   2
   3   5  15   -2.49    3.94   2
  -3  -6  16    6.87    2.37   2
  -3  -6  15   -2.18    3.31   2
  -3  -6  14   18.31    4.35   2
  -3  -6  13    3.64    2.13   2
  -3  -6  11   16.76    4.38   2
  -3  -6  10    4.89    3.65   2
  -3  -6  10    2.30    1.15   2
  -3  -6   9    1.91    2.10   2
  -3  -6   9    2.32    0.75   2
   3   6  -8    7.40    3.25   2
   3   6  -8    3.16    1.32   2
   3   6  -8    0.89    1.52   2
   3   6  -7    5.48    2.06   2
   3   6  -7    3.06    1.25   2
   3   6  -7    2.60    1.33   2
   3   6  -6   31.54    2.87   2
   3   6  -6   22.75    2.69   2
   3   6  -6   27.74    2.07   2
   3   6  -5   12.92    1.83   2
   3   6  -4   11.62    2.42   2
   3   6  -4   10.24    1.76   2
   3   6  -4   11.40    2.45   2
   3   6  -3    3.43    3.18   2
   3   6  -3    3.27    1.70   2
   3   6  -2    4.54    3.29   2
   3   6  -2    2.66    1.96   2
   3   6  -1   13.17    2.34   2
   3   6  -1   14.60    2.53   2
   3   6   0   20.21    2.51   2
   3   6   0   17.88    2.85   2
   3   6   1    8.11    2.35   2
   3   6   1   12.60    2.44   2
   3   6   3    8.95    3.74   2
   3   6   3   11.85    2.91   2
   3   6   4    2.18    3.39   2
   3   6   4   -0.26    2.81   2
   3   6   5   24.98    4.90   2
   3   6   5   35.23    4.46   2
   3   6   6    1.01    3.75   2
   3   6   6    4.70    1.95   2
   3   6   7   91.35    7.88   2
   3   6   7   82.50    7.25   2
   3   6  10    3.34    2.70   2
   3   6  10   10.08    3.71   2
   3   6  11   -1.62    4.26   2
   3   6  11    6.16    2.34   2
   3   6  12    9.32    4.23   2
   3   6  12    3.86    4.25   2
   3   6  13    6.44    4.58   2
   3   6  13    6.86    2.74   2
   3   6  14    2.15    4.08   2
   3   6  14   -3.89    3.92   2
  -3  -7  14   13.14    4.27   2
  -3  -7  12    1.14    3.40   2
  -3  -7  11   10.39    2.94   2
  -3  -7  10    2.39    2.40   2
   3   7  -9    2.21    3.60   2
   3   7  -9    2.51    1.68   2
   3   7  -8   19.76    2.75   2
   3   7  -8    9.95    1.78   2
   3   7  -7    2.56    3.30   2
   3   7  -7    0.56    1.37   2
   3   7  -5    4.42    3.74   2
   3   7  -5    5.35    1.71   2
   3   7  -4   23.00    3.00   2
   3   7  -4   20.12    2.52   2
   3   7  -3    6.88    2.19   2
   3   7  -3    4.27    1.90   2
   3   7  -2    9.20    2.37   2
   3   7  -2   15.29    2.54   2
   3   7  -1   -2.69    3.35   2
   3   7  -1    2.72    2.05   2
   3   7   0   -4.88    3.47   2
   3   7   0   -4.34    2.38   2
   3   7   2   12.78    2.49   2
   3   7   2   11.04    2.96   2
   3   7   3   17.01    2.87   2
   3   7   3   16.39    2.25   2
   3   7   4   14.92    2.80   2
   3   7   4   12.24    3.53   2
   3   7   5    1.88    2.21   2
   3   7   5   -0.23    2.89   2
   3   7   6   62.39    4.71   2
   3   7   6   62.73    4.30   2
   3   7   7   10.10    2.73   2
   3   7   7   12.39    3.63   2
   3   7   9   13.99    2.72   2
   3   7   9   -0.71    2.25   2
   3   7  10   -1.81    2.57   2
   3   7  10   -7.51    3.54   2
   3   7  11    5.28    2.78   2
   3   7  11    5.47    2.55   2
   3   7  12    2.75    2.64   2
   3   7  12    3.65    3.95   2
  -3  -8  12    3.98    2.80   2
   3   8 -11    2.63    2.26   2
  -3  -8  11    3.68    2.58   2
   3   8 -10   -1.30    3.56   2
   3   8  -9   -2.52    2.32   2
   3   8  -8   -0.26    3.35   2
   3   8  -7   22.37    2.91   2
   3   8  -7    9.34    2.04   2
   3   8  -5    7.18    4.44   2
   3   8  -5    8.96    2.10   2
   3   8  -4   -1.14    3.83   2
   3   8  -4    2.71    1.93   2
   3   8  -3    2.90    2.29   2
   3   8  -3   -0.36    2.02   2
   3   8  -2    1.78    2.25   2
   3   8  -2   -0.29    2.20   2
   3   8  -1    7.97    2.41   2
   3   8  -1    3.65    2.55   2
   3   8   0    7.95    3.90   2
   3   8   0    2.89    2.59   2
   3   8   2    2.07    3.83   2
   3   8   2    2.80    1.65   2
   3   8   3    3.50    3.77   2
   3   8   3    5.87    2.91   2
   3   8   4   19.48    4.55   2
   3   8   4    8.32    3.41   2
   3   8   5   -5.42    3.75   2
   3   8   5    3.17    1.86   2
   3   8   6   40.72    6.13   2
   3   8   6   43.05    5.37   2
   3   8   7    3.76    3.60   2
   3   8   9    1.35    4.25   2
   3   8   9    9.21    3.66   2
   3   8  10    6.26    4.17   2
   3   8  10    4.56    2.32   2
   3   9 -10    1.11    2.39   2
   3   9  -9    8.14    4.36   2
   3   9  -8   -0.44    2.18   2
   3   9  -6    9.52    4.25   2
   3   9  -6    5.69    1.94   2
   3   9  -5    6.14    2.80   2
   3   9  -5    7.79    2.30   2
   3   9  -4   -0.69    3.78   2
   3   9  -4   -1.03    2.04   2
   3   9  -3   -1.08    3.34   2
   3   9  -3   -0.92    2.03   2
   3   9  -2    0.56    2.19   2
   3   9  -2    0.74    2.16   2
   3   9  -1   -4.02    2.22   2
   3   9  -1    3.11    2.28   2
   3   9   1   -2.13    4.13   2
   3   9   1    5.23    1.74   2
   3   9   2    3.35    4.12   2
   3   9   2    7.55    2.90   2
   3   9   3   16.06    4.48   2
   3   9   3    8.11    3.21   2
   3   9   4   -1.82    3.89   2
   3   9   4    3.59    1.86   2
   3   9   5   24.74    5.54   2
   3   9   5   24.64    4.46   2
   3   9   6   14.73    4.50   2
   3   9   6    6.77    3.39   2
   3   9   8    3.51    2.61   2
   3   9   8    5.77    3.61   2
   3  10  -6    9.68    3.10   2
   3  10  -5   -2.74    4.15   2
   3  10  -4   -1.54    2.45   2
   3  10  -4   -0.42    2.06   2
   3  10  -3    0.21    3.99   2
   3  10  -3    1.12    2.20   2
   3  10  -2   -0.73    3.92   2
   3  10  -2    1.15    1.52   2
   3  10  -1    5.32    3.71   2
   3  10  -1   -1.24    2.35   2
   3  10   0    2.30    2.47   2
   3  10   1   -0.30    4.05   2
   3  10   1    2.34    1.70   2
   3  10   2    3.40    3.80   2
   3  10   2   -0.21    2.58   2
   3  10   3   -1.41    3.97   2
   3  10   3    6.99    3.01   2
   3  10   4   -0.84    3.96   2
   3  10   4    1.76    1.86   2
   4 -12  -1    0.73    2.12   2
   4 -12  -1    5.51    2.92   2
   4 -12   0    3.09    3.61   2
   4 -12   0    2.90    4.19   2
  -4  11   8   -0.39    2.69   2
  -4  11   8    3.73    2.24   2
  -4  11   7   -1.48    2.77   2
  -4  11   7    3.23    2.47   2
  -4  11   6    3.55    2.76   2
  -4  11   5   -1.95    2.83   2
  -4  11   5    4.60    3.82   2
  -4  11   4    6.47    3.58   2
  -4  11   4   11.59    4.44   2
  -4  11   3    2.04    3.12   2
  -4  11   3    7.12    4.21   2
   4 -11  -1   13.52    3.88   2
   4 -11  -1   15.80    5.31   2
   4 -11   0    6.90    3.56   2
   4 -11   0    7.09    4.73   2
   4 -11   1    8.22    4.00   2
   4 -11   1    9.03    3.05   2
   4 -11   2    3.04    3.88   2
   4 -11   2    3.90    2.78   2
   4 -11   3   -3.75    2.29   2
   4 -11   3    6.14    4.35   2
   4 -11   4    1.59    3.94   2
   4 -11   6    4.48    4.17   2
   4 -11   6   -0.32    2.49   2
   4 -11   7    0.80    4.63   2
   4 -11   7   11.58    4.56   2
  -4  10  11    5.13    4.20   2
  -4  10   9   -0.89    3.73   2
  -4  10   8    3.42    2.53   2
  -4  10   8   10.39    3.94   2
  -4  10   7    8.28    2.89   2
  -4  10   7    6.35    4.12   2
  -4  10   6    1.41    1.77   2
  -4  10   6    2.98    3.38   2
  -4  10   5    4.83    2.85   2
  -4  10   5    8.45    4.33   2
  -4  10   4    0.10    1.78   2
  -4  10   4    4.17    3.94   2
   4 -10  -2    5.99    2.89   2
   4 -10  -2   -6.98    4.03   2
   4 -10  -1    1.81    3.00   2
   4 -10  -1    0.91    3.95   2
   4 -10   0    8.68    3.82   2
   4 -10   0   11.38    4.67   2
   4 -10   1    7.14    3.74   2
   4 -10   2    8.53    4.37   2
   4 -10   2   17.71    3.46   2
   4 -10   3    3.64    3.95   2
   4 -10   3    6.96    2.78   2
   4 -10   5   10.60    4.72   2
   4 -10   5    8.60    4.64   2
   4 -10   6    5.58    4.99   2
   4 -10   6    6.51    4.54   2
   4 -10   7   -0.65    4.11   2
   4 -10   7    0.95    2.48   2
   4 -10   8    0.35    4.09   2
   4 -10   9   10.61    5.20   2
   4 -10   9    5.58    4.86   2
   4 -10  10    3.66    2.97   2
   4 -10  10    3.91    2.64   2
  -4   9  13    7.03    4.37   2
  -4   9  12   13.60    4.48   2
  -4   9  11    2.66    4.03   2
  -4   9   9    0.05    2.22   2
  -4   9   9    6.80    3.53   2
  -4   9   8    1.94    1.39   2
  -4   9   8    3.42    3.55   2
  -4   9   7   14.41    2.92   2
  -4   9   7   19.48    4.54   2
  -4   9   6    1.69    2.39   2
  -4   9   6    0.34    2.10   2
  -4   9   5   23.46    3.43   2
  -4   9   5   21.83    3.37   2
  -4   9   4    1.53    1.57   2
  -4   9   4   -2.10    2.26   2
   4  -9  -2   31.75    4.05   2
   4  -9  -2   28.57    5.79   2
   4  -9  -1   11.56    2.37   2
   4  -9  -1   12.47    4.45   2
   4  -9   0    1.77    2.94   2
   4  -9   0    3.83    3.99   2
   4  -9   1   45.07    5.60   2
   4  -9   1   39.36    6.48   2
   4  -9   2    3.18    1.97   2
   4  -9   2   -3.96    3.92   2
   4  -9   3   10.20    2.80   2
   4  -9   3    6.30    4.21   2
   4  -9   5    4.38    4.26   2
   4  -9   5    5.72    2.73   2
   4  -9   6    2.06    2.46   2
   4  -9   7    1.58    4.29   2
   4  -9   8    9.18    2.98   2
   4  -9   8   -0.36    4.41   2
   4  -9   9   -0.35    4.55   2
   4  -9   9    1.09    2.44   2
   4  -9  10   21.54    5.60   2
   4  -9  10    9.45    4.93   2
   4  -9  12    4.45    3.24   2
   4  -9  12    2.41    4.35   2
  -4   8  14    4.33    3.64   2
  -4   8  12    4.82    3.84   2
  -4   8  10    7.01    2.02   2
  -4   8  10   11.33    4.17   2
  -4   8   9    3.97    2.06   2
  -4   8   9   -0.12    2.18   2
  -4   8   8    8.13    2.28   2
  -4   8   8   14.42    2.64   2
  -4   8   7   -0.68    1.81   2
  -4   8   7    3.12    2.24   2
  -4   8   6   17.25    2.78   2
  -4   8   6   16.54    4.48   2
  -4   8   5    4.01    2.25   2
  -4   8   5    4.11    3.81   2
   4  -8  -3    0.13    2.35   2
   4  -8  -3   -3.60    2.31   2
   4  -8  -2    5.52    2.61   2
   4  -8  -2    3.08    3.88   2
   4  -8  -1   12.22    3.47   2
   4  -8  -1   19.78    4.70   2
   4  -8   0   11.78    3.62   2
   4  -8   0   26.21    4.64   2
   4  -8   1   34.82    3.39   2
   4  -8   1   32.77    5.17   2
   4  -8   2    2.43    2.10   2
   4  -8   2    8.04    2.41   2
   4  -8   4    2.38    3.76   2
   4  -8   4    4.45    2.46   2
   4  -8   5    5.50    2.72   2
   4  -8   5   13.33    4.28   2
   4  -8   6    7.31    4.36   2
   4  -8   6    2.10    4.21   2
   4  -8   7    9.79    4.71   2
   4  -8   8   16.13    4.92   2
   4  -8   8    9.14    2.61   2
   4  -8   9    8.92    3.03   2
   4  -8   9    7.69    2.80   2
   4  -8  11    1.95    4.49   2
   4  -8  11    0.93    2.38   2
   4  -8  12    3.72    4.92   2
   4  -8  12    2.84    4.26   2
   4  -8  13   34.51    7.09   2
   4  -8  13   27.94    4.01   2
  -4   7  16    5.74    2.36   2
  -4   7  15   -0.37    2.03   2
  -4   7  14    7.04    2.28   2
  -4   7  13   16.04    4.50   2
  -4   7  12   21.27    4.66   2
  -4   7  10    2.01    1.55   2
  -4   7  10   11.44    3.47   2
  -4   7   9    0.48    1.48   2
  -4   7   9   -4.01    1.95   2
  -4   7   8    9.33    1.78   2
  -4   7   8   15.98    2.12   2
  -4   7   8   21.36    2.65   2
  -4   7   7   -2.34    1.56   2
  -4   7   7    3.20    3.27   2
  -4   7   6   31.57    2.82   2
  -4   7   6   35.84    4.99   2
   4  -7  -3   55.47    4.28   2
   4  -7  -3   68.09    4.43   2
   4  -7  -2   17.34    2.99   2
   4  -7  -2   22.79    4.54   2
   4  -7  -1   11.50    2.88   2
   4  -7   0  121.90    7.73   2
   4  -7   0  106.23    6.13   2
   4  -7   1    2.67    1.77   2
   4  -7   1    1.86    3.64   2
   4  -7   2   32.91    3.24   2
   4  -7   2   29.18    4.98   2
   4  -7   4    7.86    3.52   2
   4  -7   4   -1.50    3.65   2
   4  -7   5    3.79    3.74   2
   4  -7   5    6.58    3.65   2
   4  -7   6    2.52    4.13   2
   4  -7   7    6.86    2.94   2
   4  -7   7   11.37    4.01   2
   4  -7   8    4.42    4.28   2
   4  -7   8    0.64    2.32   2
   4  -7   9   22.52    6.19   2
   4  -7   9   19.60    5.35   2
   4  -7  11   12.40    5.81   2
   4  -7  11   14.96    3.17   2
   4  -7  12   12.47    6.47   2
   4  -7  12   26.33    5.59   2
   4  -7  13    9.31    5.63   2
   4  -7  14    9.69    5.07   2
   4  -7  14    4.46    2.77   2
   4  -7  15   -1.28    4.48   2
   4  -7  15    0.85    3.75   2
  -4   6  17    6.39    3.64   2
  -4   6  16   14.25    4.17   2
  -4   6  15    1.20    3.08   2
  -4   6  14    0.68    3.23   2
  -4   6  13   20.14    4.32   2
  -4   6  11   10.77    1.74   2
  -4   6  11   13.99    2.53   2
  -4   6  10    6.41    1.22   2
  -4   6  10   12.96    3.45   2
  -4   6   9    7.48    1.80   2
  -4   6   9   11.96    1.45   2
  -4   6   9   11.01    3.32   2
  -4   6   8    1.45    1.12   2
  -4   6   8    1.40    1.24   2
  -4   6   8    3.95    2.97   2
  -4   6   7   14.33    1.75   2
  -4   6   7   21.45    1.86   2
  -4   6   7   24.22    4.07   2
  -4   6   6    6.55    1.54   2
  -4   6   6    5.97    2.16   2
  -4   6   6   13.22    2.08   2
   4  -6  -4    4.66    1.72   2
   4  -6  -4    4.96    3.19   2
  -4   6   4    3.09    1.51   2
   4  -6  -3    8.49    1.33   2
   4  -6  -3    7.55    2.20   2
   4  -6  -2   30.89    2.23   2
   4  -6  -2   36.07    4.74   2
   4  -6  -1   38.85    3.71   2
   4  -6  -1   39.99    3.19   2
   4  -6   0   71.82    5.63   2
   4  -6   0   85.77    6.86   2
   4  -6   1    4.48    2.95   2
   4  -6   1    8.84    2.22   2
   4  -6   3    9.10    3.34   2
   4  -6   3   -1.91    3.31   2
   4  -6   4    0.92    2.12   2
   4  -6   4    4.78    3.21   2
   4  -6   5   16.86    4.22   2
   4  -6   5    1.88    3.81   2
   4  -6   6    8.29    2.78   2
   4  -6   7   24.25    5.14   2
   4  -6   7   16.47    4.40   2
   4  -6   8    4.88    4.59   2
   4  -6   8   11.04    2.77   2
   4  -6  10   18.25    3.53   2
   4  -6  10   13.62    4.76   2
   4  -6  11    8.92    2.92   2
   4  -6  11    3.06    2.79   2
   4  -6  12   82.16    6.80   2
   4  -6  13    1.28    2.75   2
   4  -6  14    2.06    2.76   2
   4  -6  14    0.12    2.52   2
   4  -6  15    1.62    2.81   2
   4  -6  15    0.25    4.23   2
  -4   5  17    1.51    3.08   2
  -4   5  16    5.71    3.32   2
  -4   5  15    8.86    3.36   2
  -4   5  14   32.70    4.19   2
  -4   5  13   35.73    3.19   2
  -4   5  11    6.10    1.03   2
  -4   5  11    3.35    0.92   2
  -4   5  11    0.26    2.90   2
  -4   5  10    0.92    0.88   2
  -4   5  10    0.55    0.82   2
  -4   5  10    0.35    1.58   2
  -4   5   9   11.79    1.02   2
  -4   5   9   13.09    1.29   2
  -4   5   9   16.22    2.93   2
  -4   5   8    0.36    0.92   2
  -4   5   8    0.14    1.03   2
  -4   5   8    3.15    1.60   2
  -4   5   7   46.07    2.59   2
  -4   5   7   50.00    2.16   2
  -4   5   7   54.72    4.76   2
  -4   5   6   27.11    2.13   2
  -4   5   6   26.37    2.14   2
  -4   5   6   27.19    3.96   2
   4  -5  -4   97.63    4.43   2
   4  -5  -4  100.92    5.10   2
  -4   5   4   92.57    4.12   2
   4  -5  -3   32.61    2.65   2
   4  -5  -3   36.84    2.91   2
  -4   5   3   29.20    2.26   2
   4  -5  -2    4.30    2.09   2
   4  -5  -2    9.41    3.00   2
  -4   5   2    7.48    1.71   2
   4  -5  -1  255.88   11.92   2
   4  -5  -1  276.16   14.06   2
  -4   5   1  225.56    9.32   2
   4  -5   0   -0.31    1.36   2
   4  -5   0    2.12    1.70   2
   4  -5   1   62.22    5.00   2
   4  -5   1   53.76    5.32   2
   4  -5   3    0.66    1.87   2
   4  -5   3    2.98    3.00   2
   4  -5   4    7.44    3.47   2
   4  -5   4    4.02    3.29   2
   4  -5   5   15.31    2.57   2
   4  -5   6   19.91    4.79   2
   4  -5   6   29.70    4.54   2
   4  -5   7    2.05    3.81   2
   4  -5   7   -4.54    3.42   2
   4  -5   8   39.20    3.97   2
   4  -5   8   29.58    5.53   2
   4  -5  10   18.19    3.47   2
   4  -5  10   18.73    5.30   2
   4  -5  11   43.07    4.43   2
   4  -5  11   42.29    4.27   2
   4  -5  12    6.44    3.17   2
   4  -5  13    2.60    2.65   2
   4  -5  14   -0.02    2.77   2
   4  -5  14    2.51    2.45   2
   4  -5  15   -0.97    2.55   2
  -4   4  18    3.64    1.91   2
  -4   4  17   16.00    2.27   2
  -4   4  16    0.28    2.65   2
  -4   4  15    7.70    2.82   2
  -4   4  14   23.97    3.55   2
  -4   4  12   23.95    3.64   2
  -4   4  11   11.76    2.90   2
  -4   4  10    9.35    2.72   2
  -4   4   9   -1.70    1.36   2
  -4   4   8   18.37    0.77   2
  -4   4   8   22.13    3.06   2
  -4   4   7   11.01    0.86   2
  -4   4   7   12.72    0.85   2
  -4   4   7   19.33    2.73   2
   4  -4  -5    7.68    1.35   2
   4  -4  -5    7.09    2.72   2
  -4   4   5    9.01    1.35   2
   4  -4  -4    8.98    1.25   2
   4  -4  -4   11.47    1.79   2
  -4   4   4    9.35    1.18   2
   4  -4  -3   45.00    3.10   2
   4  -4  -3   46.46    2.88   2
  -4   4   3   41.65    2.27   2
   4  -4  -2   59.02    3.49   2
   4  -4  -2   44.79    5.14   2
  -4   4   2   49.26    2.98   2
   4  -4  -1  147.26    7.10   2
   4  -4  -1  158.26    8.83   2
  -4   4   1  140.49    6.46   2
   4  -4   0   19.96    2.70   2
   4  -4   0   18.04    3.25   2
  -4   4   0   11.42    2.18   2
   4  -4   2    6.03    2.85   2
   4  -4   2    7.64    3.02   2
   4  -4   3    1.99    2.51   2
   4  -4   3   -0.10    1.69   2
   4  -4   4   26.58    4.17   2
   4  -4   4   21.93    3.77   2
   4  -4   5   35.30    3.24   2
   4  -4   6   46.45    3.79   2
   4  -4   6   40.90    5.39   2
   4  -4   7   14.31    4.26   2
   4  -4   7   12.29    2.72   2
   4  -4   9   19.78    4.68   2
   4  -4   9   19.24    4.74   2
   4  -4  10   -5.63    4.04   2
   4  -4  10    7.19    3.66   2
   4  -4  11  170.77   12.66   2
   4  -4  12    3.71    2.55   2
   4  -4  12   -3.50    3.92   2
   4  -4  13   -1.66    2.67   2
   4  -4  13   -2.54    4.01   2
   4  -4  14   12.49    5.34   2
   4  -4  14   13.84    3.16   2
   4  -4  16   13.21    5.51   2
   4  -4  16   17.77    3.43   2
   4  -4  17   11.77    3.39   2
   4  -4  17   10.69    3.28   2
  -4   3  17    3.83    2.64   2
  -4   3  16    5.09    2.69   2
  -4   3  15   24.55    3.42   2
  -4   3  14   54.12    4.51   2
  -4   3  12   10.81    2.50   2
  -4   3  11    2.70    2.06   2
  -4   3  10    5.43    2.13   2
  -4   3   9    3.32    2.03   2
  -4   3   8   54.81    2.73   2
  -4   3   7   55.04    3.77   2
   4  -3  -5  142.75    4.33   2
   4  -3  -5  133.13    6.73   2
  -4   3   5  140.29    4.22   2
  -4   3   5  132.07    6.38   2
   4  -3  -4   57.19    2.63   2
   4  -3  -4   64.96    4.19   2
  -4   3   4   60.77    2.41   2
  -4   3   4   49.65    3.30   2
   4  -3  -3    3.94    1.74   2
   4  -3  -3    6.99    2.44   2
  -4   3   3    3.18    1.45   2
  -4   3   3    7.77    1.77   2
   4  -3  -2  519.35   21.33   2
   4  -3  -2  523.85   22.13   2
  -4   3   2  525.37   21.78   2
  -4   3   2  480.87   23.17   2
   4  -3  -1    0.44    1.70   2
   4  -3  -1    3.32    2.28   2
  -4   3   1    1.24    1.45   2
  -4   3   1    1.83    1.81   2
   4  -3   0  103.53    6.15   2
  -4   3   0   93.67    3.72   2
   4  -3   2   22.75    3.26   2
   4  -3   2   19.45    3.45   2
   4  -3   3   12.46    1.93   2
   4  -3   3   12.18    3.08   2
   4  -3   4   21.74    2.50   2
   4  -3   4   24.70    2.62   2
   4  -3   5   42.74    3.09   2
   4  -3   5   38.46    3.19   2
   4  -3   6   -0.22    1.98   2
   4  -3   6    5.26    1.99   2
   4  -3   7   63.97    4.53   2
   4  -3   7   68.59    6.33   2
   4  -3   9   19.98    2.98   2
   4  -3   9   26.23    4.90   2
   4  -3  10   67.14    6.88   2
   4  -3  10   68.67    4.98   2
   4  -3  11   11.35    4.81   2
   4  -3  11   18.48    5.11   2
   4  -3  12    8.82    4.52   2
   4  -3  13    3.20    2.50   2
   4  -3  13   -5.25    3.59   2
   4  -3  14   -2.22    4.08   2
   4  -3  16    6.48    2.82   2
   4  -3  16    1.45    2.71   2
   4  -3  17   22.70    5.44   2
   4  -3  17   15.83    5.51   2
  -4   2  18   19.75    3.54   2
  -4   2  17   -1.55    2.23   2
  -4   2  15   39.72    3.81   2
  -4   2  13   25.90    1.18   2
  -4   2  13   39.95    2.43   2
   4  -2 -12    4.98    0.38   2
  -4   2  12   12.75    2.17   2
  -4   2  11    1.77    1.66   2
  -4   2  10    2.15    1.32   2
  -4   2  10    1.28    1.57   2
  -4   2   9   17.27    1.94   2
  -4   2   9   22.72    2.03   2
  -4   2   8   21.84    2.05   2
  -4   2   8   22.07    2.20   2
  -4   2   6   15.93    1.74   2
  -4   2   6   13.86    1.98   2
   4  -2  -5   13.57    0.78   2
   4  -2  -5   13.06    1.92   2
  -4   2   5   12.37    0.71   2
  -4   2   5   11.18    1.67   2
   4  -2  -4   51.55    2.15   2
   4  -2  -4   40.45    2.20   2
  -4   2   4   47.83    1.98   2
  -4   2   4   43.41    2.62   2
   4  -2  -3   63.13    2.70   2
   4  -2  -3   57.15    3.82   2
  -4   2   3   60.53    2.36   2
  -4   2   3   55.11    3.51   2
   4  -2  -2  212.31    7.97   2
   4  -2  -2  192.43    8.83   2
  -4   2   2  202.10    7.19   2
  -4   2   2  184.74    8.03   2
   4  -2  -1   34.42    2.77   2
   4  -2  -1   29.48    2.99   2
  -4   2   1   32.88    2.22   2
  -4   2   1   26.31    2.57   2
   4  -2   1   20.88    3.13   2
  -4   2  -1   16.26    2.53   2
   4  -2   2    1.60    1.62   2
   4  -2   2    4.67    2.48   2
  -4   2  -2    3.36    2.12   2
   4  -2   3   37.16    2.78   2
   4  -2   3   32.47    2.63   2
   4  -2   4   71.46    5.80   2
   4  -2   4   61.36    3.69   2
   4  -2   5   75.75    6.32   2
   4  -2   5   66.05    4.14   2
   4  -2   6   15.55    3.94   2
   4  -2   6   11.41    3.72   2
   4  -2   8   32.01    4.95   2
   4  -2   9   10.04    3.93   2
   4  -2   9   14.39    2.53   2
   4  -2  10  212.97   10.58   2
   4  -2  10  221.51   12.94   2
   4  -2  11   -0.97    3.61   2
   4  -2  11    5.81    3.50   2
   4  -2  12   -0.67    3.84   2
   4  -2  12    1.17    3.56   2
   4  -2  13   25.68    3.77   2
   4  -2  13   25.41    5.19   2
   4  -2  15   22.78    5.53   2
   4  -2  16   27.84    3.82   2
   4  -2  16   30.65    5.88   2
   4  -2  17   -1.42    4.10   2
  -4   1  17    4.00    2.02   2
  -4   1  16   14.91    2.60   2
  -4   1  15   54.98    3.83   2
   4  -1 -13    9.40    1.09   2
  -4   1  13    9.00    2.03   2
   4  -1 -12    1.51    0.72   2
   4  -1 -12    2.07    1.25   2
  -4   1  12    0.25    0.88   2
  -4   1  12    2.99    1.43   2
  -4   1  11   -0.81    0.53   2
  -4   1  11   -0.16    0.76   2
  -4   1  11   -0.06    1.31   2
   4  -1 -10    2.18    0.38   2
   4  -1 -10    1.01    0.61   2
  -4   1  10    1.84    1.11   2
  -4   1  10    0.18    1.26   2
   4  -1  -9   39.65    1.13   2
   4  -1  -9   44.16    1.25   2
  -4   1   9   42.86    2.26   2
  -4   1   9   49.49    3.03   2
   4  -1  -5   76.09    2.82   2
   4  -1  -5   73.33    3.14   2
  -4   1   5   86.24    2.96   2
  -4   1   5   78.64    3.49   2
   4  -1  -4    3.20    1.32   2
   4  -1  -4   -0.28    1.13   2
  -4   1   4    2.90    1.21   2
  -4   1   4    1.54    1.06   2
   4  -1  -3  660.19   26.79   2
   4  -1  -3  609.25   27.94   2
  -4   1   3  641.87   25.74   2
  -4   1   3  626.62   26.74   2
   4  -1  -2    2.58    1.47   2
   4  -1  -2    0.37    1.43   2
  -4   1   2   -0.48    1.09   2
  -4   1   2    1.34    1.35   2
   4  -1  -1  136.83    5.83   2
   4  -1  -1  117.36    4.56   2
  -4   1   1  147.42    5.58   2
  -4   1   1  122.14    5.29   2
   4  -1   1   90.85    5.21   2
   4  -1   1   84.94    5.05   2
  -4   1  -1   94.67    4.56   2
  -4   1  -1   76.90    3.35   2
   4  -1   2   27.95    3.53   2
   4  -1   2   23.74    2.28   2
  -4   1  -2   27.70    2.85   2
  -4   1  -2   25.40    2.86   2
   4  -1   3   26.65    2.48   2
   4  -1   3   26.56    3.63   2
   4  -1   4   72.23    5.60   2
   4  -1   4   63.91    5.15   2
   4  -1   5   14.36    2.19   2
   4  -1   5   17.85    2.13   2
   4  -1   6  137.12    8.30   2
   4  -1   8   20.15    2.57   2
   4  -1   9   78.99    4.88   2
   4  -1   9   80.82    6.95   2
   4  -1  10   18.86    4.84   2
   4  -1  10   12.52    4.53   2
   4  -1  11   14.86    2.91   2
   4  -1  11    2.15    4.19   2
   4  -1  12   -2.01    3.93   2
   4  -1  13    2.85    4.12   2
   4  -1  15   10.35    4.85   2
   4  -1  16   40.31    6.03   2
   4  -1  16   28.78    6.32   2
   4  -1  17    4.46    2.89   2
   4  -1  17    9.39    3.02   2
  -4   0  16   30.74    2.86   2
  -4   0  14   33.94    2.64   2
   4   0 -13    5.77    1.23   2
   4   0 -13    6.72    1.37   2
  -4   0  13   10.25    1.35   2
  -4   0  13    9.67    1.58   2
   4   0 -12    0.71    0.83   2
   4   0 -12    0.49    0.99   2
  -4   0  12   -0.75    1.26   2
  -4   0  12   -0.68    1.06   2
   4   0 -11   -0.94    1.04   2
   4   0 -11    0.55    0.86   2
  -4   0  11   -0.86    0.89   2
  -4   0  11    0.61    1.37   2
   4   0 -10    8.45    1.04   2
   4   0 -10    6.12    1.40   2
  -4   0  10    9.17    1.06   2
  -4   0  10   11.90    1.11   2
   4   0  -9   18.37    1.57   2
   4   0  -9   18.61    1.63   2
  -4   0   9   20.25    1.52   2
  -4   0   9   20.47    1.44   2
   4   0  -7   21.11    1.63   2
   4   0  -7   19.15    1.70   2
  -4   0   7   21.47    1.28   2
  -4   0   7   21.29    1.24   2
   4   0  -6    8.92    1.41   2
   4   0  -6   11.87    1.63   2
  -4   0   6   10.57    0.99   2
  -4   0   6   10.33    0.89   2
   4   0  -5   33.93    1.86   2
   4   0  -5   28.32    1.53   2
  -4   0   5   32.18    1.79   2
  -4   0   5   33.99    1.60   2
   4   0  -4   40.43    2.47   2
   4   0  -4   45.12    2.28   2
  -4   0   4   44.36    2.34   2
  -4   0   4   46.63    1.71   2
   4   0  -3  171.74    6.76   2
   4   0  -3  180.34    6.87   2
  -4   0   3  175.25    6.65   2
  -4   0   3  183.37    6.67   2
   4   0  -2   41.03    2.91   2
   4   0  -2   35.20    2.29   2
  -4   0   2   34.87    1.68   2
  -4   0   2   38.52    2.08   2
   4   0   0   27.65    2.61   2
  -4   0   0   29.77    1.75   2
  -4   0   0   27.50    2.47   2
   4   0   1   12.17    3.03   2
   4   0   1   13.07    2.39   2
  -4   0  -1   14.92    2.11   2
  -4   0  -1   14.08    2.13   2
   4   0   2   35.40    3.96   2
   4   0   2   32.15    2.26   2
  -4   0  -2   29.36    2.91   2
   4   0   3   87.21    4.37   2
   4   0   3   86.59    4.09   2
   4   0   4   82.23    4.29   2
   4   0   4   78.30    5.65   2
   4   0   5    3.93    3.07   2
   4   0   5   -2.14    1.57   2
   4   0   7   50.67    5.16   2
   4   0   8    7.52    2.06   2
   4   0   8    7.42    3.55   2
   4   0   9  245.08   13.81   2
   4   0   9  253.56   14.36   2
   4   0  10   -1.16    2.00   2
   4   0  10    3.04    3.34   2
   4   0  11    0.76    2.05   2
   4   0  11    0.01    3.59   2
   4   0  12   42.27    5.98   2
   4   0  14   62.06    6.46   2
   4   0  14   23.98    4.10   2
   4   0  15   52.38    4.81   2
   4   0  16   -3.51    4.19   2
   4   0  16   -2.08    4.24   2
   4   0  17   46.36    6.92   2
   4   0  17   44.31    7.10   2
  -4  -1  14   10.42    1.93   2
  -4  -1  14   10.31    1.51   2
   4   1 -13    2.34    1.21   2
   4   1 -13    0.92    1.28   2
  -4  -1  13    5.51    1.56   2
  -4  -1  13    3.95    1.44   2
   4   1 -12    0.48    1.11   2
   4   1 -12    1.15    1.03   2
  -4  -1  12    0.40    1.38   2
  -4  -1  12    2.41    1.17   2
   4   1 -11    0.70    1.09   2
   4   1 -11   -0.56    0.79   2
  -4  -1  11    0.11    1.43   2
  -4  -1  11    1.56    0.92   2
   4   1 -10   21.17    1.69   2
   4   1 -10   26.13    2.07   2
  -4  -1  10   23.51    1.29   2
   4   1  -9   40.46    2.90   2
   4   1  -9   48.01    2.54   2
  -4  -1   9   41.51    1.27   2
  -4  -1   9   39.02    1.20   2
   4   1  -7   74.10    3.42   2
   4   1  -7   83.11    3.61   2
   4   1  -6   59.29    2.88   2
   4   1  -6   59.73    2.99   2
   4   1  -5    2.63    1.34   2
   4   1  -5   -0.28    1.47   2
   4   1  -4  438.12   18.26   2
   4   1  -4  466.12   16.09   2
  -4  -1   4  447.43   18.63   2
  -4  -1   4  419.79   14.03   2
   4   1  -3    2.40    1.69   2
   4   1  -3    0.25    1.02   2
  -4  -1   3    0.36    1.46   2
  -4  -1   3    1.43    0.88   2
   4   1  -2   88.99    4.11   2
  -4  -1   2   79.69    4.29   2
  -4  -1   2   84.45    3.67   2
   4   1   0  107.42    5.85   2
   4   1   0  103.66    4.74   2
  -4  -1   0   93.49    3.82   2
  -4  -1   0   92.87    4.12   2
   4   1   1   31.57    3.65   2
   4   1   1   26.46    2.71   2
  -4  -1  -1   26.35    2.29   2
   4   1   2   27.33    3.84   2
   4   1   2   24.80    2.96   2
  -4  -1  -2   25.47    2.56   2
   4   1   3   53.68    3.35   2
   4   1   3   58.67    4.23   2
   4   1   4   43.02    3.34   2
   4   1   4   39.67    4.30   2
   4   1   5   84.52    4.86   2
   4   1   5   81.33    5.81   2
   4   1   7   25.31    4.18   2
   4   1   7   18.51    2.64   2
   4   1   8   67.09    6.31   2
   4   1   8   74.60    6.63   2
   4   1   9   33.13    4.80   2
   4   1   9   19.09    4.79   2
   4   1  10    4.45    2.39   2
   4   1  10   12.61    4.04   2
   4   1  11    4.90    3.63   2
   4   1  11    2.63    3.72   2
   4   1  14    9.50    2.79   2
   4   1  14   10.96    4.64   2
   4   1  15   42.76    6.19   2
   4   1  15   51.77    6.93   2
   4   1  16    3.77    2.66   2
   4   1  16    7.12    4.68   2
   4   1  17   31.98    6.42   2
   4   1  17   32.89    4.17   2
  -4  -2  15   22.00    2.92   2
  -4  -2  14    7.30    2.26   2
  -4  -2  13    0.25    1.80   2
  -4  -2  13    0.74    1.00   2
  -4  -2  12    1.46    1.79   2
  -4  -2  12    0.22    0.77   2
   4   2 -11    1.87    0.49   2
  -4  -2  11    3.39    1.88   2
  -4  -2  11    2.49    0.57   2
   4   2 -10   14.93    2.25   2
   4   2  -8   17.17    2.05   2
   4   2  -8   21.38    2.45   2
   4   2  -7    7.66    1.71   2
   4   2  -7   13.16    2.27   2
   4   2  -6   15.79    2.05   2
   4   2  -6   21.04    2.44   2
   4   2  -5   20.84    2.19   2
   4   2  -5   17.57    2.65   2
   4   2  -4  106.35    5.62   2
   4   2  -4  104.51    3.08   2
  -4  -2   4   99.25    5.03   2
  -4  -2   4   97.55    2.80   2
   4   2  -3   26.05    2.99   2
   4   2  -3   27.65    1.77   2
  -4  -2   3   26.30    1.57   2
   4   2  -1   26.80    3.37   2
   4   2  -1   21.98    2.54   2
  -4  -2   1   22.67    1.73   2
   4   2   0   18.95    3.12   2
   4   2   0   18.52    2.14   2
  -4  -2   0   19.34    1.87   2
   4   2   1   19.62    2.19   2
   4   2   1   19.55    2.52   2
  -4  -2  -1   17.71    1.40   2
   4   2   2   84.11    4.34   2
   4   2   2   86.38    5.00   2
  -4  -2  -2   71.74    4.22   2
   4   2   3   61.16    5.52   2
   4   2   3   57.26    4.32   2
   4   2   4    6.29    3.52   2
   4   2   4    7.88    2.89   2
   4   2   6   33.38    2.95   2
   4   2   7   12.01    3.85   2
   4   2   7    5.74    2.17   2
   4   2   8  169.90   10.76   2
   4   2   8  186.96   11.24   2
   4   2   9    4.93    2.28   2
   4   2   9    5.00    3.76   2
   4   2  10    0.56    2.36   2
   4   2  10    3.65    3.41   2
   4   2  11   40.84    4.10   2
   4   2  11   40.21    3.93   2
   4   2  13   26.28    5.35   2
   4   2  14   56.90    5.15   2
   4   2  15    4.48    2.39   2
   4   2  15   -0.71    2.50   2
   4   2  16   76.13    7.76   2
   4   2  16   77.73    8.48   2
  -4  -3  15    6.98    2.60   2
  -4  -3  14    3.35    2.36   2
  -4  -3  13    5.61    2.33   2
  -4  -3  12    4.05    2.46   2
  -4  -3  11   11.44    1.68   2
   4   3 -10   32.82    3.30   2
   4   3  -8   39.86    3.41   2
   4   3  -7   45.18    3.91   2
   4   3  -6    1.70    1.93   2
   4   3  -5  220.78   10.20   2
   4   3  -5  194.46    5.68   2
   4   3  -5  216.91    6.30   2
   4   3  -4    0.47    2.09   2
   4   3  -4    1.75    0.75   2
   4   3  -4    0.51    0.91   2
   4   3  -3   46.13    4.24   2
   4   3  -3   46.26    2.57   2
  -4  -3   3   39.03    2.26   2
   4   3  -1   84.67    5.51   2
   4   3  -1   80.61    4.07   2
  -4  -3   1   69.83    3.45   2
   4   3   0   23.81    3.41   2
   4   3   0   20.58    2.31   2
  -4  -3   0   13.40    1.91   2
   4   3   1   19.18    2.30   2
   4   3   1   14.96    2.71   2
  -4  -3  -1   15.11    2.08   2
   4   3   2   32.96    2.97   2
   4   3   2   39.40    2.46   2
   4   3   3   47.43    5.59   2
   4   3   3   56.80    3.29   2
   4   3   4   50.23    4.86   2
   4   3   6   14.69    3.84   2
   4   3   6   10.72    2.23   2
   4   3   7   36.50    5.22   2
   4   3   7   38.71    4.76   2
   4   3   8   25.92    4.79   2
   4   3   8   24.49    4.55   2
   4   3   9   19.24    4.55   2
   4   3   9   14.71    2.77   2
   4   3  10   -3.40    2.22   2
   4   3  11    2.41    2.29   2
   4   3  11    0.24    3.55   2
   4   3  13   10.91    4.87   2
   4   3  14   50.71    6.63   2
   4   3  14   42.13    6.56   2
   4   3  15   13.41    4.76   2
   4   3  15   15.63    3.27   2
   4   3  16   34.11    4.19   2
   4   3  16   33.83    6.33   2
  -4  -4  16   12.17    2.13   2
  -4  -4  15    9.18    2.97   2
  -4  -4  14    3.12    2.43   2
  -4  -4  13   -1.94    2.61   2
  -4  -4  12    5.95    1.88   2
   4   4 -11    8.77    1.74   2
  -4  -4  11    2.41    1.77   2
   4   4  -9   12.92    2.97   2
   4   4  -8   10.03    2.65   2
   4   4  -7    9.44    2.59   2
   4   4  -7    6.25    0.59   2
   4   4  -7    7.35    0.63   2
   4   4  -6    8.77    0.95   2
   4   4  -5   48.56    4.40   2
   4   4  -5   44.24    2.12   2
   4   4  -5   47.90    2.37   2
   4   4  -4   14.18    3.09   2
   4   4  -4   12.30    1.55   2
   4   4  -4   15.22    1.36   2
   4   4  -2   21.32    2.39   2
   4   4  -2   20.22    2.01   2
  -4  -4   2   16.20    1.63   2
   4   4  -1   11.42    3.44   2
   4   4  -1   15.98    2.08   2
  -4  -4   1   14.57    1.85   2
   4   4   0    5.78    3.07   2
   4   4   0    8.16    1.33   2
   4   4   1   53.76    5.34   2
   4   4   1   54.29    4.01   2
   4   4   2   29.50    4.58   2
   4   4   2   34.62    3.60   2
   4   4   3   18.14    2.56   2
   4   4   3   15.32    3.23   2
   4   4   5   11.64    2.66   2
   4   4   5   15.31    2.43   2
   4   4   6    0.80    2.10   2
   4   4   6   -1.47    3.00   2
   4   4   7   75.78    5.16   2
   4   4   7   78.38    7.23   2
   4   4   8    8.55    2.59   2
   4   4   8    6.58    2.29   2
   4   4   9    2.10    2.36   2
   4   4   9   -0.44    3.56   2
   4   4  10   32.86    3.63   2
   4   4  12    8.47    4.47   2
   4   4  13   67.37    7.74   2
   4   4  13   54.08    5.02   2
   4   4  14   -5.54    4.22   2
   4   4  14    1.61    4.12   2
   4   4  15   64.96    5.55   2
   4   4  15   64.59    5.74   2
  -4  -5  16    0.94    2.96   2
  -4  -5  15    3.22    3.04   2
  -4  -5  13    3.98    2.03   2
  -4  -5  12   -1.11    1.69   2
   4   5 -11   13.00    3.29   2
   4   5  -9   17.60    3.29   2
   4   5  -9    9.66    0.96   2
   4   5  -8   30.21    4.00   2
   4   5  -8   20.16    1.41   2
   4   5  -7    2.62    2.87   2
   4   5  -7   -0.22    0.98   2
   4   5  -7    1.60    0.94   2
   4   5  -6  103.07    7.08   2
   4   5  -6   81.07    3.41   2
   4   5  -6   79.87    3.58   2
   4   5  -5    2.09    2.69   2
   4   5  -5    0.52    1.29   2
   4   5  -5    0.22    1.37   2
   4   5  -4   17.50    3.77   2
   4   5  -4   14.47    2.03   2
   4   5  -4   18.53    1.87   2
   4   5  -2   42.25    4.91   2
   4   5  -2   14.15    1.52   2
   4   5  -2   48.79    4.00   2
   4   5  -1   16.58    3.65   2
   4   5  -1   12.44    2.25   2
   4   5   0   10.59    3.39   2
   4   5   0   11.62    2.35   2
   4   5   1   16.43    3.78   2
   4   5   1   13.84    2.76   2
   4   5   2   43.53    5.35   2
   4   5   2   41.00    3.97   2
   4   5   3   29.93    3.91   2
   4   5   5    2.58    3.79   2
   4   5   5    7.74    3.30   2
   4   5   6    8.15    2.70   2
   4   5   6   16.15    2.47   2
   4   5   7   13.28    4.57   2
   4   5   7   15.38    3.78   2
   4   5   8    6.36    4.29   2
   4   5   8    7.71    2.50   2
   4   5   9    7.32    4.36   2
   4   5   9    3.06    3.86   2
   4   5  12    5.97    4.32   2
   4   5  12   -1.18    3.93   2
   4   5  13   39.01    5.83   2
   4   5  13   22.33    3.76   2
   4   5  14    7.00    2.88   2
   4   5  14   12.53    4.75   2
  -4  -6  15    6.04    2.27   2
  -4  -6  14    0.98    2.14   2
  -4  -6  13    2.77    2.11   2
   4   6 -12    5.43    3.16   2
   4   6 -10   10.53    3.53   2
   4   6  -9    6.62    3.30   2
   4   6  -8    3.08    1.93   2
   4   6  -7    4.51    3.43   2
   4   6  -7    1.13    1.09   2
   4   6  -6   19.16    4.19   2
   4   6  -6   15.17    1.65   2
   4   6  -5    9.74    3.34   2
   4   6  -5    4.74    1.41   2
   4   6  -5    7.37    1.47   2
   4   6  -3   13.27    2.50   2
   4   6  -3   15.76    2.15   2
   4   6  -2    3.43    2.20   2
   4   6  -2   11.22    1.97   2
   4   6  -1    1.60    2.10   2
   4   6  -1    1.95    1.88   2
   4   6   0   30.91    3.22   2
   4   6   0   34.45    3.47   2
   4   6   1   12.17    2.52   2
   4   6   1   10.90    2.80   2
   4   6   2   13.49    2.65   2
   4   6   2   14.43    2.00   2
   4   6   4    3.22    2.26   2
   4   6   4    7.13    1.77   2
   4   6   5    8.47    2.45   2
   4   6   5    1.19    2.81   2
   4   6   6   18.70    3.41   2
   4   6   6   24.87    2.84   2
   4   6   7    8.76    2.53   2
   4   6   7   -2.30    3.31   2
   4   6   8   -5.20    3.90   2
   4   6   8   -1.48    2.07   2
   4   6   9   25.54    5.48   2
   4   6   9   20.32    4.90   2
   4   6  11   -2.75    3.73   2
   4   6  11    2.16    3.57   2
   4   6  12   44.90    7.14   2
   4   6  12   48.38    6.46   2
   4   7 -13   -0.59    3.07   2
   4   7 -12    0.51    1.98   2
   4   7 -10    6.37    2.21   2
   4   7  -9   12.95    4.23   2
   4   7  -8    3.57    3.58   2
   4   7  -7   37.93    3.66   2
   4   7  -6    2.14    3.26   2
   4   7  -6    0.71    1.27   2
   4   7  -5   12.22    3.54   2
   4   7  -5    5.83    1.76   2
   4   7  -3   17.19    2.76   2
   4   7  -3   16.24    2.40   2
   4   7  -2    0.06    1.95   2
   4   7  -2    1.27    1.86   2
   4   7  -1    8.23    3.99   2
   4   7  -1    5.42    2.34   2
   4   7   0   -0.92    3.74   2
   4   7   0   11.19    2.61   2
   4   7   1   28.57    4.87   2
   4   7   1   22.69    3.57   2
   4   7   2   19.28    4.22   2
   4   7   2   13.78    2.19   2
   4   7   4    3.77    4.19   2
   4   7   4    9.19    3.19   2
   4   7   5    7.80    4.32   2
   4   7   5    6.32    3.31   2
   4   7   6   15.11    2.96   2
   4   7   6   10.89    3.72   2
   4   7   7   10.19    2.92   2
   4   7   7   11.41    3.82   2
   4   7   8    2.64    2.42   2
   4   7   8    5.71    3.56   2
   4   7   9    3.87    3.71   2
   4   7  11    9.35    4.36   2
   4   7  11    0.06    3.98   2
   4   8 -11    6.10    2.27   2
   4   8 -10    5.90    3.72   2
   4   8  -9    4.42    2.13   2
   4   8  -8   -6.10    3.88   2
   4   8  -7   12.30    4.58   2
   4   8  -6    4.41    2.34   2
   4   8  -4   10.69    3.91   2
   4   8  -4    5.35    1.99   2
   4   8  -3    1.66    2.33   2
   4   8  -3    1.22    1.87   2
   4   8  -2    3.54    2.19   2
   4   8  -2    0.75    2.05   2
   4   8  -1   14.43    4.61   2
   4   8  -1   14.10    2.89   2
   4   8   0   -0.29    3.99   2
   4   8   0    5.50    2.40   2
   4   8   1    4.13    4.24   2
   4   8   1   11.40    2.98   2
   4   8   3    0.60    2.30   2
   4   8   3    0.82    1.70   2
   4   8   4   -1.55    2.47   2
   4   8   4    6.82    2.90   2
   4   8   5    4.20    2.41   2
   4   8   5    5.59    2.12   2
   4   8   6    9.69    4.29   2
   4   8   6    2.63    3.44   2
   4   8   7    1.49    3.96   2
   4   8   7    4.24    3.33   2
   4   8   8    3.96    4.40   2
   4   8   8   10.87    3.86   2
   4   9  -8   10.89    2.79   2
   4   9  -7   -3.35    3.68   2
   4   9  -6    2.40    3.63   2
   4   9  -4    2.51    3.86   2
   4   9  -3    3.10    2.35   2
   4   9  -3   -1.37    1.87   2
   4   9  -2    6.37    2.50   2
   4   9  -2    1.64    2.24   2
   4   9  -1   -0.07    3.75   2
   4   9  -1    4.89    2.33   2
   4   9   0   10.77    4.79   2
   4   9   0   11.25    1.90   2
   4   9   1    5.08    4.24   2
   4   9   1    9.19    3.01   2
   4   9   3    7.29    2.46   2
   4   9   3    0.57    2.99   2
   4   9   4   -2.50    4.25   2
   4   9   4   -2.17    2.96   2
   4   9   5    2.81    4.01   2
   4   9   5    0.55    2.88   2
  -5  11   7    5.82    2.95   2
  -5  11   6    4.02    2.81   2
  -5  11   6    0.44    2.62   2
  -5  11   5    0.61    2.80   2
  -5  11   5    5.52    2.76   2
  -5  11   4    2.55    2.99   2
  -5  11   4   -2.95    4.20   2
   5 -11  -3    2.87    1.78   2
   5 -11  -3    0.59    2.70   2
   5 -11  -2   11.91    2.29   2
   5 -11  -2   11.23    5.13   2
   5 -11   0    1.76    1.87   2
   5 -11   0   -2.35    4.25   2
   5 -11   1   11.25    2.60   2
   5 -11   1   17.64    3.27   2
   5 -11   2   -2.60    3.72   2
   5 -11   2   -5.85    2.86   2
   5 -11   3    0.73    3.82   2
   5 -11   4    0.99    2.30   2
   5 -11   4    6.92    4.41   2
   5 -11   5    0.56    4.11   2
   5 -11   5    3.63    3.97   2
  -5  10  10    6.37    4.24   2
  -5  10   9    3.92    3.98   2
  -5  10   7    3.92    2.50   2
  -5  10   7    6.23    4.35   2
  -5  10   6   -1.11    2.40   2
  -5  10   6   -3.05    3.90   2
  -5  10   5    7.48    2.91   2
  -5  10   5   15.41    4.71   2
   5 -10  -4   10.77    1.93   2
   5 -10  -4    5.41    2.66   2
   5 -10  -3    2.33    1.64   2
   5 -10  -3    2.29    4.08   2
   5 -10  -2    1.59    2.79   2
   5 -10  -2    7.85    4.19   2
   5 -10   0    5.83    3.03   2
   5 -10   0   -2.37    4.31   2
   5 -10   1   21.93    4.44   2
   5 -10   1    9.31    5.61   2
   5 -10   2   -1.21    2.03   2
   5 -10   2   -1.99    2.55   2
   5 -10   3   11.60    2.87   2
   5 -10   3   10.14    2.81   2
   5 -10   4   10.49    4.06   2
   5 -10   4    2.39    2.77   2
   5 -10   5    5.32    2.74   2
   5 -10   5    5.86    4.64   2
   5 -10   7   11.04    3.11   2
   5 -10   7    8.92    3.34   2
   5 -10   8   11.12    5.28   2
   5 -10   8    7.58    4.78   2
   5 -10   9    2.79    3.09   2
  -5   9  12   25.25    5.57   2
  -5   9  11    1.79    3.71   2
  -5   9  10    5.08    3.87   2
  -5   9   8    4.00    2.21   2
  -5   9   8    6.84    2.73   2
  -5   9   7    8.52    2.54   2
  -5   9   7    9.30    2.71   2
  -5   9   6    3.70    2.21   2
  -5   9   6    6.34    2.52   2
   5  -9  -5   -2.59    1.33   2
   5  -9  -5    4.55    2.38   2
   5  -9  -4    2.70    2.25   2
   5  -9  -4    9.52    4.14   2
   5  -9  -3   21.92    3.47   2
   5  -9  -3   26.49    5.23   2
   5  -9  -1    0.61    1.61   2
   5  -9  -1   -1.96    3.89   2
   5  -9   0   20.72    2.61   2
   5  -9   0   22.96    5.71   2
   5  -9   1    0.69    2.00   2
   5  -9   1    0.95    3.63   2
   5  -9   2   16.33    4.26   2
   5  -9   3    8.73    3.78   2
   5  -9   3    3.50    4.48   2
   5  -9   4    0.89    3.72   2
   5  -9   4    2.42    4.15   2
   5  -9   6   13.21    4.68   2
   5  -9   6   12.17    3.06   2
   5  -9   7    8.95    2.96   2
   5  -9   7    2.45    4.54   2
   5  -9   8    9.71    4.69   2
   5  -9   8   10.88    3.13   2
   5  -9   9    1.74    4.44   2
   5  -9  10   -3.11    4.48   2
   5  -9  10    0.66    4.23   2
   5  -9  11   -0.18    2.61   2
   5  -9  11    1.92    4.05   2
  -5   8  13   15.22    4.34   2
  -5   8  12    1.92    3.61   2
  -5   8  11   10.01    4.26   2
  -5   8  10    1.87    2.19   2
  -5   8   8    1.92    1.60   2
  -5   8   8   -2.04    3.57   2
  -5   8   7    3.18    1.91   2
  -5   8   7    8.42    3.94   2
  -5   8   6   10.76    2.20   2
  -5   8   6   10.16    4.47   2
   5  -8  -5   17.52    2.69   2
   5  -8  -5   21.93    3.24   2
   5  -8  -4   11.06    2.47   2
   5  -8  -4    8.57    2.72   2
   5  -8  -3    4.43    2.40   2
   5  -8  -3   16.81    4.20   2
   5  -8  -1   -3.97    2.80   2
   5  -8  -1    2.17    3.84   2
   5  -8   0   35.71    4.41   2
   5  -8   0   39.33    3.74   2
   5  -8   1    7.30    3.24   2
   5  -8   2   14.13    4.21   2
   5  -8   2   18.58    2.99   2
   5  -8   3   12.78    3.82   2
   5  -8   3    7.48    2.81   2
   5  -8   4   18.86    5.06   2
   5  -8   4   20.77    3.42   2
   5  -8   6   16.15    4.98   2
   5  -8   6   19.38    4.96   2
   5  -8   7    8.41    4.48   2
   5  -8   7   11.06    4.64   2
   5  -8   8   22.17    3.65   2
   5  -8   8   11.85    3.48   2
   5  -8   9    8.33    4.72   2
   5  -8   9    4.00    4.22   2
   5  -8  10    7.51    4.42   2
   5  -8  10    0.72    2.39   2
   5  -8  11   -0.56    4.38   2
  -5   7  15   -3.69    2.19   2
  -5   7  14   -3.13    3.49   2
  -5   7  13   47.52    6.00   2
  -5   7  12   -3.23    3.42   2
  -5   7  11   20.78    4.38   2
  -5   7   9   16.50    1.77   2
  -5   7   9   27.68    4.58   2
  -5   7   8   17.48    2.48   2
  -5   7   8   26.32    4.58   2
  -5   7   7    1.44    1.26   2
  -5   7   7    6.51    1.51   2
  -5   7   7    6.06    2.25   2
   5  -7  -6    0.33    0.98   2
   5  -7  -6    1.98    2.16   2
  -5   7   6    6.46    1.48   2
   5  -7  -5   12.58    2.07   2
   5  -7  -5   11.43    4.05   2
   5  -7  -4   33.63    3.04   2
   5  -7  -4   45.67    3.72   2
   5  -7  -2    0.66    2.23   2
   5  -7  -2   -5.58    3.40   2
   5  -7  -1   32.89    4.01   2
   5  -7  -1   38.83    3.41   2
   5  -7   0    2.18    1.73   2
   5  -7   0    1.63    2.22   2
   5  -7   1   15.30    2.47   2
   5  -7   2    3.35    2.00   2
   5  -7   2    2.61    3.77   2
   5  -7   3    6.87    3.64   2
   5  -7   3    5.07    3.74   2
   5  -7   5   18.51    2.98   2
   5  -7   5    4.06    4.31   2
   5  -7   6   27.08    5.45   2
   5  -7   6   18.70    4.93   2
   5  -7   7   22.95    5.91   2
   5  -7   7   27.22    3.36   2
   5  -7   8   15.28    3.45   2
   5  -7   9    9.20    4.66   2
   5  -7   9    4.67    4.50   2
   5  -7  10   -4.06    4.67   2
   5  -7  10    0.32    4.34   2
   5  -7  12    1.58    4.79   2
   5  -7  12    6.32    4.30   2
   5  -7  13    0.27    4.58   2
   5  -7  13   -0.66    2.50   2
   5  -7  14    1.45    4.71   2
  -5   6  16    2.95    3.22   2
  -5   6  15    3.16    3.07   2
  -5   6  14   17.68    4.13   2
  -5   6  13    6.76    3.53   2
  -5   6  12   23.13    2.81   2
  -5   6  11    5.69    3.16   2
  -5   6   9    0.60    0.99   2
  -5   6   9    0.76    3.01   2
  -5   6   8    2.00    0.87   2
  -5   6   8    3.93    1.31   2
  -5   6   8    5.87    3.18   2
  -5   6   7   16.02    1.82   2
  -5   6   7   17.84    1.56   2
  -5   6   7   18.38    3.94   2
   5  -6  -6   36.24    2.26   2
   5  -6  -6   38.93    3.26   2
  -5   6   6   26.62    2.06   2
   5  -6  -5   27.33    2.16   2
   5  -6  -5   30.39    4.32   2
  -5   6   5   20.98    2.39   2
   5  -6  -4    8.80    1.82   2
   5  -6  -4   15.97    2.44   2
  -5   6   4   10.02    1.74   2
   5  -6  -2    0.07    2.05   2
   5  -6  -2    3.64    1.88   2
   5  -6  -1   48.46    4.04   2
   5  -6  -1   51.23    5.56   2
   5  -6   0    0.36    2.38   2
   5  -6   1   24.45    4.19   2
   5  -6   1   35.75    3.32   2
   5  -6   2   23.29    4.03   2
   5  -6   2   20.73    4.57   2
   5  -6   3   53.31    5.92   2
   5  -6   3   53.88    5.71   2
   5  -6   5   38.68    5.45   2
   5  -6   5   31.06    5.09   2
   5  -6   6    4.90    4.36   2
   5  -6   6   10.24    2.48   2
   5  -6   7   44.29    4.51   2
   5  -6   7   49.54    4.62   2
   5  -6   8   -1.68    2.45   2
   5  -6   9   11.12    4.37   2
   5  -6   9    3.71    2.52   2
   5  -6  10    8.52    4.56   2
   5  -6  12   -2.09    4.53   2
   5  -6  12   -1.81    4.39   2
   5  -6  13    6.21    5.10   2
   5  -6  13    9.17    3.13   2
   5  -6  14    9.52    5.11   2
   5  -6  14    6.37    3.11   2
  -5   5  17   25.19    4.39   2
  -5   5  16    0.28    2.77   2
  -5   5  15    2.55    2.84   2
  -5   5  14   53.86    5.41   2
  -5   5  13   -1.70    1.59   2
  -5   5  12   35.33    4.27   2
  -5   5  10   63.36    5.36   2
  -5   5   9   40.09    2.96   2
  -5   5   8    2.50    0.67   2
  -5   5   8    2.03    0.70   2
  -5   5   8    1.89    2.65   2
  -5   5   7   11.96    1.23   2
  -5   5   7   13.34    1.29   2
  -5   5   7   20.97    3.47   2
   5  -5  -6   37.95    1.89   2
   5  -5  -6   47.78    4.56   2
  -5   5   6   36.77    2.17   2
   5  -5  -5   46.87    2.35   2
   5  -5  -5   48.08    3.29   2
  -5   5   5   41.27    2.63   2
   5  -5  -3    2.56    1.49   2
   5  -5  -3   -2.63    2.39   2
  -5   5   3   -1.28    1.25   2
   5  -5  -2   43.86    3.21   2
   5  -5  -2   41.20    4.77   2
  -5   5   2   35.03    2.74   2
   5  -5  -1    1.60    2.05   2
   5  -5  -1    3.06    1.93   2
   5  -5   0   34.86    3.73   2
   5  -5   1   12.00    3.06   2
   5  -5   1    7.17    2.17   2
   5  -5   2   14.26    3.26   2
   5  -5   2   11.37    2.29   2
   5  -5   4    9.25    3.40   2
   5  -5   4    9.86    3.87   2
   5  -5   5   26.33    4.83   2
   5  -5   5   35.82    5.29   2
   5  -5   6   57.58    4.52   2
   5  -5   6   54.72    6.19   2
   5  -5   7   28.63    5.33   2
   5  -5   8   12.98    4.32   2
   5  -5   8   10.74    4.27   2
   5  -5   9    3.45    3.97   2
   5  -5   9    3.76    2.43   2
   5  -5  11    0.10    4.00   2
   5  -5  11    4.74    2.57   2
   5  -5  12    6.63    4.18   2
   5  -5  12   -6.42    4.03   2
   5  -5  13    5.79    3.02   2
   5  -5  13    6.87    4.81   2
   5  -5  14   12.52    3.28   2
   5  -5  15    1.05    4.38   2
   5  -5  15   -2.24    2.61   2
  -5   4  17   -2.70    2.72   2
  -5   4  16    6.22    1.84   2
  -5   4  15   18.25    3.46   2
  -5   4  14    4.80    2.54   2
  -5   4  13   15.96    2.13   2
  -5   4  10    3.28    2.36   2
  -5   4   9    4.69    2.51   2
  -5   4   8   32.91    3.48   2
  -5   4   7   37.16    1.02   2
  -5   4   7   57.06    4.25   2
   5  -4  -6   51.38    2.07   2
   5  -4  -6   59.62    4.68   2
  -5   4   6   56.98    2.17   2
   5  -4  -5   17.16    1.36   2
   5  -4  -5   17.68    3.12   2
  -5   4   5   17.57    1.61   2
   5  -4  -3    0.11    1.34   2
   5  -4  -3    0.16    1.50   2
  -5   4   3    1.40    1.10   2
   5  -4  -2   51.43    3.31   2
   5  -4  -2   63.52    4.98   2
  -5   4   2   46.65    3.09   2
   5  -4  -1    3.09    1.99   2
  -5   4   1    2.52    1.70   2
   5  -4   0   58.22    4.33   2
   5  -4   0   53.15    4.91   2
   5  -4   1   62.45    4.65   2
   5  -4   1   47.60    3.28   2
   5  -4   2   80.79    5.88   2
   5  -4   4   64.94    5.51   2
   5  -4   4   65.35    6.27   2
   5  -4   5   19.03    4.07   2
   5  -4   5    8.30    4.03   2
   5  -4   6  118.03    9.16   2
   5  -4   7    5.14    3.62   2
   5  -4   7    0.03    2.26   2
   5  -4   8   10.45    3.93   2
   5  -4   8   -0.93    3.74   2
   5  -4   9    6.89    4.09   2
   5  -4  11    9.56    4.59   2
   5  -4  11    6.20    2.72   2
   5  -4  12    9.30    2.90   2
   5  -4  12   12.11    4.80   2
   5  -4  13    9.52    3.14   2
   5  -4  13   14.88    5.09   2
   5  -4  14   -1.49    4.34   2
   5  -4  15   10.95    5.35   2
   5  -4  15   19.81    5.59   2
   5  -4  16   12.75    3.56   2
  -5   3  17    4.34    2.22   2
  -5   3  16    0.93    2.03   2
  -5   3  15   50.97    4.23   2
  -5   3  14    4.16    2.16   2
  -5   3  13   25.66    2.91   2
  -5   3  11   65.74    4.49   2
  -5   3  10   52.98    3.94   2
  -5   3   9    3.14    1.81   2
  -5   3   8   16.47    2.49   2
  -5   3   7  100.17    5.34   2
   5  -3  -6   46.09    1.47   2
   5  -3  -6   50.66    2.53   2
  -5   3   6   50.67    1.51   2
   5  -3  -4    1.00    1.17   2
   5  -3  -3   34.86    2.33   2
   5  -3  -3   30.37    3.58   2
  -5   3   3   32.98    1.97   2
   5  -3  -2    2.22    1.55   2
   5  -3  -2    5.14    2.39   2
  -5   3   2    0.24    1.36   2
   5  -3  -1   47.72    3.16   2
  -5   3   1   36.92    2.89   2
   5  -3   0   19.17    2.87   2
   5  -3   0   14.33    3.13   2
  -5   3   0   16.64    1.56   2
   5  -3   1   16.59    3.10   2
   5  -3   1   14.76    3.26   2
   5  -3   3   18.73    2.33   2
   5  -3   4   44.22    4.73   2
   5  -3   4   39.20    3.39   2
   5  -3   5  116.85    8.14   2
   5  -3   5  104.98    5.75   2
   5  -3   6   51.65    5.64   2
   5  -3   7   19.65    4.59   2
   5  -3   7   10.86    3.94   2
   5  -3   8   -0.77    2.25   2
   5  -3   8    4.81    2.22   2
   5  -3  10   -2.24    4.01   2
   5  -3  11    6.74    4.29   2
   5  -3  11    9.98    2.86   2
   5  -3  12   14.33    3.07   2
   5  -3  12   18.95    3.39   2
   5  -3  13   12.81    2.93   2
   5  -3  13    6.51    5.11   2
   5  -3  14    1.14    4.06   2
   5  -3  14    3.41    4.40   2
   5  -3  15    8.35    4.58   2
   5  -3  15   -1.65    4.77   2
  -5   2  16    9.40    2.24   2
  -5   2  15   -1.11    1.75   2
  -5   2  14   14.62    2.25   2
  -5   2  13   11.00    1.89   2
  -5   2  11   -2.24    1.49   2
  -5   2  10    1.01    1.14   2
  -5   2  10    3.08    1.50   2
  -5   2   9   19.89    1.98   2
  -5   2   9   26.09    2.28   2
  -5   2   8   45.39    2.66   2
  -5   2   8   52.08    3.70   2
  -5   2   7   77.33    3.69   2
  -5   2   7   74.92    4.38   2
   5  -2  -6   22.89    1.15   2
   5  -2  -6   24.80    2.33   2
  -5   2   6   21.98    2.00   2
   5  -2  -4    0.84    1.37   2
   5  -2  -4    1.69    1.67   2
  -5   2   4   -0.44    1.16   2
  -5   2   4   -0.81    1.38   2
   5  -2  -3   42.53    2.45   2
   5  -2  -3   39.86    3.21   2
  -5   2   3   38.65    2.07   2
  -5   2   3   34.38    2.64   2
   5  -2  -2    4.76    1.61   2
   5  -2  -2   -1.00    1.19   2
  -5   2   2    1.17    1.28   2
  -5   2   2    2.69    0.99   2
   5  -2  -1   78.83    4.23   2
   5  -2  -1   72.72    4.75   2
  -5   2   1   74.90    3.83   2
  -5   2   1   64.49    4.11   2
   5  -2   0  102.51    5.55   2
   5  -2   0   95.48    5.85   2
  -5   2   0   97.63    4.86   2
   5  -2   1  102.18    4.92   2
   5  -2   3   87.61    4.58   2
   5  -2   3   83.23    6.06   2
   5  -2   4   10.73    3.21   2
   5  -2   4    1.81    3.29   2
   5  -2   5  262.40   14.56   2
   5  -2   6    0.81    2.23   2
   5  -2   6    6.91    2.17   2
   5  -2   7    5.74    2.51   2
   5  -2   7    3.56    3.45   2
   5  -2   8   26.60    3.27   2
   5  -2  10   12.22    4.40   2
   5  -2  11   29.71    5.06   2
   5  -2  11   23.70    3.17   2
   5  -2  12   16.26    3.05   2
   5  -2  12   14.17    3.10   2
   5  -2  13   -1.22    3.79   2
   5  -2  13    5.71    2.34   2
   5  -2  14   23.05    5.37   2
   5  -2  14   14.01    3.20   2
   5  -2  15   26.51    3.91   2
  -5   1  15   -0.24    1.55   2
  -5   1  14   15.33    1.98   2
   5  -1 -10    1.28    0.48   2
  -5   1  10    1.07    1.00   2
  -5   1  10    2.41    0.97   2
   5  -1  -9    5.20    0.57   2
   5  -1  -9    7.38    0.69   2
  -5   1   9    6.65    1.09   2
   5  -1  -8  117.45    3.57   2
  -5   1   8  128.55    5.24   2
  -5   1   8  119.34    4.80   2
   5  -1  -7   33.17    1.48   2
   5  -1  -7   36.96    1.75   2
  -5   1   7   37.39    2.34   2
  -5   1   7   36.40    1.92   2
  -5   1   6   80.76    3.35   2
   5  -1  -5    4.03    1.09   2
   5  -1  -5    1.26    1.25   2
  -5   1   5    1.26    1.06   2
   5  -1  -4   11.79    1.59   2
   5  -1  -4    8.31    1.84   2
  -5   1   4   10.93    1.85   2
  -5   1   4   14.41    1.55   2
   5  -1  -3    2.39    2.05   2
   5  -1  -3    0.60    1.46   2
  -5   1   3    1.37    1.22   2
  -5   1   3   -0.00    1.17   2
   5  -1  -2   43.85    3.09   2
   5  -1  -2   37.80    2.13   2
  -5   1   2   41.28    2.48   2
  -5   1   2   38.00    2.46   2
   5  -1  -1   34.42    3.13   2
   5  -1  -1   30.54    2.92   2
  -5   1   1   28.44    2.44   2
  -5   1   1   28.53    2.57   2
   5  -1   0   11.59    2.54   2
   5  -1   0    7.52    2.28   2
  -5   1   0    5.54    1.96   2
  -5   1   0    7.68    1.98   2
   5  -1   2   27.56    3.71   2
   5  -1   3   46.50    4.29   2
   5  -1   3   36.76    4.38   2
   5  -1   4  140.88    6.52   2
   5  -1   5   76.22    6.10   2
   5  -1   5   61.84    4.02   2
   5  -1   6   28.18    3.08   2
   5  -1   6   28.94    4.51   2
   5  -1   7   -0.92    3.37   2
   5  -1   7   -0.23    1.91   2
   5  -1   9    1.62    3.71   2
   5  -1  10    7.09    2.47   2
   5  -1  10    6.38    4.28   2
   5  -1  11   36.87    5.43   2
   5  -1  11   17.25    5.40   2
   5  -1  12   14.95    3.21   2
   5  -1  12   12.58    3.06   2
   5  -1  13    4.21    4.34   2
   5  -1  13    1.59    4.22   2
   5  -1  14    7.71    2.84   2
   5  -1  14    0.67    4.31   2
   5  -1  16    1.37    4.38   2
   5   0 -12    1.45    1.11   2
  -5   0  12    1.25    1.05   2
   5   0 -11    1.32    1.05   2
   5   0 -11    3.29    0.85   2
  -5   0  11   -0.05    0.97   2
  -5   0  11    0.65    0.93   2
   5   0 -10   14.47    1.24   2
   5   0 -10   17.42    1.63   2
  -5   0  10   15.13    1.19   2
  -5   0  10   16.46    1.25   2
   5   0  -9   31.99    1.69   2
   5   0  -9   34.23    1.78   2
  -5   0   9   35.91    1.64   2
  -5   0   9   35.17    1.56   2
   5   0  -8   69.23    2.76   2
   5   0  -8   68.27    3.35   2
  -5   0   8   75.11    2.61   2
  -5   0   8   65.46    2.23   2
   5   0  -7   16.76    1.83   2
   5   0  -7   20.03    1.62   2
  -5   0   7   20.28    1.21   2
  -5   0   7   16.02    1.02   2
   5   0  -5    1.08    1.31   2
   5   0  -5   -1.45    0.72   2
  -5   0   5   -1.18    1.15   2
  -5   0   5    0.93    1.00   2
   5   0  -4   19.27    2.07   2
   5   0  -4   15.27    1.75   2
  -5   0   4   15.01    1.75   2
  -5   0   4   14.47    1.20   2
   5   0  -3    6.40    1.12   2
   5   0  -3    2.31    1.30   2
  -5   0   3    1.54    1.62   2
  -5   0   3    6.10    1.55   2
   5   0  -2   67.96    3.13   2
   5   0  -2   67.00    3.74   2
  -5   0   2   68.99    2.86   2
  -5   0   2   69.78    3.12   2
   5   0  -1  100.88    4.20   2
   5   0  -1  102.36    4.90   2
  -5   0   1  105.76    5.20   2
  -5   0   1  103.71    4.79   2
   5   0   0   74.67    3.77   2
   5   0   0   75.07    4.70   2
  -5   0   0   62.38    3.80   2
   5   0   2   96.47    5.98   2
   5   0   3    4.71    2.86   2
   5   0   3   -1.78    2.29   2
   5   0   4  290.28   12.93   2
   5   0   4  272.52   14.38   2
   5   0   5    4.96    3.50   2
   5   0   5    1.19    3.00   2
   5   0   6    6.54    3.60   2
   5   0   6    2.66    1.96   2
   5   0   7   51.40    3.90   2
   5   0   7   48.60    5.72   2
   5   0   9   25.67    4.83   2
   5   0  10   34.95    3.35   2
   5   0  10   35.74    5.42   2
   5   0  11   26.20    4.91   2
   5   0  11   27.70    5.22   2
   5   0  12    7.30    2.71   2
   5   0  12    1.36    4.08   2
   5   0  13   10.09    4.92   2
   5   0  14   42.41    6.62   2
   5   0  16   40.79    4.83   2
   5   1 -14   23.67    2.11   2
   5   1 -13   27.49    2.78   2
   5   1 -12   22.92    1.99   2
   5   1 -12   34.37    2.34   2
  -5  -1  12   23.47    1.12   2
   5   1 -11   -0.48    1.59   2
   5   1 -11    4.36    1.41   2
   5   1 -10    0.80    1.05   2
   5   1 -10    2.13    1.34   2
   5   1  -9   90.04    4.24   2
   5   1  -9  102.89    4.58   2
   5   1  -8   17.55    1.69   2
   5   1  -8   22.36    2.10   2
   5   1  -6    4.86    1.54   2
   5   1  -6    4.16    1.58   2
   5   1  -5    2.05    1.69   2
   5   1  -5    1.12    0.55   2
  -5  -1   5    1.23    1.41   2
  -5  -1   5    0.89    0.45   2
   5   1  -4    1.20    1.71   2
   5   1  -4    1.78    0.86   2
  -5  -1   4   -0.47    1.69   2
  -5  -1   4    1.59    0.86   2
   5   1  -3   24.05    2.67   2
   5   1  -3   24.21    1.65   2
  -5  -1   3   21.05    1.81   2
   5   1  -2   31.44    3.24   2
   5   1  -2   29.89    2.24   2
  -5  -1   2   27.23    1.79   2
   5   1  -1   -2.04    2.23   2
   5   1  -1   -0.11    1.44   2
  -5  -1   1    0.09    1.21   2
   5   1   1   21.69    2.65   2
  -5  -1  -1   15.19    1.53   2
   5   1   2   19.34    3.98   2
   5   1   2   21.53    1.95   2
   5   1   3  121.64    8.27   2
   5   1   3  112.28    6.77   2
   5   1   4   69.74    6.44   2
   5   1   4   60.64    5.26   2
   5   1   5   27.37    4.85   2
   5   1   5   25.63    2.60   2
   5   1   6    2.67    2.06   2
   5   1   6    1.11    3.11   2
   5   1   8    9.50    4.04   2
   5   1   8    1.80    3.28   2
   5   1   9    9.79    4.10   2
   5   1  10   38.35    3.57   2
   5   1  10   32.09    5.65   2
   5   1  11   27.43    5.28   2
   5   1  11   19.76    4.78   2
   5   1  12    2.42    3.79   2
   5   1  12   -1.37    2.32   2
   5   1  13   10.40    2.91   2
   5   1  13    6.78    2.76   2
   5   2 -13    2.89    1.67   2
   5   2 -12    2.04    1.64   2
   5   2 -11    8.26    2.10   2
   5   2 -10   21.47    2.42   2
   5   2  -9   54.07    3.62   2
   5   2  -8   15.08    2.30   2
   5   2  -6    1.55    1.94   2
   5   2  -5    5.00    2.01   2
   5   2  -5    2.25    0.41   2
  -5  -2   5    1.35    0.34   2
   5   2  -4    2.12    1.28   2
   5   2  -4    2.72    0.99   2
  -5  -2   4    4.15    0.90   2
   5   2  -3   46.33    2.84   2
   5   2  -3   45.42    2.68   2
  -5  -2   3   43.29    2.24   2
   5   2  -2   75.38    5.05   2
   5   2  -2   76.11    3.50   2
  -5  -2   2   70.74    3.07   2
   5   2  -1   31.77    3.88   2
   5   2  -1   29.14    2.62   2
  -5  -2   1   26.73    2.04   2
   5   2   1   86.31    6.25   2
   5   2   1   75.85    4.70   2
   5   2   2   -1.90    3.23   2
   5   2   2    5.37    2.36   2
   5   2   3  210.62   12.07   2
   5   2   3  199.04    8.73   2
   5   2   4    3.88    3.59   2
   5   2   4    4.20    2.96   2
   5   2   5   -1.99    2.08   2
   5   2   5    4.43    2.78   2
   5   2   6   54.55    4.45   2
   5   2   8   12.07    4.42   2
   5   2   8   18.87    4.49   2
   5   2   9   47.33    6.16   2
   5   2   9   46.70    4.30   2
   5   2  10   19.19    4.88   2
   5   2  10   18.07    3.04   2
   5   2  11   18.37    3.31   2
   5   2  11   18.84    5.07   2
   5   2  12    9.43    4.84   2
   5   2  15   39.27    4.33   2
   5   3 -15   19.98    2.94   2
   5   3 -14   10.13    2.39   2
   5   3 -13   19.44    2.81   2
   5   3 -11   -2.98    2.19   2
   5   3 -10   73.28    5.19   2
   5   3  -9   11.26    1.57   2
   5   3  -7    2.04    1.37   2
   5   3  -6   -0.07    2.08   2
   5   3  -5    0.89    2.19   2
   5   3  -5    0.54    0.43   2
   5   3  -5   -0.57    0.52   2
   5   3  -4    7.99    2.74   2
   5   3  -4   10.02    1.37   2
  -5  -3   4    8.98    1.11   2
   5   3  -3   16.16    3.22   2
   5   3  -3   19.91    1.67   2
  -5  -3   3   16.77    1.52   2
   5   3  -2    3.14    2.62   2
   5   3  -2    1.39    1.30   2
  -5  -3   2    0.65    1.05   2
   5   3   0   19.30    3.78   2
   5   3   0   19.77    2.52   2
   5   3   1    9.01    3.44   2
   5   3   1    9.52    2.43   2
   5   3   2   70.11    6.11   2
   5   3   2   70.02    5.08   2
   5   3   3   46.74    5.72   2
   5   3   3   38.01    4.24   2
   5   3   4   25.86    4.71   2
   5   3   4   20.11    3.79   2
   5   3   5    2.32    2.90   2
   5   3   7   -0.38    1.93   2
   5   3   8   -1.93    2.21   2
   5   3   8    6.18    3.37   2
   5   3   9   35.92    3.90   2
   5   3   9   38.14    5.54   2
   5   3  10   15.39    5.03   2
   5   3  10   20.80    4.44   2
   5   3  11   10.89    4.68   2
   5   3  11    6.96    2.67   2
   5   3  12    4.23    2.67   2
   5   3  14    3.61    4.72   2
   5   4 -14    2.44    2.21   2
   5   4 -13    2.09    2.28   2
   5   4 -12    4.56    2.45   2
   5   4 -11    8.22    2.86   2
   5   4 -10   25.72    2.57   2
   5   4  -9    8.27    2.84   2
   5   4  -7    1.23    2.23   2
   5   4  -6    3.82    2.43   2
   5   4  -6    0.09    0.42   2
   5   4  -6    0.35    0.50   2
   5   4  -5    2.46    2.60   2
   5   4  -5    1.30    0.57   2
   5   4  -5    1.87    1.03   2
   5   4  -4   26.95    3.91   2
   5   4  -4   21.21    1.71   2
   5   4  -4   27.99    2.07   2
   5   4  -3   36.61    4.35   2
   5   4  -3   42.44    2.52   2
  -5  -4   3   31.46    2.10   2
   5   4  -2    9.95    3.00   2
   5   4  -2    5.55    1.77   2
  -5  -4   2    1.98    1.20   2
   5   4   0   45.21    5.24   2
   5   4   0   48.60    3.77   2
   5   4   1   -5.49    3.19   2
   5   4   1   -1.06    2.26   2
   5   4   2  110.72    7.99   2
   5   4   2  108.80    6.77   2
   5   4   3    5.07    3.89   2
   5   4   3   11.68    2.99   2
   5   4   4   -3.09    3.57   2
   5   4   4    3.48    1.72   2
   5   4   5   46.37    4.23   2
   5   4   5   48.21    3.60   2
   5   4   7   10.92    2.78   2
   5   4   7    8.96    3.84   2
   5   4   8   34.38    5.82   2
   5   4   8   39.57    3.58   2
   5   4   9   11.52    4.72   2
   5   4   9   11.13    2.65   2
   5   4  10   28.23    5.60   2
   5   4  10   22.06    5.22   2
   5   4  11    1.95    2.63   2
   5   4  11    5.71    4.13   2
   5   5 -15    1.36    2.51   2
   5   5 -14    7.88    2.98   2
   5   5 -13    4.11    2.76   2
   5   5 -12   -4.32    2.69   2
   5   5 -11   40.44    4.79   2
   5   5 -10    5.76    1.90   2
   5   5  -8    3.78    2.87   2
   5   5  -7   -3.28    2.78   2
   5   5  -6    0.37    1.69   2
   5   5  -6    2.23    1.07   2
   5   5  -5    8.65    3.10   2
   5   5  -5    4.41    1.20   2
   5   5  -4   10.18    3.34   2
   5   5  -4    5.73    1.53   2
   5   5  -4    9.84    1.57   2
   5   5  -3    5.08    3.02   2
   5   5  -3    2.58    1.18   2
   5   5  -3    1.36    1.55   2
   5   5  -1   17.07    3.61   2
   5   5  -1    9.19    2.31   2
   5   5   0    3.50    3.48   2
   5   5   0    5.21    2.35   2
   5   5   1   22.47    4.89   2
   5   5   1   25.96    3.46   2
   5   5   2   18.13    4.40   2
   5   5   2   20.24    2.33   2
   5   5   3   15.45    4.26   2
   5   5   3   17.10    3.48   2
   5   5   4   -2.85    2.34   2
   5   5   4    0.18    2.85   2
   5   5   6    0.00    2.25   2
   5   5   6    1.55    1.93   2
   5   5   7    6.24    4.07   2
   5   5   7    2.49    3.50   2
   5   5   8   31.24    5.36   2
   5   5   8   25.29    4.93   2
   5   5   9   16.48    4.99   2
   5   5   9   12.41    2.73   2
   5   5  10    2.99    4.52   2
   5   5  10    6.04    3.93   2
   5   5  11    6.41    2.95   2
   5   5  11    3.58    3.98   2
   5   6 -13    1.48    2.88   2
   5   6 -12    1.24    1.84   2
   5   6 -11    8.73    3.52   2
   5   6 -10    4.89    2.20   2
   5   6  -8    4.90    3.03   2
   5   6  -7   -2.24    1.88   2
   5   6  -6   -1.60    3.01   2
   5   6  -5   18.37    3.96   2
   5   6  -5   11.12    2.25   2
   5   6  -4   20.24    3.98   2
   5   6  -4   15.31    2.66   2
   5   6  -3   -3.40    3.22   2
   5   6  -3   -0.60    1.68   2
   5   6  -1   19.01    2.87   2
   5   6  -1   20.67    2.83   2
   5   6   0    2.63    2.12   2
   5   6   0    6.16    2.29   2
   5   6   1   35.37    5.41   2
   5   6   1   36.27    4.05   2
   5   6   2    5.98    3.88   2
   5   6   2    7.07    2.83   2
   5   6   3   -0.94    3.39   2
   5   6   3   -0.54    1.66   2
   5   6   4   23.65    5.23   2
   5   6   4   28.69    4.08   2
   5   6   6    8.23    2.79   2
   5   6   6    9.00    2.41   2
   5   6   7   27.88    3.75   2
   5   6   7   30.14    4.64   2
   5   6   8   -4.75    4.08   2
   5   6   8    2.18    3.32   2
   5   6   9   23.54    3.13   2
   5   6  10    1.33    4.32   2
   5   6  10    4.10    3.72   2
   5   6  11    7.99    3.21   2
   5   6  11    9.31    2.87   2
   5   7 -12   18.87    4.23   2
   5   7 -11    2.31    3.49   2
   5   7  -9    7.73    3.35   2
   5   7  -8    2.09    3.14   2
   5   7  -7   -3.21    2.14   2
   5   7  -6    2.54    3.37   2
   5   7  -5    5.59    3.38   2
   5   7  -4    8.02    3.88   2
   5   7  -2    3.25    3.97   2
   5   7  -2    8.44    2.29   2
   5   7  -1    1.42    3.34   2
   5   7  -1    1.95    2.10   2
   5   7   0   10.73    4.02   2
   5   7   0   10.92    1.82   2
   5   7   1    6.97    3.91   2
   5   7   1    5.29    2.75   2
   5   7   2    9.59    2.65   2
   5   7   2    1.81    2.81   2
   5   7   3   -0.50    2.23   2
   5   7   3    5.14    2.65   2
   5   7   5   -2.43    3.58   2
   5   7   5    0.31    1.81   2
   5   7   6    2.37    4.14   2
   5   7   6    3.54    3.31   2
   5   7   7   21.96    3.46   2
   5   7   7   16.21    4.17   2
   5   7   8    4.61    2.87   2
   5   7   8    4.20    2.35   2
   5   8  -9    3.07    2.13   2
   5   8  -8    2.89    3.63   2
   5   8  -7    3.49    3.61   2
   5   8  -6    5.60    2.47   2
   5   8  -5    3.88    3.77   2
   5   8  -4   -0.17    2.11   2
   5   8  -2   15.63    4.05   2
   5   8  -2    8.53    2.51   2
   5   8  -1    5.10    3.75   2
   5   8  -1    3.60    2.30   2
   5   8   0   13.42    2.86   2
   5   8   0    6.64    2.85   2
   5   8   1    4.53    2.13   2
   5   8   1    2.12    2.50   2
   5   8   2    4.05    3.66   2
   5   8   2   -0.95    1.51   2
   5   8   3   16.19    5.00   2
   5   8   3   16.34    3.58   2
   5   8   5   -4.60    2.54   2
   5   8   5   -1.52    3.00   2
   5   8   6   15.01    4.99   2
   5   8   6   13.50    3.99   2
   5   9  -3   10.30    2.81   2
   5   9  -2   -1.06    3.48   2
   5   9  -1    1.09    3.78   2
   5   9   0    2.58    2.35   2
   5   9   0    1.01    2.38   2
  -6  11   5    8.98    3.08   2
   6 -11  -4    8.78    2.00   2
   6 -11  -4   13.96    3.29   2
   6 -11  -3    2.09    2.49   2
   6 -11  -3   -1.76    4.15   2
   6 -11  -2    1.35    2.76   2
   6 -11  -2    1.31    4.34   2
   6 -11  -1   -1.80    2.80   2
   6 -11  -1    5.95    4.20   2
   6 -11   0    3.06    2.90   2
   6 -11   0    4.69    4.56   2
   6 -11   2   -1.01    1.92   2
   6 -11   2   -3.94    2.78   2
   6 -11   3   10.97    4.00   2
   6 -11   3    0.16    4.32   2
  -6  10   9   10.36    4.65   2
  -6  10   8   10.17    4.73   2
  -6  10   7    0.64    3.92   2
  -6  10   6   -4.54    4.39   2
   6 -10  -5    1.07    1.35   2
   6 -10  -5   -2.65    2.36   2
   6 -10  -4   16.06    3.04   2
   6 -10  -4   24.00    5.51   2
   6 -10  -3   -0.42    2.44   2
   6 -10  -3   -2.90    3.95   2
   6 -10  -2    5.52    2.67   2
   6 -10  -2   -0.19    4.46   2
   6 -10  -1   -1.67    1.68   2
   6 -10  -1    2.75    3.97   2
   6 -10   1    9.96    3.67   2
   6 -10   1   -0.57    4.50   2
   6 -10   2    7.18    4.06   2
   6 -10   2    9.87    2.81   2
   6 -10   3   -0.52    3.55   2
   6 -10   3   -1.57    2.69   2
   6 -10   4    2.47    2.37   2
   6 -10   5   11.35    4.36   2
   6 -10   5   10.99    5.25   2
   6 -10   6    3.95    2.78   2
   6 -10   6    2.88    2.95   2
  -6   9  11    2.87    3.74   2
  -6   9  10   -2.24    3.69   2
  -6   9   9   -1.19    2.36   2
  -6   9   8   27.54    3.83   2
   6  -9  -6    1.55    1.18   2
   6  -9  -6    1.12    2.47   2
   6  -9  -5   22.31    2.11   2
   6  -9  -5   23.01    5.44   2
   6  -9  -4    4.17    2.30   2
   6  -9  -4   10.02    4.27   2
   6  -9  -3    9.13    2.54   2
   6  -9  -3   13.67    4.72   2
   6  -9  -2    1.01    2.52   2
   6  -9  -2    3.30    3.87   2
   6  -9  -1    0.02    2.68   2
   6  -9  -1   -2.48    4.07   2
   6  -9   1    0.39    2.88   2
   6  -9   1   -2.19    3.50   2
   6  -9   2    9.07    3.81   2
   6  -9   2   16.53    4.87   2
   6  -9   3    9.71    2.65   2
   6  -9   4    9.10    4.12   2
   6  -9   4    9.87    3.19   2
   6  -9   5   10.29    4.39   2
   6  -9   5   13.84    5.00   2
   6  -9   6   -0.21    3.50   2
   6  -9   6   -2.22    4.41   2
   6  -9   8    2.76    4.69   2
   6  -9   8    7.05    4.54   2
   6  -9   9    4.22    4.13   2
   6  -9   9   -2.96    3.93   2
  -6   8  13   -0.18    3.49   2
  -6   8  12    2.51    3.65   2
  -6   8  11    4.96    3.68   2
  -6   8  10   18.76    3.07   2
  -6   8   9    2.81    2.32   2
  -6   8   8   14.07    4.64   2
  -6   8   7    0.98    1.42   2
  -6   8   7    3.00    3.77   2
   6  -8  -6    2.22    1.71   2
   6  -8  -6    3.24    2.28   2
   6  -8  -5   32.81    3.20   2
   6  -8  -5   44.76    3.98   2
   6  -8  -4    1.28    1.77   2
   6  -8  -4    0.18    3.61   2
   6  -8  -3    8.84    2.47   2
   6  -8  -3    9.73    4.38   2
   6  -8  -2    3.08    2.43   2
   6  -8  -2   -1.82    3.89   2
   6  -8   0   10.50    3.25   2
   6  -8   0   11.33    4.67   2
   6  -8   1   20.41    3.89   2
   6  -8   1   19.42    5.11   2
   6  -8   2    4.68    3.57   2
   6  -8   2   12.02    4.13   2
   6  -8   3    0.45    1.99   2
   6  -8   4    7.91    4.04   2
   6  -8   4   12.66    4.80   2
   6  -8   5    8.72    4.21   2
   6  -8   5    7.35    4.52   2
   6  -8   7   14.30    3.28   2
   6  -8   7   15.17    5.05   2
   6  -8   8   -1.64    4.52   2
   6  -8   8    7.67    4.34   2
   6  -8   9   13.26    5.14   2
   6  -8   9    5.51    2.91   2
   6  -8  10    5.64    5.58   2
   6  -8  10   20.10    5.17   2
   6  -8  11    0.83    4.88   2
   6  -8  11    2.78    2.82   2
  -6   7  14   -0.41    1.97   2
  -6   7  13   -0.24    2.91   2
  -6   7  12    4.57    3.54   2
  -6   7  11    9.61    3.75   2
  -6   7  10   -1.60    2.07   2
  -6   7   9   51.10    6.24   2
  -6   7   7    6.50    1.50   2
  -6   7   7    9.33    2.46   2
   6  -7  -6   39.38    2.77   2
   6  -7  -6   63.13    5.85   2
   6  -7  -5    1.24    1.47   2
   6  -7  -5    3.51    3.49   2
   6  -7  -4   22.42    2.52   2
   6  -7  -4   27.98    3.24   2
   6  -7  -3    1.55    1.88   2
   6  -7  -3    2.00    3.53   2
   6  -7  -2    5.82    2.44   2
   6  -7  -2    7.54    3.62   2
   6  -7   0    7.77    1.87   2
   6  -7   0    1.64    2.34   2
   6  -7   1   18.88    2.40   2
   6  -7   1   19.66    4.99   2
   6  -7   2   19.29    4.25   2
   6  -7   3   16.42    4.25   2
   6  -7   3   16.37    4.83   2
   6  -7   4    8.30    2.57   2
   6  -7   4   10.12    2.64   2
   6  -7   5    0.72    4.11   2
   6  -7   5    6.56    2.58   2
   6  -7   7    9.82    2.97   2
   6  -7   7   17.66    4.86   2
   6  -7   8   -1.01    2.52   2
   6  -7   9    3.14    4.50   2
   6  -7   9    3.11    4.61   2
   6  -7  10    1.08    4.50   2
   6  -7  10    1.86    2.79   2
   6  -7  11    9.60    5.01   2
   6  -7  11   11.48    5.45   2
   6  -7  12    7.09    4.83   2
   6  -7  12    3.56    2.97   2
  -6   6  15    1.82    2.93   2
  -6   6  14    8.14    3.42   2
  -6   6  13    0.30    2.82   2
  -6   6  12    7.20    3.31   2
  -6   6  11   27.47    4.27   2
  -6   6  10    8.79    2.15   2
  -6   6   9   22.05    4.37   2
  -6   6   8    0.58    0.68   2
  -6   6   8    2.26    1.82   2
   6  -6  -7    0.02    0.91   2
   6  -6  -7    1.26    1.78   2
   6  -6  -6   60.98    2.99   2
   6  -6  -6   74.32    4.52   2
  -6   6   6   49.85    3.30   2
   6  -6  -5   -1.62    1.34   2
   6  -6  -5    2.33    2.95   2
  -6   6   5    2.79    1.18   2
   6  -6  -4   13.44    2.01   2
   6  -6  -4   17.43    2.73   2
  -6   6   4   12.25    1.88   2
   6  -6  -3    7.60    2.09   2
   6  -6  -3    8.58    3.50   2
   6  -6  -1   19.62    3.22   2
   6  -6  -1   17.10    4.22   2
   6  -6   0   29.12    4.12   2
   6  -6   0   40.24    5.22   2
   6  -6   1   19.05    3.35   2
   6  -6   1   10.79    4.22   2
   6  -6   2   11.39    3.69   2
   6  -6   3   26.25    2.93   2
   6  -6   3   18.30    2.99   2
   6  -6   4   19.44    4.19   2
   6  -6   4   11.83    2.75   2
   6  -6   6   24.82    3.38   2
   6  -6   6   21.40    5.34   2
   6  -6   7    2.47    2.29   2
   6  -6   7    2.31    2.50   2
   6  -6   8    5.70    4.47   2
   6  -6   8    8.31    4.31   2
   6  -6   9    7.11    5.17   2
   6  -6   9   23.65    5.26   2
   6  -6  10   22.46    5.37   2
   6  -6  10    9.79    5.44   2
   6  -6  11   36.09    6.54   2
   6  -6  11   26.52    6.34   2
   6  -6  13   14.64    5.06   2
   6  -6  13    1.58    2.87   2
  -6   5  15   -3.94    2.72   2
  -6   5  14   -2.72    2.62   2
  -6   5  13    1.71    2.63   2
  -6   5  12   17.25    3.51   2
  -6   5  11   -3.30    2.67   2
  -6   5  10   66.69    5.77   2
  -6   5   8    9.57    3.13   2
   6  -5  -7   63.34    2.62   2
   6  -5  -7   73.10    4.24   2
  -6   5   7   58.13    2.53   2
   6  -5  -6    0.79    0.78   2
   6  -5  -6    0.61    2.56   2
  -6   5   6   -0.03    0.77   2
   6  -5  -5   37.84    2.73   2
   6  -5  -5   40.08    4.53   2
  -6   5   5   31.70    2.03   2
   6  -5  -4   -0.33    1.21   2
   6  -5  -4    0.42    1.69   2
  -6   5   4   -0.07    1.10   2
   6  -5  -3    6.71    1.77   2
   6  -5  -3    9.24    3.39   2
  -6   5   3    5.47    1.97   2
   6  -5  -1    4.83    1.50   2
   6  -5  -1    4.91    1.93   2
   6  -5   0   32.10    2.59   2
   6  -5   0   38.35    4.78   2
   6  -5   1   55.74    4.91   2
   6  -5   2   37.70    4.64   2
   6  -5   3   16.02    3.47   2
   6  -5   3    7.07    3.93   2
   6  -5   4    2.39    2.13   2
   6  -5   4    5.73    3.68   2
   6  -5   6   22.14    4.92   2
   6  -5   6   12.42    4.46   2
   6  -5   7   12.54    4.20   2
   6  -5   7    3.01    2.57   2
   6  -5   8   -0.14    4.26   2
   6  -5   8    9.16    4.22   2
   6  -5   9   16.73    4.99   2
   6  -5   9   12.79    3.16   2
   6  -5  10   13.19    5.13   2
   6  -5  10   15.10    5.24   2
   6  -5  11   13.95    3.43   2
   6  -5  13    0.13    2.78   2
   6  -5  13    6.69    4.47   2
   6  -5  14   26.86    6.12   2
   6  -5  14   24.63    6.19   2
  -6   4  16    1.20    2.32   2
  -6   4  15    7.09    2.41   2
  -6   4  14    0.43    2.16   2
  -6   4  13    7.23    2.53   2
  -6   4  12   26.49    3.36   2
  -6   4  11    8.18    2.63   2
  -6   4  10   23.36    3.29   2
  -6   4   9    3.27    2.38   2
  -6   4   8   -1.14    2.23   2
   6  -4  -7   74.40    2.10   2
   6  -4  -7   97.00    5.90   2
  -6   4   7   76.41    2.38   2
   6  -4  -6    1.72    0.93   2
   6  -4  -6    2.97    2.35   2
  -6   4   6    0.58    0.64   2
   6  -4  -5   22.90    1.98   2
   6  -4  -5   19.12    3.44   2
  -6   4   5   18.72    1.86   2
   6  -4  -4   19.21    1.79   2
   6  -4  -4   17.92    3.15   2
  -6   4   4   17.72    1.61   2
   6  -4  -2   28.75    2.73   2
  -6   4   2   28.43    2.67   2
   6  -4  -1   46.93    3.77   2
   6  -4  -1   53.77    4.89   2
   6  -4   0   16.32    2.99   2
   6  -4   0   18.49    2.35   2
   6  -4   1   41.24    2.93   2
   6  -4   2   29.25    4.05   2
   6  -4   2   25.62    4.32   2
   6  -4   3   19.03    3.98   2
   6  -4   3   24.77    4.20   2
   6  -4   5   18.27    4.77   2
   6  -4   6    0.37    3.15   2
   6  -4   6    1.50    3.71   2
   6  -4   7    3.94    3.86   2
   6  -4   7    8.22    2.83   2
   6  -4   8   31.49    5.46   2
   6  -4   9   23.97    5.19   2
   6  -4   9   26.07    3.48   2
   6  -4  10   45.28    6.74   2
   6  -4  10   44.63    6.47   2
   6  -4  12    1.42    2.70   2
   6  -4  13   41.33    6.83   2
   6  -4  13   35.56    6.48   2
   6  -4  14   -3.38    4.22   2
   6  -4  14   -1.88    4.59   2
  -6   3  15    0.06    1.71   2
  -6   3  14    2.28    1.76   2
  -6   3  13   16.36    2.46   2
  -6   3  12   -0.40    1.76   2
  -6   3  11   73.49    4.54   2
  -6   3   9    9.74    1.99   2
  -6   3   8   88.49    5.18   2
   6  -3  -7    0.32    0.42   2
   6  -3  -7    2.63    1.87   2
  -6   3   7    1.21    0.50   2
   6  -3  -6   48.04    2.12   2
   6  -3  -6   37.84    3.72   2
  -6   3   6   45.60    1.95   2
   6  -3  -5    5.37    1.17   2
   6  -3  -5    6.63    2.31   2
  -6   3   5    3.60    1.30   2
   6  -3  -4    9.40    2.86   2
  -6   3   4   12.68    1.40   2
   6  -3  -2    8.32    2.59   2
   6  -3  -1   43.76    3.57   2
   6  -3  -1   44.61    4.52   2
   6  -3   0   79.61    5.23   2
   6  -3   0   73.79    5.94   2
   6  -3   1   62.25    4.77   2
   6  -3   2   19.76    3.59   2
   6  -3   2   16.11    2.51   2
   6  -3   3    2.82    1.92   2
   6  -3   5   18.51    4.35   2
   6  -3   6    8.82    3.72   2
   6  -3   6   11.13    3.95   2
   6  -3   7   -2.47    2.33   2
   6  -3   8   24.68    5.16   2
   6  -3   9   25.37    5.50   2
   6  -3   9   24.67    3.59   2
   6  -3  10   12.56    5.05   2
   6  -3  12   -1.03    4.37   2
   6  -3  13   51.71    7.12   2
   6  -3  13   52.31    5.54   2
   6  -3  14   -1.35    2.32   2
   6  -3  14    0.95    2.67   2
   6  -3  15    0.16    4.10   2
   6  -3  15    0.60    2.71   2
  -6   2  13   28.37    2.40   2
  -6   2  12   10.82    1.66   2
  -6   2  11   14.20    1.88   2
  -6   2  11   26.67    2.25   2
  -6   2  10    0.47    1.04   2
  -6   2  10    1.53    1.41   2
  -6   2   9   -0.64    1.51   2
  -6   2   9    2.46    1.28   2
   6  -2  -8   63.20    1.68   2
   6  -2  -8   68.71    1.95   2
  -6   2   8   69.17    3.59   2
  -6   2   8   75.20    3.78   2
   6  -2  -7    0.13    0.86   2
   6  -2  -7    0.06    1.52   2
  -6   2   7    1.07    0.79   2
  -6   2   7    1.07    1.20   2
   6  -2  -6   25.15    1.88   2
   6  -2  -6   23.59    2.43   2
  -6   2   6   24.20    1.81   2
  -6   2   6   21.81    2.03   2
   6  -2  -5   36.55    2.61   2
   6  -2  -5   35.39    2.68   2
  -6   2   5   39.81    2.46   2
  -6   2   5   30.22    2.43   2
  -6   2   4   44.76    3.26   2
   6  -2  -3   82.79    3.94   2
   6  -2  -3   44.86    4.01   2
   6  -2  -2   67.72    3.97   2
   6  -2  -2   63.97    4.55   2
  -6   2   2   63.08    3.43   2
   6  -2  -1   19.88    2.81   2
   6  -2  -1   12.99    3.12   2
   6  -2   0   96.77    5.86   2
   6  -2   1   27.15    2.43   2
   6  -2   1   22.88    2.50   2
   6  -2   2   31.18    4.09   2
   6  -2   2   28.42    4.14   2
   6  -2   4   12.54    3.77   2
   6  -2   5    4.65    2.08   2
   6  -2   5    1.70    2.11   2
   6  -2   6   10.21    4.12   2
   6  -2   7   45.41    6.64   2
   6  -2   7   50.01    4.09   2
   6  -2   8   35.34    3.97   2
   6  -2   8   28.07    5.70   2
   6  -2   9   45.34    4.36   2
   6  -2  11    7.75    4.40   2
   6  -2  12   63.53    7.53   2
   6  -2  13    0.66    2.42   2
   6  -2  13   -7.59    4.22   2
   6  -2  14    2.03    4.01   2
   6  -2  14    0.15    4.09   2
   6  -2  15   -0.22    4.30   2
   6  -2  15   -1.44    4.09   2
  -6   1  12   43.62    2.19   2
   6  -1 -10    1.90    0.49   2
   6  -1 -10    1.81    0.67   2
  -6   1  10    1.67    1.22   2
  -6   1  10    2.15    0.90   2
   6  -1  -9   47.42    1.86   2
   6  -1  -9   56.96    2.26   2
  -6   1   9   49.67    2.51   2
  -6   1   9   52.71    2.85   2
   6  -1  -8    0.62    0.83   2
   6  -1  -8   -0.07    1.03   2
  -6   1   8    0.00    0.92   2
  -6   1   8   -0.39    0.95   2
   6  -1  -7   33.45    1.76   2
   6  -1  -7   30.48    1.45   2
  -6   1   7   28.97    2.06   2
   6  -1  -6   11.53    1.87   2
   6  -1  -6    9.53    1.53   2
  -6   1   6   10.58    1.90   2
  -6   1   6    9.26    1.67   2
   6  -1  -5   10.17    1.62   2
   6  -1  -5   11.61    1.77   2
  -6   1   5   11.46    1.49   2
  -6   1   5    9.23    1.45   2
   6  -1  -3    5.47    1.97   2
   6  -1  -3    2.33    1.82   2
  -6   1   3    3.74    1.50   2
  -6   1   3    5.28    1.51   2
   6  -1  -2   43.27    3.47   2
   6  -1  -2   43.46    3.51   2
  -6   1   2   35.42    2.82   2
   6  -1  -1  113.73    6.31   2
   6  -1  -1  109.45    6.12   2
   6  -1   0   71.90    3.60   2
   6  -1   0   69.22    5.05   2
   6  -1   1   32.10    3.85   2
   6  -1   1   31.32    3.44   2
   6  -1   2    1.87    1.67   2
   6  -1   2    4.23    1.70   2
   6  -1   4   15.26    2.53   2
   6  -1   4   15.94    3.66   2
   6  -1   5   11.52    3.63   2
   6  -1   5    5.13    3.43   2
   6  -1   6   12.59    4.00   2
   6  -1   6   13.06    3.87   2
   6  -1   7   37.95    5.44   2
   6  -1   7   37.06    3.50   2
   6  -1   8   32.82    3.71   2
   6  -1   8   32.02    5.20   2
   6  -1   9   12.26    4.41   2
   6  -1  11    8.14    2.80   2
   6  -1  12  105.27    9.84   2
   6  -1  12   79.98    6.18   2
   6  -1  13   -4.24    2.52   2
   6  -1  13    2.44    2.42   2
   6  -1  14    2.24    4.00   2
   6  -1  14   -0.80    2.55   2
   6  -1  15   11.20    3.14   2
   6  -1  15    6.48    2.93   2
   6   0 -11    4.08    0.97   2
   6   0 -10   -0.05    1.08   2
   6   0 -10   -0.07    1.16   2
  -6   0  10    0.33    0.50   2
   6   0  -9   43.18    2.27   2
   6   0  -9   50.41    2.88   2
  -6   0   9   44.38    1.67   2
  -6   0   9   38.21    1.29   2
   6   0  -8   -0.22    0.94   2
   6   0  -8    0.09    1.55   2
  -6   0   8   -0.27    0.63   2
  -6   0   8    1.06    0.60   2
   6   0  -7   17.07    1.71   2
   6   0  -7   16.80    2.34   2
  -6   0   7   14.69    1.22   2
  -6   0   7   12.09    1.07   2
   6   0  -6   44.72    3.44   2
   6   0  -6   34.89    2.17   2
  -6   0   6   35.26    2.49   2
  -6   0   6   37.81    2.00   2
   6   0  -5   45.38    2.87   2
  -6   0   5   35.27    2.01   2
   6   0  -4   30.68    2.18   2
  -6   0   4   29.97    2.64   2
  -6   0   4   28.19    1.87   2
   6   0  -3   57.77    3.90   2
   6   0  -3   53.04    3.04   2
  -6   0   3   51.99    3.41   2
   6   0  -2    7.80    2.34   2
   6   0  -2    3.12    1.89   2
  -6   0   2    6.39    1.51   2
   6   0  -1  124.79    5.34   2
   6   0  -1  124.70    6.17   2
  -6   0   1   99.72    5.12   2
   6   0   0   23.44    3.60   2
   6   0   0   20.47    2.91   2
   6   0   1   22.79    3.66   2
   6   0   1   20.05    3.13   2
   6   0   4    1.25    1.70   2
   6   0   5   11.69    2.72   2
   6   0   5   12.76    3.58   2
   6   0   6   80.23    7.05   2
   6   0   6   57.77    6.36   2
   6   0   7   31.17    3.40   2
   6   0   7   26.59    3.25   2
   6   0   8   54.21    6.19   2
   6   0  11   75.92    8.11   2
   6   0  12    2.97    2.65   2
   6   0  12    5.04    4.57   2
   6   0  13    0.33    4.02   2
   6   0  13    0.67    4.07   2
   6   0  14    0.83    2.56   2
   6   0  14    2.74    4.14   2
   6   1 -11    1.53    1.31   2
   6   1 -10   17.00    1.89   2
   6   1 -10   29.84    2.29   2
   6   1  -9    0.34    1.31   2
   6   1  -9    1.15    1.38   2
   6   1  -8   12.49    1.81   2
   6   1  -8   20.35    2.15   2
   6   1  -7   12.96    2.03   2
   6   1  -6    5.09    1.73   2
   6   1  -6    2.93    0.61   2
  -6  -1   6    3.21    0.56   2
   6   1  -4    3.09    2.01   2
   6   1  -4    3.14    1.52   2
  -6  -1   4    0.79    1.12   2
   6   1  -3   27.19    2.94   2
   6   1  -3   24.37    2.09   2
  -6  -1   3   18.04    1.48   2
   6   1  -2   97.52    5.81   2
   6   1  -2   87.72    5.29   2
  -6  -1   2   65.30    3.64   2
   6   1  -1   67.26    4.86   2
   6   1  -1   52.96    3.61   2
  -6  -1   1   42.04    2.87   2
   6   1   0   26.82    2.55   2
   6   1   0   23.02    2.61   2
   6   1   1    3.48    1.87   2
   6   1   1    4.91    2.11   2
   6   1   3    6.27    2.89   2
   6   1   4   14.47    2.59   2
   6   1   4   10.69    3.46   2
   6   1   5   16.40    4.11   2
   6   1   5    5.37    3.40   2
   6   1   6   43.13    5.71   2
   6   1   6   40.08    3.50   2
   6   1   7   22.57    3.40   2
   6   1   7   15.50    2.67   2
   6   1   8    7.38    2.58   2
   6   1  10    6.27    2.46   2
   6   1  11  100.54    6.75   2
   6   1  12    4.10    3.90   2
   6   1  12   -0.65    2.50   2
   6   1  13   -0.33    2.56   2
   6   1  13   -1.23    2.52   2
   6   1  14   19.40    5.39   2
   6   2 -12   -1.13    1.50   2
   6   2 -11    0.39    1.57   2
   6   2 -10   19.89    2.38   2
   6   2  -9   -1.15    1.78   2
   6   2  -8    9.22    2.21   2
   6   2  -7   34.16    3.15   2
   6   2  -5   21.70    3.00   2
   6   2  -5   18.90    1.48   2
  -6  -2   5   11.81    1.00   2
   6   2  -4   36.65    3.64   2
   6   2  -4   38.51    1.96   2
  -6  -2   4   29.50    1.96   2
   6   2  -3    0.94    2.39   2
   6   2  -3    2.74    1.27   2
  -6  -2   3    0.03    1.22   2
   6   2  -2  114.60    6.76   2
   6   2  -2  107.28    5.17   2
  -6  -2   2   77.01    4.27   2
   6   2  -1   11.45    2.10   2
   6   2  -1   14.39    2.12   2
  -6  -2   1    8.55    1.66   2
   6   2   0   20.00    2.48   2
   6   2   0   14.31    2.63   2
   6   2   3    3.56    3.54   2
   6   2   3    2.13    1.66   2
   6   2   4   10.29    4.22   2
   6   2   4   13.61    3.40   2
   6   2   5   56.24    4.63   2
   6   2   5   46.87    5.43   2
   6   2   6   14.23    4.69   2
   6   2   6   12.37    3.83   2
   6   2   7   40.40    5.33   2
   6   2  10   82.51    8.37   2
   6   2  10   63.72    7.54   2
   6   2  11    5.60    4.32   2
   6   2  11    1.72    4.21   2
   6   2  12    5.58    2.81   2
   6   2  12   16.43    4.63   2
   6   2  13   -4.06    2.68   2
   6   3 -12    2.34    1.23   2
   6   3 -11   10.53    2.47   2
   6   3 -10    3.51    2.16   2
   6   3  -9    4.96    2.36   2
   6   3  -8   13.67    2.77   2
   6   3  -7    0.94    2.15   2
   6   3  -5    0.42    1.52   2
   6   3  -5    3.34    0.92   2
   6   3  -4   10.84    2.83   2
   6   3  -4    9.64    1.20   2
  -6  -3   4    6.52    1.16   2
   6   3  -3   52.95    4.63   2
   6   3  -3   49.94    2.71   2
  -6  -3   3   36.66    2.27   2
   6   3  -2   33.80    4.31   2
   6   3  -2   37.80    2.68   2
  -6  -3   2   26.01    2.16   2
   6   3  -1   20.77    3.86   2
   6   3  -1   17.14    2.40   2
   6   3   0   -1.26    3.14   2
   6   3   0    5.92    1.99   2
   6   3   2    0.35    2.02   2
   6   3   2    1.72    2.44   2
   6   3   3   10.80    2.63   2
   6   3   3    8.58    3.18   2
   6   3   4    9.25    4.30   2
   6   3   4    9.83    3.45   2
   6   3   5   42.40    5.85   2
   6   3   5   30.04    4.83   2
   6   3   6    7.00    2.75   2
   6   3   6    8.91    3.57   2
   6   3   7   11.51    3.22   2
   6   3   7    9.16    3.98   2
   6   3   9    2.63    2.37   2
   6   3  10   87.53    6.18   2
   6   3  10   81.38    6.12   2
   6   3  11    1.91    2.68   2
   6   3  11    2.24    3.90   2
   6   3  12   -3.84    4.07   2
   6   3  12    3.01    4.06   2
   6   4 -13   -0.98    1.27   2
   6   4 -12   -0.42    2.09   2
   6   4 -11    5.48    2.48   2
   6   4 -10   -0.20    2.16   2
   6   4  -9    2.73    2.46   2
   6   4  -8   18.39    3.24   2
   6   4  -6   12.40    2.10   2
   6   4  -5   23.80    2.37   2
   6   4  -5   15.50    1.61   2
   6   4  -4    0.29    2.62   2
   6   4  -4    2.42    1.40   2
   6   4  -3   81.14    6.37   2
   6   4  -3   68.51    3.88   2
   6   4  -2   14.11    3.49   2
   6   4  -2    8.78    1.85   2
  -6  -4   2    4.08    1.32   2
   6   4  -1    8.09    3.40   2
   6   4  -1    5.92    2.79   2
   6   4   1    3.52    2.02   2
   6   4   1    2.78    2.54   2
   6   4   2    3.39    3.70   2
   6   4   2    4.32    2.75   2
   6   4   3   11.49    4.23   2
   6   4   3    5.50    3.05   2
   6   4   4   40.14    6.04   2
   6   4   4   36.10    3.18   2
   6   4   5   -1.46    2.29   2
   6   4   5    0.78    2.98   2
   6   4   6   25.92    3.43   2
   6   4   6   17.48    4.60   2
   6   4   8    6.26    3.92   2
   6   4   9   46.31    4.68   2
   6   4   9   44.74    5.91   2
   6   4  10    4.52    2.88   2
   6   4  10    6.03    2.53   2
   6   4  11    2.64    4.58   2
   6   4  11    7.61    4.27   2
   6   5 -13    2.74    2.50   2
   6   5 -12    6.01    2.74   2
   6   5 -11   -0.03    1.43   2
   6   5 -10    5.99    2.87   2
   6   5  -9    8.67    3.03   2
   6   5  -8   -0.20    1.56   2
   6   5  -6    1.30    2.78   2
   6   5  -5    4.40    3.03   2
   6   5  -4   23.35    2.75   2
   6   5  -3   16.65    3.84   2
   6   5  -3   19.92    2.35   2
   6   5  -2    6.24    3.76   2
   6   5  -2    9.73    2.15   2
   6   5  -1    2.97    3.32   2
   6   5  -1    1.37    2.03   2
   6   5   1   -0.15    1.98   2
   6   5   1   -1.69    2.09   2
   6   5   2    1.89    3.61   2
   6   5   2    3.46    2.50   2
   6   5   3   20.77    4.45   2
   6   5   3    9.57    3.41   2
   6   5   4   25.88    5.14   2
   6   5   4   18.43    3.89   2
   6   5   5    1.74    2.40   2
   6   5   5    7.60    2.02   2
   6   5   6    6.02    2.07   2
   6   5   8    3.56    4.21   2
   6   5   8    4.21    3.64   2
   6   5   9   46.05    4.56   2
   6   5   9   40.26    6.08   2
   6   5  10    4.93    2.83   2
   6   5  10    3.61    2.34   2
   6   6 -11   -1.32    1.69   2
   6   6 -10    4.94    3.14   2
   6   6  -9   13.55    2.39   2
   6   6  -7    7.44    3.27   2
   6   6  -6   10.76    2.54   2
   6   6  -5   -0.63    3.00   2
   6   6  -4   39.57    4.84   2
   6   6  -3    4.26    3.51   2
   6   6  -2    5.57    2.09   2
   6   6  -2    4.93    1.93   2
   6   6   0    7.36    3.74   2
   6   6   0    4.95    2.57   2
   6   6   1   -1.81    3.44   2
   6   6   1    1.44    2.36   2
   6   6   2    5.59    2.32   2
   6   6   2   -4.85    2.58   2
   6   6   3   14.08    4.55   2
   6   6   3   19.37    3.82   2
   6   6   4   -0.03    3.92   2
   6   6   4   -0.89    2.82   2
   6   6   5   23.75    4.94   2
   6   6   5    6.66    3.48   2
   6   6   7   -2.38    2.38   2
   6   6   7    4.90    3.13   2
   6   6   8   23.66    5.32   2
   6   6   8   13.75    4.42   2
   6   7  -9   -0.67    1.93   2
   6   7  -7    0.61    3.26   2
   6   7  -6    2.96    3.21   2
   6   7  -5   11.06    3.92   2
   6   7  -4   14.60    3.89   2
   6   7  -3    6.73    2.34   2
   6   7  -2    4.22    3.53   2
   6   7   0    2.47    2.22   2
   6   7   0   -0.22    1.37   2
   6   7   1    1.27    3.52   2
   6   7   1    1.22    2.52   2
   6   7   2    3.54    3.73   2
   6   7   2    2.84    2.86   2
   6   7   3    7.45    2.86   2
   6   7   3    9.51    3.40   2
   6   7   4    3.20    2.51   2
   6   7   4    0.16    3.14   2
   6   7   5   -2.77    3.66   2
   6   7   5    1.79    1.96   2
   6   8  -4    1.20    2.19   2
   6   8  -3    8.01    3.92   2
   6   8  -1    1.14    2.25   2
   6   8   0   -4.85    4.15   2
  -7  10   7   -1.61    4.09   2
   7 -10  -6   -2.82    2.72   2
   7 -10  -4   -1.65    4.01   2
   7 -10  -3    6.00    1.63   2
   7 -10  -3    7.61    4.59   2
   7 -10  -2    3.49    2.67   2
   7 -10  -2   -2.60    4.45   2
   7 -10  -1    0.22    2.38   2
   7 -10  -1    0.02    4.16   2
   7 -10   0   13.09    3.83   2
   7 -10   0   14.45    3.34   2
   7 -10   1    1.63    1.97   2
   7 -10   1    1.97    2.35   2
   7 -10   3   16.98    4.32   2
   7 -10   3   15.47    5.55   2
   7 -10   4    0.47    2.35   2
   7 -10   4   -6.24    4.22   2
   7 -10   5    2.55    3.82   2
   7 -10   5    1.45    2.71   2
  -7   9  10   15.37    4.97   2
  -7   9   9    6.29    4.47   2
  -7   9   8    8.68    2.89   2
  -7   9   7    0.75    2.54   2
   7  -9  -6    0.90    2.38   2
   7  -9  -5   -6.53    4.29   2
   7  -9  -4   -0.10    1.85   2
   7  -9  -4   -1.61    3.71   2
   7  -9  -3    6.01    2.28   2
   7  -9  -3    7.63    4.30   2
   7  -9  -2    4.60    1.71   2
   7  -9  -1   -0.16    2.44   2
   7  -9  -1    3.49    4.10   2
   7  -9   0    3.90    2.89   2
   7  -9   0    6.43    4.05   2
   7  -9   2    4.89    3.46   2
   7  -9   2    4.94    2.88   2
   7  -9   3   17.12    4.34   2
   7  -9   3   14.15    3.44   2
   7  -9   4    0.50    1.95   2
   7  -9   4   -1.34    3.77   2
   7  -9   5   -3.80    3.93   2
   7  -9   6    9.21    4.35   2
   7  -9   6    3.59    2.84   2
   7  -9   7   -1.78    2.64   2
   7  -9   7   -4.45    4.37   2
  -7   8  11    6.89    3.70   2
  -7   8  10   25.61    3.31   2
  -7   8   9   -0.77    2.13   2
  -7   8   8    1.44    3.79   2
   7  -8  -7    1.48    2.13   2
   7  -8  -5    3.68    1.59   2
   7  -8  -5   -0.85    2.19   2
   7  -8  -4    8.39    2.12   2
   7  -8  -4   10.44    2.90   2
   7  -8  -3   14.31    2.60   2
   7  -8  -3   15.90    4.66   2
   7  -8  -2   -0.03    2.06   2
   7  -8  -2   -4.76    3.81   2
   7  -8  -1   26.38    3.90   2
   7  -8  -1   33.88    5.11   2
   7  -8   0   -1.59    2.69   2
   7  -8   0   13.43    4.22   2
   7  -8   2   42.55    5.35   2
   7  -8   2   44.48    6.72   2
   7  -8   3   -1.78    3.17   2
   7  -8   3   -0.53    3.61   2
   7  -8   4    7.07    2.60   2
   7  -8   5   -1.40    3.71   2
   7  -8   5    2.61    3.75   2
   7  -8   6    7.10    4.54   2
   7  -8   6    7.18    4.63   2
   7  -8   7    2.38    2.65   2
   7  -8   7    4.01    2.74   2
   7  -8   9   15.74    5.16   2
   7  -8   9    4.46    3.15   2
  -7   7  13   -4.13    3.48   2
  -7   7  12   11.45    3.95   2
  -7   7  11   27.88    4.97   2
  -7   7  10   12.76    2.67   2
  -7   7   9   14.21    4.23   2
  -7   7   8    6.67    4.04   2
   7  -7  -7    1.30    1.97   2
   7  -7  -6   -3.59    3.42   2
   7  -7  -5    1.26    1.54   2
   7  -7  -5    1.04    3.36   2
   7  -7  -4    7.24    2.02   2
   7  -7  -4   11.34    2.64   2
   7  -7  -3   10.04    2.27   2
   7  -7  -2    8.09    2.50   2
   7  -7  -2   14.61    4.20   2
   7  -7  -1    5.77    2.62   2
   7  -7  -1   10.60    3.98   2
   7  -7   1    7.70    2.67   2
   7  -7   2   37.89    4.81   2
   7  -7   2   31.58    5.93   2
   7  -7   3    1.81    3.22   2
   7  -7   3    4.04    3.67   2
   7  -7   4   -0.83    1.97   2
   7  -7   5    4.82    3.86   2
   7  -7   5    6.60    4.25   2
   7  -7   6    9.52    4.13   2
   7  -7   6    4.52    2.62   2
   7  -7   8   13.74    3.05   2
   7  -7   8   12.35    3.07   2
   7  -7   9   11.10    4.98   2
   7  -7   9   11.84    5.33   2
   7  -7  10   -6.99    4.16   2
   7  -7  10    4.20    2.73   2
   7  -7  11   12.05    5.12   2
  -7   6  13   -3.54    3.02   2
  -7   6  12    9.81    3.45   2
  -7   6  11   40.58    5.03   2
  -7   6  10    4.03    2.01   2
  -7   6   9    1.68    3.08   2
  -7   6   8    1.43    1.96   2
   7  -6  -6   -0.69    1.10   2
   7  -6  -5   15.65    1.84   2
   7  -6  -5   16.68    4.12   2
   7  -6  -4   18.28    2.23   2
   7  -6  -4   19.13    2.84   2
   7  -6  -3   -2.49    1.82   2
   7  -6  -3    3.83    3.08   2
   7  -6  -2   47.13    4.04   2
   7  -6  -2   51.44    5.98   2
   7  -6  -1    7.72    2.55   2
   7  -6  -1    3.76    2.42   2
   7  -6   1   95.81    6.61   2
   7  -6   1   83.46    7.93   2
   7  -6   2    4.83    3.07   2
   7  -6   2    0.07    3.35   2
   7  -6   3    9.66    2.30   2
   7  -6   4    2.33    3.34   2
   7  -6   4    1.25    2.22   2
   7  -6   5    5.76    4.17   2
   7  -6   5   12.66    2.77   2
   7  -6   6   16.66    3.03   2
   7  -6   6    9.93    4.93   2
   7  -6   8   24.77    3.32   2
   7  -6   8   17.15    3.31   2
   7  -6   9    9.52    3.01   2
   7  -6   9    6.52    4.85   2
   7  -6  10    6.79    3.08   2
   7  -6  10   19.00    5.42   2
   7  -6  11    2.49    2.90   2
   7  -6  11    7.80    2.95   2
   7  -6  12   -2.66    2.74   2
   7  -6  12    1.48    4.33   2
  -7   5  14    4.54    2.62   2
  -7   5  13    7.75    2.92   2
  -7   5  12   24.18    3.75   2
  -7   5  11    4.88    2.75   2
  -7   5  10   12.83    3.32   2
  -7   5   9    1.83    2.65   2
   7  -5  -8    2.60    1.69   2
   7  -5  -7    7.10    1.83   2
   7  -5  -6    3.12    1.04   2
   7  -5  -6   -2.20    2.63   2
   7  -5  -5   12.68    1.68   2
   7  -5  -5   14.75    3.68   2
  -7   5   5   11.98    1.78   2
   7  -5  -4   17.38    2.15   2
   7  -5  -4   22.64    2.40   2
  -7   5   4   10.47    1.72   2
   7  -5  -3   10.44    2.13   2
   7  -5  -3   14.40    3.74   2
   7  -5  -2    7.89    2.42   2
   7  -5  -2   11.51    2.46   2
   7  -5   0    6.54    3.29   2
   7  -5   1   59.39    3.72   2
   7  -5   1   57.47    4.38   2
   7  -5   2    4.04    3.05   2
   7  -5   2    0.09    1.92   2
   7  -5   3   -2.43    3.05   2
   7  -5   4   10.98    2.37   2
   7  -5   4    7.18    2.70   2
   7  -5   5   14.16    2.66   2
   7  -5   5   11.08    4.30   2
   7  -5   7   20.22    3.73   2
   7  -5   8    9.30    2.97   2
   7  -5   8    7.49    4.81   2
   7  -5   9    0.20    2.44   2
   7  -5   9    1.66    2.59   2
   7  -5  10   11.08    3.01   2
   7  -5  10   -6.09    4.63   2
   7  -5  11   16.18    3.47   2
   7  -5  12    3.63    4.60   2
   7  -5  12    3.62    2.79   2
  -7   4  13    0.87    2.04   2
  -7   4  12   46.18    3.94   2
  -7   4  11    3.81    2.15   2
  -7   4  10    1.68    2.23   2
  -7   4   9    2.61    2.28   2
   7  -4  -7   -0.35    0.77   2
   7  -4  -7   -0.60    2.24   2
   7  -4  -6   15.50    1.66   2
   7  -4  -6   14.04    3.16   2
  -7   4   6   13.15    1.50   2
   7  -4  -5   32.60    2.73   2
   7  -4  -5   30.28    3.96   2
  -7   4   5   24.03    1.81   2
   7  -4  -4    0.32    1.51   2
   7  -4  -4    1.89    2.82   2
  -7   4   4    2.36    1.18   2
   7  -4  -3   56.85    3.71   2
   7  -4  -3   62.86    4.06   2
   7  -4  -2   13.08    3.52   2
   7  -4   0  121.70    8.58   2
   7  -4   1    2.96    1.55   2
   7  -4   1   -5.76    2.95   2
   7  -4   2   15.31    3.45   2
   7  -4   2   12.56    2.59   2
   7  -4   3    9.68    3.44   2
   7  -4   3    6.08    2.38   2
   7  -4   4   29.18    4.76   2
   7  -4   4   23.34    4.96   2
   7  -4   5   21.49    5.14   2
   7  -4   7   39.99    5.72   2
   7  -4   7   35.16    6.21   2
   7  -4   8   22.95    3.31   2
   7  -4   8   35.61    5.67   2
   7  -4   9   16.85    3.17   2
   7  -4   9   19.27    5.37   2
   7  -4  10    2.33    2.68   2
   7  -4  10    4.26    2.67   2
   7  -4  11    1.13    4.17   2
   7  -4  11    3.49    4.07   2
   7  -4  12   -0.78    4.22   2
  -7   3  12    2.78    1.88   2
  -7   3  11   18.16    2.48   2
  -7   3  10    3.62    1.91   2
  -7   3   9    1.78    2.49   2
   7  -3  -8   -1.18    1.20   2
   7  -3  -7    2.22    1.00   2
   7  -3  -7    3.61    2.00   2
  -7   3   7    1.57    0.94   2
   7  -3  -6   22.17    1.53   2
   7  -3  -6   19.55    2.80   2
  -7   3   6   18.51    1.81   2
   7  -3  -5   34.21    2.19   2
  -7   3   5   28.20    2.40   2
   7  -3  -4   22.45    2.09   2
   7  -3  -4   23.31    3.24   2
  -7   3   4   16.14    1.81   2
   7  -3  -3   14.26    2.13   2
   7  -3  -3    7.24    3.12   2
   7  -3  -1    5.48    1.76   2
   7  -3   0   86.84    5.92   2
   7  -3   0   71.50    6.21   2
   7  -3   1    3.77    2.86   2
   7  -3   1    0.69    2.89   2
   7  -3   2    1.37    2.96   2
   7  -3   3   15.26    2.56   2
   7  -3   3   14.26    4.11   2
   7  -3   4   32.14    3.27   2
   7  -3   4   30.52    5.19   2
   7  -3   5   39.24    3.55   2
   7  -3   7   26.77    4.85   2
   7  -3   7   16.29    4.91   2
   7  -3   8   10.61    4.59   2
   7  -3   9    8.12    2.74   2
   7  -3   9   10.34    4.48   2
   7  -3  10    7.91    4.50   2
   7  -3  10   11.18    4.90   2
   7  -3  11   -1.89    2.65   2
   7  -3  13   -3.11    4.61   2
  -7   2  11   -0.41    1.23   2
  -7   2  10    5.23    1.44   2
   7  -2  -8    1.66    0.96   2
  -7   2   8   -0.31    1.17   2
  -7   2   8    1.34    1.17   2
   7  -2  -7   13.77    1.27   2
   7  -2  -7    9.60    2.49   2
  -7   2   7   11.14    1.62   2
  -7   2   7    9.48    2.08   2
   7  -2  -6   33.33    2.54   2
   7  -2  -6   31.23    2.78   2
  -7   2   6   28.03    1.94   2
   7  -2  -5   10.51    1.60   2
   7  -2  -5    6.45    2.26   2
  -7   2   5    7.35    1.43   2
   7  -2  -4   54.92    3.28   2
   7  -2  -4   56.56    3.12   2
  -7   2   4   47.46    3.06   2
   7  -2  -3   21.47    2.38   2
   7  -2  -3   13.39    2.82   2
   7  -2  -1  136.13    6.90   2
   7  -2   0    3.58    2.81   2
   7  -2   0    8.02    2.78   2
   7  -2   1   14.20    3.45   2
   7  -2   2   20.51    2.49   2
   7  -2   2   19.58    2.62   2
   7  -2   3   57.93    5.44   2
   7  -2   3   42.13    3.50   2
   7  -2   4   25.57    4.64   2
   7  -2   6   36.08    3.62   2
   7  -2   7   59.71    6.73   2
   7  -2   7   39.11    6.45   2
   7  -2   8   25.14    5.52   2
   7  -2   8   12.36    5.06   2
   7  -2   9   10.68    3.09   2
   7  -2   9    7.75    2.99   2
   7  -2  10    2.14    4.27   2
   7  -2  10   -4.09    4.03   2
   7  -2  11   -1.69    4.15   2
   7  -2  13    0.25    4.23   2
   7  -2  13    0.68    4.02   2
   7  -1  -9    1.83    1.13   2
  -7   1   9    1.35    1.07   2
   7  -1  -8    4.37    1.38   2
  -7   1   8    1.51    1.40   2
   7  -1  -7   20.72    2.23   2
   7  -1  -7   17.56    2.16   2
  -7   1   7   16.19    2.08   2
  -7   1   7    9.04    1.41   2
   7  -1  -6   36.31    2.41   2
   7  -1  -6   32.53    2.37   2
  -7   1   6   31.14    2.34   2
   7  -1  -5   31.08    2.46   2
   7  -1  -5   27.33    2.57   2
  -7   1   5   22.02    2.11   2
  -7   1   5   17.83    2.46   2
   7  -1  -4   18.41    2.31   2
   7  -1  -4   14.42    2.30   2
  -7   1   4    8.19    2.15   2
   7  -1  -2    0.97    2.22   2
   7  -1  -1   69.52    3.95   2
   7  -1  -1   76.52    5.31   2
   7  -1   0   10.73    3.09   2
   7  -1   0    7.31    2.84   2
   7  -1   1   -1.28    2.59   2
   7  -1   1    2.48    1.49   2
   7  -1   2   33.35    2.72   2
   7  -1   2   26.34    2.76   2
   7  -1   3   37.71    3.34   2
   7  -1   6   31.98    5.14   2
   7  -1   6   17.58    4.59   2
   7  -1   7   36.33    5.47   2
   7  -1   7   29.97    5.29   2
   7  -1   8   10.46    4.37   2
   7  -1   8    9.49    4.17   2
   7  -1   9   16.77    5.07   2
   7  -1   9    9.85    4.29   2
   7  -1  10    3.10    2.45   2
   7  -1  13    4.46    4.28   2
   7   0  -9    2.41    1.27   2
   7   0  -8    6.89    1.54   2
  -7   0   8    4.29    0.71   2
   7   0  -7   20.56    2.11   2
   7   0  -7   12.82    1.46   2
   7   0  -6   14.76    2.08   2
   7   0  -6   14.25    1.32   2
  -7   0   6   12.97    1.25   2
   7   0  -5   40.29    2.99   2
   7   0  -5   41.21    2.59   2
  -7   0   5   29.22    2.36   2
   7   0  -4   16.30    2.59   2
  -7   0   4    9.22    1.37   2
   7   0  -2   92.15    5.57   2
   7   0  -1    0.06    1.62   2
   7   0  -1    3.64    1.97   2
   7   0   0    9.96    3.28   2
   7   0   1   40.35    3.17   2
   7   0   1   31.35    3.82   2
   7   0   2   61.47    5.73   2
   7   0   2   47.44    4.90   2
   7   0   3   32.95    4.14   2
   7   0   5   25.96    4.61   2
   7   0   6   58.15    6.05   2
   7   0   7   27.76    5.36   2
   7   0   7   20.27    3.05   2
   7   0   8    9.98    2.86   2
   7   0   8   10.59    4.06   2
   7   0   9    1.07    3.53   2
   7   0  10   -2.91    3.96   2
   7   0  12    5.40    4.74   2
   7   0  13    8.17    4.89   2
   7   1 -10    1.31    1.33   2
   7   1  -9   -1.21    1.41   2
   7   1  -8   13.45    2.12   2
   7   1  -7   32.85    2.98   2
   7   1  -6   27.01    2.64   2
   7   1  -6   18.40    1.43   2
   7   1  -5   13.92    2.44   2
   7   1  -5   11.75    1.37   2
  -7  -1   5    7.80    1.29   2
   7   1  -4    3.77    1.49   2
  -7  -1   4    2.35    1.01   2
   7   1  -3    1.16    1.57   2
  -7  -1   3    1.75    1.51   2
   7   1  -2   41.37    4.38   2
   7   1  -2   40.92    3.23   2
  -7  -1   2   20.73    2.36   2
   7   1  -1    4.44    2.97   2
   7   1  -1    5.26    2.21   2
   7   1   0   -0.75    2.94   2
   7   1   0    3.53    2.18   2
   7   1   1   30.45    3.00   2
   7   1   1   25.11    3.35   2
   7   1   2   31.83    3.84   2
   7   1   3   22.25    3.24   2
   7   1   5    6.88    2.05   2
   7   1   6   49.67    4.36   2
   7   1   6   36.76    5.55   2
   7   1   7    7.57    4.96   2
   7   1   7   10.20    4.15   2
   7   1   8   14.60    3.12   2
   7   1   8    6.30    4.17   2
   7   1   9    1.73    2.36   2
   7   1  12    9.39    3.14   2
   7   2 -10    1.40    1.74   2
   7   2  -9    8.09    2.17   2
   7   2  -8   10.48    2.36   2
   7   2  -7   23.97    3.00   2
   7   2  -6   18.41    1.96   2
   7   2  -5   12.12    2.74   2
   7   2  -5   11.31    1.69   2
   7   2  -3   48.84    4.73   2
   7   2  -3   45.83    3.17   2
  -7  -2   3   24.08    2.19   2
   7   2  -2    0.64    1.69   2
   7   2  -2   -1.67    1.52   2
  -7  -2   2   -0.39    1.13   2
   7   2  -1    3.34    2.95   2
   7   2  -1    2.34    1.93   2
   7   2   0   40.05    4.98   2
   7   2   0   36.89    3.40   2
   7   2   1   33.96    3.16   2
   7   2   1   29.45    3.36   2
   7   2   2   31.53    3.95   2
   7   2   4   19.27    3.58   2
   7   2   5   75.65    7.57   2
   7   2   5   61.40    4.28   2
   7   2   6   11.22    4.98   2
   7   2   6   14.21    2.68   2
   7   2   7    0.50    2.59   2
   7   2   7    2.47    3.40   2
   7   2   8   -2.27    3.52   2
   7   2   9   -0.70    3.55   2
   7   2  11   -0.39    4.14   2
   7   2  11    1.80    3.80   2
   7   3 -11   -1.35    1.86   2
   7   3 -10    2.82    2.04   2
   7   3  -9    5.34    2.38   2
   7   3  -8   16.70    1.97   2
   7   3  -7   18.58    3.16   2
   7   3  -6   10.77    2.93   2
   7   3  -3   18.21    3.58   2
   7   3  -3   16.07    2.54   2
   7   3  -2    3.14    2.98   2
   7   3  -2    5.90    1.81   2
   7   3  -1   -0.37    1.75   2
   7   3  -1   -0.91    1.86   2
   7   3   0   28.33    4.60   2
   7   3   0   24.26    3.00   2
   7   3   1   14.18    4.41   2
   7   3   1   21.08    3.10   2
   7   3   4    5.52    4.51   2
   7   3   4   12.66    3.42   2
   7   3   5   37.15    6.20   2
   7   3   5   32.54    4.70   2
   7   3   6    4.88    2.91   2
   7   3   6    7.64    3.48   2
   7   3   7    2.46    4.19   2
   7   3   7    3.01    3.39   2
   7   3   8    3.51    4.36   2
   7   3   8    2.35    3.37   2
   7   3  10   -1.06    3.64   2
   7   4 -11    0.45    1.43   2
   7   4 -10    5.17    2.52   2
   7   4  -9    5.18    2.58   2
   7   4  -8   17.58    2.35   2
   7   4  -7    9.85    2.93   2
   7   4  -6   11.74    3.20   2
   7   4  -4   15.08    3.46   2
   7   4  -3   -0.14    2.82   2
   7   4  -2    1.37    3.01   2
   7   4  -2    1.02    1.68   2
   7   4  -1   18.23    2.91   2
   7   4  -1   24.03    2.80   2
   7   4   0   16.64    3.68   2
   7   4   0    6.54    2.54   2
   7   4   1   10.10    4.27   2
   7   4   1   14.53    2.74   2
   7   4   3    9.14    4.64   2
   7   4   3   13.60    3.33   2
   7   4   4   42.22    6.57   2
   7   4   4   42.56    5.16   2
   7   4   5   13.51    2.94   2
   7   4   5   12.62    3.95   2
   7   4   6   11.01    2.82   2
   7   4   6    2.66    2.40   2
   7   4   7   -0.58    4.39   2
   7   4   7    3.54    3.52   2
   7   4   8   -4.21    3.80   2
   7   5 -11    0.93    2.47   2
   7   5 -10   -0.18    1.58   2
   7   5  -9   11.38    3.36   2
   7   5  -8    8.85    3.24   2
   7   5  -7    8.57    1.88   2
   7   5  -5   -3.76    2.97   2
   7   5  -4    5.17    2.26   2
   7   5  -3    4.24    3.29   2
   7   5  -2    0.50    3.10   2
   7   5  -1   17.13    2.74   2
   7   5  -1   16.33    2.83   2
   7   5   0    6.65    3.54   2
   7   5   0    5.25    2.49   2
   7   5   2   20.15    3.18   2
   7   5   2   16.51    2.35   2
   7   5   3    0.26    2.47   2
   7   5   3    5.82    1.85   2
   7   5   4   27.82    5.67   2
   7   5   4   22.56    2.87   2
   7   5   5   -1.77    4.50   2
   7   5   5    7.30    2.02   2
   7   5   6    2.53    2.63   2
   7   5   6    0.72    1.97   2
   7   5   7   -2.45    4.53   2
   7   5   7    6.82    2.20   2
   7   6  -8    5.84    1.99   2
   7   6  -7    6.20    3.29   2
   7   6  -5    5.05    3.32   2
   7   6  -4   -0.79    3.15   2
   7   6  -3    0.77    2.09   2
   7   6  -2   25.10    4.59   2
   7   6  -1   -1.49    3.25   2
   7   6   0    7.38    2.47   2
   7   6   2    4.28    3.98   2
   7   6   2    4.29    2.96   2
   7   6   3   22.80    3.35   2
   7   6   3   17.52    4.05   2
   7   6   4   12.07    4.56   2
   7   6   4   12.42    3.55   2
   8  -9  -7   -0.16    2.32   2
   8  -9  -6   -4.45    4.06   2
   8  -9  -5    5.92    2.66   2
   8  -9  -3    6.00    2.92   2
   8  -9  -2    6.36    2.88   2
   8  -9  -2   22.53    3.46   2
   8  -9  -1   -0.06    2.47   2
   8  -9  -1    1.86    2.30   2
   8  -9   0    3.40    2.78   2
   8  -9   0   -0.12    4.35   2
   8  -9   1   -3.17    3.01   2
   8  -9   1   -6.60    4.12   2
   8  -9   2    3.55    2.10   2
   8  -9   2    7.12    4.36   2
   8  -9   4    6.02    2.19   2
   8  -9   4   -0.36    2.85   2
  -8   8   9    3.66    2.53   2
  -8   8   8    6.83    2.82   2
   8  -8  -7    0.63    3.45   2
   8  -8  -6   16.25    4.59   2
   8  -8  -5   -2.73    3.63   2
   8  -8  -3   27.45    3.24   2
   8  -8  -3   38.97    4.30   2
   8  -8  -2    4.83    2.40   2
   8  -8  -2    5.20    2.27   2
   8  -8  -1    3.65    2.52   2
   8  -8   0    4.85    2.61   2
   8  -8   0   -2.03    2.39   2
   8  -8   1   -0.88    2.73   2
   8  -8   1    4.03    2.48   2
   8  -8   2   -2.52    3.68   2
   8  -8   3   -0.82    3.42   2
   8  -8   3    8.30    4.17   2
   8  -8   4   13.50    2.95   2
   8  -8   4   18.85    4.99   2
   8  -8   5    3.12    4.15   2
   8  -8   5    6.67    2.57   2
   8  -8   6    8.41    4.40   2
   8  -8   7    2.35    2.55   2
   8  -8   7    0.80    4.02   2
  -8   7  11    0.54    3.13   2
  -8   7  10    5.50    3.69   2
  -8   7   9    5.48    3.84   2
   8  -7  -8    0.17    1.90   2
   8  -7  -7   -2.10    2.08   2
   8  -7  -6    2.97    3.54   2
   8  -7  -4    7.91    2.06   2
   8  -7  -4    9.12    4.01   2
   8  -7  -3   26.11    2.17   2
   8  -7  -3   35.38    3.46   2
   8  -7  -2    2.43    2.28   2
   8  -7  -2    4.04    2.28   2
   8  -7  -1   -0.70    2.32   2
   8  -7  -1    3.42    3.63   2
   8  -7   0   -0.55    1.59   2
   8  -7   0   -0.84    3.63   2
   8  -7   1    6.44    3.17   2
   8  -7   1    8.39    4.23   2
   8  -7   3    4.67    3.45   2
   8  -7   3    6.21    2.59   2
   8  -7   4   16.03    2.72   2
   8  -7   4    2.33    4.63   2
   8  -7   5   10.72    4.18   2
   8  -7   6   28.80    5.04   2
   8  -7   6   22.26    3.62   2
   8  -7   7   10.75    4.72   2
   8  -7   7    9.80    4.52   2
   8  -7   8    0.77    2.55   2
   8  -7   8   -0.90    4.13   2
  -8   6  11    5.01    3.19   2
  -8   6  10    6.11    3.21   2
  -8   6   9   20.32    4.06   2
   8  -6  -8    0.91    1.82   2
   8  -6  -7   24.72    4.35   2
   8  -6  -6   -2.56    2.02   2
   8  -6  -4   58.66    4.00   2
   8  -6  -4   73.21    6.63   2
   8  -6  -3    3.92    2.04   2
   8  -6  -3    4.57    2.25   2
   8  -6  -2   12.38    2.40   2
   8  -6  -1    2.55    1.42   2
   8  -6  -1    4.77    3.79   2
   8  -6   0    1.22    2.62   2
   8  -6   0   10.08    3.72   2
   8  -6   1    3.11    3.66   2
   8  -6   3   15.42    2.76   2
   8  -6   3   18.76    4.62   2
   8  -6   4   -2.53    3.12   2
   8  -6   4    3.04    3.35   2
   8  -6   5   23.44    4.62   2
   8  -6   6    3.98    3.91   2
   8  -6   6    0.56    4.14   2
   8  -6   7    5.11    3.85   2
   8  -6   7    2.52    4.50   2
   8  -6   9    8.36    3.11   2
  -8   5  12   -1.23    2.16   2
  -8   5  11    0.30    2.35   2
  -8   5  10    2.55    2.80   2
  -8   5   9    4.79    3.03   2
   8  -5  -8    1.34    2.54   2
   8  -5  -7    2.15    1.79   2
   8  -5  -5    6.12    1.55   2
   8  -5  -5    7.29    3.36   2
   8  -5  -4   49.92    3.36   2
   8  -5  -4   65.05    6.07   2
   8  -5  -3    4.55    2.01   2
   8  -5  -3   -1.38    3.21   2
   8  -5  -2   -2.31    2.05   2
   8  -5  -1    1.06    1.38   2
   8  -5  -1   -2.83    3.06   2
   8  -5   0    0.02    2.34   2
   8  -5   0    0.05    1.91   2
   8  -5   2    7.12    3.33   2
   8  -5   2   11.09    2.53   2
   8  -5   3   29.40    4.52   2
   8  -5   3   28.59    3.34   2
   8  -5   4    4.25    3.45   2
   8  -5   4    0.88    2.45   2
   8  -5   5   32.29    5.54   2
   8  -5   6    6.06    3.81   2
   8  -5   6   -2.73    3.90   2
   8  -5   7    2.35    4.12   2
   8  -5   9   -0.88    3.82   2
   8  -5   9    0.69    4.06   2
   8  -5  10   -1.91    4.17   2
   8  -5  10    2.72    2.51   2
  -8   4  11    1.02    2.14   2
  -8   4  10   21.02    3.27   2
  -8   4   9    0.48    2.19   2
   8  -4  -8   30.73    3.81   2
   8  -4  -7    1.64    2.44   2
   8  -4  -5  107.94    5.34   2
   8  -4  -5   93.68    6.94   2
   8  -4  -4    1.97    1.61   2
   8  -4  -4    3.02    2.79   2
   8  -4  -3   11.04    2.41   2
   8  -4  -2    0.23    2.06   2
   8  -4  -2   -3.61    1.80   2
   8  -4  -1   -0.12    2.14   2
   8  -4  -1    0.42    2.79   2
   8  -4   2   35.67    4.45   2
   8  -4   2   31.83    5.37   2
   8  -4   3   11.60    2.52   2
   8  -4   3   10.83    4.10   2
   8  -4   4   20.99    2.92   2
   8  -4   5    1.40    2.18   2
   8  -4   6    1.21    4.07   2
   8  -4   6    4.32    2.59   2
   8  -4   9   -1.00    3.80   2
   8  -4   9    4.07    4.11   2
   8  -4  10   -0.28    3.91   2
   8  -4  10   -0.21    3.98   2
   8  -4  11    5.01    2.57   2
   8  -4  11   -2.17    2.30   2
  -8   3   9    0.90    1.85   2
   8  -3  -8    7.53    2.16   2
   8  -3  -6   11.30    2.03   2
   8  -3  -6    8.24    2.76   2
   8  -3  -5   68.66    4.60   2
   8  -3  -5   64.46    5.49   2
   8  -3  -4    5.13    1.82   2
   8  -3  -4    6.25    2.71   2
   8  -3  -3    1.28    1.93   2
   8  -3  -3    2.76    2.77   2
   8  -3  -2    1.46    2.19   2
   8  -3  -2    2.54    2.76   2
   8  -3  -1    1.09    1.69   2
   8  -3   1   11.42    3.81   2
   8  -3   2   43.33    5.11   2
   8  -3   2   40.32    5.35   2
   8  -3   3    3.86    3.28   2
   8  -3   4   44.48    5.74   2
   8  -3   4   40.06    5.76   2
   8  -3   5   10.38    2.47   2
   8  -3   5    6.20    2.59   2
   8  -3   6   -0.60    1.97   2
   8  -3   6    2.18    3.30   2
   8  -3   8   -3.09    3.64   2
   8  -3   8    3.48    3.58   2
   8  -3   9    1.74    4.16   2
   8  -3   9    4.94    2.49   2
   8  -3  10   13.10    3.10   2
   8  -3  10   12.81    3.09   2
   8  -3  11    7.75    4.44   2
   8  -3  11    2.26    4.44   2
   8  -2  -8    2.05    1.56   2
   8  -2  -7    2.25    1.74   2
   8  -2  -6  114.06    5.46   2
   8  -2  -6  105.50    6.13   2
   8  -2  -5    3.08    1.70   2
   8  -2  -5    1.62    2.13   2
   8  -2  -4   14.21    2.23   2
   8  -2  -3    3.26    1.82   2
   8  -2  -3   -4.05    2.25   2
   8  -2  -2    4.06    2.39   2
   8  -2  -2    7.36    2.81   2
   8  -2  -1    1.37    2.61   2
   8  -2   1   87.27    6.07   2
   8  -2   1   44.75    5.39   2
   8  -2   2   16.03    2.44   2
   8  -2   2   13.80    3.88   2
   8  -2   3   31.93    4.83   2
   8  -2   3   32.63    4.74   2
   8  -2   4    7.79    3.76   2
   8  -2   4    8.55    2.17   2
   8  -2   5    0.05    3.20   2
   8  -2   8    9.54    4.62   2
   8  -2   8    5.83    2.70   2
   8  -2   9   -3.66    2.61   2
   8  -2   9    7.45    3.75   2
   8  -2  10   -1.83    4.67   2
   8  -2  10    7.39    4.29   2
   8  -2  11    5.69    4.72   2
   8  -2  11    0.55    4.29   2
   8  -1  -7    5.23    1.66   2
   8  -1  -6   58.78    3.57   2
   8  -1  -6   59.31    3.72   2
   8  -1  -5    1.36    1.79   2
   8  -1  -5    0.62    1.74   2
   8  -1  -4    2.71    1.98   2
   8  -1  -3    0.12    1.93   2
   8  -1  -3    0.18    2.15   2
   8  -1  -2    2.84    2.34   2
   8  -1   0    9.51    3.10   2
   8  -1   1   40.18    4.31   2
   8  -1   1   35.18    4.46   2
   8  -1   2   -4.04    3.18   2
   8  -1   3   39.84    3.39   2
   8  -1   3   32.38    3.19   2
   8  -1   4   16.81    4.22   2
   8  -1   4    9.11    3.91   2
   8  -1   5   -4.11    3.54   2
   8  -1   7    4.15    4.04   2
   8  -1   8    4.49    2.80   2
   8  -1   8    4.28    3.82   2
   8  -1   9   26.00    5.73   2
   8  -1   9   18.59    3.06   2
   8  -1  10   20.60    5.44   2
   8  -1  10   16.70    3.30   2
   8  -1  11   18.00    3.57   2
   8  -1  11   16.72    4.97   2
   8   0  -7   99.83    5.19   2
   8   0  -6    1.27    1.80   2
   8   0  -5   12.60    2.49   2
   8   0  -5   12.10    2.63   2
   8   0  -4    5.09    2.32   2
   8   0  -4    2.27    2.00   2
   8   0  -3    5.90    1.67   2
   8   0  -3    6.70    2.28   2
   8   0  -2    0.12    2.04   2
   8   0   0   37.89    4.58   2
   8   0   0   33.96    3.81   2
   8   0   1   26.88    2.90   2
   8   0   1   22.50    3.57   2
   8   0   2   26.92    4.86   2
   8   0   2   21.71    4.03   2
   8   0   3   -0.11    3.53   2
   8   0   3    7.53    2.00   2
   8   0   4   -2.15    3.09   2
   8   0   7    6.71    4.36   2
   8   0   7    3.66    2.30   2
   8   0   8    3.05    2.24   2
   8   0   9    2.87    4.27   2
   8   0   9    4.88    3.85   2
   8   0  10   -2.87    2.63   2
   8   0  10   -2.62    3.85   2
   8   1  -8    2.70    2.39   2
   8   1  -7   43.80    3.59   2
   8   1  -6    5.44    2.31   2
   8   1  -5   -1.52    2.20   2
   8   1  -4   10.79    2.55   2
   8   1  -4    4.54    2.45   2
   8   1  -3    1.06    2.40   2
   8   1  -3    0.99    1.79   2
   8   1  -1   11.66    3.39   2
   8   1  -1    6.90    2.39   2
   8   1   0   27.84    4.61   2
   8   1   0   24.51    3.48   2
   8   1   1   -0.14    3.05   2
   8   1   1    1.34    2.53   2
   8   1   2   38.30    5.07   2
   8   1   2   25.13    3.88   2
   8   1   3    5.54    2.53   2
   8   1   3   16.07    3.18   2
   8   1   4    4.93    3.04   2
   8   1   6   -4.20    3.99   2
   8   1   6    2.07    2.06   2
   8   1   7    0.64    2.43   2
   8   1   7    4.33    3.27   2
   8   1   8   32.90    5.98   2
   8   1   8   23.19    5.22   2
   8   1   9   14.86    3.64   2
   8   1   9   18.81    4.89   2
   8   1  10    5.89    4.09   2
   8   2  -8   52.48    4.22   2
   8   2  -7   -0.05    1.85   2
   8   2  -6    6.60    1.63   2
   8   2  -5   11.36    2.85   2
   8   2  -4    4.16    2.85   2
   8   2  -1   29.49    3.05   2
   8   2  -1   27.18    3.18   2
   8   2   0   25.70    4.52   2
   8   2   0   25.55    3.21   2
   8   2   1   29.97    4.60   2
   8   2   1   21.37    3.32   2
   8   2   2   11.12    3.83   2
   8   2   2    5.87    1.76   2
   8   2   3    1.71    3.61   2
   8   2   3   -1.35    2.44   2
   8   2   6    0.41    2.64   2
   8   2   6    4.66    3.39   2
   8   2   7    6.42    4.70   2
   8   2   7    7.85    3.80   2
   8   2   8    8.66    4.66   2
   8   2   8    2.20    2.45   2
   8   2   9    0.82    2.72   2
   8   2   9   -1.59    2.27   2
   8   3  -9   -0.33    1.98   2
   8   3  -8   17.74    3.04   2
   8   3  -7    1.11    1.40   2
   8   3  -6    3.76    2.69   2
   8   3  -5    2.52    2.60   2
   8   3  -4   -1.56    2.67   2
   8   3  -2    4.02    2.04   2
   8   3  -1   13.32    3.86   2
   8   3  -1   10.12    2.36   2
   8   3   0    9.61    3.88   2
   8   3   0    7.63    2.30   2
   8   3   1   19.35    4.33   2
   8   3   1   14.58    3.05   2
   8   3   2    4.51    3.73   2
   8   3   2    1.13    2.67   2
   8   3   3    3.54    2.41   2
   8   3   3    2.81    2.93   2
   8   3   5   -1.01    4.03   2
   8   3   5    1.47    3.11   2
   8   3   6    0.81    2.32   2
   8   3   6   -0.33    1.97   2
   8   3   7   14.84    5.50   2
   8   3   7   20.56    3.03   2
   8   4  -9   25.71    3.78   2
   8   4  -8   -1.46    2.53   2
   8   4  -7   -0.58    2.37   2
   8   4  -6    2.04    2.68   2
   8   4  -5    2.58    1.68   2
   8   4  -2   13.35    3.69   2
   8   4  -1   14.91    4.15   2
   8   4   0    8.30    2.63   2
   8   4   1    0.97    3.66   2
   8   4   1    4.15    2.50   2
   8   4   2    0.19    3.70   2
   8   4   2    2.60    2.68   2
   8   4   4    7.32    3.45   2
   8   4   5    5.40    2.71   2
   8   4   5    4.53    2.20   2
   8   5  -7    2.09    1.68   2
   8   5  -6    6.32    2.90   2
   8   5  -5   -2.27    2.77   2
   8   5  -3   -4.64    3.27   2
   8   5  -2   -0.33    1.97   2
   8   5  -1    8.02    3.87   2
   8   5   0   10.09    2.67   2
   8   5   1    6.71    3.67   2
   8   5   2   -3.33    3.92   2
   9  -8  -6   -2.69    2.32   2
   9  -8  -5    1.79    3.90   2
   9  -8  -4    8.57    4.62   2
   9  -8  -2    4.91    3.81   2
   9  -8  -1    3.71    2.51   2
   9  -8  -1    2.64    4.18   2
   9  -8   0    2.62    2.66   2
   9  -8   0   -0.48    4.01   2
   9  -8   1   -0.20    2.74   2
   9  -8   1    0.05    2.34   2
   9  -8   2    0.77    1.93   2
   9  -8   2    3.12    2.60   2
   9  -8   3    4.98    3.53   2
   9  -8   3    2.39    4.53   2
   9  -7  -8   11.55    3.88   2
   9  -7  -7    6.03    3.79   2
   9  -7  -6    0.27    3.15   2
   9  -7  -5    3.75    2.37   2
   9  -7  -4   37.08    5.94   2
   9  -7  -2    3.89    2.31   2
   9  -7  -2    2.23    4.13   2
   9  -7  -1    8.69    2.90   2
   9  -7  -1    5.14    4.51   2
   9  -7   0    2.98    1.60   2
   9  -7   1   18.66    3.60   2
   9  -7   1    6.97    4.74   2
   9  -7   2    1.90    1.99   2
   9  -7   2    8.53    3.89   2
   9  -7   3    7.79    2.71   2
   9  -7   5    2.35    2.24   2
   9  -7   5    7.85    4.02   2
  -9   6  10   10.09    3.41   2
   9  -6  -9   -0.87    2.08   2
  -9   6   9   16.75    2.32   2
   9  -6  -8    5.41    3.08   2
   9  -6  -7    2.83    1.93   2
   9  -6  -6   -3.24    3.31   2
   9  -6  -5    4.04    3.68   2
   9  -6  -3    6.37    4.07   2
   9  -6  -2    1.44    2.24   2
   9  -6  -2    1.18    3.71   2
   9  -6  -1   -3.04    1.60   2
   9  -6  -1   -6.00    3.83   2
   9  -6   0    3.47    2.58   2
   9  -6   1    4.26    1.77   2
   9  -6   1   -1.14    3.76   2
   9  -6   2    9.56    3.61   2
   9  -6   2   13.12    4.24   2
   9  -6   4   17.93    2.90   2
   9  -6   4   12.47    2.96   2
   9  -6   5   -1.42    2.20   2
   9  -6   5    3.66    2.33   2
   9  -6   6   -3.11    2.43   2
   9  -5  -9    3.75    1.65   2
   9  -5  -8   10.09    2.92   2
   9  -5  -7    3.55    2.73   2
   9  -5  -6    5.44    3.18   2
   9  -5  -5   30.83    4.61   2
   9  -5  -3    2.68    2.01   2
   9  -5  -3    7.01    3.60   2
   9  -5  -2   25.01    3.05   2
   9  -5  -2   15.37    4.63   2
   9  -5  -1    3.08    2.31   2
   9  -5   0   18.93    3.49   2
   9  -5   0   20.21    2.97   2
   9  -5   1   -3.23    2.79   2
   9  -5   1   -0.97    2.06   2
   9  -5   2   -2.14    2.17   2
   9  -5   4    3.81    2.20   2
   9  -5   4    6.35    4.13   2
   9  -5   5   -0.70    2.07   2
   9  -5   5   -7.90    3.73   2
   9  -5   6   -1.83    2.24   2
   9  -5   7   -1.61    2.39   2
   9  -4  -8    3.06    2.20   2
   9  -4  -7    1.19    1.53   2
   9  -4  -6    7.60    3.02   2
   9  -4  -4    5.11    3.27   2
   9  -4  -3    8.19    2.28   2
   9  -4  -3   12.19    3.71   2
   9  -4  -2    2.74    2.23   2
   9  -4  -1    8.79    2.59   2
   9  -4   0    3.72    2.84   2
   9  -4   0    4.20    3.41   2
   9  -4   1   14.95    2.49   2
   9  -4   1   18.52    4.11   2
   9  -4   3   24.77    5.18   2
   9  -4   4   -0.54    3.21   2
   9  -4   4    1.52    2.14   2
   9  -4   5    3.20    2.34   2
   9  -4   5    2.37    3.81   2
   9  -4   6    0.48    2.20   2
   9  -4   7    2.69    2.51   2
   9  -4   7    2.12    2.52   2
   9  -4   8    3.95    4.28   2
   9  -3  -7    1.50    2.19   2
   9  -3  -6   20.38    3.23   2
   9  -3  -4    3.70    2.01   2
   9  -3  -4    7.84    3.05   2
   9  -3  -3   40.20    3.61   2
   9  -3  -3   35.46    3.23   2
   9  -3  -2    4.23    2.51   2
   9  -3  -1   37.98    4.14   2
   9  -3  -1   21.75    4.59   2
   9  -3   0   -1.14    2.76   2
   9  -3   0    2.30    1.82   2
   9  -3   1   -3.03    3.14   2
   9  -3   3    1.40    2.14   2
   9  -3   4   -2.22    3.15   2
   9  -3   4    1.67    3.53   2
   9  -3   5    8.19    3.90   2
   9  -3   5    1.42    3.70   2
   9  -3   6   -4.72    2.31   2
   9  -3   6    0.77    2.32   2
   9  -3   7    7.23    4.25   2
   9  -2  -5    6.44    2.44   2
   9  -2  -4   14.43    2.55   2
   9  -2  -4   11.54    3.17   2
   9  -2  -3    2.41    2.29   2
   9  -2  -2   14.43    2.88   2
   9  -2  -2    8.95    1.99   2
   9  -2  -1    7.11    2.90   2
   9  -2  -1    5.76    3.07   2
   9  -2   0   12.90    3.37   2
   9  -2   2   20.75    4.53   2
   9  -2   3    8.47    3.83   2
   9  -2   4    3.36    3.59   2
   9  -2   5    0.82    2.11   2
   9  -2   5    1.27    2.00   2
   9  -2   6    2.72    2.23   2
   9  -2   6   -5.97    3.17   2
   9  -2   7    6.44    2.59   2
   9  -1  -5    3.62    2.11   2
   9  -1  -4   33.68    3.46   2
   9  -1  -4   33.11    3.81   2
   9  -1  -3    2.85    2.34   2
   9  -1  -2   31.93    3.81   2
   9  -1  -2   23.15    4.01   2
   9  -1  -1    2.15    1.69   2
   9  -1  -1    0.37    2.61   2
   9  -1   0   -1.51    2.78   2
   9  -1   2    0.87    1.98   2
   9  -1   2    2.88    2.81   2
   9  -1   3   -0.68    2.88   2
   9  -1   4    7.13    3.52   2
   9  -1   4    3.54    2.10   2
   9  -1   5    4.31    2.16   2
   9  -1   5   -0.06    3.53   2
   9  -1   6    4.20    3.72   2
   9  -1   6    1.24    2.17   2
   9   0  -6    4.89    2.10   2
   9   0  -5   12.72    2.52   2
   9   0  -4    5.30    2.48   2
   9   0  -3   16.44    3.23   2
   9   0  -2    3.34    2.81   2
   9   0  -2    5.44    2.44   2
   9   0  -1    5.54    2.82   2
   9   0   1   17.02    3.56   2
   9   0   2    6.59    2.21   2
   9   0   2    4.33    1.88   2
   9   0   3    4.11    3.71   2
   9   0   3    1.11    2.97   2
   9   0   4    2.66    3.48   2
   9   0   4   -0.89    2.99   2
   9   0   5   -2.16    2.11   2
   9   0   6    2.41    3.60   2
   9   1  -6    1.42    2.13   2
   9   1  -5   21.47    3.12   2
   9   1  -4   -4.06    2.66   2
   9   1  -3   20.19    2.43   2
   9   1  -2   -6.52    3.22   2
   9   1  -1   -3.18    2.26   2
   9   1   1   -2.89    3.16   2
   9   1   1    0.22    2.41   2
   9   1   2    1.58    3.42   2
   9   1   2   -3.31    2.79   2
   9   1   3    1.06    3.75   2
   9   1   3    4.46    3.24   2
   9   1   4    5.62    4.23   2
   9   1   4    7.45    2.07   2
   9   1   5    2.56    3.25   2
   9   2  -7    6.21    2.47   2
   9   2  -6    7.96    2.80   2
   9   2  -5    3.01    2.65   2
   9   2  -4    9.19    3.14   2
   9   2  -3    3.60    2.97   2
   9   2  -2    9.25    3.28   2
   9   2   0   14.00    4.15   2
   9   2   1    9.71    3.82   2
   9   2   1    1.44    2.51   2
   9   2   2   -5.15    3.47   2
   9   2   2    1.95    2.46   2
   9   2   3    0.85    3.43   2
   9   2   3    2.07    1.59   2
   9   2   4   -1.84    3.93   2
   9   2   4   -1.54    2.89   2
   9   2   5    0.39    4.12   2
   9   2   5    3.33    3.25   2
   9   3  -7    0.86    1.55   2
   9   3  -6    3.32    2.70   2
   9   3  -5   -0.98    1.69   2
   9   3  -4   14.30    3.71   2
   9   3  -3    1.38    1.81   2
   9   3   0    2.63    3.30   2
   9   3   1   -1.21    2.11   2
   9   3   2   12.68    4.52   2
  10  -6  -5   -0.02    3.33   2
  10  -6  -4    6.94    3.77   2
  10  -6  -3    6.63    4.29   2
  10  -6  -1    9.15    4.51   2
  10  -6   0    4.90    2.71   2
  10  -6   0    1.75    3.82   2
  10  -6   1   -2.44    2.69   2
  10  -5  -6    3.34    3.10   2
  10  -5  -6    0.17    3.01   2
  10  -5  -5    1.29    1.82   2
  10  -5  -4   -0.30    3.36   2
  10  -5  -2   13.01    4.50   2
  10  -5  -1   10.56    2.89   2
  10  -5  -1   11.74    2.84   2
  10  -5   0    3.48    2.69   2
  10  -5   1   -2.04    2.72   2
  10  -5   2   16.91    2.44   2
  10  -5   2    8.47    4.46   2
  10  -5   3    0.55    3.38   2
  10  -4  -5    2.31    3.17   2
  10  -4  -4   11.41    3.82   2
  10  -4  -2   11.83    2.83   2
  10  -4  -1    4.75    2.75   2
  10  -4  -1    3.50    3.44   2
  10  -4   0   -2.18    1.68   2
  10  -4   1    5.97    3.09   2
  10  -4   1    4.75    3.60   2
  10  -4   2   12.45    4.18   2
  10  -4   3    2.14    2.21   2
  10  -3  -3   25.62    4.36   2
  10  -3  -2   12.61    2.78   2
  10  -3  -2    6.88    3.83   2
  10  -3  -1   -1.28    2.53   2
  10  -3   0    1.17    2.62   2
  10  -3   1   17.32    3.74   2
  10  -3   1   13.98    4.22   2
  10  -3   2    0.11    3.07   2
  10  -3   4   17.04    3.22   2
  10  -2  -2    9.45    1.88   2
  10  -2  -2    5.43    3.51   2
  10  -2  -1   -0.50    2.47   2
  10  -2   0    4.68    2.70   2
  10  -2   0   -0.49    1.88   2
  10  -2   1    9.70    2.32   2
  10  -2   2   -0.01    1.88   2
  10  -2   4   17.72    4.76   2
  10  -1  -3   11.46    2.80   2
  10  -1  -2    3.05    2.57   2
  10  -1  -1   -2.72    2.70   2
  10  -1   0    7.45    2.01   2
  10  -1   0    1.65    3.18   2
  10  -1   1    4.26    3.05   2
  10  -1   3   24.20    4.78   2
  10   0  -4   15.18    2.19   2
  10   0  -3    6.19    2.85   2
  10   0  -2    0.12    2.47   2
  10   0  -1   -3.31    2.99   2
  10   0   0    1.38    1.93   2
  10   0   1   -3.32    2.91   2
  10   1  -4    2.88    1.72   2
  10   1  -3    3.51    2.66   2
  10   1  -2   -2.88    3.03   2
  10   1  -1    0.26    1.87   2
   0   0   0    0.00    0.00   0
;
_shelx_hkl_checksum              97560
loop_
_space_group_symop_operation_xyz
'x, y, z'
'-x, -y, -z'
loop_
_atom_site_label
_atom_site_type_symbol
_atom_site_fract_x
_atom_site_fract_y
_atom_site_fract_z
_atom_site_U_iso_or_equiv
_atom_site_adp_type
_atom_site_occupancy
_atom_site_site_symmetry_order
_atom_site_calc_flag
_atom_site_refinement_flags_posn
_atom_site_refinement_flags_adp
_atom_site_refinement_flags_occupancy
Pd01 Pd -0.5000 0.5000 0.0000 0.01546(17) Uani 1 2 d S . P
S002 S -0.2405(3) 0.1891(3) 0.41902(13) 0.0194(3) Uani 1 1 d . . .
S003 S -0.8481(3) 0.4439(3) -0.09095(13) 0.0180(3) Uani 1 1 d . . .
S004 S 0.0248(3) 0.6730(3) 0.32913(13) 0.0190(3) Uani 1 1 d . . .
S005 S 0.1955(3) 0.1864(3) 0.35816(13) 0.0202(3) Uani 1 1 d . . .
S006 S -0.6296(3) 0.5606(3) 0.16337(13) 0.0188(3) Uani 1 1 d . . .
S007 S -0.4048(3) 0.6765(3) 0.39194(13) 0.0188(3) Uani 1 1 d . . .
C010 C 0.0364(10) 0.2242(9) 0.4609(5) 0.0161(11) Uiso 1 1 d . . .
C011 C -0.0220(11) 0.1314(10) 0.2540(6) 0.0175(11) Uiso 1 1 d . . .
C012 C -0.1294(10) 0.7159(9) 0.4326(5) 0.0145(11) Uiso 1 1 d . . .
C013 C -0.2195(11) 0.1323(10) 0.2809(5) 0.0180(12) Uiso 1 1 d . . .
C014 C -0.3941(11) 0.6146(10) 0.2533(6) 0.0178(12) Uiso 1 1 d . . .
C015 C -0.2655(11) 0.0448(11) 0.0892(6) 0.0208(13) Uiso 1 1 d . . .
H01A H -0.3216 -0.0875 0.0608 0.025 Uiso 1 1 calc R U .
H01B H -0.2843 0.1295 0.0270 0.025 Uiso 1 1 calc R U .
C016 C -0.3932(11) 0.0844(10) 0.1853(5) 0.0183(12) Uiso 1 1 d . . .
H01C H -0.4618 0.1912 0.1687 0.022 Uiso 1 1 calc R U .
H01D H -0.5069 -0.0286 0.1998 0.022 Uiso 1 1 calc R U .
C017 C -0.1915(10) 0.6121(9) 0.2238(5) 0.0154(11) Uiso 1 1 d . . .
C018 C -0.0216(11) 0.0792(10) 0.1341(6) 0.0197(13) Uiso 1 1 d . . .
H01E H 0.0324 -0.0364 0.1261 0.024 Uiso 1 1 calc R U .
H01F H 0.0685 0.1831 0.0953 0.024 Uiso 1 1 calc R U .
loop_
_atom_site_aniso_label
_atom_site_aniso_U_11
_atom_site_aniso_U_22
_atom_site_aniso_U_33
_atom_site_aniso_U_23
_atom_site_aniso_U_13
_atom_site_aniso_U_12
Pd01 0.0136(3) 0.0227(4) 0.0079(3) -0.0036(2) -0.0042(2) 0.0028(2)
S002 0.0143(7) 0.0309(10) 0.0120(7) -0.0051(6) -0.0032(5) 0.0058(6)
S003 0.0150(7) 0.0279(9) 0.0097(6) -0.0052(6) -0.0037(5) 0.0047(6)
S004 0.0147(7) 0.0302(9) 0.0109(6) -0.0053(6) -0.0042(5) 0.0059(6)
S005 0.0145(7) 0.0328(10) 0.0114(7) -0.0056(6) -0.0031(5) 0.0041(7)
S006 0.0138(7) 0.0306(9) 0.0098(6) -0.0048(6) -0.0039(5) 0.0033(6)
S007 0.0135(7) 0.0310(9) 0.0102(6) -0.0050(6) -0.0032(5) 0.0041(6)
loop_
_atom_type_symbol
_atom_type_description
_atom_type_scat_dispersion_real
_atom_type_scat_dispersion_imag
_atom_type_scat_source
C C -0.0001 0.0005 'International Tables Vol C Tables 4.2.6.8 and 6.1.1.4'
H H 0.0000 0.0000 'International Tables Vol C Tables 4.2.6.8 and 6.1.1.4'
S S 0.0444 0.0408 'International Tables Vol C Tables 4.2.6.8 and 6.1.1.4'
Pd Pd -0.5291 2.5715 'International Tables Vol C Tables 4.2.6.8 and 6.1.1.4'
loop_
_geom_angle_atom_site_label_1
_geom_angle_atom_site_label_2
_geom_angle_atom_site_label_3
_geom_angle
_geom_angle_site_symmetry_1
_geom_angle_site_symmetry_3
S006 Pd01 S006 180.0 . 2_465
S006 Pd01 S003 90.22(6) . 2_465
S006 Pd01 S003 89.78(6) 2_465 2_465
S006 Pd01 S003 89.78(6) . .
S006 Pd01 S003 90.22(6) 2_465 .
S003 Pd01 S003 180.0 2_465 .
C010 S002 C013 94.4(3) . .
C017 S003 Pd01 101.9(2) 2_465 .
C012 S004 C017 96.1(3) . .
C011 S005 C010 94.2(3) . .
C014 S006 Pd01 101.2(2) . .
C012 S007 C014 96.2(3) . .
C012 C010 S002 123.0(5) 2_566 .
C012 C010 S005 121.1(5) 2_566 .
S002 C010 S005 116.0(4) . .
C013 C011 C018 113.3(6) . .
C013 C011 S005 118.0(5) . .
C018 C011 S005 128.7(5) . .
C010 C012 S007 122.9(5) 2_566 .
C010 C012 S004 122.0(5) 2_566 .
S007 C012 S004 115.0(4) . .
C011 C013 C016 113.5(6) . .
C011 C013 S002 117.4(6) . .
C016 C013 S002 129.1(5) . .
C017 C014 S006 124.3(5) . .
C017 C014 S007 116.4(5) . .
S006 C014 S007 119.3(4) . .
C018 C015 C016 108.7(6) . .
C013 C016 C015 102.3(5) . .
C014 C017 S003 122.4(5) . 2_465
C014 C017 S004 116.2(5) . .
S003 C017 S004 121.4(4) 2_465 .
C011 C018 C015 102.2(5) . .
loop_
_geom_bond_atom_site_label_1
_geom_bond_atom_site_label_2
_geom_bond_distance
_geom_bond_site_symmetry_2
Pd01 S006 2.2979(15) .
Pd01 S006 2.2979(15) 2_465
Pd01 S003 2.3037(17) 2_465
Pd01 S003 2.3037(17) .
S002 C010 1.736(7) .
S002 C013 1.742(6) .
S003 C017 1.712(6) 2_465
S004 C012 1.740(6) .
S004 C017 1.739(7) .
S005 C011 1.734(7) .
S005 C010 1.743(6) .
S006 C014 1.714(7) .
S007 C012 1.722(6) .
S007 C014 1.743(7) .
C010 C012 1.377(9) 2_566
C011 C013 1.333(9) .
C011 C018 1.494(9) .
C012 C010 1.377(9) 2_566
C013 C016 1.486(10) .
C014 C017 1.378(9) .
C015 C018 1.547(10) .
C015 C016 1.550(9) .
C017 S003 1.712(6) 2_465
