#------------------------------------------------------------------------------
#$Date: 2019-11-23 10:52:34 +0200 (Sat, 23 Nov 2019) $
#$Revision: 232955 $
#$URL: file:///home/coder/svn-repositories/cod/cif/4/34/84/4348458.cif $
#------------------------------------------------------------------------------
#
# This file is available in the Crystallography Open Database (COD),
# http://www.crystallography.net/
#
# All data on this site have been placed in the public domain by the
# contributors.
#
data_4348458
loop_
_publ_author_name
'Ogura, Satomi'
'Idobata, Yuki'
'Zhou, Biao'
'Kobayashi, Akiko'
'Takagi, Rina'
'Miyagawa, Kazuya'
'Kanoda, Kazushi'
'Kasai, Hidetaka'
'Nishibori, Eiji'
'Satoko, Chikatoshi'
'Delley, Bernard'
_publ_section_title
;
 Antiferromagnetic Ordering in the Single-Component Molecular Conductor
 [Pd(tmdt)2].
;
_journal_issue                   15
_journal_name_full               'Inorganic chemistry'
_journal_page_first              7709
_journal_page_last               7716
_journal_paper_doi               10.1021/acs.inorgchem.6b01166
_journal_volume                  55
_journal_year                    2016
_chemical_formula_sum            'C18 H12 Pd S12'
_chemical_formula_weight         719.40
_space_group_crystal_system      triclinic
_space_group_IT_number           2
_space_group_name_Hall           '-P 1'
_space_group_name_H-M_alt        'P -1'
_atom_sites_solution_hydrogens   geom
_audit_creation_method           SHELXL-2013
_cell_angle_alpha                90.645(6)
_cell_angle_beta                 96.410(7)
_cell_angle_gamma                103.684(7)
_cell_formula_units_Z            1
_cell_length_a                   6.3883(6)
_cell_length_b                   7.3796(7)
_cell_length_c                   12.0993(10)
_cell_measurement_reflns_used    645
_cell_measurement_temperature    300(2)
_cell_measurement_theta_max      17.180
_cell_measurement_theta_min      0.986
_cell_volume                     550.32(9)
_computing_structure_refinement  'SHELXL-2013 (Sheldrick, 2013)'
_diffrn_ambient_temperature      300(2)
_diffrn_detector_area_resol_mean 10
_diffrn_measured_fraction_theta_full 0.982
_diffrn_measured_fraction_theta_max 0.830
_diffrn_measurement_device_type  cylindrical_IP_camera_at_SPring-8_BL02B1
_diffrn_measurement_method       'phi or omega oscillation scans'
_diffrn_radiation_type           synchrotron
_diffrn_radiation_wavelength     0.4136
_diffrn_reflns_av_unetI/netI     0.0859
_diffrn_reflns_Laue_measured_fraction_full 0.982
_diffrn_reflns_Laue_measured_fraction_max 0.830
_diffrn_reflns_limit_h_max       9
_diffrn_reflns_limit_h_min       -9
_diffrn_reflns_limit_k_max       10
_diffrn_reflns_limit_k_min       -10
_diffrn_reflns_limit_l_max       17
_diffrn_reflns_limit_l_min       -17
_diffrn_reflns_number            9900
_diffrn_reflns_point_group_measured_fraction_full 0.982
_diffrn_reflns_point_group_measured_fraction_max 0.830
_diffrn_reflns_theta_full        14.369
_diffrn_reflns_theta_max         17.180
_diffrn_reflns_theta_min         0.986
_diffrn_source                   'bending magnet'
_exptl_absorpt_coefficient_mu    1.376
_exptl_crystal_colour            black
_exptl_crystal_density_diffrn    2.171
_exptl_crystal_description       block
_exptl_crystal_F_000             358
_exptl_crystal_size_max          0.05
_exptl_crystal_size_mid          0.03
_exptl_crystal_size_min          0.02
_refine_diff_density_max         2.275
_refine_diff_density_min         -5.247
_refine_diff_density_rms         0.378
_refine_ls_extinction_method     none
_refine_ls_goodness_of_fit_ref   1.097
_refine_ls_hydrogen_treatment    constr
_refine_ls_matrix_type           full
_refine_ls_number_parameters     98
_refine_ls_number_reflns         9900
_refine_ls_number_restraints     0
_refine_ls_restrained_S_all      1.097
_refine_ls_R_factor_all          0.1303
_refine_ls_R_factor_gt           0.0998
_refine_ls_shift/su_max          0.000
_refine_ls_shift/su_mean         0.000
_refine_ls_structure_factor_coef Fsqd
_refine_ls_weighting_details
'w=1/[\s^2^(Fo^2^)+(0.2000P)^2^] where P=(Fo^2^+2Fc^2^)/3'
_refine_ls_weighting_scheme      calc
_refine_ls_wR_factor_gt          0.2552
_refine_ls_wR_factor_ref         0.2924
_reflns_Friedel_coverage         0.000
_reflns_number_gt                7443
_reflns_number_total             9900
_reflns_threshold_expression     'I > 2\s(I)'
_cod_data_source_file            ic6b01166_si_008.cif
_cod_data_source_block           shelx
_cod_database_code               4348458
_shelx_space_group_comment
;
The symmetry employed for this shelxl refinement is uniquely defined
by the following loop, which should always be used as a source of
symmetry information in preference to the above space-group names.
They are only intended as comments.
;
_shelxl_version_number           2013-4
_shelx_res_file
;

TITL    shelx in P -1
CELL   0.41360    6.3883    7.3796   12.0993   90.645   96.410  103.684
ZERR     1        0.0006    0.0007    0.0010    0.006    0.007    0.007
LATT  1
SFAC    C   H   S   PD
DISP   C  -0.0001  0.0005  5.17
DISP   H   0.0000  0.0000  0.64
DISP   S   0.0444  0.0408  111.61
DISP   PD -0.5291  2.5715  6133.57
UNIT    18  12  12   1
MERG    0
L.S.    20
TEMP    27
FMAP    2
ACTA
PLAN    25
SHEL    1000. 0.70
WGHT    0.200000
BASF   0.79152
FVAR       0.21600
PD01  4   -0.500000    0.500000    0.000000    10.50000    0.02162    0.03524 =
         0.01356   -0.00526   -0.00301    0.00591
S002  3   -0.238977    0.189691    0.419407    11.00000    0.02379    0.05150 =
         0.02017   -0.00824   -0.00177    0.01094
S003  3   -0.846955    0.442320   -0.090919    11.00000    0.02253    0.04608 =
         0.01601   -0.00793   -0.00068    0.00889
S004  3    0.023782    0.674153    0.328909    11.00000    0.02231    0.05325 =
         0.01528   -0.01039   -0.00201    0.01088
S005  3    0.194934    0.188172    0.358630    11.00000    0.02237    0.05425 =
         0.01955   -0.00822   -0.00212    0.00677
S006  3   -0.627967    0.561094    0.163571    11.00000    0.01727    0.05221 =
         0.01694   -0.00748   -0.00661    0.00643
S007  3   -0.403455    0.676028    0.391201    11.00000    0.02297    0.05286 =
         0.01825   -0.00804   -0.00010    0.00812
C010  1    0.037267    0.225209    0.461920    11.00000    0.02651
C011  1   -0.022569    0.134707    0.253968    11.00000    0.03089
C012  1   -0.122485    0.716267    0.430769    11.00000    0.03220
C013  1   -0.218671    0.136157    0.281782    11.00000    0.02821
C014  1   -0.393994    0.615699    0.255047    11.00000    0.02657
C015  1   -0.263909    0.046514    0.090107    11.00000    0.03525
AFIX  23
H01A  2   -0.318059   -0.081328    0.061517    11.00000   -1.20000
H01B  2   -0.282850    0.129116    0.029968    11.00000   -1.20000
AFIX   0
C016  1   -0.389759    0.083670    0.186073    11.00000    0.03345
AFIX  23
H01C  2   -0.460765    0.184376    0.169479    11.00000   -1.20000
H01D  2   -0.497847   -0.027334    0.200516    11.00000   -1.20000
AFIX   0
C017  1   -0.194874    0.612794    0.221043    11.00000    0.02478
C018  1   -0.021646    0.081314    0.135243    11.00000    0.03419
AFIX  23
H01E  2    0.031241   -0.030616    0.128078    11.00000   -1.20000
H01F  2    0.066253    0.181311    0.097211    11.00000   -1.20000

AFIX   0
HKLF      5

REM     shelx in P -1
REM R1 =  0.0998 for    7443 Fo > 4sig(Fo)  and  0.1303 for all    9900 data
REM     98 parameters refined using      0 restraints

END

WGHT      0.2000      0.0000

REM Highest difference peak  2.275,  deepest hole -5.247,  1-sigma level  0.378
Q1    1  -0.5346  0.3686  0.0205  11.00000  0.05    2.28
Q2    1  -0.8114  0.5543 -0.1020  11.00000  0.05    1.25
Q3    1  -0.4098  0.6439  0.4587  11.00000  0.05    1.23
Q4    1  -0.6287  0.6601  0.1444  11.00000  0.05    1.19
Q5    1  -0.4020  0.5386  0.2591  11.00000  0.05    1.17
Q6    1  -0.2165  0.0754  0.3009  11.00000  0.05    1.14
Q7    1  -0.2853 -0.0197  0.0967  11.00000  0.05    1.11
Q8    1  -0.2205  0.3082  0.4029  11.00000  0.05    1.07
Q9    1   0.0091  0.1430  0.1163  11.00000  0.05    1.07
Q10   1   0.1542  0.7193  0.3112  11.00000  0.05    1.06
Q11   1  -0.5557  0.1242  0.1226  11.00000  0.05    1.05
Q12   1  -0.1768  0.5769  0.3058  11.00000  0.05    1.03
Q13   1  -0.2564  0.5196  0.2352  11.00000  0.05    1.03
Q14   1   0.2066  0.0880  0.3683  11.00000  0.05    1.02
Q15   1  -0.1118  0.8050  0.4358  11.00000  0.05    1.02
Q16   1  -0.3638  0.7907  0.3796  11.00000  0.05    1.01
Q17   1  -0.2776  0.0332  0.2408  11.00000  0.05    1.00
Q18   1  -0.4795  0.0990  0.1981  11.00000  0.05    0.97
Q19   1  -0.2177  0.1194  0.0640  11.00000  0.05    0.97
Q20   1   0.0493  0.3064  0.4620  11.00000  0.05    0.97
Q21   1  -0.8157  0.4806  0.1599  11.00000  0.05    0.95
Q22   1   0.0005  0.5395  0.3400  11.00000  0.05    0.95
Q23   1  -0.4319  0.0229  0.2081  11.00000  0.05    0.95
Q24   1  -0.8704  0.3385 -0.0644  11.00000  0.05    0.94
Q25   1  -0.1897  0.6860  0.2197  11.00000  0.05    0.93
;
_shelx_res_checksum              25353
_shelx_hkl_file
;
   0   0   1    0.50    0.05   1
   0   0  -1    0.42    0.08   1
   0   0   2    1.80    0.19   1
   0   0  -2    1.72    0.20   1
   0   0   3   18.10    0.44   1
   0   0  -3   17.19    0.45   1
   0   0   4   12.38    0.42   1
   0   0  -4   13.59    0.44   1
   0   0   5   23.26    0.59   1
   0   0  -5   23.80    0.59   1
   0   0   6    1.33    0.31   1
   0   0  -6    1.98    0.30   1
   0   0   7   26.43    0.94  -1
   0  -2  -6   26.43    0.94   2
   0   0  -7   26.61    1.01  -1
   0   2   6   26.61    1.01   2
   0   0   8    4.56    0.36   1
   0   0  -8    5.20    0.25   1
   0   0  -9    6.87    0.42   1
   0   0  10    4.38    0.40   1
   0   0 -10    4.39    0.41   1
   0   0  11   11.02    0.50   1
   0   0 -11    9.85    0.49   1
   0   0  12   28.34    0.86   1
   0   0 -12   28.23    0.87   1
   0   0  13   17.46    1.43  -1
   0  -4 -11   17.46    1.43   2
   0   0 -13   19.01    1.46  -1
   0   4  11   19.01    1.46   2
   0   0  14    3.63    0.84  -1
   0  -4 -12    3.63    0.84   2
   0   0 -14    2.99    0.83  -1
   0   4  12    2.99    0.83   2
   0   0  15    0.35    0.42   1
   0   0 -15    1.21    0.43   1
   0   0  16   -0.11    0.41   1
   0   0 -16    0.04    0.41   1
   0   0  17    0.06    0.39   1
   0   0 -17    0.53    0.43   1
   0   1 -17    1.93    0.49   1
   0  -1  17    1.09    0.44   1
   0   1 -16    3.93    0.33   1
   0  -1  16    3.39    0.47   1
   0   1 -15    0.53    0.44   1
   0  -1  15    1.04    0.41   1
   0   1 -14    9.25    1.05  -1
   0   5  11    9.25    1.05   2
   0  -1  14    4.99    0.98  -1
   0  -5 -11    4.99    0.98   2
   0   1 -13   33.14    0.85   1
   0  -1  13   32.63    1.03   1
   0   1 -12    2.04    0.45   1
   0  -1  12    2.14    0.42   1
   0   1 -11    6.68    0.50   1
   0  -1  11    6.18    0.48   1
   0   1 -10    9.27    0.54   1
   0  -1  10    9.81    0.51   1
   0   1  -9    1.26    0.23   1
   0  -1   9    1.44    0.37   1
   0   1  -8    3.04    0.25   1
   0  -1   8    3.65    0.38   1
   0   1  -7   24.54    1.14  -1
   0   3   5   24.54    1.14   2
   0  -1   7   23.20    1.33  -1
   0  -3  -5   23.20    1.33   2
   0   1  -6   15.88    0.54   1
   0  -1   6   16.68    0.53   1
   0   1  -5    3.02    0.34   1
   0  -1   5    2.50    0.33   1
   0   1  -4   11.24    0.44   1
   0  -1   4   11.04    0.42   1
   0   1  -3    4.80    0.20   1
   0  -1   3    5.17    0.33   1
   0   1  -2   14.54    0.40   1
   0  -1   2   13.82    0.39   1
   0   1  -1   31.15    0.58   1
   0  -1   1   30.44    0.53   1
   0   1   0   32.17    0.46   1
   0  -1   0   32.71    0.46   1
   0   1   1   20.87    0.31   1
   0  -1  -1   22.75    0.45   1
   0   1   2    5.57    0.30   1
   0  -1  -2    5.30    0.18   1
   0   1   3   13.90    0.30   1
   0  -1  -3   13.01    0.37   1
   0   1   4    0.62    0.26   1
   0  -1  -4    0.41    0.26   1
   0   1   5   19.61    0.52   1
   0  -1  -5   19.23    0.51   1
   0   1   6   28.73    1.13  -1
   0  -1  -6   28.73    1.13   2
   0  -1  -6   29.31    1.10  -1
   0   1   6   29.31    1.10   2
   0   1   7   13.00    0.88  -1
   0  -1  -7   13.00    0.88   2
   0  -1  -7   13.24    0.85  -1
   0   1   7   13.24    0.85   2
   0   1   8    5.34    0.24   1
   0  -1  -8    5.64    0.37   1
   0   1   9   11.42    0.50   1
   0  -1  -9   13.51    0.49   1
   0   1  10    5.24    0.28   1
   0  -1 -10    5.74    0.41   1
   0   1  11    3.45    0.39   1
   0  -1 -11    4.11    0.36   1
   0   1  12   45.30    1.18   1
   0  -1 -12   45.84    1.18   1
   0   1  13    8.21    0.83  -1
   0  -3 -12    8.21    0.83   2
   0  -1 -13   10.29    0.86  -1
   0   3  12   10.29    0.86   2
   0  -1 -14    0.87    0.24   1
   0   1  14    2.31    0.98  -1
   0  -3 -13    2.31    0.98   2
   0   1  15    6.05    0.48   1
   0  -1 -15    5.58    0.48   1
   0   1  16    2.43    0.46   1
   0  -1 -16    3.47    0.42   1
   0   1  17    2.46    0.44   1
   0  -1 -17    2.41    0.45   1
   0   2 -16    1.08    0.48   1
   0  -2  16    0.34    0.45   1
   0   2 -15    3.27    1.05  -1
   0   6  11    3.27    1.05   2
   0  -2  15    2.43    0.85  -1
   0  -6 -11    2.43    0.85   2
   0   2 -14    2.67    0.31   1
   0  -2  14    2.29    0.47   1
   0   2 -13   17.37    0.77   1
   0  -2  13   17.76    0.75   1
   0   2 -12    8.09    0.56   1
   0  -2  12    5.94    0.49   1
   0   2 -11    2.88    0.46   1
   0  -2  11    3.55    0.43   1
   0   2 -10    4.47    0.46   1
   0  -2  10    4.24    0.28   1
   0   2  -9    0.73    0.41   1
   0  -2   9    1.02    0.38   1
   0   2  -8   16.06    0.65  -1
   0   4   5   16.06    0.65   2
   0  -2   8   15.15    0.92  -1
   0  -4  -5   15.15    0.92   2
   0   2  -7    1.23    0.38   1
   0  -2   7    1.86    0.36   1
   0   2  -6   13.45    0.51   1
   0  -2   6   11.89    0.35   1
   0   2  -5    0.29    0.33   1
   0  -2   5    0.64    0.18   1
   0   2  -4    9.89    0.43   1
   0  -2   4    9.54    0.42   1
   0   2  -3    2.38    0.31   1
   0  -2   3    2.44    0.30   1
   0   2  -2    0.15    0.28   1
   0  -2   2   -0.04    0.15   1
   0   2  -1 1853.90  199.91  -1
   0   2  -1 1853.90  199.91   2
   0   2   0    1.24    0.27   1
   0  -2   0    1.46    0.31   1
   0   2   1    0.25    0.27   1
   0  -2  -1    0.67    0.28   1
   0   2   2   19.04    0.51   1
   0  -2  -2   19.15    0.52   1
   0   2   3   23.26    0.56   1
   0  -2  -3   21.98    0.43   1
   0   2   4   23.09    0.59   1
   0  -2  -4   23.94    0.59   1
   0   2   5    2.13    0.30   1
   0  -2  -5    2.58    0.32   1
   0   2   6   25.40    0.90  -1
   0   0  -7   25.40    0.90   2
   0  -2  -6   25.92    0.95  -1
   0   0   7   25.92    0.95   2
   0   2   7   16.13    0.52   1
   0  -2  -7   16.13    0.51   1
   0   2   8    5.68    0.38   1
   0  -2  -8    5.44    0.33   1
   0   2   9    4.80    0.37   1
   0  -2  -9    4.69    0.37   1
   0   2  10   10.72    0.48   1
   0  -2 -10   11.63    0.50   1
   0   2  11   28.24    0.80   1
   0  -2 -11   31.34    0.84   1
   0   2  12   11.88    0.54   1
   0  -2 -12   23.15    1.27  -1
   0   2  12   23.15    1.27   2
   0   2  13    4.36    0.67  -1
   0  -2 -13    4.36    0.67   2
   0  -2 -13    3.79    0.66  -1
   0   2  13    3.79    0.66   2
   0   2  14    1.55    0.86  -1
   0  -2 -14    1.55    0.86   2
   0  -2 -14    1.44    0.85  -1
   0   2  14    1.44    0.85   2
   0   2  15    0.71    0.36   1
   0  -2 -15    0.72    0.39   1
   0   2  16    0.50    0.22   1
   0  -2 -16    0.58    0.39   1
   0   3 -16    0.60    0.50   1
   0  -3  16    0.27    0.47   1
   0   3 -15    2.93    1.13  -1
   0   7  10    2.93    1.13   2
   0  -3  15    1.95    0.98  -1
   0  -7 -10    1.95    0.98   2
   0   3 -14   16.51    0.80   1
   0  -3  14   15.70    0.57   1
   0   3 -13    1.16    0.47   1
   0  -3  13    0.60    0.46   1
   0   3 -12    3.40    0.53   1
   0  -3  12    4.32    0.52   1
   0   3 -11    6.09    0.58   1
   0  -3  11    5.77    0.54   1
   0   3 -10   -0.45    0.44   1
   0  -3  10   -0.36    0.41   1
   0   3  -9    1.46    0.41   1
   0  -3   9    1.97    0.42   1
   0   3  -8   12.70    1.10  -1
   0   5   4   12.70    1.10   2
   0  -3   8   13.69    1.32  -1
   0  -5  -4   13.69    1.32   2
   0   3  -7    7.92    0.49   1
   0  -3   7    7.47    0.45   1
   0   3  -6    2.80    0.23   1
   0  -3   6    3.35    0.36   1
   0   3  -5    6.33    0.42   1
   0  -3   5    5.21    0.38   1
   0   3  -4    3.30    0.34   1
   0  -3   4    3.02    0.19   1
   0   3  -3    5.84    0.23   1
   0  -3   3    6.47    0.33   1
   0   3  -2   15.28    0.45   1
   0  -3   2   14.97    0.32   1
   0   3  -1   19.13    0.40   1
   0  -3   1   21.22    0.52   1
   0   3   0   15.17    0.48   1
   0  -3   0   14.68    0.36   1
   0   3   1    3.45    0.38   1
   0   3   1    2.99    0.31   1
   0   3   2    5.95    0.36   1
   0  -3  -2    7.41    0.40   1
   0   3   3   -0.11    0.27   1
   0  -3  -3    0.26    0.16   1
   0   3   4   11.45    0.44   1
   0  -3  -4   11.91    0.33   1
   0  -3  -5   22.15    1.06  -1
   0  -1   7   22.15    1.06   2
   0  -3  -6    3.15    0.37   1
   0   3   6    9.59    0.92  -1
   0   1  -8    9.59    0.92   2
   0   3   7   12.50    0.51   1
   0  -3  -7   11.95    0.46   1
   0   3   8    9.72    0.44   1
   0  -3  -8    9.41    0.31   1
   0   3   9    3.52    0.36   1
   0  -3  -9    3.80    0.38   1
   0   3  10    3.02    0.39   1
   0  -3 -10    4.15    0.39   1
   0   3  11   33.93    0.97   1
   0  -3 -11   34.53    0.97   1
   0   3  12    9.93    0.78  -1
   0  -1 -13    9.93    0.78   2
   0  -3 -12   10.98    0.83  -1
   0   1  13   10.98    0.83   2
   0   3  13    4.71    0.82  -1
   0  -1 -14    4.71    0.82   2
   0   3  14    4.20    0.47   1
   0  -3 -14    5.82    0.47   1
   0   3  15    3.62    0.41   1
   0  -3 -15    4.24    0.44   1
   0   3  16    3.02    0.40   1
   0  -3 -16    2.27    0.43   1
   0   4 -16    0.48    1.23  -1
   0   8  10    0.48    1.23   2
   0  -4  16    2.13    0.68  -1
   0  -8 -10    2.13    0.68   2
   0   4 -15    0.66    0.52   1
   0  -4  15   -0.20    0.29   1
   0   4 -14    6.55    0.60   1
   0  -4  14    5.36    0.59   1
   0   4 -13    3.44    0.59   1
   0  -4  13    3.25    0.49   1
   0   4 -12    2.57    0.52   1
   0  -4  12    1.73    0.46   1
   0   4 -11    3.60    0.48   1
   0  -4  11    2.38    0.47   1
   0   4 -10   -0.23    0.47   1
   0  -4  10   -0.20    0.41   1
   0   4  -9    6.35    0.97  -1
   0   6   4    6.35    0.97   2
   0  -4   9    6.23    0.92  -1
   0  -6  -4    6.23    0.92   2
   0   4  -8    0.82    0.25   1
   0  -4   8   -0.19    0.38   1
   0   4  -7    4.66    0.46   1
   0  -4   7    4.55    0.28   1
   0   4  -6    0.77    0.21   1
   0  -4   6    0.82    0.21   1
   0   4  -5    3.84    0.39   1
   0  -4   5    3.64    0.23   1
   0   4  -4    1.66    0.33   1
   0  -4   4    2.61    0.30   1
   0   4  -3   -0.03    0.16   1
   0  -4   3   -0.14    0.15   1
   0   4  -2  406.34   16.61  -1
   0   4  -2  406.34   16.61   2
   0  -4   2  356.44   14.67  -1
   0  -4   2  356.44   14.67   2
   0   4  -1    1.48    0.19   1
   0  -4   1    0.77    0.31   1
   0   4   0    0.67    0.31   1
   0   4   1   12.63    0.48   1
   0   4   1   11.56    0.32   1
   0   4   2   12.06    0.37   1
   0   4   2   11.48    0.45   1
   0   4   3   10.85    0.48   1
   0  -4  -3   11.78    0.48   1
   0   4   4    2.18    0.35   1
   0  -4  -4    1.93    0.36   1
   0   4   5   14.19    0.82  -1
   0   2  -8   14.19    0.82   2
   0  -4  -5   15.85    0.91  -1
   0  -2   8   15.85    0.91   2
   0   4   6   17.62    0.62   1
   0  -4  -6   17.67    0.63   1
   0   4   7    3.09    0.36   1
   0  -4  -7    5.01    0.41   1
   0   4   8    2.36    0.39   1
   0  -4  -8    2.75    0.40   1
   0   4   9    9.19    0.49   1
   0  -4  -9    7.94    0.48   1
   0   4  10   16.30    0.44   1
   0  -4 -10   17.88    0.64   1
   0   4  11   19.90    1.33  -1
   0   0 -13   19.90    1.33   2
   0  -4 -11   17.50    1.31  -1
   0   0  13   17.50    1.31   2
   0   4  12    3.89    0.73  -1
   0   0 -14    3.89    0.73   2
   0  -4 -12    2.29    0.70  -1
   0   0  14    2.29    0.70   2
   0   4  13    1.19    0.40   1
   0  -4 -13    1.22    0.37   1
   0   4  14    0.15    0.38   1
   0  -4 -14    1.00    0.35   1
   0   4  15    0.01    0.38   1
   0  -4 -15   -0.21    0.23   1
   0   5 -14    0.75    0.32   1
   0  -5  14    0.32    0.30   1
   0   5 -13    1.14    0.35   1
   0  -5  13    2.36    0.52   1
   0   5 -12    2.80    0.35   1
   0  -5  12    2.78    0.53   1
   0   5 -11    0.35    0.28   1
   0  -5  11   -0.20    0.47   1
   0   5 -10    1.23    0.30   1
   0  -5  10    0.62    0.45   1
   0   5  -9    3.97    1.45  -1
   0   7   3    3.97    1.45   2
   0  -5   9    3.10    1.04  -1
   0  -7  -3    3.10    1.04   2
   0   5  -8    4.11    0.49   1
   0  -5   8    3.18    0.46   1
   0   5  -7    1.82    0.46   1
   0  -5   7    2.38    0.39   1
   0   5  -6    2.97    0.43   1
   0  -5   6    2.45    0.23   1
   0   5  -5    1.55    0.36   1
   0  -5   5    1.48    0.19   1
   0   5  -4    2.19    0.21   1
   0  -5   4    2.28    0.29   1
   0   5  -3    6.61    0.35   1
   0  -5   3    5.11    0.31   1
   0   5  -2    8.17    0.40   1
   0  -5   2    7.87    0.26   1
   0   5  -1    6.42    0.27   1
   0  -5   1    6.30    0.39   1
   0   5   0    1.27    0.33   1
   0   5   0    2.08    0.35   1
   0   5   1    3.39    0.41   1
   0   5   1    2.97    0.36   1
   0   5   2    0.23    0.23   1
   0   5   2    0.76    0.34   1
   0   5   3    2.16    0.30   1
   0   5   3    4.12    0.25   1
   0   5   4   12.49    0.99  -1
   0   3  -8   12.49    0.99   2
   0  -5  -4   11.65    1.01  -1
   0  -3   8   11.65    1.01   2
   0   5   5    1.22    0.24   1
   0  -5  -5    0.67    0.36   1
   0   5   6    9.87    0.35   1
   0  -5  -6   10.29    0.55   1
   0   5   7    5.79    0.47   1
   0  -5  -7    7.46    0.48   1
   0   5   8    0.53    0.34   1
   0  -5  -8    1.10    0.35   1
   0   5   9    3.06    0.41   1
   0  -5  -9    2.83    0.43   1
   0   5  10   13.96    0.65   1
   0  -5 -10   13.75    0.62   1
   0   5  11    8.53    0.93  -1
   0   1 -14    8.53    0.93   2
   0  -5 -11    7.72    1.04  -1
   0  -1  14    7.72    1.04   2
   0   5  12    1.23    0.97  -1
   0   1 -15    1.23    0.97   2
   0  -5 -12    2.41    1.03  -1
   0  -1  15    2.41    1.03   2
   0   5  13    1.77    0.42   1
   0  -5 -13    3.90    0.45   1
   0   5  14    1.92    0.42   1
   0  -5 -14    1.29    0.41   1
   0   6 -12    1.46    0.54   1
   0  -6  12    0.50    0.50   1
   0   6 -11   -0.29    0.52   1
   0  -6  11    0.11    0.47   1
   0   6 -10    1.88    1.05  -1
   0   8   3    1.88    1.05   2
   0  -6  10    1.46    0.60  -1
   0  -8  -3    1.46    0.60   2
   0   6  -9    0.43    0.48   1
   0  -6   9   -0.18    0.42   1
   0   6  -8    1.98    0.46   1
   0  -6   8    1.11    0.39   1
   0   6  -7    1.66    0.46   1
   0  -6   7    1.53    0.23   1
   0   6  -6    0.62    0.26   1
   0  -6   6    1.49    0.36   1
   0   6  -5    0.47    0.35   1
   0  -6   5    2.08    0.32   1
   0   6  -4    0.28    0.32   1
   0  -6   4   -0.15    0.26   1
   0   6  -3  112.78    3.05  -1
   0   6  -3  112.78    3.05   2
   0  -6   3  101.38    3.06  -1
   0  -6   3  101.38    3.06   2
   0   6  -2    1.80    0.36   1
   0  -6   2    0.80    0.20   1
   0   6  -1    0.01    0.35   1
   0  -6   1    0.12    0.22   1
   0   6   0    5.94    0.31   1
   0   6   0    5.54    0.28   1
   0   6   1    5.35    0.48   1
   0   6   1    4.31    0.42   1
   0   6   2    3.90    0.46   1
   0   6   2    3.40    0.27   1
   0   6   3    2.31    0.28   1
   0   6   3    1.61    0.41   1
   0   6   4    5.99    0.65  -1
   0   4  -9    5.99    0.65   2
   0   6   4    6.88    0.89  -1
   0   4  -9    6.88    0.89   2
   0   6   5   12.16    0.59   1
   0  -6  -5   13.74    0.65   1
   0   6   6    1.91    0.44   1
   0  -6  -6    2.73    0.44   1
   0   6   7    1.27    0.44   1
   0  -6  -7    1.10    0.44   1
   0   6   8    4.71    0.48   1
   0  -6  -8    4.24    0.47   1
   0   6   9    6.00    0.45   1
   0  -6  -9    6.94    0.51   1
   0   6  10    2.80    0.46   1
   0  -6 -10    2.65    0.45   1
   0   6  11    3.44    0.93  -1
   0   2 -15    3.44    0.93   2
   0  -6 -11    1.69    0.91  -1
   0  -2  15    1.69    0.91   2
   0   6  12    0.54    0.25   1
   0  -6 -12    0.00    0.26   1
   0   6  13    0.08    0.38   1
   0  -6 -13   -0.28    0.37   1
   0   7 -10   -0.30    0.32   1
   0  -7  10    0.54    0.45   1
   0   7  -9    0.39    0.31   1
   0  -7   9    0.29    0.26   1
   0   7  -8    0.65    0.50   1
   0  -7   8    1.15    0.40   1
   0   7  -7    1.21    0.47   1
   0  -7   7    1.04    0.38   1
   0   7  -6    0.89    0.40   1
   0  -7   6    0.99    0.21   1
   0   7  -5    1.25    0.35   1
   0  -7   5    0.59    0.19   1
   0   7  -4    2.14    0.33   1
   0  -7   4    1.05    0.18   1
   0   7  -3    3.13    0.25   1
   0  -7   3    2.33    0.23   1
   0   7  -2    2.16    0.25   1
   0  -7   2    2.93    0.26   1
   0   7  -1    0.63    0.39   1
   0   7  -1    0.29    0.38   1
   0   7   0    1.52    0.45   1
   0   7   0    1.32    0.40   1
   0   7   1    0.39    0.43   1
   0   7   1    0.26    0.23   1
   0   7   2    1.67    0.44   1
   0   7   2    1.11    0.41   1
   0   7   3    4.70    1.36  -1
   0   5  -9    4.70    1.36   2
   0   7   3    5.78    1.18  -1
   0   5  -9    5.78    1.18   2
   0   7   4    0.63    0.29   1
   0   7   4    0.35    0.26   1
   0   7   5    8.05    0.42   1
   0   7   5    7.42    0.54   1
   0   7   6    0.31    0.31   1
   0   7   6    3.86    0.49   1
   0   7   7    0.44    0.42   1
   0  -7  -7    0.35    0.41   1
   0   7   8    0.93    0.46   1
   0  -7  -8    1.31    0.44   1
   0  -7  -9    3.59    0.51   1
   0   7  10    3.11    0.78  -1
   0   3 -15    3.11    0.78   2
   0  -7 -10    2.40    0.90  -1
   0  -3  15    2.40    0.90   2
   0   7  11   -0.02    0.40   1
   0   7  12    0.99    0.45   1
   0  -7 -12    0.79    0.25   1
   0   8  -7    0.01    0.44   1
   0  -8   7    0.23    0.36   1
   0   8  -6    0.74    0.38   1
   0  -8   6    1.06    0.32   1
   0   8  -5   -0.06    0.34   1
   0  -8   5    0.04    0.17   1
   0   8  -4   27.25    1.29  -1
   0   8  -4   27.25    1.29   2
   0  -8   4   23.54    0.84  -1
   0  -8   4   23.54    0.84   2
   0   8  -3    0.01    0.41   1
   0  -8   3    0.65    0.23   1
   0   8  -2   -0.16    0.25   1
   0   8  -2   -0.31    0.22   1
   0   8  -1    2.73    0.28   1
   0   8  -1    2.02    0.27   1
   0   8   0   -0.08    0.29   1
   0   8   0    0.70    0.26   1
   0   8   1    1.15    0.31   1
   0   8   1    0.89    0.45   1
   0   8   2    0.35    0.28   1
   0   8   3    2.91    0.91  -1
   0   6 -10    2.91    0.91   2
   0   8   3    3.68    0.97  -1
   0   6 -10    3.68    0.97   2
   0   8   4    5.67    0.58   1
   0   8   4    5.38    0.37   1
   0   8   5    0.80    0.50   1
   0   8   5    0.64    0.46   1
   0   8   6   -0.11    0.50   1
   0   8   6    0.19    0.46   1
   0   8   7    2.50    0.37   1
   0   8   7    1.96    0.49   1
   0   8   8   -0.37    0.32   1
   0   8   8    1.60    0.47   1
   0  -8  -8    1.54    0.31   1
   0   8   9    1.57    0.49   1
   0  -8  -9    1.10    0.49   1
   0   8  10    0.49    0.84  -1
   0   4 -16    0.49    0.84   2
   0  -8 -10    0.86    0.95  -1
   0  -4  16    0.86    0.95   2
   0   9  -1    0.04    0.47   1
   0   9  -1   -0.01    0.42   1
   0   9   0   -0.23    0.48   1
   0   9   0    1.12    0.44   1
   0   9   1    0.14    0.52   1
   0   9   1    0.29    0.44   1
   0   9   2    0.14    0.33   1
   0   9   2    1.14    0.45   1
   0   9   3    0.45    0.32   1
   0   9   3    0.38    0.30   1
   0   9   4    2.87    0.56   1
   0   9   4    2.38    0.33   1
   0   9   5    1.78    0.50   1
   0   9   5    1.31    0.51   1
   0   9   6   -0.86    0.50   1
   0   9   6   -0.28    0.50   1
  -1   9   8    0.35    1.08  -1
   1   5 -15    0.35    1.08   2
  -1   9   8    1.68    0.65  -1
   1   5 -15    1.68    0.65   2
  -1   9   7    1.12    0.44   1
  -1   9   7   -0.05    0.44   1
  -1   9   6    0.69    0.46   1
  -1   9   6    0.32    0.46   1
  -1   9   5   -0.25    0.46   1
  -1   9   5   -0.51    0.46   1
  -1   9   4    0.91    0.48   1
  -1   9   4   -0.64    0.45   1
  -1   9   3    1.14    0.32   1
  -1   9   3    0.19    0.43   1
  -1   9   2    0.38    0.51   1
  -1   9   2    0.83    0.29   1
  -1   9   1    3.16    1.16  -1
   1   7  -9    3.16    1.16   2
  -1   9   1    3.84    0.67  -1
   1   7  -9    3.84    0.67   2
  -1   9   0    1.40    0.54   1
  -1   9   0    0.99    0.47   1
   1  -9   1    0.26    0.27   1
  -1   9  -1    0.69    0.53   1
   1  -9   2    0.40    0.47   1
  -1   9  -2    1.00    0.48   1
   1  -9   3    1.02    0.43   1
  -1   9  -3    0.30    0.49   1
  -1   8  10    0.00    0.26   1
  -1   8  10    0.31    0.41   1
  -1   8   9    7.17    0.62   1
  -1   8   9    6.74    0.55   1
  -1   8   8    1.86    1.01  -1
   1   4 -14    1.86    1.01   2
  -1   8   8    1.31    0.94  -1
   1   4 -14    1.31    0.94   2
  -1   8   7    1.63    0.46   1
  -1   8   7    1.66    0.45   1
  -1   8   6   -0.11    0.44   1
  -1   8   6    1.80    0.45   1
  -1   8   5    0.64    0.42   1
  -1   8   5    1.41    0.45   1
  -1   8   4    1.50    0.47   1
  -1   8   4    1.99    0.45   1
  -1   8   3    0.35    0.46   1
  -1   8   3   -0.07    0.43   1
  -1   8   2    2.31    0.50   1
  -1   8   2    2.27    0.46   1
  -1   8   1   34.26    2.08  -1
   1   6  -8   34.26    2.08   2
  -1   8   1   37.13    2.20  -1
   1   6  -8   37.13    2.20   2
  -1   8   0    2.20    0.50   1
  -1   8   0    1.08    0.29   1
   1  -8   1    0.16    0.44   1
  -1   8  -1    0.45    0.47   1
   1  -8   2    1.24    0.43   1
  -1   8  -2    1.19    0.48   1
   1  -8   3    9.82    0.55   1
  -1   8  -3    8.68    0.59   1
   1  -8   4    0.42    0.35   1
  -1   8  -4   -0.28    0.39   1
   1  -8   5    0.58    0.20   1
  -1   8  -5    0.51    0.39   1
   1  -8   6   -0.22    0.17   1
  -1   8  -6    0.19    0.34   1
   1  -8   7   -0.20    0.30   1
  -1   8  -7   -0.14    0.36   1
   1  -7 -12    0.00    0.37   1
  -1   7  12   -0.08    0.35   1
   1  -7 -11    1.19    0.39   1
  -1   7  11    1.77    0.39   1
   1  -7 -10    6.97    0.50   1
  -1   7  10    6.77    0.49   1
   1  -7  -9    3.01    0.92  -1
  -1  -3  14    3.01    0.92   2
  -1   7   9    0.20    0.95  -1
   1   3 -14    0.20    0.95   2
  -1   7   8    1.12    0.28   1
  -1   7   8    2.74    0.25   1
  -1   7   7    1.08    0.44   1
  -1   7   7    0.52    0.39   1
  -1   7   6    0.71    0.40   1
  -1   7   6   -0.14    0.38   1
  -1   7   5    0.90    0.43   1
  -1   7   5    0.68    0.42   1
  -1   7   4    1.16    0.42   1
  -1   7   4    1.49    0.43   1
  -1   7   3    3.44    0.50   1
  -1   7   3    2.62    0.46   1
  -1   7   2   11.78    1.28  -1
   1   5  -8   11.78    1.28   2
  -1   7   2   14.51    0.77  -1
   1   5  -8   14.51    0.77   2
  -1   7   1    2.84    0.30   1
  -1   7   1    3.26    0.44   1
   1  -7   0    1.05    0.25   1
  -1   7   0    2.14    0.29   1
   1  -7   1    1.01    0.40   1
  -1   7  -1    1.14    0.43   1
   1  -7   2    0.62    0.37   1
  -1   7  -2    0.89    0.42   1
   1  -7   3    6.16    0.44   1
  -1   7  -3    7.10    0.52   1
   1  -7   4    0.35    0.32   1
  -1   7  -4    0.90    0.37   1
   1  -7   5    3.41    0.58  -1
  -1  -7   2    3.41    0.58   2
  -1   7  -5    4.46    0.69  -1
   1   7  -2    4.46    0.69   2
   1  -7   6    0.87    0.29   1
  -1   7  -6    1.27    0.21   1
   1  -7   7    0.14    0.19   1
  -1   7  -7    0.07    0.22   1
   1  -7   8    1.69    0.39   1
  -1   7  -8    2.24    0.28   1
   1  -7   9    0.67    0.41   1
  -1   7  -9    0.23    0.29   1
   1  -7  10    1.17    0.44   1
  -1   7 -10    0.06    0.30   1
   1  -6 -13    2.35    0.38   1
  -1   6  13    2.66    0.37   1
   1  -6 -12   -0.32    0.34   1
  -1   6  12    0.08    0.33   1
   1  -6 -11    1.48    0.37   1
  -1   6  11    0.61    0.36   1
   1  -6 -10   17.06    0.65   1
  -1   6  10   16.73    0.64   1
   1  -6  -9    2.96    0.77  -1
  -1  -2  13    2.96    0.77   2
  -1   6   9    2.69    0.89  -1
   1   2 -13    2.69    0.89   2
   1  -6  -8    4.51    0.42   1
  -1   6   8    4.18    0.41   1
   1  -6  -7    4.78    0.44   1
  -1   6   7    3.58    0.41   1
  -1   6   6    8.05    0.37   1
  -1   6   6    6.89    0.46   1
  -1   6   5    6.08    0.49   1
  -1   6   5    6.37    0.46   1
  -1   6   4   -0.71    0.36   1
  -1   6   4   -0.16    0.34   1
  -1   6   3    4.49    0.46   1
  -1   6   3    4.92    0.43   1
  -1   6   2  112.37    4.02  -1
   1   4  -7  112.37    4.02   2
  -1   6   2  118.19    4.56  -1
   1   4  -7  118.19    4.56   2
   1  -6  -1    0.39    0.24   1
  -1   6   1    3.84    0.43   1
   1  -6   0    1.66    0.22   1
  -1   6   0    1.69    0.26   1
   1  -6   1    2.95    0.39   1
  -1   6  -1    3.21    0.44   1
   1  -6   2   22.32    0.56   1
  -1   6  -2   26.41    0.81   1
   1  -6   3    0.13    0.19   1
  -1   6  -3   -0.09    0.20   1
   1  -6   4    1.34    0.29   1
  -1   6  -4    0.97    0.34   1
   1  -6   5    0.48    0.25   1
  -1   6  -5    0.48    0.30   1
   1  -6   6    0.81    0.17   1
  -1   6  -6    0.60    0.34   1
   1  -6   7    1.72    0.35   1
  -1   6  -7    2.64    0.41   1
   1  -6   8    0.82    0.37   1
  -1   6  -8    0.36    0.27   1
   1  -6   9    1.84    0.29   1
  -1   6  -9    2.93    0.31   1
   1  -6  10    4.25    0.53   1
  -1   6 -10    4.53    0.39   1
   1  -6  11   -0.54    0.48   1
  -1   6 -11    1.05    0.53   1
   1  -6  12    0.61    0.31   1
  -1   6 -12    0.43    0.56   1
   1  -5 -15    0.35    0.32   1
  -1   5  15    0.65    0.32   1
   1  -5 -14    4.29    0.40   1
  -1   5  14    2.80    0.51   1
   1  -5 -13    0.60    0.33   1
  -1   5  13   -0.23    0.33   1
   1  -5 -12    2.81    0.34   1
  -1   5  12    1.94    0.35   1
   1  -5 -11   13.42    0.50   1
  -1   5  11   12.94    0.53   1
   1  -5 -10    2.73    0.71  -1
  -1  -1  13    2.73    0.71   2
  -1   5  10    2.56    0.72  -1
   1   1 -13    2.56    0.72   2
   1  -5  -9    8.35    0.44   1
  -1   5   9    8.89    0.45   1
   1  -5  -8    2.56    0.32   1
  -1   5   8    1.50    0.34   1
   1  -5  -7    0.58    0.32   1
  -1   5   7    0.85    0.32   1
   1  -5  -6    1.92    0.34   1
  -1   5   6    0.90    0.33   1
  -1   5   5    1.97    0.25   1
  -1   5   5    1.59    0.34   1
  -1   5   4    8.68    0.47   1
  -1   5   4    7.60    0.43   1
  -1   5   3   40.25    1.50  -1
   1   3  -7   40.25    1.50   2
  -1   5   3   40.77    1.49  -1
   1   3  -7   40.77    1.49   2
  -1   5   2   10.24    0.51   1
  -1   5   2   10.93    0.33   1
   1  -5  -1    5.13    0.44   1
  -1   5   1    4.54    0.40   1
   1  -5   0    3.01    0.36   1
  -1   5   0    1.95    0.25   1
   1  -5   1    1.85    0.21   1
  -1   5  -1    1.77    0.38   1
   1  -5   2   15.25    0.51   1
  -1   5  -2   17.67    0.59   1
   1  -5   3    1.89    0.19   1
  -1   5  -3    2.18    0.34   1
   1  -5   4    6.89    0.56  -1
  -1  -5   1    6.89    0.56   2
  -1   5  -4    6.73    0.61  -1
   1   5  -1    6.73    0.61   2
   1  -5   5    1.64    0.29   1
  -1   5  -5    2.55    0.30   1
   1  -5   6    1.63    0.20   1
  -1   5  -6    1.66    0.34   1
   1  -5   7    6.02    0.29   1
  -1   5  -7    6.08    0.32   1
   1  -5   8    1.34    0.41   1
  -1   5  -8    2.02    0.27   1
   1  -5   9    1.15    0.25   1
  -1   5  -9    1.57    0.47   1
   1  -5  10   17.11    0.76   1
  -1   5 -10   17.30    0.77   1
   1  -5  11    7.08    1.02  -1
  -1  -7  -5    7.08    1.02   2
  -1   5 -11    7.11    0.99  -1
   1   7   5    7.11    0.99   2
   1  -5  12   -0.33    0.29   1
  -1   5 -12    0.20    0.32   1
   1  -5  13    1.49    0.33   1
  -1   5 -13    1.05    0.34   1
   1  -4 -15    0.83    0.33   1
  -1   4  15    1.21    0.32   1
   1  -4 -14    5.65    0.51   1
  -1   4  14    4.84    0.40   1
   1  -4 -13    0.74    0.31   1
  -1   4  13    1.14    0.32   1
   1  -4 -12    0.50    0.32   1
  -1   4  12    0.83    0.32   1
   1  -4 -11   71.17    2.53  -1
  -1   0  13   71.17    2.53   2
  -1   4  11   72.60    2.87  -1
   1   0 -13   72.60    2.87   2
   1  -4 -10    3.90    0.72  -1
  -1   0  12    3.90    0.72   2
  -1   4  10    2.96    0.60  -1
   1   0 -12    2.96    0.60   2
   1  -4  -9    9.18    0.42   1
  -1   4   9   10.57    0.45   1
   1  -4  -8    9.90    0.41   1
  -1   4   8    9.18    0.39   1
   1  -4  -7   23.53    0.60   1
  -1   4   7   22.06    0.61   1
   1  -4  -6   13.50    0.46   1
  -1   4   6   13.32    0.44   1
   1  -4  -5   -0.11    0.28   1
  -1   4   5    0.09    0.27   1
  -1   4   4    6.33    0.27   1
  -1   4   4    7.38    0.37   1
  -1   4   3  304.52   12.58  -1
   1   2  -6  304.52   12.58   2
  -1   4   3  320.22   13.00  -1
   1   2  -6  320.22   13.00   2
  -1   4   2    4.47    0.22   1
  -1   4   2    4.30    0.36   1
   1  -4  -1    5.92    0.37   1
  -1   4   1    6.15    0.39   1
   1  -4   0    6.10    0.39   1
  -1   4   0    5.38    0.40   1
   1  -4   1   53.42    1.03   1
  -1   4  -1   56.36    1.27   1
   1  -4   2    0.04    0.29   1
  -1   4  -2    0.24    0.29   1
   1  -4   3    1.89    0.29   1
  -1   4  -3    2.60    0.20   1
   1  -4   4    8.56    0.84  -1
  -1  -4   0    8.56    0.84   2
  -1   4  -4    7.87    0.85  -1
   1   4   0    7.87    0.85   2
   1  -4   5    2.75    0.30   1
  -1   4  -5    2.76    0.32   1
   1  -4   6    5.71    0.39   1
  -1   4  -6    6.20    0.39   1
   1  -4   7    1.26    0.37   1
  -1   4  -7    0.93    0.40   1
   1  -4   8    5.06    0.30   1
  -1   4  -8    6.09    0.32   1
   1  -4   9   17.75    0.73   1
  -1   4  -9   16.78    0.53   1
  -1   4 -10    9.91    1.26  -1
   1   6   5    9.91    1.26   2
   1  -4  11    2.60    0.48   1
  -1   4 -11    1.87    0.33   1
   1  -4  12    1.42    0.29   1
  -1   4 -12    1.89    0.52   1
   1  -4  13    1.62    0.32   1
  -1   4 -13    1.60    0.54   1
   1  -4  14    0.27    0.31   1
  -1   4 -14    1.40    0.51   1
   1  -4  15    0.65    0.31   1
  -1   4 -15    0.92    0.56   1
  -1   3  16    1.18    0.33   1
   1  -3 -15    6.22    0.43   1
  -1   3  15    6.63    0.39   1
   1  -3 -14    1.24    0.33   1
  -1   3  14    1.03    0.34   1
   1  -3 -13    2.48    0.34   1
  -1   3  13    2.53    0.34   1
   1  -3 -12   18.33    0.59   1
  -1   3  12   18.48    0.58   1
   1  -3 -11    3.63    0.71  -1
  -1   1  12    3.63    0.71   2
  -1   3  11    3.07    0.54  -1
   1  -1 -12    3.07    0.54   2
   1  -3 -10   40.69    1.46  -1
  -1   1  11   40.69    1.46   2
  -1   3  10   40.98    1.66  -1
   1  -1 -11   40.98    1.66   2
   1  -3  -9    3.72    0.31   1
  -1   3   9    4.43    0.42   1
   1  -3  -8    2.34    0.27   1
  -1   3   8    1.52    0.24   1
   1  -3  -7    3.43    0.28   1
  -1   3   7    2.89    0.26   1
   1  -3  -6    2.63    0.27   1
  -1   3   6    2.47    0.25   1
   1  -3  -5   15.22    0.42   1
  -1   3   5   15.11    0.42   1
   1  -3  -4   84.20    2.15  -1
  -1  -1   6   84.20    2.15   2
  -1   3   4   83.58    2.16  -1
   1   1  -6   83.58    2.16   2
  -1   3   3   32.49    0.74   1
  -1   3   3   27.87    0.63   1
  -1   3   2    9.59    0.39   1
  -1   3   2    9.79    0.38   1
   1  -3  -1    4.45    0.32   1
  -1   3   1    4.93    0.33   1
   1  -3   0    1.37    0.18   1
  -1   3   0    1.28    0.32   1
   1  -3   1   33.53    0.77   1
  -1   3  -1   33.61    0.76   1
   1  -3   2    5.57    0.22   1
  -1   3  -2    6.16    0.36   1
   1  -3   3   14.15    0.66  -1
  -1  -3   0   14.15    0.66   2
  -1   3  -3   13.49    0.65  -1
   1   3   0   13.49    0.65   2
   1  -3   4    5.82    0.21   1
  -1   3  -4    5.71    0.22   1
   1  -3   5    3.40    0.22   1
  -1   3  -5    4.32    0.33   1
   1  -3   6   12.55    0.50   1
  -1   3  -6   12.30    0.35   1
   1  -3   7    5.52    0.42   1
  -1   3  -7    6.00    0.29   1
   1  -3   8    0.90    0.38   1
  -1   3  -8    1.17    0.41   1
   1  -3   9   51.22    1.17   1
  -1   3  -9   56.16    1.54   1
   1  -3  10   10.47    0.93  -1
  -1  -5  -6   10.47    0.93   2
  -1   3 -10   11.14    0.65  -1
   1   5   6   11.14    0.65   2
   1  -3  11    0.76    0.45   1
  -1   3 -11    0.78    0.30   1
   1  -3  12    5.06    0.54   1
  -1   3 -12    4.40    0.56   1
   1  -3  13    0.24    0.45   1
  -1   3 -13    0.50    0.50   1
   1  -3  14    2.82    0.54   1
  -1   3 -14    3.88    0.59   1
   1  -3  15    0.42    0.29   1
  -1   3 -15   -0.45    0.31   1
   1  -3  16    0.19    0.30   1
  -1   3 -16    0.51    0.54   1
   1  -2 -16    1.91    0.36   1
  -1   2  16    1.96    0.35   1
   1  -2 -15    6.08    0.41   1
  -1   2  15    6.10    0.40   1
   1  -2 -14    2.32    0.35   1
  -1   2  14    1.76    0.32   1
   1  -2 -13    1.01    0.29   1
  -1   2  13    0.47    0.29   1
   1  -2 -12   98.56    3.08  -1
  -1   2  12   98.56    3.08   2
  -1   2  12   96.97    3.02  -1
   1  -2 -12   96.97    3.02   2
   1  -2 -11    4.43    0.66  -1
  -1   2  11    4.43    0.66   2
  -1   2  11    3.32    0.52  -1
   1  -2 -11    3.32    0.52   2
   1  -2 -10   12.12    0.42   1
  -1   2  10   12.80    0.45   1
   1  -2  -9   19.93    0.51   1
  -1   2   9   19.08    0.50   1
   1  -2  -8   42.36    0.83   1
  -1   2   8   46.81    0.91   1
   1  -2  -7   20.50    0.48   1
  -1   2   7   22.56    0.60   1
   1  -2  -6    0.62    0.21   1
  -1   2   6    0.28    0.20   1
   1  -2  -5   10.38    0.41   1
  -1   2   5    9.55    0.38   1
  -1   2   4  245.10    6.89   1
   1  -2  -4  724.22   41.06  -1
  -1   0   5  724.22   41.06   2
   1  -2  -3    6.98    0.26   1
  -1   2   3    7.55    0.35   1
  -1   2   2   15.11    0.37   1
  -1   2   2   15.80    0.39   1
   1  -2  -1   10.98    0.36   1
  -1   2   1   11.01    0.37   1
   1  -2   0   96.58    1.80   1
  -1   2   0   98.93    2.06   1
   1  -2   1    0.17    0.27   1
  -1   2  -1   -0.09    0.14   1
   1  -2   2    2.60    0.29   1
  -1   2  -2    8.97    0.98  -1
   1   2   0    8.97    0.98   2
   1  -2   3   19.24    1.05  -1
  -1  -2  -1   19.24    1.05   2
  -1   2  -3   20.37    1.06  -1
   1   2   1   20.37    1.06   2
   1  -2   4    5.35    0.33   1
  -1   2  -4    5.13    0.21   1
   1  -2   5   11.14    0.31   1
  -1   2  -5   12.60    0.48   1
  -1   2  -6    3.74    0.37   1
   1  -2   7   12.45    0.53   1
  -1   2  -7   12.37    0.51   1
   1  -2   8   42.30    0.92   1
  -1   2  -8   44.63    1.18   1
   1  -2   9   22.12    1.28  -1
  -1  -4  -6   22.12    1.28   2
  -1   2  -9   24.93    1.34  -1
   1   4   6   24.93    1.34   2
   1  -2  10   12.11    1.11  -1
  -1  -4  -7   12.11    1.11   2
  -1   2 -10   12.59    1.45  -1
   1   4   7   12.59    1.45   2
   1  -2  11    3.14    0.30   1
  -1   2 -11    3.57    0.52   1
   1  -2  12    2.57    0.47   1
  -1   2 -12    1.13    0.49   1
   1  -2  13    1.22    0.46   1
  -1   2 -13    2.52    0.32   1
   1  -2  14    0.93    0.47   1
  -1   2 -14    0.94    0.51   1
   1  -2  15    1.15    0.48   1
  -1   2 -15    0.50    0.51   1
   1  -2  16    2.52    0.93  -1
  -1  -6 -12    2.52    0.93   2
  -1   2 -16    0.61    1.00  -1
   1   6  12    0.61    1.00   2
   1  -1 -17    2.55    0.37   1
  -1   1  17    1.64    0.35   1
   1  -1 -16    4.76    0.39   1
  -1   1  16    5.38    0.39   1
   1  -1 -15    1.68    0.35   1
  -1   1  15    2.47    0.49   1
   1  -1 -14    1.37    0.34   1
  -1   1  14    2.60    0.34   1
   1  -1 -13   47.58    1.89  -1
  -1   3  12   47.58    1.89   2
  -1   1  13   45.91    1.85  -1
   1  -3 -12   45.91    1.85   2
   1  -1 -12    3.08    0.56  -1
  -1   3  11    3.08    0.56   2
  -1   1  12    2.49    0.58  -1
   1  -3 -11    2.49    0.58   2
   1  -1 -11   12.87    0.47   1
  -1   1  11   40.15    1.53  -1
   1  -3 -10   40.15    1.53   2
   1  -1 -10    5.70    0.34   1
  -1   1  10    5.80    0.35   1
   1  -1  -9    1.56    0.26   1
  -1   1   9    1.33    0.27   1
   1  -1  -8    5.28    0.29   1
  -1   1   8    4.82    0.28   1
   1  -1  -7    2.75    0.24   1
  -1   1   7    2.65    0.24   1
   1  -1  -6   18.62    0.49   1
  -1   1   6   17.50    0.41   1
   1  -1  -5  105.62    2.41  -1
  -1   1   5  105.62    2.41   2
  -1   1   5  105.87    2.44  -1
   1  -1  -5  105.87    2.44   2
   1  -1  -4   45.31    0.76   1
  -1   1   4   41.82    0.65   1
   1  -1  -3   16.50    0.23   1
  -1   1   3   15.78    0.26   1
  -1   1   2    4.58    0.13   1
  -1   1   2    4.39    0.12   1
   1  -1  -1    0.58    0.13   1
  -1   1   1    0.68    0.18   1
   1  -1   0   46.71    0.82   1
  -1   1   0   46.99    0.82   1
   1  -1   1   14.87    0.41   1
  -1   1  -1   12.88    0.27   1
   1  -1   2   24.39    0.78  -1
  -1  -1  -1   24.39    0.78   2
  -1   1  -2   27.80    0.84  -1
   1   1   1   27.80    0.84   2
   1  -1   3   14.76    0.33   1
  -1   1  -3   15.64    0.47   1
   1  -1   4    6.95    0.39   1
  -1   1  -4    7.08    0.38   1
   1  -1   5   20.62    0.60   1
  -1   1  -5   20.01    0.44   1
   1  -1   6    9.15    0.30   1
  -1   1  -6    8.84    0.45   1
   1  -1   7    1.20    0.23   1
  -1   1  -7    1.56    0.40   1
   1  -1   8  127.93    3.42   1
  -1   1  -8  125.03    3.01   1
   1  -1   9   17.90    0.97  -1
  -1  -3  -7   17.90    0.97   2
  -1   1  -9   19.20    1.03  -1
   1   3   7   19.20    1.03   2
   1  -1  10    2.10    0.43   1
  -1   1 -10    3.17    0.27   1
   1  -1  11   10.50    0.57   1
  -1   1 -11    9.68    0.59   1
   1  -1  12    0.29    0.42   1
  -1   1 -12    0.81    0.43   1
   1  -1  13    7.40    0.56   1
  -1   1 -13    7.06    0.59   1
   1  -1  14    1.48    0.49   1
  -1   1 -14    2.05    0.52   1
  -1   1 -15    1.15    0.53   1
   1  -1  15   -0.43    1.22  -1
  -1  -5 -12   -0.43    1.22   2
   1  -1  16   13.61    0.80  -1
  -1  -5 -13   13.61    0.80   2
  -1   1 -16   14.59    1.30  -1
   1   5  13   14.59    1.30   2
   1   0 -17    2.88    0.44   1
  -1   0  17    2.31    0.39   1
   1   0 -16    4.16    0.46   1
  -1   0  16    4.13    0.42   1
   1   0 -15    1.08    0.38   1
  -1   0  15    2.48    0.38   1
   1   0 -14   -0.01    0.35   1
  -1   0  14    1.16    0.35   1
   1   0 -13   73.82    2.81  -1
  -1   4  11   73.82    2.81   2
  -1   0  13   73.05    2.78  -1
   1  -4 -11   73.05    2.78   2
   1   0 -12    4.16    0.79  -1
  -1   4  10    4.16    0.79   2
  -1   0  12    3.56    0.80  -1
   1  -4 -10    3.56    0.80   2
   1   0 -11    8.30    0.43   1
  -1   0  11    8.85    0.43   1
   1   0 -10   20.34    0.57   1
  -1   0  10   20.20    0.56   1
   1   0  -9   40.36    1.07   1
  -1   0   9   40.94    0.92   1
   1   0  -8   19.27    0.52   1
  -1   0   8   18.97    0.51   1
   1   0  -7    0.60    0.34   1
  -1   0   7    0.16    0.33   1
   1   0  -6    5.04    0.28   1
  -1   0   6    4.25    0.27   1
   1   0  -5  269.13    8.05   1
  -1   0   5  669.80   36.24  -1
   1  -2  -4  669.80   36.24   2
   1   0  -4    7.65    0.34   1
  -1   0   4    6.99    0.31   1
   1   0  -3   23.10    0.39   1
  -1   0   3   21.59    0.42   1
   1   0  -2   13.64    0.28   1
  -1   0   2   15.18    0.27   1
   1   0  -1   88.88    1.50   1
  -1   0   1   93.03    1.66   1
   1   0   0   -0.13    0.12   1
  -1   0   0    0.52    0.21   1
   1   0   1    2.99    0.27   1
  -1   0  -1    2.53    0.27   1
   1   0   2    7.12    0.22   1
  -1   0  -2    6.70    0.22   1
   1   0   3    6.65    0.36   1
  -1   0  -3    5.45    0.22   1
   1   0   4   16.50    0.35   1
  -1   0  -4   17.59    0.53   1
   1   0   5    4.89    0.23   1
  -1   0  -5    4.93    0.24   1
   1   0   6   16.27    0.52   1
  -1   0  -6   16.39    0.40   1
   1   0   7   73.79    1.68   1
  -1   0  -7   69.88    1.41   1
   1   0   8   30.98    1.20  -1
  -1  -2  -7   30.98    1.20   2
  -1   0  -8   33.86    1.62  -1
   1   2   7   33.86    1.62   2
  -1   0  -9   11.73    0.58   1
   1   0   9   19.52    1.08  -1
  -1  -2  -8   19.52    1.08   2
   1   0  10    3.29    0.43   1
  -1   0 -10    4.03    0.47   1
   1   0  11    2.56    0.40   1
  -1   0 -11    0.76    0.27   1
   1   0  12    2.64    0.45   1
  -1   0 -12    3.02    0.46   1
   1   0  13    2.25    0.44   1
  -1   0 -13    1.54    0.48   1
   1   0  14    0.26    0.46   1
  -1   0 -14    1.11    0.29   1
   1   0  15    0.13    0.89  -1
  -1  -4 -13    0.13    0.89   2
  -1   0 -15    0.70    1.07  -1
   1   4  13    0.70    1.07   2
   1   0  16    3.00    1.21  -1
  -1  -4 -14    3.00    1.21   2
  -1   0 -16    5.12    1.03  -1
   1   4  14    5.12    1.03   2
   1   1 -17    2.17    0.42   1
  -1  -1  17    1.71    0.38   1
   1   1 -16    2.40    0.44   1
  -1  -1  16    2.18    0.40   1
   1   1 -15    0.67    0.25   1
  -1  -1  15    1.32    0.36   1
   1   1 -14    4.50    0.46   1
  -1  -1  14    4.08    0.44   1
   1   1 -13    3.09    0.88  -1
  -1   5  10    3.09    0.88   2
  -1  -1  13    1.79    0.76  -1
   1  -5 -10    1.79    0.76   2
   1   1 -12    6.53    0.48   1
  -1  -1  12    5.56    0.41   1
   1   1 -11    5.27    0.43   1
  -1  -1  11    4.78    0.39   1
   1   1 -10    1.18    0.33   1
  -1  -1  10    0.48    0.31   1
   1   1  -9    3.72    0.36   1
  -1  -1   9    3.93    0.35   1
   1   1  -8    1.56    0.30   1
  -1  -1   8    1.25    0.30   1
   1   1  -7   11.66    0.44   1
  -1  -1   7   11.66    0.42   1
  -1  -1   6   80.49    2.18  -1
   1  -3  -4   80.49    2.18   2
   1   1  -5   39.66    0.84   1
  -1  -1   5   38.29    0.80   1
   1   1  -4   16.41    0.46   1
  -1  -1   4   15.26    0.44   1
   1   1  -3    3.47    0.28   1
  -1  -1   3    4.06    0.28   1
   1   1  -2    0.76    0.26   1
  -1  -1   2    0.78    0.25   1
   1   1  -1   21.66    0.49   1
  -1  -1   1   21.69    0.52   1
   1   1   0   15.21    0.44   1
  -1  -1   0   15.22    0.47   1
   1   1   1   30.69    0.92  -1
  -1   1  -2   30.69    0.92   2
  -1  -1  -1   31.64    0.92  -1
   1  -1   2   31.64    0.92   2
   1   1   2   19.54    0.52   1
  -1  -1  -2   18.27    0.37   1
   1   1   3    3.51    0.37   1
  -1  -1  -3    2.97    0.31   1
   1   1   4   22.00    0.57   1
  -1  -1  -4   21.46    0.59   1
   1   1   5   12.23    0.47   1
  -1  -1  -5   12.67    0.50   1
   1   1   6    1.47    0.35   1
  -1  -1  -6    1.82    0.35   1
   1   1   7  169.93    4.24   1
  -1  -1  -7  169.47    4.24   1
   1   1   8   25.55    1.02  -1
  -1  -1  -8   25.55    1.02   2
  -1  -1  -8   25.25    1.02  -1
   1   1   8   25.25    1.02   2
   1   1   9    6.19    0.44   1
  -1  -1  -9    7.97    0.46   1
   1   1  10   14.12    0.60   1
  -1  -1 -10   15.28    0.62   1
   1   1  11    2.70    0.28   1
  -1  -1 -11    3.13    0.44   1
   1   1  12   10.18    0.59   1
  -1  -1 -12   10.49    0.57   1
   1   1  13    4.28    0.50   1
  -1  -1 -13    5.50    0.51   1
  -1  -1 -14    0.42    0.42   1
   1   1  14    0.64    1.01  -1
  -1  -3 -13    0.64    1.01   2
   1   1  15   18.31    0.82  -1
  -1  -3 -14   18.31    0.82   2
  -1  -1 -15   19.84    0.83  -1
   1   3  14   19.84    0.83   2
   1   1  16    1.37    0.47   1
  -1  -1 -16    2.25    1.08  -1
   1   3  15    2.25    1.08   2
   1   2 -16    2.11    0.42   1
  -1  -2  16    2.13    0.44   1
   1   2 -15    0.70    0.43   1
  -1  -2  15   -0.01    0.41   1
   1   2 -14    4.71    0.53   1
  -1  -2  14    5.62    0.51   1
   1   2 -13    2.99    1.02  -1
  -1   6   9    2.99    1.02   2
  -1  -2  13    3.37    1.01  -1
   1  -6  -9    3.37    1.01   2
   1   2 -12    4.15    0.29   1
  -1  -2  12    4.55    0.28   1
   1   2 -11   13.72    0.62   1
  -1  -2  11   14.19    0.60   1
   1   2 -10   19.38    0.68   1
  -1  -2  10   18.67    0.65   1
   1   2  -9   10.87    0.51   1
  -1  -2   9   11.14    0.49   1
   1   2  -8    0.13    0.33   1
  -1  -2   8    0.24    0.30   1
   1   2  -7    1.01    0.34   1
  -1  -2   7    1.25    0.33   1
   1   2  -6  322.56   13.58  -1
  -1   4   3  322.56   13.58   2
  -1  -2   6  314.18   13.09  -1
   1  -4  -3  314.18   13.09   2
   1   2  -5    2.93    0.22   1
  -1  -2   5    2.75    0.33   1
   1   2  -4   13.33    0.34   1
  -1  -2   4   13.82    0.45   1
   1   2  -3    9.69    0.42   1
  -1  -2   3    9.31    0.39   1
   1   2  -2   14.49    0.49   1
  -1  -2   2   17.81    0.53   1
   1   2  -1    1.22    0.19   1
   1   2  -1    0.87    0.16   1
   1   2   0    2.34    0.28   1
  -1  -2   0    9.34    1.01  -1
   1  -2   2    9.34    1.01   2
   1   2   1    7.35    0.35   1
  -1  -2  -1   22.12    1.02  -1
   1  -2   3   22.12    1.02   2
   1   2   2    0.40    0.29   1
  -1  -2  -2    0.47    0.31   1
   1   2   3   12.29    0.49   1
  -1  -2  -3   12.65    0.46   1
   1   2   4    4.57    0.36   1
  -1  -2  -4    5.06    0.39   1
   1   2   5   15.48    0.55   1
  -1  -2  -5   14.12    0.53   1
   1   2   6   64.39    1.49   1
  -1  -2  -6   68.54    1.55   1
   1   2   7   11.55    0.35   1
  -1  -2  -7   29.92    1.35  -1
   1   0   8   29.92    1.35   2
   1   2   8   10.62    0.54   1
  -1  -2  -8   18.38    1.17  -1
   1   0   9   18.38    1.17   2
   1   2   9    3.25    0.42   1
  -1  -2  -9    4.16    0.42   1
   1   2  10    1.19    0.23   1
  -1  -2 -10    1.01    0.23   1
   1   2  11    1.02    0.41   1
  -1  -2 -11    0.91    0.43   1
   1   2  12    2.31    0.42   1
  -1  -2 -12    3.02    0.44   1
   1   2  13    2.67    0.29   1
  -1  -2 -13    2.71    0.46   1
   1   2  14    2.66    0.72  -1
  -1  -2 -14    2.66    0.72   2
  -1  -2 -14    0.17    0.76  -1
   1   2  14    0.17    0.76   2
   1   2  15    5.07    0.86  -1
  -1  -2 -15    5.07    0.86   2
  -1  -2 -15    5.27    0.80  -1
   1   2  15    5.27    0.80   2
   1   2  16    8.91    1.15  -1
  -1  -2 -16    8.91    1.15   2
  -1  -2 -16    8.59    1.19  -1
   1   2  16    8.59    1.19   2
   1   3 -16    1.16    0.44   1
  -1  -3  16    0.25    0.43   1
   1   3 -15    1.02    0.44   1
  -1  -3  15    1.50    0.45   1
   1   3 -14   -1.46    1.05  -1
  -1   7   9   -1.46    1.05   2
  -1  -3  14    1.01    0.97  -1
   1  -7  -9    1.01    0.97   2
   1   3 -13    2.22    0.49   1
  -1  -3  13    1.37    0.26   1
   1   3 -12    3.15    0.48   1
  -1  -3  12    3.69    0.45   1
   1   3 -11    0.19    0.40   1
  -1  -3  11   -0.63    0.39   1
   1   3 -10    2.90    0.43   1
  -1  -3  10    2.86    0.41   1
   1   3  -9    0.30    0.41   1
  -1  -3   9    0.68    0.22   1
   1   3  -8    5.56    0.48   1
  -1  -3   8    6.18    0.45   1
   1   3  -7   42.69    1.24  -1
  -1   5   3   42.69    1.24   2
  -1  -3   7   40.43    1.59  -1
   1  -5  -3   40.43    1.59   2
   1   3  -6   21.38    0.50   1
  -1  -3   6   20.81    0.48   1
   1   3  -5    9.47    0.32   1
  -1  -3   5    9.46    0.43   1
   1   3  -4    1.58    0.36   1
  -1  -3   4    1.94    0.33   1
   1   3  -3    0.36    0.31   1
  -1  -3   3    0.75    0.17   1
   1   3  -2    4.44    0.34   1
  -1  -3   2    3.92    0.22   1
   1   3  -1    6.93    0.35   1
   1   3  -1    6.24    0.31   1
   1   3   0   13.07    0.58  -1
  -1   3  -3   13.07    0.58   2
  -1  -3   0   14.07    0.67  -1
   1  -3   3   14.07    0.67   2
   1   3   1    8.41    0.37   1
  -1  -3  -1    9.03    0.41   1
   1   3   2   -0.00    0.17   1
  -1  -3  -2   -0.21    0.29   1
   1   3   3   12.49    0.47   1
  -1  -3  -3   13.05    0.50   1
   1   3   4    8.18    0.45   1
  -1  -3  -4    8.33    0.45   1
   1   3   5    0.88    0.35   1
  -1  -3  -5    0.96    0.37   1
   1   3   6  112.87    2.94   1
  -1  -3  -6  116.54    2.70   1
   1   3   7   17.70    0.66  -1
  -1   1  -9   17.70    0.66   2
  -1  -3  -7   16.45    0.63  -1
   1  -1   9   16.45    0.63   2
   1   3   8    6.86    0.45   1
  -1  -3  -8    6.38    0.47   1
   1   3   9   13.45    0.42   1
  -1  -3  -9   11.85    0.57   1
   1   3  10    5.87    0.47   1
  -1  -3 -10    5.34    0.46   1
   1   3  11    9.97    0.56   1
  -1  -3 -11   10.20    0.57   1
   1   3  12    6.64    0.51   1
  -1  -3 -12    7.28    0.54   1
   1   3  13    1.57    0.99  -1
  -1  -1 -14    1.57    0.99   2
  -1  -3 -13    2.44    1.01  -1
   1   1  14    2.44    1.01   2
   1   3  14   18.71    1.13  -1
  -1  -1 -15   18.71    1.13   2
  -1  -3 -14   18.84    1.15  -1
   1   1  15   18.84    1.15   2
   1   3  15    1.72    0.47   1
  -1  -3 -15    1.76    0.48   1
   1   4 -15    0.53    0.33   1
  -1  -4  15    1.09    0.47   1
   1   4 -14    0.18    1.13  -1
  -1   8   8    0.18    1.13   2
  -1  -4  14    1.69    0.93  -1
   1  -8  -8    1.69    0.93   2
   1   4 -13    2.12    0.50   1
  -1  -4  13    1.75    0.30   1
   1   4 -12    6.56    0.57   1
  -1  -4  12    6.64    0.54   1
   1   4 -11    5.74    0.56   1
  -1  -4  11    6.05    0.53   1
   1   4 -10    4.47    0.32   1
  -1  -4  10    3.67    0.47   1
   1   4  -9    0.07    0.42   1
  -1  -4   9    0.06    0.23   1
   1   4  -8    0.15    0.26   1
  -1  -4   8    0.15    0.36   1
   1   4  -7  126.09    5.05  -1
  -1   6   2  126.09    5.05   2
  -1  -4   7  112.40    4.09  -1
   1  -6  -2  112.40    4.09   2
   1   4  -6    2.32    0.43   1
  -1  -4   6    2.03    0.22   1
   1   4  -5    6.15    0.28   1
  -1  -4   5    5.70    0.26   1
   1   4  -4    5.77    0.28   1
  -1  -4   4    5.61    0.39   1
   1   4  -3    1.05    0.20   1
  -1  -4   3    0.92    0.18   1
   1   4  -2    1.28    0.31   1
   1   4  -2    1.48    0.18   1
  -1  -4   2    0.24    0.18   1
   1   4  -1    1.03    0.28   1
   1   4  -1    1.44    0.25   1
   1   4   0   14.18    1.19  -1
  -1   4  -4   14.18    1.19   2
   1   4   0    9.37    0.91  -1
  -1   4  -4    9.37    0.91   2
   1   4   1    0.17    0.29   1
  -1  -4  -1    0.39    0.31   1
   1   4   2    5.98    0.39   1
  -1  -4  -2    5.80    0.41   1
   1   4   3    2.38    0.38   1
  -1  -4  -3    2.99    0.24   1
   1   4   4    5.48    0.43   1
  -1  -4  -4    5.72    0.45   1
   1   4   5   37.79    1.03   1
  -1  -4  -5   39.46    1.07   1
   1   4   6   22.42    1.18  -1
  -1   2  -9   22.42    1.18   2
  -1  -4  -6   24.75    1.55  -1
   1  -2   9   24.75    1.55   2
   1   4   7   12.53    1.22  -1
  -1   2 -10   12.53    1.22   2
  -1  -4  -7   15.10    1.33  -1
   1  -2  10   15.10    1.33   2
   1   4   8    2.44    0.44   1
  -1  -4  -8    3.10    0.46   1
   1   4   9    0.65    0.41   1
  -1  -4  -9   -0.27    0.41   1
   1   4  10    0.48    0.24   1
  -1  -4 -10   -0.09    0.41   1
   1   4  11    2.02    0.44   1
  -1  -4 -11    1.17    0.43   1
   1   4  12    2.84    0.49   1
  -1  -4 -12    2.59    0.46   1
   1   4  13    1.01    0.79  -1
  -1   0 -15    1.01    0.79   2
  -1  -4 -13    1.94    0.78  -1
   1   0  15    1.94    0.78   2
   1   4  14    4.91    1.08  -1
  -1   0 -16    4.91    1.08   2
  -1  -4 -14    3.91    1.19  -1
   1   0  16    3.91    1.19   2
   1   5 -15   -0.32    1.26  -1
  -1   9   8   -0.32    1.26   2
  -1  -5  15    2.07    1.15  -1
   1  -9  -8    2.07    1.15   2
   1   5 -14   -0.88    0.50   1
  -1  -5  14    0.58    0.48   1
   1   5 -13    0.81    0.52   1
  -1  -5  13    1.23    0.47   1
   1   5 -12    0.53    0.28   1
  -1  -5  12    0.52    0.29   1
   1   5 -11    1.80    0.33   1
  -1  -5  11    1.29    0.45   1
   1   5 -10   -0.11    0.47   1
  -1  -5  10    0.48    0.26   1
   1   5  -9    1.41    0.50   1
  -1  -5   9    2.52    0.45   1
   1   5  -8   13.69    1.17  -1
  -1   7   2   13.69    1.17   2
  -1  -5   8   13.94    1.16  -1
   1  -7  -2   13.94    1.16   2
   1   5  -7    9.55    0.61   1
  -1  -5   7    7.06    0.52   1
   1   5  -6    3.40    0.30   1
  -1  -5   6    3.75    0.42   1
   1   5  -5    1.92    0.41   1
  -1  -5   5    1.61    0.36   1
   1   5  -4    1.07    0.22   1
  -1  -5   4    0.22    0.34   1
   1   5  -3    0.51    0.32   1
  -1  -5   3    0.35    0.21   1
   1   5  -2    2.37    0.30   1
   1   5  -2    1.76    0.29   1
   1   5  -1    7.58    0.40  -1
  -1   5  -4    7.58    0.40   2
   1   5  -1    5.92    0.35  -1
  -1   5  -4    5.92    0.35   2
   1   5   0    4.16    0.38   1
   1   5   0    3.25    0.32   1
   1   5   1    0.66    0.24   1
   1   5   1    0.73    0.19   1
   1   5   2    5.26    0.39   1
  -1  -5  -2    5.87    0.45   1
   1   5   3    4.13    0.41   1
  -1  -5  -3    4.26    0.28   1
   1   5   4    1.12    0.39   1
  -1  -5  -4    0.99    0.24   1
   1   5   5   45.78    1.07   1
  -1  -5  -5   50.91    1.39   1
   1   5   6   12.06    0.95  -1
  -1   3 -10   12.06    0.95   2
  -1  -5  -6   10.61    1.00  -1
   1  -3  10   10.61    1.00   2
   1   5   7    3.23    0.30   1
  -1  -5  -7    3.75    0.47   1
   1   5   8    7.36    0.48   1
  -1  -5  -8    7.50    0.36   1
   1   5   9    3.32    0.46   1
  -1  -5  -9    3.89    0.48   1
   1   5  10    4.14    0.53   1
  -1  -5 -10    5.91    0.55   1
   1   5  11    4.60    0.52   1
  -1  -5 -11    5.01    0.52   1
   1   5  12    1.08    1.19  -1
  -1   1 -15    1.08    1.19   2
   1   5  13   11.81    1.08  -1
  -1   1 -16   11.81    1.08   2
  -1  -5 -13   17.38    1.27  -1
   1  -1  16   17.38    1.27   2
   1   5  14    0.49    0.28   1
  -1  -5 -14    0.79    0.48   1
   1   6 -13    1.14    0.36   1
  -1  -6  13    2.61    0.51   1
   1   6 -12    1.32    0.35   1
  -1  -6  12    0.73    0.47   1
   1   6 -11    0.91    0.53   1
  -1  -6  11    1.52    0.31   1
   1   6 -10   -1.36    0.52   1
  -1  -6  10    0.10    0.45   1
   1   6  -9    0.85    0.51   1
  -1  -6   9    0.35    0.42   1
   1   6  -8   36.79    2.15  -1
  -1   8   1   36.79    2.15   2
  -1  -6   8   34.30    1.54  -1
   1  -8  -1   34.30    1.54   2
   1   6  -7    1.15    0.29   1
  -1  -6   7    0.87    0.42   1
   1   6  -6    3.42    0.48   1
  -1  -6   6    3.10    0.38   1
   1   6  -5    3.52    0.44   1
  -1  -6   5    2.53    0.39   1
   1   6  -4    0.38    0.23   1
  -1  -6   4   -0.10    0.36   1
   1   6  -3    0.78    0.32   1
  -1  -6   3    0.35    0.20   1
   1   6  -2    1.05    0.30   1
   1   6  -2    0.73    0.16   1
   1   6  -1    1.36    0.20   1
   1   6  -1    1.17    0.28   1
   1   6   0    1.31    0.37   1
   1   6   0    1.23    0.31   1
   1   6   1    2.85    0.45   1
   1   6   1    1.60    0.22   1
   1   6   2    1.40    0.28   1
   1   6   2    1.72    0.39   1
   1   6   3    1.89    0.27   1
  -1  -6  -3    1.76    0.49   1
   1   6   4   13.44    0.65   1
  -1  -6  -4   13.99    0.70   1
   1   6   5   12.34    1.11  -1
  -1   4 -10   12.34    1.11   2
  -1  -6  -5   13.38    1.50  -1
   1  -4  10   13.38    1.50   2
   1   6   6    2.57    0.44   1
  -1  -6  -6    1.60    0.48   1
   1   6   7    2.51    0.49   1
  -1  -6  -7    1.90    0.28   1
   1   6   8    0.58    0.26   1
  -1  -6  -8    0.16    0.45   1
   1   6   9    0.44    0.41   1
  -1  -6  -9    0.87    0.45   1
   1   6  10    0.63    0.46   1
  -1  -6 -10    0.90    0.30   1
   1   6  11    2.23    0.31   1
  -1  -6 -11    1.64    0.49   1
   1   6  12    1.15    0.97  -1
  -1   2 -16    1.15    0.97   2
  -1  -6 -12    1.33    0.87  -1
   1  -2  16    1.33    0.87   2
   1   7 -10    0.62    0.34   1
  -1  -7  10    0.33    0.29   1
   1   7  -9    5.21    1.08  -1
  -1   9   1    5.21    1.08   2
  -1  -7   9    3.21    1.10  -1
   1  -9  -1    3.21    1.10   2
   1   7  -8    3.91    0.56   1
  -1  -7   8    1.50    0.29   1
   1   7  -7    1.40    0.49   1
  -1  -7   7    1.35    0.42   1
   1   7  -6    0.38    0.47   1
  -1  -7   6    0.92    0.41   1
   1   7  -5    0.88    0.43   1
  -1  -7   5    0.73    0.37   1
   1   7  -4    0.40    0.22   1
  -1  -7   4   -0.22    0.22   1
   1   7  -3    0.32    0.20   1
   1   7  -3    0.71    0.28   1
   1   7  -2    3.35    0.67  -1
  -1   7  -5    3.35    0.67   2
   1   7  -2    2.88    0.54  -1
  -1   7  -5    2.88    0.54   2
   1   7  -1    1.28    0.39   1
   1   7  -1    0.63    0.33   1
   1   7   0    2.14    0.41   1
   1   7   0    1.18    0.23   1
   1   7   1    2.39    0.47   1
   1   7   1    1.56    0.25   1
   1   7   2    0.79    0.45   1
   1   7   2    1.49    0.42   1
   1   7   3    0.59    0.52   1
   1   7   3    0.43    0.42   1
   1   7   5    7.75    0.98  -1
  -1   5 -11    7.75    0.98   2
  -1  -7  -5    5.70    1.00  -1
   1  -5  11    5.70    1.00   2
   1   7   6    2.02    0.47   1
  -1  -7  -6    1.15    0.51   1
   1   7   7    3.45    0.34   1
  -1  -7  -7    2.81    0.53   1
   1   7   8    0.28    0.49   1
  -1  -7  -8    1.14    0.31   1
   1   7   9    1.39    0.50   1
  -1  -7  -9    2.74    0.50   1
   1   7  10    2.91    0.51   1
  -1  -7 -10    3.03    0.34   1
   1   7  11    0.51    0.28   1
  -1  -7 -11   -0.66    0.48   1
   1   8  -6    1.31    0.50   1
  -1  -8   6    0.40    0.44   1
   1   8  -5   -0.55    0.42   1
  -1  -8   5   -0.41    0.23   1
   1   8  -4    0.31    0.37   1
   1   8  -4    0.36    0.29   1
   1   8  -3    0.29    0.34   1
   1   8  -3   -0.14    0.16   1
   1   8  -2    0.16    0.36   1
   1   8  -2    0.31    0.19   1
   1   8  -1    1.63    0.42   1
   1   8  -1    0.84    0.23   1
   1   8   0    1.36    0.45   1
   1   8   0    0.17    0.37   1
   1   8   1    0.37    0.47   1
   1   8   1    1.06    0.43   1
   1   8   2    0.17    0.48   1
   1   8   2    1.77    0.45   1
   1   8   3    4.20    0.58   1
   1   8   3    2.40    0.52   1
   1   8   4    1.54    0.55   1
   1   8   4    3.26    1.09  -1
  -1   6 -11    3.26    1.09   2
   1   8   5    0.39    0.36   1
   1   8   5    0.90    0.30   1
   1   8   6   -0.02    0.47   1
  -1  -8  -6    1.15    0.33   1
   1   8   7    0.42    0.48   1
  -1  -8  -7   -0.01    0.52   1
  -2  10   5   -0.59    0.44   1
  -2  10   5    0.18    0.42   1
  -2  10   4    1.71    0.31   1
  -2  10   4    0.51    0.47   1
  -2  10   3   -1.11    0.52   1
  -2  10   3   -0.04    0.29   1
  -2  10   2    0.29    0.56   1
  -2  10   2    1.72    0.29   1
  -2   9   8    0.10    0.38   1
  -2   9   8    0.70    0.39   1
  -2   9   7    0.26    0.26   1
  -2   9   7    0.26    0.40   1
  -2   9   6    5.40    1.12  -1
   2   5 -13    5.40    1.12   2
  -2   9   6    6.68    1.13  -1
   2   5 -13    6.68    1.13   2
  -2   9   5    0.12    0.45   1
  -2   9   5    0.24    0.42   1
  -2   9   4    0.37    0.47   1
  -2   9   4    1.10    0.45   1
  -2   9   3    0.25    0.51   1
  -2   9   3    1.58    0.45   1
  -2   9   2    0.37    0.31   1
  -2   9   2    1.25    0.45   1
  -2   9   1    4.50    0.37   1
  -2   9   1    3.67    0.36   1
   2  -9   0    0.29    0.47   1
  -2   9   0    1.07    0.49   1
   2  -9   1    3.99    1.25  -1
  -2  -7   7    3.99    1.25   2
  -2   9  -1    3.16    1.50  -1
   2   7  -7    3.16    1.50   2
   2  -9   2    0.55    0.44   1
  -2   9  -2    0.56    0.48   1
   2  -9   3   -0.25    0.43   1
  -2   9  -3    0.10    0.50   1
   2  -9   4    0.49    0.26   1
  -2   9  -4    1.02    0.51   1
  -2   8  11    0.35    0.34   1
  -2   8  11   -0.31    0.30   1
  -2   8  10   -0.11    0.31   1
  -2   8  10    0.47    0.35   1
  -2   8   9    0.28    0.36   1
  -2   8   9    1.16    0.34   1
  -2   8   8    2.49    0.38   1
  -2   8   8    1.97    0.40   1
  -2   8   7    3.86    1.03  -1
   2   4 -13    3.86    1.03   2
  -2   8   7    4.07    1.03  -1
   2   4 -13    4.07    1.03   2
  -2   8   6    1.10    0.27   1
  -2   8   6    1.08    0.42   1
  -2   8   5    4.76    0.31   1
  -2   8   5    4.29    0.46   1
  -2   8   4   -0.09    0.41   1
  -2   8   4    0.14    0.39   1
  -2   8   3    2.16    0.50   1
  -2   8   3    2.65    0.46   1
  -2   8   2   14.06    0.74   1
  -2   8   2   14.56    0.70   1
   2  -8  -1    0.45    0.28   1
  -2   8   1   -0.07    0.47   1
   2  -8   0    8.48    1.12  -1
  -2  -6   7    8.48    1.12   2
  -2   8   0    7.63    1.31  -1
   2   6  -7    7.63    1.31   2
   2  -8   1    0.95    0.40   1
  -2   8  -1   -0.04    0.49   1
   2  -8   2   -0.24    0.41   1
  -2   8  -2   -0.61    0.47   1
   2  -8   3   -0.00    0.41   1
  -2   8  -3    1.20    0.47   1
   2  -8   4    0.24    0.39   1
  -2   8  -4   -0.11    0.46   1
   2  -8   5    0.94    0.40   1
  -2   8  -5    0.60    0.46   1
   2  -8   6    0.90    0.22   1
  -2   8  -6    0.21    0.41   1
   2  -8   7    1.80    0.65  -1
  -2  -8   1    1.80    0.65   2
  -2   8  -7    3.71    0.82  -1
   2   8  -1    3.71    0.82   2
   2  -7 -12    0.45    0.30   1
  -2   7  12    0.29    0.29   1
  -2   7  11    0.42    0.21   1
  -2   7  11   -0.27    0.28   1
  -2   7  10   -0.14    0.34   1
  -2   7  10   -0.14    0.31   1
  -2   7   9    1.03    0.34   1
  -2   7   9    1.14    0.35   1
  -2   7   8    0.66    0.35   1
  -2   7   8    1.29    0.33   1
  -2   7   7   11.75    1.11  -1
   2   3 -12   11.75    1.11   2
  -2   7   7   13.90    1.01  -1
   2   3 -12   13.90    1.01   2
  -2   7   6    0.94    0.36   1
  -2   7   6    1.09    0.36   1
  -2   7   5    3.53    0.43   1
  -2   7   5    3.52    0.40   1
  -2   7   4    2.01    0.40   1
  -2   7   4    1.15    0.24   1
  -2   7   3    2.57    0.43   1
  -2   7   3    1.87    0.41   1
   2  -7  -2    9.95    0.43   1
  -2   7   2   15.09    0.66   1
   2  -7  -1    0.41    0.37   1
  -2   7   1    0.17    0.27   1
   2  -7   0    4.99    1.14  -1
  -2  -5   6    4.99    1.14   2
  -2   7   0    7.53    1.08  -1
   2   5  -6    7.53    1.08   2
   2  -7   1    1.12    0.25   1
  -2   7  -1    0.19    0.44   1
   2  -7   2    0.96    0.23   1
  -2   7  -2    0.52    0.42   1
   2  -7   3    1.91    0.42   1
  -2   7  -3    3.13    0.48   1
   2  -7   4    1.53    0.24   1
  -2   7  -4    1.75    0.42   1
   2  -7   5    0.94    0.22   1
  -2   7  -5    1.21    0.41   1
   2  -7   6    1.93    0.36   1
  -2   7  -6    1.61    0.38   1
   2  -7   7    1.19    0.32   1
  -2   7  -7    0.96    0.34   1
   2  -7   8   -0.14    0.17   1
  -2   7  -8    0.31    0.19   1
   2  -7   9    1.21    0.37   1
  -2   7  -9    1.04    0.26   1
   2  -6 -14    0.55    0.65  -1
  -2   0  17    0.55    0.65   2
   2  -6 -13    3.62    0.32   1
  -2   6  13    4.14    0.33   1
   2  -6 -12    0.45    0.27   1
  -2   6  12    0.81    0.28   1
   2  -6 -11    0.11    0.27   1
  -2   6  11    0.12    0.26   1
   2  -6 -10    1.15    0.27   1
  -2   6  10    1.15    0.27   1
  -2   6   9    0.73    0.22   1
  -2   6   9    1.81    0.32   1
  -2   6   8    8.31    0.89  -1
   2   2 -12    8.31    0.89   2
  -2   6   8    8.62    0.87  -1
   2   2 -12    8.62    0.87   2
  -2   6   7    1.65    0.33   1
  -2   6   7    1.33    0.34   1
  -2   6   6   10.42    0.48   1
  -2   6   6   10.87    0.47   1
  -2   6   5    0.19    0.34   1
  -2   6   5   -0.05    0.30   1
  -2   6   4    4.31    0.26   1
  -2   6   4    4.03    0.40   1
  -2   6   3   40.46    1.10   1
  -2   6   3   41.49    1.11   1
   2  -6  -2   -0.36    0.33   1
  -2   6   2    0.71    0.37   1
   2  -6  -1   22.00    1.26  -1
  -2  -4   6   22.00    1.26   2
  -2   6   1   24.17    1.25  -1
   2   4  -6   24.17    1.25   2
   2  -6   0    1.34    0.36   1
  -2   6   0    1.17    0.40   1
   2  -6   1    0.84    0.36   1
  -2   6  -1    1.23    0.39   1
   2  -6   2    1.43    0.23   1
  -2   6  -2    1.52    0.25   1
   2  -6   3    0.53    0.21   1
  -2   6  -3    1.47    0.42   1
   2  -6   4    2.95    0.25   1
  -2   6  -4    2.31    0.41   1
   2  -6   5    2.89    0.24   1
  -2   6  -5    3.39    0.39   1
   2  -6   6    6.84    0.70  -1
  -2  -6   0    6.84    0.70   2
  -2   6  -6    7.78    0.77  -1
   2   6   0    7.78    0.77   2
   2  -6   7    1.27    0.30   1
  -2   6  -7    1.34    0.32   1
   2  -6   8    1.52    0.34   1
  -2   6  -8    1.45    0.39   1
   2  -6   9    2.95    0.39   1
  -2   6  -9    2.49    0.27   1
   2  -6  10    2.33    0.44   1
  -2   6 -10    1.56    0.30   1
   2  -6  11    1.37    0.45   1
  -2   6 -11    0.63    0.50   1
   2  -5 -14    4.63    0.32   1
  -2   5  14    4.08    0.33   1
   2  -5 -13    0.71    0.25   1
  -2   5  13    0.98    0.27   1
   2  -5 -12    0.37    0.23   1
  -2   5  12    0.27    0.25   1
   2  -5 -11   -0.07    0.34   1
  -2   5  11   -0.51    0.24   1
   2  -5 -10    1.05    0.26   1
  -2   5  10    1.38    0.28   1
   2  -5  -9    2.54    0.28   1
  -2   5   9    2.88    0.25   1
   2  -5  -8   28.81    1.03  -1
  -2  -1  11   28.81    1.03   2
  -2   5   8   28.55    1.19  -1
   2   1 -11   28.55    1.19   2
  -2   5   7    2.91    0.33   1
  -2   5   7    3.00    0.36   1
  -2   5   6    6.80    0.34   1
  -2   5   6    6.38    0.35   1
  -2   5   5    3.05    0.32   1
  -2   5   5    3.38    0.30   1
  -2   5   4    2.03    0.32   1
  -2   5   4    2.60    0.30   1
   2  -5  -2    0.68    0.32   1
  -2   5   2    1.32    0.34   1
   2  -5  -1   14.35    0.73  -1
  -2  -3   5   14.35    0.73   2
  -2   5   1   17.10    1.22  -1
   2   3  -5   17.10    1.22   2
   2  -5   0    2.93    0.24   1
  -2   5   0    3.69    0.38   1
   2  -5   1    2.97    0.38   1
  -2   5  -1    2.51    0.40   1
   2  -5   2    5.50    0.25   1
  -2   5  -2    6.39    0.45   1
   2  -5   3    5.93    0.43   1
  -2   5  -3    4.86    0.41   1
   2  -5   4    2.63    0.34   1
  -2   5  -4    2.45    0.38   1
   2  -5   5    8.96    0.44   1
  -2   5  -5    8.50    0.49   1
   2  -5   6    6.00    0.53  -1
  -2  -5  -1    6.00    0.53   2
  -2   5  -6    7.85    0.78  -1
   2   5   1    7.85    0.78   2
   2  -5   7    0.40    0.30   1
  -2   5  -7    0.25    0.32   1
   2  -5   8    1.22    0.23   1
  -2   5  -8    1.54    0.38   1
   2  -5   9   12.43    0.61   1
  -2   5  -9   11.93    0.61   1
   2  -5  10    1.02    0.43   1
  -2   5 -10    0.92    0.46   1
   2  -5  11    0.36    0.43   1
  -2   5 -11   -0.08    0.47   1
   2  -5  12    5.36    1.24  -1
  -2  -7  -6    5.36    1.24   2
  -2   5 -12    5.50    1.31  -1
   2   7   6    5.50    1.31   2
   2  -4 -15    1.97    0.61  -1
  -2   2  16    1.97    0.61   2
  -2   4  15    1.23    0.56  -1
   2  -2 -16    1.23    0.56   2
   2  -4 -14    9.04    0.36   1
  -2   4  14    8.34    0.38   1
   2  -4 -13    1.28    0.25   1
  -2   4  13    1.12    0.25   1
   2  -4 -12    1.61    0.33   1
  -2   4  12    2.77    0.25   1
   2  -4 -11    2.55    0.33   1
  -2   4  11    2.75    0.26   1
   2  -4 -10    2.20    0.31   1
  -2   4  10    2.02    0.31   1
   2  -4  -9   20.45    0.73  -1
  -2   0  11   20.45    0.73   2
  -2   4   9   18.04    0.76  -1
   2   0 -11   18.04    0.76   2
   2  -4  -8    0.65    0.21   1
  -2   4   8    0.48    0.26   1
   2  -4  -7   20.67    0.49   1
  -2   4   7   19.96    0.49   1
  -2   4   6    0.59    0.22   1
  -2   4   6    1.10    0.22   1
  -2   4   5    5.74    0.38   1
  -2   4   5    5.78    0.28   1
  -2   4   4   87.91    1.92   1
  -2   4   4   86.03    1.88   1
   2  -4  -3    0.03    0.27   1
  -2   4   3    0.23    0.26   1
   2  -4  -2   54.48    1.69  -1
  -2  -2   5   54.48    1.69   2
  -2   4   2   56.74    1.94  -1
   2   2  -5   56.74    1.94   2
   2  -4  -1    3.09    0.33   1
  -2   4   1    3.16    0.31   1
   2  -4   0    5.17    0.39   1
  -2   4   0    5.71    0.25   1
   2  -4   1    3.86    0.35   1
  -2   4  -1    4.58    0.39   1
   2  -4   2    1.87    0.21   1
  -2   4  -2    1.71    0.35   1
   2  -4   3    6.76    0.41   1
  -2   4  -3    7.18    0.41   1
   2  -4   4   12.82    0.47   1
  -2   4  -4   12.96    0.49   1
   2  -4   5   16.34    0.58  -1
  -2  -4  -1   16.34    0.58   2
  -2   4  -5   19.14    0.86  -1
   2   4   1   19.14    0.86   2
   2  -4   6    2.76    0.29   1
  -2   4  -6    3.03    0.32   1
   2  -4   7    3.23    0.36   1
  -2   4  -7    3.38    0.37   1
   2  -4   8    4.53    0.43   1
  -2   4  -8    6.14    0.49   1
   2  -4   9    5.80    0.47   1
  -2   4  -9    5.92    0.52   1
   2  -4  10    2.12    0.28   1
  -2   4 -10    2.96    0.50   1
   2  -4  11   -0.12    0.27   1
  -2   4 -11    0.66    0.27   1
   2  -4  12    1.91    0.51  -1
  -2  -6  -7    1.91    0.51   2
  -2   4 -12    2.17    0.94  -1
   2   6   7    2.17    0.94   2
   2  -4  13    0.43    0.30   1
  -2   4 -13    0.25    0.56   1
   2  -4  14    2.11    0.30   1
  -2   4 -14    1.54    0.36   1
  -2   3  15   14.85    0.57   1
   2  -3 -14    1.24    0.24   1
  -2   3  14    1.38    0.34   1
   2  -3 -13    0.64    0.30   1
  -2   3  13   -0.05    0.22   1
   2  -3 -12   -0.24    0.20   1
  -2   3  12    0.21    0.22   1
   2  -3 -11    0.69    0.20   1
  -2   3  11    0.93    0.29   1
  -2   3  10   14.43    0.84  -1
   2  -1 -11   14.43    0.84   2
   2  -3  -9   41.48    1.08  -1
  -2   1  10   41.48    1.08   2
  -2   3   9   42.76    1.17  -1
   2  -1 -10   42.76    1.17   2
   2  -3  -8    7.47    0.31   1
  -2   3   8    7.29    0.31   1
   2  -3  -7   11.27    0.34   1
  -2   3   7   11.12    0.37   1
   2  -3  -6    5.44    0.27   1
  -2   3   5    1.54    0.23   1
  -2   3   5    1.90    0.23   1
  -2   3   4   61.91    1.23   1
  -2   3   4   59.27    1.05   1
   2  -3  -3    2.58    0.22   1
  -2   3   3    2.56    0.23   1
   2  -3  -2   35.03    1.43  -1
  -2  -1   4   35.03    1.43   2
  -2   3   2   38.43    1.21  -1
   2   1  -4   38.43    1.21   2
   2  -3  -1   10.21    0.39   1
  -2   3   1    9.48    0.26   1
   2  -3   0   14.88    0.49   1
  -2   3   0   15.20    0.48   1
   2  -3   1   12.55    0.49   1
  -2   3  -1   11.75    0.46   1
   2  -3   2   13.57    0.36   1
  -2   3  -2   14.37    0.50   1
   2  -3   3    3.20    0.22   1
  -2   3  -3    4.14    0.34   1
   2  -3   4   37.85    0.75   1
  -2   3  -4   41.99    0.98   1
   2  -3   5   10.38    0.69  -1
  -2  -3  -2   10.38    0.69   2
  -2   3  -5   11.05    0.88  -1
   2   3   2   11.05    0.88   2
   2  -3   6    0.05    0.16   1
  -2   3  -6    0.93    0.29   1
   2  -3   7    2.74    0.36   1
  -2   3  -7    2.75    0.36   1
   2  -3   8   19.52    0.67   1
  -2   3  -8   18.46    0.51   1
   2  -3   9    0.71    0.39   1
  -2   3  -9    0.94    0.41   1
   2  -3  10    0.06    0.42   1
  -2   3 -10    0.24    0.47   1
   2  -3  11   15.93    1.28  -1
  -2  -5  -7   15.93    1.28   2
  -2   3 -11   15.18    1.38  -1
   2   5   7   15.18    1.38   2
   2  -3  12    7.37    1.37  -1
  -2  -5  -8    7.37    1.37   2
  -2   3 -12    5.13    1.20  -1
   2   5   8    5.13    1.20   2
   2  -3  13    7.52    0.62   1
  -2   3 -13    7.31    0.65   1
   2  -3  14    3.24    0.35   1
  -2   3 -14    2.98    0.37   1
   2  -2 -16    1.20    0.63  -1
  -2   4  15    1.20    0.63   2
  -2   2  16    1.14    0.64  -1
   2  -4 -15    1.14    0.64   2
   2  -2 -15   10.05    0.40   1
  -2   2  15   10.62    0.41   1
   2  -2 -14    2.99    0.27   1
  -2   2  14    2.75    0.28   1
   2  -2 -13    6.84    0.32   1
  -2   2  13    5.59    0.30   1
   2  -2 -12    4.29    0.25   1
  -2   2  12    4.39    0.35   1
  -2   2  11    1.68    0.22   1
   2  -2 -11    5.08    0.71  -1
  -2   2  11    5.08    0.71   2
   2  -2 -10   25.97    0.76  -1
  -2   2  10   25.97    0.76   2
  -2   2  10   27.35    0.84  -1
   2  -2 -10   27.35    0.84   2
   2  -2  -9    0.20    0.14   1
  -2   2   9    0.88    0.54  -1
   2  -2  -9    0.88    0.54   2
   2  -2  -8   28.46    0.55   1
  -2   2   8   27.64    0.57   1
   2  -2  -7    3.42    0.16   1
  -2   2   7    3.20    0.20   1
   2  -2  -6    7.73    0.17   1
  -2   2   6    7.01    0.19   1
  -2   2   5  122.13    2.31   1
  -2   2   4   -0.06    0.10   1
  -2   2   4    0.06    0.11   1
   2  -2  -3  108.13    2.42  -1
  -2   0   4  108.13    2.42   2
  -2   2   3  101.93    2.28  -1
   2   0  -4  101.93    2.28   2
   2  -2  -2    4.81    0.21   1
  -2   2   2    4.76    0.29   1
   2  -2  -1   22.15    0.49   1
  -2   2   1   20.99    0.48   1
   2  -2   0   10.46    0.39   1
  -2   2   0   10.15    0.39   1
   2  -2   1    3.64    0.35   1
  -2   2  -1    3.52    0.22   1
   2  -2   2   11.76    0.45   1
  -2   2  -2   11.17    0.30   1
   2  -2   3   31.19    0.59   1
  -2   2  -3   34.07    0.77   1
   2  -2   4   30.53    0.95  -1
  -2  -2  -2   30.53    0.95   2
  -2   2  -4   31.72    1.01  -1
   2   2   2   31.72    1.01   2
   2  -2   5    6.76    0.33   1
  -2   2  -5    6.45    0.23   1
   2  -2   6    4.54    0.35   1
  -2   2  -6    5.19    0.36   1
   2  -2   7    6.90    0.43   1
  -2   2  -7    7.85    0.46   1
   2  -2   8    9.44    0.49   1
  -2   2  -8   10.22    0.36   1
   2  -2   9    5.69    0.50   1
  -2   2  -9    5.90    0.48   1
   2  -2  10   -1.00    0.42   1
  -2   2 -10    0.33    0.27   1
   2  -2  11    3.60    0.50  -1
  -2  -4  -8    3.60    0.50   2
  -2   2 -11    4.95    0.86  -1
   2   4   8    4.95    0.86   2
   2  -2  12    1.62    0.47   1
  -2   2 -12    0.65    0.52   1
   2  -2  13    3.78    0.53   1
  -2   2 -13    5.19    0.57   1
   2  -2  14    6.44    0.61   1
  -2   2 -14    5.53    0.64   1
   2  -2  15    0.57    0.51   1
  -2   2 -15   -0.03    0.53   1
   2  -1 -16    7.42    0.39   1
  -2   1  16    5.88    0.38   1
   2  -1 -15    1.12    0.28   1
  -2   1  15    1.40    0.28   1
   2  -1 -14    0.03    0.25   1
  -2   1  14    0.25    0.32   1
   2  -1 -13    0.44    0.25   1
  -2   1  13   -0.01    0.25   1
   2  -1 -12    0.02    0.33   1
  -2   1  12    0.54    0.24   1
   2  -1 -11    4.97    0.28   1
  -2   1  11   14.26    0.77  -1
   2  -3 -10   14.26    0.77   2
  -2   1  10   41.82    1.19  -1
   2  -3  -9   41.82    1.19   2
   2  -1  -9   10.70    0.38   1
  -2   1   9   10.82    0.31   1
   2  -1  -8   12.61    0.29   1
  -2   1   8   12.64    0.36   1
   2  -1  -7    5.70    0.22   1
  -2   1   7    5.56    0.22   1
   2  -1  -6    1.29    0.08   1
  -2   1   6    0.78    0.13   1
   2  -1  -5   56.35    0.80   1
  -2   1   5   57.72    0.83   1
  -2   1   3   21.16    0.28   1
   2  -1  -2   22.38    0.42   1
  -2   1   2   23.30    0.42   1
   2  -1  -1   44.01    0.77   1
  -2   1   1   43.79    0.79   1
   2  -1   0   15.07    0.45   1
  -2   1   0   15.51    0.43   1
   2  -1   1   29.38    0.71   1
  -2   1  -1   31.05    0.72   1
   2  -1   2    5.48    0.36   1
  -2   1  -2    5.32    0.36   1
   2  -1   3  121.63    2.50   1
  -2   1  -3  479.13   22.56  -1
   2   1   2  479.13   22.56   2
   2  -1   4   18.77    0.69  -1
  -2  -1  -3   18.77    0.69   2
  -2   1  -4   20.07    0.67  -1
   2   1   3   20.07    0.67   2
   2  -1   5    0.37    0.17   1
  -2   1  -5    0.48    0.29   1
   2  -1   6    6.30    0.39   1
  -2   1  -6    7.01    0.41   1
   2  -1   7   19.63    0.63   1
  -2   1  -7   20.01    0.47   1
   2  -1   8    4.10    0.27   1
  -2   1  -8    4.66    0.44   1
   2  -1   9    0.15    0.39   1
  -2   1  -9    0.81    0.40   1
   2  -1  10   30.57    1.43  -1
  -2  -3  -8   30.57    1.43   2
  -2   1 -10   28.62    1.50  -1
   2   3   8   28.62    1.50   2
   2  -1  11    7.29    0.91  -1
  -2  -3  -9    7.29    0.91   2
  -2   1 -11    8.40    1.20  -1
   2   3   9    8.40    1.20   2
   2  -1  12   11.84    0.65   1
  -2   1 -12   10.65    0.68   1
   2  -1  13    7.81    0.61   1
  -2   1 -13    6.44    0.41   1
   2  -1  14    0.42    0.50   1
  -2   1 -14    1.94    0.55   1
   2  -1  15   18.13    0.64   1
  -2   1 -15   20.55    0.71   1
   2   0 -17    0.10    0.29   1
  -2   0  17    0.95    0.81  -1
   2  -6 -14    0.95    0.81   2
   2   0 -16    7.50    0.45   1
  -2   0  16    7.16    0.41   1
   2   0 -15    3.91    0.44   1
  -2   0  15    2.63    0.32   1
   2   0 -14    6.34    0.37   1
  -2   0  14    6.51    0.38   1
   2   0 -13    4.10    0.33   1
  -2   0  13    3.82    0.32   1
   2   0 -12    0.50    0.28   1
  -2   0  12    0.33    0.26   1
   2   0 -11   19.65    0.94  -1
  -2   4   9   19.65    0.94   2
  -2   0  11   20.13    0.88  -1
   2  -4  -9   20.13    0.88   2
   2   0 -10    1.58    0.34   1
  -2   0  10    2.05    0.24   1
   2   0  -9   19.36    0.47   1
  -2   0   9   19.98    0.57   1
   2   0  -8    5.80    0.35   1
  -2   0   8    4.78    0.24   1
   2   0  -7    4.86    0.23   1
  -2   0   7    4.80    0.28   1
   2   0  -6   84.59    1.72   1
  -2   0   6   85.48    1.68   1
   2   0  -5    0.31    0.14   1
  -2   0   5    0.17    0.20   1
   2   0  -4  107.30    2.50  -1
  -2   2   3  107.30    2.50   2
   2   0  -4  106.32    2.50  -1
  -2   2   3  106.32    2.50   2
   2   0  -3    7.81    0.31   1
   2   0  -2   28.03    0.54   1
  -2   0   2   27.93    0.52   1
   2   0  -1   14.54    0.42   1
  -2   0   1   14.23    0.41   1
   2   0   0    6.39    0.36   1
  -2   0   0    6.46    0.35   1
   2   0   1   10.65    0.29   1
  -2   0  -1   11.56    0.30   1
   2   0   2   56.26    1.16   1
  -2   0  -2   55.71    1.13   1
   2   0   3   26.04    0.73  -1
  -2   0  -3   26.04    0.73   2
  -2   0  -3   28.51    0.79  -1
   2   0   3   28.51    0.79   2
   2   0   4   10.30    0.28   1
  -2   0  -4   10.87    0.40   1
   2   0   5    6.15    0.25   1
  -2   0  -5    6.88    0.36   1
   2   0   6    8.01    0.28   1
  -2   0  -6    7.42    0.27   1
   2   0   7   11.60    0.52   1
  -2   0  -7   12.45    0.37   1
   2   0   8    8.96    0.51   1
  -2   0  -8    7.94    0.32   1
  -2   0  -9    1.51    0.26   1
   2   0   9    2.70    1.06  -1
  -2  -2  -8    2.70    1.06   2
   2   0  10    7.35    0.54  -1
  -2  -2  -9    7.35    0.54   2
  -2   0 -10    7.34    0.82  -1
   2   2   9    7.34    0.82   2
   2   0  11    4.83    1.14  -1
  -2  -2 -10    4.83    1.14   2
  -2   0 -11    4.72    0.97  -1
   2   2  10    4.72    0.97   2
   2   0  12    4.17    0.52   1
  -2   0 -12    4.84    0.55   1
   2   0  13   11.22    0.64   1
  -2   0 -13    9.75    0.68   1
   2   0  14    0.30    0.44   1
  -2   0 -14    0.88    0.31   1
   2   0  15   25.98    0.79   1
  -2   0 -15   28.51    1.06   1
   2   1 -17    3.35    0.42   1
  -2  -1  17    3.40    0.38   1
   2   1 -16    1.37    0.37   1
  -2  -1  16    0.35    0.34   1
   2   1 -15   -0.08    0.33   1
  -2  -1  15    0.20    0.31   1
   2   1 -14   -0.18    0.32   1
  -2  -1  14    0.12    0.31   1
   2   1 -13   -0.01    0.31   1
  -2  -1  13    0.14    0.28   1
   2   1 -12    3.75    0.43   1
  -2  -1  12    3.45    0.35   1
   2   1 -11   27.21    1.17  -1
  -2   5   8   27.21    1.17   2
  -2  -1  11   28.53    1.27  -1
   2  -5  -8   28.53    1.27   2
   2   1 -10   10.12    0.42   1
  -2  -1  10   10.20    0.40   1
   2   1  -9   10.06    0.41   1
  -2  -1   9    9.72    0.39   1
   2   1  -8    4.58    0.42   1
  -2  -1   8    4.55    0.39   1
   2   1  -7    0.50    0.24   1
  -2  -1   7   -0.10    0.22   1
   2   1  -6   32.40    0.68   1
  -2  -1   6   30.51    0.76   1
   2   1  -5    3.66    0.28   1
  -2  -1   5    3.99    0.26   1
   2   1  -4   34.45    1.23  -1
  -2   3   2   34.45    1.23   2
  -2  -1   4    3.78    0.62  -1
   2  -3  -2    3.78    0.62   2
   2   1  -3   21.39    0.53   1
   2   1  -3   21.64    0.53   1
   2   1  -2   32.76    0.74   1
  -2  -1   2   34.57    0.75   1
   2   1  -1   10.87    0.43   1
  -2  -1   1   11.66    0.44   1
   2   1   0   31.77    0.76   1
  -2  -1   0   31.25    0.59   1
   2   1   1    3.02    0.32   1
  -2  -1  -1    2.77    0.36   1
   2   1   2  158.41    3.63   1
  -2  -1  -3    9.55    0.25   1
   2   1   3   25.12    0.98  -1
  -2   1  -4   25.12    0.98   2
   2   1   4    0.11    0.29   1
  -2  -1  -4    0.03    0.17   1
   2   1   5    9.83    0.44   1
  -2  -1  -5    8.41    0.28   1
   2   1   6    7.61    0.30   1
  -2  -1  -6    8.69    0.47   1
   2   1   7    7.12    0.47   1
  -2  -1  -7    7.58    0.32   1
   2   1   8   -0.22    0.37   1
  -2  -1  -8    0.45    0.39   1
   2   1   9   37.95    1.40  -1
  -2  -1  -9   37.95    1.40   2
  -2  -1  -9   39.11    1.71  -1
   2   1   9   39.11    1.71   2
   2   1  10   10.64    0.86  -1
  -2  -1 -10   10.64    0.86   2
  -2  -1 -10    8.84    0.88  -1
   2   1  10    8.84    0.88   2
   2   1  11   11.46    0.45   1
  -2  -1 -11   21.47    0.76   1
   2   1  12   10.82    0.59   1
  -2  -1 -12    9.98    0.64   1
   2   1  13    0.86    0.47   1
  -2  -1 -13    0.63    0.48   1
   2   1  14   29.39    1.07   1
   2   1  15    0.64    0.31   1
  -2  -1 -15    1.22    0.55   1
   2   2 -16    2.26    0.41   1
  -2  -2  16    2.36    0.37   1
   2   2 -15    3.98    0.43   1
  -2  -2  15    3.73    0.41   1
   2   2 -14    2.85    0.39   1
  -2  -2  14    3.14    0.39   1
   2   2 -13   -0.35    0.36   1
  -2  -2  13    0.34    0.34   1
   2   2 -12    8.45    0.97  -1
  -2   6   8    8.45    0.97   2
  -2  -2  12   10.48    1.02  -1
   2  -6  -8   10.48    1.02   2
   2   2 -11    3.33    0.39   1
  -2  -2  11    4.15    0.37   1
  -2  -2  10    8.77    0.44   1
   2   2  -9    5.63    0.40   1
  -2  -2   9    4.78    0.37   1
   2   2  -8    2.60    0.35   1
  -2  -2   8    2.74    0.32   1
   2   2  -7   32.64    0.81   1
  -2  -2   7   31.29    0.78   1
   2   2  -6    0.28    0.30   1
  -2  -2   6    0.41    0.28   1
   2   2  -5   58.92    1.88  -1
  -2   4   2   58.92    1.88   2
  -2  -2   5   59.70    1.83  -1
   2  -4  -2   59.70    1.83   2
   2   2  -4    7.81    0.39   1
  -2  -2   4    0.90    0.23   1
   2   2  -3    9.32    0.44   1
   2   2  -3   10.36    0.41   1
   2   2  -2    8.12    0.39   1
  -2  -2   2    7.57    0.41   1
   2   2  -1    4.12    0.33   1
  -2  -2   1    4.12    0.36   1
   2   2   0    6.55    0.40   1
  -2  -2   0    6.78    0.39   1
   2   2   1   44.21    0.79   1
  -2  -2  -1   44.09    0.82   1
   2   2   2   34.13    1.07  -1
  -2   2  -4   34.13    1.07   2
  -2  -2  -2   33.94    1.05  -1
   2  -2   4   33.94    1.05   2
   2   2   3    9.00    0.26   1
  -2  -2  -3   10.27    0.40   1
   2   2   4    4.66    0.38   1
  -2  -2  -4    4.77    0.24   1
   2   2   5    5.28    0.40   1
  -2  -2  -5    4.18    0.25   1
   2   2   6    7.66    0.45   1
  -2  -2  -6    8.04    0.46   1
   2   2   7    7.16    0.32   1
  -2  -2  -7    7.64    0.48   1
  -2  -2  -8    0.93    0.22   1
   2   2   8    3.93    1.09  -1
  -2   0  -9    3.93    1.09   2
   2   2   9    6.95    0.80  -1
  -2   0 -10    6.95    0.80   2
  -2  -2  -9    6.68    0.75  -1
   2   0  10    6.68    0.75   2
   2   2  10    4.38    1.16  -1
  -2   0 -11    4.38    1.16   2
  -2  -2 -10    4.02    1.13  -1
   2   0  11    4.02    1.13   2
   2   2  11    2.96    0.48   1
  -2  -2 -11    3.86    0.49   1
   2   2  12   12.07    0.63   1
  -2  -2 -12   11.95    0.45   1
   2   2  13    1.11    0.48   1
  -2  -2 -13    0.11    0.30   1
   2   2  14   44.59    1.36   1
  -2  -2 -14   31.56    0.92   1
   2   2  15    2.93    0.34   1
  -2  -2 -15    8.08    0.99  -1
   2   2  15    8.08    0.99   2
   2   3 -16   -0.46    0.40   1
  -2  -3  16    0.11    0.39   1
   2   3 -15   -0.03    0.39   1
  -2  -3  15    0.15    0.37   1
   2   3 -14    0.27    0.38   1
  -2  -3  14    0.12    0.24   1
   2   3 -13    0.90    0.41   1
  -2  -3  13    0.91    0.39   1
   2   3 -12   13.73    1.08  -1
  -2   7   7   13.73    1.08   2
  -2  -3  12   12.73    1.24  -1
   2  -7  -7   12.73    1.24   2
   2   3 -11    7.40    0.50   1
  -2  -3  11    6.90    0.47   1
   2   3 -10    5.54    0.46   1
  -2  -3  10    4.58    0.42   1
   2   3  -9    2.78    0.41   1
  -2  -3   9    2.26    0.37   1
   2   3  -8    1.02    0.38   1
  -2  -3   8    0.04    0.33   1
   2   3  -7   10.97    0.51   1
  -2  -3   7   10.33    0.49   1
   2   3  -6    2.99    0.39   1
  -2  -3   6    2.82    0.35   1
   2   3  -5   17.29    1.06  -1
  -2   5   1   17.29    1.06   2
  -2  -3   5   15.28    1.17  -1
   2  -5  -1   15.28    1.17   2
   2   3  -4   12.75    0.52   1
   2   3  -4   11.59    0.34   1
   2   3  -3   11.00    0.48   1
   2   3  -3    9.19    0.30   1
   2   3  -2    6.20    0.45   1
   2   3  -2    4.95    0.23   1
   2   3  -1   17.26    0.53   1
  -2  -3   1   16.00    0.40   1
   2   3   0    1.42    0.28   1
  -2  -3   0    0.46    0.19   1
  -2  -3  -1   81.13    1.67   1
   2   3   1  207.14    7.39  -1
  -2   3  -4  207.14    7.39   2
   2   3   2   13.81    0.98  -1
  -2   3  -5   13.81    0.98   2
  -2  -3  -2   14.03    1.04  -1
   2  -3   5   14.03    1.04   2
   2   3   3    0.20    0.30   1
  -2  -3  -3   -0.11    0.20   1
   2   3   4    7.03    0.29   1
  -2  -3  -4    7.77    0.44   1
   2   3   5    0.54    0.36   1
  -2  -3  -5    1.59    0.37   1
   2   3   6    5.47    0.30   1
  -2  -3  -6    6.03    0.45   1
   2   3   7   -0.38    0.37   1
  -2  -3  -7   -0.18    0.40   1
   2   3   8   29.35    1.65  -1
  -2   1 -10   29.35    1.65   2
  -2  -3  -8   31.98    1.44  -1
   2  -1  10   31.98    1.44   2
   2   3   9    7.69    0.95  -1
  -2   1 -11    7.69    0.95   2
  -2  -3  -9    7.34    0.98  -1
   2  -1  11    7.34    0.98   2
   2   3  10    6.43    0.51   1
  -2  -3 -10    7.14    0.59   1
   2   3  11    8.57    0.59   1
  -2  -3 -11    9.05    0.62   1
   2   3  12    0.55    0.46   1
  -2  -3 -12    1.65    0.50   1
   2   3  13   27.40    1.02   1
   2   3  14    1.22    1.18  -1
  -2  -1 -15    1.22    1.18   2
  -2  -3 -14    0.47    1.23  -1
   2   1  15    0.47    1.23   2
   2   4 -15    1.21    0.48   1
  -2  -4  15    0.55    0.43   1
   2   4 -14    0.74    0.29   1
  -2  -4  14    0.53    0.41   1
   2   4 -13    4.99    1.14  -1
  -2   8   7    4.99    1.14   2
  -2  -4  13    0.76    0.64  -1
   2  -8  -7    0.76    0.64   2
   2   4 -12    2.72    0.49   1
  -2  -4  12    3.25    0.43   1
   2   4 -11    3.73    0.32   1
  -2  -4  11    3.26    0.47   1
   2   4 -10    2.71    0.49   1
  -2  -4  10    3.29    0.44   1
   2   4  -9    1.89    0.28   1
  -2  -4   9    1.84    0.40   1
   2   4  -8    8.08    0.53   1
  -2  -4   8    7.48    0.47   1
   2   4  -7    0.70    0.41   1
  -2  -4   7    0.18    0.37   1
   2   4  -6   25.52    1.48  -1
  -2   6   1   25.52    1.48   2
  -2  -4   6   24.47    1.40  -1
   2  -6  -1   24.47    1.40   2
   2   4  -5    4.45    0.27   1
  -2  -4   5    4.38    0.30   1
   2   4  -4    2.18    0.25   1
   2   4  -4    2.25    0.37   1
   2   4  -3    3.46    0.40   1
   2   4  -3    2.62    0.22   1
   2   4  -2    2.34    0.37   1
   2   4  -2    1.48    0.33   1
   2   4  -1    1.51    0.25   1
   2   4  -1    2.16    0.19   1
   2   4   0   20.66    0.58   1
  -2  -4   0   22.32    0.64   1
   2   4   1   16.86    0.78  -1
  -2   4  -5   16.86    0.78   2
  -2  -4  -1   22.14    0.90  -1
   2  -4   5   22.14    0.90   2
   2   4   2    6.13    0.25   1
  -2  -4  -2    6.66    0.40   1
   2   4   3    3.08    0.35   1
  -2  -4  -3    1.94    0.37   1
   2   4   4    2.36    0.40   1
  -2  -4  -4    1.82    0.41   1
   2   4   5    3.28    0.42   1
  -2  -4  -5    3.24    0.46   1
   2   4   6    3.82    0.41   1
  -2  -4  -6    5.15    0.49   1
   2   4   7    1.88    0.46   1
  -2  -4  -7    2.26    0.48   1
   2   4   8    4.68    0.85  -1
  -2   2 -11    4.68    0.85   2
  -2  -4  -8    3.70    0.83  -1
   2  -2  11    3.70    0.83   2
   2   4   9    0.60    0.27   1
  -2  -4  -9    0.18    0.46   1
   2   4  10    2.86    0.49   1
  -2  -4 -10    2.12    0.48   1
   2   4  11    6.20    0.59   1
  -2  -4 -11    8.72    0.61   1
   2   4  12    0.93    0.48   1
  -2  -4 -12    0.46    0.30   1
   2   4  13   22.71    0.97   1
  -2  -4 -13   22.60    0.97   1
  -2  -4 -14    3.40    0.56   1
   2   5 -14    0.26    0.48   1
  -2  -5  14    0.55    0.26   1
   2   5 -13    5.09    1.23  -1
  -2   9   6    5.09    1.23   2
  -2  -5  13    5.00    1.11  -1
   2  -9  -6    5.00    1.11   2
   2   5 -12    2.76    0.54   1
  -2  -5  12    2.73    0.31   1
   2   5 -11    2.06    0.51   1
  -2  -5  11    1.31    0.46   1
   2   5 -10    1.49    0.52   1
  -2  -5  10    1.59    0.28   1
   2   5  -9    0.90    0.28   1
  -2  -5   9    0.36    0.40   1
   2   5  -8    2.84    0.51   1
  -2  -5   8    1.14    0.43   1
   2   5  -7    1.22    0.28   1
  -2  -5   7    1.47    0.41   1
   2   5  -6    7.75    1.37  -1
  -2   7   0    7.75    1.37   2
  -2  -5   6    8.98    1.40  -1
   2  -7   0    8.98    1.40   2
   2   5  -5    5.60    0.32   1
  -2  -5   5    0.30    0.27   1
   2   5  -4    2.10    0.42   1
   2   5  -4    2.15    0.24   1
   2   5  -3    1.69    0.25   1
   2   5  -3    1.56    0.35   1
   2   5  -2    7.23    0.47   1
   2   5  -2    5.82    0.37   1
   2   5  -1    0.59    0.35   1
   2   5  -1    0.26    0.29   1
   2   5   1    5.80    0.94  -1
  -2   5  -6    5.80    0.94   2
  -2  -5  -1    8.68    0.71  -1
   2  -5   6    8.68    0.71   2
   2   5   2   -0.12    0.19   1
  -2  -5  -2    0.86    0.36   1
   2   5   3    4.00    0.41   1
  -2  -5  -3    5.12    0.45   1
   2   5   4    0.28    0.23   1
   2   5   5    4.88    0.48   1
  -2  -5  -5    4.46    0.52   1
   2   5   6    0.16    0.41   1
  -2  -5  -6    0.66    0.43   1
   2   5   7   13.86    1.09  -1
  -2   3 -11   13.86    1.09   2
  -2  -5  -7   16.49    1.27  -1
   2  -3  11   16.49    1.27   2
   2   5   8    4.71    1.03  -1
  -2   3 -12    4.71    1.03   2
  -2  -5  -8    5.83    1.33  -1
   2  -3  12    5.83    1.33   2
   2   5   9    4.15    0.54   1
  -2  -5  -9    4.51    0.57   1
   2   5  10    3.60    0.52   1
  -2  -5 -10    3.82    0.56   1
   2   5  11    0.57    0.47   1
  -2  -5 -11    0.58    0.50   1
   2   5  12   13.99    0.58   1
  -2  -5 -12   15.84    0.81   1
   2   6 -13    0.33    0.52   1
  -2  -6  13    0.43    0.45   1
   2   6 -12    0.14    0.55   1
  -2  -6  12    1.71    0.48   1
   2   6 -11    1.52    0.36   1
  -2  -6  11    1.50    0.48   1
   2   6 -10    0.83    0.54   1
  -2  -6  10    1.08    0.45   1
   2   6  -9    1.37    0.52   1
  -2  -6   9    1.26    0.29   1
   2   6  -8    0.20    0.49   1
  -2  -6   8    0.08    0.43   1
   2   6  -7    5.95    1.24  -1
  -2   8   0    5.95    1.24   2
  -2  -6   7    8.03    1.27  -1
   2  -8   0    8.03    1.27   2
   2   6  -6    1.62    0.49   1
  -2  -6   6    1.69    0.30   1
   2   6  -5    0.39    0.27   1
   2   6  -5   -0.30    0.38   1
   2   6  -4    2.69    0.47   1
   2   6  -4    0.60    0.37   1
   2   6  -3    0.97    0.40   1
   2   6  -3    0.91    0.33   1
   2   6  -2    0.70    0.36   1
   2   6  -2    0.91    0.32   1
   2   6  -1    7.55    0.32   1
   2   6  -1    6.29    0.37   1
   2   6   0    7.86    0.83  -1
  -2   6  -6    7.86    0.83   2
   2   6   0    7.19    0.42  -1
  -2   6  -6    7.19    0.42   2
   2   6   1    0.44    0.26   1
   2   6   1    2.03    0.33   1
   2   6   2    0.84    0.36   1
  -2  -6  -2    1.40    0.40   1
   2   6   3    0.24    0.23   1
  -2  -6  -3    0.62    0.43   1
   2   6   4    0.40    0.42   1
  -2  -6  -4    0.41    0.45   1
   2   6   5    1.61    0.43   1
  -2  -6  -5    1.71    0.50   1
   2   6   6    1.63    0.47   1
  -2  -6  -6    0.78    0.49   1
   2   6   7    2.86    0.52  -1
  -2   4 -12    2.86    0.52   2
  -2  -6  -7    2.91    0.51  -1
   2  -4  12    2.91    0.51   2
   2   6   8    0.14    0.26   1
  -2  -6  -8    0.14    0.48   1
   2   6   9    1.86    0.49   1
  -2  -6  -9    1.05    0.50   1
   2   6  10    3.68    0.52   1
  -2  -6 -10    3.92    0.54   1
   2   7 -10   -0.83    0.51   1
   2   7  -9   -0.14    0.53   1
  -2  -7   9    0.25    0.29   1
   2   7  -8    0.06    0.32   1
  -2  -7   8    0.28    0.50   1
   2   7  -7    4.21    1.51  -1
  -2   9  -1    4.21    1.51   2
  -2  -7   7    1.48    0.88  -1
   2  -9   1    1.48    0.88   2
   2   7  -6    1.97    0.54   1
   2   7  -6    1.51    0.27   1
   2   7  -5    0.50    0.44   1
   2   7  -5   -0.20    0.23   1
   2   7  -4    0.27    0.45   1
   2   7  -4    0.80    0.22   1
   2   7  -3    2.41    0.29   1
   2   7  -3    1.59    0.23   1
   2   7  -2    0.68    0.21   1
   2   7  -2    0.02    0.17   1
   2   7  -1   10.04    0.38   1
   2   7  -1    9.18    0.31   1
   2   7   0    1.54    0.40   1
   2   7   0    1.26    0.21   1
   2   7   1    0.07    0.42   1
   2   7   1   -0.28    0.20   1
   2   7   2    2.52    0.34   1
   2   7   2    1.57    0.43   1
   2   7   3    0.11    0.41   1
  -2  -7  -3   -0.46    0.49   1
   2   7   4    1.31    0.44   1
  -2  -7  -4    1.08    0.32   1
   2   7   5   -0.84    0.42   1
  -2  -7  -5    0.33    0.29   1
   2   7   6    4.31    1.16  -1
  -2   5 -12    4.31    1.16   2
  -2  -7  -6    4.93    1.25  -1
   2  -5  12    4.93    1.25   2
   2   7   7    0.27    0.50   1
  -2  -7  -7    0.19    0.49   1
   2   8  -3    0.12    0.41   1
   2   8  -3    0.15    0.33   1
   2   8  -2    1.60    0.41   1
   2   8  -2    1.04    0.31   1
   2   8  -1    3.14    0.82  -1
  -2   8  -7    3.14    0.82   2
   2   8  -1    2.37    0.55  -1
  -2   8  -7    2.37    0.55   2
   2   8   0    1.02    0.42   1
   2   8   0    0.29    0.21   1
   2   8   1    0.96    0.28   1
   2   8   1    0.73    0.24   1
   2   8   2   -0.21    0.29   1
  -3  10   5    0.65    0.46   1
  -3  10   5    0.36    0.26   1
  -3  10   4    2.98    0.97  -1
   3   6 -12    2.98    0.97   2
  -3  10   4    2.16    1.02  -1
   3   6 -12    2.16    1.02   2
  -3  10   3    0.45    0.31   1
  -3  10   3    0.12    0.41   1
  -3  10   2   -0.61    0.49   1
  -3  10   2    0.58    0.46   1
   3 -10  -1    0.10    0.28   1
  -3  10   1    0.06    0.48   1
   3 -10   0    0.33    0.27   1
  -3  10   0    0.36    0.57   1
  -3   9   8    0.77    0.33   1
  -3   9   8    0.58    0.34   1
  -3   9   7    1.38    0.40   1
  -3   9   7    1.04    0.36   1
  -3   9   6    2.00    0.43   1
  -3   9   6    1.45    0.39   1
  -3   9   5    2.07    1.14  -1
   3   5 -12    2.07    1.14   2
  -3   9   5    1.74    1.02  -1
   3   5 -12    1.74    1.02   2
  -3   9   4    1.04    0.45   1
  -3   9   4    0.33    0.24   1
  -3   9   3    1.33    0.44   1
  -3   9   3   -0.55    0.43   1
   3  -9  -2    0.46    0.27   1
  -3   9   2    0.62    0.47   1
   3  -9  -1   -0.26    0.26   1
  -3   9   1   -0.13    0.50   1
   3  -9   0    1.87    0.45   1
  -3   9   0    2.01    0.54   1
   3  -9   1    0.65    0.42   1
  -3   9  -1    0.50    0.52   1
   3  -9   2    6.37    1.01  -1
  -3  -7   6    6.37    1.01   2
  -3   9  -2    5.72    0.91  -1
   3   7  -6    5.72    0.91   2
   3  -9   3    1.34    0.30   1
  -3   9  -3    1.73    0.54   1
   3  -9   4    1.08    0.28   1
  -3   9  -4    0.74    0.52   1
  -3   8  11    0.81    0.27   1
  -3   8  11    1.92    0.29   1
  -3   8  10    2.96    0.32   1
  -3   8  10    2.16    0.33   1
  -3   8   9   -0.50    0.30   1
  -3   8   9   -0.34    0.29   1
  -3   8   8    1.15    0.32   1
  -3   8   8    1.48    0.34   1
  -3   8   7    3.98    0.40   1
  -3   8   7    3.76    0.40   1
  -3   8   6    2.54    0.38   1
  -3   8   6    2.69    0.38   1
  -3   8   5   12.60    1.18  -1
   3   4 -11   12.60    1.18   2
  -3   8   5   10.57    0.88  -1
   3   4 -11   10.57    0.88   2
  -3   8   4    0.92    0.25   1
  -3   8   4    1.21    0.39   1
   3  -8  -3    0.04    0.24   1
  -3   8   3    0.55    0.25   1
   3  -8  -2    0.32    0.23   1
  -3   8   2    0.31    0.42   1
   3  -8  -1    0.86    0.40   1
  -3   8   1    2.12    0.49   1
   3  -8   0    1.64    0.42   1
  -3   8   0    0.44    0.48   1
   3  -8   1   -0.00    0.41   1
  -3   8  -1   -0.49    0.48   1
   3  -8   2    5.80    1.21  -1
  -3  -6   5    5.80    1.21   2
  -3   8  -2    6.19    1.37  -1
   3   6  -5    6.19    1.37   2
   3  -8   3    0.71    0.43   1
  -3   8  -3   -0.29    0.47   1
   3  -8   4    1.76    0.45   1
  -3   8  -4    1.73    0.50   1
   3  -8   5    1.31    0.46   1
  -3   8  -5    2.20    0.32   1
   3  -8   6    2.74    0.29   1
  -3   8  -6    3.37    0.49   1
  -3   7  11    0.14    0.22   1
  -3   7  11   -0.02    0.22   1
  -3   7  10    1.21    0.26   1
  -3   7  10    1.78    0.35   1
  -3   7   9    1.72    0.28   1
  -3   7   9    1.11    0.26   1
  -3   7   8    2.97    0.32   1
  -3   7   8    2.78    0.31   1
  -3   7   7    7.55    0.41   1
  -3   7   7    7.72    0.53   1
  -3   7   6    3.89    0.92  -1
   3   3 -11    3.89    0.92   2
  -3   7   6    5.12    0.85  -1
   3   3 -11    5.12    0.85   2
  -3   7   5    1.38    0.21   1
  -3   7   5    1.09    0.34   1
  -3   7   4    0.24    0.35   1
  -3   7   4    0.96    0.33   1
   3  -7  -3    0.41    0.34   1
  -3   7   3    0.66    0.38   1
   3  -7  -2    1.11    0.36   1
  -3   7   2    1.24    0.38   1
   3  -7  -1    4.74    0.42   1
  -3   7   1    5.81    0.51   1
   3  -7   0    2.28    0.41   1
  -3   7   0    2.69    0.46   1
   3  -7   1   11.89    1.19  -1
  -3  -5   5   11.89    1.19   2
  -3   7  -1   12.25    1.34  -1
   3   5  -5   12.25    1.34   2
   3  -7   2    4.53    0.48   1
  -3   7  -2    4.88    0.54   1
   3  -7   3    2.06    0.46   1
  -3   7  -3    1.82    0.46   1
   3  -7   4    0.29    0.43   1
  -3   7  -4    0.89    0.27   1
   3  -7   5   15.81    0.67   1
  -3   7  -5   15.48    0.53   1
   3  -7   6    0.36    0.37   1
  -3   7  -6    0.32    0.42   1
   3  -7   7   -0.49    0.35   1
  -3   7  -7    0.13    0.41   1
   3  -7   8    4.20    0.72  -1
  -3  -7  -1    4.20    0.72   2
  -3   7  -8    4.87    0.87  -1
   3   7   1    4.87    0.87   2
  -3   6  12    3.29    0.27   1
  -3   6  12    3.15    0.25   1
  -3   6  11    6.18    0.30   1
  -3   6  11    6.32    0.30   1
  -3   6  10   -0.02    0.21   1
  -3   6  10   -0.31    0.24   1
  -3   6   9    1.66    0.24   1
  -3   6   9    1.76    0.23   1
  -3   6   8   11.89    0.51   1
  -3   6   8   12.29    0.41   1
  -3   6   7    3.12    0.30   1
  -3   6   7    3.73    0.30   1
  -3   6   6   30.97    1.16  -1
   3   2 -10   30.97    1.16   2
  -3   6   6   33.92    1.32  -1
   3   2 -10   33.92    1.32   2
  -3   6   5    1.21    0.29   1
  -3   6   5    1.32    0.28   1
   3  -6  -4    0.20    0.19   1
  -3   6   4    0.08    0.31   1
   3  -6  -3    0.33    0.30   1
  -3   6   3    0.67    0.33   1
   3  -6  -2    3.68    0.36   1
  -3   6   2    3.16    0.38   1
   3  -6  -1    2.65    0.35   1
  -3   6   1    3.12    0.42   1
   3  -6   0    0.60    0.36   1
  -3   6   0    1.06    0.39   1
   3  -6   1   15.24    1.25  -1
  -3  -4   4   15.24    1.25   2
  -3   6  -1   15.97    1.37  -1
   3   4  -4   15.97    1.37   2
   3  -6   2    1.79    0.42   1
  -3   6  -2    2.17    0.44   1
   3  -6   3    2.83    0.43   1
  -3   6  -3    4.10    0.46   1
   3  -6   4    4.33    0.47   1
  -3   6  -4    4.12    0.48   1
   3  -6   5    6.68    0.47   1
  -3   6  -5    8.68    0.53   1
   3  -6   6    0.38    0.24   1
  -3   6  -6    1.31    0.24   1
   3  -6   7    0.74    0.35   1
  -3   6  -7    0.40    0.20   1
   3  -6   8    4.83    0.78  -1
  -3  -6  -2    4.83    0.78   2
  -3   6  -8    5.26    1.03  -1
   3   6   2    5.26    1.03   2
   3  -6   9    0.44    0.20   1
  -3   6  -9    0.14    0.33   1
   3  -6  10    1.56    0.38   1
  -3   6 -10    1.09    0.27   1
   3  -5 -13    4.88    0.62  -1
  -3   1  15    4.88    0.62   2
  -3   5  13    6.33    0.54  -1
   3  -1 -15    6.33    0.54   2
   3  -5 -12    0.08    0.21   1
  -3   5  12   -0.26    0.18   1
  -3   5  11    0.21    0.12   1
  -3   5  11    2.48    0.27   1
  -3   5  10    2.17    0.27   1
  -3   5  10    1.62    0.28   1
  -3   5   9    4.42    0.23   1
  -3   5   9    4.69    0.28   1
  -3   5   8   17.92    0.44   1
  -3   5   8   18.43    0.45   1
  -3   5   7    6.97    0.75  -1
   3   1 -10    6.97    0.75   2
  -3   5   7    7.00    0.82  -1
   3   1 -10    7.00    0.82   2
  -3   5   6    3.44    0.34   1
  -3   5   6    3.65    0.25   1
  -3   5   5    0.92    0.24   1
  -3   5   5    0.27    0.31   1
   3  -5  -4    0.28    0.27   1
  -3   5   4    0.14    0.25   1
   3  -5  -3    1.11    0.27   1
  -3   5   3    2.29    0.31   1
   3  -5  -2   12.10    0.47   1
  -3   5   2   12.39    0.49   1
   3  -5  -1    6.44    0.39   1
  -3   5   1    6.23    0.38   1
   3  -5   0   15.73    1.11  -1
  -3  -3   4   15.73    1.11   2
  -3   5   0   18.47    1.03  -1
   3   3  -4   18.47    1.03   2
   3  -5   1    9.26    0.49   1
  -3   5  -1    9.55    0.50   1
   3  -5   2    6.35    0.47   1
  -3   5  -2    7.63    0.47   1
   3  -5   3    1.72    0.38   1
  -3   5  -3    1.04    0.40   1
   3  -5   4   45.60    1.23   1
  -3   5  -4   44.95    1.03   1
   3  -5   5   -0.47    0.21   1
  -3   5  -5   -0.55    0.23   1
   3  -5   6    0.31    0.35   1
  -3   5  -6    0.82    0.34   1
   3  -5   7   11.22    0.83  -1
  -3  -5  -2   11.22    0.83   2
  -3   5  -7   12.07    0.93  -1
   3   5   2   12.07    0.93   2
   3  -5   8    1.88    0.20   1
  -3   5  -8    0.88    0.32   1
   3  -5   9    3.23    0.38   1
  -3   5  -9    3.51    0.26   1
   3  -5  10    1.55    0.40   1
  -3   5 -10    1.14    0.42   1
   3  -5  11    1.61    0.43   1
  -3   5 -11    2.80    0.50   1
   3  -4 -14    5.04    0.40  -1
  -3   2  15    5.04    0.40   2
  -3   4  14    4.36    0.42  -1
   3  -2 -15    4.36    0.42   2
   3  -4 -13   19.38    0.77  -1
  -3   2  14   19.38    0.77   2
  -3   4  13   19.34    0.89  -1
   3  -2 -14   19.34    0.89   2
   3  -4 -12   12.19    0.35   1
  -3   4  12   11.79    0.31   1
   3  -4 -11    0.25    0.18   1
  -3   4  11   -0.01    0.20   1
   3  -4 -10    2.37    0.20   1
  -3   4  10    2.37    0.16   1
  -3   4   9   27.55    0.57   1
  -3   4   9   26.32    0.54   1
  -3   4   8    4.10    0.23   1
  -3   4   8    4.23    0.22   1
  -3   4   7   60.04    1.50  -1
   3   0  -9   60.04    1.50   2
  -3   4   7   59.66    1.52  -1
   3   0  -9   59.66    1.52   2
  -3   4   6    2.33    0.23   1
  -3   4   6    2.83    0.22   1
  -3   4   5    0.65    0.17   1
  -3   4   5    0.68    0.22   1
   3  -4  -4    1.53    0.20   1
  -3   4   4    1.47    0.21   1
   3  -4  -3    4.25    0.25   1
  -3   4   3    4.54    0.28   1
   3  -4  -2    5.21    0.32   1
  -3   4   2    4.48    0.32   1
   3  -4  -1    3.50    0.34   1
  -3   4   1    3.99    0.35   1
   3  -4   0   33.13    1.43  -1
  -3  -2   3   33.13    1.43   2
  -3   4   0   34.09    1.39  -1
   3   2  -3   34.09    1.39   2
   3  -4   1    4.00    0.41   1
  -3   4  -1    3.95    0.39   1
   3  -4   2    6.43    0.43   1
  -3   4  -2    6.06    0.44   1
   3  -4   3    9.83    0.49   1
  -3   4  -3    9.04    0.50   1
   3  -4   4   17.63    0.63   1
  -3   4  -4   18.03    0.64   1
   3  -4   5    4.18    0.26   1
  -3   4  -5    3.55    0.25   1
  -3   4  -6    0.43    0.33   1
   3  -4   6    1.18    0.90  -1
  -3  -4  -2    1.18    0.90   2
   3  -4   7    9.47    0.87  -1
  -3  -4  -3    9.47    0.87   2
  -3   4  -7    9.10    0.94  -1
   3   4   3    9.10    0.94   2
   3  -4   8    0.94    0.32   1
  -3   4  -8    1.81    0.31   1
   3  -4   9    3.50    0.41   1
  -3   4  -9    3.44    0.43   1
   3  -4  10    1.45    0.42   1
  -3   4 -10    2.42    0.45   1
   3  -4  11    0.46    0.43   1
  -3   4 -11    1.06    0.30   1
   3  -4  12    2.16    0.49   1
  -3   4 -12    3.03    0.56   1
   3  -3 -14    7.14    0.52  -1
  -3   3  14    7.14    0.52   2
  -3   3  14    6.50    0.57  -1
   3  -3 -14    6.50    0.57   2
   3  -3 -13   -0.08    0.13   1
  -3   3  13   -0.11    0.14   1
   3  -3 -12    4.24    0.21   1
  -3   3  12    4.17    0.19   1
   3  -3 -11    2.70    0.18   1
   3  -3 -10    4.17    0.16   1
  -3   3  10    4.70    0.20   1
  -3   3   9   30.62    0.51   1
  -3   3   8   10.15    0.33  -1
   3  -1  -9   10.15    0.33   2
  -3   3   8   10.84    0.38  -1
   3  -1  -9   10.84    0.38   2
  -3   3   7    5.98    0.14   1
  -3   3   7    5.59    0.13   1
  -3   3   6    2.06    0.11   1
  -3   3   6    2.29    0.11   1
  -3   3   5    4.76    0.18   1
  -3   3   5    4.71    0.17   1
   3  -3  -4    3.10    0.20   1
  -3   3   4    3.16    0.21   1
   3  -3  -3   23.58    0.46   1
  -3   3   3   24.68    0.57   1
   3  -3  -2   11.83    0.36   1
  -3   3   2   12.28    0.47   1
   3  -3  -1   17.88    0.95  -1
  -3  -1   3   17.88    0.95   2
  -3   3   1   18.49    0.88  -1
   3   1  -3   18.49    0.88   2
   3  -3   0   16.83    0.54   1
  -3   3   0   16.91    0.55   1
   3  -3   1   16.02    0.39   1
   3  -3   2    1.01    0.22   1
  -3   3  -2    1.42    0.35   1
   3  -3   3   96.13    2.33   1
  -3   3  -3   96.95    2.36   1
   3  -3   4   -0.01    0.20   1
  -3   3  -4   -0.49    0.35   1
   3  -3   5    1.12    0.31   1
  -3   3  -5    0.47    0.19   1
   3  -3   6   24.10    0.92  -1
  -3  -3  -3   24.10    0.92   2
  -3   3  -6   26.77    1.08  -1
   3   3   3   26.77    1.08   2
   3  -3   7    6.81    0.40   1
  -3   3  -7    7.54    0.27   1
   3  -3   8    9.71    0.45   1
  -3   3  -8    8.67    0.47   1
   3  -3   9    3.30    0.37   1
  -3   3  -9    2.08    0.26   1
   3  -3  10    4.40    0.47   1
  -3   3 -10    4.08    0.51   1
   3  -3  11    8.08    0.39   1
  -3   3 -11    8.41    0.42   1
   3  -3  12    1.93    0.29   1
  -3   3 -12    2.35    0.54   1
   3  -3  13    4.33    0.88  -1
  -3  -5  -9    4.33    0.88   2
  -3   3 -13    4.15    0.62  -1
   3   5   9    4.15    0.62   2
   3  -2 -15    4.85    0.47  -1
  -3   4  14    4.85    0.47   2
  -3   2  15    5.31    0.49  -1
   3  -4 -14    5.31    0.49   2
   3  -2 -14    5.21    0.29   1
  -3   2  14    5.60    0.30   1
   3  -2 -13   15.61    0.41   1
  -3   2  13   15.23    0.36   1
   3  -2 -12   -0.35    0.17   1
  -3   2  12   -0.25    0.19   1
   3  -2 -11    1.62    0.16   1
  -3   2  11    1.56    0.17   1
   3  -2 -10   36.99    0.57   1
  -3   2  10   35.47    0.60   1
   3  -2  -9    3.43    0.09   1
  -3   2   9   10.93    0.34  -1
   3  -2  -9   10.93    0.34   2
   3  -2  -4    5.24    0.13   1
  -3   2   4    5.28    0.13   1
   3  -2  -3    8.40    0.26   1
  -3   2   3    9.05    0.27   1
   3  -2  -2   10.08    0.30   1
  -3   2   2   10.80    0.31   1
   3  -2  -1   45.75    1.30  -1
  -3   0   2   45.75    1.30   2
  -3   2   1   47.60    1.46  -1
   3   0  -2   47.60    1.46   2
   3  -2   0    7.45    0.39   1
  -3   2   0    7.31    0.38   1
   3  -2   1    7.90    0.42   1
  -3   2  -1    8.22    0.44   1
   3  -2   2   11.97    0.33   1
  -3   2  -2   13.16    0.52   1
   3  -2   3   30.48    0.62   1
  -3   2  -3   29.94    0.64   1
   3  -2   4    9.15    0.29   1
  -3   2  -4    8.91    0.31   1
   3  -2   5    1.03    0.18   1
  -3   2  -5    3.99    0.94  -1
   3   2   3    3.99    0.94   2
   3  -2   6   11.71    0.58  -1
  -3  -2  -4   11.71    0.58   2
  -3   2  -6   17.74    0.82  -1
   3   2   4   17.74    0.82   2
   3  -2   7    4.06    0.35   1
  -3   2  -7    3.25    0.22   1
   3  -2   8    6.02    0.43   1
  -3   2  -8    5.94    0.46   1
   3  -2   9    5.94    0.31   1
  -3   2  -9    6.37    0.49   1
   3  -2  10    1.82    0.46   1
  -3   2 -10    1.25    0.28   1
   3  -2  11   10.17    0.63   1
  -3   2 -11   11.63    0.68   1
   3  -2  12   10.36    1.45  -1
  -3  -4  -9   10.36    1.45   2
  -3   2 -12   14.99    1.54  -1
   3   4   9   14.99    1.54   2
   3  -2  13    1.69    0.72  -1
  -3  -4 -10    1.69    0.72   2
  -3   2 -13   -0.23    1.26  -1
   3   4  10   -0.23    1.26   2
   3  -1 -15    5.73    0.71  -1
  -3   5  13    5.73    0.71   2
  -3   1  15    5.79    0.74  -1
   3  -5 -13    5.79    0.74   2
   3  -1 -14   -0.07    0.26   1
  -3   1  14    0.23    0.20   1
   3  -1 -13    4.39    0.24   1
  -3   1  13    4.69    0.30   1
   3  -1 -12    2.17    0.25   1
  -3   1  12    2.85    0.24   1
   3  -1 -11    2.44    0.24   1
  -3   1  11    2.63    0.21   1
   3  -1 -10   29.06    0.58   1
  -3   1  10   28.09    0.57   1
   3  -1  -9   10.44    0.36  -1
  -3   3   8   10.44    0.36   2
  -3   1   9    9.28    0.45  -1
   3  -3  -8    9.28    0.45   2
  -3   1   8    7.16    0.16   1
   3  -1  -7    4.51    0.10   1
   3  -1  -7    4.08    0.10   1
   3  -1  -6   12.56    0.18   1
   3  -1  -6   12.69    0.19   1
   3  -1  -5    3.57    0.08   1
   3  -1  -5    3.60    0.12   1
   3  -1  -4   29.91    0.48   1
  -3   1   4   30.07    0.45   1
   3  -1  -3   16.26    0.39   1
  -3   1   3   16.40    0.32   1
   3  -1  -2   14.58    0.64  -1
  -3   1   2   14.58    0.64   2
  -3   1   2   16.19    0.83  -1
   3  -1  -2   16.19    0.83   2
   3  -1  -1   24.13    0.54   1
  -3   1   1   24.90    0.54   1
   3  -1   0   34.65    0.75   1
  -3   1   0   32.77    0.75   1
   3  -1   1    0.82    0.19   1
  -3   1  -1    0.82    0.33   1
   3  -1   2  137.78    3.29   1
  -3   1  -2  128.76    2.88   1
   3  -1   3    0.03    0.18   1
  -3   1  -3    0.22    0.33   1
   3  -1   4   -0.09    0.30   1
  -3   1  -4    0.36    0.32   1
   3  -1   5   33.56    1.00  -1
  -3  -1  -4   33.56    1.00   2
  -3   1  -5   36.89    0.87  -1
   3   1   4   36.89    0.87   2
  -3   1  -6   19.87    0.44   1
   3  -1   6   62.07    1.90  -1
  -3  -1  -5   62.07    1.90   2
   3  -1   7   16.23    0.40   1
  -3   1  -7   16.45    0.58   1
   3  -1   8    5.08    0.44   1
  -3   1  -8    5.30    0.45   1
   3  -1   9    5.93    0.31   1
  -3   1  -9    7.01    0.53   1
   3  -1  10   21.87    0.77   1
  -3   1 -10   21.87    0.87   1
   3  -1  11    2.03    0.29   1
  -3   1 -11    2.30    0.35   1
   3  -1  12    4.40    0.86  -1
  -3  -3 -10    4.40    0.86   2
  -3   1 -12    4.94    0.94  -1
   3   3  10    4.94    0.94   2
   3  -1  13    6.82    1.17  -1
  -3  -3 -11    6.82    1.17   2
  -3   1 -13    5.35    1.32  -1
   3   3  11    5.35    1.32   2
  -3   1 -14    3.27    0.62   1
   3   0 -16    3.01    0.49  -1
  -3   6  13    3.01    0.49   2
  -3   0  16    3.23    0.58  -1
   3  -6 -13    3.23    0.58   2
   3   0 -15    1.95    0.37   1
  -3   0  15    1.46    0.33   1
   3   0 -14   10.69    0.38   1
  -3   0  14   10.40    0.38   1
   3   0 -13    0.03    0.23   1
  -3   0  13    0.00    0.22   1
   3   0 -12    0.50    0.30   1
  -3   0  12    0.79    0.21   1
   3   0 -11   26.82    0.60   1
  -3   0  11   26.14    0.58   1
   3   0 -10    2.16    0.21   1
  -3   0  10    2.10    0.24   1
   3   0  -9   61.92    1.72  -1
  -3   4   7   61.92    1.72   2
  -3   0   9   58.56    1.64  -1
   3  -4  -7   58.56    1.64   2
   3   0  -8    4.43    0.25   1
  -3   0   8    4.33    0.19   1
   3   0  -7    5.67    0.26   1
   3   0  -6    3.11    0.24   1
   3   0  -6    2.50    0.20   1
   3   0  -5    3.30    0.24   1
   3   0  -5    3.67    0.24   1
   3   0  -4    8.15    0.32   1
  -3   0   4    8.07    0.33   1
   3   0  -3   18.26    0.43   1
  -3   0   3   18.33    0.42   1
   3   0  -2   46.29    1.28  -1
  -3   2   1   46.29    1.28   2
  -3   0   2   47.48    1.44  -1
   3  -2  -1   47.48    1.44   2
   3   0  -1    9.95    0.42   1
  -3   0   1    8.42    0.38   1
   3   0   0    5.87    0.38   1
  -3   0   0    6.16    0.35   1
   3   0   1    9.53    0.29   1
  -3   0  -1   10.59    0.46   1
   3   0   2   36.40    0.87   1
  -3   0  -2   36.90    0.91   1
   3   0   3   15.59    0.53   1
  -3   0  -3   15.40    0.50   1
   3   0   4    6.62    0.77  -1
  -3   0  -4    6.62    0.77   2
  -3   0  -4    5.66    0.76  -1
   3   0   4    5.66    0.76   2
   3   0   5   14.77    0.50  -1
  -3   0  -5   14.77    0.50   2
  -3   0  -5   17.72    0.55  -1
   3   0   5   17.72    0.55   2
   3   0   6    6.51    0.27   1
  -3   0  -6    7.74    0.38   1
   3   0   7    5.80    0.28   1
  -3   0  -7    5.99    0.40   1
   3   0   8   11.74    0.58   1
  -3   0  -8   12.74    0.53   1
   3   0   9    2.09    0.41   1
  -3   0  -9    1.92    0.44   1
   3   0  10   21.71    0.61   1
  -3   0 -10   25.67    0.85   1
  -3   0 -11    7.41    0.60   1
   3   0  11   10.63    1.33  -1
  -3  -2 -10   10.63    1.33   2
   3   0  12    0.09    0.84  -1
  -3  -2 -11    0.09    0.84   2
  -3   0 -12    0.17    0.84  -1
   3   2  11    0.17    0.84   2
   3   0  13    1.94    0.31   1
  -3   0 -13    7.37    1.47  -1
   3   2  12    7.37    1.47   2
   3   0  14   12.06    0.74   1
  -3   0 -14   12.72    0.54   1
   3   1 -16    1.65    0.43   1
  -3  -1  16    1.77    0.30   1
   3   1 -15   -0.12    0.28   1
  -3  -1  15   -0.12    0.37   1
   3   1 -14    3.37    0.33   1
  -3  -1  14    2.94    0.32   1
   3   1 -13    2.31    0.39   1
  -3  -1  13    2.05    0.35   1
   3   1 -12    0.89    0.28   1
  -3  -1  12    1.20    0.25   1
   3   1 -11   16.24    0.51   1
  -3  -1  11   15.27    0.47   1
   3   1 -10    7.19    0.71  -1
  -3   5   7    7.19    0.71   2
  -3  -1  10    6.42    0.94  -1
   3  -5  -7    6.42    0.94   2
   3   1  -9    5.14    0.39   1
  -3  -1   9    4.47    0.27   1
   3   1  -8    4.50    0.29   1
  -3  -1   8    4.77    0.27   1
   3   1  -7   12.51    0.48   1
  -3  -1   7   12.79    0.31   1
   3   1  -6    2.82    0.26   1
   3   1  -6    3.05    0.25   1
   3   1  -5   20.66    0.51   1
   3   1  -5   20.52    0.48   1
   3   1  -4    8.87    0.27   1
   3   1  -4    8.89    0.34   1
   3   1  -3   18.94    0.86  -1
  -3   3   1   18.94    0.86   2
  -3  -1   3   18.73    0.93  -1
   3  -3  -1   18.73    0.93   2
   3   1  -2   12.81    0.46   1
  -3  -1   2   12.55    0.32   1
   3   1  -1   28.61    0.73   1
  -3  -1   1   27.11    0.71   1
   3   1   0    0.11    0.28   1
  -3  -1   0    0.50    0.19   1
   3   1   1   90.10    2.02   1
  -3  -1  -1   84.39    1.72   1
   3   1   2   -0.43    0.20   1
  -3  -1  -2   -0.03    0.34   1
   3   1   3    0.19    0.31   1
  -3  -1  -3   -0.15    0.30   1
   3   1   4   42.54    1.14  -1
  -3   1  -5   42.54    1.14   2
  -3  -1  -4   31.31    0.91  -1
   3  -1   5   31.31    0.91   2
   3   1   5   24.25    0.53   1
  -3  -1  -5   25.23    0.52   1
   3   1   6   18.10    0.45   1
  -3  -1  -6   17.98    0.59   1
   3   1   7    6.58    0.31   1
  -3  -1  -7    6.94    0.29   1
   3   1   8    6.11    0.47   1
  -3  -1  -8    7.19    0.49   1
   3   1   9   35.05    1.04   1
  -3  -1  -9   37.17    1.13   1
   3   1  10   11.07    1.24  -1
  -3  -1 -10   11.07    1.24   2
   3   1  11    5.93    0.84  -1
  -3  -1 -11    5.93    0.84   2
  -3  -1 -11    5.83    0.95  -1
   3   1  11    5.83    0.95   2
   3   1  12    5.54    0.90  -1
  -3  -1 -12    5.54    0.90   2
  -3  -1 -12    5.74    0.98  -1
   3   1  12    5.74    0.98   2
   3   1  13    5.15    0.58   1
  -3  -1 -13   12.78    1.58  -1
   3   1  13   12.78    1.58   2
   3   2 -16    0.38    0.32   1
  -3  -2  16   -0.01    0.31   1
   3   2 -15    4.55    0.41   1
  -3  -2  15    3.97    0.36   1
   3   2 -14    0.29    0.33   1
  -3  -2  14   -0.15    0.30   1
   3   2 -13   -0.06    0.31   1
  -3  -2  13   -0.37    0.29   1
   3   2 -12   12.37    0.52   1
  -3  -2  12   11.76    0.48   1
   3   2 -11    0.82    0.31   1
  -3  -2  11    1.50    0.30   1
   3   2 -10   32.41    1.31  -1
  -3   6   6   32.41    1.31   2
  -3  -2  10   30.57    1.24  -1
   3  -6  -6   30.57    1.24   2
   3   2  -9    3.90    0.35   1
  -3  -2   9    3.11    0.31   1
   3   2  -8    4.06    0.35   1
  -3  -2   8    3.82    0.32   1
   3   2  -7    1.60    0.31   1
  -3  -2   7    0.94    0.20   1
   3   2  -6    2.29    0.31   1
   3   2  -6    1.33    0.30   1
   3   2  -5    4.63    0.35   1
   3   2  -5    4.60    0.35   1
   3   2  -4   17.38    0.42   1
   3   2  -4   17.03    0.40   1
   3   2  -3   32.29    1.22  -1
  -3   4   0   32.29    1.22   2
  -3  -2   3   35.38    1.43  -1
   3  -4   0   35.38    1.43   2
   3   2  -2    6.83    0.27   1
  -3  -2   2    7.17    0.42   1
   3   2  -1    3.43    0.23   1
  -3  -2   1    3.93    0.38   1
   3   2   0    5.36    0.41   1
  -3  -2   0    4.46    0.40   1
   3   2   1   19.82    0.65   1
  -3  -2  -1   19.10    0.63   1
   3   2   2    9.12    0.29   1
  -3  -2  -2   11.23    0.47   1
   3   2   3    3.88    0.71  -1
  -3   2  -5    3.88    0.71   2
  -3  -2  -3    4.24    0.69  -1
   3  -2   5    4.24    0.69   2
   3   2   4   19.43    1.04  -1
  -3   2  -6   19.43    1.04   2
  -3  -2  -4   18.16    0.82  -1
   3  -2   6   18.16    0.82   2
   3   2   5    5.64    0.27   1
  -3  -2  -5    5.60    0.27   1
   3   2   6    3.88    0.40   1
   3   2   7   12.61    0.56   1
  -3  -2  -7   11.89    0.40   1
   3   2   8    1.19    0.43   1
  -3  -2  -8    1.54    0.44   1
   3   2   9   30.45    1.00   1
  -3  -2  -9   28.28    0.88   1
   3   2  10   12.53    1.11  -1
  -3   0 -11   12.53    1.11   2
  -3  -2 -10   13.37    1.02  -1
   3   0  11   13.37    1.02   2
   3   2  11   -0.74    0.76  -1
  -3   0 -12   -0.74    0.76   2
  -3  -2 -11   -0.74    0.77  -1
   3   0  12   -0.74    0.77   2
   3   2  12    2.69    0.33   1
  -3  -2 -12    5.22    1.38  -1
   3   0  13    5.22    1.38   2
   3   2  13    6.15    0.61   1
  -3  -2 -13    8.42    0.62   1
   3   3 -15    1.45    0.40   1
  -3  -3  15    1.12    0.35   1
   3   3 -14    0.95    0.38   1
  -3  -3  14    1.04    0.35   1
   3   3 -13    0.16    0.35   1
  -3  -3  13    0.39    0.33   1
   3   3 -12    6.19    0.46   1
  -3  -3  12    6.05    0.44   1
   3   3 -11    4.25    1.01  -1
  -3   7   6    4.25    1.01   2
  -3  -3  11    4.79    0.90  -1
   3  -7  -6    4.79    0.90   2
   3   3 -10    2.85    0.41   1
  -3  -3  10    2.56    0.35   1
   3   3  -9    4.12    0.42   1
  -3  -3   9    4.30    0.40   1
   3   3  -8    8.62    0.50   1
  -3  -3   8    7.87    0.50   1
   3   3  -7    1.58    0.37   1
  -3  -3   7   -0.10    0.23   1
   3   3  -6   10.68    0.50   1
   3   3  -6    9.85    0.46   1
   3   3  -5    2.71    0.24   1
   3   3  -5    3.57    0.36   1
   3   3  -4   21.09    1.21  -1
  -3   5   0   21.09    1.21   2
   3   3  -4   18.00    1.10  -1
  -3   5   0   18.00    1.10   2
   3   3  -3    5.20    0.32   1
   3   3  -3    4.01    0.39   1
   3   3  -2   12.40    0.49   1
  -3  -3   2   13.06    0.56   1
   3   3  -1    0.78    0.21   1
  -3  -3   1   -0.13    0.36   1
   3   3   0   29.59    0.80   1
  -3  -3   0   29.71    0.84   1
   3   3   1    0.65    0.33   1
  -3  -3  -1    0.87    0.35   1
   3   3   2    0.80    0.33   1
  -3  -3  -2   -0.23    0.34   1
   3   3   3   27.12    0.97  -1
  -3   3  -6   27.12    0.97   2
  -3  -3  -3   26.52    0.75  -1
   3  -3   6   26.52    0.75   2
   3   3   4   12.48    0.47   1
  -3  -3  -4   13.05    0.38   1
   3   3   5    9.87    0.51   1
  -3  -3  -5   10.69    0.35   1
   3   3   6    6.51    0.32   1
  -3  -3  -6    6.09    0.47   1
   3   3   7    3.67    0.28   1
  -3  -3  -7    4.22    0.46   1
   3   3   8   28.25    0.93   1
  -3  -3  -8   29.34    0.77   1
   3   3   9    7.72    1.38  -1
  -3   1 -11    7.72    1.38   2
  -3  -3  -9    9.55    1.42  -1
   3  -1  11    9.55    1.42   2
   3   3  10    7.57    0.89  -1
  -3   1 -12    7.57    0.89   2
  -3  -3 -10    5.31    0.98  -1
   3  -1  12    5.31    0.98   2
  -3  -3 -11    2.29    0.34   1
   3   3  11    5.24    1.42  -1
  -3   1 -13    5.24    1.42   2
   3   3  12    2.16    0.53   1
  -3  -3 -12    1.22    0.34   1
   3   4 -15    0.13    0.39   1
  -3  -4  15    0.82    0.38   1
   3   4 -14   -0.20    0.39   1
  -3  -4  14    0.78    0.38   1
   3   4 -13    2.90    0.48   1
  -3  -4  13    3.86    0.45   1
   3   4 -12   -0.04    0.42   1
  -3  -4  12    0.26    0.38   1
   3   4 -11   11.45    1.22  -1
  -3   8   5   11.45    1.22   2
  -3  -4  11    9.95    1.05  -1
   3  -8  -5    9.95    1.05   2
   3   4 -10    3.53    0.46   1
  -3  -4  10    1.90    0.40   1
   3   4  -9    2.06    0.43   1
  -3  -4   9    0.68    0.41   1
   3   4  -8    1.38    0.42   1
  -3  -4   8    0.66    0.27   1
   3   4  -7    0.50    0.26   1
   3   4  -7    0.96    0.36   1
   3   4  -6    2.33    0.43   1
   3   4  -6    2.85    0.39   1
   3   4  -5    9.74    0.56   1
   3   4  -5    9.64    0.51   1
   3   4  -4   15.89    1.33  -1
  -3   6  -1   15.89    1.33   2
   3   4  -4   13.07    0.77  -1
  -3   6  -1   13.07    0.77   2
   3   4  -3    4.51    0.30   1
   3   4  -3    3.55    0.40   1
   3   4  -2    0.16    0.25   1
   3   4  -2    1.57    0.36   1
   3   4  -1    1.38    0.23   1
  -3  -4   1    1.08    0.40   1
   3   4   0    6.37    0.45   1
  -3  -4   0    6.83    0.51   1
   3   4   1    4.46    0.24   1
  -3  -4  -1    4.36    0.43   1
   3   4   2    0.86    0.30   1
  -3  -4  -2    1.01    0.36   1
   3   4   3   10.14    1.00  -1
  -3   4  -7   10.14    1.00   2
  -3  -4  -3   11.18    1.05  -1
   3  -4   7   11.18    1.05   2
   3   4   4    2.00    0.35   1
  -3  -4  -4    2.97    0.41   1
   3   4   5    1.56    0.22   1
  -3  -4  -5    2.48    0.41   1
   3   4   6    8.33    0.53   1
  -3  -4  -6    8.29    0.37   1
   3   4   7    0.77    0.43   1
  -3  -4  -7    0.90    0.28   1
   3   4   8   20.80    0.81   1
  -3  -4  -8   21.93    0.87   1
   3   4   9    7.89    1.06  -1
  -3   2 -12    7.89    1.06   2
  -3  -4  -9    9.15    1.13  -1
   3  -2  12    9.15    1.13   2
   3   4  10    2.47    1.12  -1
  -3   2 -13    2.47    1.12   2
  -3  -4 -10    2.52    0.96  -1
   3  -2  13    2.52    0.96   2
   3   4  11    1.42    0.51   1
  -3  -4 -11    1.35    0.54   1
   3   5 -13    1.19    0.48   1
  -3  -5  13    1.78    0.43   1
   3   5 -12    3.28    1.27  -1
  -3   9   5    3.28    1.27   2
  -3  -5  12    1.55    0.94  -1
   3  -9  -5    1.55    0.94   2
   3   5 -11    1.61    0.50   1
  -3  -5  11    1.25    0.44   1
   3   5 -10    2.22    0.48   1
  -3  -5  10    2.89    0.48   1
   3   5  -9    2.71    0.33   1
  -3  -5   9    2.91    0.34   1
   3   5  -8    0.53    0.47   1
  -3  -5   8   -0.23    0.30   1
   3   5  -7    3.92    0.35   1
   3   5  -7    4.35    0.46   1
   3   5  -6    0.99    0.46   1
   3   5  -6    0.47    0.39   1
   3   5  -5   13.53    1.17  -1
  -3   7  -1   13.53    1.17   2
   3   5  -5   12.73    1.02  -1
  -3   7  -1   12.73    1.02   2
   3   5  -4    1.35    0.48   1
   3   5  -4    1.88    0.24   1
   3   5  -3    5.88    0.34   1
   3   5  -3    4.56    0.30   1
   3   5  -2    0.47    0.43   1
   3   5  -2    0.32    0.37   1
   3   5   0    0.50    0.34   1
  -3  -5   0    1.16    0.39   1
   3   5   1    0.38    0.19   1
  -3  -5  -1    0.05    0.35   1
   3   5   2   10.65    0.77  -1
  -3   5  -7   10.65    0.77   2
  -3  -5  -2   13.74    0.94  -1
   3  -5   7   13.74    0.94   2
   3   5   3    4.26    0.37   1
  -3  -5  -3    4.50    0.43   1
   3   5   4    3.86    0.44   1
  -3  -5  -4    4.78    0.48   1
   3   5   5    3.39    0.44   1
  -3  -5  -5    3.53    0.51   1
   3   5   6    1.05    0.24   1
  -3  -5  -6    1.69    0.28   1
   3   5   7   15.66    0.53   1
  -3  -5  -7   16.71    0.81   1
   3   5   8    1.71    0.31   1
  -3  -5  -8    2.51    0.49   1
   3   5   9    2.80    0.95  -1
  -3   3 -13    2.80    0.95   2
  -3  -5  -9    5.21    0.94  -1
   3  -3  13    5.21    0.94   2
   3   6 -12    1.70    1.23  -1
  -3  10   4    1.70    1.23   2
  -3  -6  12    2.70    0.95  -1
   3 -10  -4    2.70    0.95   2
   3   6 -11    0.91    0.51   1
  -3  -6  11    1.06    0.49   1
   3   6 -10    0.55    0.31   1
  -3  -6  10    0.23    0.30   1
   3   6  -9    0.56    0.52   1
  -3  -6   9   -0.16    0.30   1
   3   6  -8    0.38    0.52   1
   3   6  -8    0.78    0.42   1
   3   6  -7    0.20    0.31   1
   3   6  -7    0.74    0.41   1
   3   6  -6    4.94    0.56   1
   3   6  -6    3.16    0.30   1
   3   6  -5    6.35    1.40  -1
  -3   8  -2    6.35    1.40   2
   3   6  -5    5.15    0.97  -1
  -3   8  -2    5.15    0.97   2
   3   6  -4    1.84    0.29   1
   3   6  -4    1.64    0.26   1
   3   6  -3    0.19    0.45   1
   3   6  -3    0.47    0.24   1
   3   6  -2    0.09    0.43   1
   3   6  -2    0.26    0.23   1
   3   6  -1    1.80    0.51   1
   3   6  -1    1.48    0.24   1
   3   6   0    0.59    0.27   1
   3   6   0    2.11    0.35   1
   3   6   1    0.32    0.30   1
  -3  -6  -1    0.54    0.37   1
   3   6   2    4.43    0.96  -1
  -3   6  -8    4.43    0.96   2
  -3  -6  -2    6.61    1.13  -1
   3  -6   8    6.61    1.13   2
   3   6   3    0.73    0.35   1
  -3  -6  -3   -0.16    0.42   1
   3   6   4    0.31    0.37   1
  -3  -6  -4    1.41    0.44   1
   3   6   5    3.28    0.31   1
  -3  -6  -5    3.69    0.49   1
   3   6   6    0.37    0.28   1
  -3  -6  -6    0.84    0.30   1
   3   6   7    9.53    0.43   1
  -3  -6  -7    9.58    0.69   1
   3   7  -8    1.09    0.54   1
   3   7  -8    0.48    0.27   1
   3   7  -7    0.66    0.50   1
   3   7  -7    0.03    0.42   1
   3   7  -6    7.48    0.91  -1
  -3   9  -2    7.48    0.91   2
   3   7  -6    4.25    1.19  -1
  -3   9  -2    4.25    1.19   2
   3   7  -5   -0.19    0.31   1
   3   7  -5    0.59    0.41   1
   3   7  -4    2.14    0.50   1
   3   7  -4    2.00    0.41   1
   3   7  -3    0.42    0.46   1
   3   7  -3    0.11    0.24   1
   3   7  -2    0.71    0.47   1
   3   7  -2    0.98    0.24   1
   3   7  -1    0.21    0.41   1
   3   7  -1    0.43    0.20   1
   3   7   0    0.16    0.40   1
   3   7   0    0.39    0.19   1
   3   7   1    2.41    0.58  -1
  -3   7  -8    2.41    0.58   2
   3   7   1    3.70    0.41  -1
  -3   7  -8    3.70    0.41   2
   3   7   2    0.52    0.21   1
  -3  -7  -2    0.98    0.44   1
   3   7   3    1.25    0.25   1
  -3  -7  -3    1.43    0.46   1
  -4  10   4    0.02    0.26   1
  -4  10   4   -0.11    0.37   1
   4 -10  -3   -0.30    0.26   1
  -4  10   3    0.41    0.45   1
   4 -10  -2    0.09    0.40   1
  -4  10   2    0.83    0.48   1
   4 -10  -1   -0.30    0.39   1
  -4  10   1    0.40    0.31   1
   4 -10   0    0.65    0.41   1
  -4  10   0    0.71    0.52   1
  -4   9   8    0.07    0.31   1
  -4   9   8    0.57    0.27   1
  -4   9   7    1.32    0.34   1
  -4   9   7    1.66    0.34   1
  -4   9   6    0.28    0.35   1
  -4   9   6    0.32    0.32   1
  -4   9   5    1.29    0.38   1
  -4   9   5    1.94    0.39   1
  -4   9   4    0.51    0.41   1
  -4   9   4    0.90    0.40   1
   4  -9  -3    4.47    0.90  -1
  -4  -5  10    4.47    0.90   2
  -4   9   3    1.87    1.00  -1
   4   5 -10    1.87    1.00   2
   4  -9  -2    1.58    0.40   1
  -4   9   2    2.03    0.49   1
   4  -9  -1    1.52    0.25   1
  -4   9   1    1.66    0.50   1
   4  -9   0    0.29    0.40   1
  -4   9   0    0.75    0.31   1
   4  -9   1    2.99    0.50   1
  -4   9  -1    4.45    0.56   1
   4  -9   2    0.34    0.27   1
  -4   9  -2    0.23    0.53   1
   4  -9   3    0.43    0.28   1
  -4   9  -3    1.11    0.52   1
  -4   8   9    0.57    0.25   1
  -4   8   9    0.33    0.23   1
  -4   8   8    1.26    0.28   1
  -4   8   8    0.82    0.27   1
  -4   8   7    0.25    0.29   1
  -4   8   7    0.85    0.28   1
  -4   8   6    2.09    0.35   1
  -4   8   6    1.86    0.43   1
  -4   8   5   -0.03    0.33   1
  -4   8   5    0.49    0.32   1
  -4   8   4   -0.75    0.37   1
   4  -8  -4    1.63    0.61  -1
  -4  -4  10    1.63    0.61   2
   4  -8  -3    0.17    0.34   1
  -4   8   3   -0.10    0.38   1
   4  -8  -2    0.81    0.35   1
  -4   8   2    0.54    0.42   1
   4  -8  -1    2.95    0.40   1
  -4   8   1    1.41    0.26   1
   4  -8   0    1.46    0.44   1
  -4   8   0    1.99    0.49   1
   4  -8   1    3.73    0.32   1
  -4   8  -1    2.81    0.55   1
   4  -8   2    1.31    0.44   1
  -4   8  -2    0.78    0.46   1
   4  -8   3    1.66    1.16  -1
  -4  -6   4    1.66    1.16   2
  -4   8  -3    1.90    0.77  -1
   4   6  -4    1.90    0.77   2
   4  -8   4   -0.10    0.45   1
  -4   8  -4    0.87    0.50   1
   4  -8   5    0.64    0.29   1
  -4   8  -5    0.51    0.51   1
   4  -8   6   -0.23    0.47   1
  -4   8  -6    0.61    0.30   1
  -4   7  10    0.59    0.19   1
  -4   7  10    0.43    0.19   1
  -4   7   9   -0.35    0.21   1
  -4   7   9    0.24    0.19   1
  -4   7   8    2.50    0.27   1
  -4   7   8    2.68    0.26   1
  -4   7   7    0.13    0.25   1
  -4   7   7    0.40    0.31   1
  -4   7   6    3.72    0.31   1
  -4   7   6    3.66    0.29   1
  -4   7   5    1.89    0.33   1
  -4   7   5    1.37    0.31   1
   4  -7  -4   11.43    1.02  -1
  -4  -3   9   11.43    1.02   2
  -4   7   4   12.58    0.92  -1
   4   3  -9   12.58    0.92   2
   4  -7  -3    6.53    0.40   1
  -4   7   3    7.88    0.48   1
   4  -7  -2    1.78    0.35   1
  -4   7   2    2.59    0.39   1
   4  -7  -1    2.49    0.39   1
  -4   7   1    1.62    0.26   1
   4  -7   0   11.93    0.59   1
  -4   7   0   12.96    0.66   1
   4  -7   1    0.67    0.41   1
  -4   7  -1    0.83    0.45   1
   4  -7   2    3.81    0.29   1
  -4   7  -2    3.56    0.52   1
   4  -7   3    3.62    1.14  -1
  -4  -5   3    3.62    1.14   2
  -4   7  -3    6.07    0.77  -1
   4   5  -3    6.07    0.77   2
   4  -7   4    0.49    0.45   1
  -4   7  -4    1.03    0.47   1
   4  -7   5   -0.93    0.45   1
  -4   7  -5   -0.16    0.46   1
   4  -7   6    1.09    0.45   1
  -4   7  -6    0.69    0.49   1
   4  -7   7    0.92    0.27   1
  -4   7  -7    1.39    0.29   1
   4  -7   8   -0.47    0.38   1
  -4   7  -8   -0.35    0.44   1
  -4   6  11    1.24    0.17   1
  -4   6  11    1.32    0.21   1
  -4   6  10    0.78    0.16   1
  -4   6  10    0.97    0.18   1
  -4   6   9    1.91    0.26   1
  -4   6   9    1.67    0.19   1
  -4   6   8    0.67    0.24   1
  -4   6   8   -0.07    0.23   1
  -4   6   7    3.40    0.25   1
  -4   6   7    3.32    0.24   1
  -4   6   6    0.95    0.25   1
  -4   6   6    1.76    0.30   1
   4  -6  -5    4.48    0.65  -1
  -4  -2   9    4.48    0.65   2
  -4   6   5    4.09    0.73  -1
   4   2  -9    4.09    0.73   2
   4  -6  -4    0.20    0.26   1
  -4   6   4    0.66    0.28   1
   4  -6  -3    0.88    0.29   1
  -4   6   3    1.12    0.31   1
   4  -6  -2    4.07    0.37   1
  -4   6   2    5.17    0.41   1
   4  -6  -1    5.45    0.42   1
  -4   6   1    5.38    0.45   1
   4  -6   0   11.08    0.56   1
  -4   6   0   10.99    0.55   1
   4  -6   1    1.48    0.39   1
  -4   6  -1    1.44    0.41   1
   4  -6   2    4.26    0.84  -1
  -4  -4   3    4.26    0.84   2
  -4   6  -2    5.81    0.93  -1
   4   4  -3    5.81    0.93   2
   4  -6   3    0.21    0.40   1
  -4   6  -3    0.31    0.46   1
   4  -6   4    0.51    0.26   1
  -4   6  -4    1.83    0.46   1
   4  -6   5    1.20    0.45   1
  -4   6  -5    1.52    0.29   1
   4  -6   6    2.26    0.29   1
  -4   6  -6    0.88    0.49   1
   4  -6   7    2.03    0.44   1
  -4   6  -7    2.26    0.48   1
   4  -6   8    0.46    0.39   1
  -4   6  -8    1.16    0.26   1
   4  -6   9    4.94    0.83  -1
  -4  -6  -3    4.94    0.83   2
  -4   6  -9    5.46    0.94  -1
   4   6   3    5.46    0.94   2
  -4   5  12    8.63    0.35  -1
   4  -1 -14    8.63    0.35   2
  -4   5  12   10.75    0.36  -1
   4  -1 -14   10.75    0.36   2
  -4   5  11    0.91    0.14   1
  -4   5  11    0.98    0.14   1
  -4   5  10   -0.08    0.14   1
  -4   5  10    0.30    0.14   1
  -4   5   9    2.38    0.19   1
  -4   5   9    1.85    0.16   1
  -4   5   8   -0.10    0.18   1
  -4   5   8    0.12    0.16   1
  -4   5   7    7.49    0.31   1
  -4   5   7    7.41    0.23   1
  -4   5   6    4.98    0.29   1
  -4   5   6    4.26    0.28   1
   4  -5  -5   35.36    1.21  -1
  -4  -1   8   35.36    1.21   2
  -4   5   5   38.36    1.07  -1
   4   1  -8   38.36    1.07   2
   4  -5  -4   14.38    0.42   1
  -4   5   4   15.10    0.44   1
   4  -5  -3    5.19    0.31   1
  -4   5   3    6.40    0.33   1
   4  -5  -2    1.70    0.30   1
  -4   5   2    1.31    0.31   1
   4  -5  -1   37.19    1.00   1
  -4   5   1   41.00    1.04   1
   4  -5   0    0.98    0.21   1
  -4   5   0    1.02    0.37   1
   4  -5   1    9.29    0.50   1
  -4   5  -1    9.29    0.52   1
   4  -5   2    9.50    1.07  -1
  -4  -3   2    9.50    1.07   2
  -4   5  -2    6.45    0.65  -1
   4   3  -2    6.45    0.65   2
   4  -5   3   -0.11    0.22   1
  -4   5  -3   -0.16    0.43   1
   4  -5   4    0.70    0.39   1
  -4   5  -4   -0.41    0.43   1
   4  -5   5    1.73    0.26   1
  -4   5  -5    1.89    0.46   1
   4  -5   6    3.97    0.46   1
  -4   5  -6    2.89    0.43   1
   4  -5   7    0.69    0.38   1
  -4   5  -7    0.49    0.25   1
   4  -5   8    4.00    0.28   1
  -4   5  -8    4.39    0.45   1
   4  -5   9    4.27    0.56  -1
  -4  -5  -4    4.27    0.56   2
  -4   5  -9    5.08    0.64  -1
   4   5   4    5.08    0.64   2
   4  -5  10    1.39    0.23   1
  -4   5 -10    0.82    0.37   1
  -4   4  12    3.19    0.09   1
  -4   4  12    2.84    0.10   1
  -4   4   8    3.36    0.09   1
  -4   4   8    3.44    0.09   1
  -4   4   7    2.51    0.14   1
  -4   4   7    2.12    0.11   1
  -4   4   6    3.15    0.42  -1
   4   0  -8    3.15    0.42   2
  -4   4   6    2.75    0.41  -1
   4   0  -8    2.75    0.41   2
   4  -4  -5    1.45    0.20   1
  -4   4   5    1.44    0.22   1
   4  -4  -4    1.67    0.19   1
  -4   4   4    1.57    0.20   1
   4  -4  -3    7.63    0.39   1
  -4   4   3    8.08    0.32   1
   4  -4  -2   10.97    0.41   1
  -4   4   2   10.62    0.42   1
   4  -4  -1   26.06    0.69   1
  -4   4   1   26.41    0.72   1
   4  -4   0    2.77    0.36   1
  -4   4   0    3.78    0.36   1
   4  -4   1    6.52    0.91  -1
  -4  -2   2    6.52    0.91   2
  -4   4  -1    7.85    1.05  -1
   4   2  -2    7.85    1.05   2
   4  -4   2    0.99    0.39   1
  -4   4  -2    1.62    0.39   1
   4  -4   3   -0.48    0.38   1
  -4   4  -3    0.03    0.39   1
   4  -4   4    3.99    0.43   1
  -4   4  -4    3.41    0.45   1
   4  -4   5    5.05    0.30   1
  -4   4  -5    4.46    0.30   1
   4  -4   6    5.55    0.29   1
  -4   4  -6    5.96    0.49   1
   4  -4   7    1.57    0.35   1
  -4   4  -7    2.10    0.26   1
   4  -4   8   10.65    0.80  -1
  -4  -4  -4   10.65    0.80   2
  -4   4  -8   10.88    0.94  -1
   4   4   4   10.88    0.94   2
   4  -4   9    1.97    0.32   1
  -4   4  -9    2.53    0.24   1
   4  -4  10   -0.14    0.35   1
  -4   4 -10    0.83    0.39   1
   4  -4  11   13.00    0.46   1
  -4   4 -11   13.25    0.50   1
  -4   3  13   11.69    0.23  -1
   4  -3 -13   11.69    0.23   2
   4  -3  -5   23.85    0.40   1
  -4   3   5   24.36    0.40   1
   4  -3  -4   10.68    0.31   1
  -4   3   4   11.69    0.33   1
   4  -3  -3    0.84    0.27   1
  -4   3   3    1.32    0.21   1
   4  -3  -2   93.36    2.07   1
  -4   3   2   96.56    2.09   1
   4  -3  -1   -0.36    0.28   1
  -4   3   1    0.47    0.29   1
   4  -3   0   18.68    0.58   1
  -4   3   0   19.42    0.62   1
   4  -3   1    9.70    0.87  -1
  -4  -1   1    9.70    0.87   2
  -4   3  -1    8.51    0.76  -1
   4   1  -1    8.51    0.76   2
   4  -3   2    3.18    0.40   1
  -4   3  -2    2.97    0.42   1
   4  -3   3    1.51    0.24   1
  -4   3  -3    2.15    0.40   1
   4  -3   4    2.44    0.24   1
  -4   3  -4    2.55    0.44   1
   4  -3   5    7.21    0.30   1
  -4   3  -5    6.78    0.34   1
   4  -3   6    0.64    0.21   1
  -4   3  -6    0.23    0.39   1
   4  -3   7    7.74    0.31   1
  -4   3  -7    8.39    0.51   1
   4  -3   8    6.17    0.49  -1
  -4  -3  -5    6.17    0.49   2
  -4   3  -8   11.18    0.60  -1
   4   3   5   11.18    0.60   2
   4  -3   9    2.73    0.35   1
  -4   3  -9    2.50    0.35   1
   4  -3  10    6.91    0.47   1
  -4   3 -10    7.76    0.52   1
   4  -3  11    1.61    0.44   1
  -4   3 -11    2.76    0.30   1
   4  -2 -13    4.02    0.12   1
  -4   2  13    4.13    0.13   1
   4  -2  -5    2.36    0.11   1
  -4   2   5    2.37    0.10   1
   4  -2  -4    9.94    0.29   1
  -4   2   4    9.17    0.27   1
   4  -2  -3   13.45    0.33   1
  -4   2   3   13.60    0.39   1
   4  -2  -2   40.24    0.83   1
  -4   2   2   41.73    0.94   1
   4  -2  -1    7.07    0.35   1
  -4   2   1    6.21    0.34   1
   4  -2   0    5.49    0.25   1
  -4   2   0   12.69    0.74  -1
   4   0  -1   12.69    0.74   2
   4  -2   1    3.31    0.22   1
  -4   2  -1   14.19    1.08  -1
   4   0   0   14.19    1.08   2
   4  -2   2    0.29    0.21   1
  -4   2  -2    0.59    0.37   1
   4  -2   3    4.70    0.43   1
  -4   2  -3    5.96    0.29   1
   4  -2   4   10.50    0.48   1
  -4   2  -4    9.80    0.33   1
   4  -2   5   11.38    0.49   1
  -4   2  -5   11.32    0.37   1
   4  -2   6    0.81    0.20   1
  -4   2  -6    1.29    0.23   1
   4  -2   7   16.25    0.79  -1
  -4  -2  -5   16.25    0.79   2
  -4   2  -7   17.97    0.90  -1
   4   2   5   17.97    0.90   2
   4  -2   8    9.81    0.65  -1
  -4  -2  -6    9.81    0.65   2
  -4   2  -8   12.25    0.79  -1
   4   2   6   12.25    0.79   2
   4  -2   9    0.45    0.35   1
  -4   2  -9    1.95    0.38   1
   4  -2  10   27.38    0.69   1
  -4   2 -10   27.93    0.91   1
   4  -2  11    0.34    0.41   1
  -4   2 -11    0.70    0.27   1
   4  -2  12   -0.56    0.47   1
  -4   2 -12    0.29    0.50   1
   4  -1 -14   11.54    0.46  -1
  -4   5  12   11.54    0.46   2
  -4   1  14   10.92    0.44  -1
   4  -5 -12   10.92    0.44   2
   4  -1 -13    1.68    0.18   1
  -4   1  13    1.86    0.17   1
   4  -1 -12    0.60    0.13   1
  -4   1  12    0.05    0.13   1
   4  -1 -10    0.34    0.07   1
   4  -1 -10    0.10    0.08   1
   4  -1  -9    7.47    0.15   1
   4  -1  -9    7.26    0.14   1
   4  -1  -8   11.06    0.18   1
   4  -1  -8   10.86    0.18   1
   4  -1  -7   55.27    0.94  -1
  -4   3   6   55.27    0.94   2
   4  -1  -7   59.18    1.06  -1
  -4   3   6   59.18    1.06   2
   4  -1  -5   14.42    0.33   1
  -4   1   5   14.67    0.30   1
   4  -1  -4    0.17    0.21   1
  -4   1   4    0.30    0.15   1
   4  -1  -3  127.70    2.97   1
  -4   1   3  127.61    2.83   1
   4  -1  -2    0.32    0.33   1
  -4   1   2   -0.04    0.22   1
   4  -1  -1   24.00    0.61   1
  -4   1   1   25.07    0.61   1
   4  -1   0    8.34    0.58  -1
  -4   1   0    8.34    0.58   2
  -4   1   0    7.42    0.61  -1
   4  -1   0    7.42    0.61   2
   4  -1   1   12.02    0.33   1
  -4   1  -1   15.30    0.52   1
   4  -1   2    4.30    0.41   1
  -4   1  -2    4.93    0.41   1
   4  -1   3    4.35    0.25   1
  -4   1  -3    4.41    0.26   1
   4  -1   4   10.64    0.52   1
  -4   1  -4   11.76    0.53   1
   4  -1   5    2.25    0.37   1
  -4   1  -5    2.65    0.39   1
   4  -1   6   34.47    1.54  -1
  -4  -1  -5   34.47    1.54   2
  -4   1  -6   34.99    1.27  -1
   4   1   5   34.99    1.27   2
   4  -1   7   10.35    0.58  -1
  -4  -1  -6   10.35    0.58   2
  -4   1  -7   13.61    0.74  -1
   4   1   6   13.61    0.74   2
  -4   1  -8    2.62    0.22   1
   4  -1   8    7.69    0.93  -1
  -4  -1  -7    7.69    0.93   2
   4  -1   9    9.81    0.52   1
  -4   1  -9   10.59    0.38   1
   4  -1  10    3.93    0.48   1
  -4   1 -10    4.43    0.49   1
   4  -1  11    0.37    0.44   1
  -4   1 -11    0.51    0.46   1
   4  -1  12    0.12    0.43   1
  -4   1 -12   -0.04    0.47   1
   4   0 -14    3.86    0.32   1
  -4   0  14    4.02    0.22   1
   4   0 -13    1.15    0.20   1
  -4   0  13    1.21    0.23   1
   4   0 -12    0.01    0.17   1
  -4   0  12    0.09    0.20   1
   4   0 -11   -0.07    0.21   1
  -4   0  11    0.13    0.17   1
   4   0 -10    1.59    0.23   1
   4   0 -10    1.55    0.21   1
   4   0  -9    3.43    0.24   1
   4   0  -9    3.58    0.23   1
   4   0  -8    3.29    0.43  -1
  -4   4   6    3.29    0.43   2
   4   0  -8    2.07    0.45  -1
  -4   4   6    2.07    0.45   2
   4   0  -7    4.17    0.25   1
   4   0  -7    3.10    0.19   1
   4   0  -6    2.15    0.24   1
   4   0  -6    2.72    0.25   1
   4   0  -5    6.85    0.26   1
  -4   0   5    6.97    0.34   1
   4   0  -4    9.21    0.33   1
  -4   0   4    9.40    0.41   1
   4   0  -3   33.78    0.73   1
  -4   0   3   35.56    0.75   1
   4   0  -2    7.44    0.39   1
  -4   0   2    7.01    0.35   1
   4   0  -1   10.52    0.74  -1
  -4   2   0   10.52    0.74   2
  -4   0   1   13.51    0.80  -1
   4  -2   0   13.51    0.80   2
  -4   0   0    5.01    0.25   1
   4   0   0   14.80    1.09  -1
  -4   2  -1   14.80    1.09   2
   4   0   1    2.19    0.37   1
  -4   0  -1    1.90    0.34   1
   4   0   2    6.36    0.41   1
  -4   0  -2    5.40    0.44   1
   4   0   3   15.36    0.58   1
  -4   0  -3   16.23    0.57   1
   4   0   4   13.84    0.55   1
  -4   0  -4   12.18    0.38   1
   4   0   5    0.30    0.20   1
  -4   0  -5    0.05    0.35   1
   4   0   6   19.60    0.80  -1
  -4   0  -6   19.60    0.80   2
  -4   0  -6   20.51    0.85  -1
   4   0   6   20.51    0.85   2
  -4   0  -7    6.68    0.27   1
   4   0   7   16.67    0.85  -1
  -4   0  -7   16.67    0.85   2
   4   0   8    0.97    0.23   1
  -4   0  -8    1.05    0.33   1
   4   0   9   38.57    1.09   1
  -4   0  -9   37.18    1.05   1
   4   0  10    0.19    0.43   1
  -4   0 -10    0.64    0.44   1
   4   0  11    0.37    0.27   1
  -4   0 -11    1.20    0.48   1
  -4   0 -12    9.65    0.69   1
   4   0  12   19.10    1.66  -1
  -4  -2 -11   19.10    1.66   2
   4   1 -15    6.23    0.64  -1
  -4   7  11    6.23    0.64   2
  -4  -1  15    6.30    0.57  -1
   4  -7 -11    6.30    0.57   2
   4   1 -14    1.82    0.26   1
  -4  -1  14    1.45    0.23   1
   4   1 -13    0.55    0.22   1
  -4  -1  13    0.20    0.19   1
   4   1 -12   -0.16    0.22   1
  -4  -1  12   -0.16    0.21   1
   4   1 -11   -0.11    0.22   1
  -4  -1  11    0.32    0.24   1
   4   1 -10    5.06    0.28   1
   4   1 -10    4.80    0.26   1
   4   1  -9    8.99    0.34   1
   4   1  -9    8.84    0.38   1
   4   1  -8   38.72    1.20  -1
  -4   5   5   38.72    1.20   2
   4   1  -8   37.37    1.09  -1
  -4   5   5   37.37    1.09   2
   4   1  -7   14.95    0.42   1
   4   1  -7   13.20    0.40   1
   4   1  -6   11.22    0.47   1
   4   1  -6   10.70    0.37   1
   4   1  -5    0.12    0.16   1
   4   1  -5    0.72    0.26   1
   4   1  -4   82.82    1.85   1
  -4  -1   4   80.33    1.82   1
   4   1  -3   -0.37    0.29   1
  -4  -1   3    0.11    0.29   1
   4   1  -2   15.07    0.54   1
  -4  -1   2   15.92    0.54   1
   4   1  -1    9.24    0.68  -1
  -4   3  -1    9.24    0.68   2
  -4  -1   1    9.28    0.85  -1
   4  -3   1    9.28    0.85   2
   4   1   0   17.57    0.59   1
  -4  -1   0   17.57    0.60   1
   4   1   1    4.87    0.45   1
  -4  -1  -1    4.95    0.43   1
   4   1   2    3.64    0.26   1
  -4  -1  -2    5.17    0.28   1
   4   1   3    9.48    0.31   1
  -4  -1  -3    8.96    0.33   1
   4   1   4    6.55    0.29   1
  -4  -1  -4    6.52    0.38   1
   4   1   5    9.42    0.33   1
  -4  -1  -5   17.50    0.53   1
   4   1   6   12.83    0.53  -1
  -4   1  -7   12.83    0.53   2
  -4  -1  -6   10.45    0.56  -1
   4  -1   7   10.45    0.56   2
   4   1   7    2.24    0.26   1
  -4  -1  -7    5.65    0.86  -1
   4  -1   8    5.65    0.86   2
   4   1   8    9.89    0.53   1
  -4  -1  -8    9.54    0.52   1
   4   1   9    4.27    0.46   1
  -4  -1  -9    5.58    0.51   1
   4   1  10    1.28    0.42   1
  -4  -1 -10    2.04    0.30   1
   4   1  11    0.27    0.26   1
  -4  -1 -11   -0.02    0.29   1
   4   2 -15    1.78    0.31   1
  -4  -2  15    1.38    0.38   1
   4   2 -14    0.95    0.29   1
  -4  -2  14    0.91    0.27   1
   4   2 -13    0.05    0.27   1
  -4  -2  13   -0.08    0.25   1
   4   2 -12    0.23    0.29   1
  -4  -2  12    0.35    0.27   1
   4   2 -11   -0.01    0.28   1
  -4  -2  11    0.48    0.18   1
   4   2 -10    2.55    0.33   1
   4   2 -10    2.13    0.28   1
   4   2  -9    3.90    0.79  -1
  -4   6   5    3.90    0.79   2
   4   2  -9    3.47    0.71  -1
  -4   6   5    3.47    0.71   2
   4   2  -8    3.19    0.32   1
   4   2  -8    3.63    0.40   1
   4   2  -7    1.41    0.29   1
   4   2  -7    1.98    0.29   1
   4   2  -6    3.35    0.34   1
   4   2  -6    3.57    0.33   1
   4   2  -5    4.90    0.38   1
   4   2  -5    4.20    0.36   1
   4   2  -4   17.38    0.45   1
  -4  -2   4   19.04    0.60   1
   4   2  -3    4.65    0.38   1
  -4  -2   3    5.59    0.41   1
   4   2  -2    8.40    0.85  -1
  -4   4  -1    8.40    0.85   2
  -4  -2   2    6.34    0.98  -1
   4  -4   1    6.34    0.98   2
   4   2  -1    4.56    0.41   1
  -4  -2   1    4.68    0.43   1
   4   2   0    2.87    0.39   1
  -4  -2   0    4.10    0.43   1
   4   2   1    3.07    0.36   1
  -4  -2  -1    3.15    0.43   1
   4   2   2   12.49    0.55   1
  -4  -2  -2   13.52    0.39   1
   4   2   3   10.49    0.54   1
  -4  -2  -3    8.03    0.33   1
   4   2   4    0.90    0.35   1
  -4  -2  -4    0.41    0.36   1
   4   2   5   17.35    0.85  -1
  -4   2  -7   17.35    0.85   2
  -4  -2  -5   15.71    0.79  -1
   4  -2   7   15.71    0.79   2
   4   2   6   14.35    1.14  -1
  -4   2  -8   14.35    1.14   2
  -4  -2  -6   12.05    0.85  -1
   4  -2   8   12.05    0.85   2
   4   2   7    1.37    0.39   1
  -4  -2  -7    0.94    0.37   1
   4   2   8   25.26    0.84   1
  -4  -2  -8   23.00    0.62   1
   4   2   9    0.79    0.45   1
  -4  -2  -9    1.27    0.46   1
   4   2  10    0.06    0.44   1
  -4  -2 -10    0.27    0.43   1
   4   2  11    5.01    0.36   1
  -4  -2 -11   20.05    1.61  -1
   4   0  12   20.05    1.61   2
   4   3 -14    0.72    0.45   1
  -4  -3  14    0.21    0.32   1
   4   3 -13    0.84    0.35   1
  -4  -3  13    1.08    0.33   1
   4   3 -12    0.04    0.33   1
  -4  -3  12    0.01    0.36   1
   4   3 -11    1.86    0.37   1
  -4  -3  11    0.30    0.24   1
   4   3 -10    4.69    0.40   1
   4   3 -10    3.59    0.34   1
   4   3  -9   14.23    1.05  -1
  -4   7   4   14.23    1.05   2
   4   3  -9   11.96    0.88  -1
  -4   7   4   11.96    0.88   2
   4   3  -8    7.01    0.46   1
   4   3  -8    5.53    0.41   1
   4   3  -7    7.21    0.46   1
   4   3  -7    6.02    0.41   1
   4   3  -6   -0.63    0.35   1
   4   3  -6    0.23    0.32   1
   4   3  -5   36.41    1.03   1
   4   3  -5   33.27    0.94   1
   4   3  -4   -0.10    0.23   1
   4   3  -4   -0.13    0.35   1
   4   3  -3    7.09    0.31   1
  -4  -3   3    7.22    0.49   1
   4   3  -2    6.54    1.00  -1
  -4   5  -2    6.54    1.00   2
  -4  -3   2    8.73    0.97  -1
   4  -5   2    8.73    0.97   2
   4   3  -1   11.24    0.55   1
  -4  -3   1   12.84    0.58   1
   4   3   0    2.50    0.27   1
  -4  -3   0    3.04    0.43   1
   4   3   1    2.98    0.42   1
  -4  -3  -1    2.61    0.25   1
   4   3   2    4.66    0.44   1
  -4  -3  -2    4.51    0.46   1
   4   3   3    8.04    0.47   1
  -4  -3  -3    7.82    0.49   1
  -4  -3  -4    8.52    0.50   1
   4   3   4   27.09    1.55  -1
  -4   3  -7   27.09    1.55   2
   4   3   5   12.38    1.00  -1
  -4   3  -8   12.38    1.00   2
  -4  -3  -5    8.28    0.59  -1
   4  -3   8    8.28    0.59   2
   4   3   6    1.32    0.37   1
  -4  -3  -6    1.40    0.38   1
   4   3   7    5.10    0.47   1
  -4  -3  -7    4.62    0.47   1
   4   3   8    3.07    0.49   1
  -4  -3  -8    3.07    0.51   1
   4   3   9    1.76    0.48   1
  -4  -3  -9    1.65    0.31   1
   4   3  10    0.12    0.46   1
  -4  -3 -10    0.86    0.50   1
   4   4 -14    0.00    0.36   1
  -4  -4  14    0.37    0.36   1
   4   4 -13    0.33    0.39   1
  -4  -4  13    0.03    0.39   1
   4   4 -12    0.21    0.40   1
  -4  -4  12    1.06    0.27   1
   4   4 -11    1.60    0.43   1
   4   4 -11    1.61    0.36   1
   4   4 -10    3.47    1.12  -1
  -4   8   4    3.47    1.12   2
   4   4 -10    2.21    0.76  -1
  -4   8   4    2.21    0.76   2
   4   4  -9    1.08    0.44   1
   4   4  -9    1.79    0.36   1
   4   4  -8    0.84    0.44   1
   4   4  -8    1.68    0.38   1
   4   4  -7    1.38    0.41   1
   4   4  -7    2.01    0.37   1
   4   4  -6    1.86    0.43   1
   4   4  -6    1.85    0.39   1
   4   4  -5    7.10    0.48   1
   4   4  -5    7.41    0.50   1
   4   4  -4    2.47    0.45   1
   4   4  -4    2.06    0.26   1
   4   4  -3   -0.54    0.30   1
   4   4  -3    5.27    0.83  -1
  -4   6  -2    5.27    0.83   2
   4   4  -2    2.43    0.43   1
  -4  -4   2    2.71    0.45   1
   4   4  -1    1.69    0.40   1
  -4  -4   1    1.98    0.47   1
   4   4   0    1.41    0.39   1
  -4  -4   0    1.10    0.25   1
   4   4   1    7.79    0.35   1
  -4  -4  -1    8.61    0.35   1
   4   4   2    3.66    0.27   1
  -4  -4  -2    4.78    0.31   1
   4   4   3    1.22    0.21   1
  -4  -4  -3    1.80    0.25   1
   4   4   4    8.57    0.70  -1
  -4   4  -8    8.57    0.70   2
  -4  -4  -4   11.93    0.59  -1
   4  -4   8   11.93    0.59   2
   4   4   5    1.49    0.36   1
  -4  -4  -5    1.01    0.38   1
   4   4   6    0.85    0.38   1
  -4  -4  -6    0.11    0.42   1
   4   4   7    9.11    0.61   1
  -4  -4  -7   10.04    0.43   1
   4   4   8    1.24    0.44   1
  -4  -4  -8    1.21    0.48   1
   4   5 -12    0.75    0.45   1
  -4  -5  12    0.15    0.30   1
   4   5 -11    1.45    0.47   1
   4   5 -11    1.15    0.38   1
   4   5 -10    2.75    1.08  -1
  -4   9   3    2.75    1.08   2
   4   5 -10    2.50    0.80  -1
  -4   9   3    2.50    0.80   2
   4   5  -9    2.99    0.51   1
   4   5  -9    1.54    0.25   1
   4   5  -8    3.12    0.51   1
   4   5  -8    2.77    0.42   1
   4   5  -7   -0.08    0.45   1
   4   5  -7    0.19    0.37   1
   4   5  -6   11.87    0.70   1
   4   5  -6   10.90    0.59   1
   4   5  -5    0.45    0.45   1
   4   5  -5   -0.57    0.39   1
   4   5  -4    3.37    0.51   1
   4   5  -4    2.55    0.45   1
   4   5  -3    7.16    1.34  -1
  -4   7  -3    7.16    1.34   2
   4   5  -3    4.02    1.05  -1
  -4   7  -3    4.02    1.05   2
   4   5  -2   -0.39    0.30   1
   4   5  -2    3.73    0.44   1
   4   5  -1    1.70    0.43   1
  -4  -5   1    1.83    0.30   1
   4   5   0    0.98    0.40   1
  -4  -5   0    1.43    0.45   1
   4   5   1    1.23    0.23   1
  -4  -5  -1    1.35    0.44   1
   4   5   2    4.60    0.30   1
  -4  -5  -2    5.29    0.49   1
   4   5   3    3.81    0.26   1
  -4  -5  -3    3.88    0.29   1
   4   5   4    5.28    0.59  -1
  -4   5  -9    5.28    0.59   2
  -4  -5  -4    6.22    0.89  -1
   4  -5   9    6.22    0.89   2
   4   5   5    0.61    0.22   1
  -4  -5  -5    0.48    0.41   1
   4   5   6    1.35    0.25   1
  -4  -5  -6    0.65    0.49   1
   4   6 -11    1.00    0.52   1
   4   6 -11    0.37    0.24   1
   4   6 -10    0.91    0.53   1
   4   6 -10    1.49    0.41   1
   4   6  -9    0.45    0.53   1
   4   6  -9    1.93    0.41   1
   4   6  -8    0.11    0.51   1
   4   6  -8    0.42    0.26   1
   4   6  -7    0.32    0.50   1
   4   6  -7    1.02    0.42   1
   4   6  -6    2.40    0.54   1
   4   6  -6    2.09    0.44   1
   4   6  -5    1.45    0.31   1
   4   6  -5    0.87    0.41   1
   4   6  -4    3.14    1.32  -1
  -4   8  -3    3.14    1.32   2
   4   6  -4    1.78    1.06  -1
  -4   8  -3    1.78    1.06   2
   4   6  -3    2.46    0.51   1
   4   6  -3    1.01    0.44   1
   4   6  -2    1.29    0.53   1
   4   6  -2    1.48    0.43   1
   4   6  -1   -0.27    0.33   1
   4   6  -1    0.86    0.40   1
   4   6   0    3.47    0.43   1
  -4  -6   0    3.30    0.51   1
   4   6   1    1.13    0.38   1
  -4  -6  -1    2.23    0.45   1
   4   6   2    1.09    0.36   1
  -4  -6  -2    2.47    0.42   1
   4   6   3    4.64    0.74  -1
  -4   6  -9    4.64    0.74   2
  -4  -6  -3    5.64    0.97  -1
   4  -6   9    5.64    0.97   2
  -5   9   7    0.66    0.28   1
  -5   9   7    0.73    0.27   1
  -5   9   6    0.24    0.32   1
  -5   9   6    0.40    0.30   1
   5  -9  -5    0.13    0.21   1
  -5   9   5    0.88    0.34   1
   5  -9  -4   -0.03    0.30   1
  -5   9   4    0.25    0.37   1
   5  -9  -3    2.03    0.36   1
  -5   9   3    1.96    0.43   1
   5  -9  -2    0.54    0.37   1
  -5   9   2    0.93    0.45   1
   5  -9  -1    0.21    0.38   1
  -5   9   1    0.49    0.45   1
   5  -9   0    1.71    0.28   1
  -5   9   0    3.37    0.33   1
   5  -9   1   -0.25    0.24   1
  -5   9  -1   -0.12    0.48   1
   5  -9   2    1.17    0.46   1
  -5   9  -2    1.00    0.32   1
   5  -9   3   -0.18    0.44   1
  -5   9  -3    0.21    0.52   1
  -5   8   8    0.29    0.30   1
  -5   8   8    0.08    0.20   1
  -5   8   7    0.19    0.25   1
  -5   8   7    0.39    0.23   1
  -5   8   6    0.72    0.30   1
  -5   8   6    1.79    0.37   1
   5  -8  -5    2.16    0.34   1
  -5   8   5    1.67    0.34   1
   5  -8  -4    1.18    0.32   1
  -5   8   4    1.45    0.36   1
   5  -8  -3    1.14    0.33   1
  -5   8   3    1.26    0.38   1
   5  -8  -2    3.27    0.71  -1
  -5  -4   8    3.27    0.71   2
  -5   8   2    1.58    0.80  -1
   5   4  -8    1.58    0.80   2
   5  -8  -1   -0.48    0.35   1
  -5   8   1    0.00    0.38   1
   5  -8   0    3.19    0.45   1
  -5   8   0    3.37    0.33   1
   5  -8   1    0.57    0.40   1
  -5   8  -1   -0.38    0.45   1
   5  -8   2    1.45    0.48   1
  -5   8  -2    2.33    0.33   1
   5  -8   3    0.58    0.46   1
  -5   8  -3    0.82    0.51   1
   5  -8   4    1.11    0.47   1
  -5   8  -4    1.13    0.53   1
   5  -8   5    4.97    1.20  -1
  -5  -6   2    4.97    1.20   2
  -5   8  -5    4.15    1.33  -1
   5   6  -2    4.15    1.33   2
  -5   7   8    1.25    0.21   1
  -5   7   8    1.88    0.25   1
  -5   7   7    0.42    0.28   1
  -5   7   7   -0.03    0.26   1
  -5   7   6    1.55    0.24   1
   5  -7  -5    1.31    0.26   1
  -5   7   5    1.46    0.29   1
   5  -7  -4    4.44    0.34   1
  -5   7   4    5.40    0.50   1
   5  -7  -3    2.65    0.32   1
  -5   7   3    2.97    0.38   1
   5  -7  -2    0.68    0.32   1
  -5   7   2    0.24    0.37   1
   5  -7  -1    4.45    0.42   1
  -5   7   1    4.54    0.47   1
   5  -7   0   -0.13    0.23   1
  -5   7   0    0.39    0.40   1
   5  -7   1    2.47    0.28   1
  -5   7  -1    2.42    0.31   1
   5  -7   2   -0.14    0.25   1
  -5   7  -2    0.39    0.45   1
   5  -7   3    0.20    0.43   1
  -5   7  -3    0.27    0.30   1
   5  -7   4    7.50    1.11  -1
  -5  -5   2    7.50    1.11   2
  -5   7  -4    6.87    1.48  -1
   5   5  -2    6.87    1.48   2
   5  -7   5    0.63    0.28   1
  -5   7  -5    0.75    0.32   1
   5  -7   6    2.16    0.49   1
  -5   7  -6    2.01    0.54   1
  -5   6   9    0.08    0.15   1
  -5   6   9   -0.12    0.13   1
  -5   6   8    0.16    0.14   1
  -5   6   8    0.08    0.18   1
  -5   6   7    2.12    0.25   1
  -5   6   7    2.37    0.19   1
   5  -6  -6    4.53    0.26   1
  -5   6   6    4.34    0.26   1
   5  -6  -5    4.18    0.26   1
  -5   6   5    4.17    0.29   1
   5  -6  -4    2.30    0.27   1
  -5   6   4    1.84    0.29   1
   5  -6  -3    3.22    0.73  -1
  -5  -2   7    3.22    0.73   2
  -5   6   3    4.82    0.62  -1
   5   2  -7    4.82    0.62   2
   5  -6  -2    0.23    0.30   1
  -5   6   2    0.49    0.33   1
   5  -6  -1    6.16    0.44   1
  -5   6   1    7.73    0.45   1
   5  -6   0    0.30    0.35   1
  -5   6   0    0.79    0.40   1
   5  -6   1    3.78    0.45   1
  -5   6  -1    4.58    0.49   1
   5  -6   2    3.09    0.46   1
  -5   6  -2    4.16    0.52   1
   5  -6   3    5.66    0.54   1
  -5   6  -3    6.11    0.56   1
   5  -6   4   12.84    1.26  -1
  -5  -4   1   12.84    1.26   2
  -5   6  -4   12.58    1.29  -1
   5   4  -1   12.58    1.29   2
   5  -6   5    4.25    0.50   1
  -5   6  -5    3.68    0.56   1
   5  -6   6    1.04    0.45   1
  -5   6  -6    1.76    0.31   1
   5  -6   7    4.40    0.53   1
  -5   6  -7    4.47    0.58   1
   5  -6   8    0.25    0.25   1
  -5   6  -8    0.75    0.28   1
  -5   5   8    0.42    0.11   1
  -5   5   8    0.55    0.10   1
  -5   5   7    2.34    0.18   1
  -5   5   7    2.16    0.16   1
   5  -5  -6    4.79    0.24   1
  -5   5   6    4.91    0.28   1
   5  -5  -5    8.05    0.28   1
  -5   5   5    8.72    0.37   1
   5  -5  -4   26.95    1.06  -1
  -5  -1   7   26.95    1.06   2
  -5   5   4   26.30    1.12  -1
   5   1  -7   26.30    1.12   2
   5  -5  -3   -0.17    0.24   1
  -5   5   3    0.54    0.34   1
   5  -5  -2    8.10    0.40   1
  -5   5   2    7.89    0.41   1
   5  -5  -1    0.64    0.32   1
  -5   5   1    0.48    0.32   1
   5  -5   0    5.48    0.44   1
  -5   5   0    5.72    0.43   1
   5  -5   1    0.99    0.37   1
  -5   5  -1    1.75    0.41   1
   5  -5   2    1.78    0.42   1
  -5   5  -2    2.27    0.44   1
   5  -5   3   15.53    1.20  -1
  -5  -3   1   15.53    1.20   2
  -5   5  -3   19.51    1.46  -1
   5   3  -1   19.51    1.46   2
   5  -5   4    2.29    0.46   1
  -5   5  -4    1.75    0.47   1
   5  -5   5    4.46    0.50   1
  -5   5  -5    4.99    0.55   1
   5  -5   6    6.73    0.38   1
  -5   5  -6    7.47    0.41   1
   5  -5   7    3.52    0.30   1
  -5   5  -7    2.61    0.52   1
   5  -5   8   -0.08    0.42   1
  -5   5  -8    0.96    0.47   1
   5  -5   9    0.06    0.37   1
  -5   5  -9    0.26    0.42   1
  -5   4   7    6.03    0.11   1
  -5   4   7    6.23    0.11   1
   5  -4  -6    8.04    0.23   1
  -5   4   6    8.39    0.24   1
   5  -4  -5    3.42    0.24   1
  -5   4   5    3.33    0.24   1
   5  -4  -4    7.84    0.59  -1
  -5   0   6    7.84    0.59   2
  -5   4   4    8.00    0.60  -1
   5   0  -6    8.00    0.60   2
   5  -4  -3    0.10    0.23   1
  -5   4   3    0.03    0.23   1
   5  -4  -2    9.67    0.40   1
  -5   4   2   10.01    0.41   1
   5  -4  -1    0.56    0.31   1
  -5   4   1    0.22    0.31   1
   5  -4   0    8.78    0.46   1
  -5   4   0    8.67    0.33   1
   5  -4   1    8.07    0.49   1
  -5   4  -1    8.34    0.35   1
   5  -4   2   14.62    0.63   1
  -5   4  -2   15.77    0.67   1
   5  -4   3   22.94    1.19  -1
  -5  -2   0   22.94    1.19   2
  -5   4  -3   27.50    1.45  -1
   5   2   0   27.50    1.45   2
   5  -4   4    9.36    0.58   1
  -5   4  -4   10.00    0.63   1
   5  -4   5    1.03    0.44   1
  -5   4  -5    1.76    0.50   1
   5  -4   6   15.36    0.68   1
  -5   4  -6   16.50    0.56   1
   5  -4   7    0.54    0.38   1
  -5   4  -7    0.21    0.47   1
   5  -4   8    0.89    0.40   1
  -5   4  -8    0.26    0.44   1
   5  -4   9    8.04    1.01  -1
  -5  -4  -5    8.04    1.01   2
  -5   4  -9   11.30    1.15  -1
   5   4   5   11.30    1.15   2
   5  -3  -6    9.44    0.20   1
  -5   3   6    8.88    0.17   1
  -5   3   5   13.90    0.35   1
   5  -3  -5   42.77    1.13  -1
  -5   1   6   42.77    1.13   2
   5  -3  -4    0.79    0.52  -1
  -5   1   5    0.79    0.52   2
  -5   3   4    0.57    0.57  -1
   5  -1  -5    0.57    0.57   2
   5  -3  -3    7.94    0.29   1
  -5   3   3    8.05    0.40   1
   5  -3  -2    0.51    0.26   1
  -5   3   2   -0.09    0.37   1
   5  -3  -1    8.59    0.42   1
  -5   3   1    9.41    0.42   1
   5  -3   0    2.89    0.38   1
  -5   3   0    3.88    0.36   1
   5  -3   1    2.56    0.39   1
  -5   3  -1    3.42    0.41   1
   5  -3   2   30.30    1.26  -1
  -5  -1   0   30.30    1.26   2
  -5   3  -2   28.96    1.27  -1
   5   1   0   28.96    1.27   2
   5  -3   3    4.08    0.46   1
  -5   3  -3   11.60    1.22  -1
   5   1   1   11.60    1.22   2
   5  -3   4    5.80    0.52   1
  -5   3  -4    7.79    0.54   1
   5  -3   5   16.48    0.70   1
  -5   3  -5   17.55    0.72   1
   5  -3   6    7.84    0.53   1
  -5   3  -6    8.87    0.57   1
   5  -3   7    1.75    0.41   1
  -5   3  -7    2.01    0.47   1
   5  -3   8    0.29    0.22   1
  -5   3  -8    0.40    0.24   1
   5  -3   9    0.67    0.70  -1
  -5  -3  -6    0.67    0.70   2
  -5   3  -9    1.34    0.44  -1
   5   3   6    1.34    0.44   2
   5  -3  10   -0.08    0.49  -1
  -5  -3  -7   -0.08    0.49   2
  -5   3 -10   -0.03    0.96  -1
   5   3   7   -0.03    0.96   2
   5  -2  -6    4.71    0.18   1
  -5   2   6    4.62    0.16   1
   5  -2  -5    8.87    0.41  -1
  -5   2   5    8.87    0.41   2
  -5   2   5    9.04    0.45  -1
   5  -2  -5    9.04    0.45   2
  -5   2   4    0.15    0.16   1
   5  -2  -3    8.24    0.33   1
  -5   2   3    9.24    0.39   1
   5  -2  -2    0.18    0.27   1
  -5   2   2    0.04    0.25   1
   5  -2  -1   12.45    0.47   1
  -5   2   1   13.65    0.47   1
   5  -2   0   17.08    0.58   1
  -5   2   0   15.84    0.40   1
   5  -2   1   55.83    2.14  -1
  -5   0   0   55.83    2.14   2
  -5   2  -1   59.10    2.23  -1
   5   0   0   59.10    2.23   2
   5  -2   2   41.16    1.51  -1
  -5   0  -1   41.16    1.51   2
  -5   2  -2   43.58    1.55  -1
   5   0   1   43.58    1.55   2
   5  -2   3   16.12    0.48   1
  -5   2  -3   61.89    2.56  -1
   5   0   2   61.89    2.56   2
   5  -2   4    1.38    0.41   1
  -5   2  -4    1.42    0.46   1
   5  -2   5   36.64    1.04   1
  -5   2  -5   37.49    1.10   1
   5  -2   6    1.03    0.24   1
  -5   2  -6    0.38    0.27   1
   5  -2   7   -0.01    0.37   1
  -5   2  -7    0.10    0.24   1
   5  -2   8   15.45    1.25  -1
  -5  -2  -6   15.45    1.25   2
  -5   2  -8   16.78    1.40  -1
   5   2   6   16.78    1.40   2
   5  -2   9    8.18    0.48  -1
  -5  -2  -7    8.18    0.48   2
  -5   2  -9   11.80    0.94  -1
   5   2   7   11.80    0.94   2
  -5   2 -10    1.66    0.39   1
   5  -2  10    7.83    0.95  -1
  -5  -2  -8    7.83    0.95   2
   5  -1 -12    5.47    0.13   1
   5  -1 -12    5.66    0.12   1
   5  -1 -11    5.05    0.11   1
   5  -1 -11    4.92    0.11   1
   5  -1 -10    0.12    0.06   1
   5  -1  -9    1.10    0.08   1
   5  -1  -9    1.21    0.09   1
   5  -1  -8   19.09    0.35   1
   5  -1  -7    6.15    0.21   1
   5  -1  -7    6.45    0.22   1
   5  -1  -6   41.22    1.10  -1
  -5   3   5   41.22    1.10   2
  -5   1   6   40.72    1.17  -1
   5  -3  -5   40.72    1.17   2
   5  -1  -5   -0.20    0.60  -1
  -5   3   4   -0.20    0.60   2
  -5   1   5   -0.13    0.44  -1
   5  -3  -4   -0.13    0.44   2
   5  -1  -4    3.33    0.25   1
  -5   1   4    2.91    0.24   1
   5  -1  -3    0.62    0.24   1
  -5   1   3    0.99    0.34   1
   5  -1  -2    7.33    0.37   1
  -5   1   2    8.05    0.38   1
   5  -1  -1    5.58    0.37   1
  -5   1   1    6.57    0.39   1
   5  -1   0    2.67    0.36   1
  -5   1   0    2.08    0.22   1
   5  -1   1   35.44    1.25  -1
  -5   1  -1   35.44    1.25   2
  -5   1  -1   38.28    1.38  -1
   5  -1   1   38.28    1.38   2
  -5   1  -2    8.36    0.50   1
   5  -1   2   14.61    1.11  -1
  -5   1  -2   14.61    1.11   2
   5  -1   3    9.28    0.50   1
  -5   1  -3    8.90    0.54   1
   5  -1   4   23.45    0.78   1
  -5   1  -4   25.39    0.81   1
   5  -1   5   10.90    0.57   1
  -5   1  -5   11.01    0.39   1
   5  -1   6    3.50    0.43   1
  -5   1  -6    4.43    0.43   1
   5  -1   7    0.38    0.95  -1
  -5  -1  -6    0.38    0.95   2
  -5   1  -7    1.21    0.96  -1
   5   1   6    1.21    0.96   2
   5  -1   8    0.88    0.59  -1
  -5  -1  -7    0.88    0.59   2
  -5   1  -8    1.12    0.63  -1
   5   1   7    1.12    0.63   2
   5  -1   9   -0.71    0.46  -1
  -5  -1  -8   -0.71    0.46   2
  -5   1  -9    0.32    0.57  -1
   5   1   8    0.32    0.57   2
   5  -1  10    0.89    0.38   1
  -5   1 -10    2.69    1.02  -1
   5   1   9    2.69    1.02   2
   5   0 -13   -0.55    0.34  -1
  -5   6  10   -0.55    0.34   2
   5   0 -13    0.06    0.16  -1
  -5   6  10    0.06    0.16   2
   5   0 -12    0.70    0.19   1
   5   0 -12   -0.15    0.15   1
   5   0 -11    0.02    0.19   1
   5   0 -11   -0.04    0.17   1
   5   0 -10    2.54    0.22   1
   5   0 -10    2.48    0.21   1
   5   0  -9    6.27    0.28   1
   5   0  -9    5.43    0.21   1
   5   0  -8   11.78    0.36   1
   5   0  -8   10.64    0.35   1
   5   0  -7    3.51    0.28   1
   5   0  -7    3.60    0.29   1
   5   0  -6    6.65    0.46  -1
  -5   4   4    6.65    0.46   2
   5   0  -5    0.50    0.21   1
  -5   0   5    0.39    0.21   1
   5   0  -4    3.26    0.29   1
  -5   0   4    3.56    0.29   1
   5   0  -3   -0.08    0.28   1
  -5   0   3    0.60    0.25   1
   5   0  -2   12.17    0.47   1
  -5   0   2   12.21    0.45   1
   5   0  -1   18.48    0.59   1
  -5   0   1   18.98    0.48   1
  -5   0   0   26.96    0.78   1
   5   0   0   56.62    2.14  -1
  -5   2  -1   56.62    2.14   2
   5   0   1   39.25    1.07  -1
  -5   2  -2   39.25    1.07   2
  -5   0  -1   41.95    1.48  -1
   5  -2   2   41.95    1.48   2
   5   0   2   59.22    2.58  -1
  -5   2  -3   59.22    2.58   2
  -5   0  -2   62.35    2.56  -1
   5  -2   3   62.35    2.56   2
   5   0   3    0.17    0.39   1
  -5   0  -3    0.78    0.25   1
   5   0   4   46.84    1.22   1
  -5   0  -4   48.65    1.30   1
   5   0   5    1.08    0.24   1
  -5   0  -5    1.32    0.40   1
   5   0   6    0.82    0.36   1
  -5   0  -6    0.34    0.41   1
   5   0   7   17.35    0.93  -1
  -5   0  -7   17.35    0.93   2
  -5   0  -7   20.47    1.33  -1
   5   0   7   20.47    1.33   2
   5   0   8    9.14    0.68  -1
  -5   0  -8    9.14    0.68   2
  -5   0  -8   10.73    0.52  -1
   5   0   8   10.73    0.52   2
  -5   0  -9    3.36    0.26   1
   5   0   9    7.90    0.96  -1
  -5   0  -9    7.90    0.96   2
   5   0  10    4.18    0.32   1
  -5   0 -10    5.41    0.51   1
   5   1 -13    3.00    0.31   1
   5   1 -13    3.27    0.21   1
   5   1 -12    4.60    0.28   1
   5   1 -12    3.89    0.23   1
   5   1 -11   -0.06    0.27   1
   5   1 -11    0.34    0.18   1
   5   1 -10    0.41    0.27   1
   5   1 -10   -0.06    0.26   1
   5   1  -9   16.20    0.55   1
   5   1  -9   14.81    0.42   1
   5   1  -8    3.67    0.36   1
   5   1  -8    3.01    0.32   1
   5   1  -7   27.04    1.28  -1
  -5   5   4   27.04    1.28   2
   5   1  -7   26.98    1.32  -1
  -5   5   4   26.98    1.32   2
   5   1  -6    0.83    0.30   1
   5   1  -6    0.44    0.25   1
   5   1  -5    0.39    0.28   1
  -5  -1   5    0.37    0.28   1
  -5  -1   4    0.08    0.29   1
   5   1  -3    4.55    0.34   1
  -5  -1   3    5.08    0.37   1
   5   1  -2    5.47    0.40   1
  -5  -1   2    4.58    0.42   1
   5   1  -1   -0.07    0.21   1
  -5  -1   1    0.53    0.37   1
   5   1   0   28.03    1.29  -1
  -5   3  -2   28.03    1.29   2
  -5  -1   0   32.32    1.35  -1
   5  -3   2   32.32    1.35   2
   5   1   1    9.05    0.95  -1
  -5   3  -3    9.05    0.95   2
  -5  -1  -1   11.27    1.25  -1
   5  -3   3   11.27    1.25   2
   5   1   2    3.94    0.28   1
  -5  -1  -2    4.60    0.47   1
   5   1   3   17.32    0.51   1
  -5  -1  -3   18.93    0.74   1
   5   1   4    9.43    0.55   1
  -5  -1  -4    9.46    0.37   1
   5   1   5    3.65    0.44   1
  -5  -1  -5    3.48    0.40   1
   5   1   6    0.44    0.37   1
  -5  -1  -6    0.05    0.20   1
   5   1   7    0.42    0.62  -1
  -5   1  -8    0.42    0.62   2
  -5  -1  -7   -0.43    0.58  -1
   5  -1   8   -0.43    0.58   2
   5   1   8    0.18    0.63  -1
  -5   1  -9    0.18    0.63   2
  -5  -1  -8   -0.21    0.53  -1
   5  -1   9   -0.21    0.53   2
   5   1   9    0.55    0.38   1
  -5  -1  -9    1.04    0.23   1
   5   2 -13   -0.32    0.24   1
   5   2 -13   -0.23    0.29   1
   5   2 -12    0.35    0.36   1
   5   2 -12   -0.11    0.22   1
   5   2 -11    1.35    0.27   1
   5   2 -11    1.09    0.24   1
   5   2 -10    4.08    0.33   1
   5   2 -10    3.05    0.28   1
   5   2  -9    7.42    0.40   1
   5   2  -9    7.11    0.45   1
   5   2  -8    2.39    0.31   1
   5   2  -8    2.30    0.30   1
   5   2  -7    3.93    0.62  -1
  -5   6   3    3.93    0.62   2
   5   2  -7    3.87    0.60  -1
  -5   6   3    3.87    0.60   2
   5   2  -6   -0.42    0.31   1
   5   2  -6    0.49    0.30   1
   5   2  -5    1.43    0.31   1
  -5  -2   5    0.92    0.35   1
   5   2  -4    0.69    0.32   1
  -5  -2   4    0.42    0.34   1
   5   2  -3    8.00    0.46   1
  -5  -2   3    7.88    0.31   1
  -5  -2   2   14.04    0.61   1
   5   2  -1    4.01    0.43   1
  -5  -2   1    5.68    0.49   1
   5   2   0   28.27    1.32  -1
  -5   4  -3   28.27    1.32   2
  -5  -2   0   26.58    1.43  -1
   5  -4   3   26.58    1.43   2
   5   2   1   12.47    0.62   1
  -5  -2  -1   13.46    0.64   1
   5   2   2    1.09    0.45   1
  -5  -2  -2    0.39    0.41   1
   5   2   3   31.83    0.98   1
  -5  -2  -3   30.25    0.97   1
   5   2   4    0.60    0.40   1
  -5  -2  -4    1.22    0.42   1
   5   2   5   -0.03    0.36   1
  -5  -2  -5    0.23    0.24   1
   5   2   6   15.39    1.04  -1
  -5   2  -8   15.39    1.04   2
  -5  -2  -6   16.57    1.37  -1
   5  -2   8   16.57    1.37   2
   5   2   7    9.76    0.58  -1
  -5   2  -9    9.76    0.58   2
  -5  -2  -7    7.03    0.42  -1
   5  -2   9    7.03    0.42   2
   5   2   8    2.84    0.28   1
  -5  -2  -8    7.99    1.17  -1
   5  -2  10    7.99    1.17   2
   5   3 -13    2.14    0.35   1
   5   3 -13    0.93    0.28   1
   5   3 -12    0.31    0.33   1
   5   3 -12    0.46    0.27   1
   5   3 -11   -0.44    0.33   1
   5   3 -11   -0.01    0.28   1
   5   3 -10    9.51    0.52   1
   5   3 -10    8.26    0.43   1
   5   3  -9    1.92    0.36   1
   5   3  -9    1.16    0.32   1
   5   3  -8    4.71    0.45   1
   5   3  -8   12.04    1.07  -1
  -5   7   3   12.04    1.07   2
   5   3  -7    0.29    0.35   1
   5   3  -7   -0.35    0.31   1
   5   3  -6    0.18    0.36   1
   5   3  -6    0.18    0.32   1
   5   3  -5    0.07    0.25   1
   5   3  -5   -0.29    0.36   1
   5   3  -4    2.53    0.39   1
  -5  -3   4    2.56    0.43   1
   5   3  -3    2.81    0.41   1
  -5  -3   3    3.22    0.45   1
   5   3  -2    0.49    0.41   1
  -5  -3   2    0.10    0.41   1
   5   3  -1   15.47    1.15  -1
  -5   5  -3   15.47    1.15   2
  -5  -3   1   17.29    1.17  -1
   5  -5   3   17.29    1.17   2
   5   3   0    3.35    0.30   1
  -5  -3   0    3.34    0.49   1
   5   3   1    2.50    0.25   1
  -5  -3  -1    1.60    0.45   1
   5   3   2    8.90    0.39   1
  -5  -3  -2    9.62    0.62   1
   5   3   3    5.84    0.34   1
  -5  -3  -3    5.43    0.49   1
   5   3   4    2.92    0.47   1
  -5  -3  -4    2.85    0.28   1
   5   3   5    0.44    0.37   1
  -5  -3  -5    0.00    0.38   1
   5   3   6    0.45    0.63  -1
  -5   3  -9    0.45    0.63   2
  -5  -3  -6    0.92    0.65  -1
   5  -3   9    0.92    0.65   2
  -5  -3  -7   -0.02    0.20   1
   5   3   7    2.22    1.02  -1
  -5   3 -10    2.22    1.02   2
   5   4 -12   -0.06    0.40   1
   5   4 -12    0.27    0.30   1
   5   4 -11    0.82    0.40   1
   5   4 -11    0.58    0.33   1
   5   4 -10    3.55    0.42   1
   5   4 -10    2.17    0.36   1
   5   4  -9    1.27    0.42   1
   5   4  -9    1.31    0.35   1
   5   4  -8    3.50    0.91  -1
  -5   8   2    3.50    0.91   2
   5   4  -8    3.49    0.71  -1
  -5   8   2    3.49    0.71   2
   5   4  -7    0.64    0.40   1
   5   4  -7   -0.15    0.36   1
   5   4  -6    0.42    0.38   1
   5   4  -6    0.88    0.38   1
   5   4  -5    0.58    0.27   1
   5   4  -5    0.39    0.38   1
   5   4  -4    3.17    0.35   1
   5   4  -4    3.87    0.47   1
   5   4  -3    5.89    0.49   1
  -5  -4   3    6.64    0.54   1
   5   4  -2    0.62    0.43   1
  -5  -4   2    1.45    0.46   1
   5   4  -1   13.09    1.26  -1
  -5   6  -4   13.09    1.26   2
  -5  -4   1   12.47    1.27  -1
   5  -6   4   12.47    1.27   2
   5   4   0    5.37    0.54   1
   5   4   1    0.65    0.39   1
  -5  -4  -1   -0.19    0.42   1
   5   4   2   12.11    0.58   1
  -5  -4  -2   14.46    0.69   1
   5   4   3    0.36    0.38   1
  -5  -4  -3    1.05    0.45   1
   5   4   4    1.28    0.39   1
  -5  -4  -4    0.29    0.26   1
   5   4   5    3.61    0.41   1
  -5  -4  -5    8.62    1.30  -1
   5  -4   9    8.62    1.30   2
   5   5 -11    3.52    0.51   1
   5   5 -11    2.40    0.39   1
   5   5 -10    0.98    0.46   1
   5   5 -10   -0.17    0.35   1
   5   5  -9    1.89    0.50   1
   5   5  -9    1.87    0.39   1
   5   5  -8    0.73    0.47   1
   5   5  -8    0.18    0.39   1
   5   5  -7    0.42    0.46   1
   5   5  -7    0.17    0.40   1
   5   5  -6   -0.57    0.45   1
   5   5  -6   -0.03    0.39   1
   5   5  -5    0.45    0.31   1
   5   5  -5    0.82    0.26   1
   5   5  -4    1.61    0.52   1
   5   5  -4    1.52    0.27   1
   5   5  -3    0.33    0.34   1
   5   5  -3    0.68    0.24   1
   5   5  -2    6.21    1.00  -1
  -5   7  -4    6.21    1.00   2
  -5  -5   2    5.55    1.14  -1
   5  -7   4    5.55    1.14   2
   5   5  -1    1.45    0.45   1
  -5  -5   1    1.56    0.48   1
   5   5   0    0.83    0.46   1
  -5  -5   0    0.82    0.30   1
   5   5   1    3.18    0.47   1
  -5  -5  -1    2.74    0.53   1
  -5  -5  -2    2.14    0.50   1
   5   5   3    1.33    0.41   1
  -5  -5  -3    1.80    0.45   1
   5   6  -8   -0.33    0.48   1
   5   6  -8   -0.21    0.40   1
   5   6  -7    0.25    0.50   1
   5   6  -7    0.51    0.40   1
   5   6  -6    0.22    0.30   1
   5   6  -6    0.45    0.27   1
   5   6  -5    1.09    0.55   1
   5   6  -5    1.22    0.46   1
   5   6  -4    0.95    0.53   1
   5   6  -4    1.53    0.46   1
   5   6  -3   -0.14    0.54   1
   5   6  -3   -0.65    0.44   1
   6  -9  -4    0.17    0.27   1
  -6   9   4    0.61    0.34   1
   6  -9  -3    0.83    0.30   1
  -6   9   3    1.06    0.38   1
   6  -9  -2    0.03    0.33   1
  -6   9   2   -0.14    0.39   1
   6  -9  -1    0.43    0.34   1
  -6   9   1   -0.16    0.39   1
   6  -9   0    1.55    0.74  -1
  -6  -5   7    1.55    0.74   2
  -6   9   0    1.17    0.84  -1
   6   5  -7    1.17    0.84   2
   6  -9   1    0.82    0.42   1
  -6   9  -1    0.86    0.49   1
   6  -9   2    0.34    0.45   1
  -6   9  -2    1.50    0.51   1
   6  -8  -6    0.42    0.24   1
  -6   8   6    0.77    0.33   1
   6  -8  -5    3.96    0.31   1
  -6   8   5    3.58    0.35   1
   6  -8  -4    0.36    0.26   1
  -6   8   4    0.24    0.31   1
   6  -8  -3    0.06    0.29   1
  -6   8   3    0.58    0.35   1
   6  -8  -2    0.21    0.32   1
  -6   8   2    0.21    0.38   1
   6  -8  -1   -0.88    0.36   1
  -6   8   1    0.19    0.38   1
   6  -8   0   -0.02    0.37   1
  -6   8   0    0.69    0.44   1
   6  -8   1    1.42    0.42   1
  -6   8  -1    1.86    0.48   1
   6  -8   2    1.56    0.45   1
  -6   8  -2    0.48    0.31   1
   6  -8   3    0.45    0.26   1
  -6   8  -3   -0.28    0.48   1
   6  -8   4    1.56    0.49   1
  -6   8  -4    1.85    0.56   1
  -6   7   7    0.56    0.19   1
  -6   7   7    0.42    0.17   1
   6  -7  -6    5.13    0.27   1
  -6   7   6    5.38    0.30   1
   6  -7  -5    0.39    0.21   1
  -6   7   5    0.72    0.25   1
   6  -7  -4    2.52    0.27   1
  -6   7   4    2.64    0.33   1
   6  -7  -3    0.29    0.29   1
  -6   7   3   -0.47    0.31   1
   6  -7  -2    0.64    0.31   1
  -6   7   2    0.57    0.35   1
   6  -7  -1    2.28    0.65  -1
  -6  -3   6    2.28    0.65   2
  -6   7   1    1.81    0.68  -1
   6   3  -6    1.81    0.68   2
   6  -7   0    0.72    0.23   1
  -6   7   0    0.57    0.42   1
   6  -7   1    1.47    0.28   1
  -6   7  -1    2.25    0.30   1
   6  -7   2    0.99    0.43   1
  -6   7  -2    2.99    0.50   1
   6  -7   3    2.20    0.50   1
  -6   7  -3    2.84    0.53   1
   6  -7   4    0.60    0.28   1
  -6   7  -4    1.22    0.51   1
   6  -7   5    1.36    0.48   1
  -6   7  -5    0.86    0.52   1
  -6   6   8    0.40    0.14   1
  -6   6   8    0.25    0.12   1
   6  -6  -7    0.25    0.14   1
  -6   6   7    0.23    0.14   1
   6  -6  -6    7.26    0.27   1
  -6   6   6    7.61    0.37   1
   6  -6  -5   -0.01    0.19   1
  -6   6   5   -0.30    0.21   1
   6  -6  -4    1.73    0.34   1
  -6   6   4    2.24    0.28   1
   6  -6  -3    0.98    0.27   1
  -6   6   3    1.17    0.29   1
   6  -6  -2    7.38    0.94  -1
  -6  -2   6    7.38    0.94   2
  -6   6   2    6.27    1.00  -1
   6   2  -6    6.27    1.00   2
   6  -6  -1    2.19    0.38   1
  -6   6   1    5.91    1.13  -1
   6   2  -5    5.91    1.13   2
   6  -6   0    3.92    0.44   1
  -6   6   0    4.97    0.48   1
   6  -6   1    1.60    0.43   1
  -6   6  -1    1.95    0.28   1
   6  -6   2    0.66    0.42   1
  -6   6  -2    1.10    0.46   1
   6  -6   3    3.12    0.49   1
  -6   6  -3    3.80    0.54   1
   6  -6   4    0.53    0.46   1
  -6   6  -4    2.18    0.54   1
   6  -6   5    1.86    1.13  -1
  -6  -4   0    1.86    1.13   2
  -6   6  -5    1.68    1.37  -1
   6   4   0    1.68    1.37   2
   6  -6   6    2.58    0.50   1
  -6   6  -6    2.62    0.54   1
   6  -5  -7    8.36    0.23   1
  -6   5   7    9.10    0.25   1
   6  -5  -6   -0.07    0.18   1
  -6   5   6   -0.00    0.19   1
   6  -5  -5    6.04    0.32   1
  -6   5   5    5.48    0.34   1
   6  -5  -4    0.16    0.21   1
  -6   5   4    0.32    0.22   1
   6  -5  -3    1.89    0.28   1
  -6   5   3    1.69    0.29   1
   6  -5  -2    1.77    0.53  -1
  -6  -1   5    1.77    0.53   2
  -6   5   2    1.71    0.55  -1
   6   1  -5    1.71    0.55   2
   6  -5  -1    1.58    0.32   1
  -6   5   1    0.77    0.36   1
   6  -5   0    4.27    0.40   1
  -6   5   0    4.73    0.46   1
   6  -5   1    5.96    0.47   1
  -6   5  -1    7.46    0.54   1
   6  -5   2    5.73    0.50   1
  -6   5  -2    5.83    0.55   1
  -6   5  -3    1.80    0.48   1
   6  -5   4   -0.36    0.44   1
  -6   5  -4    1.20    0.50   1
   6  -5   5    2.57    0.56  -1
  -6  -3  -1    2.57    0.56   2
  -6   5  -5    2.52    0.63  -1
   6   3   1    2.52    0.63   2
   6  -5   6    2.66    0.47   1
  -6   5  -6    2.57    0.58   1
   6  -5   7    0.35    0.46   1
  -6   5  -7    1.30    0.51   1
   6  -4  -7   11.25    0.20   1
  -6   4   7   11.33    0.20   1
   6  -4  -6   -0.17    0.16   1
  -6   4   6    0.05    0.15   1
   6  -4  -5    2.92    0.27   1
  -6   4   5    2.73    0.25   1
   6  -4  -4    2.44    0.32   1
  -6   4   4    2.52    0.32   1
   6  -4  -3   19.24    0.88  -1
  -6   0   5   19.24    0.88   2
  -6   4   3   22.81    1.12  -1
   6   0  -5   22.81    1.12   2
   6  -4  -2   15.64    1.04  -1
  -6   0   4   15.64    1.04   2
  -6   4   2   16.01    0.99  -1
   6   0  -4   16.01    0.99   2
   6  -4  -1    8.02    0.43   1
  -6   4   1    8.38    0.42   1
   6  -4   0    3.01    0.38   1
  -6   4   0    3.31    0.41   1
   6  -4   1    4.49    0.46   1
  -6   4  -1    5.71    0.48   1
   6  -4   2    4.90    0.49   1
  -6   4  -2    5.37    0.53   1
   6  -4   3    3.62    0.49   1
  -6   4  -3    3.98    0.32   1
   6  -4   4    2.43    0.89  -1
  -6  -2  -1    2.43    0.89   2
  -6   4  -4    0.66    0.90  -1
   6   2   1    0.66    0.90   2
   6  -4   5    6.83    1.12  -1
  -6  -2  -2    6.83    1.12   2
  -6   4  -5    9.29    1.46  -1
   6   2   2    9.29    1.46   2
   6  -4   6   -0.24    0.45   1
  -6   4  -6   -0.10    0.47   1
   6  -4   7    0.39    0.44   1
  -6   4  -7    0.56    0.50   1
   6  -4   8    3.06    0.48   1
  -6   4  -8    3.04    0.56   1
   6  -3  -7   -0.06    0.09   1
  -6   3   7    0.19    0.07   1
   6  -3  -6    7.66    0.25   1
  -6   3   6    7.67    0.22   1
   6  -3  -5    0.84    0.17   1
  -6   3   5    0.65    0.20   1
  -6   3   4    2.66    0.24   1
   6  -3  -4    6.71    0.75  -1
  -6   1   5    6.71    0.75   2
   6  -3  -3    2.85    0.58  -1
  -6   1   4    2.85    0.58   2
  -6   3   3    2.05    0.42  -1
   6  -1  -4    2.05    0.42   2
  -6   3   2    0.68    0.28   1
   6  -3  -2    3.19    0.72  -1
  -6   1   3    3.19    0.72   2
   6  -3  -1    7.28    0.42   1
  -6   3   1    7.70    0.43   1
   6  -3   0   12.18    0.52   1
  -6   3   0   13.51    0.55   1
   6  -3   1    9.59    0.50   1
  -6   3  -1   11.80    0.58   1
   6  -3   2    4.05    0.43   1
  -6   3  -2    3.40    0.32   1
  -6   3  -3    1.24    0.46   1
   6  -3   3    0.82    1.07  -1
  -6  -1  -1    0.82    1.07   2
   6  -3   4    3.11    0.78  -1
  -6  -1  -2    3.11    0.78   2
  -6   3  -4    3.77    0.89  -1
   6   1   2    3.77    0.89   2
   6  -3   5    4.21    0.50   1
  -6   3  -5    8.66    1.55  -1
   6   1   3    8.66    1.55   2
   6  -3   6    1.06    0.27   1
  -6   3  -6    1.70    0.50   1
   6  -3   7    0.07    0.26   1
  -6   3  -7    0.30    0.50   1
   6  -3   8    2.23    0.47   1
  -6   3  -8    2.23    0.53   1
   6  -2  -8   11.32    0.20   1
   6  -2  -8   11.45    0.19   1
   6  -2  -7    0.01    0.15   1
  -6   2   7    0.24    0.12   1
   6  -2  -6    3.55    0.23   1
  -6   2   6    3.49    0.22   1
   6  -2  -5    4.95    0.25   1
  -6   2   5    5.77    0.29   1
   6  -2  -4   31.95    1.20  -1
  -6   2   4   31.95    1.20   2
  -6   2   4   31.75    1.23  -1
   6  -2  -4   31.75    1.23   2
   6  -2  -3   21.16    0.91  -1
  -6   2   3   21.16    0.91   2
  -6   2   3   20.84    0.92  -1
   6  -2  -3   20.84    0.92   2
   6  -2  -2   12.23    0.48   1
  -6   2   2   12.64    0.46   1
   6  -2  -1    2.82    0.36   1
  -6   2   1    2.78    0.38   1
   6  -2   0   15.82    0.62   1
  -6   2   0   16.38    0.61   1
   6  -2   1    4.66    0.28   1
  -6   2  -1    5.08    0.44   1
   6  -2   2    4.78    0.49   1
  -6   2  -2    5.36    0.32   1
  -6   2  -3    1.50    0.43   1
   6  -2   3    1.85    0.73  -1
  -6   0  -2    1.85    0.73   2
   6  -2   4    8.38    1.02  -1
  -6   0  -3    8.38    1.02   2
  -6   2  -4    7.62    1.04  -1
   6   0   3    7.62    1.04   2
   6  -2   5    0.25    0.26   1
  -6   2  -5   -0.37    0.28   1
   6  -2   6    1.76    0.46   1
  -6   2  -6    1.69    0.31   1
   6  -2   7    6.03    0.52   1
  -6   2  -7    7.74    0.59   1
   6  -2   8    3.84    0.32   1
  -6   2  -8    4.24    0.52   1
   6  -1 -11    0.37    0.07   1
   6  -1 -10    0.33    0.08   1
   6  -1 -10    0.31    0.10   1
   6  -1  -9    8.83    0.20   1
   6  -1  -9    8.81    0.25   1
   6  -1  -8    0.27    0.15   1
   6  -1  -8    0.04    0.17   1
   6  -1  -7    5.51    0.28   1
   6  -1  -6    1.50    0.20   1
  -6   1   6    1.53    0.26   1
   6  -1  -5    2.18    0.31   1
  -6   1   5    1.83    0.22   1
   6  -1  -4    1.89    0.44  -1
  -6   3   3    1.89    0.44   2
  -6   1   4    2.04    0.44  -1
   6  -3  -3    2.04    0.44   2
   6  -1  -3    0.75    0.28   1
  -6   1   3    2.06    0.67  -1
   6  -3  -2    2.06    0.67   2
   6  -1  -2    6.04    0.39   1
  -6   1   2    6.70    0.41   1
   6  -1  -1   17.64    0.59   1
  -6   1   1   18.55    0.62   1
   6  -1   0   11.33    0.53   1
  -6   1   0   12.57    0.51   1
   6  -1   1    5.56    0.44   1
  -6   1  -1    5.94    0.47   1
  -6   1  -2    0.74    0.41   1
   6  -1   2    0.81    0.66  -1
  -6   1  -2    0.81    0.66   2
   6  -1   3    3.39    0.72  -1
  -6   1  -3    3.39    0.72   2
  -6   1  -3    4.21    0.82  -1
   6  -1   3    4.21    0.82   2
   6  -1   4    9.96    0.89  -1
  -6   1  -4    9.96    0.89   2
  -6   1  -4    9.39    1.22  -1
   6  -1   4    9.39    1.22   2
   6  -1   5    2.85    0.48   1
  -6   1  -5    1.96    0.51   1
   6  -1   6    1.68    0.28   1
  -6   1  -6    2.19    0.47   1
   6  -1   7    5.26    0.50   1
  -6   1  -7    4.60    0.34   1
   6  -1   8    4.14    0.33   1
  -6   1  -8    4.28    0.33   1
   6   0 -11    0.23    0.18   1
   6   0 -11   -0.07    0.17   1
   6   0 -10   -0.03    0.20   1
   6   0 -10   -0.01    0.19   1
   6   0  -9    6.69    0.31   1
   6   0  -9    7.19    0.31   1
   6   0  -8   -0.08    0.16   1
   6   0  -8    0.12    0.17   1
   6   0  -7    2.47    0.25   1
   6   0  -7    2.28    0.22   1
   6   0  -6    5.67    0.30   1
  -6   0   6    5.62    0.30   1
   6   0  -5   19.96    1.04  -1
  -6   4   3   19.96    1.04   2
  -6   0   5   21.39    1.00  -1
   6  -4  -3   21.39    1.00   2
   6   0  -4   14.05    1.13  -1
  -6   4   2   14.05    1.13   2
  -6   0   4   16.88    1.00  -1
   6  -4  -2   16.88    1.00   2
   6   0  -3    8.41    0.41   1
  -6   0   3    9.10    0.44   1
   6   0  -2    0.69    0.33   1
  -6   0   2    1.11    0.35   1
   6   0  -1   20.90    0.68   1
  -6   0   1   20.90    0.69   1
   6   0   0    3.62    0.27   1
  -6   0   0    4.01    0.44   1
   6   0   1    4.37    0.46   1
   6   0   2    0.18    0.76  -1
  -6   2  -3    0.18    0.76   2
  -6   0  -2    2.93    0.77  -1
   6  -2   3    2.93    0.77   2
   6   0   3    5.71    0.91  -1
  -6   2  -4    5.71    0.91   2
  -6   0  -3    6.06    0.85  -1
   6  -2   4    6.06    0.85   2
   6   0   4    1.06    0.43   1
  -6   0  -4    0.27    0.45   1
   6   0   5    1.31    0.43   1
  -6   0  -5    2.13    0.30   1
   6   0   6   10.18    0.60   1
  -6   0  -6   11.04    0.61   1
   6   0   7    2.90    0.48   1
  -6   0  -7    3.64    0.47   1
   6   0   8    6.21    0.36   1
  -6   0  -8   19.65    1.15  -1
   6   0   8   19.65    1.15   2
   6   1 -11    0.30    0.25   1
   6   1 -11   -0.05    0.18   1
   6   1 -10    4.21    0.35   1
   6   1 -10    3.49    0.24   1
   6   1  -9    0.22    0.22   1
   6   1  -9    0.25    0.20   1
   6   1  -8    3.01    0.26   1
   6   1  -8    3.31    0.27   1
   6   1  -7    2.38    0.28   1
   6   1  -7    1.12    0.28   1
   6   1  -6    0.23    0.27   1
  -6  -1   6    0.71    0.29   1
   6   1  -5    2.29    0.47  -1
  -6   5   2    2.29    0.47   2
  -6  -1   5    2.01    0.73  -1
   6  -5  -2    2.01    0.73   2
   6   1  -4   -0.04    0.28   1
  -6  -1   4    0.44    0.32   1
   6   1  -3    4.36    0.39   1
  -6  -1   3    4.47    0.41   1
   6   1  -2   15.12    0.62   1
  -6  -1   2   14.66    0.61   1
   6   1  -1    8.77    0.51   1
  -6  -1   1    9.98    0.55   1
   6   1   0    3.19    0.40   1
  -6  -1   0    3.32    0.30   1
   6   1   1    0.08    0.23   1
  -6  -1  -1    3.88    0.94  -1
   6  -3   3    3.88    0.94   2
   6   1   2    2.22    0.47  -1
  -6   3  -4    2.22    0.47   2
  -6  -1  -2    4.04    0.84  -1
   6  -3   4    4.04    0.84   2
   6   1   3    1.41    0.45   1
  -6  -1  -3    8.74    1.46  -1
   6  -3   5    8.74    1.46   2
   6   1   4    2.20    0.45   1
  -6  -1  -4    2.25    0.48   1
   6   1   5    1.75    0.30   1
  -6  -1  -5    2.67    0.49   1
   6   1   6    5.02    0.54   1
  -6  -1  -6    5.42    0.35   1
   6   1   7    2.60    0.43   1
  -6  -1  -7    3.95    0.46   1
   6   2 -12    0.24    0.24   1
   6   2 -12   -0.02    0.25   1
   6   2 -11   -0.02    0.26   1
   6   2 -11   -0.01    0.29   1
   6   2 -10    2.73    0.32   1
   6   2 -10    2.36    0.26   1
   6   2  -9    0.85    0.37   1
   6   2  -9   -0.26    0.26   1
   6   2  -8    1.60    0.29   1
   6   2  -8    1.57    0.28   1
   6   2  -7    4.09    0.37   1
   6   2  -7    4.32    0.36   1
   6   2  -6    5.07    0.70  -1
  -6   6   2    5.07    0.70   2
   6   2  -6    7.93    0.97  -1
  -6   6   2    7.93    0.97   2
   6   2  -5    3.16    0.39   1
  -6  -2   5    3.19    0.40   1
   6   2  -4    5.38    0.43   1
  -6  -2   4    5.42    0.46   1
   6   2  -3    0.14    0.34   1
  -6  -2   3   -0.28    0.38   1
   6   2  -2   14.52    0.61   1
  -6  -2   2   17.94    0.71   1
   6   2  -1    2.25    0.43   1
  -6  -2   1    1.82    0.45   1
   6   2   0    2.19    0.46   1
  -6  -2   0    2.09    0.47   1
   6   2   1    0.44    0.85  -1
  -6   4  -4    0.44    0.85   2
  -6  -2  -1    2.10    0.86  -1
   6  -4   4    2.10    0.86   2
  -6  -2  -2    1.75    0.47   1
   6   2   2    7.61    1.03  -1
  -6   4  -5    7.61    1.03   2
   6   2   3    0.64    0.44   1
  -6  -2  -3    0.89    0.46   1
   6   2   4    1.83    0.43   1
  -6  -2  -4    1.76    0.30   1
   6   2   5    7.49    0.58   1
  -6  -2  -5    8.65    0.61   1
   6   2   6    1.07    0.29   1
  -6  -2  -6    1.18    0.29   1
   6   3 -11    1.82    0.33   1
   6   3 -11    1.21    0.37   1
   6   3 -10    0.48    0.31   1
   6   3 -10   -0.28    0.27   1
   6   3  -9    1.66    0.37   1
   6   3  -9    1.10    0.31   1
   6   3  -8    0.90    0.37   1
   6   3  -8    1.31    0.33   1
   6   3  -7    0.66    0.35   1
   6   3  -7    0.43    0.34   1
   6   3  -6    0.72    0.69  -1
  -6   7   1    0.72    0.69   2
   6   3  -6    1.60    0.62  -1
  -6   7   1    1.60    0.62   2
   6   3  -5    0.53    0.34   1
  -6  -3   5    0.45    0.24   1
   6   3  -4    2.08    0.27   1
  -6  -3   4    1.37    0.44   1
   6   3  -3    6.80    0.35   1
  -6  -3   3    8.26    0.38   1
   6   3  -2    5.03    0.49   1
  -6  -3   2    5.10    0.54   1
   6   3  -1    1.53    0.43   1
  -6  -3   1    1.79    0.50   1
   6   3   0    0.59    0.42   1
  -6  -3   0    0.22    0.46   1
   6   3   1    3.19    0.87  -1
  -6   5  -5    3.19    0.87   2
  -6  -3  -1    3.06    0.94  -1
   6  -5   5    3.06    0.94   2
   6   3   2    0.65    0.46   1
  -6  -3  -2    1.50    0.50   1
   6   3   3    1.33    0.31   1
  -6  -3  -3    0.96    0.48   1
   6   3   4    2.15    0.30   1
  -6  -3  -4    1.24    0.30   1
   6   4 -10   -0.31    0.36   1
   6   4 -10    0.24    0.31   1
   6   4  -9    0.95    0.40   1
   6   4  -9   -0.12    0.32   1
   6   4  -8    2.14    0.43   1
   6   4  -8    2.10    0.39   1
   6   4  -7    0.86    0.26   1
   6   4  -7    0.40    0.36   1
   6   4  -6    0.91    0.43   1
   6   4  -6    1.79    0.40   1
   6   4  -5    2.94    0.55   1
   6   4  -5    1.96    0.41   1
   6   4  -4   -0.27    0.24   1
  -6  -4   4   -0.48    0.45   1
   6   4  -3    8.26    0.59   1
  -6  -4   3    8.49    0.63   1
   6   4  -2    1.36    0.46   1
  -6  -4   2    2.22    0.51   1
  -6  -4   1    1.39    0.48   1
   6   4   0    2.69    1.09  -1
  -6   6  -5    2.69    1.09   2
  -6  -4   0    1.70    0.95  -1
   6  -6   5    1.70    0.95   2
   6   4   1    0.23    0.25   1
  -6  -4  -1    0.02    0.49   1
   6   4   2    0.95    0.30   1
  -6  -4  -2    0.29    0.47   1
   6   5  -8    0.05    0.24   1
   6   5  -8    0.58    0.37   1
   6   5  -7    0.21    0.85  -1
  -6   9   0    0.21    0.85   2
   6   5  -7    0.40    0.65  -1
  -6   9   0    0.40    0.65   2
   6   5  -6    0.40    0.46   1
   6   5  -6    0.22    0.40   1
   6   5  -5    0.46    0.51   1
   6   5  -5    1.04    0.41   1
   6   5  -4    3.99    0.39   1
   6   5  -4    1.83    0.48   1
   6   5  -3    2.03    0.29   1
  -6  -5   3    1.17    0.54   1
   6   5  -2    0.53    0.46   1
  -6  -5   2    0.10    0.52   1
   7  -8  -4    0.68    0.26   1
  -7   8   4    0.73    0.30   1
   7  -8  -3    0.29    0.26   1
  -7   8   3    0.17    0.32   1
   7  -8  -2    0.44    0.32   1
  -7   8   2   -0.30    0.34   1
   7  -8  -1    1.53    0.39   1
  -7   8   1    2.57    0.43   1
   7  -8   0    0.36    0.37   1
  -7   8   0    0.36    0.43   1
   7  -8   1    0.62    0.63  -1
  -7  -4   5    0.62    0.63   2
  -7   8  -1   -0.29    0.76  -1
   7   4  -5   -0.29    0.76   2
   7  -8   2    2.20    0.45   1
  -7   8  -2    3.69    0.55   1
  -7   8  -3    0.37    0.52   1
   7  -7  -5    0.21    0.20   1
  -7   7   5    0.88    0.23   1
   7  -7  -4    0.93    0.26   1
  -7   7   4    0.84    0.36   1
   7  -7  -3    1.09    0.28   1
  -7   7   3    0.58    0.30   1
   7  -7  -2    1.13    0.31   1
  -7   7   2    1.12    0.35   1
   7  -7  -1    0.83    0.34   1
  -7   7   1    0.87    0.36   1
   7  -7   0    0.79    0.39   1
  -7   7   0    0.58    0.43   1
   7  -7   1    1.59    0.39   1
  -7   7  -1    1.00    0.95  -1
   7   3  -4    1.00    0.95   2
   7  -7   2    2.76    0.48   1
  -7   7  -2    3.66    0.55   1
   7  -7   3   -0.23    0.39   1
  -7   7  -3    0.13    0.50   1
   7  -7   4    0.04    0.27   1
  -7   7  -4   -0.21    0.53   1
   7  -6  -6   -0.07    0.20   1
  -7   6   6   -0.05    0.15   1
   7  -6  -5    1.68    0.23   1
  -7   6   5    1.57    0.23   1
   7  -6  -4    2.11    0.28   1
  -7   6   4    3.07    0.38   1
   7  -6  -3    0.28    0.27   1
  -7   6   3    0.29    0.30   1
   7  -6  -2    4.70    0.40   1
  -7   6   2    5.18    0.42   1
   7  -6  -1    1.14    0.34   1
  -7   6   1    0.33    0.36   1
   7  -6   0    0.66    0.61  -1
  -7  -2   4    0.66    0.61   2
  -7   6   0    0.44    0.65  -1
   7   2  -4    0.44    0.65   2
   7  -6   1    8.92    0.58   1
  -7   6  -1    9.59    0.44   1
   7  -6   2    0.63    0.40   1
  -7   6  -2    0.03    0.27   1
   7  -6   3    1.31    0.29   1
  -7   6  -3    1.28    0.52   1
   7  -6   4    1.06    0.46   1
  -7   6  -4   -0.25    0.54   1
   7  -6   5    1.63    0.44   1
  -7   6  -5    1.17    0.57   1
   7  -5  -7    0.08    0.29  -1
  -7   1   9    0.08    0.29   2
   7  -5  -6    0.24    0.14   1
  -7   5   6    0.32    0.14   1
   7  -5  -5    1.87    0.22   1
  -7   5   5    1.58    0.21   1
   7  -5  -4    1.74    0.24   1
  -7   5   4    2.02    0.26   1
   7  -5  -3    1.30    0.29   1
  -7   5   3    1.68    0.31   1
   7  -5  -2    1.33    0.32   1
  -7   5   2    1.78    0.32   1
   7  -5  -1    3.56    0.84  -1
  -7  -1   4    3.56    0.84   2
  -7   5   1    3.51    0.89  -1
   7   1  -4    3.51    0.89   2
   7  -5   0    2.59    0.90  -1
  -7  -1   3    2.59    0.90   2
  -7   5   0    2.36    0.98  -1
   7   1  -3    2.36    0.98   2
   7  -5   1    6.82    0.50   1
  -7   5  -1    8.50    0.57   1
   7  -5   2   -0.81    0.42   1
  -7   5  -2    1.17    0.43   1
   7  -5   3    0.36    0.41   1
  -7   5  -3    0.35    0.49   1
   7  -5   4    1.16    0.47   1
  -7   5  -4   -0.32    0.52   1
   7  -5   5    0.67    0.29   1
  -7   5  -5    0.70    0.55   1
  -7   4   7   -0.16    0.11   1
   7  -4  -7   -0.56    0.34  -1
  -7   2   8   -0.56    0.34   2
   7  -4  -6    1.52    0.22   1
  -7   4   6    1.47    0.18   1
   7  -4  -5    4.40    0.32   1
  -7   4   5    4.82    0.25   1
   7  -4  -4    0.32    0.22   1
  -7   4   4    0.18    0.22   1
   7  -4  -3    8.70    0.39   1
  -7   4   3    8.71    0.39   1
   7  -4  -2    2.28    0.33   1
  -7   4   2    1.33    0.31   1
   7  -4  -1   -0.00    0.54  -1
  -7   0   3   -0.00    0.54   2
  -7   4   1    0.80    0.55  -1
   7   0  -3    0.80    0.55   2
   7  -4   0   51.31    2.47  -1
  -7   0   2   51.31    2.47   2
  -7   4   0   61.67    2.38  -1
   7   0  -2   61.67    2.38   2
   7  -4   1    0.43    0.24   1
  -7   4  -1    0.25    0.41   1
   7  -4   2    2.18    0.43   1
  -7   4  -2    2.02    0.48   1
   7  -4   3    1.22    0.41   1
  -7   4  -3    1.86    0.51   1
   7  -4   4    3.37    0.48   1
  -7   4  -4    3.44    0.58   1
   7  -4   5    8.98    1.44  -1
  -7  -2  -2    8.98    1.44   2
  -7   4  -5    8.43    1.68  -1
   7   2   2    8.43    1.68   2
   7  -4   6    3.93    0.96  -1
  -7  -2  -3    3.93    0.96   2
  -7   4  -6    4.69    1.07  -1
   7   2   3    4.69    1.07   2
   7  -3  -8    0.35    0.15  -1
  -7   3   8    0.35    0.15   2
   7  -3  -7    0.09    0.15   1
  -7   3   7    0.84    0.35  -1
   7  -3  -7    0.84    0.35   2
   7  -3  -6    3.01    0.25   1
  -7   3   6    3.04    0.16   1
   7  -3  -5    4.34    0.26   1
  -7   3   5    4.07    0.24   1
   7  -3  -4    3.21    0.27   1
  -7   3   4    2.60    0.25   1
   7  -3  -3    2.08    0.28   1
   7  -3  -2    3.87    0.78  -1
  -7   1   3    3.87    0.78   2
  -7   3   2    6.48    0.71  -1
   7  -1  -3    6.48    0.71   2
   7  -3  -1    1.87    0.79  -1
  -7   1   2    1.87    0.79   2
  -7   3   1    3.11    0.83  -1
   7  -1  -2    3.11    0.83   2
   7  -3   0   10.82    0.38   1
  -7   3   0   39.34    1.90  -1
   7  -1  -1   39.34    1.90   2
   7  -3   1    0.66    0.25   1
  -7   3  -1    0.25    0.42   1
   7  -3   2   -0.21    0.26   1
  -7   3  -2    0.82    0.43   1
   7  -3   3    2.75    0.29   1
  -7   3  -3    3.22    0.51   1
   7  -3   4    3.78    0.33   1
  -7   3  -4    3.29    0.56   1
   7  -3   5    6.96    1.10  -1
  -7  -1  -3    6.96    1.10   2
  -7   3  -5    8.74    1.11  -1
   7   1   3    8.74    1.11   2
   7  -3   6   16.92    1.32  -1
  -7  -1  -4   16.92    1.32   2
  -7   3  -6   21.92    1.68  -1
   7   1   4   21.92    1.68   2
   7  -2  -8    0.07    0.10   1
   7  -2  -8    0.28    0.15   1
   7  -2  -7    1.47    0.21   1
  -7   2   7    1.61    0.20   1
   7  -2  -6    4.87    0.32   1
  -7   2   6    4.97    0.30   1
   7  -2  -5    0.46    0.23   1
  -7   2   5    0.96    0.21   1
   7  -2  -4    8.95    0.39   1
  -7   2   4    9.78    0.39   1
   7  -2  -3    2.66    0.32   1
  -7   2   3    6.68    0.75  -1
   7  -2  -3    6.68    0.75   2
   7  -2  -2    0.76    0.49  -1
  -7   2   2    0.76    0.49   2
  -7   2   2    1.24    0.62  -1
   7  -2  -2    1.24    0.62   2
   7  -2  -1   77.96    2.77  -1
  -7   2   1   77.96    2.77   2
  -7   2   1   80.28    2.83  -1
   7  -2  -1   80.28    2.83   2
   7  -2   0   -0.08    0.37   1
  -7   2   0    0.60    0.24   1
   7  -2   1    2.70    0.42   1
  -7   2  -1    2.35    0.48   1
   7  -2   2    2.96    0.29   1
  -7   2  -2    4.89    0.52   1
   7  -2   3    6.33    0.54   1
  -7   2  -3    8.94    0.59   1
  -7   2  -4    3.53    0.34   1
   7  -2   4   15.87    1.41  -1
  -7   0  -3   15.87    1.41   2
   7  -2   5    7.30    0.59  -1
  -7   0  -4    7.30    0.59   2
  -7   2  -5    6.05    0.99  -1
   7   0   4    6.05    0.99   2
   7  -2   6   14.58    1.49  -1
  -7   0  -5   14.58    1.49   2
  -7   2  -6   17.32    1.32  -1
   7   0   5   17.32    1.32   2
   7  -1  -9    0.90    0.46  -1
  -7   5   7    0.90    0.46   2
   7  -1  -9    1.09    0.41  -1
  -7   5   7    1.09    0.41   2
   7  -1  -8    0.24    0.16   1
   7  -1  -8    0.14    0.22   1
   7  -1  -7    2.45    0.22   1
  -7   1   7    2.58    0.27   1
   7  -1  -6    5.04    0.28   1
  -7   1   6    5.07    0.34   1
   7  -1  -5    3.58    0.29   1
  -7   1   5    4.03    0.29   1
   7  -1  -4    2.75    0.31   1
  -7   1   4    2.67    0.31   1
   7  -1  -3    7.04    0.81  -1
  -7   3   2    7.04    0.81   2
  -7   1   3    5.69    0.82  -1
   7  -3  -2    5.69    0.82   2
   7  -1  -2    3.52    0.70  -1
  -7   3   1    3.52    0.70   2
  -7   1   2    2.25    0.86  -1
   7  -3  -1    2.25    0.86   2
   7  -1  -1   10.98    0.53   1
  -7   1   1   11.39    0.58   1
   7  -1   0    1.57    0.39   1
  -7   1   0    1.47    0.39   1
   7  -1   1    0.02    0.24   1
  -7   1  -1    0.35    0.24   1
   7  -1   2    5.52    0.49   1
  -7   1  -2    5.56    0.53   1
   7  -1   3    7.12    0.55   1
  -7   1  -3   19.65    1.53  -1
   7  -1   3   19.65    1.53   2
   7  -1   4    9.33    0.96  -1
  -7   1  -4    9.33    0.96   2
  -7   1  -4   12.32    1.37  -1
   7  -1   4   12.32    1.37   2
   7  -1   5   22.00    1.23  -1
  -7   1  -5   22.00    1.23   2
  -7   1  -5   23.20    1.34  -1
   7  -1   5   23.20    1.34   2
   7  -1   6    2.76    0.32   1
  -7   1  -6    9.35    1.39  -1
   7  -1   6    9.35    1.39   2
   7   0  -9    0.05    0.16   1
   7   0  -9    0.15    0.17   1
   7   0  -8    1.26    0.29   1
   7   0  -8    0.79    0.30   1
   7   0  -7    2.36    0.25   1
  -7   0   7    2.94    0.26   1
   7   0  -6    2.09    0.27   1
  -7   0   6    1.59    0.27   1
   7   0  -5    5.53    0.34   1
  -7   0   5    6.52    0.37   1
   7   0  -4    2.82    0.33   1
  -7   0   4    2.01    0.34   1
   7   0  -3    1.38    0.52  -1
  -7   4   1    1.38    0.52   2
  -7   0   3    0.37    0.52  -1
   7  -4  -1    0.37    0.52   2
   7   0  -2   15.52    0.65   1
  -7   0   2   60.51    2.68  -1
   7  -4   0   60.51    2.68   2
   7   0  -1    0.23    0.37   1
  -7   0   1    0.56    0.39   1
   7   0   0    1.39    0.42   1
  -7   0   0    1.65    0.46   1
   7   0   1    5.68    0.47   1
  -7   0  -1    5.54    0.53   1
   7   0   2    5.71    0.36   1
  -7   0  -2    7.32    0.60   1
   7   0   3   12.84    1.34  -1
  -7   2  -4   12.84    1.34   2
  -7   0  -3   13.87    1.16  -1
   7  -2   4   13.87    1.16   2
   7   0   4    6.26    0.58  -1
  -7   2  -5    6.26    0.58   2
  -7   0  -4    5.88    0.87  -1
   7  -2   5    5.88    0.87   2
   7   0   5    7.12    0.59   1
  -7   0  -5    4.43    0.35   1
   7   1 -10   -0.02    0.20   1
   7   1  -9   -0.17    0.23   1
   7   1  -9   -0.40    0.27   1
   7   1  -8    1.83    0.27   1
   7   1  -8    0.86    0.23   1
   7   1  -7    0.92    0.21   1
   7   1  -7    3.73    0.30   1
   7   1  -6    1.63    0.31   1
  -7  -1   6    2.63    0.33   1
   7   1  -5    1.53    0.30   1
  -7  -1   5    1.83    0.33   1
   7   1  -4    1.91    0.91  -1
  -7   5   1    1.91    0.91   2
  -7  -1   4    3.00    0.86  -1
   7  -5  -1    3.00    0.86   2
   7   1  -3    2.46    0.95  -1
  -7   5   0    2.46    0.95   2
  -7  -1   3    2.69    0.96  -1
   7  -5   0    2.69    0.96   2
   7   1  -2    4.93    0.46   1
  -7  -1   2    6.04    0.50   1
   7   1  -1    0.52    0.36   1
  -7  -1   1    0.73    0.43   1
   7   1   0    1.07    0.36   1
  -7  -1   0   -0.04    0.45   1
   7   1   1    4.62    0.49   1
  -7  -1  -1    3.22    0.53   1
   7   1   2    4.37    0.53   1
  -7  -1  -2    4.92    0.56   1
   7   1   3   10.40    1.18  -1
  -7   3  -5   10.40    1.18   2
  -7  -1  -3    9.23    1.10  -1
   7  -3   5    9.23    1.10   2
   7   1   4   18.18    1.37  -1
  -7   3  -6   18.18    1.37   2
  -7  -1  -4   21.30    1.48  -1
   7  -3   6   21.30    1.48   2
   7   2 -10    0.21    0.25   1
   7   2 -10    0.35    0.20   1
   7   2  -9   -0.00    0.28   1
   7   2  -9    0.87    0.25   1
   7   2  -8    1.41    0.30   1
   7   2  -8    0.41    0.29   1
   7   2  -7    2.66    0.40   1
   7   2  -7    2.78    0.35   1
   7   2  -6    2.68    0.36   1
  -7  -2   6    2.62    0.39   1
   7   2  -5    1.21    0.32   1
  -7  -2   5    1.97    0.39   1
   7   2  -4   -0.06    0.58  -1
  -7   6   0   -0.06    0.58   2
  -7  -2   4    0.89    0.61  -1
   7  -6   0    0.89    0.61   2
   7   2  -3    6.67    0.50   1
  -7  -2   3    6.70    0.36   1
   7   2  -2    0.37    0.40   1
  -7  -2   2    0.82    0.44   1
   7   2  -1    1.09    0.44   1
  -7  -2   1    1.49    0.45   1
   7   2   0    3.91    0.49   1
  -7  -2   0    4.05    0.54   1
   7   2   1    3.30    0.48   1
  -7  -2  -1    3.04    0.54   1
   7   2   2    3.30    0.31   1
  -7  -2  -2    3.23    0.36   1
   7   2   3    3.99    0.90  -1
  -7   4  -6    3.99    0.90   2
  -7  -2  -3    6.24    0.94  -1
   7  -4   6    6.24    0.94   2
   7   3  -9    0.84    0.35   1
   7   3  -9    0.85    0.28   1
   7   3  -8    2.64    0.39   1
   7   3  -8    2.04    0.32   1
   7   3  -7    1.20    0.41   1
   7   3  -7    1.56    0.35   1
   7   3  -6    1.32    0.28   1
   7   3  -6    1.52    0.38   1
   7   3  -5    0.20    0.38   1
  -7  -3   5    1.72    1.08  -1
   7  -7   0    1.72    1.08   2
   7   3  -4    0.11    0.24   1
  -7  -3   4    2.29    0.91  -1
   7  -7   1    2.29    0.91   2
   7   3  -3    1.38    0.38   1
  -7  -3   3    1.90    0.45   1
   7   3  -2    0.63    0.40   1
  -7  -3   2    0.70    0.44   1
   7   3  -1    0.17    0.42   1
  -7  -3   1   -0.69    0.47   1
   7   3   0    1.87    0.32   1
  -7  -3   0    3.89    0.55   1
   7   3   1    1.40    0.52   1
  -7  -3  -1    1.11    0.51   1
   7   4  -6    0.59    0.44   1
   7   4  -6    0.28    0.38   1
   7   4  -5   -0.26    0.53  -1
  -7   8  -1   -0.26    0.53   2
   7   4  -5   -0.09    0.65  -1
  -7   8  -1   -0.09    0.65   2
   7   4  -4    1.42    0.29   1
  -7  -4   4    1.94    0.50   1
   7   4  -3    0.20    0.41   1
  -7  -4   3   -0.14    0.28   1
   7   4  -2    0.41    0.43   1
  -7  -4   2    0.63    0.31   1
   8  -7  -3    2.26    0.30   1
  -8   7   3    2.51    0.33   1
   8  -7  -2    0.35    0.28   1
  -8   7   2    0.35    0.33   1
   8  -7  -1   -0.01    0.33   1
  -8   7   1   -0.17    0.34   1
   8  -7   0    0.28    0.23   1
  -8   7   0   -0.20    0.39   1
   8  -6  -4    5.45    0.34   1
  -8   6   4    4.82    0.34   1
   8  -6  -3    0.57    0.36   1
  -8   6   3   -0.13    0.29   1
   8  -6  -2    0.79    0.32   1
  -8   6   2    0.88    0.33   1
   8  -6  -1    0.15    0.21   1
  -8   6   1   -0.22    0.33   1
   8  -6   0    0.02    0.34   1
  -8   6   0    0.05    0.39   1
   8  -6   1    1.92    1.01  -1
  -8  -2   3    1.92    1.01   2
  -8   6  -1    0.07    1.04  -1
   8   2  -3    0.07    1.04   2
   8  -6   2    1.65    1.00  -1
  -8  -2   2    1.65    1.00   2
  -8   6  -2    1.46    1.13  -1
   8   2  -2    1.46    1.13   2
   8  -6   3    1.62    0.30   1
  -8   6  -3    1.79    0.49   1
   8  -5  -4    5.21    0.32   1
  -8   5   4    5.26    0.40   1
   8  -5  -3    0.97    0.28   1
  -8   5   3    0.69    0.27   1
   8  -5  -2    0.36    0.28   1
  -8   5   2   -0.33    0.28   1
   8  -5  -1    0.06    0.33   1
  -8   5   1   -0.03    0.35   1
   8  -5   0    0.52    0.38   1
  -8   5   0    0.36    0.41   1
   8  -5   1    1.15    0.62  -1
  -8  -1   2    1.15    0.62   2
  -8   5  -1    0.17    0.72  -1
   8   1  -2    0.17    0.72   2
   8  -5   2    0.99    0.40   1
  -8   5  -2   -0.26    0.48   1
   8  -5   3    2.78    0.47   1
  -8   5  -3    2.97    0.57   1
   8  -5   4    0.41    0.46   1
  -8   5  -4    0.50    0.53   1
   8  -4  -5   11.72    0.51   1
  -8   4   5   41.06    1.50  -1
   8  -2  -6   41.06    1.50   2
   8  -4  -4    0.33    0.24   1
  -8   4   4    0.14    0.23   1
   8  -4  -3    0.82    0.29   1
  -8   4   3    1.37    0.31   1
   8  -4  -2    0.63    0.30   1
  -8   4   2   -0.18    0.31   1
   8  -4  -1    0.38    0.32   1
  -8   4   1   -0.08    0.35   1
  -8   4   0    0.50    0.39   1
   8  -4   0    0.50    0.87  -1
  -8   0   2    0.50    0.87   2
   8  -4   1    1.37    0.83  -1
  -8   0   1    1.37    0.83   2
  -8   4  -1    2.32    0.92  -1
   8   0  -1    2.32    0.92   2
   8  -4   2    4.11    0.48   1
  -8   4  -2    4.68    0.53   1
   8  -4   3    0.84    0.44   1
  -8   4  -3    0.40    0.49   1
   8  -4   4    1.50    0.48   1
  -8   4  -4    3.19    0.58   1
  -8   3   6    0.99    0.17   1
   8  -3  -6    4.44    0.61  -1
  -8   3   6    4.44    0.61   2
  -8   3   5    9.06    0.43   1
   8  -3  -5   29.46    1.42  -1
  -8   3   5   29.46    1.42   2
   8  -3  -4    0.63    0.26   1
  -8   3   4    0.94    0.24   1
   8  -3  -3    0.24    0.28   1
  -8   3   3    0.08    0.25   1
   8  -3  -2    0.62    0.31   1
  -8   3   2   -0.22    0.30   1
   8  -3  -1    0.21    0.81  -1
  -8   1   2    0.21    0.81   2
  -8   3   1    1.86    0.94  -1
   8  -1  -2    1.86    0.94   2
   8  -3   0    2.62    0.60  -1
  -8   1   1    2.62    0.60   2
  -8   3   0    1.80    0.69  -1
   8  -1  -1    1.80    0.69   2
   8  -3   1    2.54    0.42   1
  -8   3  -1    6.83    1.23  -1
   8  -1   0    6.83    1.23   2
   8  -3   2    5.42    0.51   1
  -8   3  -2    5.18    0.36   1
   8  -3   3    0.14    0.43   1
  -8   3  -3    0.73    0.48   1
   8  -3   4    4.85    0.53   1
  -8   3  -4    5.49    0.58   1
   8  -2  -6   15.00    0.56   1
  -8   2   6   14.95    0.45   1
   8  -2  -5   -0.07    0.24   1
  -8   2   5    0.43    0.31   1
   8  -2  -4    2.09    0.30   1
  -8   2   4    1.47    0.27   1
   8  -2  -3    0.83    0.30   1
  -8   2   3   -0.15    0.30   1
   8  -2  -2    0.51    0.33   1
  -8   2   2    0.56    0.33   1
   8  -2  -1    0.17    0.74  -1
  -8   2   1    0.17    0.74   2
  -8   2   1   -0.11    0.73  -1
   8  -2  -1   -0.11    0.73   2
   8  -2   0    1.85    0.64  -1
  -8   2   0    1.85    0.64   2
  -8   2   0    1.87    0.61  -1
   8  -2   0    1.87    0.61   2
   8  -2   1   10.77    0.59   1
  -8   2  -1   20.85    1.45  -1
   8  -2   1   20.85    1.45   2
   8  -2   2    1.82    0.45   1
  -8   2  -2    2.51    0.52   1
   8  -2   3    3.64    0.52   1
  -8   2  -3    4.35    0.58   1
   8  -2   4    1.05    0.48   1
  -8   2  -4    1.37    0.58   1
   8  -1  -7   -0.03    0.20   1
  -8   1   7    0.57    0.26   1
   8  -1  -6    5.95    0.34   1
  -8   1   6    7.03    0.33   1
   8  -1  -5    0.19    0.26   1
  -8   1   5    0.43    0.26   1
   8  -1  -4    0.18    0.29   1
  -8   1   4    0.40    0.29   1
   8  -1  -3    0.42    0.31   1
  -8   1   3    0.50    0.32   1
   8  -1  -2    0.21    0.85  -1
  -8   3   1    0.21    0.85   2
  -8   1   2    1.57    0.87  -1
   8  -3  -1    1.57    0.87   2
   8  -1  -1    1.19    0.62  -1
  -8   3   0    1.19    0.62   2
  -8   1   1    2.31    0.68  -1
   8  -3   0    2.31    0.68   2
   8  -1   0    1.73    0.25   1
  -8   1   0    3.64    1.10  -1
   8  -3   1    3.64    1.10   2
   8  -1   1    4.81    0.52   1
  -8   1  -1    6.27    0.56   1
   8  -1   2   -0.50    0.44   1
  -8   1  -2    0.23    0.48   1
   8  -1   3    5.33    0.37   1
  -8   1  -3    5.02    0.35   1
   8   0  -7    9.52    0.39   1
  -8   0   7    9.72    0.38   1
   8   0  -6   -0.16    0.33   1
  -8   0   6    0.03    0.25   1
   8   0  -5    1.12    0.29   1
  -8   0   5    1.63    0.30   1
   8   0  -4    0.53    0.32   1
  -8   0   4   -0.16    0.32   1
   8   0  -3    0.23    0.34   1
  -8   0   3    1.41    0.36   1
   8   0  -2   -0.58    0.85  -1
  -8   4   0   -0.58    0.85   2
  -8   0   2    0.79    0.93  -1
   8  -4   0    0.79    0.93   2
   8   0  -1    2.04    0.74  -1
  -8   4  -1    2.04    0.74   2
  -8   0   1    1.93    0.77  -1
   8  -4   1    1.93    0.77   2
   8   0   0    3.82    0.47   1
  -8   0   0    5.00    0.35   1
   8   0   1    2.78    0.46   1
  -8   0  -1    3.20    0.52   1
   8   0   2    3.41    0.47   1
  -8   0  -2    3.49    0.57   1
   8   0   3    0.51    0.27   1
  -8   0  -3    0.83    0.31   1
   8   1  -7    3.32    0.35   1
  -8  -1   7    3.82    0.33   1
   8   1  -6    0.21    0.32   1
  -8  -1   6    0.44    0.29   1
   8   1  -5    0.27    0.30   1
  -8  -1   5   -0.33    0.32   1
   8   1  -4    0.23    0.33   1
  -8  -1   4    0.18    0.35   1
   8   1  -3   -0.78    0.34   1
  -8  -1   3   -0.11    0.37   1
   8   1  -2    1.14    0.62  -1
  -8   5  -1    1.14    0.62   2
  -8  -1   2    0.35    0.67  -1
   8  -5   1    0.35    0.67   2
   8   1  -1    1.30    0.26   1
  -8  -1   1    0.76    0.28   1
   8   1   0    3.64    0.49   1
  -8  -1   0    4.18    0.36   1
   8   1   1    0.50    0.27   1
  -8  -1  -1    0.96    0.47   1
   8   2  -6    0.43    0.32   1
  -8  -2   6    0.28    0.33   1
   8   2  -5    0.62    0.34   1
  -8  -2   5    1.19    0.35   1
   8   2  -4    0.14    0.35   1
  -8  -2   4    0.01    0.38   1
   8   2  -3   -0.25    0.82  -1
  -8   6  -1   -0.25    0.82   2
  -8  -2   3   -0.50    0.83  -1
   8  -6   1   -0.50    0.83   2
   8   2  -2    3.98    0.95  -1
  -8   6  -2    3.98    0.95   2
  -8  -2   2    0.51    1.20  -1
   8  -6   2    0.51    1.20   2
   8   2  -1    3.27    0.45   1
  -8  -2   1    2.43    0.50   1
   8   2   0    1.93    0.46   1
  -8  -2   0    3.68    0.35   1
   9  -4  -2    0.30    0.30   1
  -9   4   2   -0.50    0.30   1
   9  -4  -1    1.30    0.36   1
  -9   4   1    1.27    0.39   1
   9  -3  -3    3.38    0.35   1
   9  -3  -2    0.16    0.31   1
  -9   3   2    0.40    0.29   1
   9  -3  -1    2.63    0.39   1
  -9   3   1    3.02    0.38   1
   9  -3   0   -0.30    0.92  -1
  -9   1   1   -0.30    0.92   2
  -9   3   0    0.85    0.94  -1
   9  -1  -1    0.85    0.94   2
   9  -2  -4    1.58    0.30   1
  -9   2   4    1.08    0.27   1
   9  -2  -3   -0.10    0.31   1
  -9   2   3    0.49    0.27   1
   9  -2  -2    0.46    0.34   1
  -9   2   2    0.74    0.36   1
   9  -2  -1    0.33    0.34   1
  -9   2   1    0.78    0.40   1
   9  -2   0    1.45    0.25   1
  -9   2   0    6.17    0.82  -1
   9  -2   0    6.17    0.82   2
   9  -1  -3    0.10    0.31   1
  -9   1   3    0.52    0.32   1
   9  -1  -2    3.32    0.40   1
  -9   1   2    3.35    0.42   1
   9  -1  -1    0.51    0.36   1
  -9   1   1    0.13    0.96  -1
   9  -3   0    0.13    0.96   2
   0   0   1    2.30    0.23   2
   0   0  -1    2.93    0.38   2
   0   0   2    6.98    1.04   2
   0   0  -2    8.01    0.94   2
   0   0   3   70.88    2.68   2
   0   0  -3   84.10    3.20   2
   0   0   4   56.81    2.42   2
   0   0  -4   67.05    2.84   2
   0   0   5   88.95    3.60   2
   0   0  -5   98.34    3.67   2
   0   0   6    7.56    1.27   2
   0   0  -6    7.52    1.26   2
   0   0   8   23.95    1.73   2
   0   0  -8   20.02    1.09   2
   0   0   9   25.23    1.69   2
   0   0  -9   22.10    1.76   2
   0   0  10   17.51    1.06   2
   0   0 -10   16.01    1.60   2
   0   0  11   31.14    2.26   2
   0   0 -11   39.54    2.30   2
   0   0  12   93.99    3.33   2
   0   0 -12  103.82    4.47   2
   0   0  15    0.99    1.42   2
   0   0 -15    4.34    1.61   2
   0   0  16    1.56    1.38   2
   0   0 -16   -0.24    1.47   2
   0   0  17   -0.26    1.40   2
   0   0 -17    1.72    1.54   2
   0   1 -17    6.26    1.74   2
   0  -1  17    6.32    1.57   2
   0   1 -16   13.77    1.26   2
   0  -1  16   11.69    1.75   2
   0   1 -13  113.80    4.45   2
   0  -1  13  112.83    5.52   2
   0   1 -12    7.05    1.54   2
   0  -1  12    7.24    1.44   2
   0   1 -11   21.25    1.88   2
   0  -1  11   22.25    1.80   2
   0   1 -10   35.86    2.29   2
   0  -1  10   36.20    2.24   2
   0   1  -9    3.36    1.22   2
   0  -1   9    2.61    1.27   2
   0   1  -7   37.90    2.13   2
   0   1  -6   68.13    2.97   2
   0  -1   6   69.24    3.08   2
   0   1  -5   14.85    1.40   2
   0  -1   5   12.13    1.49   2
   0   1  -4   49.33    2.54   2
   0  -1   4   52.47    2.49   2
   0   1  -3   24.61    1.80   2
   0  -1   3   26.22    1.88   2
   0   1  -2   81.24    3.31   2
   0  -1   2   83.30    3.51   2
   0   1  -1  193.60    7.66   2
   0  -1   1  187.84    7.18   2
   0   1   0  155.60    4.36   2
   0  -1   0  158.30    4.22   2
   0   1   1  113.64    4.13   2
   0  -1  -1  109.60    3.93   2
   0   1   2   27.21    1.90   2
   0  -1  -2   27.87    1.88   2
   0   1   3   61.39    2.86   2
   0  -1  -3   60.08    1.92   2
   0   1   4    1.74    1.24   2
   0  -1  -4    2.71    1.23   2
   0   1   5   79.65    3.29   2
   0  -1  -5   81.65    3.30   2
   0   1   8   21.64    1.18   2
   0  -1  -8   23.18    1.72   2
   0   1   9   45.29    2.38   2
   0  -1  -9   45.97    2.46   2
   0   1  10   19.37    1.13   2
   0  -1 -10   19.64    1.73   2
   0   1  11   12.29    1.42   2
   0  -1 -11   12.17    1.56   2
   0   1  12  162.47    7.37   2
   0  -1 -12  171.72    7.65   2
   0   1  15   23.37    2.09   2
   0  -1 -15   21.16    2.15   2
   0   1  16   10.67    1.69   2
   0  -1 -16    9.13    1.85   2
   0   1  17   10.76    1.06   2
   0  -1 -17    9.15    1.81   2
   0   2 -16    3.49    1.71   2
   0  -2  16    0.30    1.52   2
   0   2 -14    6.24    1.74   2
   0  -2  14    7.18    1.68   2
   0   2 -13   61.98    2.68   2
   0  -2  13   67.87    3.64   2
   0   2 -12   21.31    1.24   2
   0  -2  12   24.51    2.03   2
   0   2 -11   10.24    1.06   2
   0  -2  11   13.79    1.60   2
   0   2 -10   21.22    1.25   2
   0  -2  10   18.17    1.85   2
   0   2  -9    2.38    0.80   2
   0  -2   9    3.10    0.78   2
   0   2  -7    4.93    1.38   2
   0  -2   7    4.36    1.37   2
   0   2  -6   48.08    2.53   2
   0  -2   6   49.44    2.62   2
   0   2  -5    1.89    1.26   2
   0  -2   5    1.49    1.20   2
   0   2  -4   52.49    2.56   2
   0  -2   4   45.18    2.51   2
   0   2  -3   13.73    1.89   2
   0   2  -3   14.36    1.66   2
   0   2  -2    0.52    1.62   2
   0  -2   2   -0.67    1.54   2
   0   2   0    6.44    1.79   2
   0  -2   0    6.71    1.73   2
   0   2   1    3.27    0.99   2
   0  -2  -1    4.39    1.58   2
   0   2   2   86.55    4.06   2
   0  -2  -2   86.22    3.96   2
   0   2   3  103.72    4.43   2
   0  -2  -3   95.96    4.30   2
   0   2   4   95.40    4.18   2
   0  -2  -4   91.30    3.96   2
   0   2   5    8.59    1.53   2
   0  -2  -5   10.49    1.57   2
   0   2   7   63.96    3.06   2
   0  -2  -7   65.48    2.99   2
   0   2   8   23.07    1.80   2
   0  -2  -8   23.18    1.77   2
   0   2   9   19.31    1.71   2
   0  -2  -9   16.52    1.70   2
   0   2  10   45.52    2.32   2
   0  -2 -10   45.83    2.61   2
   0   2  11  111.92    4.92   2
   0  -2 -11  113.12    5.10   2
   0   2  15   -0.53    1.23   2
   0  -2 -15   -2.07    1.48   2
   0   2  16   -0.31    1.40   2
   0  -2 -16    1.64    1.47   2
   0   3 -16    3.08    1.59   2
   0  -3  16    1.43    1.58   2
   0   3 -14   54.35    3.57   2
   0  -3  14   56.45    3.58   2
   0   3 -13    3.33    1.73   2
   0  -3  13    3.60    1.61   2
   0   3 -12   13.18    2.01   2
   0  -3  12   18.21    1.30   2
   0   3 -11   25.10    2.06   2
   0  -3  11   20.53    2.16   2
   0   3 -10    0.07    1.37   2
   0  -3  10   -1.61    1.37   2
   0   3  -9    6.58    1.62   2
   0  -3   9    8.04    0.98   2
   0   3  -7   34.32    2.22   2
   0  -3   7   27.43    2.31   2
   0   3  -6    2.89    1.08   2
   0   3  -6   13.51    1.60   2
   0   3  -5   30.72    2.52   2
   0   3  -5   28.01    2.10   2
   0   3  -4   14.15    1.29   2
   0   3  -4   18.31    1.76   2
   0   3  -3   35.68    1.80   2
   0  -3   3   38.94    1.88   2
   0   3  -2   96.80    3.71   2
   0  -3   2   95.08    4.57   2
   0   3  -1  101.97    4.41   2
   0  -3   1   94.59    3.23   2
   0   3   0   77.45    3.86   2
   0  -3   0   70.97    2.68   2
   0   3   1   13.63    1.22   2
   0  -3  -1   13.10    1.94   2
   0   3   2   30.28    2.39   2
   0  -3  -2   29.90    2.34   2
   0   3   3    2.16    1.48   2
   0  -3  -3   -1.05    1.43   2
   0   3   4   47.05    2.84   2
   0  -3  -4   47.90    2.68   2
   0   3   6   14.62    1.66   2
   0  -3  -6    9.48    1.00   2
   0   3   7   44.79    2.70   2
   0  -3  -7   45.39    2.61   2
   0   3   8   41.05    2.39   2
   0  -3  -8   36.09    2.48   2
   0   3   9   12.46    1.68   2
   0  -3  -9   11.11    1.11   2
   0   3  10   12.75    1.76   2
   0   3  11  123.16    5.71   2
   0  -3 -11  120.13    5.73   2
   0   3  13    4.73    1.51   2
   0   3  14   17.25    1.96   2
   0  -3 -14   18.08    1.98   2
   0   3  15   11.46    1.74   2
   0  -3 -15   11.75    1.86   2
   0   3  16    7.95    1.64   2
   0  -3 -16    9.68    1.77   2
   0   4 -15    2.63    1.77   2
   0  -4  15    3.02    1.70   2
   0   4 -14   26.70    2.54   2
   0  -4  14   25.43    1.76   2
   0   4 -13   14.40    1.99   2
   0  -4  13   11.29    1.25   2
   0   4 -12    8.66    1.70   2
   0  -4  12    2.55    1.75   2
   0   4 -11   12.64    1.15   2
   0  -4  11   11.78    1.89   2
   0   4 -10   -0.06    1.17   2
   0   4 -10    1.14    1.46   2
   0  -4  10   -0.31    0.92   2
   0   4  -8    4.57    1.97   2
   0   4  -8    4.83    0.96   2
   0   4  -7   19.49    1.55   2
   0   4  -7   22.30    2.05   2
   0   4  -6    2.06    1.07   2
   0   4  -6    2.78    1.45   2
   0   4  -5   18.79    2.23   2
   0   4  -5   19.26    1.99   2
   0   4  -4   13.44    1.83   2
   0  -4   4    1.67    1.04   2
   0   4  -3   -1.42    1.00   2
   0  -4   3   -0.48    1.66   2
   0   4  -1   10.82    1.79   2
   0  -4   1    4.32    1.71   2
   0   4   0    3.66    1.60   2
   0  -4   0    2.14    1.57   2
   0   4   1   55.06    2.39   2
   0  -4  -1   58.42    3.37   2
   0   4   2   53.00    3.32   2
   0  -4  -2   54.68    3.18   2
   0   4   3   44.93    2.86   2
   0  -4  -3   41.47    2.86   2
   0   4   4    8.57    1.08   2
   0  -4  -4    8.82    1.07   2
   0   4   6   69.08    2.69   2
   0  -4  -6   71.80    3.61   2
   0   4   7   14.88    1.21   2
   0  -4  -7   14.94    1.11   2
   0   4   8    6.34    1.74   2
   0  -4  -8    9.50    1.68   2
   0   4   9   32.63    2.45   2
   0  -4  -9   33.07    2.45   2
   0   4  10   62.30    3.60   2
   0  -4 -10   68.07    3.58   2
   0   4  13    4.22    1.59   2
   0  -4 -13    4.52    1.63   2
   0   4  14   -1.42    1.46   2
   0  -4 -14    0.60    1.48   2
   0   4  15    2.10    1.48   2
   0  -4 -15   -0.03    1.54   2
   0   5 -15   18.11    1.83   2
   0   5 -15   14.56    2.26   2
   0   5 -14    0.25    1.29   2
   0   5 -14    4.30    1.59   2
   0   5 -13    4.68    2.26   2
   0   5 -13    1.90    1.73   2
   0   5 -12   11.66    2.45   2
   0   5 -12    8.87    1.85   2
   0   5 -11   -0.48    1.84   2
   0   5 -11    1.66    1.54   2
   0   5 -10    3.67    2.05   2
   0   5 -10    5.58    1.10   2
   0   5  -8   10.66    2.21   2
   0   5  -8   11.23    1.94   2
   0   5  -7   10.82    2.15   2
   0   5  -7   12.53    1.82   2
   0   5  -6   15.52    1.39   2
   0   5  -6   15.90    2.08   2
   0   5  -5    6.58    1.98   2
   0   5  -5   10.01    1.88   2
   0   5  -4   12.58    2.26   2
   0  -5   4   11.24    2.23   2
   0   5  -3   38.14    2.88   2
   0  -5   3   33.95    1.78   2
   0   5  -2   34.62    1.72   2
   0  -5   2   36.98    2.18   2
   0   5  -1   32.39    2.82   2
   0  -5   1   32.21    1.70   2
   0   5   0    7.06    1.87   2
   0  -5   0    4.75    1.78   2
   0   5   1    9.62    1.26   2
   0  -5  -1   12.97    1.94   2
   0   5   2   -1.68    0.94   2
   0  -5  -2    2.02    0.95   2
   0   5   3   14.56    1.38   2
   0  -5  -3   21.19    2.19   2
   0   5   5    5.96    1.72   2
   0  -5  -5    1.62    1.04   2
   0   5   6   42.08    3.11   2
   0  -5  -6   46.82    3.01   2
   0   5   7   26.72    2.39   2
   0  -5  -7   25.90    2.35   2
   0   5   8    2.33    1.66   2
   0  -5  -8    1.60    1.61   2
   0   5   9    8.88    1.90   2
   0  -5  -9   11.32    1.22   2
   0   5  10   52.44    2.43   2
   0  -5 -10   49.53    3.38   2
   0   5  12   -0.21    1.55   2
   0  -5 -12    1.49    1.60   2
   0   5  13   11.76    1.92   2
   0  -5 -13   10.49    1.85   2
   0   5  14    3.97    1.68   2
   0  -5 -14    3.42    1.63   2
   0   6 -13    2.93    1.28   2
   0   6 -13    0.77    1.06   2
   0   6 -12    4.63    2.16   2
   0   6 -12    4.07    1.15   2
   0   6 -11    1.50    1.93   2
   0   6 -11   -1.25    0.97   2
   0   6  -9    5.47    2.02   2
   0   6  -9    1.56    1.66   2
   0   6  -8    4.73    2.15   2
   0   6  -8    9.35    1.77   2
   0   6  -7    4.02    1.29   2
   0   6  -7    7.17    1.80   2
   0   6  -6    6.44    2.16   2
   0   6  -6    7.81    1.18   2
   0   6  -5    8.56    1.94   2
   0  -6   5    2.09    1.33   2
   0   6  -4   -0.09    1.92   2
   0  -6   4    0.26    1.72   2
   0   6  -2    9.88    1.25   2
   0  -6   2    3.94    1.70   2
   0   6  -1    2.07    1.93   2
   0  -6   1    0.72    1.73   2
   0   6   0   25.66    1.84   2
   0  -6   0   22.89    2.50   2
   0   6   1   15.48    2.56   2
   0  -6  -1   20.30    2.38   2
   0   6   2   16.49    1.55   2
   0  -6  -2   17.76    2.26   2
   0   6   3    8.13    2.16   2
   0  -6  -3    7.74    1.15   2
   0   6   5   44.41    3.47   2
   0  -6  -5   52.55    3.44   2
   0   6   6    7.85    1.98   2
   0  -6  -6    9.32    2.05   2
   0   6   7    3.85    1.18   2
   0  -6  -7    4.59    1.86   2
   0   6   8   14.47    2.19   2
   0  -6  -8   12.66    2.21   2
   0   6   9   23.72    1.67   2
   0  -6  -9   24.12    2.49   2
   0   6  10   11.83    2.15   2
   0  -6 -10   13.76    2.09   2
   0   6  12   -0.67    1.74   2
   0  -6 -12   -1.00    1.59   2
   0   6  13    0.64    1.68   2
   0  -6 -13    2.65    1.07   2
   0   7 -11    3.66    2.17   2
   0   7 -11    1.41    1.12   2
   0   7 -10    3.33    2.15   2
   0   7 -10    1.31    1.06   2
   0   7  -9    6.43    2.14   2
   0   7  -9    1.27    1.11   2
   0   7  -8    8.57    2.22   2
   0   7  -8    2.95    1.97   2
   0   7  -7   10.38    2.38   2
   0   7  -7    2.94    1.98   2
   0   7  -6    1.65    2.24   2
   0   7  -6    6.61    1.87   2
   0   7  -5    6.94    1.38   2
   0  -7   5    1.51    1.32   2
   0   7  -4   10.08    1.57   2
   0  -7   4    7.86    1.29   2
   0   7  -3   13.99    1.59   2
   0  -7   3   10.71    1.14   2
   0   7  -2   14.76    1.58   2
   0  -7   2   10.86    2.09   2
   0   7  -1   -0.27    2.05   2
   0  -7   1    3.13    1.85   2
   0   7   0    4.74    2.19   2
   0  -7   0    4.04    1.94   2
   0   7   1    0.51    2.14   2
   0  -7  -1    1.24    1.79   2
   0   7   2    6.41    2.29   2
   0  -7  -2    6.45    1.21   2
   0   7   4   -1.58    1.20   2
   0  -7  -4   -2.02    1.14   2
   0   7   5   25.01    2.73   2
   0  -7  -5   24.53    2.59   2
   0   7   6   14.70    2.40   2
   0  -7  -6   10.20    2.18   2
   0   7   7    2.40    1.87   2
   0  -7  -7   -1.32    1.80   2
   0   7   8    6.89    2.06   2
   0  -7  -8    6.72    2.04   2
   0   7   9   12.27    2.41   2
   0  -7  -9   11.90    1.49   2
   0   7  11    2.60    1.79   2
   0  -7 -11   -0.31    1.79   2
   0   7  12    6.22    2.08   2
   0  -7 -12    5.56    1.85   2
   0   8  -7    4.02    2.30   2
   0   8  -7    4.59    1.85   2
   0   8  -6   -5.83    2.17   2
   0   8  -6    3.72    1.80   2
   0   8  -5    1.84    2.31   2
   0  -8   5    1.51    1.26   2
   0   8  -3    4.45    1.26   2
   0  -8   3    1.16    0.97   2
   0   8  -2   -0.92    1.31   2
   0  -8   2    1.24    1.10   2
   0   8  -1   10.51    1.60   2
   0  -8   1    8.78    1.36   2
   0   8   0    4.30    1.44   2
   0  -8   0    1.40    1.24   2
   0   8   1   -1.37    2.40   2
   0  -8  -1    6.31    1.31   2
   0   8   2    0.08    2.23   2
   0  -8  -2    3.69    1.22   2
   0   8   4   21.36    1.94   2
   0  -8  -4   23.51    2.89   2
   0   8   5    4.27    1.31   2
   0  -8  -5    2.03    2.01   2
   0   8   6    1.93    2.05   2
   0  -8  -6   -0.02    1.90   2
   0   8   7    5.48    2.24   2
   0  -8  -7    4.04    1.29   2
   0   8   8    8.14    1.49   2
   0  -8  -8    8.46    2.06   2
   0   8   9    4.37    2.16   2
   0  -8  -9    4.77    2.00   2
   0   9   0    3.28    2.38   2
   0  -9   0   -0.04    1.91   2
   0   9   1    3.57    2.33   2
   0  -9  -1    1.35    2.06   2
   0   9   2    0.81    2.33   2
   0  -9  -2    5.02    2.03   2
   0   9   3    2.36    1.40   2
   0  -9  -3   -0.48    1.20   2
   1  -9  -7    6.06    1.86   2
  -1   9   7    3.09    1.36   2
   1  -9  -6    1.32    1.86   2
  -1   9   6    2.89    2.09   2
   1  -9  -5    1.25    1.86   2
  -1   9   5   -0.42    2.01   2
   1  -9  -4   -0.05    1.14   2
  -1   9   4   -1.99    2.03   2
   1  -9  -3    0.95    1.96   2
  -1   9   3    1.06    1.32   2
   1  -9  -2    4.26    2.05   2
  -1   9   2    3.05    1.48   2
   1  -9   0   -0.42    1.96   2
  -1   9   0    5.33    2.32   2
   1  -9   1    2.87    2.21   2
  -1   9  -1    6.50    2.39   2
   1  -9   2    6.73    2.13   2
  -1   9  -2   -1.23    2.31   2
   1  -9   3    1.96    1.48   2
  -1   9  -3    0.15    2.32   2
   1  -8 -10    4.82    1.74   2
  -1   8  10    1.59    1.86   2
   1  -8  -9   24.23    2.61   2
  -1   8   9   23.08    2.77   2
   1  -8  -7    8.34    2.06   2
  -1   8   7    8.15    2.15   2
   1  -8  -6    2.98    1.88   2
  -1   8   6    3.88    1.88   2
   1  -8  -5    2.37    1.91   2
  -1   8   5    6.11    1.99   2
   1  -8  -4    7.27    1.96   2
  -1   8   4    4.22    1.31   2
   1  -8  -3    1.80    1.68   2
  -1   8   3    1.21    1.98   2
   1  -8  -2    6.05    1.29   2
  -1   8   2    8.65    2.32   2
   1  -8   0    5.52    1.30   2
  -1   8   0    8.10    1.42   2
   1  -8   1    1.44    1.18   2
  -1   8  -1    4.43    2.19   2
   1  -8   2    4.09    1.34   2
  -1   8  -2    4.09    2.35   2
   1  -8   3   50.05    2.93   2
  -1   8  -3   43.78    4.29   2
  -1   8  -4    1.79    1.33   2
  -1   8  -5    6.81    1.49   2
  -1   8  -5    4.18    1.40   2
  -1   8  -6    3.44    2.32   2
  -1   8  -6    2.35    1.68   2
  -1   8  -7   -2.88    2.29   2
  -1   8  -7   -1.21    1.86   2
   1  -7 -12    0.50    0.97   2
  -1   7  12   -1.29    1.52   2
   1  -7 -11    6.67    1.80   2
  -1   7  11    3.99    1.80   2
   1  -7 -10   24.64    2.52   2
  -1   7  10   23.19    2.49   2
   1  -7  -8   10.60    1.99   2
  -1   7   8   18.92    2.09   2
   1  -7  -7    3.05    1.67   2
  -1   7   7    3.57    1.80   2
   1  -7  -6    2.53    1.69   2
  -1   7   6    1.44    1.04   2
   1  -7  -5    4.45    1.82   2
  -1   7   5    3.39    1.88   2
   1  -7  -4    5.65    1.87   2
  -1   7   4    2.99    1.12   2
   1  -7  -3   16.06    2.12   2
  -1   7   3   12.22    2.24   2
   1  -7  -1   14.82    2.12   2
  -1   7   1   11.39    2.37   2
   1  -7   0    4.56    1.21   2
  -1   7   0    7.52    1.31   2
   1  -7   1    6.50    1.23   2
  -1   7  -1    6.02    2.28   2
   1  -7   2    4.48    1.98   2
  -1   7  -2    3.81    2.28   2
   1  -7   3   35.52    2.32   2
  -1   7  -3   39.10    3.52   2
  -1   7  -4    2.57    2.10   2
  -1   7  -4    5.90    1.79   2
  -1   7  -6    4.13    2.27   2
  -1   7  -6    4.00    1.80   2
  -1   7  -7    1.27    1.33   2
  -1   7  -7    3.26    1.08   2
  -1   7  -8   10.08    2.49   2
  -1   7  -8    7.65    1.99   2
  -1   7  -9    3.30    1.37   2
  -1   7  -9    1.81    1.81   2
  -1   7 -10    2.07    2.18   2
  -1   7 -10   -0.69    1.80   2
   1  -6 -13    9.98    1.78   2
  -1   6  13    9.44    1.69   2
   1  -6 -12    3.23    0.94   2
  -1   6  12    0.95    1.51   2
   1  -6 -11    5.67    1.65   2
  -1   6  11    5.12    1.64   2
   1  -6 -10   67.56    3.84   2
  -1   6  10   62.11    3.86   2
   1  -6  -8   18.59    1.34   2
  -1   6   8   18.58    2.10   2
   1  -6  -7   13.43    1.23   2
  -1   6   7   13.80    1.84   2
   1  -6  -6   28.71    1.69   2
  -1   6   6   28.79    2.39   2
   1  -6  -5   25.26    2.26   2
  -1   6   5   20.94    2.30   2
   1  -6  -4    1.74    1.58   2
   1  -6  -3   19.33    2.09   2
  -1   6   3   15.84    1.42   2
   1  -6  -1   20.70    2.21   2
  -1   6   1   15.26    2.31   2
   1  -6   0    7.61    1.92   2
  -1   6   0    8.14    1.25   2
   1  -6   1   13.03    1.38   2
  -1   6  -1   14.32    2.27   2
   1  -6   2  124.47    6.80   2
  -1   6  -2  121.76    6.74   2
   1  -6   3    1.38    1.17   2
  -1   6  -3   -2.69    1.10   2
  -1   6  -4    6.86    1.27   2
  -1   6  -4    3.99    0.96   2
  -1   6  -5    1.85    1.19   2
  -1   6  -5    1.14    1.51   2
  -1   6  -6    2.93    1.23   2
  -1   6  -6    3.63    1.66   2
  -1   6  -7   13.97    2.41   2
  -1   6  -7   10.21    2.02   2
  -1   6  -8    3.04    2.21   2
  -1   6  -8    5.85    1.80   2
  -1   6  -9    9.14    1.61   2
  -1   6  -9   11.13    1.26   2
  -1   6 -10   22.64    2.93   2
  -1   6 -10   15.68    1.47   2
  -1   6 -11   -1.28    2.39   2
  -1   6 -12    3.01    1.49   2
  -1   6 -12    2.37    1.10   2
   1  -5 -15    0.83    1.40   2
  -1   5  15    2.44    1.28   2
   1  -5 -14   17.23    1.89   2
  -1   5  14   14.26    1.81   2
   1  -5 -13   -0.82    1.24   2
  -1   5  13    0.99    1.31   2
   1  -5 -12   10.15    1.65   2
  -1   5  12   14.31    1.58   2
   1  -5 -11   50.78    2.99   2
  -1   5  11   48.42    2.96   2
   1  -5  -9   30.63    2.26   2
  -1   5   9   32.17    2.34   2
   1  -5  -8    9.11    1.60   2
  -1   5   8    6.38    1.52   2
   1  -5  -7    2.66    1.37   2
  -1   5   7    0.42    1.39   2
   1  -5  -6    3.84    1.46   2
  -1   5   6    3.84    1.52   2
   1  -5  -5    4.54    1.55   2
  -1   5   5    5.19    1.58   2
   1  -5  -4   36.31    2.41   2
  -1   5   4   32.37    2.43   2
   1  -5  -2   41.59    2.81   2
  -1   5   2   45.09    2.99   2
   1  -5  -1   17.35    2.09   2
  -1   5   1   19.49    2.24   2
   1  -5   0   12.37    1.85   2
  -1   5   0   13.86    2.09   2
   1  -5   1    8.42    1.83   2
  -1   5  -1    8.51    1.16   2
   1  -5   2   89.84    3.89   2
  -1   5  -2   89.21    5.02   2
  -1   5  -3    9.46    1.29   2
  -1   5  -3    8.65    1.80   2
  -1   5  -5   14.98    1.42   2
  -1   5  -5   16.78    1.98   2
  -1   5  -6   11.46    1.37   2
  -1   5  -6    8.66    1.84   2
  -1   5  -7   38.57    3.34   2
  -1   5  -7   32.22    1.76   2
  -1   5  -8    8.83    1.48   2
  -1   5  -8    8.37    1.10   2
   1  -5   9    5.13    1.20   2
  -1   5  -9    0.71    1.76   2
   1  -5  10   78.05    4.68   2
  -1   5 -10   70.52    4.22   2
   1  -5  12   -0.85    1.02   2
  -1   5 -12    1.45    1.70   2
   1  -5  13    8.60    2.10   2
  -1   5 -13    5.20    1.84   2
   1  -5  14    3.37    1.91   2
  -1   5 -14    3.56    1.89   2
   1  -4 -15    2.94    1.47   2
  -1   4  15    3.81    1.30   2
   1  -4 -14   19.22    1.73   2
  -1   4  14   19.29    2.08   2
   1  -4 -13    3.89    1.35   2
  -1   4  13    2.83    1.28   2
   1  -4 -12    3.33    1.36   2
  -1   4  12    4.03    1.27   2
   1  -4  -9   35.74    2.15   2
  -1   4   9   33.81    2.07   2
   1  -4  -8   39.44    2.30   2
  -1   4   8   39.88    2.29   2
   1  -4  -7   89.66    3.87   2
  -1   4   7   91.65    4.03   2
   1  -4  -6   52.49    2.67   2
  -1   4   6   50.50    2.59   2
   1  -4  -5    3.46    1.29   2
  -1   4   5    1.42    1.23   2
   1  -4  -4   24.31    1.96   2
  -1   4   4   25.02    1.96   2
   1  -4  -2   16.30    1.12   2
  -1   4   2   13.54    1.82   2
   1  -4  -1   22.32    2.14   2
  -1   4   1   25.94    2.22   2
   1  -4   0   28.75    2.34   2
  -1   4   0   28.99    2.34   2
   1  -4   1  277.02   14.09   2
  -1   4  -1  269.10   13.73   2
  -1   4  -2    3.51    1.70   2
  -1   4  -2   -0.30    1.46   2
  -1   4  -3   12.19    2.17   2
  -1   4  -3   14.01    1.13   2
  -1   4  -5    2.92    1.35   2
  -1   4  -5   13.32    1.07   2
   1  -4   6   29.50    2.48   2
  -1   4  -6   30.18    2.39   2
   1  -4   7    5.31    1.76   2
  -1   4  -7    5.25    1.72   2
   1  -4   8   28.74    1.67   2
  -1   4  -8   25.06    1.56   2
   1  -4   9   72.78    4.05   2
  -1   4  -9   72.39    4.22   2
   1  -4  11    7.76    1.18   2
  -1   4 -11    3.65    1.82   2
   1  -4  12   10.81    1.92   2
  -1   4 -12    4.00    1.84   2
   1  -4  13    7.55    2.02   2
  -1   4 -13    7.22    1.22   2
   1  -4  14    7.58    1.83   2
  -1   4 -14    1.58    1.17   2
   1  -4  15    2.28    1.77   2
  -1   4 -15    1.03    1.63   2
   1  -3 -16    2.60    1.37   2
  -1   3  16    4.66    1.17   2
   1  -3 -15   21.70    1.88   2
  -1   3  15   22.40    1.72   2
   1  -3 -14    4.00    1.25   2
  -1   3  14    0.14    1.16   2
   1  -3 -13   10.84    1.49   2
  -1   3  13   11.94    1.49   2
  -1   3  10   62.90    2.83   2
   1  -3  -9   15.77    1.49   2
  -1   3   9   16.44    1.42   2
   1  -3  -8    8.26    1.19   2
  -1   3   8    5.76    1.15   2
   1  -3  -7   10.95    1.34   2
  -1   3   7   15.23    1.77   2
   1  -3  -6   10.49    1.19   2
  -1   3   6    8.31    1.17   2
   1  -3  -5   61.00    2.49   2
  -1   3   5   56.08    2.57   2
   1  -3  -3  115.04    4.70   2
  -1   3   3  112.34    4.58   2
   1  -3  -2   39.92    2.24   2
  -1   3   2   40.41    2.38   2
   1  -3  -1   20.13    1.88   2
  -1   3   1   16.65    1.82   2
   1  -3   0    7.02    1.57   2
  -1   3   0    8.83    1.72   2
  -1   3  -1  170.63    7.60   2
  -1   3  -1  163.11    5.71   2
  -1   3  -2   37.97    2.94   2
  -1   3  -2   32.41    2.34   2
   1  -3   4   36.64    1.65   2
  -1   3  -4   37.71    1.64   2
   1  -3   5   21.64    1.35   2
  -1   3  -5   22.67    1.99   2
   1  -3   6   62.46    3.44   2
  -1   3  -6   62.45    2.35   2
   1  -3   7   22.24    2.09   2
  -1   3  -7   21.97    2.06   2
   1  -3   8    3.44    1.59   2
  -1   3  -8    7.56    1.59   2
   1  -3   9  210.74    9.31   2
  -1   3  -9  227.58   11.67   2
   1  -3  11    2.08    1.58   2
  -1   3 -11    0.94    1.65   2
   1  -3  12   15.41    2.16   2
  -1   3 -12   20.67    2.19   2
   1  -3  13    1.77    1.67   2
  -1   3 -13   -1.21    1.48   2
   1  -3  14   10.75    1.85   2
  -1   3 -14   11.09    1.34   2
   1  -3  15    2.75    1.70   2
  -1   3 -15   -1.32    1.67   2
   1  -3  16    2.62    1.68   2
  -1   3 -16    1.25    1.65   2
   1  -2 -16    7.87    1.55   2
  -1   2  16    8.67    1.38   2
   1  -2 -15   19.97    1.80   2
  -1   2  15   22.09    1.72   2
   1  -2 -14    6.21    1.32   2
  -1   2  14    8.20    1.54   2
   1  -2 -13    1.08    1.20   2
  -1   2  13    4.57    1.37   2
   1  -2 -10   47.05    2.23   2
  -1   2  10   49.62    2.20   2
   1  -2  -9   73.30    2.83   2
  -1   2   9   70.50    2.71   2
   1  -2  -8  173.98    6.47   2
  -1   2   8  175.90    6.47   2
   1  -2  -7   85.50    3.61   2
  -1   2   7   79.17    2.89   2
   1  -2  -6    0.59    0.85   2
  -1   2   6    1.02    0.88   2
   1  -2  -5   36.79    1.57   2
  -1   2   5   34.26    1.66   2
   1  -2  -3   27.54    1.51   2
  -1   2   3   27.61    1.51   2
   1  -2  -2   68.19    2.51   2
  -1   2   2   65.84    2.64   2
   1  -2  -1   45.68    2.32   2
  -1   2   1   48.15    1.60   2
  -1   2   0  485.73   27.27   2
  -1   2   0  500.40   26.40   2
   1  -2   1   -0.30    0.80   2
  -1   2  -1    0.86    1.37   2
  -1   2  -2   15.64    1.13   2
  -1   2  -3   24.51    1.32   2
   1  -2   4   34.72    2.30   2
  -1   2  -4   29.58    1.44   2
   1  -2   5   58.98    2.24   2
  -1   2  -5   62.28    3.07   2
   1  -2   6   14.43    1.74   2
  -1   2  -6    8.72    1.61   2
   1  -2   7   54.78    2.10   2
  -1   2  -7   48.99    3.06   2
   1  -2   8  182.68    8.34   2
  -1   2  -8  172.29    8.23   2
   1  -2  11   14.84    1.95   2
  -1   2 -11    9.36    1.90   2
   1  -2  12    6.44    1.07   2
  -1   2 -12    5.18    1.84   2
   1  -2  13    7.22    1.10   2
  -1   2 -13    7.48    2.02   2
   1  -2  14    7.15    1.72   2
  -1   2 -14    0.46    1.86   2
   1  -2  15    2.62    1.62   2
  -1   2 -15    1.93    1.04   2
   1  -1 -17    6.98    1.54   2
  -1   1  17    8.05    1.39   2
   1  -1 -16   20.44    1.77   2
  -1   1  16   14.86    1.54   2
   1  -1 -15    6.55    1.39   2
  -1   1  15    6.77    1.26   2
   1  -1 -14    7.42    1.35   2
  -1   1  14    6.75    1.24   2
   1  -1 -13   43.24    2.38   2
  -1   1  13   45.97    2.26   2
   1  -1 -10   21.54    1.41   2
  -1   1  10   20.83    1.38   2
   1  -1  -9    6.35    1.07   2
  -1   1   9    6.17    0.94   2
   1  -1  -8   19.65    1.63   2
  -1   1   8   18.62    1.45   2
   1  -1  -7    7.85    0.94   2
  -1   1   7   10.32    1.19   2
   1  -1  -6   73.15    2.72   2
  -1   1   6   63.60    2.06   2
   1  -1  -4  181.73    5.40   2
  -1   1   4  183.18    5.34   2
   1  -1  -3   68.00    1.96   2
  -1   1   3   70.72    1.77   2
   1  -1  -2   18.98    0.86   2
  -1   1   2   21.49    0.60   2
   1  -1  -1    2.01    0.67   2
  -1   1   1    2.71    0.68   2
   1  -1   0  220.18    8.04   2
  -1   1   0  223.44    8.01   2
   1  -1   1   70.97    2.27   2
  -1   1  -1   82.06    3.27   2
   1  -1   3   85.97    2.83   2
  -1   1  -3   90.33    4.03   2
   1  -1   4   33.76    2.20   2
  -1   1  -4   33.58    2.19   2
   1  -1   5   98.66    4.30   2
  -1   1  -5   93.33    4.13   2
   1  -1   6   37.99    2.41   2
  -1   1  -6   36.35    1.66   2
   1  -1   7    5.96    1.54   2
  -1   1  -7    4.31    1.59   2
   1  -1   8  526.51   31.39   2
  -1   1  -8  484.86   30.50   2
   1  -1  10   12.22    1.67   2
  -1   1 -10    7.31    1.70   2
   1  -1  11   43.57    2.58   2
  -1   1 -11   39.60    2.79   2
   1  -1  12    2.13    0.89   2
  -1   1 -12   -1.92    1.54   2
   1  -1  13   25.63    2.23   2
  -1   1 -13   22.72    2.30   2
   1  -1  14    8.77    1.86   2
  -1   1 -14    7.18    1.89   2
   1  -1  15    3.56    1.06   2
   1   0 -17    7.79    1.61   2
  -1   0  17   10.45    1.44   2
   1   0 -16   14.62    1.73   2
  -1   0  16   13.17    1.56   2
   1   0 -15    8.97    1.47   2
  -1   0  15    5.53    1.30   2
   1   0 -14    1.56    1.19   2
  -1   0  14   -0.32    1.13   2
   1   0 -11   28.91    2.24   2
  -1   0  11   28.19    1.57   2
   1   0 -10   73.14    2.91   2
  -1   0  10   72.63    2.83   2
   1   0  -9  145.99    5.41   2
  -1   0   9  143.44    5.10   2
   1   0  -8   73.85    2.72   2
  -1   0   8   68.73    2.48   2
   1   0  -7    0.48    0.84   2
  -1   0   7    0.46    0.79   2
   1   0  -6   18.65    1.06   2
   1   0  -5  998.89   74.91   2
   1   0  -4   28.59    1.37   2
  -1   0   4   29.87    1.41   2
   1   0  -3   95.16    2.64   2
   1   0  -2   61.63    1.83   2
  -1   0   2   57.48    1.74   2
   1   0  -1  390.69   15.41   2
  -1   0   1  391.23   15.45   2
   1   0   0    0.81    0.53   2
  -1   0   0    1.15    1.00   2
   1   0   1    8.55    1.04   2
  -1   0  -1    7.53    0.92   2
   1   0   2   15.67    0.72   2
  -1   0  -2   15.37    0.70   2
   1   0   3   32.62    2.12   2
  -1   0  -3   27.63    1.29   2
   1   0   4   96.49    4.52   2
  -1   0  -4   87.26    4.13   2
   1   0   5   19.42    1.93   2
  -1   0  -5   21.41    1.89   2
   1   0   6   77.37    3.72   2
  -1   0  -6   78.13    3.56   2
   1   0   7  281.35   11.84   2
  -1   0  -7  294.24   14.24   2
  -1   0  -8   79.72    3.71   2
  -1   0  -9   20.91    1.37   2
   1   0  10   12.42    1.15   2
  -1   0 -10   17.48    1.89   2
   1   0  11    5.12    1.58   2
  -1   0 -11    5.26    1.67   2
   1   0  12    7.94    1.10   2
  -1   0 -12    6.00    1.11   2
   1   0  13    7.79    1.74   2
  -1   0 -13    8.61    1.89   2
   1   0  14    9.94    1.78   2
  -1   0 -14    3.05    1.91   2
   1   1 -17    7.75    1.58   2
  -1  -1  17    6.72    1.42   2
   1   1 -16    6.81    1.52   2
  -1  -1  16    9.32    1.44   2
   1   1 -15    4.98    1.45   2
  -1  -1  15    6.37    1.30   2
   1   1 -14   21.00    1.94   2
  -1  -1  14   19.58    1.71   2
   1   1 -12   22.38    1.79   2
  -1  -1  12   19.53    1.65   2
   1   1 -11   14.65    1.34   2
  -1  -1  11   14.28    1.36   2
   1   1 -10    1.26    1.03   2
  -1  -1  10    0.87    1.01   2
   1   1  -9   14.12    1.28   2
  -1  -1   9   13.65    1.26   2
   1   1  -8    5.34    1.02   2
  -1  -1   8    5.45    1.06   2
   1   1  -7   43.97    1.88   2
  -1  -1   7   44.07    1.87   2
   1   1  -4   64.80    2.64   2
   1   1  -4   69.91    2.55   2
   1   1  -3   18.29    1.46   2
  -1  -1   3   15.08    1.43   2
   1   1  -2    3.52    1.33   2
  -1  -1   2    4.59    1.28   2
   1   1  -1  105.78    4.51   2
  -1  -1   1  110.86    4.65   2
   1   1   0   72.78    2.53   2
  -1  -1   0   76.23    3.51   2
   1   1   2   80.85    3.66   2
  -1  -1  -2   83.71    2.72   2
   1   1   3   15.21    1.23   2
  -1  -1  -3   14.99    1.22   2
   1   1   4   97.52    3.37   2
  -1  -1  -4   99.34    4.59   2
   1   1   5   51.64    2.90   2
  -1  -1  -5   49.52    2.78   2
   1   1   6    7.38    1.61   2
  -1  -1  -6    6.38    0.94   2
   1   1   7  824.51   61.29   2
  -1  -1  -7  810.06   60.27   2
   1   1   9   31.23    2.30   2
  -1  -1  -9   20.58    1.42   2
   1   1  10   63.39    3.31   2
  -1  -1 -10   49.63    2.23   2
   1   1  11    7.67    1.86   2
  -1  -1 -11   13.82    1.19   2
   1   1  12   37.64    2.70   2
  -1  -1 -12   42.59    2.91   2
   1   1  13   16.08    1.84   2
  -1  -1 -13   12.73    2.04   2
  -1  -1 -16    1.93    1.09   2
   1   2 -16    4.73    1.52   2
  -1  -2  16    3.36    1.45   2
   1   2 -15   -0.79    1.30   2
  -1  -2  15   -2.13    1.24   2
   1   2 -14   20.20    1.84   2
  -1  -2  14   20.91    2.03   2
   1   2 -12   18.02    1.79   2
  -1  -2  12   16.64    1.66   2
   1   2 -11   44.78    2.54   2
  -1  -2  11   44.27    2.44   2
   1   2 -10   68.12    3.20   2
  -1  -2  10   70.74    3.21   2
   1   2  -9   40.00    2.21   2
  -1  -2   9   40.16    1.56   2
   1   2  -8    0.57    0.60   2
  -1  -2   8   -0.29    1.13   2
   1   2  -7    3.70    0.86   2
   1   2  -7    2.42    0.68   2
   1   2  -5   13.92    1.57   2
   1   2  -5   12.30    1.42   2
   1   2  -4   59.61    3.04   2
  -1  -2   4   58.13    2.07   2
   1   2  -3   41.48    1.73   2
  -1  -2   3   42.76    2.48   2
   1   2  -2   73.12    2.60   2
  -1  -2   2   77.70    3.74   2
   1   2  -1    6.62    1.82   2
  -1  -2   1    4.08    1.63   2
  -1  -2   0   14.44    2.06   2
   1   2   2    2.90    1.64   2
  -1  -2  -2    1.36    1.66   2
   1   2   3   54.95    2.30   2
  -1  -2  -3   58.90    3.34   2
   1   2   4   18.69    2.14   2
  -1  -2  -4   20.83    1.36   2
   1   2   5   58.79    3.35   2
  -1  -2  -5   53.82    3.10   2
   1   2   6  266.60   11.03   2
  -1  -2  -6  272.13   13.15   2
   1   2   9   17.86    1.83   2
  -1  -2  -9   16.40    1.31   2
   1   2  10    4.02    1.57   2
  -1  -2 -10    1.20    1.64   2
   1   2  11    2.02    1.64   2
  -1  -2 -11    5.36    1.77   2
   1   2  12    5.22    1.74   2
  -1  -2 -12    6.44    1.82   2
   1   2  13   15.05    2.17   2
   1   3 -16    4.35    1.49   2
  -1  -3  16    5.92    1.51   2
   1   3 -15    5.83    1.49   2
  -1  -3  15    2.99    1.54   2
   1   3 -13    7.96    1.61   2
  -1  -3  13    7.16    1.49   2
   1   3 -12    2.10    1.14   2
   1   3 -12   13.17    1.57   2
   1   3 -11    1.33    1.02   2
   1   3 -11    1.61    1.36   2
   1   3 -10    7.13    1.95   2
   1   3 -10   10.44    1.50   2
   1   3  -9    6.06    1.58   2
   1   3  -9    5.30    1.34   2
   1   3  -8   23.05    2.02   2
   1   3  -8   19.12    1.82   2
   1   3  -6   94.43    4.42   2
   1   3  -6   91.28    4.04   2
   1   3  -5   43.63    2.78   2
  -1  -3   5   43.95    2.01   2
   1   3  -4   12.77    1.84   2
  -1  -3   4    8.31    1.69   2
   1   3  -3    3.54    1.62   2
  -1  -3   3    3.73    0.97   2
   1   3  -2   23.49    2.15   2
  -1  -3   2   19.00    2.07   2
   1   3  -1   37.39    2.86   2
  -1  -3   1   38.84    1.80   2
   1   3   1   46.59    2.93   2
  -1  -3  -1   44.68    2.84   2
   1   3   2   -1.47    0.93   2
  -1  -3  -2    3.03    1.58   2
   1   3   3   56.38    3.42   2
  -1  -3  -3   54.82    3.31   2
   1   3   4   36.96    2.65   2
  -1  -3  -4   34.67    1.74   2
   1   3   5    2.63    0.99   2
  -1  -3  -5    3.00    1.58   2
   1   3   6  473.28   29.05   2
  -1  -3  -6  478.52   29.68   2
   1   3   8   23.82    1.52   2
  -1  -3  -8   25.22    2.29   2
   1   3   9   49.02    3.13   2
  -1  -3  -9   50.04    3.26   2
   1   3  10   19.22    2.33   2
  -1  -3 -10   24.33    2.34   2
   1   3  11   30.37    2.63   2
  -1  -3 -11   33.80    2.66   2
   1   3  12   24.57    2.46   2
  -1  -3 -12   24.67    2.50   2
   1   3  13    1.77    0.95   2
  -1  -3 -15    1.34    1.10   2
   1   4 -15    6.87    2.03   2
   1   4 -15    2.50    1.57   2
   1   4 -13    5.38    1.10   2
   1   4 -13    5.13    1.68   2
   1   4 -12   20.55    2.32   2
   1   4 -12   21.04    1.41   2
   1   4 -11   17.99    2.27   2
   1   4 -11   20.00    2.07   2
   1   4 -10   15.40    2.14   2
   1   4 -10   17.57    1.81   2
   1   4  -9    1.16    0.95   2
   1   4  -9    2.15    1.44   2
   1   4  -8   -0.19    0.89   2
   1   4  -8   -0.54    1.37   2
   1   4  -6    8.41    1.02   2
  -1  -4   6    1.22    1.13   2
   1   4  -5   28.55    2.42   2
  -1  -4   5   27.38    1.56   2
   1   4  -4   27.29    2.52   2
  -1  -4   4   25.17    1.53   2
   1   4  -3    7.77    1.85   2
  -1  -4   3    4.31    1.09   2
   1   4  -2    6.89    1.17   2
  -1  -4   2    5.79    1.09   2
   1   4  -1    6.54    1.94   2
  -1  -4   1   10.20    1.16   2
   1   4   1    3.12    1.72   2
  -1  -4  -1    7.42    1.70   2
   1   4   2   29.63    2.54   2
  -1  -4  -2   27.80    2.59   2
   1   4   3   12.01    2.11   2
  -1  -4  -3   13.48    1.27   2
   1   4   4   28.56    2.67   2
  -1  -4  -4   25.72    2.45   2
   1   4   5  150.04    6.20   2
  -1  -4  -5  148.97    7.52   2
   1   4   8   10.64    2.04   2
  -1  -4  -8   12.91    1.99   2
   1   4   9    1.59    1.03   2
  -1  -4  -9    1.23    1.66   2
   1   4  10    3.62    1.76   2
  -1  -4 -10    2.75    1.77   2
   1   4  11    5.18    1.97   2
  -1  -4 -11   10.19    1.91   2
   1   4  12    9.20    2.10   2
  -1  -4 -12   11.55    1.29   2
   1   5 -14    1.86    1.74   2
   1   5 -14   -0.29    1.60   2
   1   5 -13    6.01    1.91   2
   1   5 -13    3.71    1.68   2
   1   5 -12    1.07    1.66   2
   1   5 -12    0.28    1.54   2
   1   5 -11    8.65    1.91   2
   1   5 -11    6.71    1.70   2
   1   5 -10    2.59    1.84   2
   1   5 -10    1.49    1.50   2
   1   5  -9    9.68    2.03   2
   1   5  -9    3.36    1.71   2
   1   5  -7   38.78    3.07   2
   1   5  -7   35.61    2.72   2
   1   5  -6   21.17    2.39   2
  -1  -5   6   19.25    1.66   2
   1   5  -5    3.77    1.94   2
  -1  -5   5    3.00    1.64   2
   1   5  -4    1.57    1.93   2
  -1  -5   4    4.41    1.75   2
   1   5  -3    1.80    1.09   2
  -1  -5   3    1.59    1.06   2
   1   5  -2   14.93    2.39   2
  -1  -5   2   11.69    2.04   2
   1   5   0   18.92    2.01   2
  -1  -5   0   14.25    1.97   2
   1   5   1    6.52    1.95   2
  -1  -5  -1    4.58    1.11   2
   1   5   2   22.31    1.60   2
  -1  -5  -2   22.10    2.42   2
   1   5   3   18.62    2.46   2
  -1  -5  -3   18.50    2.35   2
   1   5   4    4.06    1.07   2
  -1  -5  -4   -1.13    1.07   2
   1   5   5  211.48   11.78   2
  -1  -5  -5  188.96    8.74   2
   1   5   7   10.27    2.18   2
  -1  -5  -7   13.72    1.39   2
   1   5   8   26.78    1.90   2
  -1  -5  -8   31.50    2.70   2
   1   5   9   15.05    2.36   2
  -1  -5  -9   14.09    2.09   2
   1   5  10   22.87    2.55   2
  -1  -5 -10   20.08    2.52   2
   1   5  11   22.60    2.62   2
  -1  -5 -11   18.37    2.50   2
   1   5  12    0.72    1.08   2
   1   5  14    2.82    1.91   2
  -1  -5 -14    2.42    1.72   2
   1   6 -14    0.49    1.10   2
   1   6 -14    1.17    1.60   2
   1   6 -13    5.18    2.09   2
   1   6 -13    7.26    1.82   2
   1   6 -12   -0.21    2.01   2
   1   6 -12    2.26    1.72   2
   1   6 -11    2.70    2.06   2
   1   6 -11    5.22    1.14   2
   1   6 -10    2.00    1.91   2
   1   6 -10    1.26    1.63   2
   1   6  -9    0.65    1.84   2
   1   6  -9   -0.76    1.58   2
   1   6  -7    4.01    2.05   2
   1   6  -7    3.90    1.08   2
   1   6  -6   10.66    2.32   2
  -1  -6   6   11.72    2.33   2
   1   6  -5   12.21    2.42   2
  -1  -6   5    9.28    2.10   2
   1   6  -4   -2.82    1.93   2
  -1  -6   4   -0.78    1.71   2
   1   6  -3    0.33    2.05   2
  -1  -6   3    2.82    1.86   2
   1   6  -2    3.25    1.30   2
  -1  -6   2    4.86    1.12   2
   1   6  -1    7.18    1.96   2
  -1  -6   1    5.24    1.72   2
   1   6   0    7.50    2.01   2
  -1  -6   0    7.26    1.93   2
   1   6   1    9.96    1.45   2
  -1  -6  -1    9.28    2.07   2
   1   6   2    5.32    2.25   2
  -1  -6  -2    7.42    1.26   2
   1   6   3    8.76    1.38   2
  -1  -6  -3   10.10    1.40   2
   1   6   4   57.45    4.20   2
  -1  -6  -4   53.19    3.93   2
  -1  -6  -5   16.73    1.62   2
   1   6   6    8.63    1.45   2
  -1  -6  -6    6.79    1.36   2
   1   6   7   10.69    2.26   2
  -1  -6  -7    6.66    1.29   2
   1   6   8    3.20    1.96   2
  -1  -6  -8   -0.86    1.70   2
   1   6   9    1.44    1.20   2
  -1  -6  -9    3.33    1.92   2
   1   6  10    2.09    1.98   2
  -1  -6 -10    2.84    1.87   2
   1   6  11    7.64    2.15   2
  -1  -6 -11    3.99    2.01   2
   1   7 -11    0.30    1.97   2
   1   7 -11    1.12    1.63   2
   1   7 -10    4.17    1.26   2
   1   7 -10    1.25    1.73   2
   1   7  -8   12.87    2.56   2
   1   7  -8   10.94    2.18   2
   1   7  -7    5.58    1.45   2
  -1  -7   7    3.21    1.38   2
   1   7  -6    3.03    2.16   2
  -1  -7   6    3.75    2.00   2
   1   7  -5   -0.83    2.15   2
  -1  -7   5   -2.83    1.82   2
   1   7  -4   -3.40    2.12   2
  -1  -7   4    0.52    1.11   2
   1   7  -3    6.83    2.15   2
  -1  -7   3    2.11    1.96   2
   1   7  -1    6.21    1.84   2
  -1  -7   1    5.39    1.60   2
   1   7   0    4.82    1.39   2
  -1  -7   0    4.26    2.00   2
   1   7   1   12.11    1.51   2
  -1  -7  -1    6.14    2.28   2
   1   7   2    7.67    2.41   2
  -1  -7  -2    8.56    2.13   2
   1   7   3   -0.90    2.10   2
  -1  -7  -3    3.75    1.99   2
   1   7   4   69.87    5.01   2
  -1  -7  -4   61.14    4.61   2
   1   7   6    4.76    2.10   2
  -1  -7  -6    6.46    2.11   2
   1   7   7   13.52    2.63   2
  -1  -7  -7   12.35    1.55   2
   1   7   8    8.19    2.33   2
  -1  -7  -8    6.24    2.22   2
   1   7   9    7.14    1.50   2
  -1  -7  -9    8.39    2.24   2
   1   7  10   11.34    2.29   2
  -1  -7 -10   10.49    2.33   2
   1   8  -7    2.62    1.47   2
   1   8  -6    5.99    2.31   2
  -1  -8   6    2.95    2.12   2
   1   8  -5    0.55    2.06   2
  -1  -8   5    4.71    1.93   2
   1   8  -4   -0.75    2.13   2
  -1  -8   4    1.60    1.86   2
   1   8  -3   -0.27    2.35   2
  -1  -8   3    5.90    2.01   2
   1   8  -2    1.98    1.43   2
  -1  -8   2    4.70    1.17   2
   1   8  -1    6.53    2.22   2
  -1  -8   1    4.43    1.13   2
   1   8   0    1.86    2.37   2
  -1  -8   0    3.63    1.25   2
   1   8   1    7.31    2.36   2
  -1  -8  -1    3.01    2.14   2
   1   8   2    3.88    2.26   2
  -1  -8  -2   -0.95    1.89   2
  -1  -8  -3   12.20    2.50   2
   1   8   4    8.62    2.47   2
  -1  -8  -4    1.78    2.32   2
   1   8   5    3.13    2.29   2
  -1  -8  -5    4.69    1.31   2
   1   8   6    2.57    1.33   2
  -1  -8  -6    2.92    1.97   2
   2  -9  -8    4.09    1.67   2
  -2   9   8    1.95    1.10   2
   2  -9  -7   -0.34    1.02   2
  -2   9   7    4.90    1.80   2
   2  -9  -5    0.48    1.77   2
  -2   9   5    2.13    1.85   2
   2  -9  -4    1.75    1.75   2
  -2   9   4    6.88    2.08   2
   2  -9  -3    1.46    1.16   2
  -2   9   3    4.48    2.03   2
   2  -9  -2    4.02    1.23   2
  -2   9   2    4.37    1.32   2
   2  -9  -1   14.00    2.56   2
  -2   9   1   15.63    2.76   2
   2  -9   0    3.27    2.14   2
  -2   9   0    0.50    2.09   2
  -2   9  -2    2.90    2.06   2
  -2   9  -2   -0.93    1.76   2
  -2   9  -3   -0.95    1.38   2
  -2   9  -3   -1.00    1.73   2
   2  -8 -11    0.56    1.51   2
  -2   8  11    0.84    1.54   2
   2  -8 -10    2.18    1.54   2
   2  -8  -9    4.03    1.61   2
  -2   8   9    2.50    1.67   2
   2  -8  -8    8.41    1.72   2
  -2   8   8    2.04    1.74   2
   2  -8  -6    2.96    1.65   2
  -2   8   6    5.24    1.76   2
   2  -8  -5   17.69    2.35   2
  -2   8   5   15.74    2.29   2
   2  -8  -4   -3.49    1.70   2
  -2   8   4   -1.00    1.10   2
   2  -8  -3   10.51    2.03   2
  -2   8   3   11.92    2.26   2
   2  -8  -2   52.73    3.93   2
  -2   8   2   52.92    4.02   2
   2  -8  -1    5.74    1.92   2
  -2   8   1    0.41    2.03   2
   2  -8   1    0.81    1.25   2
  -2   8  -1   -0.52    2.05   2
  -2   8  -2    3.21    2.08   2
  -2   8  -2   -1.03    1.67   2
  -2   8  -3    4.06    2.04   2
  -2   8  -3    2.28    1.74   2
  -2   8  -4    1.46    2.28   2
  -2   8  -4    2.43    1.78   2
  -2   8  -5    4.21    1.49   2
  -2   8  -5    3.75    1.88   2
  -2   8  -6    2.01    2.41   2
  -2   8  -6    4.84    1.84   2
   2  -7 -12    0.39    1.33   2
  -2   7  12   -1.57    1.37   2
   2  -7 -11   -1.81    1.35   2
  -2   7  11    0.35    1.38   2
   2  -7 -10    0.71    1.27   2
  -2   7  10   -0.57    1.38   2
   2  -7  -9    0.81    1.31   2
  -2   7   9    1.42    1.53   2
   2  -7  -8    4.72    1.59   2
  -2   7   8    5.45    1.65   2
   2  -7  -6    5.16    1.55   2
  -2   7   6    4.11    1.66   2
   2  -7  -5   12.31    1.86   2
  -2   7   5   11.23    1.93   2
   2  -7  -4    3.56    1.61   2
  -2   7   4    7.45    1.87   2
   2  -7  -3    3.59    1.65   2
  -2   7   3    1.98    1.80   2
   2  -7  -2   58.54    3.58   2
  -2   7   2   51.54    3.65   2
   2  -7  -1   -1.72    1.58   2
  -2   7   1    0.56    1.73   2
  -2   7  -1    2.26    1.95   2
  -2   7  -1    3.38    0.94   2
  -2   7  -2    2.44    1.22   2
  -2   7  -2    0.18    0.94   2
  -2   7  -3    7.74    1.42   2
  -2   7  -3    8.98    1.21   2
  -2   7  -4    9.26    1.43   2
  -2   7  -4    9.50    1.21   2
  -2   7  -5    2.20    2.20   2
  -2   7  -5    7.22    1.17   2
  -2   7  -6   11.08    2.68   2
  -2   7  -6   11.71    1.36   2
  -2   7  -7    7.93    1.53   2
  -2   7  -7    4.09    1.26   2
  -2   7  -8    0.66    2.19   2
  -2   7  -8    0.73    1.06   2
  -2   7  -9    1.77    1.49   2
  -2   7  -9    3.88    1.16   2
  -2   6  14    4.66    1.28   2
   2  -6 -13   14.77    1.60   2
  -2   6  13   17.71    1.65   2
   2  -6 -12   -0.29    1.21   2
  -2   6  12    4.52    1.27   2
   2  -6 -11    0.78    1.21   2
  -2   6  11    0.71    1.28   2
   2  -6 -10    6.22    1.34   2
  -2   6  10    4.01    1.37   2
   2  -6  -9    8.99    1.52   2
  -2   6   9    7.21    1.42   2
   2  -6  -7    4.72    1.47   2
  -2   6   7    8.22    1.50   2
   2  -6  -6   39.36    2.55   2
  -2   6   6   45.60    2.69   2
   2  -6  -5   -1.59    1.29   2
  -2   6   5    0.03    1.29   2
   2  -6  -4   19.27    1.84   2
  -2   6   4   15.51    1.90   2
   2  -6  -3  154.86    7.55   2
  -2   6   3  157.30    7.76   2
  -2   6   2   -1.54    1.62   2
   2  -6   0    2.89    1.17   2
  -2   6   0    3.31    1.01   2
  -2   6  -1    5.02    1.82   2
  -2   6  -1    2.42    1.52   2
  -2   6  -2    6.16    2.02   2
  -2   6  -2    8.36    1.70   2
  -2   6  -3    5.49    1.17   2
  -2   6  -3    2.95    1.01   2
  -2   6  -4   13.26    1.47   2
  -2   6  -4    9.41    1.15   2
  -2   6  -5   19.67    2.71   2
  -2   6  -5   17.62    1.42   2
  -2   6  -7   10.68    1.62   2
  -2   6  -7    5.68    1.19   2
  -2   6  -8   -3.05    1.53   2
  -2   6  -8    9.88    1.13   2
   2  -6   9   12.53    1.50   2
  -2   6  -9   12.47    1.36   2
   2  -6  10    5.39    2.26   2
  -2   6 -10   10.68    1.38   2
   2  -6  11    4.76    2.11   2
  -2   6 -11    6.14    1.24   2
   2  -5 -14   17.61    1.65   2
  -2   5  14   18.83    1.62   2
   2  -5 -13    2.89    1.13   2
  -2   5  13    1.34    1.16   2
   2  -5 -12   -0.67    1.49   2
  -2   5  12    0.36    1.44   2
   2  -5 -11   -1.10    1.11   2
  -2   5  11    3.05    1.41   2
   2  -5 -10    5.61    1.62   2
  -2   5  10    4.92    1.17   2
   2  -5  -9   10.55    1.42   2
  -2   5   9   11.34    1.38   2
   2  -5  -7   10.88    1.40   2
  -2   5   7    9.54    1.36   2
   2  -5  -6   23.87    1.76   2
  -2   5   6   25.49    1.72   2
   2  -5  -5   11.31    1.40   2
  -2   5   5    9.06    1.39   2
   2  -5  -4    8.43    1.45   2
  -2   5   4    8.66    1.53   2
   2  -5  -3  127.64    5.64   2
  -2   5   3  131.15    5.76   2
   2  -5  -2    2.65    1.43   2
  -2   5   2    4.22    1.52   2
  -2   5   0   14.47    1.97   2
  -2   5   0   11.32    1.08   2
  -2   5  -1   13.89    1.92   2
  -2   5  -1    9.20    1.73   2
  -2   5  -2   28.54    1.75   2
  -2   5  -2   29.86    1.46   2
  -2   5  -3   23.94    2.51   2
  -2   5  -3   25.90    2.29   2
  -2   5  -4   12.61    1.54   2
  -2   5  -4   14.08    1.89   2
   2  -5   5   54.81    2.73   2
  -2   5  -5   53.79    3.68   2
   2  -5   7    0.35    1.75   2
  -2   5  -7    1.75    1.63   2
   2  -5   8   11.06    1.31   2
  -2   5  -8    5.43    2.02   2
   2  -5   9   54.32    3.88   2
  -2   5  -9   53.34    3.70   2
   2  -5  10    3.41    1.99   2
  -2   5 -10    3.14    1.79   2
   2  -5  11   -0.84    1.16   2
  -2   5 -11   -1.27    1.71   2
   2  -5  13    5.45    1.29   2
  -2   5 -13    3.06    1.26   2
   2  -4 -14   34.23    2.54   2
  -2   4  14   32.48    1.83   2
   2  -4 -13    4.09    1.12   2
  -2   4  13    3.97    1.02   2
   2  -4 -12   10.44    1.19   2
  -2   4  12    5.81    1.43   2
   2  -4 -11    9.38    1.50   2
  -2   4  11    6.85    1.12   2
   2  -4 -10    8.35    1.10   2
  -2   4  10    8.22    1.09   2
   2  -4  -8    3.20    0.96   2
  -2   4   8    4.03    1.33   2
   2  -4  -7   67.04    3.27   2
  -2   4   7   74.01    3.49   2
   2  -4  -6    2.60    1.34   2
  -2   4   6    1.25    0.95   2
   2  -4  -5   25.30    1.52   2
  -2   4   5   22.77    1.41   2
   2  -4  -4  325.88   15.12   2
  -2   4   4  311.79   14.62   2
   2  -4  -3   -0.18    1.02   2
  -2   4   3    1.96    1.08   2
   2  -4  -1    0.70    0.97   2
  -2   4   1   12.73    0.95   2
  -2   4   0   22.24    2.07   2
  -2   4   0   21.35    1.84   2
  -2   4  -1   22.90    2.20   2
  -2   4  -1   17.60    1.83   2
  -2   4  -2    1.06    1.13   2
  -2   4  -2    8.63    1.41   2
   2  -4   3   31.08    1.55   2
  -2   4  -3   27.96    1.54   2
   2  -4   4   63.68    2.55   2
  -2   4  -4   67.49    3.63   2
   2  -4   6   21.75    2.29   2
  -2   4  -6   22.44    2.28   2
   2  -4   7   20.21    1.43   2
  -2   4  -7   19.11    2.18   2
  -2   4  -8   26.52    2.42   2
   2  -4   9   25.91    2.71   2
  -2   4  -9   31.38    2.74   2
   2  -4  10    9.50    1.20   2
  -2   4 -10   10.30    2.03   2
   2  -4  11   -1.00    1.02   2
  -2   4 -11    5.86    1.70   2
   2  -4  13    0.27    1.12   2
  -2   4 -13    1.82    1.59   2
   2  -4  14    4.38    1.15   2
  -2   4 -14    1.98    1.99   2
   2  -3 -15   33.48    2.10   2
  -2   3  15   52.86    2.42   2
   2  -3 -14    6.26    1.13   2
  -2   3  14    5.32    1.19   2
   2  -3 -13    0.90    0.96   2
  -2   3  13    0.40    0.84   2
   2  -3 -12    1.72    0.90   2
  -2   3  12    1.63    0.91   2
   2  -3 -11    1.53    0.92   2
  -2   3  11    4.72    0.79   2
  -2   3  10   18.41    1.12   2
   2  -3  -8   24.71    1.27   2
  -2   3   8   28.27    1.58   2
   2  -3  -7   40.39    1.86   2
  -2   3   7   39.19    1.52   2
   2  -3  -6   18.18    1.29   2
  -2   3   6   18.32    1.05   2
   2  -3  -5    6.17    1.16   2
  -2   3   5    8.79    0.86   2
   2  -3  -4  222.66    8.11   2
  -2   3   4  223.11    8.28   2
   2  -3  -3   10.67    1.04   2
  -2   3   1   40.21    2.18   2
  -2   3   1   37.99    1.94   2
   2  -3   0   58.62    1.94   2
  -2   3   0   65.36    2.77   2
   2  -3   1   54.50    1.99   2
  -2   3  -1   53.40    2.69   2
   2  -3   2   72.75    3.35   2
  -2   3  -2   64.80    3.32   2
   2  -3   3   13.63    1.87   2
  -2   3  -3   17.74    1.20   2
   2  -3   4  259.58   13.81   2
   2  -3   6    0.42    1.54   2
  -2   3  -6    0.43    1.52   2
   2  -3   7   18.36    1.32   2
  -2   3  -7   15.00    2.07   2
   2  -3   8   94.38    4.96   2
  -2   3  -8   87.87    4.76   2
   2  -3   9    9.05    1.73   2
  -2   3  -9    5.61    1.13   2
   2  -3  10    3.01    1.71   2
  -2   3 -10    2.59    1.48   2
   2  -3  13   27.04    2.73   2
  -2   3 -13   21.87    2.68   2
   2  -3  14   10.70    2.18   2
  -2   3 -14   11.26    2.19   2
   2  -3  15    1.67    1.11   2
  -2   3 -15    1.78    1.20   2
   2  -2 -15   42.04    2.10   2
  -2   2  15   39.18    1.79   2
   2  -2 -14    8.33    1.14   2
  -2   2  14    8.18    1.00   2
   2  -2 -13   23.58    1.46   2
  -2   2  13   24.23    1.71   2
   2  -2 -12   14.14    1.11   2
  -2   2  12   17.43    1.30   2
   2  -2 -11    6.27    1.18   2
  -2   2   9    1.21    0.58   2
   2  -2  -8  104.22    3.43   2
  -2   2   8  105.52    2.99   2
   2  -2  -7   12.78    0.90   2
  -2   2   7   11.28    0.81   2
   2  -2  -6   27.34    0.98   2
  -2   2   6   27.86    0.98   2
   2  -2  -5  486.84   21.85   2
  -2   2   5  475.72   21.18   2
   2  -2  -4   -0.15    0.45   2
  -2   2   4    1.01    0.54   2
  -2   2   2   20.36    1.25   2
  -2   2   2   20.21    1.04   2
   2  -2  -1   85.98    2.84   2
  -2   2   1   80.20    2.83   2
   2  -2   0   41.37    1.43   2
  -2   2   0   44.47    2.26   2
   2  -2   1   16.65    1.78   2
  -2   2  -1   18.38    1.69   2
   2  -2   2   49.97    1.91   2
  -2   2  -2   54.15    2.84   2
   2  -2   3  183.38    8.29   2
  -2   2  -3  180.83    8.17   2
   2  -2   5   43.31    2.74   2
  -2   2  -5   40.91    1.83   2
   2  -2   6   28.19    2.19   2
  -2   2  -6   22.14    2.02   2
   2  -2   7   40.07    2.67   2
  -2   2  -7   36.06    2.61   2
   2  -2   8   44.53    3.00   2
  -2   2  -8   44.07    1.97   2
   2  -2   9   25.92    2.37   2
  -2   2  -9   21.64    2.27   2
   2  -2  10   -1.29    1.73   2
  -2   2 -10   -0.54    1.70   2
   2  -2  12    2.59    1.15   2
  -2   2 -12    4.58    1.79   2
   2  -2  13   13.54    2.05   2
  -2   2 -13    9.55    1.32   2
   2  -2  14   24.95    2.71   2
  -2   2 -14   20.95    2.52   2
   2  -2  15    0.93    1.83   2
  -2   2 -15    1.02    1.81   2
   2  -1 -16   24.19    1.65   2
  -2   1  16   24.30    1.50   2
   2  -1 -15    5.89    1.36   2
  -2   1  15    2.53    0.90   2
   2  -1 -14    1.71    0.93   2
  -2   1  14    2.28    0.82   2
  -2   1  13    0.56    0.80   2
   2  -1 -12    0.34    1.09   2
  -2   1  12    0.21    0.94   2
  -2   1  11   23.64    1.44   2
   2  -1  -9   38.99    1.38   2
  -2   1   9   39.98    1.33   2
   2  -1  -8   46.46    1.63   2
  -2   1   8   42.31    1.48   2
   2  -1  -7   21.40    0.94   2
  -2   1   7   20.18    0.77   2
   2  -1  -6    2.88    0.46   2
   2  -1  -5  217.11    5.60   2
  -2   1   3   73.39    1.53   2
   2  -1  -2   96.25    2.75   2
  -2   1   2   92.47    2.72   2
   2  -1  -1  194.86    7.22   2
  -2   1   1  180.46    6.18   2
   2  -1   0   56.47    2.34   2
  -2   1   0   58.09    1.79   2
   2  -1   1  129.89    5.30   2
  -2   1  -1  140.93    5.86   2
   2  -1   2   22.51    1.86   2
  -2   1  -2   23.32    1.36   2
   2  -1   3  683.85   41.43   2
  -2   1  -3  655.35   40.89   2
   2  -1   4   35.38    1.37   2
   2  -1   5   -1.01    0.79   2
  -2   1  -5    1.67    1.49   2
   2  -1   6   33.29    1.64   2
  -2   1  -6   28.91    1.57   2
   2  -1   7   88.06    4.30   2
  -2   1  -7   82.00    4.24   2
   2  -1   8   22.30    2.26   2
  -2   1  -8   19.16    2.16   2
   2  -1   9   -3.53    1.60   2
  -2   1  -9    0.78    0.93   2
   2  -1  12   41.67    3.22   2
  -2   1 -12   46.20    3.08   2
   2  -1  13   28.48    2.62   2
  -2   1 -13   26.72    2.70   2
   2  -1  14    7.53    1.94   2
  -2   1 -14    4.96    1.20   2
   2  -1  15   72.18    4.52   2
  -2   1 -15   65.47    4.61   2
   2  -1  16    0.11    1.08   2
  -2   1 -16    3.05    1.17   2
   2   0 -16   27.60    1.91   2
   2   0 -15   12.76    1.34   2
  -2   0  15   10.87    1.18   2
   2   0 -14   25.16    2.03   2
  -2   0  14   22.45    1.40   2
   2   0 -13   15.42    1.22   2
  -2   0  13   14.31    1.09   2
   2   0 -12    4.28    0.90   2
   2   0 -10    8.12    0.87   2
  -2   0  10    7.56    0.84   2
   2   0  -9   68.78    2.66   2
  -2   0   9   68.88    2.56   2
   2   0  -8   19.26    1.20   2
  -2   0   8   18.50    0.89   2
   2   0  -7    3.92    0.45   2
   2   0  -7   17.40    0.94   2
   2   0  -6  326.31   13.15   2
   2   0  -6  326.99   12.63   2
   2   0  -5    0.81    0.69   2
   2   0  -5    1.74    0.61   2
   2   0  -3   31.01    1.09   2
  -2   0   3   31.16    1.48   2
   2   0  -2  115.51    3.58   2
  -2   0   2  112.61    3.58   2
   2   0  -1   61.18    2.55   2
  -2   0   1   60.44    2.55   2
   2   0   0   30.22    2.08   2
  -2   0   0   27.34    2.11   2
   2   0   1   58.35    3.22   2
  -2   0  -1   57.50    3.10   2
   2   0   2  245.69    8.78   2
  -2   0  -2  229.26    8.41   2
   2   0   4   31.50    1.06   2
  -2   0  -4   30.85    1.43   2
   2   0   5   30.06    1.47   2
  -2   0  -5   32.16    2.31   2
   2   0   6   38.10    1.87   2
  -2   0  -6   39.41    2.80   2
   2   0   7   54.18    3.22   2
  -2   0  -7   53.96    3.36   2
   2   0   8   38.66    2.73   2
  -2   0  -8   35.25    2.82   2
   2   0   9    5.25    1.03   2
   2   0  12   15.06    2.04   2
  -2   0 -12   14.17    1.40   2
   2   0  13   37.89    2.97   2
  -2   0 -13   40.36    3.26   2
   2   0  14    3.35    1.90   2
  -2   0 -14    1.56    1.88   2
   2   0  15  103.86    5.96   2
  -2   0 -15   91.35    5.90   2
   2   0  16    7.79    1.33   2
   2   1 -17    7.67    1.42   2
  -2  -1  17   10.91    1.33   2
   2   1 -16    4.87    1.62   2
  -2  -1  16    4.79    1.11   2
   2   1 -15    1.82    1.62   2
  -2  -1  15    1.25    0.99   2
   2   1 -14   -0.52    1.38   2
  -2  -1  14    1.10    0.98   2
   2   1 -13    0.62    0.98   2
  -2  -1  13    0.31    0.88   2
   2   1 -12   11.96    1.18   2
  -2  -1  12   10.54    1.57   2
   2   1  -9   43.63    2.00   2
   2   1  -9   35.83    1.65   2
   2   1  -8   13.27    1.53   2
   2   1  -8   15.42    1.41   2
   2   1  -7   10.67    1.04   2
   2   1  -7    8.14    0.95   2
   2   1  -6  117.98    3.96   2
   2   1  -6  114.94    4.35   2
   2   1  -5   16.37    1.60   2
  -2  -1   5   14.15    1.15   2
   2   1  -3   87.12    3.29   2
  -2  -1   3   83.65    3.26   2
   2   1  -2  138.52    5.35   2
  -2  -1   2  139.69    5.52   2
   2   1  -1   46.04    1.73   2
  -2  -1   1   46.66    2.44   2
   2   1   0  153.56    6.74   2
  -2  -1   0  147.70    6.74   2
   2   1   1   11.74    2.00   2
  -2  -1  -1   11.71    1.15   2
  -2  -1  -2  737.18   50.46   2
   2   1   4    1.04    1.30   2
  -2  -1  -4    0.52    0.75   2
   2   1   5   40.23    2.94   2
  -2  -1  -5   39.06    1.84   2
   2   1   6   34.73    1.74   2
  -2  -1  -6   34.62    2.62   2
   2   1   7   31.39    1.65   2
  -2  -1  -7   32.64    2.62   2
   2   1   8   -0.01    0.94   2
  -2  -1  -8   -1.95    0.99   2
  -2  -1 -11   48.53    3.39   2
   2   1  12   39.99    3.06   2
  -2  -1 -12   33.24    2.88   2
   2   1  13    6.82    1.18   2
  -2  -1 -13    6.42    2.02   2
   2   1  14  104.66    6.07   2
  -2  -1 -14  114.81    5.17   2
   2   2 -16    0.50    0.89   2
   2   2 -16    7.76    1.32   2
   2   2 -15   11.37    1.06   2
   2   2 -15   12.62    1.36   2
   2   2 -14   10.85    1.11   2
   2   2 -13    0.35    1.32   2
   2   2 -13   -0.20    1.09   2
   2   2 -11   12.13    1.43   2
   2   2 -11    8.35    1.27   2
   2   2 -10   35.07    2.07   2
   2   2 -10   32.96    1.84   2
   2   2  -9   20.50    1.50   2
   2   2  -9   16.67    1.33   2
   2   2  -8   11.54    1.37   2
   2   2  -8    8.82    1.16   2
   2   2  -7  123.20    4.88   2
   2   2  -7  119.96    4.52   2
   2   2  -6    2.03    1.18   2
  -2  -2   6    0.66    1.21   2
   2   2  -4   31.20    1.94   2
  -2  -2   4   26.26    1.87   2
   2   2  -3   43.59    2.58   2
  -2  -2   3   42.16    2.51   2
   2   2  -2   32.50    2.41   2
  -2  -2   2   37.70    2.46   2
   2   2  -1   17.49    2.07   2
  -2  -2   1   17.86    1.98   2
   2   2   0   29.23    1.56   2
  -2  -2   0   33.99    2.46   2
   2   2   1  239.80   11.62   2
  -2  -2  -1  236.81   11.04   2
   2   2   3   38.29    1.59   2
  -2  -2  -3   42.80    2.63   2
   2   2   4   22.79    2.29   2
  -2  -2  -4   21.84    2.20   2
   2   2   5   22.87    2.36   2
  -2  -2  -5   20.94    2.23   2
   2   2   6   37.58    2.91   2
  -2  -2  -6   34.49    2.88   2
   2   2   7   31.14    2.74   2
  -2  -2  -7   29.27    1.75   2
   2   2   8    6.95    1.22   2
   2   2  11   14.92    1.33   2
  -2  -2 -11   16.51    2.33   2
   2   2  12   42.32    3.34   2
  -2  -2 -12   46.51    3.51   2
   2   2  13    4.82    2.04   2
  -2  -2 -13    0.54    1.88   2
   2   2  14  130.70    7.64   2
  -2  -2 -14  135.52    8.00   2
  -2  -2 -15   18.47    2.50   2
   2   3 -16   -0.43    1.28   2
   2   3 -16    1.86    1.32   2
   2   3 -15    0.66    1.36   2
   2   3 -15   -0.64    1.26   2
   2   3 -14    1.25    1.36   2
   2   3 -14    2.03    1.24   2
   2   3 -13    5.65    1.47   2
   2   3 -13    4.23    1.34   2
   2   3 -11   21.74    2.00   2
   2   3 -11   23.81    1.85   2
   2   3 -10   17.20    1.79   2
   2   3 -10   20.19    1.65   2
   2   3  -9   12.59    1.66   2
   2   3  -9   10.16    1.42   2
   2   3  -8    1.30    1.35   2
   2   3  -8    1.56    1.17   2
   2   3  -7   39.70    2.01   2
  -2  -3   7    6.66    1.07   2
   2   3  -6    8.57    1.64   2
  -2  -3   6    9.55    1.48   2
   2   3  -4   49.17    2.86   2
  -2  -3   4   49.12    2.88   2
   2   3  -3   44.83    2.90   2
  -2  -3   3   41.58    2.66   2
   2   3  -2   25.57    2.21   2
  -2  -3   2   18.67    1.28   2
   2   3  -1   80.56    4.44   2
  -2  -3   1   80.49    4.15   2
   2   3   0    2.42    1.08   2
  -2  -3   0    5.53    1.73   2
   2   3   1  432.87   23.11   2
  -2  -3  -1  422.62   25.49   2
   2   3   3    2.84    1.63   2
  -2  -3  -3    0.55    1.67   2
   2   3   4   34.41    1.82   2
  -2  -3  -4   34.21    2.77   2
   2   3   5    3.72    1.99   2
  -2  -3  -5    4.86    1.90   2
   2   3   6   28.20    1.80   2
  -2  -3  -6   25.30    2.46   2
   2   3   7    1.47    1.81   2
  -2  -3  -7    0.83    1.05   2
   2   3  10   29.17    2.98   2
  -2  -3 -10   30.89    2.92   2
   2   3  11   31.90    2.96   2
  -2  -3 -11   28.57    2.87   2
   2   3  12   -0.79    1.82   2
  -2  -3 -12    3.47    1.92   2
   2   3  13  104.41    6.00   2
  -2  -3 -13  101.25    4.85   2
  -2  -3 -14    0.75    1.11   2
   2   4 -15    4.32    1.59   2
   2   4 -15    3.40    0.90   2
   2   4 -14   -0.29    1.53   2
   2   4 -14    2.09    1.38   2
   2   4 -12    8.47    1.81   2
   2   4 -12    8.84    1.61   2
   2   4 -11   12.21    1.94   2
   2   4 -11   14.21    1.72   2
   2   4 -10   11.33    1.21   2
   2   4 -10   15.56    1.69   2
   2   4  -9    6.79    1.68   2
   2   4  -9    6.56    1.47   2
   2   4  -8   31.80    2.59   2
   2   4  -8   31.04    2.33   2
   2   4  -7    1.21    1.58   2
  -2  -4   7    1.72    1.56   2
   2   4  -5   18.79    2.13   2
  -2  -4   5   15.22    1.98   2
   2   4  -4    8.90    1.97   2
  -2  -4   4   10.44    1.11   2
   2   4  -3   18.33    2.22   2
  -2  -4   3   15.40    1.28   2
   2   4  -2    9.17    1.26   2
  -2  -4   2    8.79    1.93   2
   2   4  -1   11.60    2.13   2
  -2  -4   1   10.74    1.85   2
   2   4   0  121.66    4.98   2
  -2  -4   0  119.95    6.12   2
   2   4   2   36.94    2.85   2
  -2  -4  -2   29.76    2.49   2
   2   4   3   12.01    2.33   2
  -2  -4  -3    9.78    2.11   2
   2   4   4    3.09    1.98   2
  -2  -4  -4    3.35    1.88   2
   2   4   5   14.87    2.46   2
  -2  -4  -5   15.41    2.24   2
   2   4   6   14.51    1.65   2
  -2  -4  -6   19.63    2.40   2
   2   4   7    7.15    2.18   2
  -2  -4  -7    8.62    2.08   2
   2   4   9    1.36    1.82   2
  -2  -4  -9   -1.43    1.85   2
   2   4  10   10.93    2.22   2
  -2  -4 -10    7.26    2.13   2
   2   4  11   26.51    2.01   2
  -2  -4 -11   28.56    2.89   2
   2   4  12    0.35    1.15   2
  -2  -4 -12   -1.44    1.88   2
   2   4  13   90.98    4.43   2
  -2  -4 -13   90.14    6.07   2
   2   5 -14    1.67    1.78   2
   2   5 -14    3.54    0.91   2
   2   5 -12    9.61    2.03   2
   2   5 -12   10.59    1.80   2
   2   5 -11    8.48    1.94   2
   2   5 -11   11.08    1.70   2
   2   5 -10    7.10    1.82   2
   2   5 -10    2.04    1.67   2
   2   5  -9   -0.58    1.07   2
   2   5  -9    2.24    1.47   2
   2   5  -8    9.77    1.18   2
  -2  -5   8    3.64    1.19   2
   2   5  -7    0.14    1.84   2
  -2  -5   7    4.98    1.03   2
   2   5  -5   25.98    1.66   2
  -2  -5   5   18.91    2.24   2
   2   5  -4   11.62    1.39   2
  -2  -5   4   12.06    2.05   2
   2   5  -3    7.97    1.98   2
  -2  -5   3    5.75    1.90   2
   2   5  -2   37.72    3.17   2
  -2  -5   2   36.14    1.91   2
   2   5  -1    0.49    1.16   2
  -2  -5   1    0.85    1.75   2
   2   5   0  185.06   10.30   2
  -2  -5   0  180.99    9.85   2
   2   5   2   -1.06    1.68   2
  -2  -5  -2   -0.43    1.68   2
   2   5   3   28.44    2.94   2
  -2  -5  -3   24.24    2.59   2
   2   5   4    2.88    1.35   2
  -2  -5  -4    5.77    1.91   2
   2   5   5   17.18    2.59   2
  -2  -5  -5   13.99    2.45   2
   2   5   6    2.37    1.99   2
  -2  -5  -6   -2.71    1.90   2
   2   5   9   11.88    2.54   2
  -2  -5  -9   17.13    1.61   2
   2   5  10   15.80    2.68   2
  -2  -5 -10   16.77    2.58   2
   2   5  11    4.93    2.07   2
  -2  -5 -11    1.03    1.23   2
   2   5  12   53.91    4.23   2
  -2  -5 -12   56.23    4.19   2
   2   6 -13    4.81    1.97   2
   2   6 -13    5.19    1.67   2
   2   6 -12    6.64    2.02   2
   2   6 -11    5.92    1.30   2
   2   6 -11    4.76    1.74   2
   2   6 -10    4.60    2.02   2
   2   6 -10    4.28    1.07   2
   2   6  -9    5.82    1.97   2
   2   6  -9    5.63    1.83   2
   2   6  -8    2.90    1.99   2
  -2  -6   8    4.35    1.22   2
   2   6  -6    8.12    2.25   2
  -2  -6   6    7.22    1.93   2
   2   6  -5    3.45    2.05   2
  -2  -6   5    2.31    1.07   2
   2   6  -4    5.46    2.16   2
  -2  -6   4    4.31    1.96   2
   2   6  -3    3.87    2.24   2
  -2  -6   3    2.02    1.89   2
   2   6  -2    7.39    1.30   2
  -2  -6   2    1.30    1.14   2
   2   6  -1   41.75    2.37   2
  -2  -6   1   40.43    3.37   2
   2   6   1   14.23    2.31   2
  -2  -6  -1   14.69    1.90   2
   2   6   2    8.27    2.13   2
  -2  -6  -2    4.45    2.00   2
   2   6   3    1.79    1.34   2
  -2  -6  -3    8.49    2.15   2
   2   6   4    4.80    1.50   2
  -2  -6  -4    6.83    2.18   2
   2   6   5   13.66    2.65   2
  -2  -6  -5    6.31    2.30   2
   2   6   6    1.95    2.19   2
  -2  -6  -6    0.45    1.98   2
   2   6   8    1.36    2.16   2
  -2  -6  -8    0.87    2.03   2
   2   6   9    4.63    1.47   2
  -2  -6  -9    4.39    1.39   2
   2   6  10   13.62    1.67   2
  -2  -6 -10   10.35    2.47   2
   2   7 -11   -1.07    1.21   2
   2   7 -11    2.34    1.64   2
   2   7 -10   -1.94    1.72   2
   2   7  -9   -0.28    1.28   2
   2   7  -9    0.69    1.76   2
   2   7  -8    1.05    2.07   2
  -2  -7   8    1.88    1.23   2
   2   7  -6    6.40    2.25   2
  -2  -7   6    5.98    1.91   2
   2   7  -5    3.87    1.36   2
  -2  -7   5    2.01    1.94   2
   2   7  -4    3.51    1.40   2
  -2  -7   4    2.66    1.15   2
   2   7  -3   15.13    1.80   2
  -2  -7   3   11.26    1.42   2
   2   7  -2    0.35    1.32   2
  -2  -7   2   -2.85    1.84   2
   2   7  -1   62.30    3.43   2
  -2  -7   1   58.81    4.49   2
   2   7   0    3.89    2.05   2
  -2  -7   0    2.95    1.85   2
   2   7   1   -2.11    1.98   2
  -2  -7  -1    1.49    1.78   2
   2   7   2    8.94    2.59   2
  -2  -7  -2    7.60    2.23   2
   2   7   3    3.92    2.36   2
  -2  -7  -3    2.37    2.10   2
   2   7   4    7.05    2.49   2
  -2  -7  -4    6.29    1.46   2
   2   7   5    4.68    2.36   2
  -2  -7  -5    0.81    1.96   2
   2   7   7   -3.19    2.34   2
  -2  -7  -7    6.17    2.19   2
   2   8  -4    1.28    2.53   2
  -2  -8   4    6.26    2.02   2
   2   8  -3   -0.49    2.23   2
  -2  -8   3    1.05    1.98   2
   2   8  -2   14.82    2.78   2
  -2  -8   2    8.51    2.25   2
   2   8   0    7.16    1.86   2
  -2  -8   0    2.58    1.72   2
   2   8   1    1.21    2.29   2
  -2  -8  -1    3.79    2.05   2
   3 -10  -5    1.35    1.78   2
  -3  10   5    1.78    1.91   2
   3 -10  -3    3.58    2.11   2
  -3  10   3    0.17    1.95   2
   3 -10  -2    2.67    1.40   2
  -3  10   2    5.24    1.42   2
   3  -9  -8    1.28    1.55   2
  -3   9   8    3.42    1.63   2
   3  -9  -7    5.49    1.75   2
  -3   9   7    7.08    1.84   2
   3  -9  -6    8.38    1.91   2
  -3   9   6   12.51    2.06   2
   3  -9  -4    3.98    1.76   2
  -3   9   4    0.45    1.81   2
   3  -9  -3    0.11    1.96   2
  -3   9   3   -0.84    1.73   2
   3  -9  -2   -0.09    1.24   2
  -3   9   2   -1.54    1.17   2
  -3   9   1    4.53    2.01   2
  -3   9   1    2.72    1.65   2
  -3   9   0    7.77    2.25   2
  -3   9   0    4.55    1.08   2
  -3   9  -1    3.83    2.18   2
  -3   9  -1    4.31    1.72   2
  -3   9  -3    6.00    1.51   2
  -3   9  -3    6.38    1.74   2
   3  -8 -11    3.49    1.37   2
  -3   8  11    4.29    1.39   2
   3  -8 -10   11.33    1.63   2
  -3   8  10    8.58    1.73   2
   3  -8  -9    1.32    1.37   2
  -3   8   9    0.43    1.34   2
   3  -8  -8    3.58    1.52   2
  -3   8   8    4.41    1.49   2
   3  -8  -7   13.68    1.14   2
  -3   8   7   13.40    1.97   2
   3  -8  -6    7.13    1.61   2
  -3   8   6    6.22    1.78   2
   3  -8  -4    1.06    1.72   2
  -3   8   4    2.38    1.06   2
   3  -8  -3    1.22    1.84   2
  -3   8   3    1.49    1.76   2
   3  -8  -2    0.02    1.21   2
  -3   8   2    1.27    1.11   2
  -3   8   1    8.03    2.09   2
  -3   8   1    8.97    1.66   2
  -3   8   0    0.39    1.89   2
  -3   8   0   -0.22    1.49   2
  -3   8  -1   -2.90    1.98   2
  -3   8  -1    0.33    1.43   2
  -3   8  -3    2.56    2.19   2
  -3   8  -3    2.78    1.03   2
  -3   8  -4    6.00    2.32   2
  -3   8  -4    4.63    1.89   2
  -3   8  -5    9.04    1.50   2
  -3   8  -5    5.21    2.03   2
  -3   8  -6   14.51    2.69   2
  -3   8  -6    9.84    2.17   2
   3  -7 -12    3.72    1.17   2
  -3   7  12    1.14    1.12   2
   3  -7 -11   -0.16    1.04   2
   3  -7 -10    7.17    1.32   2
  -3   7  10    6.82    1.39   2
   3  -7  -9    7.34    1.37   2
  -3   7   9    4.60    1.39   2
   3  -7  -8   12.33    1.54   2
  -3   7   8   10.63    1.60   2
   3  -7  -7   28.35    2.18   2
  -3   7   7   34.28    2.28   2
   3  -7  -5    5.84    1.49   2
  -3   7   5    4.99    1.56   2
   3  -7  -4   -2.57    1.42   2
  -3   7   4    4.37    1.42   2
   3  -7  -3    2.97    1.65   2
  -3   7   3    1.22    1.60   2
  -3   7   2    3.09    1.71   2
  -3   7   1   13.52    2.18   2
  -3   7   1   16.73    1.20   2
  -3   7   0    6.63    1.17   2
  -3   7   0    7.63    1.01   2
  -3   7  -2   16.70    2.49   2
  -3   7  -2   15.07    1.22   2
  -3   7  -3    8.57    2.27   2
  -3   7  -3    8.85    1.84   2
  -3   7  -4    6.52    2.21   2
  -3   7  -4    3.00    1.81   2
  -3   7  -5   74.56    4.05   2
  -3   7  -5   69.47    4.48   2
  -3   7  -6    2.47    2.40   2
  -3   7  -6   -0.45    1.71   2
  -3   7  -7    0.76    1.52   2
  -3   7  -7    1.54    1.74   2
   3  -7   9    0.26    1.28   2
   3  -6 -12   14.08    1.36   2
  -3   6  12   13.44    1.32   2
   3  -6 -11   24.61    1.71   2
  -3   6  11   26.94    1.69   2
   3  -6 -10    1.19    0.94   2
  -3   6  10   -0.36    1.29   2
   3  -6  -9    8.18    1.20   2
  -3   6   9    7.96    1.20   2
   3  -6  -8   47.00    2.70   2
  -3   6   8   47.56    2.36   2
   3  -6  -7   13.30    1.43   2
  -3   6   7   11.98    1.44   2
   3  -6  -5    5.92    1.25   2
  -3   6   5    4.31    1.33   2
   3  -6  -4    0.57    1.25   2
  -3   6   4    0.90    1.28   2
   3  -6  -3    0.46    0.82   2
  -3   6   3   -0.00    1.24   2
  -3   6   2   13.91    1.75   2
  -3   6   2    8.37    1.50   2
  -3   6   1    9.27    1.70   2
  -3   6   1    8.73    1.47   2
  -3   6   0    3.52    1.07   2
  -3   6   0    4.83    0.87   2
  -3   6  -2    7.44    2.10   2
  -3   6  -2    8.69    1.04   2
  -3   6  -3   22.71    2.73   2
  -3   6  -3   14.59    1.34   2
  -3   6  -4   15.24    1.82   2
  -3   6  -4   19.90    1.46   2
   3  -6   5   31.60    2.95   2
  -3   6  -5   31.33    1.81   2
   3  -6   6    7.51    2.08   2
  -3   6  -6    6.05    1.85   2
   3  -6   7   -1.20    1.86   2
  -3   6  -7    1.36    1.81   2
   3  -6   9   -0.33    1.16   2
  -3   6  -9    0.65    1.80   2
   3  -6  10    4.78    2.15   2
  -3   6 -10    4.80    1.26   2
   3  -5 -12   -1.05    1.04   2
  -3   5  12   -0.26    0.78   2
   3  -5 -11   12.33    1.44   2
  -3   5  11   11.57    1.04   2
   3  -5 -10    6.02    0.95   2
  -3   5  10    7.73    0.97   2
   3  -5  -9   15.40    1.49   2
  -3   5   9   15.05    1.13   2
   3  -5  -8   65.35    2.65   2
  -3   5   8   67.98    2.70   2
   3  -5  -6   12.73    1.21   2
  -3   5   6   12.75    1.26   2
   3  -5  -5    3.50    1.01   2
  -3   5   5    4.29    1.05   2
   3  -5  -4    1.81    1.19   2
  -3   5   4    1.21    1.08   2
  -3   5   3    5.30    1.32   2
  -3   5   3    8.79    1.08   2
  -3   5   2   45.41    2.59   2
  -3   5   2   40.50    2.14   2
  -3   5   1   23.28    1.92   2
  -3   5   1   20.25    1.69   2
  -3   5  -1   45.96    3.12   2
  -3   5  -1   32.82    2.33   2
   3  -5   2   27.62    1.58   2
  -3   5  -2   25.79    2.16   2
   3  -5   3    6.54    1.66   2
  -3   5  -3    1.81    1.58   2
   3  -5   4  199.10    8.60   2
  -3   5  -4  184.83    9.56   2
   3  -5   5   -1.13    1.70   2
  -3   5  -5    1.60    1.55   2
   3  -5   6    2.34    1.83   2
  -3   5  -6    6.22    1.77   2
   3  -5   8   14.73    1.44   2
  -3   5  -8    6.63    2.14   2
   3  -5   9   20.98    2.49   2
  -3   5  -9   15.26    1.59   2
   3  -5  10    2.89    1.89   2
  -3   5 -10    3.06    2.00   2
  -3   5 -11    6.29    2.16   2
   3  -4 -13   23.70    1.44   2
  -3   4  13   22.03    1.52   2
   3  -4 -12   47.87    2.23   2
  -3   4  12   47.03    1.98   2
   3  -4 -11    0.63    0.89   2
  -3   4  11    0.43    0.82   2
   3  -4 -10    8.82    0.77   2
  -3   4  10    5.00    0.95   2
   3  -4  -9   96.93    3.12   2
  -3   4   9   96.60    3.63   2
   3  -4  -8   15.03    1.16   2
  -3   4   8   15.22    1.13   2
   3  -4  -6    8.96    0.85   2
  -3   4   6    7.52    0.80   2
   3  -4  -5    1.11    0.83   2
  -3   4   5    0.34    1.07   2
  -3   4   4    5.26    1.31   2
  -3   4   4    6.79    0.86   2
  -3   4   3   14.03    1.29   2
  -3   4   3   15.89    1.20   2
  -3   4   2   21.50    1.50   2
  -3   4   2   19.61    1.41   2
  -3   4   1   16.74    1.75   2
  -3   4   1   12.26    1.44   2
   3  -4   1   19.33    1.65   2
  -3   4  -1   14.42    1.04   2
   3  -4   2   26.13    2.17   2
  -3   4  -2   26.00    1.40   2
   3  -4   3   42.63    2.79   2
  -3   4  -3   39.40    2.63   2
   3  -4   4   80.45    3.28   2
  -3   4  -4   77.85    3.08   2
   3  -4   5   15.82    2.20   2
  -3   4  -5   22.69    1.38   2
   3  -4   6    0.78    1.06   2
  -3   4  -6    3.21    1.64   2
   3  -4   8    8.41    2.03   2
  -3   4  -8    4.67    1.99   2
   3  -4   9   15.96    2.49   2
  -3   4  -9   16.37    2.34   2
   3  -4  10   12.60    2.29   2
  -3   4 -10    7.47    1.96   2
   3  -4  11    5.93    2.17   2
  -3   4 -11    5.99    1.89   2
   3  -4  12   13.89    2.32   2
  -3   4 -12    8.65    2.24   2
   3  -3 -13    0.10    0.83   2
  -3   3  13    0.96    0.54   2
   3  -3 -12   17.88    1.15   2
  -3   3  12   15.81    0.97   2
   3  -3 -11    9.30    0.83   2
  -3   3  11    7.91    0.71   2
   3  -3 -10   16.37    0.94   2
  -3   3  10   14.71    0.78   2
   3  -3  -9  109.84    3.06   2
  -3   3   9  106.22    2.94   2
   3  -3  -7   22.40    0.80   2
  -3   3   7   25.03    0.77   2
  -3   3   6    9.66    0.64   2
  -3   3   5   17.34    0.97   2
  -3   3   5   18.80    0.89   2
  -3   3   4   11.50    1.04   2
  -3   3   4   11.69    0.93   2
  -3   3   3   83.70    3.23   2
  -3   3   3   86.33    3.03   2
   3  -3  -2   47.09    1.85   2
  -3   3   2   45.21    1.78   2
   3  -3   0   62.84    2.03   2
  -3   3   0   59.49    2.69   2
   3  -3   1   70.49    3.27   2
  -3   3  -1   67.54    3.13   2
   3  -3   2    2.50    1.50   2
  -3   3  -2    4.68    1.49   2
   3  -3   3  398.63   20.10   2
  -3   3  -3  414.36   22.94   2
   3  -3   4   -2.68    1.53   2
  -3   3  -4    1.48    0.90   2
   3  -3   5    1.10    0.98   2
  -3   3  -5    2.17    1.47   2
   3  -3   7   45.58    2.95   2
  -3   3  -7   41.55    1.98   2
   3  -3   8   49.73    3.39   2
  -3   3  -8   49.63    3.39   2
   3  -3   9   10.65    2.06   2
  -3   3  -9    7.38    1.27   2
   3  -3  10   21.49    2.52   2
  -3   3 -10   16.14    2.47   2
   3  -3  11   33.42    2.08   2
  -3   3 -11   29.23    3.03   2
   3  -3  12   10.84    1.44   2
  -3   3 -12    8.94    2.43   2
   3  -2 -13   56.11    1.86   2
  -3   2  13   56.64    1.72   2
   3  -2 -12    0.50    0.69   2
  -3   2  12    0.29    0.58   2
   3  -2 -11    6.25    0.62   2
  -3   2  11    6.08    0.60   2
  -3   2   9   12.30    0.37   2
  -3   2   5    7.82    0.27   2
  -3   2   5    7.86    0.25   2
  -3   2   3   28.57    1.16   2
   3  -2  -2   41.74    1.93   2
  -3   2   2   37.62    1.77   2
   3  -2   0   26.35    1.74   2
  -3   2   0   26.28    1.63   2
   3  -2   1   32.76    1.37   2
  -3   2  -1   34.35    2.12   2
   3  -2   2   58.02    2.95   2
  -3   2  -2   49.32    1.95   2
   3  -2   3  153.71    6.90   2
  -3   2  -3  149.41    6.84   2
   3  -2   4   47.47    3.04   2
  -3   2  -4   46.14    2.98   2
   3  -2   7   21.03    2.11   2
  -3   2  -7   21.90    1.59   2
   3  -2   8   29.67    2.62   2
  -3   2  -8   28.46    2.87   2
   3  -2   9   26.10    2.63   2
  -3   2  -9   31.25    2.67   2
   3  -2  10    6.31    1.14   2
  -3   2 -10    5.85    2.01   2
   3  -2  11   43.79    3.39   2
  -3   2 -11   38.13    3.22   2
   3  -2  14    1.71    2.00   2
  -3   2 -14    2.47    1.20   2
   3  -1 -14   -0.93    0.88   2
  -3   1  14    0.48    0.68   2
   3  -1 -13   15.76    0.90   2
  -3   1  13   15.61    0.83   2
   3  -1 -12    8.08    0.87   2
  -3   1  12    8.60    0.81   2
   3  -1 -11   10.06    0.83   2
  -3   1  11    9.93    0.73   2
   3  -1 -10   95.86    2.63   2
   3  -1 -10  103.09    2.99   2
   3  -1  -8   25.91    0.59   2
   3  -1  -8   26.34    0.68   2
   3  -1  -4  110.60    2.60   2
  -3   1   4  107.77    2.63   2
   3  -1  -3   66.19    2.17   2
  -3   1   3   60.45    2.07   2
   3  -1  -1   97.38    3.56   2
  -3   1   1   91.90    3.53   2
   3  -1   0  142.25    5.61   2
  -3   1   0  141.24    5.45   2
   3  -1   1    3.45    1.35   2
  -3   1  -1    1.87    1.41   2
   3  -1   2  598.39   37.66   2
  -3   1  -2  625.85   39.35   2
   3  -1   3    1.10    1.54   2
  -3   1  -3    1.60    0.89   2
   3  -1   4    0.84    0.81   2
  -3   1  -4    1.37    0.84   2
   3  -1   6  105.62    3.49   2
  -3   1  -6  101.49    3.70   2
   3  -1   7   72.71    2.84   2
  -3   1  -7   81.07    4.32   2
   3  -1   8   27.09    2.71   2
  -3   1  -8   26.76    2.55   2
   3  -1   9   24.76    1.71   2
  -3   1  -9   25.29    2.61   2
   3  -1  10  100.76    5.19   2
  -3   1 -10   86.55    3.81   2
   3  -1  13   11.19    2.30   2
   3  -1  14   13.00    1.60   2
  -3   1 -14   14.74    1.54   2
   3   0 -14   41.25    1.30   2
   3   0 -14   39.76    1.69   2
   3   0 -13    0.61    0.76   2
   3   0 -13    0.53    0.94   2
   3   0 -12    1.98    0.90   2
   3   0 -12    2.71    0.95   2
   3   0 -11   91.34    3.01   2
   3   0 -11   93.68    3.31   2
   3   0 -10    6.89    0.93   2
   3   0 -10    8.12    0.87   2
   3   0  -8   18.78    1.01   2
   3   0  -8   19.31    0.94   2
   3   0  -7   19.90    0.99   2
   3   0  -7   19.58    0.86   2
   3   0  -6    9.95    0.71   2
  -3   0   6   11.15    0.86   2
   3   0  -5   16.62    1.05   2
  -3   0   5   13.23    0.72   2
   3   0  -4   31.55    1.56   2
  -3   0   4   30.94    1.52   2
   3   0  -3   72.49    2.94   2
  -3   0   3   67.06    2.27   2
   3   0  -1   39.80    2.08   2
  -3   0   1   36.63    2.06   2
   3   0   0   27.77    1.96   2
  -3   0   0   24.25    2.04   2
   3   0   1   45.42    2.84   2
  -3   0  -1   46.83    2.69   2
   3   0   2  162.22    7.25   2
  -3   0  -2  159.46    7.25   2
   3   0   3   72.21    3.70   2
  -3   0  -3   65.55    3.54   2
   3   0   6   31.36    1.45   2
  -3   0  -6   30.17    2.04   2
   3   0   7   31.26    1.77   2
  -3   0  -7   27.17    2.63   2
   3   0   8   58.40    3.67   2
  -3   0  -8   52.16    3.55   2
   3   0   9    9.39    1.32   2
  -3   0  -9    9.33    2.15   2
   3   0  10  103.69    5.84   2
  -3   0 -10   94.72    5.93   2
  -3   0 -13    7.88    1.35   2
   3   0  14   43.72    2.49   2
  -3   0 -14   43.94    3.47   2
   3   1 -15    0.81    0.68   2
   3   1 -15   -0.50    0.90   2
   3   1 -14    9.96    1.11   2
   3   1 -14    9.59    1.01   2
   3   1 -13    8.92    1.36   2
   3   1 -13    4.80    1.26   2
   3   1 -12    3.56    0.88   2
   3   1 -12    4.33    0.87   2
   3   1 -11   62.72    2.89   2
   3   1 -11   59.64    2.25   2
   3   1  -9   16.31    1.44   2
   3   1  -9   15.46    1.29   2
   3   1  -8   19.42    1.52   2
   3   1  -8   19.10    1.32   2
   3   1  -7   48.87    2.17   2
  -3  -1   7   37.55    1.26   2
   3   1  -6   13.21    1.06   2
  -3  -1   6   11.85    1.03   2
   3   1  -5   81.21    2.84   2
  -3  -1   5   74.97    2.65   2
   3   1  -4   33.43    2.21   2
  -3  -1   4   30.25    1.64   2
   3   1  -2   50.46    2.58   2
  -3  -1   2   48.15    2.52   2
   3   1  -1  117.70    5.08   2
  -3  -1   1  111.47    4.71   2
   3   1   0    2.52    1.58   2
  -3  -1   0    1.03    1.54   2
   3   1   1  384.15   18.42   2
  -3  -1  -1  393.99   21.13   2
   3   1   2   -0.71    1.64   2
  -3  -1  -2    0.59    1.62   2
   3   1   3    2.28    1.65   2
  -3  -1  -3    2.50    1.64   2
   3   1   6   84.45    3.36   2
  -3  -1  -6   78.57    4.14   2
   3   1   7   35.28    2.95   2
  -3  -1  -7   33.16    1.90   2
   3   1   8   33.86    2.61   2
  -3  -1  -8   25.00    2.71   2
   3   1   9  160.90    8.20   2
  -3  -1  -9  140.07    7.76   2
   3   1  10   23.55    2.70   2
   3   1  14    7.19    1.36   2
   3   2 -16    0.71    0.52   2
   3   2 -16    0.03    0.94   2
   3   2 -15   15.75    1.50   2
   3   2 -15   18.21    1.58   2
   3   2 -14    2.90    1.09   2
   3   2 -14    1.59    1.05   2
   3   2 -13    0.22    1.01   2
   3   2 -13   -0.72    1.22   2
   3   2 -12   42.06    2.23   2
   3   2 -12   42.66    2.01   2
   3   2 -11    3.77    1.03   2
   3   2 -11    3.46    0.92   2
   3   2  -9   15.56    1.79   2
   3   2  -9   15.29    1.27   2
   3   2  -8   17.01    1.42   2
   3   2  -8   13.20    1.19   2
   3   2  -7    4.99    1.22   2
  -3  -2   7    5.81    1.10   2
   3   2  -6    5.49    1.21   2
  -3  -2   6    4.45    1.16   2
   3   2  -5   17.40    1.58   2
  -3  -2   5   20.20    1.52   2
   3   2  -4   72.51    3.36   2
  -3  -2   4   66.15    3.17   2
   3   2  -2   33.81    2.38   2
  -3  -2   2   27.16    2.17   2
   3   2  -1   14.31    1.96   2
  -3  -2   1   12.49    1.13   2
   3   2   0   21.15    2.32   2
  -3  -2   0   18.77    1.41   2
   3   2   1   91.06    4.82   2
  -3  -2  -1   91.35    4.88   2
   3   2   2   49.62    3.37   2
  -3  -2  -2   47.60    2.19   2
  -3  -2  -3    8.40    1.09   2
   3   2   5   28.72    1.47   2
  -3  -2  -5   27.61    2.06   2
   3   2   6   18.04    2.44   2
  -3  -2  -6   16.64    2.25   2
   3   2   7   60.03    4.18   2
  -3  -2  -7   59.38    2.77   2
   3   2   8    6.56    2.24   2
  -3  -2  -8   12.82    2.21   2
   3   2   9  121.47    5.33   2
  -3  -2  -9  119.77    6.84   2
   3   2  10   21.66    1.76   2
  -3  -2 -12    5.23    1.34   2
   3   2  13   33.95    3.12   2
  -3  -2 -13   27.45    2.12   2
   3   3 -15    6.07    1.38   2
   3   3 -15    6.00    1.19   2
   3   3 -14    6.48    1.39   2
   3   3 -14    4.34    1.31   2
   3   3 -13    2.73    1.12   2
   3   3 -13   -1.03    1.12   2
   3   3 -12   24.12    1.96   2
   3   3 -12   24.99    1.84   2
   3   3 -10   11.91    1.48   2
   3   3 -10   10.05    1.45   2
   3   3  -9   17.07    1.75   2
   3   3  -9   16.76    1.51   2
   3   3  -8   29.24    1.94   2
  -3  -3   8   29.48    2.15   2
   3   3  -7    5.75    1.42   2
  -3  -3   7    4.77    1.30   2
   3   3  -6   37.64    2.45   2
  -3  -3   6   36.99    2.28   2
   3   3  -5   18.00    1.87   2
  -3  -3   5   12.52    1.56   2
   3   3  -3   23.99    2.26   2
  -3  -3   3   20.06    2.00   2
   3   3  -2   52.15    2.28   2
  -3  -3   2   52.21    3.16   2
   3   3  -1    3.47    1.67   2
  -3  -3   1   -0.01    1.66   2
   3   3   0  120.47    4.84   2
  -3  -3   0  121.18    6.08   2
   3   3   1    0.78    1.82   2
  -3  -3  -1    1.67    1.78   2
   3   3   2    1.35    1.09   2
  -3  -3  -2    1.70    0.98   2
   3   3   4   57.06    3.29   2
  -3  -3  -4   49.93    2.02   2
   3   3   5   52.13    3.67   2
  -3  -3  -5   52.94    2.44   2
   3   3   6   23.31    1.89   2
  -3  -3  -6   30.17    2.85   2
   3   3   7   12.86    1.61   2
  -3  -3  -7   20.99    2.51   2
   3   3   8  132.45    5.91   2
  -3  -3  -8  129.44    7.31   2
   3   3   9   10.67    1.50   2
  -3  -3  -9   10.90    1.46   2
   3   3  12    4.09    2.16   2
  -3  -3 -12    3.05    2.10   2
   3   4 -15    0.76    1.36   2
   3   4 -15    1.97    1.27   2
   3   4 -14    2.51    1.37   2
   3   4 -14    1.41    1.32   2
   3   4 -13   11.15    1.82   2
   3   4 -13   13.24    1.67   2
   3   4 -12    1.17    1.32   2
   3   4 -12    2.16    1.24   2
   3   4 -10    5.50    1.63   2
   3   4 -10    6.91    1.37   2
   3   4  -9    3.68    1.48   2
  -3  -4   9    0.95    0.89   2
   3   4  -8    5.16    1.64   2
  -3  -4   8    3.43    1.50   2
   3   4  -7    4.48    1.60   2
  -3  -4   7    1.64    0.84   2
   3   4  -6    6.98    1.78   2
  -3  -4   6    6.34    1.00   2
   3   4  -5   37.18    2.86   2
  -3  -4   5   37.25    2.55   2
   3   4  -3   17.74    2.18   2
  -3  -4   3   15.18    2.20   2
   3   4  -2    3.32    1.12   2
  -3  -4   2    7.00    1.09   2
   3   4  -1    6.01    2.21   2
  -3  -4   1    6.55    1.90   2
   3   4   0   25.02    3.07   2
  -3  -4   0   32.17    1.94   2
   3   4   1   26.08    1.86   2
  -3  -4  -1   26.19    2.55   2
   3   4   2    8.43    2.23   2
   3   4   4   11.76    1.43   2
  -3  -4  -4   11.34    2.13   2
   3   4   5    8.37    1.44   2
  -3  -4  -5   11.01    2.25   2
   3   4   6   40.35    3.46   2
  -3  -4  -6   35.28    2.12   2
   3   4   7    3.89    2.29   2
  -3  -4  -7    5.24    2.15   2
   3   4   8   90.49    5.87   2
  -3  -4  -8   88.93    5.63   2
   3   4  11    9.52    2.46   2
  -3  -4 -11    3.83    2.22   2
   3   5 -13    6.72    1.79   2
   3   5 -13    4.93    0.95   2
   3   5 -11    4.39    1.76   2
   3   5 -11    4.11    1.55   2
   3   5 -10    8.40    1.98   2
   3   5 -10    7.37    1.61   2
   3   5  -9   10.01    1.94   2
  -3  -5   9    7.24    1.23   2
   3   5  -8   -0.50    1.68   2
  -3  -5   8    2.68    1.58   2
   3   5  -7   22.00    1.62   2
  -3  -5   7   15.36    1.99   2
   3   5  -6    4.93    1.18   2
  -3  -5   6    4.30    1.76   2
   3   5  -4    8.15    2.16   2
  -3  -5   4    6.62    1.91   2
   3   5  -3   25.33    2.66   2
  -3  -5   3   17.95    2.31   2
   3   5  -2    2.78    1.94   2
  -3  -5   2   -1.49    1.73   2
   3   5  -1   29.38    2.99   2
  -3  -5   1   26.77    1.92   2
   3   5   0    2.66    1.18   2
  -3  -5   0    2.40    1.87   2
   3   5   1   -0.11    1.22   2
  -3  -5  -1   -1.02    1.79   2
  -3  -5  -3   22.59    2.22   2
   3   5   4   25.21    2.97   2
  -3  -5  -4   21.76    2.47   2
   3   5   5   18.12    2.71   2
  -3  -5  -5   17.30    2.64   2
   3   5   6   11.80    2.41   2
  -3  -5  -6    7.56    1.43   2
   3   5   7   70.44    3.78   2
  -3  -5  -7   63.58    4.58   2
   3   5   8    7.14    1.57   2
  -3  -5  -8    6.68    1.45   2
   3   6 -11    4.90    1.89   2
   3   6 -11   -0.59    1.54   2
   3   6 -10    0.40    1.74   2
   3   6 -10   -0.00    1.58   2
   3   6  -9    2.89    1.18   2
  -3  -6   9    3.07    1.87   2
   3   6  -8    3.55    1.89   2
  -3  -6   8    3.55    1.74   2
   3   6  -7    3.99    2.02   2
  -3  -6   7    2.97    1.05   2
   3   6  -6   15.04    2.61   2
  -3  -6   6   17.81    2.19   2
   3   6  -4    7.04    2.29   2
  -3  -6   4    8.21    1.25   2
   3   6  -3    1.71    2.17   2
  -3  -6   3    6.02    1.97   2
   3   6  -2    5.49    2.15   2
  -3  -6   2   -0.44    1.91   2
   3   6  -1    9.35    2.45   2
  -3  -6   1    6.80    2.28   2
   3   6   0    8.69    2.59   2
  -3  -6   0   10.83    1.37   2
   3   6   1    3.71    2.15   2
  -3  -6  -1    1.33    1.13   2
   3   6   3    2.71    2.31   2
  -3  -6  -3    2.58    1.15   2
   3   6   4    2.47    2.29   2
  -3  -6  -4    0.99    1.96   2
   3   6   5   18.15    2.88   2
  -3  -6  -5   12.97    2.54   2
   3   6   6    3.26    2.34   2
  -3  -6  -6    2.82    1.27   2
   3   6   7   40.80    2.86   2
  -3  -6  -7   41.46    3.71   2
   3   7 -10    1.19    1.13   2
  -3  -7  10   -1.09    1.13   2
   3   7  -9    1.35    2.06   2
   3   7  -8    6.60    2.26   2
  -3  -7   8    4.24    1.87   2
   3   7  -7   -1.55    1.25   2
  -3  -7   7    2.59    1.59   2
   3   7  -5    3.38    2.16   2
  -3  -7   5    5.89    1.94   2
   3   7  -4   12.83    2.36   2
  -3  -7   4    7.28    1.98   2
   3   7  -3    2.57    2.29   2
  -3  -7   3    5.69    2.02   2
   3   7  -2   11.37    2.53   2
  -3  -7   2    5.14    2.25   2
   3   7  -1   -3.49    2.33   2
  -3  -7   1    5.46    2.05   2
   3   7   0    2.19    2.36   2
  -3  -7   0    1.80    1.93   2
   3   7   2    4.19    1.60   2
  -3  -7  -2    0.93    1.44   2
   3   7   3   11.54    2.60   2
  -3  -7  -3    3.29    2.27   2
  -4  10   4    2.13    1.85   2
  -4  10   4    1.20    1.38   2
  -4  10   3   -1.99    1.74   2
  -4  10   3    1.42    1.40   2
  -4  10   2   -0.20    2.03   2
  -4  10   2    0.99    1.42   2
  -4  10   1    2.10    2.03   2
  -4  10   1   -0.76    1.42   2
   4  -9  -8   -0.70    1.35   2
  -4   9   8    2.03    1.34   2
   4  -9  -7    6.37    1.59   2
  -4   9   7    3.18    1.61   2
   4  -9  -6    1.97    0.99   2
  -4   9   6    0.97    1.00   2
   4  -9  -5    0.50    1.14   2
  -4   9   5    9.48    1.71   2
  -4   9   4   -0.95    1.69   2
  -4   9   4   -1.52    1.31   2
  -4   9   2    6.95    2.19   2
  -4   9   2   10.52    1.67   2
  -4   9   1    4.73    1.26   2
  -4   9   1    0.73    1.57   2
  -4   9   0    5.10    1.28   2
  -4   9   0    3.65    1.54   2
  -4   9  -1   10.71    1.64   2
  -4   9  -1   11.82    1.89   2
  -4   9  -2    0.74    1.29   2
  -4   9  -2    0.96    0.96   2
  -4   9  -3    4.33    2.29   2
  -4   9  -3    6.20    1.80   2
   4  -8 -10    1.38    1.13   2
  -4   8  10    1.54    1.16   2
   4  -8  -9    2.60    1.62   2
  -4   8   9    2.87    1.23   2
   4  -8  -8    3.65    1.32   2
  -4   8   8    4.05    1.35   2
   4  -8  -7   -1.15    1.49   2
  -4   8   7    3.46    1.29   2
   4  -8  -6    6.41    1.06   2
  -4   8   6    5.68    1.57   2
  -4   8   5    2.76    1.53   2
  -4   8   5    1.59    1.19   2
  -4   8   3    2.57    1.72   2
  -4   8   3    3.87    1.33   2
  -4   8   2    1.96    1.71   2
  -4   8   2    0.55    1.34   2
  -4   8   1    9.59    1.97   2
  -4   8   1    4.01    1.53   2
  -4   8   0   17.28    2.35   2
  -4   8   0    7.27    1.76   2
  -4   8  -1   12.70    2.24   2
  -4   8  -1   10.67    1.20   2
  -4   8  -2    1.57    2.03   2
  -4   8  -2    3.25    1.60   2
  -4   8  -4    0.66    2.15   2
  -4   8  -4    2.42    1.58   2
  -4   8  -5    5.65    1.44   2
  -4   8  -5    4.34    1.16   2
   4  -7 -10   -0.51    1.31   2
  -4   7  10    1.48    0.98   2
   4  -7  -9    3.09    1.32   2
  -4   7   9   -1.77    1.30   2
   4  -7  -8    9.59    1.34   2
  -4   7   8    8.34    1.29   2
   4  -7  -7   -2.26    1.22   2
  -4   7   7    0.05    1.15   2
   4  -7  -6   -0.01    0.85   2
  -4   7   6   16.00    1.44   2
  -4   7   5    6.27    1.37   2
  -4   7   5    7.39    1.19   2
  -4   7   3   27.17    2.05   2
  -4   7   3   20.81    1.81   2
  -4   7   2   10.08    1.80   2
  -4   7   2   10.06    1.44   2
  -4   7   1    1.96    1.67   2
  -4   7   1    3.11    1.36   2
  -4   7   0   50.77    3.54   2
  -4   7   0   46.01    2.87   2
  -4   7  -1    3.27    1.80   2
  -4   7  -1    1.18    0.90   2
  -4   7  -2   15.61    2.34   2
  -4   7  -2   12.86    1.88   2
  -4   7  -4    0.27    1.42   2
  -4   7  -4    3.54    1.70   2
   4  -7   5    0.88    1.07   2
  -4   7  -5    3.18    1.07   2
   4  -7   6    4.46    1.92   2
  -4   7  -6    3.25    1.17   2
   4  -7   7    6.20    1.36   2
  -4   7  -7    3.30    1.94   2
   4  -6 -11    7.04    1.12   2
  -4   6  11    5.58    0.87   2
   4  -6 -10    2.91    1.12   2
  -4   6  10    3.90    0.84   2
   4  -6  -9    5.87    0.93   2
  -4   6   9    5.79    0.92   2
   4  -6  -8    0.58    0.88   2
  -4   6   8    2.69    0.88   2
   4  -6  -7    4.41    0.73   2
  -4   6   7   12.62    1.15   2
  -4   6   6    5.15    1.13   2
  -4   6   6    3.05    0.86   2
  -4   6   4   -2.51    1.16   2
  -4   6   4    1.86    0.98   2
  -4   6   3    4.78    1.31   2
  -4   6   3    5.34    1.09   2
  -4   6   2   16.69    1.86   2
  -4   6   2   16.41    1.52   2
  -4   6   1   19.70    2.10   2
  -4   6   1   14.22    1.66   2
  -4   6   0   45.98    3.12   2
  -4   6   0   40.50    2.67   2
  -4   6  -1    6.17    1.18   2
  -4   6  -1    5.84    1.48   2
   4  -6   3    2.62    1.06   2
  -4   6  -3    3.82    0.90   2
   4  -6   4    1.30    1.69   2
  -4   6  -4    2.64    1.06   2
   4  -6   5    3.43    1.95   2
  -4   6  -5    5.01    1.71   2
   4  -6   6   10.12    2.14   2
  -4   6  -6    4.17    1.86   2
   4  -6   7   13.41    1.43   2
  -4   6  -7   12.34    1.36   2
   4  -6   8    7.63    2.14   2
  -4   6  -8    6.22    1.98   2
   4  -5 -11    3.77    0.75   2
  -4   5  11    2.99    0.58   2
   4  -5 -10    0.66    0.74   2
  -4   5  10   -0.52    0.72   2
   4  -5  -9   10.71    1.01   2
  -4   5   9   10.52    0.98   2
  -4   5   8    0.30    0.81   2
  -4   5   7   27.97    1.62   2
  -4   5   7   29.15    1.43   2
  -4   5   6   16.99    1.53   2
  -4   5   6   15.26    0.97   2
  -4   5   4   55.68    2.42   2
  -4   5   4   50.82    2.12   2
  -4   5   3   20.48    1.45   2
  -4   5   3   19.60    1.36   2
  -4   5   2    4.42    1.32   2
  -4   5   2    5.64    1.13   2
  -4   5   1  171.13    6.62   2
  -4   5   1  146.84    6.51   2
   4  -5   0    3.50    1.42   2
  -4   5   0    4.68    1.29   2
   4  -5   1   38.52    2.58   2
  -4   5  -1   38.39    2.44   2
   4  -5   3   -2.13    1.40   2
  -4   5  -3    0.57    1.40   2
   4  -5   4    3.62    1.67   2
  -4   5  -4    5.86    1.58   2
   4  -5   5    5.29    1.87   2
  -4   5  -5    6.25    1.90   2
   4  -5   6   12.12    1.44   2
  -4   5  -6   16.33    2.15   2
   4  -5   7   -1.32    1.81   2
  -4   5  -7    2.01    1.79   2
   4  -5   8   18.86    2.58   2
  -4   5  -8   17.76    2.58   2
   4  -5  10    7.37    1.43   2
  -4   5 -10    6.16    1.99   2
   4  -4 -12   13.49    0.58   2
  -4   4  12   10.87    0.36   2
   4  -4 -11    3.15    0.44   2
  -4   4  11    4.66    0.30   2
   4  -4 -10    4.46    0.39   2
  -4   4  10    5.08    0.29   2
  -4   4   9    1.00    0.33   2
  -4   4   8   16.37    0.58   2
  -4   4   8   13.57    0.57   2
  -4   4   7    8.55    0.67   2
  -4   4   7    7.55    0.62   2
  -4   4   5    5.80    0.74   2
  -4   4   5    4.72    0.67   2
  -4   4   4    6.39    0.89   2
  -4   4   4    6.14    0.80   2
  -4   4   3   31.82    1.60   2
  -4   4   3   27.60    1.37   2
   4  -4  -2   40.55    1.90   2
  -4   4   2   39.48    1.92   2
   4  -4  -1   91.85    3.97   2
  -4   4   1   91.45    3.73   2
   4  -4   0   13.15    1.52   2
  -4   4   0   11.72    1.47   2
   4  -4   2    3.51    0.88   2
  -4   4  -2    5.76    0.97   2
   4  -4   3    0.56    1.51   2
  -4   4  -3    0.95    1.53   2
   4  -4   4   13.52    1.97   2
  -4   4  -4   13.34    2.02   2
   4  -4   5   20.64    2.37   2
  -4   4  -5   21.03    2.29   2
   4  -4   6   23.25    2.49   2
  -4   4  -6   22.09    2.40   2
   4  -4   7    6.20    1.17   2
  -4   4  -7    7.78    1.12   2
   4  -4   9   13.74    1.32   2
  -4   4  -9   16.42    1.56   2
   4  -4  10    3.15    1.28   2
  -4   4 -10    3.77    1.97   2
   4  -4  11   68.31    3.51   2
  -4   4 -11   67.40    3.57   2
  -4   3   5   90.32    2.58   2
  -4   3   5   77.77    2.20   2
  -4   3   4   39.27    1.56   2
   4  -3  -3    3.84    0.69   2
  -4   3   3    1.69    0.73   2
   4  -3  -2  344.57   15.48   2
  -4   3   2  345.90   15.64   2
   4  -3  -1    0.31    0.93   2
  -4   3   1    0.99    1.02   2
   4  -3   0   74.32    3.05   2
  -4   3   0   63.74    2.84   2
   4  -3   2    9.31    1.05   2
  -4   3  -2    9.34    1.42   2
   4  -3   3    8.39    1.66   2
  -4   3  -3    7.02    1.63   2
   4  -3   4   12.37    1.96   2
  -4   3  -4   16.10    1.25   2
   4  -3   5   31.90    2.64   2
  -4   3  -5   28.26    2.55   2
   4  -3   6   -0.33    1.02   2
  -4   3  -6    2.47    1.00   2
   4  -3   7   34.75    1.65   2
   4  -3   9   12.34    1.91   2
  -4   3  -9   12.76    1.51   2
   4  -3  10   38.68    3.27   2
  -4   3 -10   31.59    3.08   2
   4  -3  11   10.47    2.25   2
  -4   3 -11    9.76    1.38   2
   4  -3  12    1.15    2.02   2
  -4   3 -12   -0.83    1.83   2
   4  -2  -5    8.43    0.40   2
  -4   2   5    7.63    0.48   2
   4  -2  -4   34.22    1.24   2
  -4   2   4   31.45    1.24   2
   4  -2  -3   47.89    1.57   2
  -4   2   3   43.12    1.62   2
   4  -2  -2  145.02    5.06   2
  -4   2   2  146.50    5.74   2
   4  -2  -1   24.27    1.51   2
  -4   2   1   23.10    1.42   2
   4  -2   1   28.93    2.12   2
   4  -2   2    0.89    1.46   2
  -4   2  -2    0.74    1.32   2
   4  -2   3   30.35    2.44   2
  -4   2  -3   23.16    2.19   2
   4  -2   4   48.72    3.10   2
  -4   2  -4   41.27    2.87   2
   4  -2   5   51.95    3.34   2
  -4   2  -5   49.74    3.22   2
   4  -2   6    5.54    1.07   2
  -4   2  -6    6.27    1.85   2
   4  -2   9    4.48    1.91   2
  -4   2  -9    1.48    1.81   2
   4  -2  10  142.55    6.56   2
  -4   2 -10  134.71    7.70   2
   4  -2  11    6.04    2.03   2
  -4   2 -11   -0.92    1.16   2
   4  -2  12    0.05    1.99   2
  -4   2 -12   -3.00    1.98   2
   4  -1 -13    6.06    0.47   2
   4  -1 -13    6.94    0.49   2
   4  -1 -12    0.08    0.37   2
   4  -1 -12    1.19    0.31   2
   4  -1 -11    0.58    0.20   2
   4  -1 -11    0.75    0.24   2
   4  -1  -6   88.79    1.98   2
  -4   1   6   83.43    1.93   2
   4  -1  -5   53.59    1.53   2
  -4   1   5   51.99    1.59   2
   4  -1  -4    1.46    0.77   2
  -4   1   4    0.93    0.77   2
   4  -1  -3  455.39   21.86   2
  -4   1   3  456.73   21.97   2
   4  -1  -2   -0.62    0.89   2
  -4   1   2   -0.03    0.87   2
   4  -1  -1  104.66    3.91   2
  -4   1   1   90.15    3.61   2
   4  -1   1   65.82    3.32   2
  -4   1  -1   60.84    3.20   2
   4  -1   2   19.69    2.11   2
  -4   1  -2   17.21    2.03   2
   4  -1   3   22.01    2.17   2
  -4   1  -3   21.41    2.25   2
   4  -1   4   48.13    2.23   2
  -4   1  -4   48.30    2.11   2
   4  -1   5   12.17    2.03   2
  -4   1  -5   11.59    1.21   2
   4  -1   6   45.75    1.90   2
  -4   1  -6   50.40    2.24   2
  -4   1  -8   12.13    1.34   2
   4  -1   9   53.79    3.50   2
  -4   1  -9   50.56    2.59   2
   4  -1  10   17.52    2.47   2
  -4   1 -10   10.60    2.48   2
   4  -1  11    6.91    1.37   2
  -4   1 -11    9.56    2.28   2
  -4   1 -12    0.43    1.93   2
   4   0 -14   14.48    1.10   2
   4   0 -14   16.36    0.85   2
   4   0 -13    4.73    0.61   2
   4   0 -13    3.27    0.82   2
   4   0 -12    0.63    0.68   2
   4   0 -12   -1.04    0.59   2
   4   0 -11    0.41    0.65   2
   4   0 -11    0.73    0.61   2
   4   0 -10    7.32    0.76   2
   4   0 -10    5.61    0.62   2
   4   0  -9   13.48    0.82   2
   4   0  -9   13.05    0.75   2
   4   0  -7   14.35    0.93   2
  -4   0   7   11.56    0.89   2
   4   0  -6    8.38    0.96   2
  -4   0   6    8.32    0.92   2
   4   0  -5   24.76    1.49   2
  -4   0   5   24.17    1.49   2
   4   0  -4   33.93    1.59   2
  -4   0   4   30.99    1.59   2
   4   0  -3  126.67    4.63   2
  -4   0   3  133.00    4.81   2
   4   0  -2   27.32    1.65   2
  -4   0   2   27.05    1.70   2
  -4   0   1   28.93    1.98   2
  -4   0   0   21.23    1.26   2
   4   0   1   10.85    1.78   2
  -4   0  -1    8.70    1.73   2
   4   0   2   25.93    1.43   2
  -4   0  -2   22.53    2.31   2
   4   0   3   71.02    3.80   2
  -4   0  -3   63.07    2.63   2
   4   0   4   62.57    3.60   2
  -4   0  -4   63.59    3.79   2
   4   0   5   -0.30    1.61   2
  -4   0  -5   -1.73    1.65   2
   4   0   7   24.40    1.19   2
   4   0   8    4.34    1.13   2
  -4   0  -8    5.02    1.75   2
   4   0   9  184.36   10.19   2
  -4   0  -9  177.46    9.73   2
   4   0  10    2.97    2.06   2
  -4   0 -10    1.49    1.92   2
   4   0  11    0.32    1.22   2
  -4   0 -11   -0.06    1.98   2
  -4   0 -12   24.30    1.94   2
   4   1 -14    4.87    1.05   2
   4   1 -14    4.80    0.81   2
   4   1 -13    0.12    1.05   2
   4   1 -13    1.48    0.71   2
   4   1 -12   -1.37    0.71   2
   4   1 -12    0.34    0.64   2
   4   1 -11    0.81    0.96   2
   4   1 -11    1.26    0.89   2
   4   1 -10   17.88    1.12   2
   4   1 -10   15.98    1.19   2
   4   1  -9   35.79    1.52   2
   4   1  -9   29.23    1.32   2
   4   1  -7   56.86    2.18   2
  -4  -1   7   52.02    2.01   2
   4   1  -6   42.19    2.29   2
  -4  -1   6   38.14    1.62   2
   4   1  -5   -0.01    1.37   2
  -4  -1   5   -2.65    1.26   2
   4   1  -4  321.06   14.98   2
  -4  -1   4  307.97   14.37   2
   4   1  -3    1.28    1.16   2
  -4  -1   3   -0.87    1.09   2
   4   1  -2   67.22    3.20   2
  -4  -1   2   65.85    3.20   2
   4   1   0   70.76    3.68   2
  -4  -1   0   68.82    2.69   2
   4   1   1   17.68    1.96   2
  -4  -1  -1   16.51    2.01   2
   4   1   2   20.21    2.29   2
  -4  -1  -2   20.27    2.16   2
   4   1   3   43.00    3.35   2
  -4  -1  -3   45.46    3.06   2
   4   1   4   32.37    2.86   2
  -4  -1  -4   29.70    1.78   2
   4   1   7    9.19    1.02   2
   4   1   8   49.26    3.71   2
  -4  -1  -8   44.03    3.28   2
   4   1   9   18.90    2.76   2
  -4  -1  -9   21.02    2.59   2
   4   1  10    9.61    1.43   2
  -4  -1 -10    7.13    1.43   2
   4   1  11    1.05    2.29   2
  -4  -1 -11    2.59    1.24   2
   4   2 -14    2.49    1.39   2
   4   2 -14    4.40    0.94   2
   4   2 -13   -0.79    0.93   2
   4   2 -13   -0.45    0.86   2
   4   2 -12    1.28    0.91   2
   4   2 -12    0.82    0.82   2
   4   2 -11    3.48    1.36   2
   4   2 -11    1.92    0.87   2
   4   2 -10    9.92    1.62   2
   4   2 -10    6.97    1.03   2
   4   2  -8   11.82    1.68   2
  -4  -2   8   10.16    1.16   2
   4   2  -7    5.92    1.16   2
  -4  -2   7    7.45    1.12   2
   4   2  -6   12.76    1.85   2
  -4  -2   6   10.70    1.32   2
   4   2  -5   18.07    1.71   2
  -4  -2   5   15.89    1.58   2
   4   2  -4   77.97    3.65   2
  -4  -2   4   74.18    3.39   2
   4   2  -3   18.70    1.95   2
  -4  -2   3   16.89    1.81   2
   4   2  -1   14.44    2.02   2
  -4  -2   1   17.91    1.85   2
   4   2   0   15.08    2.05   2
  -4  -2   0   12.50    1.99   2
   4   2   1   15.87    2.23   2
  -4  -2  -1   15.50    1.37   2
   4   2   2   56.45    2.54   2
  -4  -2  -2   58.23    3.64   2
   4   2   3   39.27    2.16   2
  -4  -2  -3   42.35    3.19   2
   4   2   4    4.55    1.22   2
  -4  -2  -4    5.26    1.19   2
   4   2   7    5.24    2.04   2
  -4  -2  -7    5.50    1.62   2
   4   2   8  116.99    6.89   2
  -4  -2  -8  108.30    4.86   2
   4   2   9    3.94    2.24   2
  -4  -2  -9    1.71    2.03   2
   4   2  10    2.77    2.14   2
  -4  -2 -10   -0.04    2.01   2
   4   2  11   25.74    2.07   2
   4   3 -14    2.49    1.16   2
   4   3 -14    1.16    1.43   2
   4   3 -13   -0.30    1.14   2
   4   3 -13    1.52    1.01   2
   4   3 -12    1.76    1.22   2
   4   3 -12    1.87    1.03   2
   4   3 -11    7.17    1.26   2
   4   3 -11    6.86    1.11   2
   4   3 -10   16.43    1.73   2
   4   3 -10   14.55    1.49   2
   4   3  -8   23.09    1.90   2
  -4  -3   8   23.81    1.78   2
   4   3  -7   29.94    2.15   2
  -4  -3   7   26.09    1.90   2
   4   3  -6    0.60    1.37   2
  -4  -3   6    1.65    1.24   2
   4   3  -5  141.25    6.68   2
  -4  -3   5  131.61    6.34   2
   4   3  -4    2.25    1.52   2
  -4  -3   4    1.33    1.40   2
   4   3  -3   30.83    2.62   2
  -4  -3   3   31.22    2.33   2
   4   3  -1   47.05    3.20   2
  -4  -3   1   40.11    2.03   2
   4   3   0   10.16    2.21   2
  -4  -3   0   12.51    2.06   2
   4   3   1   14.07    2.37   2
  -4  -3  -1   12.22    2.16   2
   4   3   2   23.66    2.66   2
  -4  -3  -2   19.98    2.55   2
   4   3   3   36.56    2.27   2
  -4  -3  -3   35.91    3.05   2
   4   3   4   37.54    2.37   2
  -4  -3  -4   39.93    3.24   2
   4   3   6    6.55    1.15   2
  -4  -3  -6    3.92    1.38   2
   4   3   7   22.17    1.82   2
  -4  -3  -7   19.57    2.50   2
   4   3   8   19.42    2.88   2
  -4  -3  -8   15.47    2.59   2
   4   3   9    9.69    2.49   2
  -4  -3  -9    6.66    1.43   2
   4   3  10   -0.03    2.28   2
  -4  -3 -10    1.56    1.31   2
   4   4 -14    1.61    1.27   2
   4   4 -14   -2.88    1.17   2
   4   4 -13    0.80    1.25   2
   4   4 -12    1.02    1.41   2
   4   4 -12    1.69    1.20   2
   4   4 -11    4.89    1.55   2
   4   4 -11    4.55    1.34   2
   4   4 -10    4.86    1.55   2
   4   4  -9    8.72    1.66   2
  -4  -4   9    4.54    1.41   2
   4   4  -8    3.52    1.63   2
  -4  -4   8    3.07    1.36   2
   4   4  -7    4.40    1.66   2
  -4  -4   7    5.84    1.51   2
   4   4  -6    4.72    1.80   2
  -4  -4   6    5.28    0.92   2
   4   4  -5   30.39    2.43   2
  -4  -4   5   25.76    2.40   2
   4   4  -4   11.40    1.95   2
  -4  -4   4    9.99    1.89   2
   4   4  -2   13.75    2.20   2
  -4  -4   2   10.09    1.92   2
   4   4  -1   10.32    1.37   2
  -4  -4   1    7.56    1.25   2
   4   4   0    3.76    1.31   2
  -4  -4   0    6.04    1.88   2
   4   4   1   38.90    3.29   2
  -4  -4  -1   34.06    3.02   2
   4   4   2   17.45    2.65   2
  -4  -4  -2   15.45    2.51   2
   4   4   3    8.59    2.29   2
  -4  -4  -3    5.45    1.97   2
   4   4   5    9.41    1.96   2
  -4  -4  -5    2.77    1.18   2
   4   4   6    2.63    2.14   2
  -4  -4  -6    2.64    1.85   2
   4   4   7   43.47    4.02   2
  -4  -4  -7   40.32    2.50   2
   4   4   8    3.87    2.27   2
  -4  -4  -8    4.11    2.21   2
   4   5 -12    1.84    1.42   2
   4   5 -12    2.26    1.44   2
   4   5 -11    5.33    1.13   2
   4   5 -11    2.77    1.55   2
   4   5  -9    9.00    1.90   2
  -4  -5   9    6.60    1.59   2
   4   5  -8   10.64    2.17   2
  -4  -5   8    8.96    1.71   2
  -4  -5   7    1.60    0.94   2
   4   5  -6   44.12    3.17   2
  -4  -5   6   37.07    2.91   2
   4   5  -5    1.33    1.84   2
  -4  -5   5    0.48    0.91   2
   4   5  -4   13.52    1.48   2
  -4  -5   4   13.26    2.14   2
   4   5  -2   18.63    1.64   2
  -4  -5   2   18.41    1.56   2
   4   5  -1    7.37    1.38   2
  -4  -5   1    7.06    1.98   2
   4   5   0    9.73    2.35   2
  -4  -5   0    6.10    2.12   2
   4   5   1   11.39    2.64   2
  -4  -5  -1   11.74    2.21   2
   4   5   2   24.70    2.02   2
  -4  -5  -2   21.58    2.78   2
   4   5   3   18.64    1.86   2
  -4  -5  -3   16.75    2.64   2
   4   5   5    3.02    1.27   2
  -4  -5  -5   -0.32    1.60   2
   4   5   6    7.28    1.54   2
  -4  -5  -6    5.12    2.23   2
   4   6 -11    1.33    1.81   2
   4   6 -11    2.79    1.00   2
  -4  -6  11   -0.26    1.02   2
   4   6 -10    2.46    1.93   2
  -4  -6  10    3.99    1.65   2
   4   6  -9    0.04    1.90   2
  -4  -6   9    1.76    1.54   2
   4   6  -8    4.16    1.83   2
  -4  -6   8    1.59    1.56   2
   4   6  -7   -0.88    1.85   2
  -4  -6   7    1.73    1.60   2
   4   6  -6    7.39    2.19   2
  -4  -6   6    6.74    1.23   2
   4   6  -5    3.50    1.31   2
  -4  -6   5    5.30    1.80   2
   4   6  -3    6.40    2.38   2
  -4  -6   3    7.37    1.97   2
   4   6  -2    3.36    2.20   2
  -4  -6   2    4.92    1.97   2
   4   6  -1    4.43    2.24   2
  -4  -6   1    2.36    1.21   2
   4   6   0   16.65    2.80   2
  -4  -6   0   12.15    1.56   2
   4   6   1    8.28    2.62   2
  -4  -6  -1    7.92    1.46   2
   4   6   2    6.88    2.45   2
  -4  -6  -2    5.88    2.31   2
   4   7  -6    0.14    2.07   2
  -4  -7   6    0.84    1.73   2
   4   7  -5    2.49    1.34   2
  -4  -7   5    3.11    1.83   2
  -5   9   7    2.64    1.42   2
  -5   9   7    2.08    1.03   2
  -5   9   6    0.57    1.45   2
  -5   9   6    1.53    1.10   2
  -5   9   5    2.23    1.46   2
  -5   9   5    0.83    1.14   2
  -5   9   4    0.09    0.98   2
  -5   9   4   -0.93    1.10   2
  -5   9   3    8.30    1.75   2
  -5   9   3    5.16    1.43   2
  -5   9   2    5.03    1.78   2
  -5   9   2    1.48    0.85   2
  -5   9   1    1.72    1.72   2
  -5   9   1   -1.27    1.36   2
  -5   9   0    6.22    2.19   2
  -5   9   0    6.93    1.68   2
  -5   9  -1    0.85    1.92   2
  -5   9  -1    1.74    1.51   2
  -5   9  -2    0.64    2.10   2
  -5   9  -2    2.25    1.58   2
  -5   8   8    0.24    1.02   2
  -5   8   8    2.30    1.17   2
  -5   8   7    1.36    1.12   2
  -5   8   7    1.41    0.96   2
  -5   8   6    3.31    1.24   2
  -5   8   6    3.20    1.03   2
  -5   8   5    9.71    1.59   2
  -5   8   5    7.43    1.26   2
  -5   8   4    5.21    1.54   2
  -5   8   4    5.07    1.20   2
  -5   8   3    2.31    1.52   2
  -5   8   3    4.05    1.25   2
  -5   8   1    1.00    1.67   2
  -5   8   1    0.38    1.28   2
  -5   8   0   15.16    2.21   2
  -5   8   0   11.47    1.74   2
  -5   8  -1    0.13    1.73   2
  -5   8  -1   -0.73    1.44   2
  -5   8  -2    5.26    2.11   2
  -5   8  -2    6.24    1.74   2
  -5   8  -3    2.65    2.23   2
  -5   8  -3    4.10    1.05   2
  -5   8  -4    5.62    1.65   2
  -5   8  -4    2.93    1.71   2
  -5   7   9    5.77    1.02   2
  -5   7   9    5.81    0.79   2
  -5   7   8    8.12    1.05   2
  -5   7   8    5.89    1.13   2
  -5   7   7    0.53    1.38   2
  -5   7   7    2.58    0.86   2
  -5   7   6    7.03    1.27   2
  -5   7   6    6.94    1.02   2
  -5   7   5    3.65    1.27   2
  -5   7   5    6.28    1.04   2
  -5   7   4   19.49    1.75   2
  -5   7   4   15.61    1.48   2
  -5   7   3    8.07    1.60   2
  -5   7   2    0.81    1.44   2
  -5   7   2    0.34    1.17   2
  -5   7   1   19.10    2.06   2
  -5   7   1   18.58    1.81   2
  -5   7   0   -3.31    1.66   2
  -5   7   0   -0.47    1.38   2
  -5   7  -1   14.22    2.32   2
  -5   7  -1    7.62    1.63   2
  -5   7  -2    0.55    1.27   2
  -5   7  -2    1.87    1.53   2
   5  -7   3    1.58    1.80   2
  -5   7  -3    3.12    1.60   2
   5  -7   5    4.25    1.96   2
  -5   7  -5    2.77    1.71   2
   5  -7   6    5.81    1.40   2
  -5   7  -6   11.46    2.01   2
  -5   6   9    1.09    0.80   2
  -5   6   9    0.10    0.47   2
  -5   6   8    1.67    0.94   2
  -5   6   8    0.58    0.80   2
  -5   6   7    8.44    0.98   2
  -5   6   7    8.98    0.84   2
  -5   6   6   18.59    1.30   2
  -5   6   6   15.98    1.13   2
  -5   6   5   13.97    1.35   2
  -5   6   5   12.48    1.16   2
  -5   6   4    7.38    1.27   2
  -5   6   4    6.75    1.07   2
  -5   6   2    0.12    1.32   2
  -5   6   2    1.02    1.08   2
  -5   6   1   29.84    2.53   2
  -5   6   1   23.64    1.93   2
   5  -6   0    1.94    1.41   2
  -5   6   0    1.92    1.31   2
   5  -6   1   15.44    1.98   2
  -5   6  -1   17.73    1.21   2
   5  -6   2    9.35    1.19   2
  -5   6  -2   10.62    1.74   2
   5  -6   3   23.71    2.39   2
  -5   6  -3   15.76    1.37   2
   5  -6   5   13.54    1.48   2
  -5   6  -5   15.53    2.21   2
   5  -6   6    5.84    1.99   2
  -5   6  -6    2.44    1.92   2
  -5   6  -7   16.49    2.49   2
   5  -6   8    1.21    2.03   2
  -5   6  -8    1.21    1.83   2
  -5   5  10   15.80    0.55   2
  -5   5  10   14.76    0.51   2
  -5   5   9    8.63    0.42   2
  -5   5   9   12.90    0.62   2
  -5   5   8    1.94    0.66   2
  -5   5   8    1.03    0.55   2
  -5   5   7    7.82    0.91   2
  -5   5   7    8.10    0.87   2
  -5   5   6   19.27    1.39   2
  -5   5   6   16.83    1.25   2
  -5   5   5   30.28    1.46   2
  -5   5   5   30.66    1.36   2
  -5   5   3   -0.53    1.14   2
  -5   5   3    1.22    0.90   2
   5  -5  -2   33.69    1.94   2
  -5   5   2   26.51    1.68   2
   5  -5  -1    0.02    1.20   2
  -5   5   1    0.54    1.03   2
   5  -5   0   23.61    1.92   2
  -5   5   0   21.79    1.85   2
   5  -5   1    3.09    1.34   2
  -5   5  -1    3.84    1.37   2
   5  -5   2    7.95    1.66   2
  -5   5  -2    6.53    1.62   2
   5  -5   4    7.34    1.20   2
  -5   5  -4    5.90    1.79   2
   5  -5   5   19.41    2.23   2
  -5   5  -5   16.94    1.39   2
   5  -5   6   32.69    2.98   2
  -5   5  -6   26.93    2.62   2
   5  -5   7   15.93    2.45   2
  -5   5  -7   11.43    1.35   2
   5  -5   8    5.54    1.30   2
  -5   5  -8    3.21    1.91   2
   5  -5   9    0.77    1.15   2
  -5   5  -9    1.84    1.15   2
  -5   4   8    9.91    0.30   2
  -5   4   7   27.68    0.93   2
  -5   4   6   31.60    1.31   2
  -5   4   6   29.45    1.15   2
  -5   4   5   11.30    1.11   2
  -5   4   5   10.65    0.70   2
   5  -4  -3   -0.45    0.83   2
  -5   4   3   -0.36    0.80   2
   5  -4  -2   35.14    1.73   2
  -5   4   2   35.58    1.83   2
   5  -4  -1    1.13    1.09   2
  -5   4   1    0.21    0.98   2
   5  -4   0   35.90    2.08   2
  -5   4   0   26.42    1.84   2
   5  -4   1   29.95    2.15   2
  -5   4  -1   25.80    1.32   2
   5  -4   2   51.18    2.21   2
  -5   4  -2   46.01    2.70   2
   5  -4   4   37.79    2.92   2
  -5   4  -4   34.80    1.88   2
   5  -4   5    6.86    1.21   2
  -5   4  -5    6.28    1.80   2
   5  -4   6   65.17    3.12   2
  -5   4  -6   66.12    4.14   2
   5  -4   7    2.78    1.91   2
  -5   4  -7    4.03    1.08   2
   5  -4   8    5.59    2.05   2
  -5   4  -8    5.42    1.97   2
  -5   4  -9    7.58    2.33   2
   5  -3  -3   28.96    1.33   2
  -5   3   3   26.13    1.33   2
   5  -3  -2    2.89    1.28   2
  -5   3   2    2.15    0.95   2
   5  -3  -1   34.19    1.89   2
  -5   3   1   26.85    1.79   2
   5  -3   0   13.24    1.49   2
  -5   3   0   10.79    1.50   2
   5  -3   1   13.36    1.54   2
  -5   3  -1   11.95    1.55   2
   5  -3   4   28.94    1.66   2
  -5   3  -4   27.74    2.51   2
   5  -3   5   67.53    2.92   2
  -5   3  -5   61.90    2.79   2
   5  -3   6   33.33    1.89   2
  -5   3  -6   27.96    1.82   2
   5  -3   7   11.75    1.29   2
  -5   3  -7   10.65    2.12   2
   5  -3   8    2.80    1.68   2
  -5   3  -8   -3.53    1.79   2
   5  -3  10   -1.66    0.78   2
   5  -2  -6   15.70    0.64   2
  -5   2   6   14.69    0.57   2
   5  -2  -4   -0.68    0.83   2
  -5   2   4   -1.50    0.89   2
   5  -2  -3   32.27    1.44   2
  -5   2   3   27.52    1.40   2
   5  -2  -2    2.22    0.97   2
  -5   2   2    3.47    1.01   2
   5  -2  -1   48.17    2.29   2
  -5   2   1   44.93    2.34   2
   5  -2   0   71.80    3.19   2
  -5   2   0   63.11    3.08   2
   5  -2   4    5.69    1.13   2
  -5   2  -4    5.83    1.83   2
   5  -2   5  144.66    6.05   2
  -5   2  -5  145.17    7.71   2
   5  -2   6    3.48    1.92   2
  -5   2  -6    6.48    1.90   2
  -5   2  -7    0.20    1.77   2
  -5   2 -10    5.44    2.14   2
   5  -1  -8   72.38    1.51   2
   5  -1  -7   25.07    0.79   2
  -5   1   7   23.68    0.88   2
   5  -1  -4   11.88    1.26   2
  -5   1   4   12.20    1.37   2
   5  -1  -3   -0.37    0.85   2
  -5   1   3    0.86    0.87   2
   5  -1  -2   30.57    1.70   2
  -5   1   2   29.32    1.81   2
   5  -1  -1   21.55    1.72   2
  -5   1   1   18.91    1.73   2
   5  -1   0    8.63    1.55   2
  -5   1   0    9.98    1.53   2
   5  -1   3   32.82    2.77   2
  -5   1  -3   26.55    1.56   2
   5  -1   4  107.34    5.40   2
  -5   1  -4   89.02    5.16   2
   5  -1   5   45.64    2.32   2
  -5   1  -5   45.34    3.32   2
   5  -1   6   21.15    2.60   2
  -5   1  -6   21.71    2.49   2
   5  -1   7    1.89    1.09   2
   5  -1  10    5.99    1.90   2
  -5   1 -10    4.51    2.10   2
   5   0 -12    0.59    0.51   2
   5   0 -12   -0.11    0.48   2
   5   0 -11    2.48    0.57   2
   5   0 -11    1.28    0.48   2
   5   0 -10   10.02    0.79   2
   5   0 -10    9.71    0.57   2
   5   0  -9   23.18    1.14   2
   5   0  -8   43.22    1.40   2
  -5   0   8   38.78    1.52   2
   5   0  -7   16.40    1.14   2
  -5   0   7   11.90    1.10   2
   5   0  -5    1.60    1.13   2
  -5   0   5   -0.14    1.05   2
   5   0  -4   13.71    1.62   2
  -5   0   4   14.83    1.64   2
   5   0  -3    2.34    1.08   2
  -5   0   3    1.22    1.09   2
   5   0  -2   49.06    2.54   2
  -5   0   2   47.47    2.49   2
  -5   0   1   71.32    3.40   2
  -5   0  -2   70.77    2.95   2
   5   0   3    2.15    1.72   2
  -5   0  -3    4.20    1.79   2
   5   0   4  198.55    9.87   2
  -5   0  -4  184.83    9.99   2
   5   0   5    5.82    2.09   2
  -5   0  -5    7.10    2.00   2
   5   0   6   -0.32    1.11   2
  -5   0  -6    0.89    1.04   2
   5   0   9   19.65    1.84   2
   5   0  10   21.54    1.85   2
  -5   0 -10   21.03    2.77   2
   5   1 -13   12.70    1.19   2
   5   1 -13   13.29    1.10   2
   5   1 -12   17.05    1.30   2
   5   1 -12   15.48    1.15   2
   5   1 -11    4.38    0.75   2
   5   1 -11    0.96    0.83   2
   5   1 -10    0.54    0.97   2
   5   1 -10   -0.01    0.81   2
   5   1  -9   64.00    2.37   2
  -5  -1   9   55.44    2.11   2
   5   1  -8   11.68    1.42   2
  -5  -1   8   12.51    1.32   2
   5   1  -6    2.68    0.98   2
  -5  -1   6    0.97    0.94   2
   5   1  -5    2.23    1.08   2
  -5  -1   5    1.21    0.95   2
   5   1  -4   -2.06    1.12   2
  -5  -1   4    0.21    1.46   2
   5   1  -3   15.02    1.02   2
  -5  -1   3   14.95    1.53   2
   5   1  -2   20.82    1.91   2
  -5  -1   2   17.14    1.17   2
   5   1  -1   -0.69    0.89   2
  -5  -1   1   -0.80    1.40   2
  -5  -1  -1   15.26    1.33   2
   5   1   2   18.91    2.37   2
  -5  -1  -2   16.81    1.42   2
   5   1   3   72.11    4.55   2
  -5  -1  -3   71.01    4.25   2
   5   1   4   47.60    3.74   2
  -5  -1  -4   48.32    3.30   2
   5   1   5   18.46    1.62   2
  -5  -1  -5   19.39    2.42   2
  -5  -1  -9    4.44    0.98   2
   5   2 -13    1.73    1.23   2
   5   2 -13    0.76    0.77   2
   5   2 -12   -0.32    1.23   2
   5   2 -12    1.30    1.06   2
   5   2 -11    5.07    1.02   2
   5   2 -11    4.59    0.89   2
   5   2 -10   12.40    1.24   2
  -5  -2  10   11.23    1.30   2
   5   2  -9   22.81    1.63   2
  -5  -2   9   22.82    1.50   2
   5   2  -8    8.61    1.25   2
  -5  -2   8    5.49    1.13   2
   5   2  -6    1.43    1.16   2
  -5  -2   6   -1.63    1.08   2
   5   2  -5    2.07    1.33   2
  -5  -2   5    2.99    1.24   2
   5   2  -4   -0.08    1.32   2
  -5  -2   4    3.67    1.27   2
   5   2  -3   30.09    2.42   2
  -5  -2   3   30.31    2.19   2
   5   2  -2   50.03    3.16   2
  -5  -2   2   47.04    2.90   2
   5   2  -1   20.96    2.44   2
  -5  -2   1   18.11    2.09   2
   5   2   1   56.16    3.78   2
  -5  -2  -1   49.76    3.25   2
   5   2   2    6.25    1.93   2
  -5  -2  -2    4.50    1.90   2
   5   2   3  138.31    5.99   2
  -5  -2  -3  121.39    5.57   2
   5   2   4    5.75    1.26   2
  -5  -2  -4    2.07    2.05   2
   5   2   5    1.16    2.07   2
  -5  -2  -5    3.37    1.85   2
   5   2   8    9.54    1.08   2
   5   3 -13    8.71    1.33   2
   5   3 -13    5.71    1.13   2
   5   3 -12    2.69    1.03   2
   5   3 -12    0.16    1.00   2
   5   3 -11    0.04    1.13   2
  -5  -3  11    0.44    0.71   2
   5   3 -10   33.16    2.20   2
  -5  -3  10   28.82    1.96   2
   5   3  -9    5.21    1.34   2
  -5  -3   9    4.27    1.12   2
   5   3  -8   15.25    1.68   2
  -5  -3   8   16.71    1.57   2
   5   3  -7    0.62    1.39   2
  -5  -3   7    1.08    1.25   2
   5   3  -6    2.11    1.43   2
  -5  -3   6   -0.43    1.20   2
   5   3  -5    1.19    1.52   2
  -5  -3   5    2.09    1.29   2
   5   3  -4    7.85    1.74   2
  -5  -3   4    4.77    1.62   2
  -5  -3   3   11.88    1.76   2
   5   3  -2    1.48    1.79   2
  -5  -3   2    2.51    1.58   2
   5   3   0    8.58    2.25   2
  -5  -3   0   10.46    1.25   2
   5   3   1   11.67    2.30   2
  -5  -3  -1    9.70    1.30   2
   5   3   2   40.71    3.50   2
  -5  -3  -2   36.12    2.14   2
   5   3   3   33.66    3.37   2
  -5  -3  -3   28.20    3.00   2
   5   3   4   10.58    2.58   2
  -5  -3  -4   12.56    2.32   2
   5   3   5   -2.12    1.25   2
  -5  -3  -5    0.50    1.18   2
   5   4 -12    4.77    1.39   2
   5   4 -12    0.97    1.59   2
   5   4 -11    2.34    1.42   2
  -5  -4  11    2.69    0.92   2
   5   4 -10   10.04    1.13   2
  -5  -4  10    8.70    1.54   2
   5   4  -9    4.09    1.52   2
  -5  -4   9    2.56    1.34   2
   5   4  -7    0.40    1.60   2
  -5  -4   7    1.46    0.82   2
   5   4  -6    2.18    1.52   2
  -5  -4   6    0.05    1.43   2
   5   4  -5    1.79    1.80   2
  -5  -4   5    4.72    1.59   2
   5   4  -4   13.77    2.25   2
  -5  -4   4   14.47    1.98   2
   5   4  -3   24.67    2.69   2
  -5  -4   3   18.34    2.32   2
   5   4  -2    2.52    2.01   2
  -5  -4   2    2.86    1.77   2
   5   4   0   23.93    1.95   2
  -5  -4   0   20.83    1.62   2
   5   4   1   -2.02    1.20   2
  -5  -4  -1    0.29    1.16   2
   5   4   2   53.78    3.03   2
  -5  -4  -2   54.97    4.02   2
   5   4   3    4.78    2.34   2
  -5  -4  -3    5.49    2.11   2
  -5  -4  -4   -2.03    1.96   2
   5   5 -11   10.16    1.89   2
  -5  -5  11   10.09    1.79   2
   5   5 -10    1.10    1.60   2
  -5  -5  10    3.55    1.45   2
   5   5  -9    6.60    1.97   2
  -5  -5   9    8.32    1.66   2
   5   5  -8   -2.04    1.65   2
  -5  -5   8    1.06    0.89   2
   5   5  -7    0.80    1.79   2
  -5  -5   7    3.55    1.45   2
   5   5  -6    2.26    1.19   2
  -5  -5   6    1.84    1.55   2
   5   5  -5    2.69    1.99   2
  -5  -5   5    4.13    1.70   2
   5   5  -4    8.41    2.20   2
  -5  -5   4    7.88    1.87   2
   5   5  -3    2.41    1.86   2
  -5  -5   3    0.15    1.73   2
   5   5  -1    5.92    2.30   2
  -5  -5   1    3.65    1.26   2
   5   5   0    3.24    1.38   2
  -5  -5   0    7.05    2.05   2
   5   5   1   14.92    1.79   2
  -5  -5  -1   15.66    1.64   2
   5   5   2   10.20    2.66   2
  -5  -5  -2   10.74    1.61   2
   5   5   3    5.26    2.36   2
  -5  -5  -3    4.92    2.16   2
   5   6  -8   -1.88    1.82   2
  -5  -6   8    1.13    1.50   2
   5   6  -7   -0.44    1.13   2
  -5  -6   7    0.19    1.52   2
   5   6  -6   -1.41    1.96   2
  -5  -6   6   -1.71    1.58   2
   5   6  -5    6.96    2.28   2
  -5  -6   5    9.31    1.95   2
   5   6  -4    8.48    2.31   2
  -5  -6   4    8.80    2.04   2
   5   6  -3   -0.82    1.31   2
  -5  -6   3    1.00    1.74   2
   5   6  -1    8.73    2.69   2
  -5  -6   1    7.27    2.24   2
  -6   9   4    1.16    1.47   2
  -6   9   4    1.49    0.68   2
  -6   9   3    2.11    1.04   2
  -6   9   3    3.36    1.25   2
  -6   9   2   -3.05    1.58   2
  -6   9   2   -1.88    0.73   2
  -6   9   1    0.42    1.72   2
  -6   9   1   -0.58    1.31   2
  -6   9  -1    1.77    1.79   2
  -6   9  -1    0.30    1.52   2
  -6   8   7    0.71    1.02   2
  -6   8   7    1.03    0.83   2
  -6   8   6    2.32    1.18   2
  -6   8   6    0.83    0.87   2
  -6   8   5   11.09    1.60   2
  -6   8   5   12.87    1.34   2
  -6   8   4   -1.41    1.22   2
  -6   8   4   -1.51    1.04   2
  -6   8   3    2.14    1.35   2
  -6   8   3    0.93    1.16   2
  -6   8   2    0.93    1.51   2
  -6   8   2    0.61    1.24   2
  -6   8   1   -0.27    1.57   2
  -6   8   1   -0.93    1.32   2
  -6   8   0    1.85    1.83   2
  -6   8   0    4.23    1.45   2
  -6   8  -1    5.02    2.14   2
  -6   8  -1    8.81    1.64   2
  -6   8  -2    3.32    1.36   2
  -6   8  -2    1.93    1.54   2
  -6   8  -3    0.77    1.37   2
  -6   8  -3   -0.40    1.47   2
  -6   7   7    3.56    0.90   2
  -6   7   7    1.34    0.53   2
  -6   7   6   22.89    1.93   2
  -6   7   6   18.12    1.16   2
  -6   7   5    0.60    1.03   2
  -6   7   5    0.99    0.92   2
  -6   7   4   11.40    1.48   2
  -6   7   4    9.98    1.28   2
  -6   7   3   -1.59    1.24   2
  -6   7   3   -0.51    1.04   2
  -6   7   2    2.17    1.42   2
  -6   7   2   -0.96    1.10   2
  -6   7   0    0.24    1.12   2
  -6   7   0    2.60    1.30   2
   6  -7   1    6.45    1.70   2
  -6   7  -1    9.36    1.57   2
   6  -7   2    6.86    1.92   2
  -6   7  -2    7.42    1.73   2
   6  -7   3    6.82    1.22   2
  -6   7  -3    6.66    1.19   2
   6  -7   4    4.62    1.93   2
  -6   7  -4    2.17    1.84   2
   6  -7   5    1.80    1.16   2
  -6   7  -5    2.34    1.08   2
  -6   6   8    0.73    0.83   2
  -6   6   8    1.41    0.52   2
  -6   6   7    1.73    0.69   2
  -6   6   7    2.45    0.64   2
  -6   6   6   31.96    1.61   2
  -6   6   6   28.95    1.37   2
  -6   6   5   -1.88    0.93   2
  -6   6   5    0.74    0.76   2
  -6   6   4    7.76    1.20   2
  -6   6   4    5.45    1.07   2
  -6   6   3    3.17    1.25   2
  -6   6   3    3.36    1.10   2
   6  -6  -1    8.81    1.44   2
  -6   6   1    5.53    1.42   2
   6  -6   0   17.37    1.90   2
  -6   6   0   16.62    1.84   2
   6  -6   1    7.15    1.11   2
  -6   6  -1    5.95    1.64   2
   6  -6   2    3.82    1.67   2
  -6   6  -2    2.30    1.62   2
   6  -6   3   14.07    2.09   2
  -6   6  -3   11.88    1.92   2
   6  -6   4    3.72    1.96   2
  -6   6  -4    5.90    1.69   2
   6  -6   6    3.22    2.17   2
  -6   6  -6    6.90    1.21   2
  -6   5   8    4.24    0.41   2
  -6   5   8    2.05    0.56   2
  -6   5   7   37.16    1.60   2
  -6   5   7   35.76    1.24   2
  -6   5   6    0.18    0.90   2
  -6   5   6   -0.26    0.59   2
  -6   5   5   21.07    1.26   2
  -6   5   5   18.06    1.05   2
  -6   5   4   -0.70    0.63   2
  -6   5   4    1.92    1.01   2
   6  -5  -3    5.84    1.04   2
  -6   5   3    3.57    0.93   2
   6  -5  -1    3.55    1.25   2
  -6   5   1    2.66    1.16   2
   6  -5   0   16.94    1.17   2
  -6   5   0   15.44    1.62   2
   6  -5   1   20.15    2.07   2
  -6   5  -1   19.53    1.81   2
   6  -5   2   20.21    2.19   2
  -6   5  -2   21.04    2.07   2
   6  -5   3    7.08    1.81   2
  -6   5  -3    3.31    1.56   2
   6  -5   4    2.70    1.77   2
  -6   5  -4    2.21    1.60   2
   6  -5   6   12.31    2.20   2
  -6   5  -6    8.05    2.08   2
   6  -5   7    4.21    2.02   2
  -6   5  -7    3.28    1.19   2
  -6   4   7   45.41    1.16   2
  -6   4   7   44.92    1.40   2
  -6   4   6   -0.69    0.75   2
  -6   4   6   -0.37    0.70   2
   6  -4  -5   12.87    0.84   2
  -6   4   5    9.81    0.83   2
   6  -4  -4    8.66    0.87   2
  -6   4   4    9.18    0.89   2
   6  -4  -1   32.95    1.95   2
  -6   4   1   29.68    2.05   2
   6  -4   0    8.97    1.53   2
  -6   4   0    7.95    1.47   2
   6  -4   1   18.28    1.27   2
  -6   4  -1   16.30    2.00   2
   6  -4   2   17.01    1.91   2
  -6   4  -2   14.67    1.98   2
   6  -4   3   15.52    2.12   2
  -6   4  -3   12.02    2.05   2
   6  -4   5   19.27    1.64   2
   6  -4   6    0.01    1.88   2
  -6   4  -6   -0.86    1.04   2
   6  -4   7    6.86    2.12   2
  -6   4  -7    6.15    1.24   2
   6  -4   8   18.67    2.62   2
  -6   4  -8   11.43    2.40   2
  -6   3   7    0.76    0.24   2
  -6   3   7    0.38    0.34   2
   6  -3  -6   27.04    1.15   2
  -6   3   6   27.27    1.14   2
   6  -3  -5    3.22    0.81   2
  -6   3   5    1.65    0.67   2
   6  -3  -4    9.71    1.18   2
  -6   3   4    6.96    0.93   2
   6  -3  -1   26.51    1.75   2
  -6   3   1   28.05    1.83   2
   6  -3   0   53.73    2.72   2
  -6   3   0   41.32    2.61   2
   6  -3   1   39.12    2.59   2
  -6   3  -1   35.81    2.42   2
   6  -3   2   13.56    1.97   2
  -6   3  -2   13.05    1.20   2
  -6   3  -3    3.40    1.00   2
  -6   3  -5   15.35    1.40   2
   6  -3   6    6.62    2.09   2
  -6   3  -6    2.28    1.21   2
   6  -3   7    2.40    2.11   2
  -6   3  -7    4.31    1.97   2
   6  -3   8   16.03    2.36   2
  -6   3  -8   13.66    2.44   2
   6  -2  -7    0.14    0.45   2
  -6   2   7    0.73    0.46   2
   6  -2  -6   14.22    0.72   2
  -6   2   6   14.29    0.99   2
   6  -2  -5   23.68    1.41   2
  -6   2   5   19.50    1.31   2
   6  -2  -2   39.18    1.95   2
  -6   2   2   43.81    2.16   2
   6  -2  -1    9.93    1.28   2
  -6   2   1    8.68    1.41   2
   6  -2   0   48.82    1.92   2
  -6   2   0   48.04    1.94   2
   6  -2   1   19.26    1.20   2
  -6   2  -1   19.90    2.02   2
   6  -2   2   16.98    1.23   2
  -6   2  -2   21.26    1.36   2
   6  -2   5   -0.25    1.76   2
  -6   2  -5    1.92    1.74   2
   6  -2   6    4.82    2.11   2
  -6   2  -6    8.01    2.11   2
   6  -2   7   28.04    2.02   2
  -6   2  -7   28.56    2.93   2
   6  -2   8   16.94    2.68   2
  -6   2  -8   25.81    2.79   2
   6  -1  -9   30.47    0.77   2
  -6   1   9   31.65    0.79   2
   6  -1  -8    0.92    0.50   2
  -6   1   8    1.03    0.51   2
   6  -1  -7   20.82    1.11   2
  -6   1   7   21.80    1.14   2
   6  -1  -6    3.61    0.72   2
  -6   1   6    6.18    0.95   2
   6  -1  -5    8.47    0.92   2
   6  -1  -3    5.68    1.04   2
   6  -1  -2   30.92    1.91   2
  -6   1   2   24.74    1.90   2
   6  -1  -1   63.90    2.33   2
  -6   1   1   63.82    3.19   2
   6  -1   0   48.08    2.81   2
  -6   1   0   44.02    2.68   2
   6  -1   1   23.05    2.26   2
  -6   1  -1   17.42    2.07   2
   6  -1   2    2.30    1.05   2
   6  -1   5    5.90    1.27   2
  -6   1  -5    6.21    1.21   2
   6  -1   6    6.73    2.27   2
  -6   1  -6    8.40    1.98   2
   6  -1   7   25.64    2.95   2
  -6   1  -7   23.62    2.68   2
   6  -1   8   22.57    2.91   2
  -6   1  -8   20.26    2.64   2
   6   0 -11    0.78    0.55   2
   6   0 -11    2.20    0.46   2
   6   0 -10    0.32    0.64   2
   6   0  -9   27.94    1.37   2
  -6   0   9   23.65    1.20   2
   6   0  -8   -0.08    0.63   2
  -6   0   8    0.94    0.85   2
   6   0  -7   10.43    1.27   2
  -6   0   7   10.89    1.18   2
   6   0  -6   23.68    1.38   2
  -6   0   6   24.46    1.34   2
   6   0  -3   33.11    2.03   2
  -6   0   3   33.59    2.09   2
   6   0  -2    3.64    1.39   2
  -6   0   2    5.40    0.86   2
   6   0  -1   89.64    4.35   2
  -6   0   1   77.53    3.91   2
   6   0   0   15.35    1.23   2
  -6   0   0   17.06    1.89   2
   6   0   1   18.60    2.09   2
  -6   0  -1   14.38    1.99   2
   6   0   2    3.19    1.07   2
   6   0   4    2.25    1.12   2
  -6   0  -4    2.25    1.10   2
   6   0   5   15.48    2.22   2
  -6   0  -5    9.14    2.31   2
   6   0   6   37.60    2.29   2
  -6   0  -6   40.26    3.24   2
   6   0   7   13.72    2.75   2
  -6   0  -7   13.92    1.61   2
  -6   0  -8   55.72    4.33   2
   6   1 -11    0.08    0.95   2
   6   1 -11    0.19    0.78   2
   6   1 -10   17.93    1.45   2
  -6  -1  10   14.72    1.01   2
   6   1  -9    0.57    1.08   2
  -6  -1   9   -0.73    0.91   2
   6   1  -8   11.32    1.50   2
  -6  -1   8   10.28    1.31   2
   6   1  -7    7.83    1.15   2
  -6  -1   7    7.82    1.06   2
   6   1  -6    2.44    1.17   2
  -6  -1   6    4.62    1.07   2
   6   1  -4    0.78    1.29   2
  -6  -1   4    3.50    1.17   2
   6   1  -3   19.89    1.80   2
  -6  -1   3   14.35    1.68   2
   6   1  -2   60.09    3.29   2
  -6  -1   2   49.47    2.99   2
   6   1  -1   40.36    2.81   2
  -6  -1   1   38.31    2.57   2
   6   1   0   18.91    2.18   2
  -6  -1   0   14.41    2.08   2
   6   1   1    3.01    1.16   2
  -6  -1  -3    4.19    1.18   2
   6   1   4    5.97    1.31   2
  -6  -1  -4    3.73    1.99   2
   6   1   5   10.23    2.34   2
  -6  -1  -5    7.59    1.31   2
   6   1   6   23.95    1.92   2
  -6  -1  -6   21.86    2.86   2
   6   1   7   11.62    2.58   2
  -6  -1  -7   15.93    2.61   2
   6   2 -11   -0.65    0.86   2
  -6  -2  11    0.66    0.87   2
   6   2 -10   11.10    1.29   2
  -6  -2  10   10.69    1.15   2
   6   2  -9    0.13    1.06   2
  -6  -2   9    1.98    0.91   2
   6   2  -8    4.47    1.20   2
  -6  -2   8    4.74    1.11   2
   6   2  -7   18.03    1.61   2
  -6  -2   7   15.68    1.51   2
  -6  -2   5   11.93    1.58   2
   6   2  -4   19.70    2.03   2
  -6  -2   4   18.23    1.85   2
   6   2  -3    1.67    1.63   2
  -6  -2   3    1.85    1.38   2
   6   2  -2   69.71    4.12   2
  -6  -2   2   59.65    3.62   2
   6   2  -1   12.42    2.08   2
  -6  -2   1    5.97    1.18   2
   6   2   0   11.73    1.39   2
  -6  -2   0    8.97    1.89   2
   6   2   3    1.69    2.04   2
  -6  -2  -3    1.28    1.93   2
   6   2   4    7.07    1.39   2
  -6  -2  -4    4.74    2.16   2
   6   2   5   31.99    3.48   2
  -6  -2  -5   29.58    3.15   2
   6   2   6    2.64    2.36   2
  -6  -2  -6    3.28    2.09   2
   6   3 -11    4.90    1.30   2
  -6  -3  11    5.00    1.50   2
   6   3 -10    0.38    1.18   2
  -6  -3  10   -0.15    0.97   2
   6   3  -9    2.96    1.33   2
  -6  -3   9    5.43    1.20   2
   6   3  -8    5.86    1.43   2
  -6  -3   8    5.34    1.28   2
   6   3  -7    3.51    1.47   2
  -6  -3   7    1.22    1.24   2
   6   3  -5   -0.08    1.49   2
  -6  -3   5    1.41    1.33   2
   6   3  -4    7.58    1.16   2
  -6  -3   4    5.15    0.99   2
   6   3  -3   31.05    2.79   2
  -6  -3   3   28.73    2.51   2
   6   3  -2   18.31    2.44   2
  -6  -3   2   16.23    2.07   2
   6   3  -1   15.02    2.32   2
  -6  -3   1    8.17    1.24   2
   6   3   0   -0.01    1.94   2
  -6  -3   0    1.79    1.03   2
   6   3   2    3.98    2.09   2
  -6  -3  -2   -1.84    1.89   2
   6   3   3    3.87    2.29   2
  -6  -3  -3    6.29    2.10   2
   6   3   4    9.01    2.50   2
  -6  -3  -4   10.26    2.30   2
   6   4 -10    2.12    1.43   2
  -6  -4  10    0.60    1.15   2
   6   4  -9    3.58    1.33   2
  -6  -4   9   -0.62    1.26   2
   6   4  -8    9.73    1.77   2
  -6  -4   8    6.98    1.51   2
   6   4  -7    1.41    1.64   2
  -6  -4   7    4.94    1.47   2
   6   4  -6    6.44    1.78   2
  -6  -4   6    2.73    1.55   2
   6   4  -5    9.34    1.33   2
  -6  -4   5    9.55    1.80   2
   6   4  -4    0.62    1.74   2
  -6  -4   4    1.70    1.56   2
   6   4  -3   34.80    3.08   2
  -6  -4   3   29.46    1.94   2
   6   4  -2    9.20    2.19   2
  -6  -4   2    4.12    1.91   2
   6   4  -1    2.53    1.27   2
  -6  -4   1    4.21    1.72   2
   6   4   1   -1.18    2.26   2
  -6  -4  -1    4.60    1.86   2
   6   4   2    0.58    2.27   2
  -6  -4  -2    4.15    1.22   2
   6   5  -8    1.20    1.00   2
  -6  -5   8   -1.18    1.35   2
   6   5  -6    1.87    1.89   2
  -6  -5   6    1.12    0.97   2
   6   5  -5   -0.12    1.88   2
  -6  -5   5   -0.99    1.57   2
   6   5  -4    9.55    1.53   2
  -6  -5   4    6.57    1.95   2
   6   5  -3    4.40    2.30   2
  -6  -5   3    8.24    1.93   2
   6   5  -2    8.58    2.31   2
  -6  -5   2    3.41    1.97   2
   6   5  -1    1.67    1.32   2
  -6  -5   1   -0.65    1.88   2
  -7   8   5    0.86    1.02   2
  -7   8   5   -0.27    0.47   2
  -7   8   4    2.91    1.32   2
  -7   8   4    2.15    1.16   2
  -7   8   3    3.74    1.40   2
  -7   8   3    1.25    1.04   2
  -7   8   2   -0.87    1.44   2
  -7   8   2    0.03    1.16   2
  -7   8   1   10.17    2.01   2
  -7   8   1   10.13    1.62   2
  -7   8   0    2.32    1.86   2
  -7   8   0    1.27    1.40   2
   7  -8   2   12.18    2.13   2
  -7   8  -2   15.67    1.91   2
  -7   7   6   -2.15    0.89   2
  -7   7   5   -0.15    0.99   2
  -7   7   5   -1.52    1.19   2
  -7   7   4    2.77    1.12   2
  -7   7   4    3.12    1.04   2
  -7   7   3    2.39    1.38   2
  -7   7   3    3.09    1.13   2
  -7   7   2    2.80    1.01   2
  -7   7   2    4.08    1.28   2
   7  -7  -1    1.94    1.37   2
  -7   7   1    1.05    1.29   2
  -7   7   0    1.59    1.29   2
  -7   7  -1   -0.12    0.90   2
   7  -7   2   12.25    1.95   2
  -7   7  -2    7.70    1.74   2
   7  -7   3    1.21    1.75   2
  -7   7  -3    1.66    1.45   2
  -7   6   6   -0.66    0.78   2
  -7   6   6   -0.67    0.71   2
  -7   6   5    4.41    1.41   2
  -7   6   5    5.42    1.16   2
  -7   6   4   10.11    1.45   2
  -7   6   4    7.21    1.12   2
   7  -6  -3    1.12    1.11   2
  -7   6   3    1.34    0.99   2
   7  -6  -2   17.82    1.68   2
  -7   6   2   14.85    1.46   2
   7  -6  -1    5.02    1.42   2
  -7   6   1    5.64    1.32   2
   7  -6   1   36.64    2.50   2
  -7   6  -1   32.25    2.47   2
   7  -6   2   -1.19    0.95   2
  -7   6  -2   -0.87    0.85   2
   7  -6   3    6.40    1.89   2
  -7   6  -3    6.57    1.66   2
   7  -6   4   -0.27    1.74   2
  -7   6  -4    1.65    1.65   2
   7  -6   5    3.71    1.24   2
  -7   5   6    0.78    0.70   2
  -7   5   6    1.87    0.88   2
   7  -5  -5    7.25    0.92   2
  -7   5   5    6.40    1.11   2
   7  -5  -4    9.24    1.02   2
  -7   5   4    6.79    1.02   2
   7  -5  -3    6.96    1.14   2
  -7   5   3    5.09    1.14   2
   7  -5  -2    4.90    1.24   2
  -7   5   2    6.41    1.23   2
   7  -5   1   30.17    1.63   2
  -7   5  -1   23.98    2.27   2
   7  -5   2    2.26    1.52   2
  -7   5  -2    0.07    1.59   2
   7  -5   3    0.57    1.02   2
  -7   5  -3   -1.11    1.63   2
   7  -5   4    2.09    1.91   2
  -7   5  -4    3.64    1.70   2
   7  -5   5    3.89    2.14   2
  -7   5  -5    6.07    1.87   2
  -7   4   7   -0.70    0.49   2
  -7   4   7   -0.06    0.60   2
   7  -4  -6    7.04    0.91   2
  -7   4   6    7.81    1.01   2
   7  -4  -5   16.21    1.07   2
  -7   4   5   15.30    1.10   2
   7  -4  -4   -1.40    1.10   2
  -7   4   4   -0.52    0.88   2
   7  -4  -3   34.69    1.80   2
  -7   4   3   31.64    1.78   2
   7  -4  -2    7.66    1.22   2
  -7   4   2    4.78    1.20   2
  -7   4   0   61.95    2.63   2
   7  -4   1    2.17    1.40   2
  -7   4  -1   -0.87    1.30   2
   7  -4   2   10.04    1.83   2
  -7   4  -2    5.86    1.69   2
   7  -4   3    6.15    1.87   2
  -7   4  -3    5.67    1.74   2
   7  -4   4   15.25    2.13   2
  -7   4  -4   13.62    2.07   2
   7  -4   5    5.64    2.18   2
  -7   4  -5    8.40    2.01   2
  -7   3   7    1.06    0.60   2
   7  -3  -6   11.85    0.78   2
  -7   3   6    9.83    0.80   2
   7  -3  -5   14.58    1.00   2
  -7   3   5   13.61    1.43   2
   7  -3  -4   11.97    1.06   2
  -7   3   4   11.67    1.13   2
   7  -3  -3    7.66    1.16   2
  -7   3   3    8.63    1.56   2
   7  -3   0   45.37    2.06   2
  -7   3   0   44.63    2.70   2
   7  -3   1    3.93    1.62   2
  -7   3  -1    4.39    1.52   2
   7  -3   2   -0.11    1.63   2
  -7   3  -2   -2.80    1.53   2
   7  -3   3    8.93    1.95   2
  -7   3  -3    7.87    1.18   2
   7  -3   4   14.01    2.29   2
  -7   3  -4   14.19    2.06   2
   7  -2  -8    0.29    0.43   2
   7  -2  -7    6.46    0.61   2
  -7   2   7    5.74    0.83   2
   7  -2  -6   17.11    1.33   2
  -7   2   6   14.69    1.26   2
   7  -2  -5    2.29    1.12   2
  -7   2   5    2.44    0.86   2
   7  -2  -4   34.66    1.72   2
  -7   2   4   35.23    1.80   2
  -7   2   3   10.95    1.34   2
   7  -2   0    3.58    1.38   2
  -7   2   0    1.35    1.41   2
   7  -2   1    8.82    1.68   2
  -7   2  -1    9.94    1.80   2
   7  -2   2   12.38    1.19   2
  -7   2  -2   10.27    1.74   2
   7  -2   3   24.73    1.65   2
  -7   2  -3   22.76    2.38   2
   7  -2   6   34.95    3.05   2
  -7   2  -6   20.61    1.86   2
   7  -1  -8   -0.10    0.73   2
  -7   1   8    1.05    0.69   2
   7  -1  -7    9.10    0.86   2
  -7   1   7    9.00    1.12   2
   7  -1  -6   19.95    1.52   2
  -7   1   6   17.22    1.59   2
   7  -1  -5   15.57    1.61   2
  -7   1   5   14.65    1.22   2
   7  -1  -4    9.75    1.63   2
  -7   1   4    6.15    1.22   2
  -7   1   1   45.75    2.89   2
   7  -1   0    4.22    1.63   2
  -7   1   0    1.12    1.55   2
   7  -1   1    1.49    1.06   2
  -7   1  -1    3.31    0.99   2
   7  -1   2   19.45    2.43   2
  -7   1  -2   17.44    2.12   2
  -7   1  -3   21.19    1.60   2
  -7   1  -6    9.82    1.41   2
   7   0  -9    0.35    0.85   2
  -7   0   9    1.09    0.78   2
   7   0  -8    4.16    1.04   2
  -7   0   8    3.26    0.76   2
   7   0  -7   10.86    1.09   2
  -7   0   7   11.13    1.04   2
   7   0  -6    8.79    1.18   2
  -7   0   6    8.12    1.03   2
   7   0  -5   20.14    1.62   2
  -7   0   5   23.27    1.58   2
   7   0  -4    6.30    1.38   2
  -7   0   4    9.09    1.29   2
   7   0  -1    1.06    1.47   2
  -7   0   1    0.12    1.38   2
   7   0   0    4.23    1.85   2
  -7   0   0    7.52    1.66   2
   7   0   1   23.78    2.40   2
  -7   0  -1   21.12    2.30   2
   7   0   2   26.14    2.70   2
  -7   0  -2   25.03    1.69   2
   7   0   3   21.10    1.63   2
   7   1  -9    0.37    0.86   2
  -7  -1   9   -2.34    1.02   2
   7   1  -8    3.24    1.32   2
  -7  -1   8    7.05    0.95   2
   7   1  -7   13.91    1.31   2
  -7  -1   7   13.68    1.21   2
   7   1  -6   10.32    1.37   2
  -7  -1   6    7.91    1.25   2
   7   1  -5    4.64    1.39   2
  -7  -1   5    4.98    1.25   2
   7   1  -2   23.05    2.30   2
  -7  -1   2   21.59    1.41   2
   7   1  -1    0.50    1.64   2
  -7  -1   1    2.82    1.64   2
   7   1   0    4.81    1.78   2
  -7  -1   0    2.57    1.71   2
   7   1   1   15.98    1.48   2
  -7  -1  -1   17.39    1.41   2
   7   1   2   17.12    2.59   2
  -7  -1  -2   19.52    2.39   2
   7   2  -9    2.19    1.13   2
  -7  -2   9    0.94    0.96   2
   7   2  -8    3.69    1.19   2
  -7  -2   8    2.19    1.05   2
   7   2  -7    5.46    1.37   2
  -7  -2   7    6.97    1.29   2
   7   2  -6   11.67    1.66   2
  -7  -2   6   11.50    1.47   2
   7   2  -5    7.29    1.60   2
  -7  -2   5    3.38    1.28   2
   7   2  -3   29.47    2.60   2
  -7  -2   3   22.04    2.35   2
   7   2  -2    1.96    1.67   2
  -7  -2   2   -2.09    0.91   2
   7   2  -1    1.99    1.84   2
  -7  -2   1    1.14    1.01   2
   7   2   0   19.39    2.45   2
  -7  -2   0   18.98    1.43   2
   7   2   1   12.32    1.56   2
  -7  -2  -1   11.97    1.47   2
   7   3  -9    0.70    1.25   2
  -7  -3   9   -1.17    1.09   2
   7   3  -8   11.73    1.65   2
  -7  -3   8    6.56    1.44   2
   7   3  -7    7.65    1.57   2
  -7  -3   7    5.29    1.39   2
   7   3  -6    1.99    1.52   2
  -7  -3   6    3.72    1.37   2
   7   3  -5    0.01    1.62   2
  -7  -3   5    1.21    1.42   2
  -7  -3   4    0.14    1.40   2
   7   3  -3    8.34    2.09   2
  -7  -3   3    8.78    1.09   2
   7   3  -2    3.10    1.85   2
  -7  -3   2    0.41    1.47   2
   7   3  -1    1.62    2.01   2
  -7  -3   1    3.59    1.68   2
   7   3   0   14.69    2.48   2
  -7  -3   0   11.06    2.14   2
   7   3   1    4.49    2.31   2
  -7  -3  -1    7.06    1.29   2
   7   4  -6    1.14    1.66   2
  -7  -4   6   -0.18    1.43   2
   7   4  -4    6.96    2.03   2
  -7  -4   4    3.80    1.76   2
   7   4  -3   -3.18    1.91   2
  -7  -4   3    1.60    1.58   2
   7   4  -2    4.05    2.05   2
  -7  -4   2    0.04    1.68   2
   7   4  -1   11.30    2.45   2
  -7  -4   1    8.72    2.03   2
  -8   7   3   10.11    1.10   2
  -8   7   3    9.61    1.35   2
   8  -7  -2    2.23    1.19   2
  -8   7   2   -1.60    1.07   2
   8  -7  -1   -0.18    1.28   2
  -8   7   1    0.20    1.16   2
   8  -7   0   -0.35    1.31   2
  -8   7   0    1.21    1.28   2
   8  -6  -4   23.48    1.56   2
  -8   6   4   21.09    1.58   2
   8  -6  -3    1.29    1.05   2
  -8   6   3   -0.05    0.94   2
   8  -6  -2    3.18    1.19   2
  -8   6   2    3.32    1.19   2
   8  -6  -1    0.81    1.23   2
  -8   6   1   -0.84    1.19   2
   8  -6   0    0.40    1.36   2
  -8   6   0   -0.15    1.25   2
  -8   6  -1   -1.06    1.35   2
   8  -6   3    4.47    1.79   2
  -8   6  -3    4.75    1.72   2
   8  -5  -5    3.26    0.84   2
  -8   5   5    4.40    0.86   2
   8  -5  -4   21.34    1.93   2
  -8   5   4   20.85    1.57   2
   8  -5  -3   -0.91    1.04   2
  -8   5   3    1.31    0.99   2
   8  -5  -2    1.75    1.13   2
  -8   5   2    1.25    1.08   2
   8  -5  -1    0.96    1.25   2
  -8   5   1    1.44    1.16   2
   8  -5   0    2.50    1.39   2
  -8   5   0   -1.18    1.28   2
   8  -5   2   -0.17    1.65   2
  -8   5  -2    3.22    1.50   2
   8  -5   3   11.23    2.13   2
  -8   5  -3   11.97    1.92   2
   8  -4  -5   44.26    2.06   2
  -8   4   5   42.37    2.11   2
   8  -4  -4   -0.16    0.90   2
  -8   4   4    1.25    1.27   2
   8  -4  -3    3.27    1.13   2
  -8   4   3    6.93    1.43   2
   8  -4  -2    0.07    1.07   2
  -8   4   2   -0.88    1.16   2
   8  -4  -1    2.52    0.80   2
  -8   4   1   -3.16    1.28   2
   8  -4   2   11.86    1.34   2
  -8   4  -2   13.20    1.97   2
   8  -4   3    2.74    1.81   2
  -8   4  -3    2.69    1.76   2
   8  -4   4   10.01    2.23   2
  -8   4  -4   12.45    2.10   2
   8  -3  -6    5.39    0.74   2
   8  -3  -5   35.38    1.74   2
   8  -3  -4    2.08    0.94   2
  -8   3   4    0.82    0.98   2
   8  -3  -3   -0.68    1.02   2
  -8   3   3   -1.65    1.10   2
   8  -3  -2    0.21    1.24   2
  -8   3   2    3.71    1.17   2
  -8   3  -1   10.40    1.75   2
   8  -3   2   17.51    2.20   2
  -8   3  -2   18.86    1.41   2
   8  -3   3    1.64    1.80   2
  -8   3  -3    1.62    1.58   2
   8  -3   4   19.10    2.63   2
  -8   3  -4   15.87    2.32   2
  -8   2   6   55.93    2.41   2
   8  -2  -5   -0.03    0.88   2
  -8   2   5   -0.74    0.91   2
   8  -2  -4    7.75    1.05   2
  -8   2   4    5.35    1.19   2
   8  -2  -3    1.08    1.06   2
  -8   2   3    2.06    1.11   2
   8  -2  -2    1.52    1.15   2
  -8   2   2   -0.94    1.23   2
   8  -2   2    5.41    1.04   2
  -8   2  -2    5.71    1.65   2
   8  -2   3   10.88    1.29   2
  -8   2  -3   14.64    1.38   2
   8  -2   4    1.11    1.73   2
  -8   2  -4    3.94    1.77   2
   8  -1  -6   29.77    2.19   2
  -8   1   6   25.76    1.87   2
   8  -1  -5    1.69    1.00   2
  -8   1   5    1.24    1.35   2
   8  -1  -4    3.29    1.18   2
  -8   1   4    1.51    1.10   2
   8  -1  -3    1.99    1.35   2
  -8   1   3    1.48    1.21   2
  -8   1   0    4.21    1.05   2
   8  -1   1   19.61    2.62   2
  -8   1  -1   23.27    2.27   2
   8  -1   2   -1.33    1.62   2
  -8   1  -2    0.56    1.66   2
   8  -1   3   19.82    2.63   2
  -8   1  -3   22.58    2.51   2
   8   0  -7   38.22    2.54   2
  -8   0   7   37.31    1.91   2
   8   0  -6    0.40    1.38   2
  -8   0   6    1.39    0.93   2
   8   0  -5    5.88    1.26   2
  -8   0   5    4.20    1.16   2
   8   0  -4    3.60    1.34   2
  -8   0   4    2.30    1.21   2
   8   0  -3    2.20    1.38   2
  -8   0   3    0.84    1.23   2
   8   0  -2   -0.91    0.79   2
   8   0   0   19.15    2.33   2
  -8   0   0   17.72    2.21   2
   8   0   1   10.29    1.28   2
  -8   0  -1    9.66    1.88   2
   8   0   2   14.42    2.31   2
  -8   0  -2   12.96    1.40   2
   8   0   3    5.16    2.12   2
  -8   0  -3    5.21    1.98   2
   8   1  -7   14.73    1.51   2
  -8  -1   7   13.73    1.40   2
   8   1  -6    0.48    1.21   2
  -8  -1   6    2.13    1.08   2
   8   1  -5    1.15    1.28   2
  -8  -1   5   -0.39    1.17   2
   8   1  -4   -1.14    1.36   2
  -8  -1   4    1.53    1.18   2
   8   1  -3    0.29    1.47   2
  -8  -1   3    0.25    1.20   2
   8   1  -1   -3.07    1.75   2
  -8  -1   1   -0.16    1.58   2
   8   1   0   18.32    2.29   2
  -8  -1   0   11.97    2.06   2
   8   1   1   -0.27    1.14   2
  -8  -1  -1    3.54    1.68   2
   8   1   2   14.33    2.52   2
  -8  -1  -2   12.42    1.45   2
   8   2  -6    2.30    1.43   2
  -8  -2   6    1.63    1.11   2
   8   2  -5   -0.31    1.41   2
  -8  -2   5   -0.49    1.29   2
   8   2  -4    2.37    1.53   2
  -8  -2   4   -0.71    1.33   2
   8   2  -1    9.35    2.20   2
  -8  -2   1    9.60    1.91   2
   8   2   0   10.82    2.22   2
  -8  -2   0    7.95    1.92   2
   9  -4  -2   -0.51    1.21   2
  -9   4   2    1.31    1.15   2
   9  -4  -1    5.16    1.41   2
  -9   4   1    2.50    1.31   2
   9  -3  -3   13.66    1.54   2
  -9   3   3   11.89    1.42   2
   9  -3  -2    2.34    1.32   2
  -9   3   2    1.55    1.23   2
   9  -3  -1   13.58    1.81   2
  -9   3   1   13.33    1.75   2
  -9   3   0   -1.28    1.41   2
  -9   2   4    4.29    1.21   2
   9  -2  -3   -0.23    1.08   2
  -9   2   3    0.63    1.11   2
   9  -2  -2    1.83    1.27   2
  -9   2   2    3.28    1.27   2
   9  -2  -1    2.48    1.31   2
  -9   2   1    1.29    1.26   2
  -9   2   0   10.81    1.78   2
   9  -1  -3    3.02    1.39   2
  -9   1   3    0.58    1.22   2
   9  -1  -2   11.35    1.88   2
  -9   1   2    9.15    1.66   2
   0   0   0    0.00    0.00   0
;
_shelx_hkl_checksum              60281
loop_
_space_group_symop_operation_xyz
'x, y, z'
'-x, -y, -z'
loop_
_atom_site_label
_atom_site_type_symbol
_atom_site_fract_x
_atom_site_fract_y
_atom_site_fract_z
_atom_site_U_iso_or_equiv
_atom_site_adp_type
_atom_site_occupancy
_atom_site_site_symmetry_order
_atom_site_calc_flag
_atom_site_refinement_flags_posn
_atom_site_refinement_flags_adp
_atom_site_refinement_flags_occupancy
Pd01 Pd -0.5000 0.5000 0.0000 0.0241(4) Uani 1 2 d S . P
S002 S -0.2390(4) 0.1897(5) 0.4194(2) 0.0319(6) Uani 1 1 d . . .
S003 S -0.8470(4) 0.4423(4) -0.0909(2) 0.0284(6) Uani 1 1 d . . .
S004 S 0.0238(4) 0.6742(5) 0.3289(2) 0.0304(6) Uani 1 1 d . . .
S005 S 0.1949(4) 0.1882(5) 0.3586(2) 0.0329(6) Uani 1 1 d . . .
S006 S -0.6280(4) 0.5611(4) 0.1636(2) 0.0299(6) Uani 1 1 d . . .
S007 S -0.4035(4) 0.6760(5) 0.3912(2) 0.0318(6) Uani 1 1 d . . .
C010 C 0.0373(17) 0.2252(15) 0.4619(9) 0.0265(19) Uiso 1 1 d . . .
C011 C -0.0226(19) 0.1347(16) 0.2540(10) 0.031(2) Uiso 1 1 d . . .
C012 C -0.1225(19) 0.7163(17) 0.4308(10) 0.032(2) Uiso 1 1 d . . .
C013 C -0.2187(18) 0.1362(16) 0.2818(9) 0.028(2) Uiso 1 1 d . . .
C014 C -0.3940(18) 0.6157(15) 0.2550(9) 0.0266(19) Uiso 1 1 d . . .
C015 C -0.264(2) 0.0465(18) 0.0901(10) 0.035(2) Uiso 1 1 d . . .
H01A H -0.3181 -0.0813 0.0615 0.042 Uiso 1 1 calc R U .
H01B H -0.2829 0.1291 0.0300 0.042 Uiso 1 1 calc R U .
C016 C -0.390(2) 0.0837(17) 0.1861(10) 0.033(2) Uiso 1 1 d . . .
H01C H -0.4608 0.1844 0.1695 0.040 Uiso 1 1 calc R U .
H01D H -0.4978 -0.0273 0.2005 0.040 Uiso 1 1 calc R U .
C017 C -0.1949(17) 0.6128(15) 0.2210(8) 0.0248(19) Uiso 1 1 d . . .
C018 C -0.022(2) 0.0813(18) 0.1352(10) 0.034(2) Uiso 1 1 d . . .
H01E H 0.0312 -0.0306 0.1281 0.041 Uiso 1 1 calc R U .
H01F H 0.0663 0.1813 0.0972 0.041 Uiso 1 1 calc R U .
loop_
_atom_site_aniso_label
_atom_site_aniso_U_11
_atom_site_aniso_U_22
_atom_site_aniso_U_33
_atom_site_aniso_U_23
_atom_site_aniso_U_13
_atom_site_aniso_U_12
Pd01 0.0216(5) 0.0352(6) 0.0136(5) -0.0053(4) -0.0030(4) 0.0059(4)
S002 0.0238(12) 0.0515(17) 0.0202(11) -0.0082(11) -0.0018(10) 0.0109(12)
S003 0.0225(12) 0.0461(16) 0.0160(10) -0.0079(10) -0.0007(9) 0.0089(11)
S004 0.0223(12) 0.0532(17) 0.0153(10) -0.0104(10) -0.0020(9) 0.0109(12)
S005 0.0224(12) 0.0543(18) 0.0195(11) -0.0082(11) -0.0021(10) 0.0068(12)
S006 0.0173(11) 0.0522(17) 0.0169(11) -0.0075(11) -0.0066(9) 0.0064(11)
S007 0.0230(12) 0.0529(17) 0.0182(11) -0.0080(11) -0.0001(9) 0.0081(12)
loop_
_atom_type_symbol
_atom_type_description
_atom_type_scat_dispersion_real
_atom_type_scat_dispersion_imag
_atom_type_scat_source
C C -0.0001 0.0005 'International Tables Vol C Tables 4.2.6.8 and 6.1.1.4'
H H 0.0000 0.0000 'International Tables Vol C Tables 4.2.6.8 and 6.1.1.4'
S S 0.0444 0.0408 'International Tables Vol C Tables 4.2.6.8 and 6.1.1.4'
Pd Pd -0.5291 2.5715 'International Tables Vol C Tables 4.2.6.8 and 6.1.1.4'
loop_
_geom_angle_atom_site_label_1
_geom_angle_atom_site_label_2
_geom_angle_atom_site_label_3
_geom_angle
_geom_angle_site_symmetry_1
_geom_angle_site_symmetry_3
S003 Pd01 S003 180.0 2_465 .
S003 Pd01 S006 89.98(9) 2_465 2_465
S003 Pd01 S006 90.02(9) . 2_465
S003 Pd01 S006 90.01(9) 2_465 .
S003 Pd01 S006 89.99(9) . .
S006 Pd01 S006 180.0 2_465 .
C013 S002 C010 94.7(5) . .
C017 S003 Pd01 101.2(4) 2_465 .
C012 S004 C017 97.2(5) . .
C010 S005 C011 94.4(5) . .
C014 S006 Pd01 102.0(4) . .
C014 S007 C012 95.6(5) . .
C012 C010 S005 123.4(9) 2_566 .
C012 C010 S002 121.1(8) 2_566 .
S005 C010 S002 115.5(6) . .
C013 C011 C018 114.1(11) . .
C013 C011 S005 117.5(9) . .
C018 C011 S005 128.3(9) . .
C010 C012 S004 124.9(9) 2_566 .
C010 C012 S007 120.0(9) 2_566 .
S004 C012 S007 115.1(7) . .
C011 C013 C016 112.1(10) . .
C011 C013 S002 117.8(9) . .
C016 C013 S002 130.0(9) . .
C017 C014 S007 118.5(9) . .
C017 C014 S006 121.3(8) . .
S007 C014 S006 120.2(6) . .
C018 C015 C016 108.3(10) . .
C013 C016 C015 103.4(9) . .
C014 C017 S003 125.4(9) . 2_465
C014 C017 S004 113.6(8) . .
S003 C017 S004 121.0(6) 2_465 .
C011 C018 C015 102.0(9) . .
loop_
_geom_bond_atom_site_label_1
_geom_bond_atom_site_label_2
_geom_bond_distance
_geom_bond_site_symmetry_2
Pd01 S003 2.303(3) 2_465
Pd01 S003 2.303(3) .
Pd01 S006 2.303(3) 2_465
Pd01 S006 2.303(2) .
S002 C013 1.733(11) .
S002 C010 1.739(11) .
S003 C017 1.687(10) 2_465
S004 C012 1.695(12) .
S004 C017 1.772(11) .
S005 C010 1.748(11) .
S005 C011 1.740(12) .
S006 C014 1.720(11) .
S007 C014 1.713(11) .
S007 C012 1.758(12) .
C010 C012 1.374(16) 2_566
C011 C013 1.335(15) .
C011 C018 1.486(16) .
C012 C010 1.374(16) 2_566
C013 C016 1.481(16) .
C014 C017 1.385(15) .
C015 C018 1.543(18) .
C015 C016 1.541(16) .
C017 S003 1.687(10) 2_465
