#------------------------------------------------------------------------------
#$Date: 2019-11-23 13:29:27 +0200 (Sat, 23 Nov 2019) $
#$Revision: 233449 $
#$URL: file:///home/coder/svn-repositories/cod/cif/4/34/88/4348871.cif $
#------------------------------------------------------------------------------
#
# This file is available in the Crystallography Open Database (COD),
# http://www.crystallography.net/
#
# All data on this site have been placed in the public domain by the
# contributors.
#
data_4348871
loop_
_publ_author_name
'Mastropietro, Teresa F.'
'Marino, Nadia'
'Munno, Giovanni De'
'Lloret, Francesc'
'Julve, Miguel'
'Pardo, Emilio'
'Armentano, Donatella'
_publ_section_title
;
 Selective Guest Inclusion in Oxalate-Based Iron(III) Magnetic
 Coordination Polymers.
;
_journal_issue                   21
_journal_name_full               'Inorganic chemistry'
_journal_page_first              11160
_journal_page_last               11169
_journal_paper_doi               10.1021/acs.inorgchem.6b01769
_journal_volume                  55
_journal_year                    2016
_chemical_formula_sum            'C3 H8 Cl3 Fe K N O5'
_chemical_formula_weight         339.40
_space_group_crystal_system      monoclinic
_space_group_IT_number           11
_space_group_name_Hall           '-P 2yb'
_space_group_name_H-M_alt        'P 1 21/m 1'
_atom_sites_solution_hydrogens   mixed
_audit_creation_method           SHELXL-2013
_cell_angle_alpha                90
_cell_angle_beta                 112.421(7)
_cell_angle_gamma                90
_cell_formula_units_Z            2
_cell_length_a                   8.725(2)
_cell_length_b                   7.5076(19)
_cell_length_c                   9.026(3)
_cell_measurement_reflns_used    7509
_cell_measurement_temperature    294(2)
_cell_measurement_theta_max      31.5
_cell_measurement_theta_min      2.44
_cell_volume                     546.5(3)
_computing_cell_refinement       'Bruker APEX'
_computing_data_collection       'Bruker APEX'
_computing_data_reduction        'Bruker SAINT'
_computing_molecular_graphics    'Bruker SHELXTL'
_computing_publication_material  'Bruker SHELXTL'
_computing_structure_refinement  'SHELXL-2013 (Sheldrick, 2013)'
_computing_structure_solution    'SHELXS-2013 (Sheldrick, 2013)'
_diffrn_ambient_temperature      294(2)
_diffrn_measured_fraction_theta_full 1.000
_diffrn_measured_fraction_theta_max 0.930
_diffrn_measurement_device_type  'CCD area detector'
_diffrn_measurement_method       'phi and omega scans'
_diffrn_radiation_type           MoK\a
_diffrn_radiation_wavelength     0.71073
_diffrn_reflns_av_R_equivalents  0.0765
_diffrn_reflns_av_unetI/netI     0.0455
_diffrn_reflns_Laue_measured_fraction_full 1.000
_diffrn_reflns_Laue_measured_fraction_max 0.930
_diffrn_reflns_limit_h_max       12
_diffrn_reflns_limit_h_min       -13
_diffrn_reflns_limit_k_max       10
_diffrn_reflns_limit_k_min       -10
_diffrn_reflns_limit_l_max       13
_diffrn_reflns_limit_l_min       -13
_diffrn_reflns_number            10066
_diffrn_reflns_point_group_measured_fraction_full 1.000
_diffrn_reflns_point_group_measured_fraction_max 0.930
_diffrn_reflns_theta_full        25.242
_diffrn_reflns_theta_max         31.974
_diffrn_reflns_theta_min         2.441
_diffrn_source                   'fine-focus sealed tube'
_exptl_absorpt_coefficient_mu    2.487
_exptl_absorpt_correction_T_max  0.876
_exptl_absorpt_correction_T_min  0.756
_exptl_absorpt_correction_type   multi-scan
_exptl_absorpt_process_details   sadabs
_exptl_crystal_colour            green
_exptl_crystal_density_diffrn    2.063
_exptl_crystal_description       prism
_exptl_crystal_F_000             338
_exptl_crystal_size_max          0.32
_exptl_crystal_size_mid          0.28
_exptl_crystal_size_min          0.24
_refine_diff_density_max         0.684
_refine_diff_density_min         -0.740
_refine_diff_density_rms         0.157
_refine_ls_extinction_coef       0.020(4)
_refine_ls_extinction_expression Fc^*^=kFc[1+0.001xFc^2^\l^3^/sin(2\q)]^-1/4^
_refine_ls_extinction_method     SHELXL
_refine_ls_goodness_of_fit_ref   1.087
_refine_ls_hydrogen_treatment    mixed
_refine_ls_matrix_type           full
_refine_ls_number_parameters     77
_refine_ls_number_reflns         1879
_refine_ls_number_restraints     1
_refine_ls_restrained_S_all      1.087
_refine_ls_R_factor_all          0.0413
_refine_ls_R_factor_gt           0.0391
_refine_ls_shift/su_max          0.001
_refine_ls_shift/su_mean         0.000
_refine_ls_structure_factor_coef Fsqd
_refine_ls_weighting_details
'w=1/[\s^2^(Fo^2^)+(0.0593P)^2^+0.1726P] where P=(Fo^2^+2Fc^2^)/3'
_refine_ls_weighting_scheme      calc
_refine_ls_wR_factor_gt          0.1021
_refine_ls_wR_factor_ref         0.1038
_reflns_Friedel_coverage         0.000
_reflns_number_gt                1738
_reflns_number_total             1879
_reflns_threshold_expression     'I > 2\s(I)'
_cod_data_source_file            ic6b01769_si_003.cif
_cod_data_source_block           2
_cod_original_sg_symbol_H-M      'P 21/m'
_cod_database_code               4348871
_shelx_space_group_comment
;
The symmetry employed for this shelxl refinement is uniquely defined
by the following loop, which should always be used as a source of
symmetry information in preference to the above space-group names.
They are only intended as comments.
;
_shelxl_version_number           2013-4
_shelx_res_file
;
TITL FEEL12G_0m in P2(1)/m
CELL 0.71073   8.7247   7.5076   9.0258  90.000 112.421  90.000
ZERR    2.00   0.0023   0.0019   0.0025   0.000   0.007   0.000
LATT 1
SYMM -X, 0.5+Y, -Z
SFAC C  H  N  O  Cl K  Fe
UNIT 6 16 2 10 6 2 2
L.S. 3
ACTA
FMAP 2
PLAN 5
DFIX 0.96 0.03 O1W H1W
TEMP 21
WGHT    0.059300    0.172600
EXTI    0.020095
FVAR       0.71797
FE1   7    0.824619    0.750000    0.280269    10.50000    0.01487    0.01509 =
         0.02194    0.00000    0.00654    0.00000
K1    6    0.569051    0.750000    0.577656    10.50000    0.02509    0.01778 =
         0.05053    0.00000    0.01345    0.00000
CL1   5    0.750634    0.750000    0.004968    10.50000    0.04070    0.04675 =
         0.02186    0.00000    0.00886    0.00000
CL2   5    0.651256    0.988115    0.276229    11.00000    0.02807    0.02779 =
         0.03935    0.00476    0.01551    0.01174
O1W   4    0.893432    0.750000    0.532052    10.50000    0.03463    0.01421 =
         0.02170    0.00000    0.00792    0.00000
O1    4    1.017692    0.923893    0.319257    11.00000    0.01854    0.01347 =
         0.03179   -0.00069    0.00975    0.00023
O2    4    1.279752    0.932390    0.333292    11.00000    0.02590    0.02424 =
         0.05134   -0.00611    0.02110   -0.00851
C1    1    1.154593    0.852980    0.326576    11.00000    0.02078    0.01583 =
         0.02188   -0.00123    0.00996   -0.00136
C2    1    0.156705    0.750000    0.952352    10.50000    0.03715    0.04788 =
         0.03190    0.00000    0.00490    0.00000
AFIX  33
H4    2    0.125358    0.849260    0.879874    10.25000   -1.20000
H5    2    0.103268    0.759624    1.027354    10.25000   -1.20000
H6    2    0.123405    0.641115    0.892910    10.25000   -1.20000
AFIX   0
N1    3    0.335491    0.750000    1.038531    10.50000    0.03079    0.10481 =
         0.03179    0.00000    0.00818    0.00000
AFIX  33
H1    2    0.366773    0.852537    1.090901    10.25000   -1.20000
H2    2    0.384988    0.737248    0.969290    10.25000   -1.20000
H3    2    0.364186    0.660215    1.108172    10.25000   -1.20000
AFIX   0
H1W   2    0.950785    0.848169    0.581025    11.00000   10.06000
HKLF 4

REM  FEEL12G_0m in P2(1)/m
REM R1 =  0.0391 for    1738 Fo > 4sig(Fo)  and  0.0413 for all    1879 data
REM     77 parameters refined using      1 restraints

END

WGHT      0.0557      0.1925

REM Highest difference peak  0.684,  deepest hole -0.740,  1-sigma level  0.157
Q1    1   0.9250  0.7500  0.3160  10.50000  0.05    0.68
Q2    1   0.6470  0.7500  0.6328  10.50000  0.05    0.64
Q3    1   0.8467  0.7500  0.0313  10.50000  0.05    0.62
Q4    1   0.8934  0.7500  0.4440  10.50000  0.05    0.60
Q5    1   0.1678  0.7500  0.8517  10.50000  0.05    0.59
;
_shelx_res_checksum              27930
_shelx_hkl_file
;
  -1   0   0    7.63    0.91   2
  -1   0   0    7.60    0.94   2
  -1   0   0    8.67    0.98   1
   1   0   0    6.35    0.90   2
   1   0   0    6.29    0.93   1
   2   0   0 1576.03  145.36   3
  -2   0   0 1856.58  139.84   2
   2   0   0 1437.84  141.18   1
  -3   0   0  172.62   14.14   1
   3   0   0  135.27   14.04   1
  -3   0   0  159.02   13.98   2
  -3   0   0  171.82   13.92   2
   3   0   0  155.43   13.88   2
   4   0   0  262.54   22.07   3
   4   0   0  237.71   21.02   2
   4   0   0  252.36   21.29   1
  -4   0   0  262.40   21.18   2
  -4   0   0  196.93   21.01   2
  -5   0   0  258.51   25.39   2
   5   0   0  279.07   25.28   2
   5   0   0  335.60   25.66   1
  -5   0   0  251.56   25.64   1
  -5   0   0  328.23   25.40   2
   6   0   0  592.48   46.96   4
  -6   0   0  472.79   47.62   1
  -6   0   0  570.25   47.19   2
   6   0   0  537.80   47.56   1
   7   0   0   83.70    8.48   3
  -7   0   0   97.57    8.24   2
  -7   0   0   92.36    8.24   1
   7   0   0   74.79    8.00   1
  -8   0   0   22.86    3.29   1
  -8   0   0   28.84    3.39   2
   8   0   0   29.31    3.43   3
   8   0   0   31.28    3.31   1
  -9   0   0    0.51    0.97   2
   9   0   0   -0.52    0.70   3
  -9   0   0    0.07    0.86   1
 -10   0   0  179.75   14.69   2
 -10   0   0  133.39   14.50   1
 -11   0   0  149.32   16.07   1
 -11   0   0  195.82   16.32   2
 -11   1   0   57.92    6.43   1
 -11   1   0   57.62    6.36   2
 -10   1   0   24.02    3.19   2
 -10   1   0   19.23    3.14   1
  10  -1   0   24.72    3.13   3
  -9   1   0   64.78    5.93   2
  -9   1   0   65.10    6.01   1
   9  -1   0   44.25    5.75   3
  -8   1   0    3.59    1.18   1
   8  -1   0    6.29    1.32   3
  -8   1   0    3.54    1.17   2
   7  -1   0    5.76    1.04   1
  -7   1   0    5.77    1.17   2
  -7   1   0    4.48    1.15   1
   7  -1   0    4.92    1.13   3
   6  -1   0   10.84    1.38   3
   6  -1   0    5.80    1.27   3
   6  -1   0    9.52    1.40   4
  -6   1   0    8.46    1.34   1
  -6   1   0    8.73    1.25   2
   6  -1   0    6.29    1.11   1
  -6   1   0    6.01    1.19   2
  -5   1   0  109.25    8.88   2
   5  -1   0  104.46    8.95   1
   5  -1   0   89.83    9.30   3
   5  -1   0   97.47    8.78   2
  -5   1   0   93.38    9.00   1
   4  -1   0 1142.77  110.95   4
   4  -1   0 1344.36  116.42   3
   4  -1   0 1425.08  113.03   1
   4  -1   0 1321.61  111.62   2
  -4   1   0 1251.87  112.90   1
   3  -1   0   26.57    2.48   3
   3  -1   0   25.45    2.48   4
   3  -1   0   22.91    2.29   2
  -3   1   0   25.19    2.33   2
   3  -1   0   24.57    2.36   1
   3  -1   0   22.77    2.44   3
   2  -1   0   86.22    6.95   3
   2  -1   0   79.77    6.71   1
  -2   1   0   65.62    6.70   1
  -2   1   0   73.55    6.62   2
   2  -1   0   73.70    6.69   1
  -2   1   0   79.51    6.71   1
   2  -1   0   69.90    6.71   4
  -2   1   0   65.39    6.69   4
  -2   1   0   87.24    6.67   2
  -1   1   0 1226.57   99.77   1
   1  -1   0 1324.92  101.61   1
  -1   1   0  978.57   99.41   1
  -1   1   0 1105.84  102.91   3
   1  -1   0 1080.98  102.67   3
   0  -1   0   -1.49    0.21   2
   0   1   0   -1.41    0.20   2
   0  -1   0   -1.32    0.23   1
   0   1   0   -1.35    0.24   1
   0  -1   0   -1.58    0.17   2
   0  -1   0   -1.49    0.21   3
   0   1   0   -1.79    0.22   1
   0   1   0   -1.20    0.23   3
   0   1   0   -1.41    0.22   2
  -1  -1   0 1394.66  119.53   1
   1   1   0 1351.56  118.21   2
  -1  -1   0 1440.63  118.38   2
   1   1   0 1156.33  119.34   1
  -1  -1   0 1482.22  118.07   2
   1   1   0 1314.06  117.97   2
   1   1   0 1505.34  123.00   3
   1   1   0 1323.68  119.55   1
  -1  -1   0 1380.31  123.13   3
  -2  -1   0   64.15    6.18   2
   2   1   0   73.93    6.30   1
  -2  -1   0   64.73    6.48   3
  -2  -1   0   71.88    6.26   2
  -2  -1   0   64.16    6.31   1
   2   1   0   76.62    6.52   3
   2   1   0   77.66    6.28   2
   2   1   0   66.02    6.19   2
  -3  -1   0   30.35    2.66   1
  -3  -1   0   29.47    2.47   2
   3   1   0   20.90    2.39   2
   3   1   0   25.39    2.49   1
   3   1   0   19.50    2.52   3
  -3  -1   0   23.64    2.52   2
   4   1   0 1603.40  128.67   3
   4   1   0 1465.43  124.65   1
  -4  -1   0 1249.15  123.29   2
  -4  -1   0 1449.48  128.51   3
   4   1   0 1393.76  123.23   2
   5   1   0   74.30    8.42   3
  -5  -1   0   96.19    8.28   1
   5   1   0  100.80    8.04   2
   5   1   0   82.29    8.15   1
  -5  -1   0   88.74    8.17   2
  -6  -1   0    6.64    1.30   2
  -6  -1   0    8.75    1.49   1
   6   1   0    7.20    1.20   2
   6   1   0    9.19    1.37   1
   6   1   0    7.47    1.37   3
   7   1   0    5.06    1.11   1
  -7  -1   0    3.52    1.09   2
  -7  -1   0    5.85    1.34   1
   7   1   0    3.68    1.11   3
  -8  -1   0    5.23    1.29   2
   8   1   0    4.65    1.21   1
   8   1   0    2.51    1.07   3
  -8  -1   0    2.72    1.20   1
   9   1   0   56.60    6.31   3
   9   1   0   63.22    6.10   1
  -9  -1   0   60.82    6.24   2
  -9  -1   0   52.15    6.13   1
  10   1   0   16.86    3.02   3
 -10  -1   0   24.23    3.21   2
 -10  -1   0   21.74    3.21   1
 -11  -1   0   57.22    6.32   1
 -11  -1   0   51.86    6.18   2
 -11   2   0    5.09    1.79   1
  10  -2   0    1.64    1.16   3
 -10   2   0    3.03    1.34   1
 -10   2   0    2.08    1.23   2
  -9   2   0   80.13    8.91   1
   9  -2   0  101.42    9.24   3
  -9   2   0   98.76    8.98   2
  -8   2   0  276.30   23.95   2
  -8   2   0  264.25   24.14   1
  -7   2   0  329.82   30.19   2
  -7   2   0  359.03   30.50   1
   6  -2   0  155.06   12.94   3
  -6   2   0  145.61   12.45   1
   6  -2   0  142.22   12.76   3
  -6   2   0  123.08   12.26   2
   6  -2   0  141.26   12.30   1
   6  -2   0  116.53   12.38   4
   5  -2   0  305.54   26.82   1
  -5   2   0  309.29   26.90   1
   5  -2   0  299.81   27.69   3
  -5   2   0  280.34   26.52   2
   5  -2   0  338.44   27.83   3
   5  -2   0  301.76   26.72   4
   4  -2   0    3.40    0.74   3
  -4   2   0    9.38    1.06   1
   4  -2   0    6.57    1.04   4
  -4   2   0    5.85    0.83   2
  -4   2   0    5.39    0.79   2
   4  -2   0    5.27    0.78   1
   3  -2   0 5493.53  430.40   1
  -3   2   0 5131.83  424.64   2
  -3   2   0 4660.74  421.61   4
   3  -2   0 4306.19  442.48   3
  -3   2   0 5719.13  429.24   1
  -3   2   0 4425.56  424.46   2
  -3   2   0 4421.01  429.10   1
   3  -2   0 5366.16  422.12   4
  -2   2   0  119.11   12.59   3
  -2   2   0  127.24   12.10   2
  -2   2   0  134.66   12.11   2
   2  -2   0  146.54   12.28   4
  -2   2   0  159.12   12.28   1
   2  -2   0  150.58   12.66   3
  -1   2   0  278.14   22.00   1
   1  -2   0  265.54   22.69   3
  -1   2   0  233.33   22.64   3
  -1   2   0  225.61   21.77   2
   0   2   0 1796.24  153.77   1
   0  -2   0 1800.17  153.74   1
   0   2   0 1790.91  152.13   2
   0  -2   0 1744.79  153.60   1
   0   2   0 1722.20  151.91   2
   0   2   0 1931.28  158.47   3
   0  -2   0 1561.29  151.98   2
   0   2   0 1663.83  153.59   1
   0  -2   0 1805.58  158.57   3
  -1  -2   0  271.58   27.78   1
   1   2   0  322.01   27.49   2
   1   2   0  361.57   28.70   3
  -1  -2   0  306.41   27.49   2
  -1  -2   0  296.14   28.66   3
   1   2   0  317.82   27.81   1
   1   2   0  343.03   27.52   2
  -2  -2   0  123.70   12.72   1
  -2  -2   0  165.24   13.19   3
   2   2   0  156.00   12.60   2
   2   2   0  126.81   12.70   1
   2   2   0  136.17   12.61   2
  -2  -2   0  149.24   12.63   2
  -3  -2   0 4688.91  453.21   1
   3   2   0 5092.15  448.87   2
   3   2   0 5442.26  454.08   1
  -3  -2   0 5653.36  468.18   3
  -4  -2   0    4.31    0.99   1
  -4  -2   0    4.17    0.96   2
   4   2   0    4.81    0.89   2
   4   2   0    6.46    1.01   1
  -4  -2   0    4.75    0.95   3
   5   2   0  332.24   26.13   2
   5   2   0  264.21   27.34   3
  -5  -2   0  297.22   27.29   3
  -6  -2   0  141.47   12.72   2
   6   2   0  128.37   12.76   1
  -6  -2   0  131.55   13.17   3
  -6  -2   0  167.82   13.00   1
   6   2   0  133.42   12.53   2
  -7  -2   0  334.65   30.31   1
   7   2   0  401.37   31.40   3
   7   2   0  342.47   30.23   1
  -7  -2   0  282.98   29.82   2
   8   2   0  264.14   23.74   1
  -8  -2   0  263.35   23.89   1
  -9  -2   0   61.37    7.07   1
   9   2   0   74.23    7.02   1
 -10  -2   0    2.76    1.54   1
  10   2   0    3.32    1.51   1
 -10  -2   0    4.80    1.62   2
  10   2   0    3.43    1.52   3
 -11  -2   0    2.58    1.64   2
 -11  -2   0    4.38    1.79   1
  10  -3   0    4.53    1.34   3
 -10   3   0    4.61    1.37   2
  -9   3   0   41.64    4.02   2
  -9   3   0   29.64    3.96   1
   9  -3   0   34.99    3.96   3
   8  -3   0  244.48   23.49   3
  -8   3   0  281.14   22.72   2
  -8   3   0  241.65   22.81   1
  -7   3   0   72.20    7.54   1
   7  -3   0   83.26    7.79   3
  -7   3   0   86.63    7.56   2
  -6   3   0   44.25    4.24   2
   6  -3   0   39.79    4.32   3
  -6   3   0   47.35    4.34   1
   5  -3   0  314.92   29.65   3
  -5   3   0  321.64   28.36   2
  -5   3   0  361.64   28.45   2
   5  -3   0  308.89   29.57   3
  -5   3   0  307.48   28.71   1
   5  -3   0  351.77   28.68   4
  -4   3   0  528.39   46.05   2
  -4   3   0  528.26   46.08   4
  -4   3   0  532.67   46.56   1
  -4   3   0  570.45   46.05   2
   4  -3   0  525.51   46.12   4
   4  -3   0  514.50   47.98   3
  -3   3   0   20.97    2.09   1
  -3   3   0   19.78    2.02   2
  -3   3   0   28.29    2.42   4
   3  -3   0   22.01    2.36   4
  -3   3   0   21.06    1.98   2
  -3   3   0   20.62    2.03   1
   3  -3   0   19.29    2.08   3
  -2   3   0  490.11   39.18   2
  -2   3   0  417.13   40.80   3
   1  -3   0 3062.71  257.72   1
  -1   3   0 3086.28  257.35   1
  -1   3   0 2893.23  252.96   4
  -1   3   0 2745.70  254.41   2
   1  -3   0 2940.52  257.38   1
  -1   3   0 3020.00  254.59   2
   0   3   0   -1.48    0.34   2
   0  -3   0   -1.77    0.25   3
   0   3   0   -0.06    0.38   2
   0  -3   0   -0.81    0.36   1
   0   3   0   -1.25    0.38   1
   0  -3   0   -1.34    0.26   2
   1   3   0 3283.56  285.63   2
  -1  -3   0 3440.04  288.94   1
  -1  -3   0 3291.81  297.97   3
   1   3   0 3252.80  285.72   2
   1   3   0 3329.24  288.69   1
  -2  -3   0  477.11   47.23   2
   2   3   0  540.05   47.26   2
  -2  -3   0  520.88   49.28   3
   2   3   0  518.45   47.81   1
   2   3   0  590.28   47.33   2
  -2  -3   0  633.23   47.90   1
  -3  -3   0   18.01    2.29   1
  -3  -3   0   19.73    2.23   3
  -3  -3   0   19.97    2.23   2
   3   3   0   15.94    2.07   2
   3   3   0   21.53    2.28   1
  -4  -3   0  497.87   51.15   3
   4   3   0  523.23   49.05   2
  -4  -3   0  652.65   49.23   2
  -4  -3   0  564.73   49.70   1
   4   3   0  593.88   49.67   1
   5   3   0  313.59   28.84   2
  -5  -3   0  365.75   30.26   3
   5   3   0  344.72   29.25   1
  -5  -3   0  318.91   28.93   2
  -5  -3   0  285.65   29.23   1
   5   3   0  351.67   30.36   3
  -6  -3   0   49.56    4.82   1
  -6  -3   0   46.32    4.67   2
   6   3   0   40.26    4.62   1
  -6  -3   0   41.61    4.72   3
   6   3   0   46.11    4.51   2
   6   3   0   44.06    4.87   3
  -7  -3   0   91.36    8.70   1
   7   3   0   80.97    8.82   3
  -7  -3   0   87.44    8.52   2
   7   3   0   92.90    8.61   1
  -8  -3   0  279.24   24.14   2
   8   3   0  268.89   24.27   1
   8   3   0  265.38   25.13   3
  -8  -3   0  257.26   24.30   1
   9   3   0   40.97    4.83   3
  -9  -3   0   32.34    4.52   2
   9   3   0   35.54    4.45   1
  -9  -3   0   49.23    4.98   1
  10   3   0    6.31    1.86   3
  10   3   0    4.67    1.67   1
 -10  -3   0    4.63    1.70   2
 -10  -3   0    1.84    1.51   1
  10  -4   0   79.35    8.64   3
 -10   4   0   96.64    8.55   2
   9  -4   0   12.94    1.87   3
  -9   4   0   10.39    1.80   2
   8  -4   0   78.72    7.74   3
  -8   4   0   80.30    7.49   2
  -7   4   0   27.46    3.28   1
  -7   4   0   36.12    3.36   2
   7  -4   0   31.64    3.36   3
  -6   4   0   91.87    7.65   2
  -6   4   0   81.81    7.68   1
   6  -4   0   77.51    7.87   3
  -5   4   0  103.54   11.02   2
  -5   4   0  136.54   11.09   2
  -5   4   0  134.95   11.24   1
   5  -4   0  126.87   11.55   3
  -4   4   0  366.26   32.09   2
   4  -4   0  337.00   33.45   3
  -4   4   0  375.19   32.50   1
  -4   4   0  406.51   32.14   2
  -3   4   0   40.15    3.50   2
   3  -4   0   38.71    3.66   3
  -3   4   0   38.66    3.84   4
  -3   4   0   36.20    3.46   2
  -3   4   0   39.90    3.59   1
  -3   4   0   34.78    3.53   1
   2  -4   0  625.01   51.89   3
  -2   4   0  484.15   49.59   4
  -2   4   0  606.55   49.76   2
  -2   4   0  640.16   50.34   1
  -2   4   0  524.34   49.69   2
  -1   4   0  431.43   38.52   2
   1  -4   0  450.09   40.17   3
  -1   4   0  447.35   38.98   1
   1  -4   0  446.20   38.85   1
  -1   4   0  452.44   38.49   2
   0   4   0 6370.17  489.81   2
   0  -4   0 5782.57  495.13   1
   0  -4   0 5511.86  489.67   2
   0  -4   0 5773.13  510.67   3
   0   4   0 5363.87  489.81   2
   0   4   0 5369.59  495.18   1
   1   4   0  419.47   36.67   2
  -1  -4   0  412.47   37.06   1
  -1  -4   0  452.37   36.61   2
   1   4   0  413.27   36.68   2
  -1  -4   0  417.02   38.24   3
   1   4   0  420.77   37.09   1
  -2  -4   0  656.25   55.24   1
   2   4   0  647.99   54.63   2
  -2  -4   0  579.36   54.52   2
   2   4   0  592.81   55.22   1
  -2  -4   0  678.48   56.98   3
  -3  -4   0   39.87    4.53   3
  -3  -4   0   54.79    4.59   1
   3   4   0   44.59    4.47   1
   3   4   0   39.30    4.34   2
  -3  -4   0   45.41    4.37   2
  -4  -4   0  360.46   31.17   2
  -4  -4   0  328.25   32.49   3
   4   4   0  384.43   31.60   1
   4   4   0  298.95   31.04   2
  -4  -4   0  410.80   31.65   1
   5   4   0  160.41   13.38   2
   5   4   0  136.91   14.03   3
  -5  -4   0  148.93   13.96   3
  -5  -4   0  138.16   13.33   2
  -5  -4   0  150.58   13.59   1
   6   4   0   81.83    8.33   1
  -6  -4   0   81.95    8.27   2
   6   4   0   85.23    8.18   2
   6   4   0   96.85    8.85   3
   7   4   0   31.55    3.94   1
   7   4   0   41.83    4.27   3
  -7  -4   0   28.18    3.99   1
  -7  -4   0   28.05    3.86   3
  -7  -4   0   39.77    4.06   2
  -8  -4   0   78.16    8.38   2
   8   4   0   94.61    8.95   3
  -8  -4   0   88.15    8.59   1
   8   4   0   76.71    8.43   1
  -9  -4   0   19.93    3.10   1
   9   4   0   13.18    2.80   3
   9   4   0   18.69    2.95   1
  10   4   0   87.50    9.06   1
  10   4   0   88.85    9.63   3
  11   4   0   68.32    7.57   1
  -9   5   0    3.40    1.07   2
   9  -5   0    3.47    1.03   3
  -8   5   0    3.08    0.91   2
   8  -5   0    2.61    0.84   3
  -7   5   0   19.07    2.30   2
   7  -5   0   21.17    2.35   3
   6  -5   0   11.13    1.41   3
  -6   5   0   10.17    1.41   2
  -5   5   0  100.43    9.35   2
  -5   5   0  109.96    9.53   1
   4  -5   0  875.07   82.72   3
  -4   5   0  893.70   80.28   1
  -4   5   0  904.41   79.34   2
  -4   5   0  971.85   79.40   2
  -4   5   0  965.15   79.38   4
   3  -5   0  152.27   13.03   3
  -3   5   0  151.31   12.52   2
  -3   5   0  129.13   12.63   1
  -3   5   0  134.47   12.45   2
  -3   5   0  144.96   12.89   4
  -2   5   0   80.28    7.07   4
  -2   5   0   84.31    6.91   1
   2  -5   0   67.00    7.00   3
  -2   5   0   78.70    6.74   2
  -2   5   0   67.47    6.73   2
   1  -5   0 1262.00  108.43   1
  -1   5   0 1272.26  107.32   2
  -1   5   0 1426.38  108.62   1
  -1   5   0 1364.29  107.39   2
  -1   5   0 1073.31  106.76   4
   1  -5   0 1080.44  111.83   3
   0   5   0   -0.16    0.46   2
   0  -5   0   -0.23    0.41   3
   0   5   0   -0.02    0.46   2
   0   5   0   -0.63    0.47   1
   0  -5   0   -0.35    0.38   1
   1   5   0 1241.34  103.15   1
   1   5   0 1246.22  102.01   2
  -1  -5   0 1241.91  106.35   3
   1   5   0 1313.21  102.06   2
  -1  -5   0 1011.16  102.99   1
  -1  -5   0 1048.81  101.81   2
   2   5   0   81.54    7.86   1
   2   5   0   78.58    7.73   2
  -2  -5   0   96.30    7.87   1
  -2  -5   0   77.42    8.01   3
  -3  -5   0  115.86   12.11   1
   3   5   0  123.19   12.15   1
  -3  -5   0  156.28   12.07   2
  -3  -5   0  138.11   12.62   3
   3   5   0  130.85   12.03   2
   4   5   0  907.04   86.22   2
  -4  -5   0  926.47   87.24   1
   4   5   0 1096.21   87.39   1
  -4  -5   0 1062.67   86.32   2
   5   5   0  109.43   10.02   1
  -5  -5   0  120.15   10.14   1
   5   5   0   92.85   10.33   3
  -5  -5   0  100.03    9.85   2
   5   5   0  103.73    9.85   2
  -6  -5   0    7.08    1.81   1
   6   5   0    9.85    1.88   1
   6   5   0    6.33    1.69   3
  -6  -5   0   10.79    1.93   3
   6   5   0   13.12    1.91   2
  -7  -5   0   26.05    3.43   1
  -7  -5   0   24.63    3.21   3
   7   5   0   22.70    3.23   3
   7   5   0   21.63    3.21   1
   8   5   0    2.78    1.33   3
   8   5   0    2.15    1.36   1
  -8  -5   0    3.78    1.56   1
   9   5   0    2.75    1.51   3
   9   5   0    3.26    1.74   1
  -9  -5   0    1.62    1.47   1
 -10  -5   0   35.69    4.73   1
  10   5   0   29.43    4.33   1
  -9   6   0   36.64    3.89   2
  -8   6   0   53.32    5.22   2
  -7   6   0  294.73   25.81   2
   6  -6   0   54.89    5.32   3
  -6   6   0   55.14    5.21   2
  -5   6   0  175.38   17.16   2
   5  -6   0  215.29   17.87   3
  -4   6   0  224.88   21.83   1
  -4   6   0  251.89   21.66   2
  -4   6   0  272.56   22.16   4
   3  -6   0  524.62   45.58   3
  -3   6   0  527.20   43.99   4
  -3   6   0  434.77   44.19   1
  -3   6   0  537.96   43.78   2
  -2   6   0    3.07    0.95   4
  -2   6   0    2.49    0.76   1
  -2   6   0    3.39    0.76   2
  -2   6   0    2.89    0.77   2
   2  -6   0    3.93    0.75   3
  -1   6   0  184.62   17.16   4
  -1   6   0  191.96   16.98   2
  -1   6   0  189.41   17.19   1
  -1   6   0  193.83   17.02   2
   1  -6   0  202.62   17.74   3
   0  -6   0 1237.14  107.51   1
   0  -6   0 1249.05  111.01   3
   0   6   0 1238.60  106.52   2
   0   6   0 1215.00  107.67   1
  -1  -6   0  189.32   17.22   1
   1   6   0  183.09   17.32   1
   1   6   0  190.30   17.14   2
  -1  -6   0  209.30   17.95   3
   2   6   0    3.89    1.25   1
  -2  -6   0    0.88    0.92   1
  -2  -6   0    1.71    0.86   3
   2   6   0    1.80    0.97   2
   3   6   0  472.57   41.21   1
  -3  -6   0  429.04   42.44   3
   3   6   0  496.07   40.77   2
  -4  -6   0  228.66   21.32   3
   4   6   0  221.51   20.32   2
   4   6   0  246.04   20.73   1
  -4  -6   0  214.85   20.58   1
   5   6   0  184.63   17.79   3
   5   6   0  181.14   17.12   1
  -5  -6   0  208.59   17.82   3
   5   6   0  172.31   16.89   2
   6   6   0   60.19    6.05   1
   6   6   0   59.93    5.94   2
  -6  -6   0   62.46    6.21   1
  -6  -6   0   51.31    6.06   3
   6   6   0   47.99    6.08   3
  -7  -6   0  353.15   29.85   3
   7   6   0  346.64   29.89   3
  -7  -6   0  285.86   28.71   1
   7   6   0  289.13   28.72   1
  -8  -6   0   55.95    6.71   1
   8   6   0   64.29    6.79   1
   8   6   0   60.00    6.89   3
   9   6   0   50.11    6.13   3
   9   6   0   50.26    6.02   1
  -9  -6   0   46.74    5.99   1
  -8   7   0   58.82    5.79   2
  -7   7   0   23.49    2.76   2
  -6   7   0   43.11    4.32   2
  -5   7   0   58.90    5.61   2
   4  -7   0  313.45   30.79   3
  -4   7   0  369.72   29.76   2
  -3   7   0    2.91    1.15   4
  -3   7   0    2.67    0.82   2
   3  -7   0    2.27    0.70   3
  -2   7   0  163.84   16.12   1
   2  -7   0  193.78   16.64   3
  -2   7   0  176.65   16.25   4
  -2   7   0  186.46   16.03   2
  -1   7   0  291.21   25.92   1
  -1   7   0  252.29   25.69   4
  -1   7   0  300.96   25.67   2
   1  -7   0  321.29   26.75   3
   0  -7   0   -0.34    0.43   3
   0   7   0    0.13    0.59   2
   0   7   0   -0.03    0.64   1
   1   7   0  295.35   26.67   1
  -1  -7   0  301.61   27.49   3
   1   7   0  300.27   26.38   2
  -2  -7   0  171.50   15.11   1
   2   7   0  162.45   15.03   2
   2   7   0  171.99   15.25   1
  -2  -7   0  157.69   15.68   3
   3   7   0    1.37    1.08   1
   3   7   0    1.18    1.09   2
  -3  -7   0    5.66    1.36   3
  -3  -7   0    1.56    1.09   1
   4   7   0  363.44   36.26   1
   4   7   0  429.46   35.92   2
   4   7   0  434.58   37.58   3
  -4  -7   0  431.94   36.35   1
  -4  -7   0  377.66   37.41   3
  -5  -7   0   50.86    5.59   1
  -5  -7   0   50.54    5.65   3
   5   7   0   45.48    5.61   3
   5   7   0   47.16    5.46   1
   5   7   0   59.45    5.61   2
   6   7   0   43.88    4.86   1
   6   7   0   40.23    4.89   3
   6   7   0   37.21    4.73   2
  -6  -7   0   39.27    4.85   3
  -6  -7   0   42.99    4.90   1
   7   7   0   26.15    3.64   1
  -7  -7   0   21.22    3.53   1
  -7  -7   0   24.47    3.44   3
   8   7   0   62.95    6.97   1
  -8  -7   0   58.32    6.95   1
  -7   8   0    1.07    0.90   2
  -6   8   0   57.91    5.67   2
  -5   8   0   43.81    4.45   2
  -4   8   0  234.36   20.74   2
   3  -8   0  105.41   11.02   3
  -3   8   0  134.75   10.88   2
  -2   8   0   85.90    8.26   2
   2  -8   0   91.10    8.51   3
  -1   8   0   43.88    4.42   2
   1  -8   0   41.45    4.44   3
  -1   8   0   40.94    4.46   1
   0   8   0  877.74   75.65   1
   0   8   0  847.17   74.81   2
   0  -8   0  864.62   77.95   3
  -1  -8   0   43.82    4.71   3
   1   8   0   40.69    4.67   1
   1   8   0   43.06    4.57   2
  -2  -8   0   87.66    8.79   3
   2   8   0   89.07    8.56   1
   2   8   0   84.88    8.40   2
   3   8   0  124.25   11.41   2
   3   8   0  123.55   11.56   1
  -3  -8   0  114.12   11.86   3
   4   8   0  200.75   19.08   2
   4   8   0  204.12   19.38   1
  -4  -8   0  226.02   20.08   3
  -5  -8   0   37.27    4.49   1
   5   8   0   30.94    4.25   1
  -5  -8   0   31.48    4.27   3
   5   8   0   39.98    4.48   2
   6   8   0   54.36    5.85   2
  -6  -8   0   47.25    5.84   3
   6   8   0   48.22    5.84   1
  -6  -8   0   55.13    6.00   1
   7   8   0    1.60    1.54   1
  -7  -8   0    2.55    1.79   1
  -8  -8   0   90.83    9.68   1
  -6   9   0   19.38    2.54   2
  -5   9   0    1.20    0.89   2
  -4   9   0   44.17    4.63   2
  -3   9   0   28.73    3.28   2
  -2   9   0   17.91    2.33   2
   2  -9   0   15.58    2.10   3
   1  -9   0  335.55   30.36   3
  -1   9   0  326.33   29.20   2
   0  -9   0   -0.65    0.64   3
   0   9   0    0.54    0.82   2
   0   9   0    0.42    1.04   1
   1   9   0  321.01   29.55   2
  -1  -9   0  351.16   30.86   3
   1   9   0  328.14   29.88   1
  -2  -9   0   18.09    2.72   3
   2   9   0   12.68    2.44   2
   2   9   0   17.58    2.65   1
   3   9   0   23.11    3.37   2
  -3  -9   0   27.71    3.57   3
   3   9   0   27.02    3.65   1
   4   9   0   37.25    4.57   2
   4   9   0   34.99    4.54   1
  -4  -9   0   37.89    4.58   3
   5   9   0   -0.33    1.19   2
   5   9   0    1.49    1.32   1
   6   9   0   16.88    3.10   2
   6   9   0   17.04    3.09   1
  -3  10   0  271.95   24.18   2
  -2  10   0    7.14    1.54   2
  -1  10   0   14.49    2.23   2
   1 -10   0   14.83    2.26   3
   0 -10   0  206.62   19.82   3
   0  10   0  214.85   19.14   2
  -1 -10   0   13.73    2.35   3
   1  10   0   12.57    2.28   2
   2  10   0    7.37    1.98   1
  -2 -10   0    6.86    1.76   3
   2  10   0    5.07    1.73   2
   3  10   0  241.63   22.30   1
   4  10   0    1.25    1.37   1
   4  10  -1   99.56   10.20   1
   3  10  -1   64.44    6.93   1
   3  10  -1   60.79    6.77   2
  -2 -10   1  179.51   17.23   3
   2  10  -1  180.01   16.55   2
   2  10  -1  175.17   16.70   1
   1  10  -1    7.49    2.00   1
   1  10  -1    8.62    1.88   2
  -1 -10   1    7.93    1.90   3
   0  10  -1   32.43    3.94   2
   0 -10   1   34.33    4.00   3
   1 -10   1    0.55    0.81   3
  -1  10  -1    0.72    0.95   2
  -2  10  -1   36.93    4.20   2
   6   9  -1  138.64   13.24   1
   6   9  -1  129.56   13.04   2
   5   9  -1   15.14    2.90   1
   5   9  -1   17.79    2.94   2
  -5  -9   1   14.10    2.83   3
   4   9  -1   53.57    5.97   2
  -4  -9   1   58.29    6.22   3
   4   9  -1   49.05    5.97   1
  -3  -9   1  289.71   26.97   3
   3   9  -1  291.99   26.14   1
   3   9  -1  280.13   25.79   2
   2   9  -1   63.33    6.96   1
  -2  -9   1   67.44    7.09   3
   2   9  -1   69.81    6.92   2
  -1  -9   1    5.77    1.48   3
   1   9  -1    3.94    1.35   2
   1   9  -1    4.39    1.56   1
   0   9  -1   73.26    7.44   2
   0  -9   1   76.12    7.73   3
   0   9  -1   78.71    7.63   1
  -1   9  -1   25.28    3.13   2
   1  -9   1   24.50    3.03   3
  -2   9  -1  159.62   14.29   2
   2  -9   1  152.98   14.69   3
  -3   9  -1    2.21    1.02   2
   3  -9   1    0.69    0.67   3
  -4   9  -1  196.99   17.77   2
  -5   9  -1   39.27    4.32   2
  -8  -8   1   30.93    4.57   1
  -7  -8   1  163.13   17.19   3
   7   8  -1  188.83   16.83   1
  -7  -8   1  175.04   16.73   1
  -6  -8   1   41.23    5.03   1
   6   8  -1   32.67    4.69   1
  -6  -8   1   40.87    4.90   3
   6   8  -1   40.89    4.84   2
   5   8  -1   89.61    9.21   1
  -5  -8   1  109.63    9.37   1
  -5  -8   1   89.51    9.46   3
   5   8  -1   77.78    8.87   2
  -4  -8   1   36.11    4.52   3
   4   8  -1   35.56    4.47   1
   4   8  -1   42.13    4.58   2
   3   8  -1  113.83   10.83   2
   3   8  -1  116.69   11.02   1
  -3  -8   1  112.46   11.30   3
   2   8  -1   65.16    6.48   1
  -2  -8   1   60.95    6.52   3
   2   8  -1   60.97    6.27   2
   1   8  -1  164.87   15.12   2
  -1  -8   1  166.75   15.78   3
   1   8  -1  157.44   15.28   1
   1   8  -1  176.13   15.12   4
   0  -8   1   33.77    3.71   3
   0   8  -1   30.76    3.64   2
   0   8  -1   32.79    3.65   4
   0   8  -1   30.39    3.71   1
   1  -8   1  548.91   48.29   3
  -1   8  -1  530.03   46.38   2
  -1   8  -1  489.58   46.16   4
  -1   8  -1  556.35   46.90   1
   2  -8   1   24.24    2.85   3
  -2   8  -1   23.89    2.90   2
   3  -8   1    0.64    0.60   3
  -3   8  -1    1.53    0.82   2
  -4   8  -1  130.89   11.66   2
   4  -8   1  123.28   11.87   3
  -5   8  -1  188.76   16.97   2
  -6   8  -1   41.35    4.50   2
   9   7  -1    2.77    1.81   1
   9   7  -1    2.59    1.62   3
  -9  -7   1    1.87    1.72   1
  -8  -7   1  101.05   11.81   1
   8   7  -1  124.30   12.46   3
  -8  -7   1  140.98   12.53   3
   8   7  -1  116.59   11.93   1
  -7  -7   1   -1.07    0.71   3
   7   7  -1    1.04    1.15   1
  -7  -7   1   -0.13    1.21   1
   7   7  -1   -0.26    0.85   3
   6   7  -1  202.04   18.49   3
  -6  -7   1  200.81   18.31   3
  -6  -7   1  153.27   17.45   1
   6   7  -1  210.37   17.79   1
   6   7  -1  184.75   17.43   2
  -5  -7   1   32.52    3.71   3
  -5  -7   1   24.46    3.46   1
   5   7  -1   22.75    3.31   2
   5   7  -1   28.41    3.57   1
   4   7  -1  167.39   14.86   2
  -4  -7   1  156.07   14.94   1
   4   7  -1  154.90   14.98   1
  -4  -7   1  165.98   15.54   3
   3   7  -1  784.73   69.01   1
  -3  -7   1  827.68   68.91   1
   3   7  -1  794.13   68.21   2
  -3  -7   1  730.80   71.03   3
  -2  -7   1   67.05    6.29   1
  -2  -7   1   61.86    6.53   3
   2   7  -1   64.83    6.43   1
   2   7  -1   59.88    6.25   2
   1   7  -1  133.34   11.94   1
   1   7  -1  131.88   11.80   2
  -1  -7   1  120.28   12.22   3
   0   7  -1    5.85    1.24   4
   0  -7   1    5.76    1.21   3
   0   7  -1    5.85    1.25   2
   0   7  -1    5.49    1.32   1
  -1   7  -1  334.11   28.18   2
  -1   7  -1  325.35   28.48   1
  -1   7  -1  293.78   28.03   4
   1  -7   1  327.92   29.31   3
  -2   7  -1   51.24    5.05   4
  -2   7  -1   49.37    4.89   1
   2  -7   1   44.57    4.87   3
  -2   7  -1   49.60    4.82   2
  -3   7  -1   10.57    1.58   1
  -3   7  -1    8.71    1.77   4
   3  -7   1    8.65    1.42   3
  -3   7  -1    8.25    1.43   2
   4  -7   1   17.71    2.21   3
  -4   7  -1   19.14    2.34   2
  -5   7  -1   12.18    1.87   2
   5  -7   1   14.18    1.79   3
  -6   7  -1   24.03    2.85   2
  -7   7  -1   36.10    3.93   2
  -9  -6   1   20.98    3.48   3
   9   6  -1   20.14    3.48   3
   9   6  -1   20.14    3.42   1
  -9  -6   1   20.01    3.45   1
  -8  -6   1   14.61    2.88   1
   8   6  -1   20.50    3.21   3
   8   6  -1   15.45    2.78   1
  -8  -6   1   12.31    2.60   3
   7   6  -1  171.40   14.94   2
  -7  -6   1  151.10   15.50   3
  -7  -6   1  173.22   15.20   1
   7   6  -1  143.95   14.94   1
  -6  -6   1   12.25    2.24   3
   6   6  -1   11.56    2.13   2
  -6  -6   1   14.06    2.34   1
   6   6  -1   12.14    2.25   1
  -5  -6   1    4.31    1.52   1
   5   6  -1    7.21    1.55   2
  -5  -6   1    7.33    1.64   3
   5   6  -1    4.83    1.55   1
  -4  -6   1  743.72   63.19   1
   4   6  -1  696.79   62.42   2
   4   6  -1  698.47   63.13   1
  -4  -6   1  732.35   65.15   3
   3   6  -1  155.09   12.96   2
   3   6  -1  132.83   13.00   1
  -3  -6   1  125.15   13.36   3
  -3  -6   1  151.36   13.10   1
  -2  -6   1 2428.85  195.68   1
   2   6  -1 2171.79  195.66   1
  -2  -6   1 2201.26  201.72   3
   2   6  -1 2187.66  193.50   2
  -1  -6   1   21.14    2.44   1
   1   6  -1   18.38    2.47   1
   1   6  -1   21.72    2.53   2
  -1  -6   1   19.02    2.43   3
   0  -6   1   76.87    7.52   3
   0   6  -1   76.46    7.34   1
   0   6  -1   80.79    7.25   2
   0  -6   1   75.83    7.16   1
   0   6  -1   77.59    7.27   4
  -1   6  -1    0.83    0.60   2
  -1   6  -1    0.69    0.54   4
   1  -6   1    0.55    0.50   3
  -1   6  -1    1.64    0.71   1
   2  -6   1  377.11   32.75   3
  -2   6  -1  342.11   31.75   1
  -2   6  -1  378.08   31.48   4
  -2   6  -1  344.70   31.39   2
   3  -6   1   30.99    3.24   3
  -3   6  -1   31.65    3.26   1
  -3   6  -1   28.58    3.17   2
  -3   6  -1   31.87    3.49   4
  -4   6  -1  420.51   36.40   4
   4  -6   1  383.39   37.62   3
  -4   6  -1  424.82   36.18   2
  -4   6  -1  433.92   36.59   1
   5  -6   1   99.90    9.28   3
  -5   6  -1   94.66    8.90   2
   6  -6   1   11.07    1.75   3
  -6   6  -1   11.96    1.69   2
  -7   6  -1    9.49    1.52   2
   7  -6   1    8.92    1.55   3
  -8   6  -1  213.62   19.09   2
  10   5  -1    2.31    1.49   3
 -10  -5   1    1.25    1.58   1
  10   5  -1    1.54    1.69   1
  -9  -5   1    4.52    1.60   3
   9   5  -1    8.34    2.10   3
   9   5  -1    8.53    2.11   1
  -9  -5   1    4.84    1.93   1
  -8  -5   1    2.27    1.16   3
   8   5  -1    0.82    1.16   1
   8   5  -1    2.59    1.30   3
  -8  -5   1    0.91    1.23   1
   7   5  -1  119.00   11.75   1
  -7  -5   1  130.94   12.26   3
   7   5  -1  135.04   12.50   3
   7   5  -1  111.73   11.52   2
   6   5  -1  394.80   37.65   2
  -6  -5   1  439.89   37.77   2
   6   5  -1  404.27   38.14   1
  -6  -5   1  479.64   39.54   3
   5   5  -1  371.23   32.20   2
  -5  -5   1  355.53   32.69   1
   5   5  -1  400.94   32.72   1
  -5  -5   1  320.15   32.18   2
  -5  -5   1  384.67   33.74   3
  -4  -5   1  260.41   21.98   3
   4   5  -1  216.60   21.18   1
  -4  -5   1  220.57   21.23   1
   4   5  -1  234.07   20.98   2
  -4  -5   1  248.67   21.02   2
   3   5  -1  436.11   38.38   2
  -3  -5   1  399.05   38.29   2
   3   5  -1  439.21   38.82   1
  -3  -5   1  469.93   38.88   1
  -3  -5   1  455.22   40.09   3
   2   5  -1  226.73   20.45   1
  -2  -5   1  225.81   20.45   1
   2   5  -1  223.95   20.21   2
  -2  -5   1  239.37   20.17   2
  -2  -5   1  227.91   21.11   3
  -1  -5   1   42.61    4.31   3
   1   5  -1   41.02    4.14   2
   1   5  -1   44.65    4.18   2
  -1  -5   1   41.19    4.13   1
   1   5  -1   37.43    4.16   1
  -1  -5   1   41.38    3.99   2
   0   5  -1  833.48   71.21   2
   0   5  -1  846.37   71.26   2
   0  -5   1  843.89   74.27   3
   0   5  -1  842.32   72.06   1
   0   5  -1  763.25   70.77   4
   0  -5   1  818.76   71.93   1
   1  -5   1  197.38   18.92   3
  -1   5  -1  214.23   18.18   2
   1  -5   1  209.80   18.19   1
  -1   5  -1  200.37   18.37   1
  -1   5  -1  199.67   18.14   4
  -1   5  -1  216.92   18.15   2
  -2   5  -1  158.72   16.17   4
  -2   5  -1  193.02   16.35   1
   2  -5   1  171.96   16.80   3
  -2   5  -1  189.88   16.09   2
  -2   5  -1  201.32   16.17   2
   3  -5   1  506.90   47.65   3
  -3   5  -1  497.81   45.69   2
  -3   5  -1  537.28   45.73   2
  -3   5  -1  533.45   45.75   4
  -3   5  -1  566.15   46.28   1
  -4   5  -1  181.82   14.08   2
  -4   5  -1  145.65   14.29   4
  -4   5  -1  163.51   14.21   1
   4  -5   1  140.80   14.56   3
  -5   5  -1    3.75    0.96   1
  -5   5  -1    4.11    0.90   2
   5  -5   1    4.49    0.95   3
  -6   5  -1  108.05   10.15   2
  -6   5  -1  119.07   10.39   1
   6  -5   1  109.75   10.59   3
   7  -5   1    2.31    0.86   3
  -7   5  -1    2.04    0.84   2
  -8   5  -1    0.44    0.70   2
   8  -5   1    0.11    0.61   3
  -9   5  -1  131.59   11.95   2
   9  -5   1  127.55   12.41   3
  11   4  -1   20.25    3.48   1
  10   4  -1   54.44    6.33   1
  10   4  -1   51.23    6.42   3
 -10  -4   1   61.98    6.50   1
   9   4  -1  114.28   11.26   1
   9   4  -1  108.24   11.67   3
  -9  -4   1  120.36   11.45   1
  -9  -4   1  118.56   11.23   2
  -8  -4   1   98.31   10.72   3
  -8  -4   1  112.54   10.44   2
  -8  -4   1  107.17   10.56   1
   8   4  -1  128.99   11.24   3
   8   4  -1   99.26   10.43   1
   7   4  -1  542.42   49.57   2
  -7  -4   1  586.98   49.77   2
  -7  -4   1  637.37   50.45   1
   7   4  -1  599.11   50.25   1
  -7  -4   1  479.05   51.68   3
   6   4  -1  121.11   13.25   2
  -6  -4   1  148.65   14.05   3
  -6  -4   1  140.52   13.48   2
   6   4  -1  166.13   13.67   1
  -6  -4   1  161.17   13.78   1
   5   4  -1  984.28   79.45   2
  -5  -4   1  863.33   80.38   1
  -5  -4   1  850.18   82.83   3
   5   4  -1  966.50   80.40   1
  -5  -4   1  923.37   79.53   2
  -4  -4   1  330.23   27.25   1
  -4  -4   1  278.38   27.92   3
   4   4  -1  308.46   26.81   2
   4   4  -1  329.07   27.18   1
  -4  -4   1  280.62   26.81   2
  -3  -4   1   83.31    8.38   2
   3   4  -1   97.33    8.47   2
  -3  -4   1  100.74    8.87   3
   3   4  -1   88.66    8.54   1
  -3  -4   1   87.32    8.55   1
  -2  -4   1  705.86   60.90   1
   2   4  -1  668.14   60.89   1
   2   4  -1  733.00   60.25   2
  -2  -4   1  697.16   62.81   3
  -2  -4   1  674.54   60.16   2
   1   4  -1 1094.15  100.37   1
  -1  -4   1 1120.17  100.35   1
   1   4  -1 1132.02   99.27   2
   1   4  -1 1234.35   99.28   2
  -1  -4   1 1177.73  103.51   3
   0   4  -1   31.80    3.30   4
   0  -4   1   33.47    3.46   3
   0  -4   1   32.87    3.18   2
   0  -4   1   35.21    3.35   1
   0   4  -1   37.02    3.47   1
   0   4  -1   33.10    3.33   2
   0   4  -1   35.60    3.33   2
  -1   4  -1 2593.38  224.15   4
  -1   4  -1 2686.79  226.01   2
   1  -4   1 2778.78  228.41   1
   1  -4   1 2469.36  235.59   3
  -1   4  -1 2679.43  228.67   1
  -1   4  -1 2549.37  225.68   2
  -2   4  -1  111.03    9.84   2
   2  -4   1  110.10   10.30   3
  -2   4  -1  112.29    9.87   2
  -2   4  -1  108.98    9.99   1
   2  -4   1  112.05    9.82   1
  -2   4  -1  112.63   10.01   4
  -3   4  -1    2.93    0.72   2
  -3   4  -1    4.05    0.70   2
   3  -4   1    2.55    0.71   3
  -3   4  -1    4.10    0.83   1
  -3   4  -1    4.02    0.96   4
   3  -4   1    3.54    0.92   4
  -4   4  -1  104.69   10.29   2
   4  -4   1  117.12   10.73   4
  -4   4  -1  125.44   10.52   1
   4  -4   1  117.90   10.78   3
   5  -4   1 1090.50   97.30   3
  -5   4  -1 1134.09   94.44   1
  -5   4  -1 1023.95   93.33   2
  -6   4  -1  186.43   15.45   2
   6  -4   1  174.22   16.07   3
  -6   4  -1  159.77   15.57   1
   7  -4   1  205.58   20.78   3
  -7   4  -1  215.16   20.20   1
  -7   4  -1  258.28   20.09   2
  -8   4  -1   65.99    5.93   2
  -8   4  -1   53.86    5.88   1
   8  -4   1   58.36    6.05   3
   9  -4   1    0.29    0.76   3
  -9   4  -1    0.28    0.80   2
  10  -4   1   80.65    8.22   3
 -11  -3   1   12.66    2.66   2
 -11  -3   1    9.42    2.40   1
 -10  -3   1    2.48    1.47   1
  10   3  -1    1.90    1.36   1
 -10  -3   1    5.83    1.62   2
  10   3  -1    2.68    1.35   3
   9   3  -1    7.91    1.86   3
   9   3  -1    8.92    1.94   1
  -9  -3   1    5.58    1.67   2
  -9  -3   1    6.15    1.78   1
   8   3  -1  366.38   31.05   3
   8   3  -1  298.43   29.70   1
  -8  -3   1  321.35   30.71   3
  -8  -3   1  336.17   29.55   2
  -8  -3   1  342.93   29.93   1
  -7  -3   1  327.25   31.38   3
   7   3  -1  359.46   30.47   1
  -7  -3   1  336.49   30.21   2
  -6  -3   1  450.21   44.48   3
   6   3  -1  492.56   43.15   1
  -6  -3   1  477.67   43.29   1
  -6  -3   1  538.25   42.90   2
  -5  -3   1  119.24   11.03   2
  -5  -3   1  120.56   11.47   3
  -5  -3   1  125.55   11.22   1
   5   3  -1  137.90   11.20   1
   5   3  -1   99.48   10.84   2
  -4  -3   1   11.83    1.82   1
  -4  -3   1   14.10    1.78   3
  -4  -3   1   11.72    1.72   2
   4   3  -1   13.05    1.73   2
   4   3  -1   13.80    1.82   1
   3   3  -1 5359.34  437.46   1
  -3  -3   1 4948.20  451.21   3
  -3  -3   1 5511.84  437.85   1
   3   3  -1 4304.50  432.73   2
   2   3  -1  458.68   39.55   1
  -2  -3   1  445.24   39.08   2
   2   3  -1  472.87   39.12   2
   2   3  -1  394.79   39.03   2
  -2  -3   1  500.39   40.84   3
  -2  -3   1  432.89   39.54   1
   1   3  -1   84.86    7.21   1
  -1  -3   1   79.26    7.38   3
   1   3  -1   73.18    7.03   2
  -1  -3   1   86.26    7.07   2
  -1  -3   1   63.95    7.08   1
   1   3  -1   81.03    7.07   2
   0   3  -1  449.70   38.58   1
   0  -3   1  441.95   39.76   3
   0   3  -1  430.67   38.10   2
   0   3  -1  438.18   37.87   4
   0  -3   1  441.19   38.53   1
   0  -3   1  444.56   38.06   2
   0   3  -1  438.26   38.12   2
   1  -3   1  697.73   60.01   3
  -1   3  -1  706.94   57.55   2
  -1   3  -1  687.15   58.20   1
   1  -3   1  607.57   57.46   2
   1  -3   1  675.46   58.14   1
  -1   3  -1  686.37   57.54   2
  -1   3  -1  607.72   57.18   4
  -2   3  -1  489.55   38.74   2
  -2   3  -1  474.09   38.72   2
  -2   3  -1  439.36   38.61   4
   2  -3   1  393.19   38.59   4
   2  -3   1  449.06   39.08   1
   2  -3   1  431.81   40.36   3
  -2   3  -1  456.62   39.16   1
  -3   3  -1  105.32    9.34   2
   3  -3   1  103.10    9.73   3
   3  -3   1  101.59    9.33   1
  -3   3  -1  104.43    9.49   1
   3  -3   1  113.34    9.57   4
   4  -3   1  277.45   25.66   1
  -4   3  -1  332.92   25.56   2
  -4   3  -1  283.70   25.52   2
   4  -3   1  296.43   25.64   4
  -4   3  -1  274.68   25.78   1
   4  -3   1  294.87   26.61   3
  -5   3  -1   12.56    1.64   2
   5  -3   1   13.22    1.81   4
   5  -3   1   11.16    1.54   3
  -5   3  -1   12.30    1.67   1
  -5   3  -1   14.61    1.68   2
  -6   3  -1   33.68    3.28   2
   6  -3   1   32.08    3.37   3
  -6   3  -1   27.40    3.31   1
  -7   3  -1    8.73    1.58   2
  -7   3  -1   11.05    1.75   1
   7  -3   1   14.20    1.77   3
  -8   3  -1   25.95    3.49   1
  -8   3  -1   31.23    3.43   2
   8  -3   1   32.25    3.51   3
  -9   3  -1  196.84   18.71   2
   9  -3   1  219.12   19.51   3
  -9   3  -1  205.46   18.90   1
  10  -3   1   10.24    2.06   3
 -10   3  -1   14.09    2.30   2
  11   2  -1   41.37    5.40   3
 -11  -2   1   49.31    5.49   2
 -11  -2   1   42.68    5.34   1
  10   2  -1   71.87    7.01   1
 -10  -2   1   65.00    7.03   2
  10   2  -1   59.82    7.18   3
 -10  -2   1   71.06    7.20   1
  -9  -2   1   63.29    6.33   2
  -9  -2   1   60.14    6.46   1
   9   2  -1   54.29    6.19   1
   9   2  -1   65.66    6.63   3
   8   2  -1  104.81    9.93   1
  -8  -2   1  103.89    9.99   1
  -8  -2   1  101.92    9.86   2
  -7  -2   1  319.19   27.42   2
   7   2  -1  349.70   27.62   1
  -7  -2   1  303.62   28.38   3
  -7  -2   1  264.35   27.54   1
   6   2  -1   45.33    4.66   2
  -6  -2   1   50.43    5.01   1
  -6  -2   1   52.13    4.93   2
  -6  -2   1   44.47    4.90   3
   6   2  -1   47.81    4.80   1
  -5  -2   1  288.76   23.42   2
   5   2  -1  234.50   23.20   2
   5   2  -1  274.92   23.56   1
  -4  -2   1 1712.51  145.73   1
   4   2  -1 1873.36  144.06   2
  -4  -2   1 1435.27  150.12   3
  -3  -2   1 2017.70  196.38   3
  -3  -2   1 2364.06  190.60   1
   2   2  -1 9143.62  826.39   1
  -2  -2   1 9717.05  817.37   2
   2   2  -1 9998.79  852.02   3
  -2  -2   1 9170.96  826.42   1
  -1  -2   1   28.66    2.84   3
   1   2  -1   29.41    2.72   2
   1   2  -1   25.56    2.75   1
   1   2  -1   26.11    2.71   2
   1   2  -1   26.61    2.82   3
  -1  -2   1   27.58    2.72   2
   0   2  -1  220.21   20.08   3
   0   2  -1  221.53   19.11   4
   0  -2   1  221.36   20.10   3
   0   2  -1  231.01   19.26   2
   0   2  -1  215.81   19.25   2
   0   2  -1  220.93   19.48   1
  -1   2  -1   56.57    4.82   2
   1  -2   1   50.78    5.00   3
   1  -2   1   59.86    4.86   4
   1  -2   1   55.97    4.75   2
  -1   2  -1   46.89    4.77   2
  -1   2  -1   56.50    4.88   1
   1  -2   1   49.39    4.82   1
  -1   2  -1   54.03    4.99   3
  -1   2  -1   53.09    4.83   4
  -2   2  -1  638.78   50.79   2
   2  -2   1  563.47   50.72   2
   2  -2   1  578.22   51.31   1
  -2   2  -1  566.36   50.76   2
   2  -2   1  581.77   52.93   3
   2  -2   1  551.49   50.53   4
  -2   2  -1  640.23   51.39   1
  -3   2  -1    6.63    1.00   2
   3  -2   1    5.95    0.93   3
  -3   2  -1    3.57    0.84   2
  -3   2  -1    2.94    0.88   1
   3  -2   1    6.09    1.06   4
   3  -2   1    6.01    0.87   2
   3  -2   1    5.99    0.90   1
  -4   2  -1   39.76    4.13   1
  -4   2  -1   45.04    4.07   2
  -4   2  -1   40.46    4.05   2
   4  -2   1   45.74    4.26   3
   5  -2   1    7.87    1.21   3
   5  -2   1    6.43    1.17   4
  -5   2  -1    6.24    1.16   1
  -5   2  -1    6.19    1.05   2
   5  -2   1    6.81    1.07   1
  -5   2  -1    7.27    1.16   2
  -6   2  -1   10.44    1.63   1
   6  -2   1    9.68    1.45   1
   6  -2   1   11.63    1.61   3
  -6   2  -1   11.42    1.61   2
  -7   2  -1    4.23    1.15   1
  -7   2  -1    2.66    0.94   2
   7  -2   1    3.33    1.01   3
   8  -2   1  677.07   61.93   3
  -8   2  -1  729.24   60.13   1
  -8   2  -1  642.38   59.39   2
   9  -2   1   90.36   10.30   3
  -9   2  -1  108.05   10.21   1
  -9   2  -1  120.25   10.16   2
 -10   2  -1  165.15   16.81   1
 -10   2  -1  191.81   16.78   2
  10  -2   1  188.02   17.40   3
 -11   2  -1   20.60    3.29   1
 -11  -1   1  126.33   13.44   2
 -11  -1   1  129.74   13.55   1
  11   1  -1  168.29   14.25   3
  10   1  -1   12.80    2.47   3
 -10  -1   1   15.22    2.53   1
 -10  -1   1   12.45    2.32   2
   9   1  -1   17.44    2.57   3
   9   1  -1   16.98    2.46   1
  -9  -1   1   16.73    2.68   1
  -9  -1   1   17.39    2.50   2
  -8  -1   1   17.49    2.42   1
   8   1  -1   13.72    2.29   3
   8   1  -1   17.00    2.25   1
  -8  -1   1   13.76    2.22   2
   7   1  -1   40.27    4.04   4
  -7  -1   1   30.96    4.11   1
   7   1  -1   45.26    4.18   1
  -6  -1   1  960.50   84.89   3
   6   1  -1  939.99   82.31   1
  -6  -1   1  888.57   81.51   2
   6   1  -1  980.70   81.34   2
  -5  -1   1  659.37   55.91   2
   5   1  -1  608.31   56.38   1
  -5  -1   1  666.82   58.20   3
   4   1  -1  136.50   13.99   2
  -4  -1   1  139.10   14.11   2
   4   1  -1  182.38   14.79   3
  -4  -1   1  157.36   14.69   3
  -4  -1   1  181.97   14.10   2
   4   1  -1  159.73   14.23   1
  -3  -1   1 3531.50  295.00   2
  -3  -1   1 3768.98  306.97   3
   3   1  -1 3060.76  294.56   2
  -3  -1   1 3333.04  297.95   1
  -2  -1   1  736.54   55.04   2
   2   1  -1  623.02   54.94   2
   2   1  -1  631.51   57.30   3
  -2  -1   1  607.92   54.92   2
   2   1  -1  590.53   55.55   1
   1   1  -1  551.54   47.20   2
   1   1  -1  494.74   47.17   2
   1   1  -1  549.35   49.21   3
  -1  -1   1  541.21   49.22   3
  -1  -1   1  600.00   47.23   2
   0  -1   1 2277.26  222.69   3
   0   1  -1 2253.87  215.98   1
   0  -1   1 2746.30  213.88   2
   0  -1   1 2761.92  213.72   2
   0   1  -1 2553.38  213.71   2
   0  -1   1 2488.01  212.53   4
   0  -1   1 2206.31  215.88   1
   0   1  -1 2525.19  213.78   2
   1  -1   1 1222.16  104.09   1
  -1   1  -1 1247.94  103.94   1
   1  -1   1 1159.90  107.23   3
  -1   1  -1 1305.40  102.96   2
  -1   1  -1 1055.36  103.80   1
  -1   1  -1 1295.34  102.96   2
   1  -1   1 1070.39  102.17   4
   2  -1   1  878.89   78.08   1
  -2   1  -1  956.16   77.26   2
  -2   1  -1  903.28   78.12   1
  -2   1  -1  850.67   77.24   2
   3  -1   1  476.28   43.46   1
  -3   1  -1  524.39   43.03   2
   3  -1   1  463.14   42.97   2
  -3   1  -1  568.97   43.09   2
  -3   1  -1  456.94   43.49   1
  -4   1  -1  238.06   20.17   1
   4  -1   1  214.38   20.08   1
   4  -1   1  213.17   20.73   3
   4  -1   1  253.12   19.98   4
   4  -1   1  227.99   19.86   2
  -4   1  -1  221.91   19.87   2
   5  -1   1   19.29    2.22   4
  -5   1  -1   16.70    2.15   2
  -5   1  -1   19.93    2.30   1
   5  -1   1   19.04    2.13   1
   5  -1   1   21.17    2.22   3
   5  -1   1   19.66    2.09   2
  -5   1  -1   16.83    2.13   2
  -6   1  -1  400.03   31.53   1
  -6   1  -1  366.87   31.17   2
   6  -1   1  296.50   32.30   3
   6  -1   1  362.03   31.36   1
  -7   1  -1   99.39    8.23   2
   7  -1   1   70.14    8.25   3
   7  -1   1   92.54    8.06   1
  -7   1  -1   82.22    8.17   1
   8  -1   1   24.81    3.24   3
  -8   1  -1   27.67    3.45   1
  -8   1  -1   28.99    3.34   2
   9  -1   1  333.78   34.72   3
  -9   1  -1  379.31   33.81   1
  -9   1  -1  424.80   33.63   2
 -10   1  -1    3.32    1.43   2
  10  -1   1    3.15    1.40   3
 -10   1  -1    5.83    1.85   1
 -11   1  -1   27.84    4.04   1
 -12   0   1   37.51    4.88   1
 -11   0   1   38.09    4.65   1
 -11   0   1   38.64    4.65   2
  11   0  -1   33.85    4.46   3
  10   0  -1   95.48   10.32   3
 -10   0   1  112.57   10.10   2
   9   0  -1    9.34    1.78   3
  -9   0   1    8.03    1.63   2
  -9   0   1    9.93    1.84   1
  -8   0   1  557.07   52.73   1
   8   0  -1  640.53   52.63   1
   7   0  -1  749.79   62.69   1
   7   0  -1  764.09   64.86   3
   7   0  -1  717.35   61.79   4
  -7   0   1  635.75   62.78   1
  -6   0   1  424.23   45.52   1
   6   0  -1  507.16   45.46   1
   6   0  -1  588.77   44.90   4
  -6   0   1  498.36   45.10   2
  -6   0   1  567.83   45.03   2
   6   0  -1  531.01   44.93   2
   5   0  -1 1979.81  165.66   4
  -5   0   1 2056.29  173.84   3
  -5   0   1 1952.10  166.85   2
   5   0  -1 2045.10  168.62   1
  -5   0   1 1662.18  168.62   1
   4   0  -1  435.11   38.73   3
  -4   0   1  391.00   38.65   3
  -4   0   1  450.96   37.08   2
   4   0  -1  438.41   36.92   4
  -3   0   1    9.09    1.18   2
  -3   0   1   10.28    1.32   2
  -3   0   1   12.63    1.40   1
   3   0  -1    9.17    1.21   1
  -3   0   1    8.68    1.24   3
   3   0  -1   10.09    1.23   4
  -2   0   1  461.51   40.54   2
  -2   0   1  479.63   41.05   1
  -2   0   1  503.19   42.32   3
   2   0  -1  435.78   41.00   1
   1   0  -1  999.19   80.73   2
  -1   0   1  990.85   81.56   1
   1   0  -1  894.77   81.60   1
  -1   0   1  843.29   80.66   2
   1   0  -1  946.89   84.05   3
   0   0   1  944.14   83.94   3
   0   0  -1  978.21   80.52   2
   0   0   1  788.27   80.28   2
   0   0  -1  879.90   81.32   1
   0   0   1  996.44   80.49   2
   0   0  -1 1032.36   81.41   1
   0   0  -1 1003.57   83.76   3
   0   0   1  822.63   81.26   1
  -1   0  -1  595.69   62.32   3
   1   0   1  734.06   59.94   2
  -1   0  -1  770.88   59.87   2
   1   0   1  758.77   60.51   1
   1   0   1  668.71   59.83   2
  -1   0  -1  639.98   60.49   1
  -2   0  -1 1215.40  121.68   1
  -2   0  -1 1450.59  120.53   2
  -2   0  -1 1519.75  125.48   3
   2   0   1 1462.11  125.50   3
   2   0   1 1329.40  120.54   2
   2   0   1 1419.65  121.69   1
   3   0   1   -0.05    0.62   3
  -3   0  -1   -0.16    0.62   1
   3   0   1    1.80    0.72   3
   3   0   1    0.31    0.54   2
   3   0   1    0.09    0.56   1
  -3   0  -1    0.46    0.67   2
   4   0   1    1.80    0.66   3
   4   0   1    2.37    0.63   2
  -4   0  -1    2.22    0.60   2
  -4   0  -1    2.25    0.74   2
   4   0   1    2.48    0.63   1
  -4   0  -1    2.51    0.76   1
   5   0   1 1938.00  168.32   1
  -5   0  -1 1931.84  166.61   2
   6   0   1  237.14   23.72   3
  -6   0  -1  286.61   23.13   1
   6   0   1  239.84   22.89   1
  -6   0  -1  271.08   22.86   2
  -7   0  -1   17.08    2.35   1
   7   0   1   19.63    2.29   3
   7   0   1   12.87    2.03   1
  -7   0  -1   13.56    2.07   2
  -8   0  -1   18.81    2.52   2
  -8   0  -1   14.23    2.37   1
   8   0   1   17.13    2.38   3
   8   0   1   16.63    2.42   1
  -9   0  -1    1.88    1.18   2
  -9   0  -1    2.28    1.29   1
   9   0   1    1.88    1.04   3
 -10   0  -1  146.30   14.11   2
 -10   0  -1  152.83   14.28   1
 -11   0  -1  123.41   12.30   1
 -12   1   1    0.50    1.57   1
 -11   1   1  150.57   13.55   2
  11  -1  -1  161.30   13.99   3
 -11   1   1  118.45   13.42   1
  10  -1  -1    9.84    2.09   3
 -10   1   1   15.88    2.38   2
 -10   1   1   17.26    2.46   1
  -9   1   1   17.35    2.66   1
  -9   1   1   20.39    2.73   2
   9  -1  -1   22.92    2.75   3
  -8   1   1   16.59    2.22   2
  -8   1   1   16.39    2.30   1
   8  -1  -1   15.87    2.20   3
  -7   1   1   49.09    4.46   2
   7  -1  -1   40.93    4.44   3
   7  -1  -1   40.83    4.17   1
   6  -1  -1 1020.63   89.09   1
   6  -1  -1  920.85   91.98   3
  -6   1   1 1034.24   89.24   1
  -6   1   1 1037.90   88.31   2
   6  -1  -1 1096.40   87.85   4
  -6   1   1 1030.41   88.19   2
   5  -1  -1  550.64   48.35   4
   5  -1  -1  550.48   48.95   1
   5  -1  -1  579.65   50.62   3
   5  -1  -1  540.53   48.37   2
  -5   1   1  583.54   48.56   2
   4  -1  -1  128.28   11.89   1
   4  -1  -1  132.46   11.94   4
   4  -1  -1  136.85   11.73   2
   4  -1  -1  142.72   12.37   3
  -4   1   1  130.25   11.86   2
  -3   1   1 2479.07  235.69   1
  -3   1   1 2757.45  233.42   2
   3  -1  -1 2908.19  236.21   1
  -2   1   1  467.35   38.73   4
  -2   1   1  440.17   39.22   2
  -2   1   1  434.26   39.63   2
  -2   1   1  461.23   39.39   1
   1  -1  -1  469.72   44.90   3
  -1   1   1  523.96   43.82   1
   0  -1  -1 2226.10  198.65   1
   0  -1  -1 2226.03  198.87   1
   0  -1  -1 2102.87  204.84   3
   0  -1  -1 2395.01  196.64   2
   0   1   1 2423.82  198.90   1
   0   1   1 2420.17  196.73   2
   0   1   1 2466.40  205.01   3
   0   1   1 2196.39  205.05   3
   0   1   1 2048.02  198.70   1
  -1  -1  -1 1147.08  104.98   2
  -1  -1  -1 1079.38  106.11   1
  -1  -1  -1 1346.43  105.10   2
  -1  -1  -1 1311.75  109.45   3
   1   1   1 1215.71  109.39   3
   1   1   1 1171.01  104.97   2
   1   1   1 1272.45  105.17   2
   2   1   1  951.61   75.43   3
   2   1   1  840.30   75.36   3
   2   1   1  813.45   73.09   1
   2   1   1  727.17   72.23   2
  -2  -1  -1  865.58   72.34   2
   3   1   1  462.43   39.26   2
   3   1   1  432.95   40.99   3
  -3  -1  -1  514.17   39.40   2
  -3  -1  -1  381.87   39.70   1
   3   1   1  478.27   39.76   1
   4   1   1  238.13   20.65   3
   4   1   1  217.19   19.65   2
   4   1   1  220.52   19.92   1
  -4  -1  -1  223.61   19.78   2
  -5  -1  -1   19.17    2.25   2
   5   1   1   19.79    2.16   2
   5   1   1   14.20    2.05   1
   5   1   1   20.30    2.32   3
   6   1   1  376.70   34.10   3
   6   1   1  368.69   32.91   1
  -6  -1  -1  342.86   32.98   1
  -6  -1  -1  380.83   32.71   2
   6   1   1  392.14   32.54   2
  -7  -1  -1  113.92    9.35   2
   7   1   1   81.11    9.48   3
  -7  -1  -1  104.74    9.40   1
   7   1   1   93.25    9.17   1
   8   1   1   29.30    3.65   3
  -8  -1  -1   33.84    3.70   2
   8   1   1   26.02    3.53   1
  -8  -1  -1   31.42    3.76   1
  -9  -1  -1  324.77   32.64   2
  -9  -1  -1  387.73   33.11   1
   9   1   1  389.78   32.90   1
 -10  -1  -1    2.67    1.65   1
 -10  -1  -1    5.50    1.84   2
  10   1   1    6.52    1.67   3
 -11  -1  -1   24.89    3.53   1
 -11  -1  -1   16.23    3.18   2
 -11   2   1   50.71    5.39   2
  11  -2  -1   47.03    5.38   3
 -10   2   1   56.32    6.76   2
  10  -2  -1   74.96    7.08   3
 -10   2   1   75.00    7.00   1
   9  -2  -1   58.58    5.70   3
  -9   2   1   58.09    5.69   1
  -9   2   1   48.76    5.55   2
  -8   2   1   79.26    8.21   1
   8  -2  -1   96.69    8.49   3
  -8   2   1   85.66    8.16   2
  -7   2   1  250.97   26.21   2
  -7   2   1  332.77   26.57   1
   7  -2  -1  316.61   27.37   3
   6  -2  -1   52.52    4.75   3
  -6   2   1   53.14    4.60   1
   6  -2  -1   39.89    4.64   4
   6  -2  -1   48.58    4.36   1
  -6   2   1   43.68    4.41   2
  -6   2   1   45.27    4.54   2
   5  -2  -1  260.45   22.40   3
   5  -2  -1  258.41   21.62   1
  -5   2   1  229.59   21.42   2
  -5   2   1  256.87   21.74   1
  -5   2   1  228.97   21.48   2
  -4   2   1 1510.53  138.96   1
   4  -2  -1 1603.82  143.29   3
  -4   2   1 1521.78  137.47   2
  -4   2   1 1838.82  136.77   4
  -4   2   1 1523.58  137.41   2
   3  -2  -1 2189.68  205.73   4
  -3   2   1 2632.22  209.82   1
  -1   2   1   18.18    2.09   3
  -1   2   1   23.14    2.07   1
  -1   2   1   26.30    2.08   1
   1  -2  -1   20.86    2.11   3
   0   2   1  221.24   17.52   1
   0   2   1  202.84   18.04   3
   0  -2  -1  197.43   17.29   2
   0   2   1  199.79   17.50   1
   0  -2  -1  208.83   18.06   3
   0   2   1  201.09   17.31   2
   0   2   1  197.52   17.30   2
   0  -2  -1  181.40   17.49   1
   0   2   1  186.92   18.04   3
  -1  -2  -1   45.91    4.41   2
   1   2   1   50.09    4.46   1
   1   2   1   51.58    4.60   3
   1   2   1   48.46    4.40   2
   1   2   1   48.76    4.59   3
  -1  -2  -1   43.11    4.56   3
   1   2   1   50.82    4.43   2
   2   2   1  535.07   48.09   2
   2   2   1  551.35   50.18   3
  -2  -2  -1  539.83   50.16   3
  -2  -2  -1  601.39   48.70   1
  -3  -2  -1    6.37    1.12   2
   3   2   1    7.02    1.12   3
  -3  -2  -1    5.07    1.09   1
   3   2   1    5.22    1.07   1
  -3  -2  -1    5.91    1.12   3
   3   2   1    5.30    1.01   2
   4   2   1   54.27    4.85   3
  -4  -2  -1   45.35    4.60   2
   4   2   1   41.40    4.46   2
   4   2   1   47.77    4.62   1
  -5  -2  -1    9.30    1.42   1
   5   2   1    5.21    1.05   2
  -5  -2  -1    4.81    1.16   2
   5   2   1    8.77    1.38   3
   5   2   1    5.55    1.20   1
  -6  -2  -1    6.35    1.51   2
  -6  -2  -1   14.44    1.94   1
   6   2   1    8.36    1.43   2
   6   2   1   10.35    1.65   1
   6   2   1   12.70    1.77   3
   7   2   1    2.16    1.02   3
   7   2   1    1.55    0.97   1
  -7  -2  -1    2.98    1.16   2
  -7  -2  -1    5.32    1.40   1
  -8  -2  -1  955.47   81.12   2
   8   2   1  782.84   81.65   1
  -8  -2  -1 1066.23   82.11   1
  -9  -2  -1   82.39    9.41   1
  -9  -2  -1   93.52    9.44   2
   9   2   1  100.38    9.39   1
   9   2   1  103.38    9.87   3
  10   2   1  141.08   15.33   3
 -10  -2  -1  164.90   15.13   1
 -10  -2  -1  166.59   15.07   2
 -11  -2  -1   15.57    2.95   2
  11  -3  -1   11.95    2.20   3
 -10   3   1    2.29    1.10   2
  10  -3  -1    2.17    1.05   3
  -9   3   1    8.20    1.59   1
   9  -3  -1    8.02    1.49   3
  -9   3   1    5.88    1.40   2
  -8   3   1  294.83   26.72   2
  -8   3   1  316.95   26.98   1
   8  -3  -1  300.56   27.74   3
  -7   3   1  315.27   25.31   2
   7  -3  -1  257.37   26.23   3
  -7   3   1  295.44   25.53   1
   6  -3  -1  363.36   35.47   3
  -6   3   1  418.49   34.04   2
  -6   3   1  384.25   34.45   1
  -6   3   1  406.35   34.13   2
  -5   3   1   95.27    9.70   4
  -5   3   1  106.21    9.34   2
   5  -3  -1  105.15    9.83   4
  -5   3   1  116.11    9.51   1
   5  -3  -1   99.58    9.73   3
  -5   3   1  110.46    9.42   2
  -4   3   1   17.48    1.47   2
  -4   3   1   16.15    1.46   1
  -4   3   1   14.10    1.48   1
   4  -3  -1   15.99    1.52   3
  -4   3   1   13.94    1.75   4
   4  -3  -1   11.98    1.44   3
  -4   3   1   12.22    1.35   2
  -3   3   1 3989.75  312.81   4
   3  -3  -1 3311.76  329.63   3
  -2   3   1  419.75   36.05   4
   2  -3  -1  408.43   37.68   3
  -2   3   1  422.63   36.46   1
  -1   3   1   60.50    6.30   2
  -1   3   1   77.80    6.60   3
   1  -3  -1   63.91    6.60   3
  -1   3   1   66.32    6.58   3
  -1   3   1   80.69    6.45   1
  -1   3   1   82.40    6.37   2
  -1   3   1   72.90    6.43   1
   0   3   1  387.16   36.43   3
   0  -3  -1  354.61   35.31   1
   0  -3  -1  428.64   36.48   3
   0  -3  -1  445.35   34.94   2
   0   3   1  439.24   35.39   1
   0   3   1  381.66   34.94   2
   0   3   1  396.19   34.96   2
   1   3   1  599.76   56.18   2
   1   3   1  629.88   56.17   2
  -1  -3  -1  658.12   58.59   3
  -1  -3  -1  729.35   56.84   1
   1   3   1  636.81   56.81   1
  -2  -3  -1  361.43   34.72   2
   2   3   1  434.49   34.78   2
   2   3   1  396.20   35.13   1
  -2  -3  -1  410.44   35.17   1
  -3  -3  -1  106.94    9.89   3
   3   3   1  104.50    9.44   2
  -3  -3  -1   95.93    9.47   2
   3   3   1  107.60    9.93   3
  -3  -3  -1  100.79    9.59   1
   3   3   1  110.88    9.59   1
  -4  -3  -1  322.08   27.73   2
  -4  -3  -1  328.35   28.86   3
   4   3   1  296.12   27.58   2
   4   3   1  316.46   28.88   3
   5   3   1   13.16    1.87   1
  -5  -3  -1   14.28    1.93   2
   5   3   1    9.75    1.78   3
  -5  -3  -1   12.53    1.87   1
   5   3   1   11.44    1.69   2
   6   3   1   35.93    3.75   3
  -6  -3  -1   26.75    3.46   2
  -6  -3  -1   28.25    3.59   1
   6   3   1   36.05    3.69   1
   6   3   1   28.44    3.31   2
   7   3   1    8.24    1.89   3
   7   3   1   11.70    1.99   1
  -7  -3  -1   10.03    1.85   2
  -7  -3  -1   14.50    2.26   1
  -8  -3  -1   28.71    3.81   2
   8   3   1   39.52    4.22   3
   8   3   1   26.90    3.70   1
  -8  -3  -1   32.48    4.05   1
  -9  -3  -1  223.67   19.04   1
  -9  -3  -1  177.65   18.59   2
   9   3   1  224.72   18.83   1
   9   3   1  183.55   19.40   3
  10   3   1   18.11    3.15   1
  10   3   1   24.13    3.39   3
 -10  -3  -1   18.56    3.34   1
 -10   4   1   54.17    5.47   2
  10  -4  -1   52.36    5.51   3
  -9   4   1  104.60    9.66   2
   9  -4  -1  102.69    9.90   3
  -8   4   1   81.22    8.20   2
   8  -4  -1   96.96    8.53   3
  -7   4   1  473.20   43.07   1
   7  -4  -1  498.57   44.39   3
  -7   4   1  503.66   42.67   2
  -6   4   1  122.80   11.07   2
  -6   4   1  135.22   11.25   1
   6  -4  -1  119.44   11.52   3
  -6   4   1  125.06   11.12   2
   5  -4  -1  843.25   77.38   3
  -5   4   1  735.08   75.01   1
  -5   4   1  897.21   74.22   2
  -5   4   1  919.83   74.31   4
  -5   4   1  920.46   74.25   2
  -4   4   1  248.60   23.76   4
  -4   4   1  292.81   23.70   1
   4  -4  -1  253.42   24.43   3
  -4   4   1  316.57   23.76   1
  -4   4   1  241.99   23.44   2
  -3   4   1   73.99    6.88   4
  -3   4   1   72.55    6.51   1
  -2   4   1  535.35   53.66   4
  -2   4   1  656.33   54.31   1
  -2   4   1  655.10   54.34   1
  -2   4   1  694.12   53.78   2
  -2   4   1  569.92   53.72   2
  -1   4   1  920.51   87.59   1
  -1   4   1  981.93   86.62   2
   1  -4  -1 1090.61   87.66   1
   1  -4  -1  910.22   90.29   3
  -1   4   1 1054.36   86.68   2
  -1   4   1 1082.62   90.31   3
   0   4   1   33.64    3.05   2
   0  -4  -1   31.94    3.05   1
   0   4   1   29.42    3.09   3
   0  -4  -1   30.62    3.13   3
   0  -4  -1   32.16    2.91   2
   0   4   1   31.00    3.11   1
   0   4   1   29.38    3.02   2
   1   4   1 2617.04  228.28   2
   1   4   1 2747.66  228.64   2
  -1  -4  -1 2817.27  237.99   3
  -1  -4  -1 2343.41  230.75   1
   1   4   1 2755.85  230.84   1
   2   4   1  110.37    9.43   2
  -2  -4  -1  103.17    9.53   1
  -2  -4  -1  104.31    9.42   2
   2   4   1  105.46    9.57   1
  -2  -4  -1   97.78    9.81   3
  -3  -4  -1    3.50    0.92   2
   3   4   1    2.11    0.79   1
  -3  -4  -1    4.37    0.98   3
   3   4   1    3.27    0.94   2
  -3  -4  -1    2.87    0.89   1
   3   4   1    1.56    0.78   3
  -4  -4  -1   80.59    8.91   2
   4   4   1  112.23    9.04   2
   4   4   1   88.66    9.05   1
  -4  -4  -1   98.46    9.14   1
   4   4   1  110.44    9.51   3
  -4  -4  -1   93.67    9.35   3
  -5  -4  -1 1022.89   96.84   3
  -5  -4  -1 1174.33   94.03   1
  -5  -4  -1 1113.61   92.99   2
   5   4   1  986.89   92.79   2
   6   4   1  180.87   16.71   1
   6   4   1  186.52   16.45   2
   6   4   1  195.59   17.36   3
  -6  -4  -1  200.78   16.62   2
  -6  -4  -1  147.93   16.61   1
   7   4   1  202.72   21.00   3
  -7  -4  -1  234.72   20.23   2
   7   4   1  229.87   20.42   1
   8   4   1   61.33    6.60   1
  -8  -4  -1   62.49    6.77   1
   8   4   1   63.96    7.01   3
   9   4   1   -0.70    0.95   3
  -9  -4  -1   -0.17    1.23   1
   9   4   1   -0.52    1.07   1
  10   4   1   90.83    9.38   1
 -10  -4  -1   90.63    9.59   1
 -10   5   1    1.81    0.97   2
  -9   5   1    5.98    1.26   2
   8  -5  -1    2.51    0.70   3
  -8   5   1    1.35    0.69   2
  -7   5   1  112.49    9.76   2
   7  -5  -1  105.05   10.04   3
   6  -5  -1  355.10   31.91   3
  -6   5   1  352.48   30.67   2
  -5   5   1  319.15   30.16   2
  -5   5   1  373.07   30.23   2
   5  -5  -1  329.62   31.44   3
  -5   5   1  383.33   30.80   4
   4  -5  -1  216.87   19.59   3
  -4   5   1  247.41   18.83   2
  -4   5   1  206.36   18.77   2
  -4   5   1  193.86   19.25   4
  -4   5   1  214.88   19.02   1
  -3   5   1  379.45   32.20   2
  -3   5   1  397.07   32.24   2
   3  -5  -1  339.68   33.55   3
  -3   5   1  376.10   32.61   1
   2  -5  -1  255.40   22.17   3
  -2   5   1  215.45   21.53   4
  -2   5   1  257.30   21.30   2
  -2   5   1  268.11   21.55   1
  -2   5   1  224.77   21.23   2
   1  -5  -1   33.94    3.76   3
  -1   5   1   37.31    3.64   2
  -1   5   1   42.45    3.75   3
  -1   5   1   37.42    3.74   1
  -1   5   1   41.97    3.72   2
   0   5   1  801.60   67.44   2
   0  -5  -1  803.50   70.29   3
   0   5   1  832.58   68.22   1
   0  -5  -1  691.06   68.06   1
   0   5   1  775.61   70.22   3
   0   5   1  783.84   67.41   2
   1   5   1  199.02   16.84   2
  -1  -5  -1  198.30   17.57   3
   1   5   1  177.58   17.49   3
  -1  -5  -1  189.01   16.98   1
   1   5   1  198.78   16.87   2
  -1  -5  -1  187.42   16.70   2
   1   5   1  183.41   17.00   1
   2   5   1  182.98   15.78   1
  -2  -5  -1  197.14   16.31   3
   2   5   1  165.10   16.21   3
  -2  -5  -1  155.94   15.65   1
   2   5   1  174.19   15.53   2
   3   5   1  480.59   43.71   3
  -3  -5  -1  460.01   43.66   3
  -3  -5  -1  518.06   42.38   1
   3   5   1  472.78   42.34   1
  -3  -5  -1  463.50   41.84   2
   3   5   1  488.71   41.89   2
   4   5   1  148.32   14.72   1
  -4  -5  -1  170.73   15.31   3
   4   5   1  165.99   14.61   2
   4   5   1  160.90   15.26   3
  -5  -5  -1    3.05    1.06   3
   5   5   1    3.51    1.13   3
  -5  -5  -1    4.71    1.38   1
   5   5   1    2.38    1.12   1
   5   5   1    2.28    1.04   2
   6   5   1  149.08   12.65   3
   6   5   1  116.53   11.99   1
   6   5   1  118.20   11.72   2
   7   5   1    1.19    1.23   1
   7   5   1    0.97    0.91   3
  -7  -5  -1    2.16    1.35   1
   8   5   1    0.24    1.02   3
   8   5   1   -0.65    0.99   1
  -8  -5  -1   -0.82    1.02   1
   9   5   1  128.94   14.11   3
   9   5   1  149.32   13.68   1
  -9  -5  -1  142.09   13.84   1
  -9   6   1   20.08    2.46   2
  -8   6   1    9.39    1.41   2
  -7   6   1  143.74   12.73   2
  -6   6   1    9.34    1.22   2
  -5   6   1    8.69    1.18   2
  -4   6   1  661.39   62.89   2
  -4   6   1  718.39   62.95   2
  -4   6   1  734.83   63.22   4
   4  -6  -1  807.17   65.62   3
  -3   6   1  124.19   11.77   1
  -3   6   1  134.91   12.14   4
  -3   6   1  120.10   11.59   2
   3  -6  -1  146.71   12.09   3
  -3   6   1  135.80   11.68   2
   2  -6  -1 2104.33  203.37   3
  -2   6   1 2327.36  197.33   1
  -2   6   1 2281.41  195.14   2
  -2   6   1 2057.06  194.16   4
  -2   6   1 2576.40  195.24   2
  -1   6   1   20.82    2.13   3
  -1   6   1   20.43    2.24   2
  -1   6   1   19.03    2.23   2
   1  -6  -1   19.40    2.20   3
  -1   6   1   19.18    2.27   1
   0  -6  -1   79.88    7.26   1
   0   6   1   75.38    7.41   1
   0   6   1   77.60    7.31   2
   0   6   1   82.92    7.53   3
   0  -6  -1   79.14    7.61   3
  -1  -6  -1    1.13    0.66   1
  -1  -6  -1    0.27    0.53   3
   1   6   1    0.70    0.62   1
   1   6   1    0.43    0.65   2
   1   6   1    1.26    0.58   3
   2   6   1  320.11   30.21   3
  -2  -6  -1  324.18   30.27   3
   2   6   1  354.08   29.42   1
   2   6   1  323.93   29.00   2
   3   6   1   32.20    3.35   1
   3   6   1   30.80    3.28   3
   3   6   1   25.80    3.15   2
  -3  -6  -1   24.60    3.18   3
  -3  -6  -1   23.44    3.21   1
  -4  -6  -1  354.91   31.75   3
   4   6   1  286.89   31.55   3
   4   6   1  386.69   30.48   2
   4   6   1  369.60   30.78   1
  -4  -6  -1  325.42   30.72   1
   5   6   1  108.33    9.01   1
   5   6   1   87.71    9.09   3
  -5  -6  -1   88.54    9.05   3
   5   6   1   86.56    8.66   2
  -5  -6  -1   79.94    8.79   1
  -6  -6  -1   11.55    2.33   1
   6   6   1   14.68    2.43   1
  -6  -6  -1   14.89    2.40   3
   6   6   1   11.76    2.14   2
   6   6   1    9.71    2.14   3
   7   6   1    8.58    2.12   1
  -7  -6  -1    7.68    2.10   1
   7   6   1    8.11    2.07   3
  -8  -6  -1  224.38   21.45   1
   8   6   1  219.20   21.41   1
   8   6   1  246.06   22.32   3
   9   6   1   84.88    8.49   3
  -9  -6  -1   63.85    7.92   1
   9   6   1   67.54    7.76   1
  -8   7   1  107.68    9.81   2
  -7   7   1    0.99    0.71   2
  -6   7   1  218.06   19.15   2
  -5   7   1   25.16    2.64   2
  -4   7   1  155.61   11.94   2
   4  -7  -1  116.43   12.12   3
   3  -7  -1  649.92   58.88   3
  -3   7   1  659.99   56.63   2
   2  -7  -1   66.29    6.19   3
  -2   7   1   70.33    6.09   2
  -2   7   1   67.21    6.11   1
  -2   7   1   50.67    6.32   4
  -1   7   1  142.00   12.51   2
  -1   7   1  131.95   12.61   1
   1  -7  -1  143.85   13.00   3
   0  -7  -1    6.42    1.17   3
   0   7   1    3.89    1.08   1
   0   7   1    4.51    1.05   2
   1   7   1  311.07   27.46   2
   1   7   1  310.83   27.77   1
  -1  -7  -1  313.93   28.66   3
  -2  -7  -1   48.27    4.99   3
   2   7   1   46.44    4.79   2
  -2  -7  -1   44.26    4.75   1
   2   7   1   46.15    4.90   1
  -3  -7  -1    7.87    1.75   1
   3   7   1    9.92    1.80   1
   3   7   1   10.50    1.74   2
  -3  -7  -1    8.79    1.74   3
   4   7   1   18.96    2.82   1
  -4  -7  -1   22.56    3.06   1
  -4  -7  -1   18.22    2.71   3
   4   7   1   21.84    2.91   2
  -5  -7  -1   14.57    2.33   3
   5   7   1   12.23    2.22   1
   5   7   1   11.21    2.10   2
  -5  -7  -1    9.51    2.19   1
   6   7   1   22.90    3.31   2
  -6  -7  -1   28.83    3.77   1
  -6  -7  -1   22.00    3.31   3
   6   7   1   25.45    3.52   1
  -7  -7  -1   38.77    5.11   1
   7   7   1   40.59    5.01   1
  -8  -7  -1   30.50    4.66   1
   8   7   1   33.56    4.66   1
  -8   8   1   28.72    3.27   2
  -7   8   1  200.60   17.77   2
  -6   8   1   47.37    4.64   2
  -5   8   1   94.11    8.59   2
  -4   8   1   48.09    4.72   2
   3  -8  -1  111.29   10.98   3
  -3   8   1  128.24   10.80   2
   2  -8  -1   66.14    6.36   3
  -2   8   1   64.63    6.24   2
  -1   8   1  154.94   14.61   1
  -1   8   1  160.18   14.51   2
   1  -8  -1  168.77   15.07   3
   0   8   1   27.47    3.43   1
   0  -8  -1   30.16    3.45   3
   0   8   1   31.51    3.44   2
  -1  -8  -1  502.39   46.41   3
   1   8   1  518.08   44.58   2
   1   8   1  508.49   45.04   1
   2   8   1   24.86    3.00   1
   2   8   1   18.73    2.69   2
  -2  -8  -1   19.59    2.73   3
   3   8   1    0.07    0.88   1
   3   8   1    0.27    0.94   2
  -3  -8  -1    0.61    0.88   3
   4   8   1  114.51   11.42   1
  -4  -8  -1  121.64   11.83   3
   4   8   1  119.67   11.36   2
   5   8   1  152.50   15.72   1
  -5  -8  -1  176.21   16.34   3
   5   8   1  173.14   15.63   2
  -6  -8  -1   37.01    5.23   1
   6   8   1   40.58    4.96   2
   6   8   1   47.35    5.30   1
  -7  -8  -1   81.89    8.77   1
   7   8   1   78.38    8.57   1
  -6   9   1  142.70   12.84   2
  -5   9   1   12.25    1.77   2
  -4   9   1   53.31    5.25   2
  -3   9   1  331.95   29.14   2
   2  -9  -1   68.60    6.61   3
  -2   9   1   66.32    6.53   2
   1  -9  -1    6.29    1.34   3
  -1   9   1    5.17    1.29   2
   0   9   1   78.96    7.73   1
   0  -9  -1   75.65    7.81   3
   0   9   1   80.84    7.62   2
  -1  -9  -1   22.98    2.98   3
   1   9   1   21.93    2.99   2
   1   9   1   23.25    3.18   1
  -2  -9  -1  160.26   14.95   3
   2   9   1  158.40   14.33   2
   2   9   1  145.20   14.40   1
   3   9   1    1.32    1.16   2
  -3  -9  -1    0.65    0.94   3
   3   9   1    0.39    1.04   1
   4   9   1  186.07   17.18   2
  -4  -9  -1  183.17   17.88   3
   4   9   1  186.37   17.42   1
   5   9   1   33.59    4.44   2
   5   9   1   33.37    4.48   1
  -4  10   1  108.70   10.05   2
  -3  10   1   72.80    7.06   2
  -2  10   1  178.86   16.22   2
   1 -10  -1    7.25    1.51   3
  -1  10   1    6.68    1.51   2
   0 -10  -1   33.95    3.90   3
   0  10   1   31.75    3.86   2
   1  10   1    0.46    1.01   2
  -1 -10  -1   -0.13    0.77   3
  -2 -10  -1   41.53    4.77   3
   2  10   1   36.91    4.65   2
   2  10   1   40.55    4.76   1
   3  10   1    0.13    1.34   1
   4  10   1    9.96    2.37   1
   4  10  -2    0.63    1.32   1
   3  10  -2   29.12    4.25   1
   3  10  -2   34.59    4.29   2
   2  10  -2   71.25    7.32   1
   2  10  -2   61.88    7.05   2
  -2 -10   2   69.90    7.34   3
   1  10  -2  111.70   11.11   1
   1  10  -2  110.41   10.93   2
  -1 -10   2  118.16   11.41   3
   0 -10   2    4.44    1.41   3
   0  10  -2    2.08    1.24   2
   1 -10   2    7.11    1.69   3
  -1  10  -2   11.78    2.06   2
   2 -10   2    0.70    0.84   3
   6   9  -2  254.11   23.29   2
   6   9  -2  254.24   23.68   1
  -5  -9   2  112.76   11.17   3
   5   9  -2  107.43   10.67   2
   5   9  -2  102.13   10.74   1
   4   9  -2   44.12    5.34   2
   4   9  -2   45.50    5.43   1
  -4  -9   2   51.66    5.62   3
   3   9  -2   45.24    5.55   2
  -3  -9   2   55.98    5.87   3
   3   9  -2   53.09    5.82   1
   2   9  -2   29.79    3.96   1
  -2  -9   2   35.07    4.01   3
   2   9  -2   28.53    3.79   2
  -1  -9   2   97.26    9.98   3
   1   9  -2   95.39    9.62   2
   1   9  -2  107.54    9.84   1
   0   9  -2    4.83    1.49   2
   0   9  -2    7.00    1.71   1
   0  -9   2    7.94    1.67   3
  -1   9  -2    9.12    1.79   2
   1  -9   2    8.84    1.83   3
  -2   9  -2   76.41    7.75   2
   2  -9   2   80.56    7.95   3
  -3   9  -2   24.32    3.28   2
   3  -9   2   28.80    3.23   3
  -4   9  -2   15.02    2.38   2
   8   8  -2   42.77    5.74   1
  -8  -8   2   57.47    6.28   1
  -7  -8   2  147.11   15.63   3
  -7  -8   2  158.09   15.22   1
   7   8  -2  169.24   15.36   1
   6   8  -2  197.56   19.40   1
   6   8  -2  193.96   19.04   2
  -6  -8   2  217.53   19.43   1
  -6  -8   2  223.47   20.18   3
  -5  -8   2   69.21    7.90   3
   5   8  -2   67.00    7.66   1
   5   8  -2   72.37    7.61   2
  -5  -8   2   89.08    7.90   1
  -4  -8   2  341.87   31.07   1
   4   8  -2  334.13   30.79   2
   4   8  -2  340.38   31.23   1
  -4  -8   2  367.97   32.23   3
  -3  -8   2   24.05    3.21   3
   3   8  -2   23.21    3.11   2
   3   8  -2   23.88    3.25   1
   2   8  -2  133.26   12.27   2
  -2  -8   2  122.73   12.70   3
   2   8  -2  138.00   12.45   1
  -1  -8   2   19.75    2.66   3
   1   8  -2   19.80    2.76   2
   1   8  -2   20.15    2.81   1
   0  -8   2   31.97    3.61   3
   0   8  -2   27.63    3.45   2
   0   8  -2   29.68    3.62   1
  -1   8  -2   24.04    3.08   2
  -1   8  -2   26.80    3.08   4
   1  -8   2   25.15    3.08   3
  -1   8  -2   26.17    3.30   1
  -2   8  -2   50.76    4.94   2
   2  -8   2   46.20    4.93   3
  -2   8  -2   42.23    4.92   1
  -3   8  -2  110.31   10.73   2
   3  -8   2  119.55   11.11   3
   4  -8   2   20.87    2.60   3
  -4   8  -2   18.33    2.65   2
  -5   8  -2    1.51    1.03   2
  -6   8  -2  372.47   32.92   2
   9   7  -2  123.74   10.68   1
  -9  -7   2  102.48   10.47   1
  -9  -7   2   89.23   10.47   3
   9   7  -2   88.59   10.65   3
   8   7  -2   44.67    5.83   1
  -8  -7   2   55.06    6.16   3
  -8  -7   2   53.24    6.07   1
   7   7  -2   93.25    9.45   1
  -7  -7   2   89.34    9.41   1
  -7  -7   2   92.89    9.68   3
   6   7  -2   86.08    9.21   1
  -6  -7   2   93.11    9.57   3
  -6  -7   2  109.46    9.49   1
   6   7  -2   83.03    8.95   2
   5   7  -2   80.65    7.58   1
  -5  -7   2   63.23    7.54   3
   5   7  -2   68.09    7.35   2
  -5  -7   2   81.99    7.70   1
   4   7  -2   64.57    6.92   1
  -4  -7   2   70.37    7.16   3
  -4  -7   2   67.90    6.95   1
   4   7  -2   66.71    6.82   2
  -3  -7   2  110.65   12.22   3
   3   7  -2  132.48   11.85   2
  -3  -7   2  133.78   11.98   1
   3   7  -2  131.79   12.03   1
   2   7  -2  161.68   14.34   2
  -2  -7   2  161.14   14.40   1
  -2  -7   2  153.50   14.90   3
   2   7  -2  150.53   14.47   1
   1   7  -2  109.51    9.42   4
   1   7  -2   96.39    9.69   1
  -1  -7   2   97.63    9.97   3
   1   7  -2  105.35    9.62   2
   0   7  -2   19.86    2.57   2
   0   7  -2   19.49    2.37   4
   0  -7   2   20.82    2.55   3
   0   7  -2   19.28    2.66   1
  -1   7  -2   99.79    9.59   1
  -1   7  -2  108.54    9.51   2
   1  -7   2  101.51    9.83   3
  -1   7  -2   96.37    9.39   4
   2  -7   2  521.80   46.72   3
  -2   7  -2  528.20   44.69   4
  -2   7  -2  517.94   45.35   1
  -2   7  -2  488.08   44.81   2
  -3   7  -2   14.92    2.27   1
  -3   7  -2   17.46    2.23   2
   3  -7   2   16.41    2.20   3
   4  -7   2  107.96   10.84   3
  -4   7  -2  118.69   10.52   2
  -5   7  -2   65.44    6.60   2
   5  -7   2   69.07    6.82   3
   6  -7   2   44.41    4.78   3
  -6   7  -2   43.54    4.67   2
  -7   7  -2  143.52   13.24   2
 -10  -6   2  315.27   28.14   3
 -10  -6   2  267.71   27.13   1
  10   6  -2  298.66   27.18   1
  -9  -6   2  167.92   16.39   3
   9   6  -2  162.52   15.85   1
  -8  -6   2   59.46    6.62   3
   8   6  -2   61.25    6.49   1
  -8  -6   2   54.22    6.53   1
  -7  -6   2   23.82    3.64   1
  -7  -6   2   25.76    3.64   3
   7   6  -2   31.15    3.72   2
   6   6  -2   32.30    3.77   2
  -6  -6   2   32.41    3.96   3
   6   6  -2   26.81    3.77   1
  -6  -6   2   33.00    4.09   1
   5   6  -2  413.86   38.45   1
  -5  -6   2  419.54   38.48   1
  -5  -6   2  455.51   39.73   3
   5   6  -2  438.80   38.02   2
   4   6  -2  266.90   23.78   1
  -4  -6   2  245.07   23.73   1
   4   6  -2  287.89   23.56   2
  -4  -6   2  253.50   24.49   3
   3   6  -2   92.12    8.27   1
  -3  -6   2   77.35    8.37   3
  -3  -6   2   87.67    8.23   1
   3   6  -2   82.36    8.09   2
  -2  -6   2  215.41   20.37   1
   2   6  -2  223.30   20.49   1
  -2  -6   2  254.49   21.24   3
   2   6  -2  217.46   20.24   2
   1   6  -2  746.86   63.82   1
  -1  -6   2  726.80   63.65   1
   1   6  -2  663.96   63.00   2
   1   6  -2  729.56   62.49   4
  -1  -6   2  768.68   65.80   3
   0   6  -2  116.33   11.14   1
   0  -6   2  128.20   11.00   1
   0   6  -2  114.22   10.83   4
   0   6  -2  122.62   11.02   2
   0  -6   2  121.18   11.48   3
  -1   6  -2  189.06   15.88   1
  -1   6  -2  182.17   15.66   2
   1  -6   2  174.13   16.30   3
  -1   6  -2  154.34   15.47   4
  -2   6  -2  272.29   25.81   1
  -2   6  -2  318.93   25.61   4
   2  -6   2  297.60   26.66   3
  -2   6  -2  276.84   25.54   2
  -3   6  -2  530.46   47.93   1
   3  -6   2  575.21   49.43   3
  -3   6  -2  529.16   47.37   2
   4  -6   2    4.54    1.16   3
  -4   6  -2    5.22    1.29   1
  -4   6  -2    3.59    1.05   2
   5  -6   2    1.96    0.86   3
  -5   6  -2    1.26    0.87   1
  -5   6  -2    0.05    0.72   2
  -6   6  -2   96.53   10.01   2
   6  -6   2  121.62   10.57   3
   7  -6   2   51.15    4.95   3
  -7   6  -2   38.71    4.60   2
   8  -6   2   20.82    2.87   3
  -8   6  -2   21.40    2.84   2
  11   5  -2    4.56    2.16   1
  10   5  -2   87.60    9.62   3
  10   5  -2  102.06    9.38   1
 -10  -5   2   75.20    9.09   1
   9   5  -2   42.29    5.73   3
  -9  -5   2   42.50    5.54   3
   9   5  -2   62.96    5.87   1
  -9  -5   2   47.67    5.63   1
  -8  -5   2   33.80    4.24   3
   8   5  -2   32.59    4.15   1
  -8  -5   2   36.34    4.46   1
  -7  -5   2  162.33   15.65   1
   7   5  -2  184.40   15.41   2
   7   5  -2  152.62   15.49   1
   6   5  -2  493.16   38.30   1
  -6  -5   2  371.69   39.26   3
   6   5  -2  413.07   37.59   2
  -6  -5   2  412.39   37.73   2
  -6  -5   2  455.59   38.29   1
   5   5  -2  911.77   74.80   2
   5   5  -2  841.98   75.64   1
  -5  -5   2  871.87   74.79   2
  -5  -5   2  808.88   75.64   1
  -5  -5   2  873.05   78.02   3
  -4  -5   2   35.58    3.73   1
   4   5  -2   31.70    3.65   1
   4   5  -2   30.60    3.55   2
  -4  -5   2   31.26    3.52   2
  -4  -5   2   31.12    3.65   3
  -3  -5   2   71.56    6.93   1
  -3  -5   2   70.09    7.13   3
  -3  -5   2   68.15    6.76   2
   3   5  -2   71.87    6.83   2
   3   5  -2   75.25    7.00   1
   2   5  -2    3.15    0.99   1
   2   5  -2    3.65    0.96   2
  -2  -5   2    2.51    0.83   2
  -2  -5   2    3.87    1.02   3
  -2  -5   2    3.90    0.99   1
  -1  -5   2  481.42   43.43   3
   1   5  -2  470.13   41.21   4
  -1  -5   2  491.20   42.06   1
   1   5  -2  479.27   41.65   2
   1   5  -2  472.26   42.12   1
   1   5  -2  528.08   41.70   2
  -1  -5   2  430.13   41.44   2
   0   5  -2   13.60    1.74   2
   0   5  -2   10.75    1.46   4
   0   5  -2   12.30    1.74   2
   0  -5   2   12.18    1.54   2
   0   5  -2   13.32    1.84   1
   0  -5   2   11.02    1.67   3
   0  -5   2   14.18    1.68   1
  -1   5  -2    7.13    1.25   1
  -1   5  -2    6.01    1.12   2
  -1   5  -2    8.57    1.21   4
  -1   5  -2    7.70    1.19   2
  -2   5  -2  366.41   34.67   2
  -2   5  -2  408.92   34.65   4
   2  -5   2  411.42   36.23   3
  -2   5  -2  402.06   35.15   1
  -2   5  -2  405.87   34.74   2
   3  -5   2   14.69    1.85   3
  -3   5  -2   12.48    1.84   1
  -3   5  -2   13.08    1.79   2
  -4   5  -2  289.25   25.37   2
  -4   5  -2  295.58   25.66   1
   4  -5   2  281.42   26.41   3
   5  -5   2  698.42   61.86   3
  -5   5  -2  607.76   59.89   1
  -5   5  -2  747.08   59.36   2
  -6   5  -2    1.24    0.82   2
  -6   5  -2    2.90    1.00   1
   6  -5   2    1.66    0.80   3
  -7   5  -2  237.61   22.46   2
   7  -5   2  270.35   23.53   3
   8  -5   2    1.27    0.96   3
  -8   5  -2   -0.13    0.77   2
   9  -5   2   13.42    2.28   3
 -11  -4   2   78.94    9.00   1
  11   4  -2   89.80    9.07   1
  10   4  -2   12.41    2.45   3
 -10  -4   2    4.32    1.85   1
  10   4  -2    6.32    1.99   1
  -9  -4   2   67.01    8.30   1
  -9  -4   2  102.24    8.58   2
   9   4  -2   69.50    8.66   3
  -9  -4   2   93.62    8.75   3
   9   4  -2   82.79    8.40   1
  -8  -4   2   64.43    6.91   1
  -8  -4   2   64.94    6.78   2
  -8  -4   2   70.12    7.01   3
   8   4  -2   61.30    6.68   1
  -7  -4   2  565.89   58.66   2
   7   4  -2  684.63   58.66   2
  -7  -4   2  701.43   59.54   1
   7   4  -2  743.94   59.48   1
   6   4  -2  489.11   42.82   2
  -6  -4   2  535.69   44.90   3
  -6  -4   2  559.64   43.05   2
   6   4  -2  422.28   43.28   1
  -6  -4   2  449.00   43.43   1
  -5  -4   2  771.74   62.84   2
  -5  -4   2  709.93   65.48   3
   5   4  -2  662.80   63.44   1
   5   4  -2  747.30   62.76   2
   4   4  -2  704.37   68.96   2
   4   4  -2  840.36   69.87   1
  -4  -4   2  779.87   72.00   3
  -4  -4   2  788.80   69.87   1
  -4  -4   2  873.23   69.12   2
   3   4  -2  198.41   16.82   2
   3   4  -2  183.05   17.01   1
  -3  -4   2  180.72   16.79   2
  -3  -4   2  193.18   17.05   1
   2   4  -2  561.32   49.94   2
  -2  -4   2  537.65   50.44   1
   2   4  -2  557.73   50.51   1
  -2  -4   2  652.75   52.17   3
  -2  -4   2  571.57   49.89   2
  -1  -4   2  295.32   25.45   3
   1   4  -2  271.72   24.66   1
  -1  -4   2  265.15   24.58   1
   1   4  -2  281.47   24.36   2
   1   4  -2  295.06   24.39   2
   1   4  -2  261.41   24.01   4
   0   4  -2   73.21    6.42   2
   0  -4   2   67.56    6.66   3
   0   4  -2   66.91    6.26   4
   0   4  -2   69.81    6.50   1
   0  -4   2   68.20    6.28   2
   0   4  -2   66.63    6.39   2
  -1   4  -2   67.81    6.64   2
  -1   4  -2   75.29    6.65   2
   1  -4   2   74.16    6.49   2
   1  -4   2   72.29    6.64   1
  -1   4  -2   66.76    6.61   4
  -1   4  -2   78.13    6.81   1
   1  -4   2   70.86    6.95   3
  -2   4  -2   20.86    2.39   2
  -2   4  -2   24.19    2.40   2
   2  -4   2   20.62    2.45   4
   2  -4   2   22.43    2.50   3
   2  -4   2   25.38    2.34   1
  -2   4  -2   19.25    2.45   1
  -3   4  -2   42.73    3.73   2
   3  -4   2   37.68    3.52   1
  -3   4  -2   34.55    3.64   2
   3  -4   2   36.31    3.79   3
  -3   4  -2   36.74    3.73   1
   3  -4   2   31.83    3.76   4
   4  -4   2  155.39   12.86   4
  -4   4  -2  138.27   12.53   2
   4  -4   2  136.71   13.05   3
  -4   4  -2  133.18   12.70   1
  -5   4  -2   66.36    5.86   1
   5  -4   2   59.20    5.88   3
  -5   4  -2   53.29    5.63   2
  -6   4  -2  812.79   68.12   2
   6  -4   2  759.87   70.99   3
  -7   4  -2   20.29    2.56   2
   7  -4   2   20.89    2.62   3
  -7   4  -2   19.64    2.70   1
  -8   4  -2   38.66    4.39   1
  -8   4  -2   37.01    4.21   2
   8  -4   2   42.02    4.46   3
  -9   4  -2    1.70    1.02   2
   9  -4   2    0.35    0.90   3
  11   3  -2    2.97    1.59   3
 -11  -3   2    5.15    1.84   2
 -11  -3   2    3.85    1.83   1
  10   3  -2  107.47    9.37   3
  10   3  -2   67.18    8.40   1
 -10  -3   2   79.73    8.50   2
 -10  -3   2   89.27    8.72   1
   9   3  -2  174.41   16.14   1
  -9  -3   2  178.75   16.16   2
  -9  -3   2  180.79   16.67   3
  -9  -3   2  159.79   16.20   1
  -8  -3   2  122.14   12.93   1
   8   3  -2  135.51   12.80   1
  -8  -3   2  153.48   12.96   2
  -7  -3   2  200.25   17.93   3
   7   3  -2  164.34   17.17   1
   7   3  -2  194.03   17.04   2
  -7  -3   2  202.75   17.50   1
  -6  -3   2  272.00   26.00   2
  -6  -3   2  304.29   26.43   1
   6   3  -2  292.70   26.29   1
  -6  -3   2  308.26   27.20   3
   6   3  -2  295.68   25.94   2
   5   3  -2  368.66   30.96   2
  -5  -3   2  371.96   31.09   2
  -5  -3   2  337.77   32.32   3
  -5  -3   2  335.61   31.37   1
  -4  -3   2  422.72   32.68   2
  -4  -3   2  341.07   32.95   1
   4   3  -2  380.51   32.56   2
   4   3  -2  394.31   32.98   1
  -4  -3   2  327.56   33.93   3
   3   3  -2 1111.90   92.29   2
   3   3  -2 1132.62   93.36   1
  -3  -3   2  965.14   92.27   2
  -2  -3   2  190.19   18.68   1
  -2  -3   2  204.07   18.50   2
   2   3  -2  197.78   18.74   1
   2   3  -2  227.69   18.56   2
  -2  -3   2  227.48   19.38   3
  -1  -3   2  396.95   30.52   2
  -1  -3   2  319.39   30.81   1
   1   3  -2  380.57   30.54   2
   1   3  -2  340.05   30.87   1
   1   3  -2  314.03   30.48   2
   0   3  -2 1238.79  105.98   2
   0  -3   2 1314.70  110.56   3
   0   3  -2 1244.03  107.21   1
   0   3  -2 1187.49  105.17   4
   0   3  -2 1143.49  105.98   2
   0  -3   2 1258.93  107.18   1
   1  -3   2    0.37    0.35   1
  -1   3  -2    0.30    0.32   4
   1  -3   2    0.55    0.34   2
   1  -3   2    0.88    0.42   3
  -1   3  -2    0.18    0.40   1
  -1   3  -2    0.26    0.34   2
   1  -3   2    1.09    0.39   4
  -1   3  -2    0.35    0.44   2
   2  -3   2 1386.39  111.08   2
   2  -3   2 1264.18  115.87   3
  -2   3  -2 1320.21  111.15   2
   2  -3   2 1244.46  110.45   4
  -2   3  -2 1388.09  112.44   1
   2  -3   2 1114.52  112.32   1
  -2   3  -2 1316.90  111.19   2
  -3   3  -2   99.69    8.53   1
   3  -3   2   89.85    8.38   1
   3  -3   2   89.33    8.68   3
   3  -3   2   85.68    8.46   4
  -3   3  -2   97.08    8.36   2
   4  -3   2    4.49    0.96   3
   4  -3   2    3.65    0.93   4
  -4   3  -2    3.54    0.88   2
  -4   3  -2    3.95    0.86   2
  -4   3  -2    8.01    1.22   1
  -5   3  -2  296.54   28.00   1
   5  -3   2  320.72   27.94   1
   5  -3   2  312.36   28.89   3
  -5   3  -2  336.07   27.74   2
   6  -3   2   13.65    1.91   3
  -6   3  -2   13.78    1.98   1
  -6   3  -2   14.28    1.95   2
  -7   3  -2  698.49   60.65   2
  -7   3  -2  697.26   61.32   1
  -8   3  -2  147.75   13.15   2
   8  -3   2  152.59   13.70   3
  -8   3  -2  127.64   13.19   1
   9  -3   2    0.43    0.93   3
  -9   3  -2    0.89    1.12   1
  -9   3  -2   -0.03    0.99   2
 -11  -2   2   17.73    2.94   2
  11   2  -2   16.67    2.96   3
 -11  -2   2   13.44    2.77   1
  10   2  -2  410.53   37.63   3
 -10  -2   2  399.98   36.01   2
 -10  -2   2  439.23   36.49   1
  10   2  -2  373.84   36.13   1
  -9  -2   2  387.14   31.66   2
   9   2  -2  306.87   32.79   3
  -9  -2   2  311.21   31.73   1
  -9  -2   2  414.30   32.85   3
  -8  -2   2  429.42   38.44   3
  -8  -2   2  409.42   37.41   1
  -7  -2   2   12.86    1.97   3
   7   2  -2   14.10    2.02   1
  -7  -2   2   14.45    2.11   2
  -7  -2   2   16.64    2.31   1
  -6  -2   2   81.99    8.02   1
   6   2  -2   82.04    7.75   2
  -6  -2   2   88.40    7.99   2
   6   2  -2   85.32    7.94   1
  -6  -2   2   82.05    8.18   3
   5   2  -2  252.12   23.23   2
   5   2  -2  290.01   23.63   1
  -5  -2   2  269.30   23.71   1
  -5  -2   2  227.66   24.26   3
  -5  -2   2  291.04   23.46   2
  -4  -2   2   46.20    4.16   1
  -4  -2   2   37.73    4.10   3
   4   2  -2   41.54    3.91   2
  -4  -2   2   31.91    3.95   2
   4   2  -2   44.80    4.07   1
  -3  -2   2 1170.80  102.38   3
  -3  -2   2 1221.32   98.23   2
   3   2  -2 1043.58   98.10   2
   3   2  -2 1164.63   99.27   1
  -3  -2   2 1094.41   99.26   1
  -2  -2   2  195.66   17.89   1
  -2  -2   2  183.49   17.66   2
   2   2  -2  233.33   17.96   1
   2   2  -2  196.07   17.67   2
   1   2  -2 1094.59   96.73   2
  -1  -2   2 1168.31   96.77   2
  -1  -2   2 1081.11  100.89   3
  -1  -2   2 1058.08   97.82   1
   1   2  -2 1270.18  100.93   3
   1   2  -2 1108.02   97.85   1
   1   2  -2 1030.13   96.18   4
   1   2  -2 1172.52   96.78   2
   0   2  -2 4636.00  347.99   2
   0  -2   2 3794.44  345.18   4
   0  -2   2 3644.97  351.46   1
   0   2  -2 4276.60  347.80   2
   0  -2   2 3953.57  362.76   3
   0   2  -2 3661.47  351.63   1
   0  -2   2 4316.42  347.89   2
  -1   2  -2  721.94   62.29   2
   1  -2   2  727.71   62.95   1
  -1   2  -2  666.31   62.95   1
   1  -2   2  731.77   61.84   4
   1  -2   2  728.28   64.93   3
  -1   2  -2  753.23   62.28   2
   2  -2   2  312.77   30.08   3
  -2   2  -2  312.20   28.83   2
   2  -2   2  339.71   29.18   1
   2  -2   2  347.36   28.84   2
  -2   2  -2  334.81   29.23   1
   2  -2   2  344.22   28.74   4
  -3   2  -2 3898.03  317.80   2
  -3   2  -2 3778.67  321.50   1
   3  -2   2 3678.30  321.54   1
  -3   2  -2 4138.03  317.77   2
   3  -2   2 3264.59  315.64   4
   3  -2   2 3402.81  317.68   2
   4  -2   2   36.88    3.76   1
  -4   2  -2   41.51    3.88   1
   4  -2   2   31.22    3.83   3
  -4   2  -2   38.14    3.75   2
   4  -2   2   35.94    3.80   4
   4  -2   2   43.12    3.70   2
  -5   2  -2   98.23    9.94   1
   5  -2   2  104.26    9.92   4
  -5   2  -2  113.35    9.89   2
   5  -2   2  115.69   10.29   3
  -6   2  -2  237.65   18.56   1
   6  -2   2  183.87   18.31   1
   6  -2   2  210.43   19.01   3
  -6   2  -2  189.28   18.21   2
  -7   2  -2  117.08   10.11   1
  -7   2  -2   99.78    9.89   2
   7  -2   2  101.64   10.25   3
  -8   2  -2   52.52    5.13   2
  -8   2  -2   40.72    5.07   1
   8  -2   2   47.37    5.13   3
  -9   2  -2  230.56   21.28   2
  -9   2  -2  231.64   21.48   1
   9  -2   2  242.15   22.14   3
 -10   2  -2    8.42    2.09   1
 -10   2  -2    7.97    1.94   2
 -12  -1   2    7.15    2.11   1
  11   1  -2   12.85    2.53   3
 -11  -1   2   11.03    2.47   1
 -11  -1   2   13.87    2.44   2
  10   1  -2  176.45   16.06   3
 -10  -1   2  155.23   15.32   2
  -9  -1   2  259.94   27.90   2
   9   1  -2  304.29   28.10   1
  -9  -1   2  341.28   28.40   1
   9   1  -2  359.00   29.41   3
   8   1  -2   33.78    3.95   1
  -8  -1   2   40.98    4.12   2
  -8  -1   2   31.43    3.91   3
  -8  -1   2   39.89    4.24   1
   7   1  -2  551.60   43.33   1
  -7  -1   2  454.11   43.39   1
  -7  -1   2  469.28   44.62   3
   6   1  -2 1201.92   96.04   1
  -6  -1   2  975.64   96.07   1
   6   1  -2 1109.00   94.89   2
  -6  -1   2  982.27   95.06   2
  -6  -1   2 1235.46   99.11   3
   5   1  -2 1145.32   96.38   2
  -5  -1   2 1159.15  100.58   3
   5   1  -2 1078.02   97.48   1
  -5  -1   2 1123.78   96.56   2
   5   1  -2 1086.73   95.69   4
   4   1  -2   96.52   10.23   4
   4   1  -2  115.97   10.57   1
   4   1  -2  123.24   10.40   2
  -4  -1   2  124.98   10.95   3
  -4  -1   2  123.56   10.64   1
   3   1  -2   84.68    7.76   4
  -3  -1   2  106.23    8.16   1
  -3  -1   2   78.14    8.30   3
   2   1  -2   53.58    5.09   3
   2   1  -2   55.79    4.85   2
  -2  -1   2   42.74    4.87   1
  -2  -1   2   48.33    4.81   2
   2   1  -2   44.43    4.88   1
  -2  -1   2   47.20    5.05   3
   2   1  -2   54.04    4.62   4
   1   1  -2 1212.99   96.12   2
   1   1  -2 1099.58   96.09   2
   1   1  -2 1008.05   97.14   1
  -1  -1   2 1082.53   97.17   1
   1   1  -2 1071.12  100.17   3
  -1  -1   2 1205.97  100.23   3
   0   1  -2  138.74   11.08   3
   0   1  -2  117.00   10.60   2
   0   1  -2  103.61   10.71   1
   0  -1   2  119.42   10.64   2
   0   1  -2  128.13   10.63   2
   0  -1   2  115.65   10.74   1
   1  -1   2  792.28   71.21   1
  -1   1  -2  873.90   71.28   1
   1  -1   2  815.73   73.43   3
   1  -1   2  891.38   70.47   2
  -1   1  -2  715.01   73.36   3
   2  -1   2  893.65   75.84   2
   2  -1   2  873.18   79.06   3
  -2   1  -2  837.46   76.67   1
  -2   1  -2  882.78   75.83   2
   2  -1   2  897.28   76.67   1
  -2   1  -2  893.51   75.83   2
   3  -1   2   35.05    3.53   3
  -3   1  -2   39.54    3.46   2
   3  -1   2   33.94    3.31   2
   3  -1   2   30.11    3.32   1
  -3   1  -2   32.47    3.36   2
  -3   1  -2   36.19    3.48   1
   4  -1   2  114.98   11.36   3
  -4   1  -2  119.40   10.89   2
   4  -1   2  128.14   10.83   2
  -5   1  -2  947.58   81.42   2
   5  -1   2  892.84   84.86   3
   5  -1   2  923.62   82.21   1
  -5   1  -2 1004.49   82.38   1
   6  -1   2   25.55    3.44   3
   6  -1   2   32.91    3.38   1
  -6   1  -2   37.84    3.55   2
  -6   1  -2   29.80    3.54   1
   7  -1   2  299.80   28.92   1
   7  -1   2  336.62   30.11   3
  -7   1  -2  344.58   29.21   1
  -8   1  -2    0.17    0.97   1
  -8   1  -2    0.19    0.83   2
   8  -1   2    0.72    0.91   3
  -9   1  -2   13.70    2.28   2
   9  -1   2   10.26    2.20   3
  -9   1  -2   11.80    2.34   1
 -10   1  -2  103.33   10.08   2
 -10   1  -2   98.29   10.09   1
 -12   0   2   31.31    4.42   1
 -11   0   2  202.32   16.32   1
 -11   0   2  145.41   15.87   2
 -10   0   2    4.05    1.36   2
  10   0  -2    4.08    1.33   3
 -10   0   2    2.01    1.25   1
  -9   0   2  111.78    9.08   1
   9   0  -2   90.95    9.13   3
  -9   0   2   75.28    8.71   2
   8   0  -2   75.30    6.48   1
   8   0  -2   61.81    6.82   3
  -8   0   2   63.59    6.69   1
   7   0  -2  209.30   18.88   1
  -7   0   2  198.12   19.03   1
  -7   0   2  223.63   18.88   2
   7   0  -2  216.29   18.74   4
   6   0  -2  861.66   81.92   1
  -6   0   2  982.91   81.11   2
  -6   0   2  889.26   84.51   3
   6   0  -2 1003.61   80.99   2
  -6   0   2  962.27   82.11   1
   5   0  -2 1680.74  132.49   2
  -5   0   2 1491.25  134.11   1
   5   0  -2 1447.62  131.65   4
   4   0  -2  536.51   43.64   1
  -4   0   2  419.47   43.65   1
   4   0  -2  475.23   43.08   2
  -4   0   2  529.93   43.15   2
   4   0  -2  536.11   45.09   3
  -3   0   2  920.49   84.28   1
   3   0  -2  957.74   86.91   3
  -3   0   2  963.51   83.30   2
  -3   0   2 1029.78   86.92   3
  -2   0   2   39.97    3.63   2
   2   0  -2   38.05    3.69   1
  -2   0   2   35.97    3.81   3
  -2   0   2   41.89    3.73   1
   2   0  -2   43.13    3.85   3
   1   0  -2  680.61   59.57   2
   1   0  -2  677.56   62.10   3
   1   0  -2  617.31   60.22   1
   1   0  -2  749.93   59.60   2
  -1   0   2  729.62   59.62   2
   0   0  -2 1678.54  146.85   3
   0   0  -2 1663.66  140.99   2
   0   0   2 1499.70  142.54   1
   0   0   2 1617.37  147.07   3
   0   0   2 1716.19  140.98   2
   1   0   2   40.79    3.88   3
   1   0   2   32.29    3.65   2
  -1   0  -2   42.14    3.72   2
   1   0   2   34.62    3.70   1
  -1   0  -2   41.68    3.88   3
  -1   0  -2   40.05    3.79   1
  -2   0  -2  309.90   28.64   1
   2   0   2  311.78   28.60   1
   2   0   2  349.54   28.31   2
  -2   0  -2  329.40   28.30   2
  -3   0  -2    1.49    0.64   1
   3   0   2    1.85    0.55   1
   3   0   2    1.04    0.53   3
  -3   0  -2    1.98    0.63   2
   3   0   2    1.04    0.43   2
  -4   0  -2  203.40   16.16   1
  -4   0  -2  159.11   15.88   2
   4   0   2  165.23   15.81   2
   4   0   2  192.19   16.07   1
   5   0   2   42.29    4.50   2
   5   0   2   46.40    4.82   3
  -5   0  -2   55.99    4.79   2
   5   0   2   45.93    4.63   1
  -5   0  -2   44.57    4.72   1
  -6   0  -2 1805.53  147.60   2
   6   0   2 1616.70  153.76   3
   7   0   2    6.05    1.51   3
   7   0   2    9.75    1.65   1
  -7   0  -2   10.97    1.75   2
  -7   0  -2   11.16    1.86   1
  -8   0  -2  230.94   21.43   1
   8   0   2  240.29   21.26   1
   8   0   2  218.18   22.00   3
  -8   0  -2  250.85   21.25   2
   9   0   2   51.66    5.69   3
  -9   0  -2   45.03    5.40   2
  -9   0  -2   52.67    5.75   1
  10   0   2   53.37    6.65   3
 -10   0  -2   64.18    6.79   1
 -10   0  -2   62.09    6.58   2
 -12   1   2    5.90    1.99   1
 -11   1   2    9.79    2.13   1
 -11   1   2   12.18    2.22   2
 -10   1   2  133.69   13.70   1
 -10   1   2  162.77   13.75   2
  -9   1   2  323.44   27.01   2
  -9   1   2  301.16   27.12   1
   9  -1  -2  287.11   27.92   3
   8  -1  -2   26.40    3.25   3
  -8   1   2   27.21    3.34   1
  -8   1   2   34.54    3.41   2
   7  -1  -2  533.77   50.51   1
  -7   1   2  599.16   50.78   1
  -7   1   2  548.44   50.19   2
   7  -1  -2  636.63   50.08   4
   6  -1  -2 1176.84   96.52   1
  -6   1   2 1166.37   96.70   1
  -6   1   2 1052.69   95.49   2
  -6   1   2  919.87   95.56   2
   6  -1  -2 1232.77   95.16   4
   5  -1  -2  943.51   86.02   1
  -5   1   2  937.11   86.14   1
  -5   1   2  990.31   85.11   2
  -5   1   2 1083.01   88.74   3
  -4   1   2  116.03    9.38   3
  -4   1   2  101.30    9.10   4
   4  -1  -2   92.14    9.01   1
   4  -1  -2   95.33    9.42   3
  -4   1   2  101.93    8.96   2
  -3   1   2  152.86   12.64   2
  -3   1   2  134.55   12.76   1
   3  -1  -2  138.25   12.71   1
  -3   1   2  154.76   13.16   3
  -2   1   2   48.17    4.07   1
   2  -1  -2   37.30    3.99   1
  -2   1   2   48.62    3.97   2
  -2   1   2   35.56    4.15   3
   2  -1  -2   40.20    4.01   1
  -1   1   2  949.16   81.11   2
  -1   1   2  786.23   81.95   1
  -1   1   2 1014.80   81.38   2
  -1   1   2  876.86   84.53   3
  -1   1   2 1057.06   82.21   1
   1  -1  -2  959.49   84.65   3
   0   1   2   93.16    8.95   3
   0   1   2  104.28    8.67   1
   0  -1  -2   88.10    8.69   1
   0   1   2  100.78    8.58   2
   0   1   2   99.06    8.56   2
   1   1   2  844.09   68.37   1
   1   1   2  780.56   67.59   2
  -1  -1  -2  723.39   70.48   3
   1   1   2  790.53   67.66   2
   2   1   2  857.61   70.04   1
   2   1   2  762.03   69.22   2
  -2  -1  -2  789.74   69.28   2
   3   1   2   37.79    3.85   3
   3   1   2   37.01    3.72   1
  -3  -1  -2   33.72    3.75   1
  -3  -1  -2   45.55    3.85   2
   3   1   2   36.15    3.67   2
   4   1   2  196.00   16.92   1
   4   1   2  181.98   16.68   2
   5   1   2  791.14   81.32   3
  -5  -1  -2  873.97   78.12   2
   5   1   2  889.75   78.86   1
  -5  -1  -2  939.57   78.99   1
   5   1   2 1017.94   78.03   2
  -6  -1  -2   37.21    4.02   1
   6   1   2   32.80    3.84   1
  -6  -1  -2   37.36    3.95   2
  -7  -1  -2  252.58   25.72   1
   7   1   2  303.95   26.60   3
  -7  -1  -2  304.06   25.59   2
  -8  -1  -2   -0.39    0.81   2
   8   1   2    1.37    0.93   3
  -8  -1  -2    0.33    0.98   1
   8   1   2    0.61    0.96   1
   9   1   2    9.89    2.21   3
  -9  -1  -2   13.57    2.29   2
   9   1   2    8.43    2.08   1
  -9  -1  -2   14.29    2.52   1
 -10  -1  -2   81.76    9.00   2
 -10  -1  -2   97.20    9.45   1
 -11   2   2   16.25    2.60   2
  11  -2  -2   16.49    2.43   3
  10  -2  -2  311.55   28.38   3
 -10   2   2  304.00   27.30   2
   9  -2  -2  443.81   36.75   3
  -9   2   2  356.06   35.23   2
  -9   2   2  406.51   35.61   1
   8  -2  -2  510.08   47.77   3
  -8   2   2  596.33   46.44   1
  -8   2   2  477.60   45.91   2
  -7   2   2   13.85    1.83   2
  -7   2   2   11.76    1.67   1
   7  -2  -2   11.51    1.57   3
   6  -2  -2   68.40    6.04   1
  -6   2   2   81.89    6.37   2
   6  -2  -2   62.67    6.50   3
  -6   2   2   59.32    6.13   2
   6  -2  -2   70.81    6.50   3
  -5   2   2  195.66   14.62   2
  -5   2   2  156.79   14.83   1
  -5   2   2  146.69   14.79   4
  -4   2   2   35.20    3.18   1
  -4   2   2   34.88    3.17   2
  -4   2   2   43.36    3.53   4
   4  -2  -2   33.27    3.31   3
  -4   2   2   30.84    3.07   2
  -3   2   2  661.74   62.95   1
  -3   2   2  698.45   62.95   1
  -3   2   2  812.19   62.10   4
  -2   2   2  214.49   20.19   1
   2  -2  -2  248.10   20.86   3
  -1   2   2 1016.43   88.08   1
  -1   2   2 1077.22   87.14   2
   1  -2  -2  971.70   90.73   3
  -1   2   2  957.62   90.71   3
   1  -2  -2 1036.12   88.05   1
  -1   2   2 1008.41   88.02   1
   0  -2  -2 3576.93  326.20   1
   0   2   2 3437.58  325.90   1
   0   2   2 4227.62  336.38   3
   0  -2  -2 3739.70  336.22   3
   0   2   2 3707.56  322.43   2
   0   2   2 3793.45  335.94   3
  -1  -2  -2  853.19   68.64   3
  -1  -2  -2  787.83   65.79   2
  -1  -2  -2  781.50   66.53   1
   1   2   2  792.38   65.81   2
   1   2   2  662.09   65.70   2
   1   2   2  699.36   66.48   1
   2   2   2  306.63   26.09   2
   2   2   2  302.20   26.42   1
   2   2   2  262.95   27.20   3
  -2  -2  -2  278.57   26.11   2
  -2  -2  -2  348.64   26.50   1
   3   2   2 3396.98  293.94   1
  -3  -2  -2 3363.39  290.57   2
   4   2   2   27.57    3.67   3
   4   2   2   38.71    3.60   2
   4   2   2   40.14    3.71   1
  -5  -2  -2   92.86    9.24   1
   5   2   2   98.69    9.02   2
   5   2   2  103.67    9.57   3
   5   2   2   96.16    9.15   1
   6   2   2  193.66   18.99   1
   6   2   2  199.35   19.69   3
  -6  -2  -2  236.57   19.25   1
   6   2   2  215.06   18.81   2
  -7  -2  -2   95.51    8.61   2
   7   2   2   79.99    8.75   3
   7   2   2   92.00    8.53   1
  -7  -2  -2   82.09    8.56   1
   8   2   2   40.27    4.91   3
   8   2   2   54.44    5.09   1
  -8  -2  -2   36.08    4.89   1
   9   2   2  227.99   21.48   1
   9   2   2  212.33   22.19   3
  -9  -2  -2  234.02   21.45   2
  -9  -2  -2  266.15   21.84   1
 -10  -2  -2    8.48    2.20   2
 -10  -2  -2   13.22    2.73   1
  11  -3  -2    4.74    1.39   3
 -11   3   2    4.05    1.34   2
 -10   3   2   83.49    7.31   2
  10  -3  -2   66.30    7.28   3
   9  -3  -2  141.67   13.42   3
  -9   3   2  146.23   13.05   2
   8  -3  -2  140.75   12.98   3
  -8   3   2  156.44   12.70   1
  -8   3   2  122.22   12.55   2
  -7   3   2  164.21   14.35   2
  -7   3   2  159.60   14.45   1
  -6   3   2  239.49   20.00   4
  -6   3   2  213.92   19.50   2
  -5   3   2  297.18   27.47   2
  -5   3   2  354.89   27.76   1
  -5   3   2  321.18   27.75   4
   5  -3  -2  274.42   28.63   3
   5  -3  -2  349.81   28.63   3
  -5   3   2  321.36   27.79   1
  -5   3   2  304.93   27.40   2
   4  -3  -2  304.51   27.32   3
  -4   3   2  300.10   26.38   1
  -3   3   2  938.26   80.50   4
  -2   3   2  176.26   16.35   1
  -2   3   2  195.10   16.38   1
   1  -3  -2  397.56   31.35   3
  -1   3   2  321.37   30.30   1
  -1   3   2  291.03   29.96   2
  -1   3   2  358.28   29.99   2
  -1   3   2  332.46   31.26   3
   1  -3  -2  379.50   30.33   1
   0   3   2 1032.22   94.37   2
   0   3   2 1192.96   94.40   2
   0  -3  -2 1097.26   95.44   1
   0   3   2 1015.46   95.39   1
   0   3   2 1023.51   98.33   3
   0  -3  -2 1217.86   94.37   2
  -1  -3  -2    0.50    0.42   2
   1   3   2    0.35    0.41   1
   1   3   2    1.09    0.42   3
   1   3   2    0.66    0.43   2
   1   3   2    0.99    0.46   2
  -2  -3  -2 1202.84  104.96   1
   2   3   2 1222.92  104.95   1
   2   3   2 1149.49  108.18   3
  -2  -3  -2 1095.23  103.75   2
   2   3   2 1350.43  103.81   2
   3   3   2   99.68    9.72   3
  -3  -3  -2  120.64    9.43   2
   3   3   2   90.72    9.36   1
  -3  -3  -2  108.01    9.46   1
   3   3   2   93.55    9.22   2
   4   3   2    2.64    0.81   2
   4   3   2    4.34    1.12   1
   4   3   2    3.72    0.97   3
  -4  -3  -2    3.19    0.97   2
  -4  -3  -2    2.63    1.00   1
   5   3   2  269.10   24.39   2
   5   3   2  283.15   25.63   3
   5   3   2  278.43   24.77   1
  -6  -3  -2   15.34    2.49   1
  -6  -3  -2   18.79    2.50   2
   6   3   2   15.67    2.28   2
   6   3   2   15.74    2.34   1
  -7  -3  -2  775.80   70.16   1
   7   3   2  752.72   70.03   1
   7   3   2  863.02   72.48   3
  -8  -3  -2  148.07   13.37   1
   8   3   2  130.15   13.07   1
   9   3   2    1.26    1.26   1
  -9  -3  -2    0.56    1.28   1
   9   3   2    1.48    1.13   3
  10   3   2   53.76    5.92   1
 -10  -3  -2   43.52    5.80   1
 -10   4   2    7.65    1.46   2
  10  -4  -2    6.22    1.32   3
  -9   4   2   75.66    7.43   2
   9  -4  -2   82.10    7.62   3
  -8   4   2   62.87    5.84   2
   8  -4  -2   61.08    5.94   3
   7  -4  -2  614.21   54.80   3
  -7   4   2  604.31   52.68   2
  -6   4   2  534.66   43.23   4
  -6   4   2  495.97   42.75   2
  -6   4   2  491.65   43.26   1
   6  -4  -2  467.33   44.56   3
  -5   4   2  729.16   62.43   4
  -5   4   2  718.14   62.97   1
  -4   4   2  636.73   54.95   4
  -3   4   2  145.67   13.76   4
  -3   4   2  159.39   13.46   1
  -2   4   2  457.90   42.24   2
  -2   4   2  478.97   42.27   2
  -2   4   2  515.16   42.73   1
  -2   4   2  508.94   42.73   1
  -1   4   2  241.10   21.90   3
  -1   4   2  229.61   21.00   2
  -1   4   2  245.81   21.25   1
   1  -4  -2  228.09   21.87   3
  -1   4   2  265.26   21.04   2
   0   4   2   53.46    5.54   2
   0  -4  -2   64.62    5.65   1
   0   4   2   58.66    5.61   1
   0   4   2   70.01    5.82   3
   0   4   2   60.55    5.55   2
   0  -4  -2   56.13    5.75   3
  -1  -4  -2   67.01    6.13   2
   1   4   2   65.38    6.24   2
   1   4   2   70.57    6.20   2
   1   4   2   63.35    6.21   1
  -1  -4  -2   65.01    6.25   1
   1   4   2   74.70    6.47   3
  -1  -4  -2   60.98    6.37   3
  -2  -4  -2   18.59    2.21   1
   2   4   2   15.03    2.11   3
   2   4   2   18.48    2.14   2
   2   4   2   20.55    2.24   1
  -2  -4  -2   18.35    2.18   3
  -2  -4  -2   19.36    2.17   2
  -3  -4  -2   32.79    3.64   2
   3   4   2   33.68    3.61   2
  -3  -4  -2   38.75    3.79   1
   3   4   2   37.23    3.84   3
   3   4   2   32.53    3.68   1
  -4  -4  -2  113.00   11.77   1
   4   4   2  145.07   11.67   2
  -4  -4  -2  121.78   11.67   2
   4   4   2  130.34   11.83   1
  -5  -4  -2   55.95    6.55   2
  -5  -4  -2   70.89    6.79   1
   5   4   2   79.03    6.86   1
   5   4   2   72.08    6.96   3
   5   4   2   58.81    6.42   2
   6   4   2  824.90   74.87   2
   6   4   2  929.74   75.91   1
  -6  -4  -2  736.67   74.94   2
   6   4   2  966.96   78.43   3
   7   4   2   28.13    3.49   3
  -7  -4  -2   22.64    3.40   1
   7   4   2   22.68    3.24   1
  -8  -4  -2   40.12    4.72   1
   8   4   2   33.39    4.54   3
   8   4   2   37.74    4.50   1
  -9  -4  -2    0.34    1.48   1
   9   4   2    0.78    1.29   1
   9   4   2    1.75    1.20   3
  10   4   2   34.72    4.86   1
 -10   5   2   95.30    8.91   2
  -9   5   2   49.70    4.91   2
  -8   5   2   29.01    3.02   2
  -7   5   2  141.29   12.47   2
  -6   5   2  498.58   39.04   2
  -6   5   2  406.50   38.95   2
  -5   5   2  934.88   80.60   4
  -4   5   2   25.54    2.95   4
  -3   5   2   78.19    6.57   2
  -3   5   2   74.32    6.63   1
  -3   5   2   67.77    7.10   4
  -2   5   2    4.37    0.67   2
  -2   5   2    3.22    0.63   1
  -2   5   2    4.60    0.61   2
   2  -5  -2    3.40    0.57   3
  -1   5   2  454.28   38.36   3
  -1   5   2  447.61   36.87   2
   1  -5  -2  400.82   38.36   3
  -1   5   2  409.76   36.83   2
  -1   5   2  415.18   37.24   1
   0   5   2   14.19    1.49   3
   0   5   2   10.66    1.48   1
   0  -5  -2   10.27    1.41   3
   0   5   2   11.24    1.54   2
   0   5   2   10.57    1.48   2
   0  -5  -2   11.79    1.48   1
   1   5   2    8.02    1.29   2
   1   5   2    6.52    1.19   1
   1   5   2    7.11    1.21   2
  -1  -5  -2    7.48    1.24   1
  -1  -5  -2   11.01    1.40   2
   1   5   2    9.17    1.25   3
  -1  -5  -2    7.83    1.27   3
   2   5   2  387.20   31.66   1
  -2  -5  -2  346.35   31.58   1
  -2  -5  -2  350.55   32.57   3
   2   5   2  345.94   31.23   2
   3   5   2   13.53    1.95   1
   3   5   2   12.13    1.84   3
  -3  -5  -2    7.57    1.71   1
   3   5   2   13.00    1.84   2
  -3  -5  -2   19.09    2.05   3
   4   5   2  284.67   25.72   1
  -4  -5  -2  304.88   25.79   1
   4   5   2  271.77   25.34   2
   5   5   2  673.69   63.48   1
  -5  -5  -2  691.52   63.51   1
   5   5   2  717.89   62.75   2
   5   5   2  803.69   65.66   3
   6   5   2    1.50    1.11   1
   6   5   2    1.98    1.05   2
  -6  -5  -2    1.63    1.30   1
   6   5   2    2.43    1.17   3
  -7  -5  -2  266.75   25.26   1
   7   5   2  274.31   25.18   1
   7   5   2  288.78   26.18   3
   8   5   2   -0.24    1.06   1
   8   5   2    1.82    1.34   3
  -8  -5  -2    0.62    1.38   1
   9   5   2   15.40    2.91   1
   9   5   2    9.15    2.56   3
  -9  -5  -2   17.73    3.30   1
 -10   6   2  259.57   22.89   2
  -9   6   2  145.79   13.05   2
  -8   6   2   50.80    4.81   2
  -7   6   2   32.05    3.10   2
  -6   6   2   31.41    2.93   2
  -5   6   2  467.26   35.71   2
  -5   6   2  359.94   35.65   2
  -4   6   2  259.37   20.61   2
  -4   6   2  225.76   21.17   4
  -4   6   2  224.53   20.53   2
  -3   6   2   73.11    6.54   1
  -3   6   2   71.74    6.44   2
  -2   6   2  217.35   17.60   2
   2  -6  -2  191.24   18.22   3
  -2   6   2  187.08   17.51   2
  -2   6   2  207.68   17.75   1
  -1   6   2  655.26   59.51   1
   1  -6  -2  702.09   61.36   3
  -1   6   2  686.69   58.90   2
   0  -6  -2  106.26   10.70   3
   0  -6  -2  123.08   10.37   1
   0   6   2  112.57   10.32   2
   0   6   2  109.72   10.41   1
   0   6   2  119.65   10.70   3
   1   6   2  169.65   15.20   3
  -1  -6  -2  164.13   14.71   1
  -1  -6  -2  167.24   15.23   3
   1   6   2  158.59   14.58   2
   1   6   2  156.51   14.73   1
  -2  -6  -2  246.21   23.84   1
   2   6   2  258.89   23.64   2
   2   6   2  280.75   23.94   1
  -2  -6  -2  243.42   24.59   3
   2   6   2  311.59   24.76   3
   3   6   2  439.90   41.89   3
   3   6   2  463.67   40.66   1
  -3  -6  -2  452.95   40.61   1
   3   6   2  505.99   40.26   2
  -3  -6  -2  433.55   41.87   3
   4   6   2    4.67    1.34   3
   4   6   2    5.70    1.46   1
  -4  -6  -2    3.70    1.41   1
   4   6   2    4.79    1.27   2
   5   6   2    0.29    0.86   1
   5   6   2    1.41    1.03   3
  -5  -6  -2    0.63    1.15   1
   5   6   2    1.13    0.94   2
   6   6   2   94.55   10.18   1
   6   6   2   94.51   10.48   3
   6   6   2  117.91   10.19   2
  -6  -6  -2  108.77   10.33   1
   7   6   2   49.72    5.77   1
  -7  -6  -2   41.82    5.70   1
   7   6   2   58.86    6.08   3
   8   6   2   18.50    3.33   3
  -8  -6  -2   18.83    3.47   1
   8   6   2   16.64    3.10   1
  -9   7   2  110.13    9.96   2
  -8   7   2   54.14    5.09   2
  -7   7   2   96.63    8.64   2
  -6   7   2   84.14    7.52   2
  -5   7   2   82.87    7.40   2
  -4   7   2   61.59    5.63   2
  -3   7   2  134.76   11.96   2
  -2   7   2  159.94   13.51   1
  -2   7   2  146.61   13.36   2
   2  -7  -2  145.37   13.82   3
  -1   7   2   91.77    8.39   1
  -1   7   2   90.24    8.30   2
   1  -7  -2   89.46    8.58   3
   0  -7  -2   17.29    2.16   3
   0   7   2   16.86    2.22   1
   0   7   2   19.06    2.20   2
   1   7   2   91.12    8.59   2
  -1  -7  -2   98.27    8.98   3
   1   7   2   86.56    8.64   1
   2   7   2  477.49   40.47   1
  -2  -7  -2  456.69   41.70   3
   2   7   2  436.95   40.00   2
  -3  -7  -2   15.32    2.35   3
   3   7   2   15.19    2.32   1
  -3  -7  -2   13.12    2.27   1
   3   7   2   13.96    2.18   2
   4   7   2  104.93   10.17   1
  -4  -7  -2  119.00   10.26   1
   4   7   2   91.51    9.90   2
  -5  -7  -2   74.67    7.00   1
   5   7   2   61.74    6.59   2
   5   7   2   58.07    6.74   1
   6   7   2   46.91    5.05   2
   6   7   2   37.60    4.99   1
  -6  -7  -2   42.45    5.22   1
   7   7   2  154.71   15.23   1
  -7  -7  -2  160.71   15.34   1
  -8  -7  -2   37.58    5.24   1
  -7   8   2  194.70   17.08   2
  -6   8   2  260.70   22.72   2
  -5   8   2   81.51    7.40   2
  -4   8   2  349.62   30.43   2
  -3   8   2   25.96    2.79   2
  -2   8   2  132.36   11.57   2
   2  -8  -2  123.73   11.86   3
   1  -8  -2   16.73    2.02   3
  -1   8   2   16.83    2.14   2
  -1   8   2   14.04    2.14   1
   0  -8  -2   28.19    3.16   3
   0   8   2   27.07    3.07   2
   0   8   2   26.46    3.18   1
  -1  -8  -2   23.10    2.77   3
   1   8   2   20.04    2.75   2
   1   8   2   21.79    2.83   1
   2   8   2   46.41    5.17   2
  -2  -8  -2   50.37    5.35   3
   2   8   2   50.26    5.29   1
  -3  -8  -2  106.79   10.40   3
   3   8   2  102.52    9.97   2
   3   8   2  101.30   10.07   1
   4   8   2   22.19    3.08   1
   4   8   2   16.40    2.75   2
   5   8   2   -0.09    1.16   1
   5   8   2    1.37    1.21   2
   6   8   2  358.47   34.20   1
   6   8   2  395.42   33.86   2
  -6   9   2  282.00   24.61   2
  -5   9   2  116.18   10.45   2
  -4   9   2   50.44    4.91   2
  -3   9   2   50.44    5.02   2
  -2   9   2   29.89    3.27   2
   1  -9  -2  107.34   10.08   3
  -1   9   2  102.23    9.77   2
   0  -9  -2    8.80    1.62   3
   0   9   2    6.72    1.46   2
   0   9   2    7.17    1.58   1
  -1  -9  -2    6.94    1.60   3
   1   9   2    7.50    1.73   1
   1   9   2    8.27    1.70   2
   2   9   2   71.34    7.44   2
   2   9   2   75.78    7.54   1
   3   9   2   18.31    2.87   2
   3   9   2   19.85    3.02   1
   4   9   2   11.22    2.41   1
   4   9   2    9.56    2.21   2
   5   9   2   90.71    9.43   1
   5   9   2   90.66    9.18   2
  -4  10   2   -0.24    0.67   2
  -3  10   2   36.11    3.89   2
  -2  10   2   68.27    6.69   2
  -1  10   2  112.85   10.55   2
   0  10   2    2.20    1.09   2
   1  10   2   11.46    2.23   2
   2  10   2   -0.04    1.16   1
   3  10   2  181.19   17.12   1
   4  10  -3  106.71   10.91   1
   3  10  -3   10.80    2.53   1
   2  10  -3    1.17    1.39   1
   1  10  -3   53.65    6.05   1
   0 -10   3   19.66    3.07   3
   1 -10   3    0.61    0.99   3
   6   9  -3    1.55    1.55   1
   6   9  -3    0.09    1.49   2
   5   9  -3   36.70    4.89   1
  -5  -9   3   38.81    4.89   3
   5   9  -3   41.09    4.84   2
   4   9  -3   77.66    8.67   2
  -4  -9   3   90.23    9.12   3
   4   9  -3   89.20    8.90   1
   3   9  -3    4.85    1.70   1
  -3  -9   3    2.28    1.27   3
   3   9  -3    2.64    1.45   2
   2   9  -3    1.10    1.21   1
   2   9  -3    0.94    1.07   2
  -2  -9   3    0.45    0.94   3
   1   9  -3  113.40   11.06   1
   1   9  -3  112.98   10.99   2
  -1  -9   3  114.65   11.36   3
   0   9  -3  327.56   30.10   2
   0   9  -3  345.11   30.47   1
   0  -9   3  340.46   31.37   3
  -1   9  -3    5.98    1.69   2
   1  -9   3    6.19    1.60   3
  -2   9  -3   14.50    2.47   2
   2  -9   3   16.15    2.55   3
   3  -9   3   96.24    9.33   3
  -3   9  -3   88.89    9.07   2
   4  -9   3   57.23    6.12   3
   8   8  -3   14.95    2.96   1
  -8  -8   3   14.28    3.06   1
   7   8  -3   20.91    3.40   1
  -7  -8   3   18.21    3.36   3
  -6  -8   3   84.85    8.67   3
   6   8  -3   71.00    8.26   1
   6   8  -3   82.29    8.33   2
  -6  -8   3   81.27    8.51   1
  -5  -8   3    8.09    2.10   1
   5   8  -3    7.34    1.92   2
   5   8  -3    7.41    2.01   1
  -5  -8   3    6.76    1.85   3
   4   8  -3  175.90   17.02   2
  -4  -8   3  185.43   17.85   3
   4   8  -3  183.78   17.33   1
  -4  -8   3  196.93   17.32   1
  -3  -8   3    1.38    0.92   3
   3   8  -3    0.40    1.00   2
   3   8  -3    1.35    1.05   1
  -2  -8   3  205.30   18.83   3
   2   8  -3  191.83   17.98   2
   2   8  -3  195.12   18.20   1
  -1  -8   3  210.67   19.82   3
   1   8  -3  205.47   19.25   1
   1   8  -3  213.12   19.07   2
   0   8  -3   47.11    5.21   1
   0   8  -3   47.07    5.08   2
   0  -8   3   44.92    5.10   3
   1  -8   3  333.17   30.37   3
  -1   8  -3  324.71   29.51   1
  -1   8  -3  327.03   29.17   2
  -2   8  -3   36.13    4.28   1
  -2   8  -3   33.45    4.05   2
   2  -8   3   36.63    4.16   3
  -3   8  -3  136.19   12.87   2
   3  -8   3  139.98   13.38   3
  -4   8  -3    3.09    1.17   2
   4  -8   3    1.61    1.04   3
   5  -8   3   60.52    6.46   3
  -5   8  -3   61.05    6.35   2
  -9  -7   3    0.66    1.58   1
   9   7  -3    1.59    1.54   1
  -9  -7   3    1.55    1.36   3
  -8  -7   3  349.15   30.22   1
   8   7  -3  310.36   30.09   1
  -7  -7   3   85.02    8.58   1
   7   7  -3   77.72    8.35   1
  -7  -7   3   77.32    8.57   3
   6   7  -3    0.20    1.06   1
   6   7  -3   -0.24    1.01   2
  -6  -7   3   -0.41    0.71   3
  -6  -7   3    1.03    1.20   1
  -5  -7   3   45.16    5.04   3
  -5  -7   3   43.87    5.01   1
   5   7  -3   45.67    4.90   2
   5   7  -3   35.32    4.77   1
   4   7  -3   38.83    4.59   1
  -4  -7   3   48.36    4.80   1
   4   7  -3   43.35    4.57   2
  -4  -7   3   31.62    4.44   3
   3   7  -3   63.51    6.95   1
  -3  -7   3   64.25    6.88   1
   3   7  -3   77.46    7.02   2
  -3  -7   3   69.42    7.19   3
  -2  -7   3   36.84    4.15   3
   2   7  -3   37.85    4.20   1
  -2  -7   3   33.63    3.99   1
   2   7  -3   33.50    3.95   2
   1   7  -3   20.07    2.63   2
   1   7  -3   19.03    2.20   4
  -1  -7   3   19.30    2.60   3
   1   7  -3   18.72    2.70   1
   0   7  -3  220.87   18.26   4
   0  -7   3  200.88   19.28   3
   0   7  -3  202.89   18.51   2
   0   7  -3  196.89   18.73   1
  -1   7  -3  125.02   11.08   4
  -1   7  -3  121.79   11.42   1
   1  -7   3  117.83   11.67   3
  -1   7  -3  117.21   11.21   2
  -2   7  -3   40.41    4.25   2
  -2   7  -3   37.77    4.36   1
   2  -7   3   37.81    4.32   3
   3  -7   3  611.90   56.34   3
  -3   7  -3  616.88   54.03   2
  -3   7  -3  629.95   54.64   1
  -4   7  -3   51.39    5.04   2
   4  -7   3   42.44    5.04   3
  -5   7  -3   51.54    5.55   2
   5  -7   3   55.44    5.81   3
  -6   7  -3    1.41    1.14   2
   6  -7   3    5.37    1.51   3
   7  -7   3  110.50   11.04   3
  10   6  -3    0.02    1.15   3
 -10  -6   3   -0.35    1.11   3
  10   6  -3    0.79    1.51   1
 -10  -6   3    0.65    1.44   1
   9   6  -3  337.37   33.30   1
  -9  -6   3  390.86   34.63   3
  -9  -6   3  378.47   33.57   1
   8   6  -3  143.91   14.24   1
  -8  -6   3  136.89   14.27   1
  -8  -6   3  163.54   14.85   3
  -7  -6   3  116.53   12.77   3
   7   6  -3  130.80   12.47   1
  -7  -6   3  145.24   12.66   1
   7   6  -3  124.81   12.15   2
   6   6  -3   39.41    4.38   2
  -6  -6   3   34.14    4.40   3
   6   6  -3   41.21    4.59   1
  -6  -6   3   35.74    4.51   1
   5   6  -3  195.48   19.59   1
  -5  -6   3  237.62   19.75   1
  -5  -6   3  210.26   20.26   3
   5   6  -3  215.45   19.43   2
   4   6  -3   59.87    6.85   1
  -4  -6   3   73.99    7.03   1
   4   6  -3   71.19    6.83   2
  -4  -6   3   68.89    7.10   3
  -3  -6   3    5.35    1.35   3
   3   6  -3    5.34    1.34   2
  -3  -6   3    3.88    1.36   1
   3   6  -3    6.23    1.54   1
   2   6  -3   55.87    4.92   4
   2   6  -3   56.45    5.42   2
  -2  -6   3   45.58    5.45   3
  -2  -6   3   52.11    5.36   1
   2   6  -3   51.56    5.47   1
   1   6  -3  242.99   22.69   2
   1   6  -3  252.69   22.28   4
  -1  -6   3  266.01   23.76   3
  -1  -6   3  262.78   22.87   1
   1   6  -3  255.58   23.04   1
   0  -6   3  169.59   15.95   3
   0   6  -3  164.98   15.26   2
   0   6  -3  170.55   15.51   1
   0   6  -3  171.10   15.00   4
  -1   6  -3   13.76    2.07   1
  -1   6  -3   12.29    1.85   4
   1  -6   3   13.25    1.96   3
  -1   6  -3   14.29    1.98   2
  -2   6  -3  408.62   35.02   1
  -2   6  -3  388.43   34.57   2
   2  -6   3  385.86   36.05   3
   3  -6   3   49.60    5.19   3
  -3   6  -3   49.04    5.12   1
  -3   6  -3   46.79    4.97   2
   4  -6   3 1102.62  101.28   3
  -4   6  -3 1153.34   97.14   2
  -4   6  -3 1111.83   98.20   1
  -5   6  -3    2.20    0.95   2
  -5   6  -3    0.75    0.98   1
   5  -6   3    2.15    0.99   3
   6  -6   3   18.66    2.47   3
  -6   6  -3   14.29    2.32   2
   7  -6   3    3.45    1.27   3
  -7   6  -3    3.82    1.27   2
  11   5  -3  217.23   20.53   1
 -10  -5   3   10.20    2.57   1
  10   5  -3   14.50    2.75   1
  -9  -5   3   18.79    3.35   1
   9   5  -3   20.43    3.12   1
  -9  -5   3   21.11    3.35   3
   8   5  -3   92.80    9.57   1
  -8  -5   3  107.70   10.04   3
  -8  -5   3   88.10    9.63   1
  -7  -5   3    2.92    1.46   1
  -7  -5   3    3.45    1.21   2
   7   5  -3    4.11    1.43   1
  -7  -5   3    4.57    1.42   3
   7   5  -3    1.35    1.15   2
  -6  -5   3    0.48    0.78   3
   6   5  -3    0.56    0.88   2
  -6  -5   3   -0.11    0.90   1
   6   5  -3   -0.13    0.90   1
  -6  -5   3   -0.37    0.86   2
   5   5  -3  731.25   65.50   1
   5   5  -3  811.31   64.83   2
  -5  -5   3  637.05   64.62   2
  -5  -5   3  801.85   65.61   1
  -4  -5   3   14.50    2.29   3
  -4  -5   3   24.16    2.62   2
  -4  -5   3   17.45    2.50   1
   4   5  -3   13.09    2.26   1
   4   5  -3   18.45    2.37   2
  -3  -5   3   42.03    4.21   2
   3   5  -3   46.71    4.47   1
  -3  -5   3   35.92    4.34   3
   3   5  -3   35.22    4.20   2
  -3  -5   3   43.70    4.35   1
  -2  -5   3   79.71    8.08   1
   2   5  -3   85.51    8.25   1
  -2  -5   3   86.31    8.46   3
  -2  -5   3   87.51    8.03   2
   2   5  -3   81.97    8.04   2
   2   5  -3   92.97    7.67   4
   1   5  -3  247.94   21.83   4
  -1  -5   3  256.32   23.29   3
   1   5  -3  251.83   22.60   1
  -1  -5   3  246.19   22.43   1
   1   5  -3  258.03   22.30   2
   0   5  -3 1209.01  104.98   4
   0   5  -3 1262.88  107.13   1
   0   5  -3 1184.07  105.90   2
   0  -5   3 1221.05  106.96   1
   0  -5   3 1257.95  110.43   3
  -1   5  -3   75.49    7.08   2
   1  -5   3   78.76    7.42   3
   1  -5   3   71.74    6.99   1
  -1   5  -3   73.78    7.21   1
  -2   5  -3   43.58    4.47   2
   2  -5   3   45.84    4.35   1
  -2   5  -3   45.11    4.60   1
   2  -5   3   42.04    4.63   3
  -3   5  -3  275.32   25.53   2
   3  -5   3  281.96   25.65   4
   3  -5   3  302.45   26.74   3
  -3   5  -3  300.99   25.90   1
  -4   5  -3  465.46   42.13   1
   4  -5   3  490.47   43.50   3
  -4   5  -3  476.58   41.68   2
  -5   5  -3   25.54    3.08   1
  -5   5  -3   25.11    3.07   2
   5  -5   3   26.15    3.11   3
  -6   5  -3   76.90    7.72   1
  -6   5  -3   80.98    7.68   2
   6  -5   3   79.51    7.95   3
  -7   5  -3   27.29    3.28   1
  -7   5  -3   23.04    3.10   2
   7  -5   3   25.81    3.23   3
   8  -5   3   25.56    3.22   3
  -8   5  -3   22.31    3.17   2
  11   4  -3   45.05    5.76   1
 -11  -4   3   50.06    5.82   1
 -10  -4   3   45.75    5.52   2
  10   4  -3   50.09    5.66   1
   9   4  -3   14.01    2.41   1
  -9  -4   3   13.27    2.67   1
  -9  -4   3   13.17    2.42   2
  -9  -4   3   17.76    2.75   3
  -8  -4   3   27.15    3.67   1
  -8  -4   3   27.78    3.40   2
   8   4  -3   31.21    3.63   1
  -8  -4   3   21.75    3.36   3
   7   4  -3   49.88    5.14   2
  -7  -4   3   44.97    5.13   2
  -7  -4   3   49.91    5.40   1
   7   4  -3   45.34    5.23   1
  -7  -4   3   53.46    5.48   3
   6   4  -3  175.80   15.91   2
  -6  -4   3  198.51   16.84   3
  -6  -4   3  166.01   16.20   1
   6   4  -3  171.68   16.20   1
  -6  -4   3  168.98   15.99   2
  -5  -4   3  119.28   11.96   1
  -5  -4   3  119.78   11.78   2
   5   4  -3  146.95   12.08   1
   4   4  -3  163.07   15.57   2
  -4  -4   3  208.42   16.53   3
  -4  -4   3  164.86   15.80   1
   4   4  -3  162.98   15.81   1
  -3  -4   3  288.62   27.91   2
   3   4  -3  350.35   28.40   1
  -3  -4   3  324.34   29.22   3
  -3  -4   3  298.79   28.26   1
   3   4  -3  332.26   27.99   2
  -2  -4   3 1195.00  112.55   2
  -2  -4   3 1287.76  117.45   3
   2   4  -3 1362.97  112.66   2
   2   4  -3 1408.47  111.54   4
   2   4  -3 1272.43  113.92   1
  -1  -4   3  867.94   77.59   3
  -1  -4   3  837.65   75.17   1
  -1  -4   3  805.43   74.29   2
   1   4  -3  880.02   74.43   2
   1   4  -3  878.02   73.62   4
   1   4  -3  894.69   75.29   1
   0  -4   3  409.74   34.52   3
   0   4  -3  363.31   32.99   2
   0   4  -3  379.55   33.02   2
   0   4  -3  368.82   33.41   1
   0  -4   3  372.07   33.34   1
   1  -4   3 1695.47  150.28   2
   1  -4   3 1712.43  156.85   3
   1  -4   3 1609.52  149.32   4
  -1   4  -3 1782.34  150.43   2
   1  -4   3 1792.64  152.05   1
  -1   4  -3 1931.39  152.21   1
  -1   4  -3 1707.45  150.44   2
   2  -4   3  111.98   10.24   1
   2  -4   3  106.85   10.19   4
  -2   4  -3  110.34   10.19   2
   2  -4   3  112.29   10.64   3
  -2   4  -3  120.51   10.41   1
  -3   4  -3  147.23   12.88   2
   3  -4   3  140.01   12.91   4
   3  -4   3  139.55   13.38   3
  -3   4  -3  142.89   13.00   1
   3  -4   3  143.00   12.89   1
  -4   4  -3  127.54   11.02   2
   4  -4   3  111.46   11.39   3
  -4   4  -3  122.27   11.11   1
   5  -4   3  315.90   25.09   3
  -5   4  -3  242.73   23.90   2
  -5   4  -3  256.83   24.26   1
  -6   4  -3    0.04    0.80   2
  -6   4  -3    0.77    0.88   1
   6  -4   3    0.67    0.69   3
   7  -4   3  294.56   27.05   3
  -7   4  -3  286.78   26.28   1
  -7   4  -3  295.56   25.96   2
  -8   4  -3    0.28    0.86   2
   8  -4   3    0.34    0.82   3
  -8   4  -3    2.42    1.24   1
 -11  -3   3   18.88    3.13   2
 -11  -3   3   16.66    3.01   1
  11   3  -3   16.51    3.14   3
 -10  -3   3   33.88    4.61   1
  10   3  -3   41.74    4.61   1
 -10  -3   3   34.38    4.48   2
  -9  -3   3   64.53    6.50   1
  -9  -3   3   60.22    6.38   3
   9   3  -3   56.69    6.15   1
  -9  -3   3   53.43    6.14   2
   8   3  -3 1089.39   96.42   1
  -8  -3   3 1016.22   95.45   2
  -8  -3   3 1199.88   96.75   1
  -7  -3   3   63.26    5.83   2
   7   3  -3   56.93    5.76   1
   7   3  -3   57.74    5.64   2
  -7  -3   3   57.50    5.85   1
  -7  -3   3   45.34    5.78   3
   6   3  -3    1.65    0.82   2
  -6  -3   3    0.87    0.92   1
   6   3  -3    1.32    0.86   1
  -6  -3   3    0.57    0.69   3
  -6  -3   3    1.13    0.79   2
  -5  -3   3    3.25    1.00   2
   5   3  -3    3.05    0.93   2
   5   3  -3    1.87    0.87   1
  -5  -3   3    2.42    0.89   3
  -5  -3   3    2.32    1.00   1
   4   3  -3   24.49    2.74   2
   4   3  -3   30.84    2.90   1
  -4  -3   3   17.43    2.69   1
  -4  -3   3   17.79    2.62   2
  -4  -3   3   27.10    2.90   3
   3   3  -3  107.18   10.22   2
   3   3  -3  117.30   10.45   1
  -3  -3   3  114.83   10.38   1
   2   3  -3  206.73   17.44   1
  -2  -3   3  213.62   17.38   1
   2   3  -3  197.13   16.68   4
  -2  -3   3  168.21   17.06   2
  -2  -3   3  184.69   17.91   3
  -1  -3   3  900.47   73.85   3
   1   3  -3  845.64   71.56   1
   1   3  -3  730.72   70.70   2
  -1  -3   3  778.81   71.49   1
  -1  -3   3  840.87   70.73   2
   0   3  -3  765.44   67.82   2
   0   3  -3  729.26   67.79   2
   0   3  -3  818.67   68.63   1
   0  -3   3  752.55   68.54   1
   0  -3   3  858.40   70.78   3
   0  -3   3  788.03   67.79   2
  -1   3  -3  782.32   67.51   2
   1  -3   3  688.79   66.94   4
  -1   3  -3  769.64   67.48   2
   1  -3   3  813.29   70.40   3
   1  -3   3  816.97   68.27   1
  -1   3  -3  815.54   68.30   1
   2  -3   3   47.71    5.02   4
   2  -3   3   54.30    4.99   2
  -2   3  -3   53.32    5.20   1
  -2   3  -3   57.50    5.15   2
   2  -3   3   50.50    5.11   1
   2  -3   3   53.63    5.29   3
   3  -3   3 1794.48  158.79   4
  -3   3  -3 1702.40  159.80   2
   3  -3   3 1956.28  161.61   1
  -3   3  -3 1873.14  161.67   1
   3  -3   3 2002.77  159.75   2
   3  -3   3 1684.01  166.53   3
  -3   3  -3 1981.62  159.86   2
   4  -3   3   98.17    9.75   4
   4  -3   3  102.73    9.78   1
  -4   3  -3  124.15    9.99   1
   4  -3   3  108.80   10.14   3
  -4   3  -3   97.31    9.64   2
   5  -3   3  270.75   23.84   1
  -5   3  -3  245.45   23.90   1
  -5   3  -3  293.21   23.69   2
   5  -3   3  261.29   24.65   3
  -6   3  -3   14.79    2.20   1
  -6   3  -3   14.15    2.02   2
   6  -3   3   13.15    2.01   3
  -7   3  -3  169.54   14.67   2
   7  -3   3  164.53   15.31   3
  -7   3  -3  147.00   14.81   1
  -8   3  -3    8.90    2.00   1
  -8   3  -3   12.01    2.03   2
   8  -3   3   10.27    2.00   3
   9  -3   3    3.22    1.35   3
  -9   3  -3    0.67    1.24   1
  -9   3  -3    0.23    0.94   2
 -10   3  -3    7.95    2.24   1
 -12  -2   3   67.97    7.29   1
 -12  -2   3   60.89    7.02   2
  11   2  -3   -0.38    0.91   3
 -11  -2   3    0.57    1.39   2
 -11  -2   3    1.95    1.35   1
 -10  -2   3   20.06    3.08   1
 -10  -2   3   20.25    3.08   2
  10   2  -3   18.02    2.90   1
  -9  -2   3  699.61   58.07   2
   9   2  -3  618.98   58.42   1
  -9  -2   3  575.52   58.57   1
  -9  -2   3  763.39   60.50   3
  -8  -2   3  168.78   16.51   3
   8   2  -3  186.70   16.00   1
  -8  -2   3  172.88   16.20   1
  -8  -2   3  169.69   15.95   2
  -7  -2   3  138.49   13.18   2
  -7  -2   3  156.77   13.43   1
   7   2  -3  136.99   13.18   1
   6   2  -3   87.03    8.02   1
  -6  -2   3   75.92    8.23   3
   6   2  -3   97.13    7.90   2
  -6  -2   3   77.82    7.98   2
   6   2  -3   84.79    7.65   4
  -5  -2   3  734.56   62.65   2
  -5  -2   3  622.42   65.19   3
   5   2  -3  789.15   63.33   1
   5   2  -3  745.00   62.52   2
  -4  -2   3 1292.67  104.80   2
   4   2  -3 1220.91  104.70   2
   4   2  -3 1193.53  103.73   4
  -4  -2   3 1151.56  109.20   3
  -3  -2   3  460.78   40.00   2
   2   2  -3   18.67    2.36   2
  -2  -2   3   27.38    2.59   3
   2   2  -3   22.12    2.49   1
  -2  -2   3   22.05    2.41   2
  -1  -2   3  194.70   18.12   3
  -1  -2   3  186.24   17.54   1
   1   2  -3  212.57   17.37   2
  -1  -2   3  211.68   17.01   4
   1   2  -3  182.07   17.54   1
  -1  -2   3  195.90   17.35   2
   0  -2   3   -0.05    0.36   3
   0   2  -3    2.36    0.61   2
   0   2  -3    0.55    0.51   1
   0  -2   3    0.04    0.41   2
   0  -2   3    1.06    0.36   4
   0  -2   3   -0.17    0.38   1
  -1   2  -3    6.47    1.04   2
   1  -2   3    6.81    0.99   2
   1  -2   3    6.02    0.89   4
  -1   2  -3    6.47    1.07   1
  -1   2  -3    4.43    0.89   2
   1  -2   3    6.56    1.04   3
   1  -2   3    5.43    0.98   1
   2  -2   3 1853.72  161.72   3
  -2   2  -3 2001.58  156.95   1
  -2   2  -3 1584.06  155.09   2
   2  -2   3 1871.93  155.18   2
  -2   2  -3 1774.72  155.13   2
   2  -2   3 1730.50  156.85   1
   3  -2   3  983.81   87.41   3
  -3   2  -3  962.93   83.81   2
  -3   2  -3  931.58   84.79   1
  -3   2  -3 1059.97   83.87   2
   3  -2   3  879.54   83.26   4
   3  -2   3 1005.79   84.77   1
  -4   2  -3  945.58   85.20   2
   4  -2   3 1027.93   86.20   1
   5  -2   3    9.64    1.59   3
   5  -2   3    7.32    1.33   1
  -5   2  -3   10.62    1.66   1
  -5   2  -3    8.66    1.52   2
  -6   2  -3   30.11    3.31   2
   6  -2   3   29.90    3.35   3
  -6   2  -3   24.50    3.27   1
  -7   2  -3   19.04    2.75   2
   7  -2   3   26.52    2.99   3
  -7   2  -3   19.16    2.86   1
  -8   2  -3  191.19   18.80   1
  -8   2  -3  205.89   18.64   2
   8  -2   3  217.83   19.46   3
  -9   2  -3   11.19    2.35   1
  -9   2  -3    7.40    1.95   2
   9  -2   3   15.69    2.47   3
 -10   2  -3   -0.32    1.40   1
 -12  -1   3   22.13    3.57   1
 -11  -1   3  126.12   12.37   1
 -11  -1   3  135.06   12.40   2
  11   1  -3  122.21   12.75   3
 -10  -1   3   24.33    3.51   1
 -10  -1   3   25.04    3.35   2
  10   1  -3   25.00    3.43   3
  -9  -1   3   16.20    2.55   1
  -9  -1   3   18.37    2.53   2
   9   1  -3   14.81    2.33   1
  -8  -1   3  191.41   17.55   2
  -8  -1   3  175.16   18.06   3
   8   1  -3  195.50   17.30   4
   8   1  -3  225.29   17.64   1
  -8  -1   3  183.82   17.72   1
  -7  -1   3  102.83   11.14   1
   7   1  -3  113.62   10.81   4
  -7  -1   3  147.23   11.25   2
   6   1  -3   10.50    1.56   1
  -6  -1   3   15.21    2.04   1
   6   1  -3   12.07    1.47   4
   6   1  -3   12.90    1.65   2
  -6  -1   3   11.99    1.75   2
  -6  -1   3    8.70    1.56   3
   5   1  -3  236.83   20.38   2
  -5  -1   3  186.40   20.66   1
   5   1  -3  247.84   20.21   4
   5   1  -3  257.74   20.73   1
   4   1  -3    6.10    1.08   1
   4   1  -3    5.46    1.15   3
  -4  -1   3    4.63    0.95   2
   4   1  -3    3.90    0.93   2
  -4  -1   3    2.90    1.04   1
  -4  -1   3    7.73    1.14   2
  -4  -1   3    7.22    1.13   3
  -3  -1   3   75.53    7.19   2
   3   1  -3   83.84    7.18   2
  -3  -1   3   77.70    7.53   3
   2   1  -3    3.31    0.79   2
   2   1  -3    6.12    0.94   1
  -2  -1   3    3.76    0.85   3
  -2  -1   3    3.92    0.78   2
  -1  -1   3    2.36    0.57   2
   1   1  -3    0.46    0.39   2
  -1  -1   3    0.01    0.35   1
   1   1  -3    0.52    0.35   3
   1   1  -3    0.13    0.39   1
  -1  -1   3    0.27    0.33   3
   0  -1   3 2719.01  230.10   3
   0  -1   3 2226.47  222.97   1
   0  -1   3 2750.80  220.74   2
   1  -1   3  111.05   10.57   2
   1  -1   3  111.86   10.69   1
  -1   1  -3  130.61   10.78   1
  -2   1  -3   14.17    1.88   1
   2  -1   3   12.92    1.77   1
   2  -1   3   17.40    1.86   3
  -2   1  -3   12.63    1.73   2
   3  -1   3 1517.53  135.80   1
  -3   1  -3 1554.07  135.88   1
   3  -1   3 1558.20  134.32   2
   3  -1   3 1528.96  140.06   3
  -3   1  -3 1640.82  134.38   2
   4  -1   3  400.23   36.04   3
   4  -1   3  385.38   34.83   1
   4  -1   3  415.07   34.48   2
  -4   1  -3  381.77   34.52   2
   5  -1   3  296.98   27.32   1
   5  -1   3  318.04   28.34   3
  -5   1  -3  301.82   27.13   2
  -5   1  -3  317.30   27.52   1
   6  -1   3  130.11   11.17   1
  -6   1  -3  111.94   11.27   1
  -6   1  -3  117.54   11.12   2
   7  -1   3   41.71    4.61   1
  -7   1  -3   40.37    4.65   2
   7  -1   3   45.00    4.89   3
  -7   1  -3   48.46    4.99   1
  -8   1  -3  108.45   10.54   2
   8  -1   3  121.44   11.08   3
  -8   1  -3  101.50   10.66   1
  -9   1  -3   20.17    3.02   2
   9  -1   3   26.19    3.33   3
  -9   1  -3   17.47    3.11   1
 -10   1  -3   34.02    4.57   1
 -12   0   3  375.60   33.97   1
 -11   0   3   33.73    4.19   1
 -11   0   3   29.72    4.09   2
  10   0  -3  157.57   15.05   3
 -10   0   3  153.81   14.48   2
  -9   0   3  147.16   12.67   1
  -9   0   3  121.85   12.36   2
   8   0  -3   12.98    1.79   1
   8   0  -3   10.08    1.65   4
  -8   0   3   11.31    1.85   2
  -8   0   3   10.04    1.63   3
  -8   0   3    9.93    1.85   1
  -7   0   3  715.32   58.86   3
   7   0  -3  563.88   56.92   1
  -7   0   3  716.81   57.28   1
  -7   0   3  670.80   56.63   2
   7   0  -3  594.81   56.09   4
  -6   0   3  670.07   55.72   1
   6   0  -3  713.55   54.86   2
  -6   0   3  548.95   57.25   3
  -6   0   3  608.45   54.94   2
  -5   0   3  175.20   15.12   2
   5   0  -3  181.37   15.00   4
   5   0  -3  195.07   15.86   3
   5   0  -3  145.65   15.11   1
   5   0  -3  160.47   14.90   2
   4   0  -3    3.69    0.76   3
   4   0  -3    3.20    0.65   1
  -4   0   3    4.65    0.79   3
  -4   0   3    1.86    0.70   1
  -4   0   3    2.93    0.55   4
  -4   0   3    2.33    0.65   2
  -4   0   3    3.05    0.64   2
   4   0  -3    1.81    0.51   2
  -3   0   3 1783.19  141.50   4
  -3   0   3 1618.12  142.51   2
  -3   0   3 1570.57  144.11   1
  -2   0   3 5208.63  424.81   2
  -2   0   3 4341.19  424.90   2
  -2   0   3 5267.29  443.21   3
   1   0  -3 4988.70  426.04   3
   1   0  -3 4945.81  413.21   1
  -1   0   3 4872.44  413.27   1
  -1   0   3 4189.32  408.62   2
   0   0  -3 6692.90  574.77   3
   0   0   3 6597.25  557.66   1
   0   0   3 5944.46  551.25   2
  -1   0  -3 1173.71  111.97   1
   1   0   3 1307.95  110.72   2
   1   0   3 1375.57  111.93   1
   2   0   3  117.79   10.36   2
   2   0   3  124.89   10.88   3
  -2   0  -3  121.03   10.55   1
   2   0   3   99.03   10.39   1
   3   0   3   81.83    6.75   3
   3   0   3   54.57    6.23   2
  -3   0  -3   80.62    6.44   2
  -3   0  -3   60.60    6.44   1
   3   0   3   64.87    6.36   1
  -4   0  -3  418.32   34.29   1
   4   0   3  423.47   35.40   3
   4   0   3  337.34   33.72   2
  -4   0  -3  394.98   33.87   2
   4   0   3  366.43   34.13   1
   5   0   3  544.60   53.02   3
  -5   0  -3  648.88   50.95   2
   5   0   3  594.45   50.77   2
   5   0   3  550.42   51.29   1
  -6   0  -3   93.10    8.71   2
   6   0   3   91.79    8.69   1
  -6   0  -3   92.24    8.86   1
   6   0   3   87.27    9.07   3
  -7   0  -3   73.47    7.09   2
   7   0   3   70.03    6.97   1
  -7   0  -3   84.50    7.37   1
   7   0   3   57.32    7.21   3
  -8   0  -3   36.34    4.50   2
   8   0   3   38.67    4.43   1
   8   0   3   39.75    4.71   3
  -8   0  -3   42.89    4.78   1
  -9   0  -3    2.88    1.43   2
  -9   0  -3    5.09    1.82   1
   9   0   3    5.68    1.67   3
 -10   0  -3   12.82    2.61   2
 -10   0  -3   18.54    3.10   1
 -12   1   3   16.03    2.86   1
 -11   1   3  110.98   10.49   2
  11  -1  -3  104.44   10.68   3
 -10   1   3   21.04    2.98   2
 -10   1   3   20.86    3.00   1
  10  -1  -3   22.02    2.85   3
  -9   1   3   17.70    2.47   2
  -9   1   3   17.94    2.59   1
  -8   1   3  175.51   16.47   1
  -8   1   3  187.92   16.38   2
  -7   1   3  149.01   14.75   3
   7  -1  -3  179.80   14.31   1
  -7   1   3  148.55   14.39   2
  -7   1   3  163.09   14.55   1
   6  -1  -3   13.97    1.39   1
  -6   1   3    8.90    1.46   2
  -6   1   3    8.09    1.31   2
  -6   1   3   10.40    1.37   3
   6  -1  -3   14.40    1.67   3
  -6   1   3   14.36    1.79   1
  -5   1   3  269.80   20.63   4
  -5   1   3  214.48   21.38   3
   5  -1  -3  247.82   20.69   1
  -5   1   3  211.84   20.49   2
   4  -1  -3    6.79    1.05   3
   4  -1  -3    5.85    0.90   1
  -4   1   3    4.87    0.99   1
  -4   1   3    7.18    1.01   2
  -4   1   3    5.03    0.92   3
  -4   1   3    4.93    0.98   4
  -4   1   3    4.52    0.85   2
  -3   1   3   67.41    6.22   2
   3  -1  -3   61.06    6.10   2
  -3   1   3   64.05    6.34   1
  -3   1   3   66.06    6.25   2
  -3   1   3   81.49    6.58   3
   3  -1  -3   76.52    6.58   3
   3  -1  -3   76.18    6.31   1
   2  -1  -3    6.37    0.90   1
  -2   1   3    5.07    0.80   2
  -2   1   3    8.86    1.02   1
   2  -1  -3    4.78    0.81   2
  -2   1   3    6.02    0.87   3
  -2   1   3    4.44    0.80   2
  -1   1   3    0.14    0.24   3
   1  -1  -3    0.27    0.29   3
  -1   1   3    0.85    0.34   2
   1  -1  -3    0.38    0.35   1
  -1   1   3    0.19    0.32   1
   1  -1  -3   -0.01    0.22   2
  -1   1   3    0.68    0.36   2
   0   1   3 1647.77  177.33   3
   0   1   3 2190.46  170.19   2
   0   1   3 2068.90  172.41   1
   0  -1  -3 2013.14  172.14   1
   1   1   3   93.30   10.08   3
   1   1   3  102.74    9.66   2
   1   1   3  122.17    9.84   1
  -1  -1  -3  113.42    9.89   1
   2   1   3   10.74    1.38   2
  -2  -1  -3   10.06    1.43   2
   2   1   3    6.70    1.32   3
   2   1   3   12.43    1.47   1
   3   1   3 1534.02  137.52   2
  -3  -1  -3 1816.14  137.70   2
   3   1   3 1444.94  139.04   1
   4   1   3  487.32   42.11   3
  -4  -1  -3  492.34   40.89   1
  -4  -1  -3  438.20   40.35   2
   4   1   3  435.13   40.72   1
   5   1   3  340.32   29.10   2
  -5  -1  -3  369.82   29.26   2
  -5  -1  -3  275.86   29.43   1
   5   1   3  319.81   29.43   1
   5   1   3  353.14   30.48   3
   6   1   3  151.05   13.03   3
  -6  -1  -3  129.09   12.59   1
   6   1   3  127.25   12.42   1
  -6  -1  -3  130.44   12.38   2
   7   1   3   42.45    5.40   1
   7   1   3   62.74    5.93   3
  -7  -1  -3   61.26    5.86   1
  -7  -1  -3   48.06    5.49   2
   8   1   3  102.22   10.98   3
  -8  -1  -3  135.08   11.02   1
   8   1   3  101.07   10.45   1
  -8  -1  -3  103.00   10.56   2
  -9  -1  -3   22.87    3.41   1
   9   1   3   19.00    3.28   3
  -9  -1  -3   18.51    3.13   2
 -10  -1  -3   35.26    4.93   1
 -10  -1  -3   40.64    4.93   2
 -11   2   3    1.37    1.16   2
  11  -2  -3    1.20    1.00   3
 -10   2   3   18.66    2.76   1
  10  -2  -3   20.23    2.70   3
 -10   2   3   25.53    2.99   2
  -9   2   3  598.47   52.12   2
   8  -2  -3  122.63   12.53   3
  -8   2   3  143.50   12.30   1
  -8   2   3  136.52   12.20   2
  -7   2   3  122.04   10.35   1
  -7   2   3  103.71   10.24   2
   6  -2  -3   74.31    6.91   3
  -6   2   3   63.97    6.43   2
  -6   2   3   80.58    6.85   4
  -5   2   3  844.26   68.15   4
  -5   2   3  756.47   69.11   1
  -5   2   3  774.19   68.26   2
  -5   2   3  798.93   68.37   2
  -4   2   3  951.77   83.74   3
  -4   2   3  920.89   80.02   4
   4  -2  -3  977.41   83.80   3
  -4   2   3  888.96   81.25   1
  -4   2   3  928.00   80.38   2
  -3   2   3  630.64   55.26   1
  -3   2   3  641.31   54.65   2
  -3   2   3  570.08   54.60   2
  -3   2   3  695.77   56.99   3
  -2   2   3   12.08    1.31   3
   2  -2  -3   11.99    1.23   1
   2  -2  -3    9.71    1.29   3
  -2   2   3   12.19    1.23   2
   1  -2  -3  169.60   14.53   2
   1  -2  -3  187.50   14.78   1
  -1   2   3  156.18   14.75   1
  -1   2   3  140.27   15.20   3
   1  -2  -3  153.15   15.24   3
  -1   2   3  181.81   14.61   2
  -1   2   3  181.28   14.59   2
   0  -2  -3    2.16    0.56   3
   0   2   3    0.14    0.38   2
   0  -2  -3   -0.07    0.43   1
   0   2   3    0.78    0.50   2
   0  -2  -3    0.04    0.39   2
   0   2   3    0.28    0.37   3
   0   2   3   -0.02    0.36   1
   1   2   3    5.52    0.90   2
  -1  -2  -3   10.00    1.25   1
   1   2   3    5.24    0.93   1
   1   2   3    5.34    1.00   3
   2   2   3 1611.11  145.03   1
   2   2   3 1703.13  143.45   2
  -2  -2  -3 1836.75  143.54   2
  -2  -2  -3 1438.95  145.04   1
   2   2   3 1743.19  149.59   3
   3   2   3  987.09   89.40   1
  -3  -2  -3 1047.50   89.52   1
   3   2   3 1038.17   88.43   2
   4   2   3 1049.82   96.66   1
  -4  -2  -3 1163.86   95.72   2
   4   2   3 1026.15   95.56   2
  -4  -2  -3 1191.13   96.81   1
   5   2   3   10.05    1.64   3
  -5  -2  -3    7.98    1.62   1
   5   2   3    7.82    1.44   2
  -5  -2  -3    7.84    1.50   2
   5   2   3    8.60    1.55   1
   6   2   3   20.28    3.19   1
  -6  -2  -3   34.28    3.59   1
  -6  -2  -3   30.84    3.31   2
   6   2   3   24.80    3.30   3
   7   2   3   18.69    2.74   1
  -7  -2  -3   14.53    2.56   2
  -7  -2  -3   19.26    2.90   1
   7   2   3   23.78    2.95   3
   8   2   3  222.16   19.60   1
   8   2   3  196.20   20.20   3
  -8  -2  -3  241.21   19.64   2
  -8  -2  -3  190.90   19.65   1
   9   2   3   15.99    2.85   3
  -9  -2  -3   12.51    2.64   2
   9   2   3   11.73    2.53   1
  -9  -2  -3   16.58    3.02   1
 -11   3   3   17.00    2.41   2
  11  -3  -3   13.71    2.11   3
  10  -3  -3   28.91    3.29   3
  -9   3   3   55.87    5.29   2
   9  -3  -3   49.95    5.25   3
  -8   3   3 1100.02   94.96   2
  -7   3   3   60.04    6.08   4
  -7   3   3   68.58    5.82   2
  -7   3   3   55.65    5.75   1
  -6   3   3    2.61    0.68   1
  -6   3   3    0.33    0.51   4
   6  -3  -3    0.85    0.45   3
  -6   3   3    0.39    0.49   2
  -5   3   3    1.61    0.63   1
  -5   3   3    3.17    0.85   4
  -5   3   3    3.35    0.45   2
  -5   3   3    5.33    0.68   2
   5  -3  -3    1.67    0.52   3
  -5   3   3    2.39    0.50   1
  -4   3   3   21.42    2.30   1
  -4   3   3   20.45    2.63   4
  -4   3   3   25.00    2.26   2
   4  -3  -3   26.15    2.38   3
  -3   3   3   72.85    7.17   2
  -3   3   3   87.85    7.31   1
  -3   3   3   87.11    7.33   1
  -2   3   3  167.12   14.06   2
  -2   3   3  181.08   14.68   3
  -2   3   3  147.90   14.06   2
  -2   3   3  151.37   14.23   1
   1  -3  -3  760.02   71.51   3
   1  -3  -3  855.12   69.36   1
  -1   3   3  744.94   68.53   2
  -1   3   3  867.95   68.61   2
  -1   3   3  751.85   69.31   1
   0   3   3  701.57   61.81   1
   0   3   3  704.03   61.20   2
   0  -3  -3  669.48   61.11   2
   0  -3  -3  728.52   63.81   3
   0   3   3  698.70   63.78   3
   0   3   3  749.93   61.16   2
   1   3   3  702.14   57.34   2
  -1  -3  -3  718.81   57.96   1
   1   3   3  682.71   57.22   2
   1   3   3  617.41   59.64   3
   1   3   3  686.28   57.87   1
  -1  -3  -3  565.92   57.16   2
   2   3   3   53.39    5.00   3
  -2  -3  -3   57.36    4.89   2
   2   3   3   41.82    4.69   2
  -2  -3  -3   51.11    4.93   1
   2   3   3   44.16    4.79   1
   3   3   3 2085.82  174.98   3
   3   3   3 1931.10  169.69   1
  -3  -3  -3 1970.64  169.75   1
   3   3   3 1710.84  167.72   2
  -3  -3  -3 2050.49  167.94   2
   4   3   3   92.26    9.28   1
   4   3   3   98.19    9.15   2
  -4  -3  -3   92.20    9.32   1
  -4  -3  -3  114.88    9.35   2
   5   3   3  292.55   26.81   2
   5   3   3  323.86   27.24   1
   5   3   3  320.12   28.08   3
  -5  -3  -3  279.94   26.85   2
  -6  -3  -3   15.91    2.38   2
   6   3   3   14.10    2.37   1
   6   3   3   19.23    2.51   3
  -6  -3  -3   15.74    2.52   1
   7   3   3  180.93   16.38   1
  -7  -3  -3  191.52   16.58   1
  -7  -3  -3  157.36   16.14   2
  -8  -3  -3   12.43    2.62   1
   8   3   3    9.08    2.19   3
   8   3   3   13.85    2.43   1
   9   3   3    2.70    1.63   1
  -9  -3  -3    2.74    1.81   1
   9   3   3    2.10    1.43   3
  10   3   3    8.39    2.34   1
 -11   4   3   42.76    4.62   2
 -10   4   3   48.92    4.97   2
  -9   4   3   10.06    1.63   2
   9  -4  -3   11.08    1.43   3
   8  -4  -3   16.67    1.83   3
   7  -4  -3   37.65    3.66   3
  -7   4   3   40.68    3.80   2
  -6   4   3  139.94   12.16   2
  -5   4   3   99.41    9.27   4
  -4   4   3  176.64   14.12   1
  -4   4   3  145.45   14.08   1
  -3   4   3  265.72   24.23   1
  -3   4   3  260.77   23.94   2
  -3   4   3  305.29   24.24   1
  -2   4   3 1141.71  106.43   1
  -2   4   3 1306.69  105.31   2
  -1   4   3  770.98   59.44   2
  -1   4   3  767.86   60.12   1
  -1   4   3  660.84   61.93   3
   1  -4  -3  596.27   60.01   1
  -1   4   3  649.90   59.42   2
   0   4   3  323.81   27.88   1
   0   4   3  346.21   27.56   2
   0   4   3  344.01   27.63   2
   0  -4  -3  306.13   27.87   1
   0   4   3  263.11   28.67   3
  -1  -4  -3 1408.27  130.31   1
   1   4   3 1569.77  128.87   2
   1   4   3 1347.89  128.88   2
   1   4   3 1660.53  130.38   1
  -2  -4  -3   83.37    9.02   2
  -2  -4  -3   94.39    9.23   1
   2   4   3  112.54    9.32   1
   2   4   3  108.52    9.12   2
   3   4   3  134.18   12.26   2
  -3  -4  -3  128.98   12.33   2
   3   4   3  150.02   12.54   1
  -3  -4  -3  144.03   12.53   1
   3   4   3  122.62   12.76   3
   4   4   3  106.27   11.12   1
  -4  -4  -3  137.89   11.36   1
  -4  -4  -3  115.22   11.10   2
   4   4   3  107.25   10.96   2
   4   4   3  137.47   11.66   3
  -5  -4  -3  269.92   23.74   1
   5   4   3  259.89   23.65   1
   5   4   3  276.67   23.37   2
   5   4   3  243.14   24.36   3
   6   4   3    1.17    1.04   1
   6   4   3    0.20    0.79   3
   6   4   3    2.01    1.01   2
  -6  -4  -3    1.65    1.22   1
  -7  -4  -3  321.71   27.15   1
   7   4   3  273.19   26.86   1
   7   4   3  298.27   27.83   3
   8   4   3    0.17    0.96   3
  -8  -4  -3    0.07    1.33   1
   8   4   3    0.26    1.16   1
   9   4   3    1.04    1.41   1
  -9  -4  -3    0.46    1.55   1
 -10   5   3    9.06    1.61   2
  -9   5   3   22.07    2.52   2
  -8   5   3   86.63    7.86   2
  -7   5   3    3.99    0.76   2
  -5   5   3  706.15   61.09   4
  -3   5   3   41.27    3.34   2
  -3   5   3   30.75    3.28   2
  -3   5   3   37.24    3.37   1
  -2   5   3   77.86    7.05   2
  -2   5   3   77.15    7.14   1
  -2   5   3   82.09    7.10   2
   1  -5  -3  194.96   18.03   1
  -1   5   3  206.98   17.99   2
  -1   5   3  217.98   18.17   1
  -1   5   3  174.45   18.63   3
  -1   5   3  232.36   18.00   2
   0   5   3 1052.21   91.24   2
   0   5   3 1048.21   92.25   1
   0  -5  -3 1032.96   92.25   1
   0   5   3 1121.14   95.12   3
   0   5   3 1035.87   91.25   2
   1   5   3   63.58    6.31   2
  -1  -5  -3   79.91    6.53   1
   1   5   3   59.76    6.37   1
   2   5   3   36.44    3.99   2
   2   5   3   35.13    4.09   1
   2   5   3   46.51    4.25   3
  -2  -5  -3   38.84    4.16   1
   3   5   3  288.52   24.69   3
   3   5   3  259.88   23.60   2
   3   5   3  226.75   23.84   1
  -3  -5  -3  293.92   24.00   1
   4   5   3  442.72   37.19   2
   4   5   3  437.12   37.68   1
  -4  -5  -3  391.21   37.58   1
   5   5   3   32.62    3.59   3
   5   5   3   25.27    3.35   1
  -5  -5  -3   31.70    3.61   1
   5   5   3   21.02    3.13   2
   6   5   3   72.02    8.12   1
   6   5   3   77.77    8.04   2
  -6  -5  -3   82.85    8.37   1
   6   5   3   97.10    8.68   3
  -7  -5  -3   30.56    4.01   1
   7   5   3   28.83    3.75   1
   7   5   3   22.63    3.54   3
  -8  -5  -3   22.88    4.00   1
   8   5   3   24.73    3.83   1
   8   5   3   35.59    4.26   3
 -10   6   3    1.89    0.84   2
  -9   6   3  315.04   27.48   2
  -8   6   3  136.55   12.05   2
  -7   6   3  157.60   13.75   2
  -4   6   3   51.80    5.26   2
  -4   6   3   64.55    5.34   2
  -4   6   3   69.77    6.29   4
  -3   6   3    5.66    0.82   2
  -3   6   3    4.81    0.75   2
  -3   6   3    5.55    0.83   1
  -2   6   3   44.21    4.12   2
  -2   6   3   43.23    4.17   1
  -1   6   3  220.32   19.73   1
  -1   6   3  224.31   19.53   2
   0   6   3  141.42   13.14   1
   0   6   3  149.08   13.01   2
   1   6   3   13.44    1.81   3
   1   6   3   11.77    1.83   1
  -1  -6  -3   15.16    1.97   1
   1   6   3   10.80    1.74   2
  -2  -6  -3  299.91   25.91   1
   2   6   3  259.48   26.53   3
   2   6   3  310.97   25.94   1
   3   6   3   41.09    4.37   2
   3   6   3   43.28    4.59   3
   3   6   3   42.23    4.60   1
  -3  -6  -3   38.42    4.62   1
   4   6   3 1096.23  102.86   1
  -4  -6  -3 1168.79  102.85   1
   4   6   3 1336.34  106.15   3
   4   6   3 1098.24  101.65   2
   5   6   3    2.19    1.16   1
   5   6   3    0.42    0.88   3
   5   6   3    0.29    0.86   2
  -5  -6  -3    0.93    1.15   1
  -6  -6  -3   21.04    3.22   1
   6   6   3   17.04    2.95   3
   6   6   3   19.73    3.00   1
   6   6   3   18.40    2.80   2
   7   6   3    2.62    1.41   3
   7   6   3    1.95    1.56   1
  -7  -6  -3    2.44    1.76   1
  -8  -6  -3   71.07    8.09   1
  -5   7   3   43.92    4.02   2
  -4   7   3   49.29    4.54   2
  -3   7   3   57.82    5.36   2
  -2   7   3   32.88    3.15   2
  -2   7   3   29.34    3.16   1
  -1   7   3   13.82    1.80   2
  -1   7   3   13.21    1.84   1
   0   7   3  186.99   17.12   1
   0   7   3  192.94   16.96   2
   1   7   3  103.65    9.49   2
   1   7   3   99.76    9.58   1
   2   7   3   28.74    3.46   1
   2   7   3   28.98    3.40   2
   3   7   3  547.39   49.30   2
   3   7   3  566.57   49.95   1
  -3  -7  -3  578.29   49.92   1
   4   7   3   41.44    4.92   1
  -4  -7  -3   44.67    5.07   1
   4   7   3   42.99    4.78   2
   5   7   3   54.60    5.93   2
  -5  -7  -3   50.45    6.12   1
   5   7   3   59.55    6.18   1
   6   7   3    2.86    1.45   1
  -6  -7  -3    2.24    1.68   1
   6   7   3    2.17    1.39   2
   7   7   3   86.66    9.08   1
  -7  -7  -3   85.94    9.34   1
  -6   8   3   89.28    7.89   2
  -5   8   3    7.92    1.09   2
  -4   8   3  184.19   16.20   2
  -3   8   3    0.67    0.60   2
  -2   8   3  178.20   15.84   2
  -1   8   3  196.91   17.58   1
  -1   8   3  193.41   17.41   2
   0   8   3   40.10    4.55   1
   0   8   3   46.97    4.56   2
   1   8   3  299.61   25.68   2
   1   8   3  278.13   25.89   1
   2   8   3   28.67    3.52   2
   2   8   3   29.92    3.62   1
   3   8   3  118.28   11.68   1
   3   8   3  124.17   11.53   2
   4   8   3    3.69    1.56   1
   4   8   3    2.41    1.32   2
   5   8   3   50.07    6.14   2
   5   8   3   62.39    6.48   1
   6   8   3   18.49    3.15   1
  -5   9   3   38.06    3.70   2
  -4   9   3   83.61    7.65   2
  -3   9   3    2.86    0.93   2
  -2   9   3    1.01    0.75   2
  -1   9   3  110.14   10.26   2
   0   9   3  299.57   26.58   2
   1   9   3    3.92    1.37   2
   1   9   3    4.15    1.41   1
   2   9   3   11.63    2.24   2
   2   9   3   14.83    2.46   1
   3   9   3   85.40    8.38   2
   3   9   3   79.86    8.49   1
   4   9   3   51.65    6.15   1
   4   9   3   55.34    6.02   2
  -4  10   3  107.45    9.82   2
  -3  10   3   17.47    2.33   2
  -2  10   3    0.82    0.95   2
  -1  10   3   46.23    4.89   2
   2  10   3   85.87    8.85   1
   3  10   3  111.58   11.19   1
   4  10  -4   97.20   10.11   1
   3  10  -4  126.17   12.54   1
   2  10  -4   31.74    4.42   1
   1  10  -4   16.44    2.97   1
   6   9  -4   37.61    5.03   1
   6   9  -4   38.90    4.95   2
   5   9  -4   11.05    2.57   1
   5   9  -4    7.68    2.31   2
  -4  -9   4  131.53   14.53   3
   4   9  -4  151.56   14.35   1
   4   9  -4  162.35   14.24   2
  -3  -9   4  133.50   12.96   3
   3   9  -4  133.07   12.48   2
   3   9  -4  120.51   12.53   1
   2   9  -4    1.39    1.39   1
   2   9  -4    0.31    1.12   2
  -2  -9   4    1.25    1.17   3
  -1  -9   4   39.02    4.67   3
   1   9  -4   40.85    4.67   2
   1   9  -4   33.14    4.68   1
   0   9  -4  137.38   12.75   2
   0  -9   4  123.62   13.11   3
   0   9  -4  140.16   13.02   1
  -1   9  -4  174.57   16.07   2
  -1   9  -4  176.71   16.28   1
   1  -9   4  165.23   16.57   3
  -2   9  -4   43.83    5.04   2
   2  -9   4   43.17    5.11   3
   3  -9   4   55.59    6.20   3
   8   8  -4   13.94    2.84   1
  -8  -8   4    9.72    2.79   1
  -7  -8   4  129.00   12.34   1
  -7  -8   4  122.28   12.52   3
   7   8  -4  114.82   12.11   1
  -6  -8   4   94.42    8.72   3
  -6  -8   4   79.05    8.30   1
   6   8  -4   66.43    8.13   1
   6   8  -4   71.51    7.96   2
  -5  -8   4    3.00    1.37   3
  -5  -8   4    2.82    1.64   1
   5   8  -4    1.43    1.33   2
   5   8  -4    2.56    1.47   1
  -4  -8   4    3.56    1.54   1
  -4  -8   4    2.44    1.23   3
   4   8  -4    3.62    1.49   2
   4   8  -4    2.62    1.39   1
   3   8  -4   16.38    2.76   2
   3   8  -4   19.25    2.93   1
  -3  -8   4   18.97    3.04   3
   2   8  -4   83.51    7.97   1
  -2  -8   4   73.86    7.95   3
   2   8  -4   71.85    7.64   2
   1   8  -4  154.26   14.76   2
   1   8  -4  164.17   15.10   1
  -1  -8   4  159.96   15.43   3
   0   8  -4  279.14   24.97   2
   0  -8   4  277.23   26.00   3
   0   8  -4  276.14   25.27   1
   1  -8   4  339.90   30.15   3
  -1   8  -4  308.20   28.83   2
  -1   8  -4  322.37   29.28   1
  -2   8  -4  158.17   14.87   2
   2  -8   4  165.64   15.56   3
  -2   8  -4  155.90   15.09   1
   3  -8   4   16.33    2.62   3
  -3   8  -4   12.68    2.37   2
   4  -8   4   37.58    4.46   3
  -4   8  -4   34.21    4.21   2
   5  -8   4    0.89    1.08   3
  -9  -7   4    8.54    2.62   1
   9   7  -4    8.50    2.48   1
  -9  -7   4    8.83    2.47   3
  -8  -7   4   30.69    4.52   1
  -8  -7   4   35.11    4.53   3
   8   7  -4   30.47    4.42   1
  -7  -7   4  123.77   11.45   1
   7   7  -4  101.39   11.12   1
  -7  -7   4  114.27   11.55   3
  -6  -7   4    2.09    1.17   3
   6   7  -4    0.28    1.16   1
   6   7  -4    0.71    1.21   2
  -6  -7   4    1.75    1.33   1
  -5  -7   4   47.00    5.47   3
   5   7  -4   47.24    5.41   1
  -5  -7   4   55.04    5.56   1
   5   7  -4   42.50    5.20   2
  -4  -7   4   40.10    4.78   3
   4   7  -4   39.39    4.75   1
   4   7  -4   42.31    4.68   2
  -4  -7   4   40.31    4.76   1
  -3  -7   4  389.65   33.70   1
  -3  -7   4  391.30   34.85   3
   3   7  -4  359.59   33.34   2
   3   7  -4  365.38   33.74   1
  -2  -7   4  280.15   26.49   3
   2   7  -4  268.26   25.37   2
  -2  -7   4  307.16   25.65   1
   2   7  -4  281.04   25.77   1
  -1  -7   4   76.77    7.95   3
   1   7  -4   78.60    7.64   2
   1   7  -4   75.61    7.79   1
   0  -7   4  176.34   16.68   3
   0   7  -4  174.24   16.21   1
   0   7  -4  172.49   15.95   2
  -1   7  -4   37.73    4.43   1
  -1   7  -4   37.43    4.28   2
   1  -7   4   37.72    4.39   3
  -2   7  -4  156.72   14.15   2
  -2   7  -4  151.85   14.31   1
   2  -7   4  150.24   14.76   3
   3  -7   4    3.12    1.30   3
  -3   7  -4    1.44    1.04   2
  -3   7  -4    0.93    1.19   1
  -4   7  -4   18.20    3.04   1
  -4   7  -4   21.27    2.94   2
   4  -7   4   22.00    3.01   3
   5  -7   4   14.45    2.61   3
  -5   7  -4   12.94    2.23   2
   6  -7   4    1.15    1.12   3
  10   6  -4   43.68    5.50   1
 -10  -6   4   41.95    5.67   1
 -10  -6   4   45.54    5.67   3
  -9  -6   4    1.06    1.52   1
   9   6  -4    1.30    1.53   1
  -9  -6   4   -0.01    1.20   3
  -8  -6   4   82.27    9.11   3
   8   6  -4   89.17    8.93   1
  -8  -6   4   85.27    8.98   1
  -7  -6   4    2.98    1.41   3
   7   6  -4    3.70    1.61   1
  -7  -6   4    2.86    1.45   1
   6   6  -4   24.97    3.41   2
   6   6  -4   25.07    3.55   1
  -6  -6   4   23.93    3.55   1
  -6  -6   4   31.96    3.69   3
   5   6  -4   27.33    3.80   1
   5   6  -4   33.49    3.84   2
  -5  -6   4   29.61    3.92   1
  -5  -6   4   33.23    3.91   3
  -4  -6   4  851.60   85.99   3
   4   6  -4 1020.26   82.57   2
  -4  -6   4  934.97   83.42   1
   4   6  -4  995.33   83.53   1
  -3  -6   4  787.56   74.24   3
   3   6  -4  865.80   72.12   1
  -3  -6   4  804.78   71.93   1
   2   6  -4  578.69   53.07   2
  -2  -6   4  584.06   55.37   3
  -2  -6   4  658.30   53.64   1
   2   6  -4  612.08   53.75   1
  -1  -6   4   80.52    8.07   3
   1   6  -4   84.26    7.95   1
  -1  -6   4   77.23    7.63   1
   1   6  -4   75.75    7.67   2
   0  -6   4   22.71    2.89   3
   0   6  -4   20.17    2.94   1
   0  -6   4   23.07    2.72   1
   0   6  -4   22.62    2.83   2
  -1   6  -4  399.36   35.79   1
  -1   6  -4  410.39   35.40   2
   1  -6   4  397.18   36.93   3
  -2   6  -4   24.73    3.10   2
   2  -6   4   24.74    3.15   3
  -2   6  -4   24.64    3.28   1
   3  -6   4  156.10   15.80   3
  -3   6  -4  168.43   15.40   1
  -3   6  -4  173.51   15.21   2
   4  -6   4  291.34   25.71   3
  -4   6  -4  283.93   24.52   2
  -4   6  -4  249.98   24.73   1
   5  -6   4   15.38    2.49   3
  -5   6  -4   15.01    2.39   1
  -5   6  -4   12.50    2.19   2
  -6   6  -4   18.41    2.63   2
   6  -6   4   15.19    2.60   3
   7  -6   4   15.80    2.63   3
  11   5  -4   56.67    6.71   1
  10   5  -4   89.81    8.44   1
 -10  -5   4   67.27    8.38   1
   9   5  -4   23.37    3.41   1
  -9  -5   4   17.55    3.27   1
  -9  -5   4   22.86    3.52   3
  -8  -5   4   24.11    3.72   1
   8   5  -4   29.70    3.74   1
  -8  -5   4   26.34    3.64   3
  -7  -5   4   53.09    6.08   3
  -7  -5   4   50.29    5.76   2
   7   5  -4   57.12    6.05   1
  -7  -5   4   58.29    6.09   1
   6   5  -4   59.48    5.66   2
  -6  -5   4   61.42    5.89   1
  -6  -5   4   46.40    5.69   3
   6   5  -4   52.88    5.76   1
  -6  -5   4   45.59    5.52   2
   5   5  -4   22.44    2.88   2
  -5  -5   4   20.06    2.96   1
  -5  -5   4   22.25    3.06   2
   5   5  -4   21.27    3.09   1
  -5  -5   4   24.60    3.07   3
   4   5  -4    1.61    0.89   2
  -4  -5   4    0.31    0.84   1
   4   5  -4    1.06    0.95   1
  -4  -5   4    0.39    0.75   2
  -4  -5   4    0.78    0.75   3
  -3  -5   4   75.24    7.25   2
   3   5  -4   69.98    7.24   2
  -3  -5   4   74.40    7.39   1
   3   5  -4   79.55    7.52   1
   3   5  -4   75.17    6.59   4
  -3  -5   4   78.64    7.66   3
  -2  -5   4   63.74    6.51   1
  -2  -5   4   64.54    6.80   3
   2   5  -4   67.35    6.49   2
   2   5  -4   70.50    6.72   1
   1   5  -4  415.19   34.47   1
  -1  -5   4  364.49   35.40   3
  -1  -5   4  399.23   34.31   1
   1   5  -4  369.96   33.95   2
   0   5  -4  870.23   78.94   2
   0  -5   4  932.53   82.38   3
   0  -5   4  931.24   79.78   1
   0   5  -4  912.57   79.87   1
  -1   5  -4  557.43   47.76   2
   1  -5   4  539.85   48.15   1
   1  -5   4  524.23   49.78   3
  -1   5  -4  569.23   48.37   1
  -2   5  -4   41.60    4.68   1
   2  -5   4   43.29    4.53   4
   2  -5   4   43.99    4.77   3
   2  -5   4   44.10    4.45   1
  -2   5  -4   45.16    4.59   2
  -3   5  -4   59.60    5.79   2
   3  -5   4   58.20    6.01   3
  -3   5  -4   54.71    5.86   1
  -4   5  -4    9.30    1.76   2
   4  -5   4   10.98    1.87   3
  -4   5  -4    8.35    1.78   1
  -5   5  -4  106.93   11.05   1
   5  -5   4  120.41   11.51   3
  -5   5  -4  125.56   11.05   2
  -6   5  -4   19.86    2.79   2
   6  -5   4   18.95    2.75   3
  -6   5  -4   21.46    2.86   1
  -7   5  -4    2.86    1.30   2
  -7   5  -4    2.14    1.34   1
   7  -5   4    2.73    1.14   3
 -11  -4   4  306.44   27.46   1
  11   4  -4  287.22   27.15   1
 -10  -4   4   57.99    5.93   2
 -10  -4   4   44.44    5.87   1
  10   4  -4   50.15    5.76   1
  -9  -4   4    3.90    1.65   1
  -9  -4   4    4.68    1.63   3
  -9  -4   4    3.79    1.49   2
   9   4  -4    4.30    1.50   1
   8   4  -4    9.36    1.92   1
  -8  -4   4    5.56    1.75   1
  -8  -4   4    5.96    1.69   3
  -8  -4   4    9.21    1.81   2
  -7  -4   4  574.28   51.60   2
   7   4  -4  583.25   52.17   1
  -7  -4   4  610.42   52.28   1
   6   4  -4  279.21   26.71   2
  -6  -4   4  323.86   27.26   1
   6   4  -4  282.16   27.10   1
  -6  -4   4  325.79   28.11   3
   5   4  -4  311.92   26.97   2
   5   4  -4  295.79   27.33   1
  -5  -4   4  343.19   28.36   3
  -5  -4   4  303.65   27.30   1
  -5  -4   4  273.25   26.97   2
   4   4  -4   55.02    5.38   2
  -4  -4   4   53.09    5.60   3
   4   4  -4   49.03    5.45   1
  -4  -4   4   54.81    5.36   2
  -3  -4   4  154.52   16.12   3
  -3  -4   4  191.35   15.52   2
   3   4  -4  170.15   15.70   1
   2   4  -4  594.92   59.31   2
   2   4  -4  709.77   60.17   1
  -2  -4   4  824.70   59.49   2
  -2  -4   4  611.45   61.91   3
  -1  -4   4  842.68   72.97   1
  -1  -4   4  797.86   72.06   2
  -1  -4   4  856.05   75.31   3
   1   4  -4  896.10   72.23   2
   1   4  -4  775.52   72.94   1
   0  -4   4 1558.15  139.54   1
   0  -4   4 1575.12  143.97   3
   0   4  -4 1670.02  138.10   2
   0   4  -4 1550.05  139.65   1
   0  -4   4 1654.49  137.99   2
  -1   4  -4 1129.43   99.90   1
  -1   4  -4 1196.90   98.81   2
   1  -4   4 1115.93   97.96   4
   1  -4   4 1083.76  102.99   3
   1  -4   4 1191.11   99.83   1
  -2   4  -4  321.64   33.01   2
   2  -4   4  355.15   32.84   4
  -2   4  -4  386.17   33.52   1
   2  -4   4  425.51   34.62   3
   2  -4   4  403.45   33.48   1
  -3   4  -4   73.13    7.79   2
  -3   4  -4   83.86    7.97   1
   3  -4   4   82.58    8.18   3
   3  -4   4   91.98    7.96   1
   3  -4   4   82.38    7.89   4
  -4   4  -4  327.13   26.97   1
  -4   4  -4  258.85   26.54   2
   4  -4   4  318.90   27.80   3
  -5   4  -4   32.96    3.92   2
  -5   4  -4   40.64    4.11   1
   5  -4   4   33.66    3.99   3
   6  -4   4  127.12   13.07   3
  -6   4  -4  132.88   12.60   2
  -6   4  -4  149.67   12.91   1
  -7   4  -4   16.97    2.61   1
  -7   4  -4   14.24    2.31   2
   7  -4   4   12.02    2.26   3
  -8   4  -4   11.91    2.39   1
   8  -4   4   11.82    2.24   3
  -8   4  -4   12.86    2.22   2
 -12  -3   4   32.56    4.48   2
 -11  -3   4    2.76    1.71   1
 -11  -3   4    2.70    1.59   2
  10   3  -4   58.52    6.22   1
 -10  -3   4   54.09    6.35   1
 -10  -3   4   57.52    6.19   2
  -9  -3   4    1.08    1.10   2
   9   3  -4    1.35    1.10   1
  -9  -3   4    0.72    1.03   3
  -9  -3   4    0.91    1.21   1
  -8  -3   4  270.50   22.73   3
   8   3  -4  239.81   21.84   1
  -8  -3   4  197.99   21.57   2
  -8  -3   4  257.19   22.07   1
  -7  -3   4    4.61    1.55   1
  -7  -3   4    7.48    1.59   2
   7   3  -4    9.56    1.84   1
  -7  -3   4   10.52    1.85   3
   6   3  -4    0.91    0.40   4
  -6  -3   4    0.69    0.78   2
   6   3  -4    0.68    0.78   2
  -6  -3   4   -0.25    0.76   1
   6   3  -4    0.59    0.84   1
  -6  -3   4    0.10    0.60   3
  -5  -3   4   30.54    3.13   2
   5   3  -4   23.67    2.33   4
  -5  -3   4   35.10    3.35   1
  -5  -3   4   18.31    2.92   3
   5   3  -4   30.94    3.04   2
   4   3  -4  990.66   83.15   1
  -4  -3   4  871.62   83.03   1
   4   3  -4  914.09   82.12   2
  -4  -3   4  899.15   85.66   3
  -4  -3   4 1075.03   82.25   2
  -3  -3   4 1353.99  138.36   2
   3   3  -4 1819.13  140.16   1
  -3  -3   4 1427.69  139.96   1
  -3  -3   4 1721.50  144.48   3
   3   3  -4 1717.16  138.49   2
  -2  -3   4  532.32   40.13   2
   2   3  -4  460.08   40.55   1
  -2  -3   4  388.95   41.71   3
  -1  -3   4    7.20    0.96   4
  -1  -3   4    7.72    1.43   3
   1   3  -4    8.38    1.38   2
  -1  -3   4   10.58    1.49   2
   1   3  -4    6.30    1.33   1
   0  -3   4   97.98    8.65   4
   0  -3   4   97.28    8.88   2
   0   3  -4   98.02    9.06   1
   0   3  -4  107.61    8.96   2
   0  -3   4   95.86    9.03   1
   0  -3   4   85.32    9.27   3
   1  -3   4  550.81   45.28   2
  -1   3  -4  509.88   45.82   1
   1  -3   4  547.17   44.92   4
   1  -3   4  534.18   45.84   1
   1  -3   4  488.05   47.22   3
  -1   3  -4  495.19   45.28   2
   2  -3   4  589.64   51.20   1
  -2   3  -4  611.28   50.70   2
   2  -3   4  567.67   50.29   4
   2  -3   4  550.60   52.76   3
  -2   3  -4  595.93   51.23   1
   3  -3   4   71.10    7.11   1
   3  -3   4   67.11    7.27   3
   3  -3   4   73.85    7.07   4
  -3   3  -4   85.95    7.26   1
   4  -3   4    0.97    0.66   3
  -4   3  -4    0.46    0.76   1
  -4   3  -4    0.11    0.73   2
   4  -3   4    0.30    0.57   1
   5  -3   4   20.28    2.93   3
  -5   3  -4   22.38    2.96   2
   5  -3   4   27.56    3.05   1
  -5   3  -4   31.08    3.26   1
  -6   3  -4   14.70    2.10   2
  -6   3  -4    8.93    2.05   1
   6  -3   4   14.63    2.25   3
   7  -3   4    0.94    0.98   3
  -7   3  -4    0.85    1.13   1
  -7   3  -4    1.86    1.04   2
  -8   3  -4  126.56   13.35   2
   8  -3   4  157.29   14.18   3
  -8   3  -4  149.06   13.77   1
  -9   3  -4    0.36    1.48   1
 -12  -2   4    6.16    2.17   1
 -12  -2   4    8.21    2.17   2
 -11  -2   4    7.71    1.87   2
 -11  -2   4    4.07    1.87   1
 -10  -2   4   91.80    9.10   2
 -10  -2   4   84.95    9.20   1
  10   2  -4   96.93    9.08   1
  -9  -2   4    8.48    2.08   1
  -9  -2   4   11.02    2.13   2
   9   2  -4   11.47    1.98   1
  -8  -2   4  643.20   54.44   3
  -8  -2   4  564.09   52.16   2
   8   2  -4  584.74   52.62   1
  -7  -2   4   49.92    4.57   2
  -7  -2   4   40.22    4.49   3
  -7  -2   4   34.99    4.45   1
   7   2  -4   46.61    3.99   4
   7   2  -4   32.27    4.24   1
   6   2  -4   19.01    2.48   1
  -6  -2   4   21.78    2.67   1
   6   2  -4   15.20    2.25   2
  -6  -2   4   22.71    2.56   3
  -6  -2   4   18.23    2.48   2
  -5  -2   4  261.68   21.96   1
  -5  -2   4  239.28   22.61   3
  -5  -2   4  266.45   21.73   2
   5   2  -4  214.34   21.50   2
  -4  -2   4 2101.03  184.85   2
  -4  -2   4 2045.16  186.89   1
   4   2  -4 2190.17  186.95   1
  -4  -2   4 2253.39  192.77   3
  -3  -2   4  965.38   94.95   2
   3   2  -4 1201.74   95.03   2
  -3  -2   4 1160.22   96.07   1
   3   2  -4 1077.09   96.11   1
  -2  -2   4 2270.40  200.51   2
  -2  -2   4 2639.53  209.12   3
   2   2  -4 2145.76  202.69   1
   2   2  -4 2269.55  200.48   2
  -1  -2   4   96.10    9.63   2
   1   2  -4  118.59    9.85   1
  -1  -2   4  109.19    9.81   1
   1   2  -4  103.42    9.63   2
   0   2  -4  253.16   24.75   1
   0  -2   4  294.29   24.54   2
   0  -2   4  291.12   25.58   3
   1  -2   4 1362.88  130.49   1
   1  -2   4 1521.24  129.14   2
   1  -2   4 1367.31  134.51   3
  -1   2  -4 1743.05  130.62   1
   2  -2   4    5.41    1.05   2
   2  -2   4    5.23    1.06   1
  -2   2  -4    7.30    1.23   2
  -2   2  -4    6.24    1.24   1
   2  -2   4    4.56    1.04   3
  -3   2  -4  352.84   31.28   1
   3  -2   4  368.87   31.24   1
   3  -2   4  331.08   32.19   3
   3  -2   4  358.37   30.83   2
  -3   2  -4  350.33   30.88   2
   4  -2   4   60.09    5.83   1
   4  -2   4   67.30    6.11   3
  -4   2  -4   52.97    5.69   2
  -4   2  -4   54.77    5.89   1
  -5   2  -4  203.84   17.43   2
   5  -2   4  169.07   18.09   3
   5  -2   4  194.77   17.58   1
  -5   2  -4  208.22   17.77   1
   6  -2   4   44.98    4.64   1
   6  -2   4   39.41    4.67   3
  -6   2  -4   45.56    4.76   1
  -6   2  -4   39.13    4.44   2
  -7   2  -4   87.82    9.27   1
  -7   2  -4   96.59    9.13   2
   7  -2   4   98.67    9.60   3
  -8   2  -4   72.76    8.23   2
   8  -2   4  102.84    9.02   3
  -8   2  -4   80.20    8.56   1
  -9   2  -4  122.62   12.13   1
 -12  -1   4  112.62    9.98   1
 -12  -1   4   79.45    9.52   2
 -11  -1   4   16.22    2.77   2
 -11  -1   4   14.34    2.85   1
 -10  -1   4  141.74   14.92   1
 -10  -1   4  178.47   14.97   2
   9   1  -4    0.95    0.91   1
  -9  -1   4    0.04    0.82   2
  -9  -1   4    0.83    0.96   1
   8   1  -4   22.69    2.82   1
  -8  -1   4   31.96    3.34   1
   8   1  -4   19.56    2.57   4
  -7  -1   4  272.80   22.47   1
  -7  -1   4  264.22   23.02   3
   7   1  -4  236.05   21.74   4
  -7  -1   4  241.53   22.14   2
   7   1  -4  232.83   22.19   1
  -6  -1   4   83.53    8.56   2
  -6  -1   4   94.39    8.94   3
   6   1  -4   98.04    8.43   2
  -5  -1   4   66.61    6.64   1
   5   1  -4   59.79    6.38   2
  -5  -1   4   82.45    6.62   2
  -4  -1   4  266.96   23.12   1
  -4  -1   4  226.16   22.78   2
   4   1  -4  277.99   22.78   2
   4   1  -4  269.20   23.11   1
  -3  -1   4 1009.13   85.27   3
   3   1  -4  924.98   82.66   1
  -3  -1   4  950.52   80.96   4
  -3  -1   4  904.17   82.62   1
   2   1  -4  425.85   39.39   2
  -2  -1   4  452.84   39.91   1
  -2  -1   4  481.04   39.50   2
  -1  -1   4 1347.19  114.04   1
  -1  -1   4 1329.29  117.54   3
  -1  -1   4 1359.59  112.84   2
   1   1  -4 1193.70  112.70   2
   0  -1   4 2854.58  227.59   2
   0  -1   4 2810.70  230.06   1
   0   1  -4 2475.73  227.16   2
   0  -1   4 2498.06  236.77   3
   0   1  -4 2578.20  229.71   1
  -1   1  -4  694.57   55.67   2
   1  -1   4  667.25   55.63   2
  -1   1  -4  588.07   56.22   1
   1  -1   4  682.76   56.26   1
   1  -1   4  577.31   57.90   3
   2  -1   4  460.04   40.78   2
  -2   1  -4  490.70   40.82   2
   2  -1   4  520.12   42.61   3
  -2   1  -4  405.27   41.24   1
   3  -1   4    8.36    1.46   1
   3  -1   4   11.13    1.59   3
  -3   1  -4    8.55    1.60   1
   3  -1   4   12.54    1.57   2
  -3   1  -4    7.57    1.42   2
   4  -1   4    7.90    1.41   1
   4  -1   4   10.23    1.60   3
  -4   1  -4    6.88    1.51   1
  -4   1  -4    7.55    1.42   2
  -5   1  -4  117.02   11.86   2
  -5   1  -4  140.68   12.22   1
   5  -1   4  138.73   12.52   3
   5  -1   4  124.58   11.99   1
   6  -1   4    3.25    1.19   3
  -6   1  -4    4.09    1.33   1
   6  -1   4    3.35    1.12   1
  -6   1  -4    5.85    1.36   2
   7  -1   4   33.74    4.01   3
   7  -1   4   38.45    3.99   1
  -7   1  -4   35.35    4.06   1
  -7   1  -4   23.13    3.62   2
  -8   1  -4   81.48    9.83   1
  -8   1  -4  100.92    9.85   2
   8  -1   4  124.44   10.55   3
  -9   1  -4    7.46    2.27   1
  -9   1  -4    7.82    1.95   2
 -12   0   4    0.27    1.37   1
 -11   0   4  473.79   39.28   1
 -11   0   4  402.53   38.74   2
 -10   0   4   86.46    8.04   1
 -10   0   4   71.82    7.77   2
  -9   0   4   57.34    6.22   1
  -9   0   4   65.07    6.29   2
   8   0  -4  207.84   17.25   4
   8   0  -4  192.71   17.24   1
  -8   0   4  166.12   17.25   2
  -8   0   4  203.31   17.57   1
  -7   0   4  609.87   57.62   3
   7   0  -4  556.37   55.76   1
   7   0  -4  715.43   55.08   4
  -7   0   4  674.47   55.47   2
   6   0  -4  171.97   15.71   2
  -6   0   4  172.36   16.55   3
  -6   0   4  181.86   15.97   2
  -6   0   4  165.12   16.13   1
   6   0  -4  203.28   16.79   3
  -6   0   4  166.35   15.85   2
   6   0  -4  193.94   16.03   1
  -5   0   4  572.26   43.77   4
   5   0  -4  527.58   44.57   1
   5   0  -4  484.35   43.96   2
  -5   0   4  472.61   44.06   2
  -5   0   4  506.41   44.66   1
  -5   0   4  488.61   44.13   2
  -4   0   4   93.66    9.85   2
   4   0  -4  106.38   10.41   3
  -4   0   4  130.67    9.78   4
  -4   0   4   96.76   10.02   1
   4   0  -4  126.35   10.09   1
  -3   0   4  415.73   39.16   2
   3   0  -4  504.47   40.95   3
  -3   0   4  410.96   40.87   3
  -3   0   4  478.98   39.69   1
  -2   0   4  590.83   49.19   2
  -2   0   4  491.73   49.72   1
   2   0  -4  599.03   51.31   3
   2   0  -4  537.77   49.15   2
  -2   0   4  626.59   49.26   2
   1   0  -4  451.54   42.69   3
  -1   0   4  451.01   40.96   2
   1   0  -4  457.11   40.91   2
  -1   0   4  470.02   41.42   1
  -1   0   4  530.22   42.75   3
   0   0   4 1517.92  116.95   2
   0   0  -4 1197.94  116.87   2
   1   0   4  359.91   35.45   2
   1   0   4  437.48   35.93   1
   1   0   4  429.40   37.10   3
   2   0   4  907.08   77.68   1
   2   0   4  907.47   80.19   3
   2   0   4  852.40   76.83   2
  -2   0  -4  891.67   76.88   2
   3   0   4  141.13   12.05   1
  -3   0  -4  117.55   11.86   2
   3   0   4  136.93   11.91   2
   4   0   4  595.67   51.46   1
   4   0   4  555.30   53.13   3
   4   0   4  607.79   50.92   2
  -4   0  -4  556.46   51.53   1
  -4   0  -4  611.98   50.97   2
   5   0   4   20.56    2.88   3
  -5   0  -4   31.80    3.28   1
  -5   0  -4   22.32    2.87   2
   5   0   4   22.46    2.86   1
   6   0   4  178.61   17.41   1
   6   0   4  215.99   18.28   3
  -6   0  -4  182.99   17.33   2
  -6   0  -4  191.07   17.65   1
  -7   0  -4   32.56    3.46   2
   7   0   4   19.81    3.15   3
   7   0   4   21.22    3.11   1
  -7   0  -4   29.77    3.56   1
   8   0   4   14.32    2.33   1
   8   0   4   10.97    2.32   3
  -8   0  -4   13.87    2.44   2
  -8   0  -4   12.28    2.49   1
  -9   0  -4   21.05    3.43   2
  -9   0  -4   29.08    3.92   1
  11  -1  -4   18.38    2.66   3
 -11   1   4   11.62    2.39   1
 -11   1   4   14.27    2.46   2
 -10   1   4  179.15   16.56   1
 -10   1   4  179.68   16.40   2
  -9   1   4    0.56    0.94   1
  -9   1   4    0.74    0.85   2
  -8   1   4   30.42    3.37   1
  -8   1   4   24.87    3.22   2
  -7   1   4  228.26   21.17   2
  -7   1   4  241.89   21.41   1
   7  -1  -4  237.49   21.15   1
  -7   1   4  250.52   21.91   3
  -6   1   4  158.64   13.03   3
   6  -1  -4  129.65   12.49   1
   6  -1  -4  144.91   13.18   3
  -6   1   4  139.02   12.75   1
  -6   1   4  135.89   12.52   4
  -6   1   4  136.21   12.57   2
  -5   1   4   95.66    8.23   4
  -5   1   4   85.67    8.35   1
  -5   1   4  101.87    8.55   3
  -5   1   4   94.63    8.25   2
  -5   1   4   83.24    8.13   2
   5  -1  -4   84.12    8.18   1
  -4   1   4  219.04   21.03   1
  -4   1   4  225.37   20.74   2
   4  -1  -4  269.56   21.00   1
  -3   1   4  962.07   83.42   1
   3  -1  -4  990.38   86.00   3
  -3   1   4 1054.14   82.48   2
  -3   1   4  916.93   85.99   3
  -3   1   4  862.62   82.48   2
  -2   1   4  536.80   45.72   1
  -2   1   4  514.82   45.14   2
  -2   1   4  498.99   47.07   3
   2  -1  -4  522.67   45.66   1
   2  -1  -4  560.47   47.12   3
  -2   1   4  491.58   45.15   2
  -1   1   4 1284.68  111.57   2
   1  -1  -4 1355.09  116.32   3
  -1   1   4 1242.79  112.79   1
   0   1   4 2782.88  226.23   1
   0   1   4 2633.39  224.37   2
   0   1   4 2391.77  233.19   3
   1   1   4  564.22   51.14   2
   1   1   4  601.29   51.74   1
  -1  -1  -4  606.46   51.86   1
  -2  -1  -4  532.75   47.96   1
   2   1   4  560.25   47.36   2
  -2  -1  -4  544.24   47.38   2
   3   1   4    8.23    1.23   2
   3   1   4    8.75    1.46   3
  -3  -1  -4    7.04    1.42   1
  -3  -1  -4    6.74    1.28   2
   3   1   4    6.61    1.29   1
   4   1   4    9.29    1.59   3
  -4  -1  -4    5.83    1.40   1
   4   1   4    5.70    1.16   2
  -4  -1  -4    7.89    1.40   2
   4   1   4    7.18    1.39   1
   5   1   4  139.03   12.61   1
   5   1   4  152.21   13.23   3
  -5  -1  -4  117.78   12.64   1
  -6  -1  -4    2.87    1.10   2
   6   1   4    3.98    1.21   1
  -6  -1  -4    1.88    1.20   1
   6   1   4    2.37    1.09   3
  -7  -1  -4   36.27    4.29   1
   7   1   4   28.48    4.02   3
   7   1   4   35.19    4.01   1
  -7  -1  -4   32.39    3.92   2
   8   1   4   72.39    8.63   3
  -8  -1  -4   81.37    8.37   2
   8   1   4   93.83    8.45   1
  -9  -1  -4    8.34    2.22   2
  -9  -1  -4   10.18    2.42   1
  12  -2  -4    9.34    1.95   3
  11  -2  -4    8.89    1.75   3
 -11   2   4    7.17    1.88   2
  10  -2  -4   72.35    8.05   3
 -10   2   4   81.01    8.04   1
 -10   2   4   94.74    8.09   2
  -9   2   4    9.65    1.77   2
  -9   2   4    9.13    1.75   1
  -8   2   4  494.64   47.60   1
  -8   2   4  590.68   47.24   2
  -7   2   4   43.79    3.86   1
  -7   2   4   29.88    3.72   4
  -7   2   4   35.40    3.73   2
   6  -2  -4   16.66    1.94   3
  -6   2   4   12.91    1.71   2
  -6   2   4   17.45    1.68   3
  -6   2   4   13.57    1.86   4
  -5   2   4  252.28   22.59   2
  -5   2   4  255.11   23.49   3
  -5   2   4  256.25   22.72   4
  -5   2   4  288.00   22.97   1
  -5   2   4  249.31   22.65   2
  -4   2   4 1802.64  166.59   1
   4  -2  -4 2258.63  166.77   1
   4  -2  -4 1836.45  171.74   3
  -4   2   4 1770.49  164.78   2
   3  -2  -4  766.29   75.18   3
   3  -2  -4  789.52   72.90   1
  -3   2   4  831.87   75.21   3
  -3   2   4  961.79   72.16   2
  -2   2   4 1974.58  184.05   2
  -2   2   4 2307.85  186.14   1
   2  -2  -4 1989.65  184.01   2
   2  -2  -4 2243.92  191.90   3
   2  -2  -4 2191.74  186.12   1
   1  -2  -4   86.61    8.84   3
  -1   2   4  105.51    8.84   3
   1  -2  -4   89.73    8.36   2
   1  -2  -4  100.20    8.56   1
  -1   2   4   89.52    8.52   1
  -1   2   4   91.83    8.42   2
   0   2   4  183.62   19.10   3
   0   2   4  229.74   18.58   1
   0  -2  -4  213.09   18.64   1
   1   2   4 1528.01  120.99   2
  -1  -2  -4 1380.46  121.01   2
   1   2   4 1248.87  122.28   1
  -1  -2  -4 1461.57  122.44   1
   2   2   4    5.38    1.05   1
   2   2   4    4.68    1.06   3
   2   2   4    4.22    0.92   2
  -2  -2  -4    5.48    1.14   1
  -2  -2  -4    4.00    0.99   2
   3   2   4  372.07   30.50   3
   3   2   4  363.44   29.08   2
  -3  -2  -4  325.28   29.08   2
  -3  -2  -4  267.36   29.36   1
   4   2   4   62.66    6.05   3
   4   2   4   59.15    5.78   1
  -4  -2  -4   56.37    5.71   2
  -4  -2  -4   55.06    5.81   1
   4   2   4   53.03    5.58   2
  -5  -2  -4  188.12   16.45   1
   5   2   4  187.16   16.37   1
  -5  -2  -4  160.05   16.06   2
  -6  -2  -4   40.92    5.45   1
   6   2   4   62.80    5.96   3
   6   2   4   48.86    5.50   1
  -6  -2  -4   56.13    5.53   2
   7   2   4  107.34    9.44   3
  -7  -2  -4   87.25    8.86   1
  -7  -2  -4   70.60    8.44   2
   7   2   4   90.27    8.76   1
   8   2   4   74.84    7.61   1
  -8  -2  -4   70.31    7.77   1
   9   2   4  159.88   14.51   1
  -9  -2  -4  139.21   14.63   1
  11  -3  -4    3.36    1.10   3
 -11   3   4    1.68    1.18   2
 -10   3   4   43.97    4.83   2
  10  -3  -4   47.48    4.80   3
  -9   3   4    0.88    0.92   2
   9  -3  -4    0.84    0.56   3
  -8   3   4  292.97   22.65   2
  -8   3   4  222.07   22.65   1
  -7   3   4    5.91    1.41   4
  -7   3   4    9.94    1.46   1
  -7   3   4    9.34    1.33   2
  -6   3   4    0.73    0.56   2
  -6   3   4    0.71    0.65   1
  -6   3   4   -0.20    0.47   4
   6  -3  -4    1.76    0.56   3
  -6   3   4    0.37    0.39   2
   5  -3  -4   38.46    3.76   3
  -5   3   4   36.10    3.93   4
  -5   3   4   40.47    3.64   2
  -4   3   4  750.73   57.68   2
   4  -3  -4  642.24   60.09   3
  -4   3   4  613.54   57.58   2
  -3   3   4 1206.62  113.29   2
  -3   3   4 1299.27  114.61   1
  -3   3   4 1447.65  118.17   3
  -2   3   4  443.41   38.73   1
   2  -3  -4  437.35   38.66   1
  -2   3   4  377.64   38.25   2
  -2   3   4  511.86   38.33   2
   2  -3  -4  444.48   39.96   3
  -1   3   4    7.29    1.21   2
  -1   3   4    9.07    1.28   3
  -1   3   4   10.23    1.29   2
   1  -3  -4   12.08    1.43   3
   1  -3  -4    6.30    1.19   1
  -1   3   4   10.12    1.34   1
   1  -3  -4    8.00    1.20   2
   0   3   4   87.85    7.06   2
   0   3   4   69.27    7.23   3
   0  -3  -4   59.83    7.00   1
   0   3   4   79.56    6.93   2
   0   3   4   88.22    7.06   1
   0  -3  -4   69.90    7.31   3
   1   3   4  515.25   46.72   1
  -1  -3  -4  536.20   46.83   1
   1   3   4  549.07   48.26   3
   1   3   4  548.01   46.22   2
  -1  -3  -4  515.68   46.22   2
   2   3   4  536.76   47.77   1
  -2  -3  -4  562.50   47.27   2
   2   3   4  465.02   49.24   3
  -2  -3  -4  584.09   47.90   1
   2   3   4  571.59   47.26   2
  -3  -3  -4   60.01    6.35   1
  -3  -3  -4   65.50    6.28   2
   3   3   4   66.38    6.54   3
   3   3   4   59.26    6.17   2
   3   3   4   70.51    6.37   1
   4   3   4   -0.16    0.70   1
   4   3   4   -0.54    0.66   2
  -4  -3  -4   -0.06    0.77   1
   4   3   4    0.06    0.58   3
  -5  -3  -4   20.72    3.10   2
  -5  -3  -4   29.80    3.48   1
   5   3   4   27.71    3.38   1
   5   3   4   26.30    3.20   2
   5   3   4   26.32    3.30   3
   6   3   4    8.96    2.06   3
  -6  -3  -4   13.77    2.46   1
   6   3   4   16.03    2.37   1
  -7  -3  -4   -0.08    1.17   1
   7   3   4    0.58    0.96   3
   7   3   4    0.61    1.14   1
  -8  -3  -4  155.60   14.77   1
   8   3   4  165.45   15.38   3
   8   3   4  138.15   14.48   1
   9   3   4    1.02    1.50   1
 -11   4   4  278.73   24.76   2
 -10   4   4   42.74    4.54   2
   9  -4  -4    4.49    0.88   3
  -9   4   4    3.54    1.11   2
  -8   4   4    9.41    1.35   2
   8  -4  -4    4.79    0.84   3
  -7   4   4  484.83   37.97   2
   7  -4  -4  393.01   39.31   3
  -6   4   4  225.31   19.94   2
  -6   4   4  236.71   20.57   4
  -5   4   4  215.42   20.67   2
  -5   4   4  239.32   21.00   1
  -5   4   4  267.60   20.76   2
  -5   4   4  233.89   21.21   4
   4  -4  -4   57.38    4.68   3
  -4   4   4   51.50    4.47   2
  -4   4   4   41.01    4.41   2
  -3   4   4  160.43   14.18   2
   3  -4  -4  147.78   14.82   3
  -3   4   4  180.13   14.42   1
  -2   4   4  680.16   54.59   2
   2  -4  -4  564.13   55.05   1
  -2   4   4  654.98   55.21   1
  -1   4   4  760.56   61.59   2
  -1   4   4  668.71   62.25   1
  -1   4   4  781.97   61.68   2
   1  -4  -4  642.72   64.22   3
   0   4   4 1388.43  122.67   2
   0   4   4 1509.88  127.98   3
   0  -4  -4 1265.53  124.10   1
   0   4   4 1436.89  124.08   1
   0   4   4 1380.85  122.80   2
   0  -4  -4 1566.24  122.70   2
   1   4   4 1012.13   90.28   2
  -1  -4  -4 1105.20   91.43   1
   1   4   4 1021.97   94.19   3
   2   4   4  324.44   31.22   3
   2   4   4  372.97   29.94   2
  -2  -4  -4  326.40   30.34   1
   3   4   4   61.08    6.43   1
   3   4   4   70.47    6.70   3
   3   4   4   64.80    6.33   2
   4   4   4  237.64   25.04   2
   4   4   4  306.25   26.37   3
  -4  -4  -4  292.12   25.59   1
   4   4   4  301.92   25.54   1
   5   4   4   40.04    4.52   2
  -5  -4  -4   38.91    4.70   1
   5   4   4   47.74    4.84   3
   5   4   4   36.61    4.56   1
   6   4   4  133.57   12.17   1
   6   4   4  139.53   12.64   3
  -6  -4  -4  106.81   12.07   1
  -7  -4  -4   12.30    2.65   1
   7   4   4   12.32    2.51   1
   7   4   4   15.22    2.71   3
  -8  -4  -4    8.16    2.42   1
   8   4   4   12.23    2.62   1
   8   4   4   11.67    2.63   3
 -10   5   4   77.66    7.33   2
  -9   5   4   16.82    2.10   2
  -8   5   4   27.04    2.85   2
  -7   5   4   61.28    5.61   2
  -6   5   4   39.16    3.49   2
  -5   5   4   19.07    1.78   2
  -4   5   4    1.31    0.37   2
  -4   5   4    2.00    0.43   2
  -4   5   4    1.69    0.44   1
  -3   5   4   64.36    5.92   2
  -3   5   4   67.06    5.90   2
  -3   5   4   65.37    6.00   1
  -2   5   4   57.42    5.70   1
  -2   5   4   64.85    5.78   3
  -2   5   4   65.60    5.71   2
  -2   5   4   57.91    5.60   2
  -1   5   4  289.39   27.49   1
  -1   5   4  335.57   27.24   2
   0   5   4  863.57   72.44   3
   0   5   4  781.59   70.18   1
   0  -5  -4  767.69   70.24   1
   0   5   4  800.49   69.44   2
   1   5   4  399.58   38.11   2
  -1  -5  -4  488.06   38.73   1
   1   5   4  482.56   38.64   1
   1   5   4  383.44   39.77   3
   2   5   4   28.96    3.87   3
  -2  -5  -4   43.53    4.18   1
   2   5   4   42.21    3.88   2
   2   5   4   33.27    3.86   1
  -3  -5  -4   55.50    5.46   1
   3   5   4   62.47    5.60   3
   3   5   4   44.52    5.12   2
   3   5   4   45.35    5.24   1
   4   5   4   10.19    1.86   3
   4   5   4    8.03    1.65   2
  -4  -5  -4    7.28    1.77   1
   4   5   4    9.03    1.80   1
   5   5   4  132.82   11.64   3
   5   5   4  121.39   11.00   2
  -5  -5  -4  107.26   11.16   1
   5   5   4  101.90   11.02   1
   6   5   4   14.49    2.79   3
  -6  -5  -4   18.97    3.03   1
   6   5   4   21.74    3.04   1
   7   5   4    4.18    1.72   3
  -7  -5  -4    3.18    1.73   1
   7   5   4    5.92    1.92   1
   8   5   4   22.91    3.69   1
  -8  -5  -4   21.75    3.82   1
   8   5   4   23.49    3.89   3
 -10   6   4   37.75    3.85   2
  -9   6   4    1.16    0.67   2
  -8   6   4   98.00    8.72   2
  -5   6   4   21.27    1.97   2
  -4   6   4  955.64   82.26   2
  -3   6   4  772.54   66.23   1
  -3   6   4  746.54   65.49   2
  -2   6   4  554.18   48.59   1
  -2   6   4  556.83   48.07   2
  -1   6   4   63.35    6.09   2
  -1   6   4   66.88    6.18   1
   0   6   4   17.67    2.26   1
   0   6   4   18.50    2.21   2
   1   6   4  316.18   30.85   1
   1   6   4  340.84   30.56   2
  -1  -6  -4  389.49   31.02   1
  -2  -6  -4   24.30    3.03   1
   2   6   4   21.66    2.74   2
   2   6   4   18.96    2.71   1
   3   6   4  149.14   13.48   2
   3   6   4  153.44   13.71   1
  -3  -6  -4  137.83   13.70   1
  -4  -6  -4  182.76   19.88   1
   4   6   4  227.57   20.02   1
   4   6   4  245.94   19.83   2
  -5  -6  -4   12.67    2.46   1
   5   6   4   12.61    2.31   1
   5   6   4    9.94    2.09   2
  -6  -6  -4   16.79    2.99   1
   6   6   4   16.11    2.84   1
   7   6   4   22.58    3.44   1
  -7  -6  -4   16.63    3.39   1
  -5   7   4   61.15    5.49   2
  -4   7   4   41.45    3.91   2
  -3   7   4  337.22   29.33   2
  -2   7   4  247.80   22.50   1
  -2   7   4  260.44   22.31   2
  -1   7   4   68.02    6.58   1
  -1   7   4   69.50    6.50   2
   0   7   4  148.37   13.30   1
   0   7   4  141.54   13.10   2
   1   7   4   33.17    3.74   1
   1   7   4   32.89    3.63   2
   2   7   4  131.16   12.28   1
   2   7   4  130.36   12.14   2
   3   7   4    2.85    1.18   2
   3   7   4    0.30    0.94   1
   4   7   4   13.43    2.44   1
  -4  -7  -4   16.87    2.74   1
   4   7   4   15.09    2.49   2
   5   7   4   12.67    2.44   2
   5   7   4   15.34    2.70   1
  -5  -7  -4   13.46    2.69   1
  -6  -7  -4   -0.33    1.39   1
   6   7   4    0.14    1.14   1
  -7  -7  -4    4.37    2.19   1
  -5   8   4    3.29    0.73   2
  -4   8   4    3.57    0.84   2
  -3   8   4   15.00    1.87   2
  -2   8   4   69.86    6.61   2
  -1   8   4  146.59   13.35   1
  -1   8   4  145.21   13.22   2
   0   8   4  240.94   21.59   1
   0   8   4  238.16   21.35   2
   1   8   4  280.18   25.03   2
   1   8   4  282.84   25.35   1
   2   8   4  145.55   13.70   1
   2   8   4  146.13   13.57   2
   3   8   4   10.24    2.13   2
   3   8   4   11.88    2.24   1
   4   8   4   30.13    3.71   2
   4   8   4   23.85    3.60   1
   5   8   4    0.52    1.21   1
   5   8   4    0.08    1.25   2
  -5   9   4   12.47    1.68   2
  -4   9   4  147.64   13.17   2
  -3   9   4  117.84   10.72   2
  -2   9   4    0.87    0.75   2
  -1   9   4   32.67    3.65   2
   0   9   4  119.71   11.20   2
   1   9   4  150.54   14.13   1
   1   9   4  151.06   13.95   2
   2   9   4   43.67    5.00   2
   2   9   4   43.18    4.99   1
   3   9   4   51.34    5.81   1
   2  10   4    0.28    1.30   1
   3  10  -5  165.84   16.07   1
   2  10  -5   21.63    3.57   1
   1  10  -5   95.15   10.00   1
   6   9  -5    1.09    1.41   1
   6   9  -5    1.10    1.57   2
   5   9  -5  157.77   13.76   2
   5   9  -5  124.28   13.67   1
   4   9  -5    1.25    1.48   2
  -4  -9   5    0.08    0.88   3
   4   9  -5   -0.38    1.22   1
   3   9  -5   17.51    3.09   2
   3   9  -5   20.80    3.33   1
  -3  -9   5   18.56    3.24   3
  -2  -9   5   82.04    8.86   3
   2   9  -5   85.95    8.82   1
   2   9  -5   81.40    8.57   2
   1   9  -5    4.04    1.93   1
  -1  -9   5    6.29    1.80   3
   1   9  -5    5.77    1.82   2
   0  -9   5   23.54    3.55   3
   0   9  -5   20.71    3.52   1
   0   9  -5   23.22    3.46   2
   1  -9   5   25.64    3.65   3
  -1   9  -5   22.63    3.75   1
  -1   9  -5   26.34    3.72   2
  -8  -8   5   40.87    5.54   1
  -7  -8   5    0.34    1.62   1
   7   8  -5    0.99    1.63   1
  -7  -8   5    1.60    1.43   3
   6   8  -5  347.68   33.69   2
   6   8  -5  376.27   34.22   1
  -6  -8   5  391.42   35.31   3
  -6  -8   5  390.04   34.19   1
  -5  -8   5  153.69   15.26   3
  -5  -8   5  155.15   14.79   1
   5   8  -5  147.76   14.55   2
   5   8  -5  159.69   14.88   1
  -4  -8   5  176.32   18.94   3
   4   8  -5  194.95   18.46   1
  -4  -8   5  208.97   18.45   1
   4   8  -5  207.18   18.30   2
   3   8  -5   74.93    7.33   2
  -3  -8   5   62.88    7.39   3
   3   8  -5   69.57    7.40   1
   2   8  -5   18.21    2.80   2
   2   8  -5   16.11    2.91   1
  -2  -8   5   15.48    2.75   3
  -1  -8   5   91.64    9.09   3
   1   8  -5   86.02    8.88   1
   1   8  -5   80.50    8.62   2
   0   8  -5   19.92    3.28   1
   0   8  -5   19.31    3.03   2
   0  -8   5   20.93    3.22   3
  -1   8  -5    5.06    1.81   1
   1  -8   5    2.43    1.49   3
  -1   8  -5    5.94    1.71   2
  -2   8  -5   85.48    9.01   1
  -2   8  -5   94.08    8.94   2
   2  -8   5   83.03    9.13   3
  -3   8  -5    1.37    1.29   2
   3  -8   5    2.18    1.31   3
  -9  -7   5    2.66    1.67   3
   9   7  -5    4.51    2.06   1
  -9  -7   5    3.15    2.04   1
  -8  -7   5   53.78    6.52   1
   8   7  -5   62.38    6.57   1
  -8  -7   5   48.99    6.34   3
  -7  -7   5   61.13    6.59   1
  -7  -7   5   53.41    6.56   3
   7   7  -5   57.42    6.54   1
   6   7  -5   22.16    3.25   2
  -6  -7   5   25.78    3.58   1
   6   7  -5   28.47    3.66   1
  -6  -7   5   16.93    3.20   3
  -5  -7   5  110.01   12.37   3
  -5  -7   5  135.06   12.23   1
   5   7  -5  126.18   12.18   1
   5   7  -5  128.49   12.00   2
  -4  -7   5   86.96    8.65   1
   4   7  -5   88.01    8.73   1
  -4  -7   5   81.30    8.84   3
   4   7  -5   84.46    8.55   2
  -3  -7   5   21.19    3.01   3
   3   7  -5   19.86    3.09   1
  -3  -7   5   19.32    2.92   1
   3   7  -5   20.39    2.94   2
  -2  -7   5  508.14   43.55   1
  -2  -7   5  478.14   45.10   3
   2   7  -5  508.91   43.82   1
   2   7  -5  466.84   43.19   2
   1   7  -5   31.35    3.89   2
  -1  -7   5   31.80    4.04   3
   1   7  -5   33.26    4.18   1
   0   7  -5    9.97    2.20   1
   0   7  -5   12.00    2.19   2
   0  -7   5   11.33    2.20   3
   1  -7   5   55.77    6.04   3
  -1   7  -5   59.48    5.88   2
  -1   7  -5   45.94    5.83   1
  -2   7  -5   44.80    5.00   1
   2  -7   5   46.25    5.12   3
  -2   7  -5   36.72    4.71   2
  -3   7  -5   81.46    8.79   1
   3  -7   5   85.90    9.04   3
  -3   7  -5   92.04    8.68   2
  -4   7  -5    0.37    0.92   2
  -4   7  -5   -0.60    1.20   1
   4  -7   5    0.24    1.05   3
   5  -7   5   34.37    4.47   3
 -10  -6   5    5.57    2.32   1
  10   6  -5    4.78    2.01   1
   9   6  -5  176.39   17.47   1
  -9  -6   5  192.00   17.73   1
   8   6  -5   56.28    6.05   1
  -8  -6   5   47.60    5.85   1
  -8  -6   5   47.29    5.90   3
  -7  -6   5   63.38    7.35   3
  -7  -6   5   79.65    7.52   1
   7   6  -5   61.85    7.17   1
   6   6  -5  120.40   12.26   1
   6   6  -5  142.98   12.18   2
  -6  -6   5  113.78   12.55   3
  -6  -6   5  133.83   12.40   1
  -5  -6   5   98.69    9.71   3
   5   6  -5  103.34    9.46   1
   5   6  -5   88.99    9.16   2
  -5  -6   5   86.19    9.25   1
   4   6  -5    1.88    1.19   1
  -4  -6   5    0.75    0.97   3
  -4  -6   5   -0.02    0.98   1
   4   6  -5    2.46    1.15   2
   3   6  -5  516.62   45.25   2
  -3  -6   5  526.63   45.75   1
  -3  -6   5  486.28   47.18   3
   3   6  -5  532.47   45.89   1
   2   6  -5  272.20   23.27   2
   2   6  -5  243.68   23.53   1
  -2  -6   5  278.10   23.47   1
  -2  -6   5  241.18   24.21   3
   1   6  -5  366.73   33.33   1
   1   6  -5  395.01   32.93   2
  -1  -6   5  349.58   33.08   1
  -1  -6   5  376.53   34.35   3
   0  -6   5   14.29    2.31   1
   0  -6   5   16.83    2.62   3
   0   6  -5   16.70    2.55   1
   0   6  -5   14.83    2.36   2
   1  -6   5  276.42   25.82   3
  -1   6  -5  271.71   24.66   2
  -1   6  -5  280.16   25.04   1
  -2   6  -5   86.75    8.72   2
  -2   6  -5   90.93    8.99   1
   2  -6   5   91.25    9.17   3
   3  -6   5    0.73    1.00   3
  -3   6  -5    1.25    1.20   1
  -3   6  -5    1.54    1.10   2
   4  -6   5   38.77    4.44   3
  -4   6  -5   33.05    4.23   1
  -4   6  -5   32.91    4.04   2
  -5   6  -5    7.29    1.84   1
   5  -6   5    6.91    1.84   3
  -5   6  -5    5.68    1.59   2
   6  -6   5   20.22    3.14   3
  11   5  -5   23.42    3.77   1
 -10  -5   5   48.53    5.71   1
  10   5  -5   38.89    5.24   1
   9   5  -5   25.15    3.88   1
  -9  -5   5   35.86    4.27   3
  -9  -5   5   26.31    4.02   1
  -8  -5   5   -0.37    1.15   1
   8   5  -5    0.44    1.20   1
  -8  -5   5    0.16    0.93   3
  -7  -5   5  452.36   40.51   1
   6   5  -5   64.67    6.33   1
  -6  -5   5   62.81    6.45   3
  -6  -5   5   55.13    6.19   1
   6   5  -5   50.80    5.92   2
   5   5  -5 1133.66   96.95   2
  -5  -5   5 1273.35   98.18   1
  -5  -5   5 1110.40   97.01   2
  -5  -5   5 1093.37  101.15   3
   5   5  -5  985.05   97.99   1
  -4  -5   5    2.81    1.15   3
  -4  -5   5    3.14    1.12   2
   4   5  -5    3.32    1.34   1
   4   5  -5    1.63    0.95   2
  -4  -5   5    2.37    1.17   1
   3   5  -5  114.54   10.84   1
  -3  -5   5  120.76   10.76   1
   3   5  -5  113.30   10.59   2
  -3  -5   5  102.94   11.03   3
  -2  -5   5  650.90   55.55   1
   2   5  -5  591.59   55.61   1
   2   5  -5  647.79   54.98   2
  -1  -5   5    7.02    1.54   3
   1   5  -5    6.40    1.39   2
   1   5  -5    4.50    1.39   1
  -1  -5   5    6.29    1.48   1
   0   5  -5   15.74    2.31   1
   0  -5   5   15.49    2.33   3
   0  -5   5   15.10    2.15   1
   0   5  -5   10.43    1.98   2
   1  -5   5   60.22    5.92   1
   1  -5   5   53.84    5.67   4
  -1   5  -5   63.62    6.18   1
   1  -5   5   58.78    6.22   3
  -1   5  -5   57.84    5.95   2
   2  -5   5   13.12    2.06   4
  -2   5  -5   12.23    2.24   1
   2  -5   5   13.56    2.29   3
  -2   5  -5   15.52    2.22   2
   2  -5   5   14.36    2.08   1
  -3   5  -5    5.44    1.52   1
  -3   5  -5    4.90    1.40   2
   3  -5   5    5.50    1.42   3
   4  -5   5  119.56   11.28   3
  -4   5  -5  119.17   10.76   2
  -4   5  -5  102.38   10.81   1
  -5   5  -5  134.41   13.20   2
  -5   5  -5  138.23   13.38   1
   5  -5   5  153.13   13.90   3
   6  -5   5  159.76   15.51   3
  -6   5  -5  159.60   14.88   2
  -7   5  -5    5.00    1.78   1
  11   4  -5   19.59    3.24   1
 -11  -4   5   14.53    3.23   1
 -10  -4   5   92.98    8.39   1
  10   4  -5   75.07    7.85   1
 -10  -4   5   60.92    7.65   2
  -9  -4   5   -0.24    1.02   1
  -9  -4   5    0.86    1.04   2
   9   4  -5    0.59    1.13   1
  -9  -4   5    0.93    1.11   3
  -8  -4   5  145.65   14.01   3
  -8  -4   5  139.64   13.61   1
  -8  -4   5  149.19   13.43   2
   8   4  -5  133.78   13.45   1
  -7  -4   5   26.32    3.18   2
  -7  -4   5   17.75    2.89   3
  -7  -4   5   22.59    3.22   1
   6   4  -5 1179.00  109.84   1
  -6  -4   5 1110.57  113.27   3
  -6  -4   5 1363.11  109.95   1
   6   4  -5 1200.04  108.54   2
  -6  -4   5 1427.55  108.83   2
  -5  -4   5  211.94   19.85   3
  -5  -4   5  216.61   19.01   2
   5   4  -5  203.00   18.88   2
  -4  -4   5  397.53   33.75   1
  -4  -4   5  346.44   34.74   3
  -4  -4   5  382.72   33.31   2
   4   4  -5  390.35   33.79   1
   4   4  -5  375.48   33.28   2
   3   4  -5   86.02    7.80   2
  -3  -4   5   76.82    7.73   2
   3   4  -5   86.00    8.06   1
  -3  -4   5   77.18    7.89   1
   2   4  -5   82.38    8.37   1
  -2  -4   5   88.31    8.36   1
  -2  -4   5   93.61    8.67   3
  -2  -4   5   82.32    8.15   2
   2   4  -5   86.35    8.20   2
   1   4  -5  274.78   22.56   1
   1   4  -5  255.89   22.21   2
  -1  -4   5  234.48   23.16   3
  -1  -4   5  251.03   22.17   2
  -1  -4   5  233.70   22.37   1
   0  -4   5   52.26    4.72   4
   0  -4   5   45.89    5.05   1
   0  -4   5   46.69    5.24   3
   0   4  -5   59.95    5.18   2
   0   4  -5   42.21    5.14   1
   1  -4   5   34.74    3.91   4
  -1   4  -5   41.63    4.24   2
   1  -4   5   39.83    4.28   1
   1  -4   5   40.48    4.42   3
  -1   4  -5   40.87    4.37   1
  -2   4  -5   44.85    4.82   2
  -2   4  -5   46.94    4.98   1
   2  -4   5   46.65    5.03   3
   2  -4   5   46.10    4.92   1
   2  -4   5   47.76    4.78   4
  -3   4  -5   30.32    3.38   2
   3  -4   5   30.32    3.49   1
  -3   4  -5   23.13    3.34   1
   3  -4   5   28.84    3.44   3
  -4   4  -5  167.70   15.05   2
   4  -4   5  161.98   15.66   3
  -4   4  -5  163.33   15.18   1
   5  -4   5  139.18   13.24   3
  -5   4  -5  139.11   12.74   2
  -5   4  -5  130.26   12.78   1
  -6   4  -5   49.30    5.82   1
  -6   4  -5   50.01    5.79   2
   6  -4   5   65.80    6.16   3
   7  -4   5  135.65   14.05   3
  -7   4  -5  147.79   13.76   1
  -7   4  -5  150.25   13.70   2
  -8   4  -5    3.46    1.66   1
 -11  -3   5    2.20    1.42   2
 -11  -3   5    1.69    1.55   1
 -10  -3   5  152.12   14.14   1
  10   3  -5  140.22   13.78   1
  -9  -3   5   28.76    4.03   2
  -9  -3   5   43.49    4.56   1
   9   3  -5   34.09    4.09   1
  -9  -3   5   26.48    3.96   3
  -8  -3   5  185.14   16.94   3
  -8  -3   5  155.99   16.34   1
   8   3  -5  186.87   16.35   1
  -7  -3   5  222.65   18.80   3
   7   3  -5  194.52   18.05   1
  -7  -3   5  202.83   17.93   2
  -7  -3   5  170.84   17.98   1
   6   3  -5  105.19   11.50   1
  -6  -3   5  128.92   11.67   1
   6   3  -5  136.74   11.43   2
   5   3  -5  302.31   31.52   1
  -5  -3   5  412.20   31.76   1
  -5  -3   5  360.43   32.66   3
  -5  -3   5  308.02   31.17   2
   5   3  -5  396.53   31.26   2
   4   3  -5  206.94   16.78   2
   4   3  -5  199.09   17.03   1
  -4  -3   5  154.05   17.38   3
  -4  -3   5  199.06   16.78   2
  -4  -3   5  174.33   16.92   1
  -3  -3   5   -0.01    0.63   1
   3   3  -5    0.96    0.77   2
  -3  -3   5    0.75    0.68   2
   3   3  -5    1.28    0.89   1
  -3  -3   5    0.24    0.60   3
  -2  -3   5 1507.30  125.01   1
  -2  -3   5 1358.64  123.61   2
   2   3  -5 1575.82  123.64   2
   2   3  -5 1505.85  125.02   1
  -2  -3   5 1216.25  128.78   3
  -1  -3   5   35.31    3.42   4
   1   3  -5   36.32    3.86   2
  -1  -3   5   36.09    3.96   1
  -1  -3   5   39.88    3.91   2
  -1  -3   5   38.81    4.08   3
   1   3  -5   34.61    3.99   1
   0  -3   5  117.94   10.39   1
   0   3  -5  100.33   10.15   2
   0  -3   5  114.10   10.21   2
   0  -3   5  110.80    9.89   4
   1  -3   5  280.76   23.94   1
   1  -3   5  277.47   23.66   2
   1  -3   5  240.70   24.62   3
   1  -3   5  255.28   23.33   4
  -1   3  -5  268.31   23.66   2
  -1   3  -5  281.81   24.01   1
   2  -3   5   62.62    6.57   3
  -2   3  -5   58.34    6.41   1
  -2   3  -5   75.24    6.47   2
   2  -3   5   71.31    6.47   1
   2  -3   5   58.30    6.17   4
  -3   3  -5    2.32    1.02   1
  -3   3  -5    3.27    1.10   2
   3  -3   5    2.03    0.93   3
   3  -3   5    2.82    1.07   1
  -4   3  -5   19.97    2.65   2
  -4   3  -5   15.34    2.57   1
   4  -3   5   20.62    2.62   3
   4  -3   5   21.41    2.83   1
   5  -3   5   78.63    7.99   3
  -5   3  -5   82.00    7.77   2
  -5   3  -5   75.15    7.89   1
  -6   3  -5  106.08   10.05   1
  -6   3  -5  103.22    9.86   2
   6  -3   5   97.87   10.17   3
  -7   3  -5  141.26   13.66   2
  -7   3  -5  145.53   13.87   1
   7  -3   5  149.78   14.26   3
  -8   3  -5   10.56    2.36   1
 -12  -2   5   57.15    6.17   2
 -12  -2   5   44.53    6.13   1
 -11  -2   5   18.41    3.17   2
 -11  -2   5   26.83    3.70   1
 -10  -2   5    1.16    1.28   1
 -10  -2   5    1.00    1.26   2
   9   2  -5  421.65   44.02   1
  -9  -2   5  511.70   44.42   1
  -9  -2   5  566.58   43.99   2
  -8  -2   5   -0.20    0.74   3
  -8  -2   5   -0.52    0.98   1
  -8  -2   5   -0.04    0.83   2
   8   2  -5   -0.38    0.81   1
  -7  -2   5   58.28    5.92   2
   7   2  -5   64.26    5.96   1
  -7  -2   5   50.83    5.92   1
   6   2  -5  230.81   21.83   2
   6   2  -5  248.79   22.22   1
  -6  -2   5  262.89   22.30   1
   5   2  -5    2.51    0.89   2
   5   2  -5    2.14    0.90   1
  -5  -2   5    2.41    0.96   2
  -5  -2   5    3.90    1.17   1
  -5  -2   5    3.35    1.03   3
  -4  -2   5 1157.52   95.98   3
  -4  -2   5 1021.96   92.94   1
   4   2  -5 1053.25   91.87   2
  -4  -2   5 1023.78   91.93   2
   3   2  -5 2012.55  179.20   1
  -3  -2   5 2094.21  177.27   2
  -3  -2   5 2066.81  179.18   1
   2   2  -5 1016.39   81.60   2
  -2  -2   5  974.40   85.10   3
   2   2  -5  929.42   82.49   1
  -2  -2   5  876.14   81.54   2
  -2  -2   5  922.38   82.51   1
   1   2  -5  234.90   18.99   2
  -1  -2   5  203.99   18.96   2
  -1  -2   5  190.51   19.75   3
   1   2  -5  225.31   19.24   1
   0   2  -5  388.34   39.41   1
   0  -2   5  503.06   39.13   2
   0  -2   5  450.02   39.44   1
   0   2  -5  468.32   39.03   2
   0  -2   5  428.16   40.68   3
   1  -2   5  661.13   63.12   3
  -1   2  -5  740.84   60.63   2
   1  -2   5  683.52   60.62   2
   1  -2   5  707.71   61.28   1
   2  -2   5  585.85   49.96   2
   2  -2   5  575.73   50.53   1
  -2   2  -5  534.89   49.96   2
   2  -2   5  599.80   52.12   3
   3  -2   5  197.84   20.38   1
  -3   2  -5  239.51   20.34   2
  -3   2  -5  227.89   20.60   1
   3  -2   5  244.95   21.17   3
  -4   2  -5   47.88    5.39   2
   4  -2   5   54.30    5.70   3
   4  -2   5   52.94    5.50   1
  -4   2  -5   59.77    5.71   1
   5  -2   5   28.99    3.48   3
   5  -2   5   28.32    3.41   1
  -5   2  -5   29.79    3.42   2
  -5   2  -5   22.92    3.40   1
   6  -2   5   53.56    5.72   3
  -6   2  -5   37.91    5.42   1
  -6   2  -5   64.42    5.62   2
  -7   2  -5    1.36    1.22   2
   7  -2   5    1.08    1.08   3
  -7   2  -5    1.93    1.30   1
  -8   2  -5  167.78   16.22   1
  -8   2  -5  172.40   15.93   2
 -12  -1   5   -0.09    1.31   2
 -12  -1   5   -1.09    1.41   1
 -11  -1   5    2.69    1.43   2
 -11  -1   5    2.30    1.51   1
 -10  -1   5  183.04   14.95   2
 -10  -1   5  135.65   14.73   1
   9   1  -5    1.17    0.98   1
  -9  -1   5    0.84    1.12   1
  -9  -1   5    0.91    1.07   2
  -8  -1   5    2.42    0.94   3
  -8  -1   5    1.02    1.11   1
   8   1  -5    2.59    1.02   1
  -8  -1   5    2.44    1.08   2
  -7  -1   5  480.23   47.65   2
   7   1  -5  614.42   48.25   1
  -6  -1   5   29.64    3.40   1
  -6  -1   5   25.22    3.05   2
  -6  -1   5   25.39    3.12   3
   6   1  -5   24.68    3.02   1
   6   1  -5   28.79    2.95   2
   5   1  -5 1184.85   93.91   2
   5   1  -5 1143.21   95.05   1
  -5  -1   5  999.22   93.96   2
  -5  -1   5 1024.16   97.96   3
   4   1  -5   21.29    2.55   2
  -4  -1   5   28.82    2.83   3
  -4  -1   5   20.71    2.11   4
  -3  -1   5   21.80    2.61   2
  -3  -1   5   31.10    2.92   1
   3   1  -5   18.86    2.61   1
  -3  -1   5   23.70    2.71   3
   3   1  -5   23.13    2.61   2
   2   1  -5 1021.41  100.01   1
  -2  -1   5 1268.83  103.24   3
   2   1  -5 1151.45   98.91   2
  -1  -1   5    3.33    0.91   2
  -1  -1   5    2.70    0.80   3
  -1  -1   5    4.03    0.96   1
   1   1  -5    6.70    1.06   2
   1   1  -5    3.50    0.96   1
   0  -1   5   26.45    2.76   1
   0   1  -5   18.64    2.59   2
   0  -1   5   26.67    2.72   2
   0   1  -5   16.76    2.63   1
   0  -1   5   29.44    2.82   3
   1  -1   5    2.49    0.80   1
  -1   1  -5    3.32    0.92   2
   1  -1   5    4.11    0.94   2
  -1   1  -5    1.41    0.85   1
   2  -1   5    5.51    1.15   1
  -2   1  -5    6.17    1.37   1
  -2   1  -5    8.93    1.47   2
   2  -1   5    4.73    1.17   3
  -3   1  -5    6.39    1.40   1
  -3   1  -5    0.69    0.72   2
   3  -1   5    0.68    0.64   2
   3  -1   5    0.62    0.70   3
   4  -1   5   17.84    2.63   1
   4  -1   5   16.70    2.58   3
  -4   1  -5   25.00    2.70   2
  -4   1  -5   22.65    2.93   1
  -5   1  -5  139.44   14.11   2
  -5   1  -5  172.98   14.62   1
   5  -1   5  159.54   14.39   1
   5  -1   5  149.38   14.84   3
  -6   1  -5  109.03   10.92   2
  -6   1  -5  104.69   11.18   1
   6  -1   5  135.35   11.26   1
   7  -1   5    5.27    1.65   3
  -7   1  -5    7.34    1.90   1
  -7   1  -5    5.33    1.62   2
  -8   1  -5    1.74    1.52   1
   8  -1   5    2.72    1.31   3
  -8   1  -5    4.19    1.57   2
 -13   0   5    1.16    1.44   1
 -12   0   5  100.37    9.34   1
 -12   0   5   77.36    8.85   2
 -11   0   5   62.33    6.86   1
 -11   0   5   64.80    6.79   2
 -10   0   5  155.37   15.05   1
 -10   0   5  167.04   15.00   2
  -9   0   5   10.68    2.02   1
  -9   0   5    9.71    1.91   2
  -8   0   5   12.48    2.33   1
  -8   0   5   17.45    2.44   2
   8   0  -5   20.54    2.28   1
  -7   0   5   78.81    8.74   1
  -7   0   5   97.15    8.73   2
   7   0  -5  100.08    8.63   1
  -6   0   5 2569.55  212.38   4
  -6   0   5 2487.82  213.99   2
  -6   0   5 2228.21  214.01   2
  -6   0   5 2827.93  216.55   1
   6   0  -5 2326.11  216.29   1
   5   0  -5  213.90   16.67   2
   5   0  -5  169.22   16.87   1
  -5   0   5  209.48   17.04   1
  -5   0   5  213.69   17.57   3
   5   0  -5  171.34   17.51   3
  -5   0   5  160.35   16.42   4
   4   0  -5  318.71   27.73   1
  -4   0   5  308.33   27.39   2
  -3   0   5   82.51    9.61   2
   3   0  -5  122.01    9.64   2
   3   0  -5   96.82    9.70   1
  -3   0   5  110.51    9.64   2
  -3   0   5  123.10    9.84   1
  -2   0   5    1.61    0.63   3
  -2   0   5    1.92    0.72   1
   2   0  -5    0.67    0.56   1
   2   0  -5    1.99    0.65   2
  -2   0   5    2.57    0.75   2
   1   0  -5 3095.97  246.59   2
   1   0  -5 2957.30  249.35   1
  -1   0   5 2549.82  249.26   1
   0   0  -5  742.42   67.37   2
   0   0   5  816.07   67.44   2
   1   0   5  105.40   10.13   2
  -1   0  -5  117.44   10.30   2
   1   0   5  124.24   10.78   3
  -1   0  -5  102.04   10.40   1
   2   0   5  102.89    9.22   2
  -2   0  -5  115.10    9.38   2
   2   0   5   84.55    9.26   1
   3   0   5   76.39    7.48   1
   3   0   5   75.85    7.81   3
   3   0   5   69.11    7.33   2
  -3   0  -5   96.09    7.86   1
  -4   0  -5  211.21   19.00   1
  -4   0  -5  222.42   18.70   2
   4   0   5  191.32   18.73   1
  -5   0  -5  311.00   29.17   1
   5   0   5  294.69   29.98   3
  -5   0  -5  361.38   28.86   2
   5   0   5  332.07   29.03   1
  -6   0  -5  242.26   23.40   2
  -6   0  -5  268.19   23.92   1
   6   0   5  274.92   23.68   1
   7   0   5  128.90   11.02   3
   7   0   5  104.95   10.28   1
  -7   0  -5   93.01   10.13   2
  -7   0  -5  100.40   10.50   1
  -8   0  -5   46.20    5.23   1
  -8   0  -5   35.85    4.66   2
   8   0   5   39.41    4.95   3
  12  -1  -5    0.81    1.24   3
 -11   1   5    1.27    1.17   2
 -11   1   5    0.87    1.28   1
 -10   1   5  153.59   14.29   2
 -10   1   5  154.81   14.39   1
  -9   1   5    0.85    1.11   1
  -9   1   5    1.33    1.16   2
  -8   1   5    4.59    1.28   2
  -8   1   5    3.65    1.27   1
  -7   1   5  708.42   57.62   3
  -7   1   5  640.64   55.40   2
   7  -1  -5  567.05   55.70   1
   6  -1  -5   26.43    2.93   1
  -6   1   5   28.00    3.10   2
  -6   1   5   23.60    3.01   2
  -6   1   5   31.77    3.34   1
   6  -1  -5   32.84    3.34   3
  -6   1   5   28.60    2.97   4
  -6   1   5   29.41    3.08   3
  -5   1   5  951.83   80.68   3
  -5   1   5  901.09   76.82   4
  -5   1   5  835.85   77.32   2
   4  -1  -5   33.50    3.49   3
  -4   1   5   38.57    3.51   2
   4  -1  -5   28.56    3.19   2
  -4   1   5   30.92    3.30   2
  -4   1   5   36.37    3.53   1
  -3   1   5   13.04    1.83   3
  -3   1   5   19.73    2.00   2
   3  -1  -5   17.22    1.97   3
  -3   1   5   14.26    1.84   2
  -2   1   5  805.19   78.25   2
   2  -1  -5  903.42   79.13   1
  -2   1   5  809.15   79.13   1
   2  -1  -5  965.14   78.23   2
   2  -1  -5  965.29   81.66   3
  -2   1   5  993.14   81.63   3
   1  -1  -5    1.93    0.66   2
  -1   1   5    2.02    0.67   2
  -1   1   5    2.62    0.74   1
  -1   1   5    3.26    0.79   3
   0   1   5   28.12    2.78   1
   0  -1  -5   21.16    2.71   2
   0   1   5   25.43    2.72   2
   0   1   5   21.53    2.77   3
   0  -1  -5   30.95    2.97   1
  -1  -1  -5    1.96    0.83   2
   1   1   5    0.47    0.59   3
  -1  -1  -5    2.18    0.87   1
   1   1   5    0.80    0.64   1
   1   1   5    1.14    0.59   2
  -2  -1  -5    7.87    1.44   2
   2   1   5    7.39    1.40   3
   2   1   5    6.54    1.31   1
   2   1   5    8.28    1.33   2
   3   1   5    1.41    0.78   1
  -3  -1  -5    0.49    0.69   2
  -3  -1  -5    0.48    0.79   1
   3   1   5    3.27    0.89   2
   3   1   5    7.09    1.31   3
   4   1   5   15.42    2.40   1
  -4  -1  -5   24.55    2.90   1
   4   1   5   18.29    2.41   2
   4   1   5   18.09    2.57   3
  -4  -1  -5   20.31    2.52   2
  -5  -1  -5  170.25   14.85   2
   5   1   5  154.32   14.91   1
  -5  -1  -5  161.03   15.11   1
  -6  -1  -5  108.18   10.75   2
   6   1   5  108.26   11.34   3
  -6  -1  -5  128.23   11.22   1
   6   1   5  112.16   10.88   1
   7   1   5    5.82    1.77   3
  -7  -1  -5    7.73    1.81   2
  -7  -1  -5    6.06    1.93   1
   7   1   5    8.53    1.89   1
   8   1   5    1.69    1.38   1
  -8  -1  -5    1.64    1.58   1
   8   1   5    3.66    1.57   3
  12  -2  -5   42.55    4.87   3
  11  -2  -5   13.22    2.23   3
 -10   2   5    0.39    1.11   2
 -10   2   5   -0.13    0.98   1
  -9   2   5  339.97   30.04   2
  -8   2   5   -0.41    0.75   2
  -8   2   5    0.91    0.94   1
  -8   2   5    0.18    0.58   4
  -7   2   5   65.80    6.69   1
  -7   2   5   70.44    6.62   2
  -7   2   5   73.34    6.74   4
  -6   2   5  140.47   12.54   1
  -6   2   5  118.18   12.28   2
  -6   2   5  161.08   12.58   4
   5  -2  -5    2.01    0.49   1
  -5   2   5    2.14    0.62   2
  -5   2   5    2.43    0.65   3
  -5   2   5    1.94    0.78   1
  -5   2   5    1.84    0.71   2
  -5   2   5    1.73    0.68   4
   5  -2  -5    2.54    0.66   3
   4  -2  -5 1001.42   79.95   3
  -4   2   5  929.60   79.91   3
  -4   2   5  936.45   76.62   2
   4  -2  -5  774.86   77.37   1
  -4   2   5  802.95   76.63   2
   3  -2  -5 2089.33  185.50   3
   3  -2  -5 2183.36  179.88   1
  -3   2   5 1933.88  177.91   2
   2  -2  -5  788.06   72.64   1
  -2   2   5  878.24   71.93   2
   2  -2  -5  853.77   75.03   3
  -2   2   5  812.17   74.93   3
  -1   2   5  191.35   17.36   3
  -1   2   5  203.57   16.67   2
   1  -2  -5  162.65   17.39   3
   1  -2  -5  194.99   16.86   1
   0   2   5  445.41   35.97   2
   0  -2  -5  413.68   36.45   1
   0  -2  -5  406.53   35.96   2
   0   2   5  363.62   37.45   3
   0   2   5  434.29   36.36   1
   1   2   5  553.86   54.56   3
   1   2   5  654.96   52.95   1
   1   2   5  600.87   52.33   2
  -1  -2  -5  602.32   53.03   1
   2   2   5  420.95   40.54   2
  -2  -2  -5  467.71   40.63   2
   2   2   5  508.87   41.13   1
  -3  -2  -5  162.95   16.44   1
  -3  -2  -5  196.39   16.30   2
   3   2   5  203.88   16.32   2
   3   2   5  159.57   16.35   1
   4   2   5   44.94    5.37   2
   4   2   5   66.25    5.96   3
   4   2   5   51.96    5.58   1
  -4  -2  -5   55.87    5.72   1
  -5  -2  -5   24.78    3.20   2
   5   2   5   26.62    3.30   1
  -5  -2  -5   26.91    3.52   1
  -6  -2  -5   41.90    4.93   1
  -6  -2  -5   46.28    4.83   2
   6   2   5   32.09    4.69   3
   6   2   5   48.36    4.86   1
   7   2   5    0.64    1.00   3
   7   2   5    1.61    1.35   1
  -7  -2  -5    0.50    1.30   1
  -8  -2  -5  180.46   17.12   1
   8   2   5  155.76   16.70   1
   8   2   5  205.22   17.82   3
   9   2   5   30.65    4.30   1
  11  -3  -5    1.17    0.91   3
 -11   3   5    1.62    1.17   2
 -10   3   5  130.80   12.13   2
  -9   3   5   30.86    3.59   2
  -8   3   5  122.81   13.13   2
  -8   3   5  171.87   13.41   1
  -7   3   5  199.89   17.58   4
  -7   3   5  192.48   17.34   2
  -6   3   5   83.58    7.49   4
  -6   3   5   78.56    7.09   2
  -6   3   5   74.03    7.15   2
  -5   3   5  460.27   35.01   2
  -5   3   5  353.63   34.83   2
  -5   3   5  403.34   36.19   3
  -5   3   5  370.29   35.31   1
  -5   3   5  431.73   35.14   4
  -4   3   5  158.20   14.74   2
  -4   3   5  175.04   14.97   1
   4  -3  -5  170.16   15.44   3
   3  -3  -5    0.31    0.41   1
  -3   3   5    0.55    0.48   1
  -3   3   5    0.78    0.47   2
   3  -3  -5    1.02    0.55   3
  -3   3   5    0.38    0.38   3
  -2   3   5 1308.66  119.70   1
  -2   3   5 1533.83  118.47   2
   2  -3  -5 1215.27  123.41   3
   2  -3  -5 1442.63  119.69   1
  -1   3   5   32.91    3.07   1
  -1   3   5   28.66    2.95   2
  -1   3   5   33.84    3.12   2
   1  -3  -5   20.89    2.94   1
   0   3   5   94.21    9.69   1
   0   3   5  103.61    9.58   2
   0   3   5  122.28   10.16   3
   0  -3  -5  103.94    9.80   1
  -1  -3  -5  240.16   23.42   1
  -1  -3  -5  269.68   23.15   2
   1   3   5  255.60   24.12   3
   1   3   5  257.86   23.36   1
   1   3   5  285.95   23.11   2
   2   3   5   64.67    6.22   1
  -2  -3  -5   61.84    6.30   1
   2   3   5   60.43    6.03   2
   2   3   5   62.82    6.37   3
  -3  -3  -5    4.64    1.11   2
  -3  -3  -5    2.62    1.17   1
   3   3   5    3.27    1.02   2
   3   3   5    1.48    0.93   1
   3   3   5    1.78    0.91   3
   4   3   5   17.80    2.61   1
  -4  -3  -5   12.75    2.48   1
   4   3   5   22.60    2.73   3
   4   3   5   18.03    2.53   2
   5   3   5   67.41    8.11   3
  -5  -3  -5   85.92    8.14   1
   5   3   5   85.98    8.06   1
   6   3   5  118.98   11.12   3
  -6  -3  -5  102.05   10.63   1
   6   3   5  103.39   10.54   1
   7   3   5  139.66   12.62   1
  -7  -3  -5  143.49   12.83   1
   7   3   5  106.07   12.79   3
  -8  -3  -5    9.77    2.70   1
   8   3   5   10.98    2.48   1
 -11   4   5   18.51    2.59   2
 -10   4   5   78.64    7.59   2
  -9   4   5    0.23    0.91   2
  -8   4   5  162.83   14.53   2
  -7   4   5   29.39    3.12   2
  -6   4   5 1171.14   98.06   2
  -6   4   5 1103.08   97.84   4
  -5   4   5  199.98   17.60   4
  -5   4   5  192.05   17.30   1
  -4   4   5  389.14   29.58   2
  -4   4   5  322.22   29.47   2
  -4   4   5  305.58   29.85   1
   4  -4  -5  344.24   30.79   3
  -3   4   5   72.31    6.53   1
  -3   4   5   65.61    6.60   3
  -3   4   5   72.13    6.44   2
  -3   4   5   69.96    6.44   2
   3  -4  -5   73.88    6.76   3
  -2   4   5   89.49    8.15   2
  -2   4   5   99.96    8.31   1
  -2   4   5   94.19    8.47   3
   2  -4  -5   87.28    8.57   3
  -2   4   5   78.85    8.14   2
  -1   4   5  234.67   21.56   3
  -1   4   5  217.39   20.61   2
   1  -4  -5  272.27   20.93   1
  -1   4   5  232.51   20.89   1
   1  -4  -5  217.67   21.60   3
   0   4   5   37.95    4.40   3
   0  -4  -5   53.70    4.57   1
   0   4   5   45.77    4.34   2
   0   4   5   36.68    4.27   1
  -1  -4  -5   27.17    3.59   1
   1   4   5   28.85    3.44   2
   1   4   5   34.52    3.53   1
   1   4   5   38.07    3.71   3
   2   4   5   42.83    4.60   2
  -2  -4  -5   55.12    5.00   1
   2   4   5   39.68    4.61   1
   3   4   5   19.39    2.86   2
  -3  -4  -5   24.12    3.17   1
   3   4   5   23.94    3.07   3
   3   4   5   27.71    3.11   1
   4   4   5  151.16   14.46   3
  -4  -4  -5  133.99   13.95   1
   4   4   5  160.41   14.01   1
   4   4   5  151.50   13.79   2
  -5  -4  -5  161.88   14.20   1
   5   4   5  156.17   14.04   1
   5   4   5  128.42   14.35   3
   6   4   5   59.94    6.77   1
  -6  -4  -5   63.13    6.89   1
   6   4   5   63.22    6.97   3
   7   4   5  151.56   15.29   3
   7   4   5  153.48   14.73   1
  -7  -4  -5  152.71   14.84   1
 -10   5   5   47.56    4.85   2
  -9   5   5   32.20    3.52   2
  -8   5   5    0.67    0.77   2
  -7   5   5  269.94   23.52   2
  -6   5   5   69.88    6.35   2
  -5   5   5 1146.04   98.70   2
  -4   5   5    2.82    0.64   2
  -4   5   5    2.62    0.71   1
  -3   5   5  110.87    9.66   1
  -3   5   5  101.84    9.50   2
  -2   5   5  542.61   49.59   1
  -2   5   5  590.08   49.04   2
  -1   5   5    6.15    1.13   1
  -1   5   5    4.88    1.00   2
   1  -5  -5    7.54    1.16   1
   0   5   5   12.60    1.82   1
   0   5   5   11.46    1.73   2
   0   5   5   15.38    1.93   3
   0  -5  -5   14.50    1.97   1
  -1  -5  -5   39.91    4.77   1
   1   5   5   47.47    4.72   1
   1   5   5   48.51    4.65   2
   2   5   5    8.28    1.63   2
  -2  -5  -5   11.29    2.04   1
   2   5   5   14.15    2.07   3
   2   5   5   11.33    1.85   1
   3   5   5    5.80    1.45   3
  -3  -5  -5    4.78    1.52   1
   3   5   5    2.59    1.19   1
   3   5   5    4.33    1.35   2
   4   5   5  115.44   11.44   1
   4   5   5  135.17   12.03   3
   4   5   5  116.44   11.33   2
  -4  -5  -5  113.85   11.54   1
   5   5   5  163.68   15.07   2
   5   5   5  165.73   15.26   1
   5   5   5  139.76   15.62   3
  -5  -5  -5  178.53   15.45   1
   6   5   5  144.87   15.41   1
  -6  -5  -5  165.78   15.67   1
   6   5   5  181.08   16.28   3
  -7  -5  -5    8.87    2.45   1
   7   5   5    5.58    2.12   1
   7   5   5    6.56    2.12   3
 -10   6   5    4.95    1.20   2
  -9   6   5  139.61   12.42   2
  -8   6   5   58.02    5.44   2
  -7   6   5   84.39    7.57   2
  -4   6   5    2.60    0.71   2
  -3   6   5  492.79   41.83   2
  -3   6   5  472.96   42.34   1
  -2   6   5  220.29   18.68   1
  -2   6   5  198.38   18.41   2
  -1   6   5  293.19   24.97   2
  -1   6   5  275.44   25.23   1
   0   6   5   14.04    1.91   1
   0   6   5   11.05    1.71   2
   1   6   5  209.80   19.66   2
   1   6   5  232.65   20.00   1
  -2  -6  -5   58.32    6.71   1
   2   6   5   72.54    6.71   1
   2   6   5   66.05    6.50   2
   3   6   5    0.42    0.86   2
   3   6   5    0.75    1.01   1
  -3  -6  -5    1.26    1.16   1
   4   6   5   28.89    3.79   1
  -4  -6  -5   31.25    4.09   1
   4   6   5   29.69    3.77   2
   5   6   5    7.58    1.94   1
  -5  -6  -5    4.82    1.90   1
   5   6   5    7.61    1.90   2
  -6  -6  -5   22.30    3.67   1
   6   6   5   21.81    3.53   1
  -6   7   5   33.59    3.26   2
  -5   7   5  140.19   12.38   2
  -4   7   5   73.03    6.66   2
  -3   7   5   18.97    2.17   2
  -2   7   5  438.55   37.85   1
  -2   7   5  421.02   37.39   2
  -1   7   5   27.30    3.07   1
  -1   7   5   25.66    2.91   2
   0   7   5    8.31    1.48   2
   0   7   5    8.86    1.63   1
   1   7   5   43.70    4.77   2
   1   7   5   47.42    4.91   1
   2   7   5   29.80    3.82   1
   2   7   5   34.20    3.81   2
   3   7   5   65.85    6.79   2
   3   7   5   66.94    6.94   1
   4   7   5   -0.80    0.95   1
   4   7   5    1.16    1.24   2
   5   7   5   28.84    4.04   1
   5   7   5   29.44    4.17   2
  -6   8   5  413.79   35.83   2
  -5   8   5  158.96   14.04   2
  -4   8   5  161.51   14.32   2
  -3   8   5   55.69    5.32   2
  -2   8   5   13.40    1.88   2
  -1   8   5   68.39    6.62   2
   0   8   5   16.07    2.37   1
   0   8   5   14.33    2.21   2
   1   8   5    4.52    1.51   1
   1   8   5    9.18    1.80   2
   2   8   5   63.68    6.95   2
   2   8   5   74.25    7.19   1
   3   8   5    0.40    1.17   2
   3   8   5    2.21    1.38   1
   4   8   5   36.90    4.79   1
   4   8   5   41.27    4.79   2
  -5   9   5  133.53   11.92   2
  -4   9   5    0.81    0.75   2
  -3   9   5   14.63    1.99   2
  -2   9   5   71.49    6.89   2
  -1   9   5    4.51    1.23   2
   0   9   5   17.08    2.46   2
   1   9   5   19.12    2.91   1
   1   9   5   19.44    2.83   2
   2   9   5    0.07    1.11   1
   3   9   5    6.05    1.89   1
   5   9  -6   -0.19    1.48   2
   5   9  -6    0.92    1.39   1
   4   9  -6  197.54   18.21   2
   4   9  -6  187.68   18.38   1
   3   9  -6    1.98    1.70   1
   3   9  -6    1.46    1.61   2
   2   9  -6   69.80    7.70   1
   2   9  -6   65.59    7.40   2
   1   9  -6   18.43    3.21   2
   1   9  -6   18.22    3.47   1
   0   9  -6   38.05    5.21   1
  -1   9  -6   13.65    3.12   1
  -8  -8   6   38.85    5.46   1
   7   8  -6   39.57    5.28   1
  -7  -8   6   41.37    5.37   1
  -6  -8   6    2.87    1.53   3
  -6  -8   6    3.75    1.95   1
   6   8  -6    5.73    2.00   1
   5   8  -6  210.17   18.73   2
   5   8  -6  189.21   18.89   1
  -5  -8   6  203.13   19.57   3
  -5  -8   6  197.41   18.90   1
   4   8  -6    1.23    1.33   2
   4   8  -6    0.32    1.34   1
  -4  -8   6   -0.33    0.92   3
   3   8  -6   18.14    3.26   1
   3   8  -6   21.27    3.24   2
  -3  -8   6   18.99    3.26   3
  -2  -8   6    9.89    2.16   3
   2   8  -6    6.35    2.07   1
   2   8  -6   10.69    2.24   2
  -1  -8   6  151.61   15.01   3
   1   8  -6  158.87   14.42   2
   1   8  -6  141.23   14.54   1
   0   8  -6  101.53   10.28   1
   0   8  -6   92.19    9.91   2
   0  -8   6  107.16   10.63   3
  -1   8  -6   27.16    4.13   1
   1  -8   6   26.27    3.94   3
  -1   8  -6   30.77    4.04   2
   2  -8   6    6.89    2.06   3
  -2   8  -6    6.03    1.90   2
  -2   8  -6    3.88    1.94   1
  -3   8  -6    0.73    1.55   1
   9   7  -6  228.03   21.19   1
  -9  -7   6  192.69   21.02   1
  -9  -7   6  251.56   22.00   3
  -8  -7   6   10.97    2.64   1
   8   7  -6    6.88    2.40   1
  -8  -7   6   12.13    2.62   3
  -7  -7   6  147.32   12.93   1
   7   7  -6  117.72   12.58   1
  -7  -7   6  120.20   12.94   3
  -6  -7   6   36.71    4.59   1
   6   7  -6   35.43    4.27   2
   6   7  -6   37.62    4.53   1
  -6  -7   6   24.84    4.11   3
   5   7  -6   61.51    7.24   1
   5   7  -6   75.36    7.29   2
  -5  -7   6   71.35    7.33   1
  -5  -7   6   61.77    7.37   3
   4   7  -6   64.16    6.66   2
   4   7  -6   60.86    6.85   1
  -4  -7   6   59.68    6.86   3
   3   7  -6   26.39    3.74   1
   3   7  -6   28.76    3.59   2
  -3  -7   6   21.35    3.38   3
  -2  -7   6   11.45    2.33   3
   2   7  -6   10.50    2.22   2
  -2  -7   6   11.42    2.29   1
   2   7  -6   10.92    2.36   1
   1   7  -6   26.75    3.69   1
  -1  -7   6   24.07    3.51   3
   1   7  -6   23.43    3.36   2
   0   7  -6    8.99    2.07   2
   0  -7   6    8.68    2.08   3
   0   7  -6   10.87    2.29   1
  -1   7  -6   54.15    6.15   1
   1  -7   6   55.38    6.34   3
  -1   7  -6   54.89    6.06   2
   2  -7   6   26.96    3.89   3
  -2   7  -6   26.36    3.75   2
  -2   7  -6   30.32    4.01   1
  -3   7  -6  163.12   16.34   2
   3  -7   6  179.19   17.27   3
  -3   7  -6  186.46   16.81   1
  -4   7  -6   47.14    5.82   1
  10   6  -6   82.49    9.26   1
 -10  -6   6   91.78    9.56   1
  -9  -6   6   16.18    3.10   1
  -9  -6   6   13.96    2.89   3
   9   6  -6   11.40    2.77   1
   8   6  -6  439.33   37.94   1
  -8  -6   6  398.45   37.86   1
   7   6  -6    1.90    1.41   1
  -7  -6   6    1.07    1.12   3
  -7  -6   6    0.51    1.29   1
  -6  -6   6   -0.93    0.83   3
   6   6  -6   -0.01    1.12   2
   6   6  -6   -0.47    1.04   1
  -6  -6   6    0.15    1.07   1
   5   6  -6   73.28    7.61   2
  -5  -6   6   67.08    7.83   3
   5   6  -6   81.45    7.88   1
  -5  -6   6   75.52    7.70   1
   4   6  -6   34.80    4.52   1
  -4  -6   6   35.70    4.47   3
   4   6  -6   40.83    4.40   2
  -4  -6   6   35.51    4.44   1
  -3  -6   6  138.28   12.74   1
   3   6  -6  128.29   12.52   2
   3   6  -6  147.92   12.98   1
  -3  -6   6  119.61   13.05   3
   2   6  -6   80.17    7.51   2
   2   6  -6   76.88    7.69   1
  -2  -6   6   69.52    7.72   3
  -2  -6   6   65.59    7.42   1
  -1  -6   6    4.73    1.45   3
   1   6  -6    5.32    1.60   1
   1   6  -6    7.39    1.74   2
  -1  -6   6    4.42    1.51   1
   0  -6   6   12.41    2.38   3
   0  -6   6   12.44    2.31   1
   0   6  -6   14.61    2.33   2
   0   6  -6   12.81    2.41   1
   1  -6   6    6.15    1.71   3
  -1   6  -6    3.83    1.58   1
  -1   6  -6    5.41    1.55   2
   2  -6   6  247.75   22.19   3
  -2   6  -6  229.31   21.44   1
  -2   6  -6  220.29   21.07   2
  -3   6  -6  305.63   28.56   1
   3  -6   6  325.68   29.56   3
  -3   6  -6  312.99   28.24   2
   4  -6   6  295.38   25.23   3
  -4   6  -6  273.21   23.95   2
  -4   6  -6  227.54   24.05   1
  -5   6  -6    8.94    2.23   1
  -5   6  -6    9.72    2.13   2
  -6   6  -6    3.32    1.68   1
  11   5  -6   75.24    8.25   1
 -10  -5   6    4.46    1.94   1
  10   5  -6    4.66    1.92   1
   9   5  -6  151.85   15.47   1
  -9  -5   6  173.73   15.78   1
  -9  -5   6  162.82   16.08   3
  -8  -5   6   -0.11    0.99   3
  -8  -5   6    0.32    1.29   1
   8   5  -6   -0.21    1.15   1
  -7  -5   6   38.39    4.64   3
  -7  -5   6   31.90    4.44   1
   7   5  -6   42.40    4.68   1
   6   5  -6  270.51   25.80   1
   6   5  -6  308.01   25.52   2
  -6  -5   6  281.48   25.82   1
  -6  -5   6  275.84   26.68   3
   5   5  -6  170.98   15.92   1
   5   5  -6  163.07   15.58   2
  -5  -5   6  188.81   15.94   1
  -5  -5   6  155.95   16.28   3
   4   5  -6   77.52    7.38   2
  -4  -5   6   70.48    7.70   3
   4   5  -6   74.23    7.58   1
  -4  -5   6   71.92    7.48   1
   3   5  -6    4.61    1.57   1
   3   5  -6    5.16    1.38   2
  -3  -5   6    4.99    1.52   3
  -3  -5   6    5.35    1.55   1
   2   5  -6  254.70   21.90   2
   2   5  -6  266.58   22.32   1
  -2  -5   6  217.96   22.76   3
  -2  -5   6  235.34   22.09   1
  -1  -5   6   79.05    8.01   1
   1   5  -6   80.20    8.04   1
  -1  -5   6   80.76    8.28   3
   0   5  -6  115.10   11.59   1
   0  -5   6  125.33   11.97   3
   0   5  -6  118.56   11.38   2
   0  -5   6  124.37   11.50   1
   1  -5   6    3.25    1.23   3
  -1   5  -6    2.29    1.17   2
  -1   5  -6    1.80    1.18   1
   1  -5   6    1.78    1.20   1
   2  -5   6    3.85    1.41   3
  -2   5  -6    4.20    1.50   1
  -2   5  -6    4.73    1.35   2
  -3   5  -6  140.08   14.08   1
   3  -5   6  158.32   14.62   3
  -3   5  -6  150.43   13.93   2
  -4   5  -6    1.29    1.22   1
   4  -5   6    2.40    1.20   3
  -4   5  -6    0.82    1.01   2
  -5   5  -6   53.33    6.52   1
  -5   5  -6   57.54    6.41   2
   5  -5   6   74.74    7.02   3
  -6   5  -6   45.00    5.35   1
  -7   5  -6   23.02    3.52   1
 -11  -4   6  147.02   14.59   1
 -10  -4   6    3.09    1.71   2
  10   4  -6    7.44    2.05   1
 -10  -4   6    5.57    1.91   1
  -9  -4   6    0.85    1.02   2
  -9  -4   6    0.83    1.29   1
  -9  -4   6   -0.37    0.91   3
   9   4  -6    0.01    1.21   1
  -8  -4   6   88.52    8.59   3
   8   4  -6   68.19    8.08   1
  -8  -4   6   86.30    8.26   2
  -7  -4   6  176.46   15.25   1
   7   4  -6  163.67   15.15   1
  -7  -4   6  144.97   14.90   2
  -6  -4   6   11.95    2.17   3
  -6  -4   6   13.06    2.22   1
   6   4  -6    8.84    1.84   2
   6   4  -6   11.01    2.16   1
  -6  -4   6    6.46    1.79   2
  -5  -4   6 1093.56   87.88   1
   5   4  -6  927.93   87.76   1
  -5  -4   6 1082.52   90.63   3
  -5  -4   6 1005.50   86.80   2
   5   4  -6  895.64   86.66   2
   4   4  -6  141.69   13.25   2
  -4  -4   6  147.80   13.55   1
   4   4  -6  148.09   13.61   1
  -4  -4   6  144.65   13.99   3
  -4  -4   6  139.48   13.27   2
   3   4  -6    0.96    0.97   1
  -3  -4   6    0.80    0.79   2
   3   4  -6    1.05    0.80   2
  -3  -4   6    0.40    0.87   1
  -3  -4   6    0.86    0.85   3
  -2  -4   6   70.82    6.95   2
  -2  -4   6   75.39    7.08   1
   2   4  -6   76.63    7.18   1
  -2  -4   6   63.82    7.21   3
   2   4  -6   65.29    6.87   2
   1   4  -6  524.64   45.94   1
  -1  -4   6  560.14   47.44   3
  -1  -4   6  540.22   44.56   4
   1   4  -6  465.99   45.27   2
  -1  -4   6  500.03   45.84   1
   0   4  -6  296.33   24.60   1
   0  -4   6  278.21   24.52   1
   0  -4   6  249.34   23.60   4
   0   4  -6  269.49   24.17   2
   0  -4   6  266.62   25.25   3
  -1   4  -6  135.47   12.91   1
   1  -4   6  130.39   12.40   4
   1  -4   6  131.71   12.88   1
  -1   4  -6  152.38   12.84   2
  -2   4  -6    5.57    1.49   2
   2  -4   6    8.34    1.66   3
   2  -4   6    5.38    1.29   4
   2  -4   6    5.16    1.52   1
  -2   4  -6    5.39    1.57   1
   3  -4   6    8.83    1.94   1
   3  -4   6   10.44    1.93   3
  -3   4  -6    9.61    1.86   2
  -3   4  -6    6.13    1.75   1
  -4   4  -6  158.07   14.79   1
   4  -4   6  159.62   15.24   3
  -4   4  -6  154.52   14.62   2
  -5   4  -6   54.77    5.59   2
   5  -4   6   48.96    5.57   3
  -5   4  -6   44.89    5.40   1
  -6   4  -6  168.81   17.02   1
   6  -4   6  216.27   17.86   3
  -6   4  -6  165.87   16.87   2
  -7   4  -6  141.67   13.66   1
 -11  -3   6    2.15    1.68   1
 -11  -3   6    1.93    1.35   2
  10   3  -6    8.62    2.17   1
 -10  -3   6    9.62    2.38   1
 -10  -3   6    7.72    2.06   2
  -9  -3   6  563.63   51.94   1
  -9  -3   6  602.52   51.45   2
   9   3  -6  584.73   51.76   1
  -8  -3   6  121.30   11.85   3
  -8  -3   6  116.71   11.37   2
  -7  -3   6  128.78   12.24   2
   7   3  -6  135.23   12.35   1
  -7  -3   6  126.55   12.38   1
  -6  -3   6  101.81    9.65   2
  -6  -3   6  100.72   10.05   3
   6   3  -6   82.67    9.58   1
  -6  -3   6  121.56    9.97   1
  -5  -3   6    4.51    1.37   3
   5   3  -6    5.22    1.50   1
  -5  -3   6    5.12    1.45   1
  -5  -3   6    3.26    1.13   2
   5   3  -6    5.42    1.34   2
  -4  -3   6  539.20   47.95   1
  -4  -3   6  488.58   47.32   2
   4   3  -6  562.20   48.01   1
  -4  -3   6  581.68   49.58   3
  -3  -3   6   56.43    5.35   3
  -3  -3   6   42.28    4.99   1
   3   3  -6   40.93    5.05   1
   3   3  -6   54.77    5.02   2
  -3  -3   6   47.18    5.04   2
  -2  -3   6  142.76   13.97   3
  -2  -3   6  168.20   12.69   4
  -2  -3   6  131.32   13.47   1
  -2  -3   6  152.33   13.44   2
   2   3  -6  128.57   13.27   2
  -1  -3   6   20.39    2.40   1
   1   3  -6   12.18    2.03   1
  -1  -3   6   12.26    1.44   4
  -1  -3   6   11.38    1.81   2
   1   3  -6    9.38    1.73   2
  -1  -3   6   12.22    2.04   3
   0   3  -6    5.58    1.31   2
   0  -3   6    3.99    0.90   4
   0  -3   6    6.16    1.34   2
   0  -3   6    3.41    1.27   1
   0   3  -6    5.28    1.34   1
   0  -3   6    6.56    1.41   3
  -1   3  -6  130.84   13.19   1
   1  -3   6  127.04   13.52   3
   1  -3   6  167.08   13.28   1
   1  -3   6  137.66   12.74   4
  -1   3  -6  147.36   13.05   2
  -2   3  -6   70.69    7.14   1
  -2   3  -6   75.39    7.02   2
   2  -3   6   73.81    7.09   1
   2  -3   6   71.79    6.83   4
   2  -3   6   60.71    7.13   3
  -3   3  -6  593.60   51.36   2
   3  -3   6  567.86   53.46   3
  -3   3  -6  615.36   51.92   1
   3  -3   6  570.37   51.82   1
  -4   3  -6   81.84    8.68   1
   4  -3   6  100.26    9.07   3
  -4   3  -6   85.20    8.63   2
   4  -3   6   86.30    8.74   1
  -5   3  -6   85.00    8.24   1
   5  -3   6   87.47    8.46   3
  -5   3  -6   71.00    8.01   2
  -6   3  -6   54.45    6.15   2
   6  -3   6   58.05    6.35   3
  -6   3  -6   59.23    6.35   1
  -7   3  -6   13.28    2.71   1
  -7   3  -6   13.89    2.60   2
 -12  -2   6    1.68    1.73   1
 -11  -2   6   -0.30    1.31   1
 -11  -2   6    1.56    1.32   2
 -10  -2   6  311.47   32.55   1
 -10  -2   6  414.28   32.50   2
  -9  -2   6   23.47    3.64   1
   9   2  -6   30.17    3.58   1
  -9  -2   6   25.59    3.52   2
   8   2  -6  717.18   65.21   1
  -8  -2   6  765.26   64.70   2
  -7  -2   6   43.88    5.15   1
  -7  -2   6   47.83    5.10   2
   7   2  -6   54.15    5.17   1
  -7  -2   6   44.50    5.22   3
  -6  -2   6    8.55    1.76   3
  -6  -2   6   11.02    1.96   1
  -6  -2   6    9.10    1.72   2
   6   2  -6   11.19    1.87   1
  -5  -2   6   49.09    6.17   1
   5   2  -6   63.03    6.26   1
   5   2  -6   71.73    6.19   2
  -5  -2   6   64.85    6.47   3
  -4  -2   6  465.53   39.24   2
   4   2  -6  417.81   39.59   1
  -4  -2   6  511.72   39.71   1
  -4  -2   6  412.41   40.81   3
   4   2  -6  432.02   39.06   2
   3   2  -6    3.07    0.98   2
   3   2  -6    3.35    1.14   1
  -3  -2   6    1.35    0.84   3
  -3  -2   6    3.23    0.97   2
  -3  -2   6    3.60    1.16   1
  -2  -2   6   60.45    5.65   2
   2   2  -6   56.00    5.53   2
   2   2  -6   56.48    5.71   1
  -2  -2   6   44.52    5.65   3
  -2  -2   6   63.82    5.79   1
   1   2  -6   12.91    1.86   2
  -1  -2   6   13.87    1.94   1
  -1  -2   6    8.43    1.81   3
  -1  -2   6   14.12    1.96   2
   0   2  -6    2.89    1.08   1
   0   2  -6    1.43    0.80   2
   0  -2   6    0.75    0.79   2
   0  -2   6    1.91    0.84   3
   0  -2   6    1.51    0.86   1
   1  -2   6    1.75    0.92   1
  -1   2  -6    2.19    1.02   1
   1  -2   6    3.96    1.09   2
   1  -2   6    1.70    0.84   3
  -1   2  -6    3.59    1.07   2
   2  -2   6  665.14   63.04   3
   2  -2   6  656.73   61.13   1
  -2   2  -6  696.62   61.23   1
  -2   2  -6  764.06   60.63   2
   3  -2   6  199.93   19.58   3
   3  -2   6  231.16   19.10   1
  -3   2  -6  195.26   18.82   2
   4  -2   6  121.00   11.66   1
  -4   2  -6  149.20   12.02   1
  -4   2  -6  119.84   11.59   2
   4  -2   6  107.43   11.91   3
   5  -2   6   39.08    4.55   1
   5  -2   6   35.26    4.56   3
  -5   2  -6   49.79    4.77   2
  -5   2  -6   37.10    4.66   1
  -6   2  -6   10.23    2.10   1
  -6   2  -6    5.85    1.80   2
   6  -2   6    8.13    1.94   3
   7  -2   6  201.97   19.98   3
  -7   2  -6  213.25   19.19   2
 -12  -1   6  116.45   11.74   1
 -11  -1   6   20.62    3.09   2
 -11  -1   6   13.16    2.77   1
 -10  -1   6    0.00    1.09   2
 -10  -1   6    4.44    1.72   1
  -9  -1   6  371.95   33.88   2
  -9  -1   6  392.30   34.29   1
  -8  -1   6    6.92    1.59   2
   8   1  -6   10.50    1.84   1
  -8  -1   6    5.25    1.73   1
  -7  -1   6  380.05   33.59   3
  -7  -1   6  395.79   32.26   2
  -7  -1   6  320.77   32.50   1
  -6  -1   6  311.12   26.16   1
  -6  -1   6  312.60   26.93   3
   6   1  -6  294.34   26.01   1
  -6  -1   6  248.82   25.68   2
   5   1  -6   79.19    8.72   1
  -5  -1   6  104.94    9.22   3
  -5  -1   6   95.31    8.81   2
  -5  -1   6   82.43    8.79   1
   5   1  -6  106.71    8.73   2
  -4  -1   6  380.18   32.70   1
  -4  -1   6  392.95   32.32   2
   4   1  -6  333.39   32.13   2
  -3  -1   6    2.30    0.86   2
  -3  -1   6    4.88    1.07   3
  -3  -1   6    2.09    0.89   1
   3   1  -6    1.72    0.76   2
   3   1  -6    1.72    0.78   1
  -2  -1   6   64.32    6.17   2
  -2  -1   6   66.45    6.20   1
   2   1  -6   58.26    5.99   2
   2   1  -6   61.75    6.17   1
  -1  -1   6  322.57   28.06   2
   1   1  -6  308.64   28.36   1
  -1  -1   6  307.88   29.22   3
   1   1  -6  334.90   28.03   2
   0  -1   6  120.50   12.43   3
   0  -1   6  149.35   12.22   1
   0   1  -6  143.93   12.25   1
   0  -1   6  117.03   11.89   2
   0   1  -6  126.68   11.94   2
   1  -1   6   11.10    1.93   3
   1  -1   6   12.83    1.96   1
  -1   1  -6   13.45    2.04   2
  -1   1  -6   18.28    2.34   1
   1  -1   6   13.34    1.93   2
   2  -1   6   40.72    5.11   1
   2  -1   6   48.76    5.32   3
   2  -1   6   56.42    5.21   2
  -2   1  -6   51.55    5.22   2
  -2   1  -6   57.19    5.46   1
   3  -1   6  272.15   26.40   3
  -3   1  -6  297.53   25.76   1
  -4   1  -6   47.03    4.70   2
   4  -1   6   37.60    4.73   3
   4  -1   6   40.64    4.62   1
  -4   1  -6   42.71    4.82   1
  -5   1  -6  193.71   16.86   2
  -5   1  -6  172.48   17.10   1
   6  -1   6  130.63   12.11   1
  -6   1  -6  116.99   11.94   2
   6  -1   6  120.35   12.52   3
  -6   1  -6  136.61   12.45   1
   7  -1   6   46.04    5.09   3
  -7   1  -6   32.22    4.86   1
  -7   1  -6   38.94    4.76   2
 -12   0   6   16.38    3.12   1
 -11   0   6  126.77   12.74   2
 -11   0   6  140.48   12.95   1
 -10   0   6   36.25    4.31   2
 -10   0   6   34.27    4.36   1
  -9   0   6   45.87    5.62   2
  -9   0   6   65.24    6.00   1
   8   0  -6   69.34    6.65   1
  -8   0   6   85.12    7.04   2
  -8   0   6   54.74    6.81   1
  -7   0   6  819.11   72.48   3
   7   0  -6  857.23   70.24   1
  -7   0   6  728.81   69.52   2
  -6   0   6   17.15    2.69   3
  -6   0   6   25.68    2.94   2
   6   0  -6   26.61    2.85   1
  -6   0   6   28.12    3.12   1
  -5   0   6 1312.63  126.26   3
   5   0  -6 1368.15  120.97   2
  -5   0   6 1637.32  122.61   1
   5   0  -6 1302.58  122.41   1
  -4   0   6  624.88   54.03   1
  -4   0   6  543.11   55.61   3
   4   0  -6  678.00   54.04   1
  -3   0   6    4.23    1.06   2
   3   0  -6    1.13    0.70   2
   3   0  -6    1.93    0.78   1
  -3   0   6    2.31    0.83   3
  -3   0   6    0.95    0.72   1
  -2   0   6  465.34   43.09   3
  -2   0   6  436.94   41.31   2
  -2   0   6  522.13   41.88   1
  -1   0   6 1125.96  111.65   3
  -1   0   6 1342.63  107.21   2
   1   0  -6 1255.79  108.38   1
   0   0  -6   12.87    1.95   1
   0   0   6   12.97    1.76   2
   0   0   6    8.49    1.61   1
   0   0  -6   12.77    1.83   2
   1   0   6    6.48    1.25   2
  -1   0  -6    5.60    1.33   2
  -1   0  -6    7.83    1.51   1
   1   0   6    5.88    1.29   3
  -2   0  -6    0.48    0.87   1
   2   0   6    0.92    0.72   3
   2   0   6    0.87    0.76   1
   2   0   6    0.81    0.61   2
  -2   0  -6   -0.28    0.68   2
  -3   0  -6   27.62    3.24   2
   3   0   6   29.93    3.37   1
   3   0   6   21.38    2.97   2
   3   0   6   27.51    3.36   3
  -3   0  -6   31.31    3.59   1
  -4   0  -6  280.25   25.50   1
   4   0   6  295.42   25.36   1
  -4   0  -6  269.32   25.04   2
   4   0   6  278.45   26.22   3
   5   0   6  105.31    9.57   1
  -5   0  -6   93.31    9.66   1
   5   0   6  112.48   10.05   3
  -5   0  -6   80.12    9.25   2
   6   0   6  141.39   11.69   1
  -6   0  -6  113.73   11.67   1
  -6   0  -6  103.70   11.23   2
   7   0   6   42.33    4.74   3
  -7   0  -6   30.85    4.52   1
   7   0   6   29.45    4.32   1
  -7   0  -6   34.80    4.33   2
 -11   1   6   17.68    2.78   2
 -11   1   6   16.81    2.81   1
 -10   1   6    3.89    1.56   1
 -10   1   6    2.70    1.37   2
  -9   1   6  215.10   19.45   2
  -8   1   6    6.14    1.67   1
  -8   1   6    9.23    1.63   2
  -7   1   6  294.24   27.26   1
  -7   1   6  317.02   26.74   4
   6  -1  -6  224.43   19.29   1
  -6   1   6  198.11   19.93   3
  -6   1   6  210.13   19.02   4
  -6   1   6  234.38   19.50   1
  -5   1   6   65.42    6.78   1
  -5   1   6   81.09    6.68   2
   5  -1  -6   85.35    7.08   3
   5  -1  -6   66.09    6.64   1
  -5   1   6   57.95    6.82   3
  -4   1   6  323.53   23.88   2
  -4   1   6  252.29   23.67   2
   4  -1  -6  239.05   23.53   2
  -3   1   6    3.48    0.88   2
  -3   1   6    2.15    0.71   3
   3  -1  -6    0.61    0.49   2
   3  -1  -6    1.28    0.65   1
  -3   1   6    2.30    0.82   1
  -3   1   6    2.42    0.74   2
  -2   1   6   90.40    7.49   2
   2  -1  -6   80.70    7.27   2
  -2   1   6   73.68    7.45   1
  -2   1   6   73.72    7.62   3
   2  -1  -6   75.47    7.41   1
   1  -1  -6  188.71   17.91   2
  -1   1   6  216.02   17.98   2
   0   1   6  106.93   12.36   3
   0  -1  -6  158.71   12.11   2
   0   1   6  132.76   12.14   1
   0   1   6  132.64   11.96   2
  -1  -1  -6   12.96    1.94   2
   1   1   6   10.30    1.67   2
   1   1   6   13.30    2.00   3
   1   1   6   10.74    1.76   1
  -1  -1  -6   12.77    2.08   1
  -2  -1  -6   53.08    5.02   2
   2   1   6   37.79    4.73   1
   2   1   6   52.00    4.89   2
   3   1   6  567.23   53.39   2
  -3  -1  -6  709.87   54.35   1
   3   1   6  568.33   53.93   1
   4   1   6   36.19    4.26   1
  -4  -1  -6   36.31    4.29   2
   4   1   6   35.37    4.43   3
  -4  -1  -6   49.60    4.80   1
   5   1   6  166.68   17.12   3
   5   1   6  205.92   16.65   1
  -5  -1  -6  158.79   16.67   1
  -5  -1  -6  183.14   16.41   2
  -6  -1  -6  115.12   11.63   2
   6   1   6  121.34   11.75   1
  -6  -1  -6  114.63   11.99   1
   6   1   6  140.63   12.48   3
   7   1   6   36.98    4.67   3
   7   1   6   34.11    4.48   1
   8   1   6   73.04    7.95   1
  12  -2  -6    1.56    1.19   3
 -11   2   6   -0.47    1.13   2
 -10   2   6  429.28   37.87   2
  -9   2   6   20.58    2.92   2
  -8   2   6  830.12   79.30   4
  -8   2   6  946.11   80.70   1
  -8   2   6  988.28   79.87   2
  -7   2   6   58.01    5.22   4
  -7   2   6   46.00    5.11   2
  -6   2   6    4.98    1.16   4
  -6   2   6   10.07    1.37   2
  -6   2   6    7.44    1.37   1
  -5   2   6   59.55    5.25   1
   5  -2  -6   60.88    4.98   1
  -5   2   6   43.07    5.03   2
  -5   2   6   45.52    5.12   3
  -4   2   6  493.19   40.08   2
  -4   2   6  429.18   40.10   2
  -3   2   6    3.93    0.96   1
   3  -2  -6    2.89    0.81   1
  -3   2   6    3.73    0.85   2
  -3   2   6    4.10    0.93   3
   3  -2  -6    1.88    0.79   3
   3  -2  -6    5.18    0.86   2
  -3   2   6    2.76    0.85   2
  -2   2   6   58.73    5.33   3
   2  -2  -6   46.80    5.06   1
  -2   2   6   59.93    5.14   2
  -2   2   6   44.42    5.13   1
   1  -2  -6   17.54    2.08   1
  -1   2   6   15.34    1.94   2
   1  -2  -6   10.04    1.72   2
  -1   2   6   15.30    1.93   3
  -1   2   6   14.43    1.96   1
   0   2   6    1.82    0.82   1
   0  -2  -6    2.73    0.89   2
   0   2   6    1.50    0.75   2
   0   2   6    1.09    0.69   3
   0  -2  -6    1.65    0.86   1
   1   2   6    1.09    0.77   2
   1   2   6    1.96    0.87   3
   1   2   6    1.68    0.82   1
  -1  -2  -6    0.88    1.00   1
  -1  -2  -6    1.46    0.92   2
  -2  -2  -6  668.28   60.25   1
   2   2   6  714.70   60.14   1
  -2  -2  -6  700.74   59.52   2
   2   2   6  651.02   59.42   2
   3   2   6  218.27   19.97   2
   3   2   6  198.50   20.10   1
  -3  -2  -6  236.72   20.42   1
   3   2   6  226.37   20.88   3
  -3  -2  -6  233.98   20.04   2
   4   2   6  131.71   13.16   1
  -4  -2  -6  148.45   13.42   1
   4   2   6  120.18   12.99   2
   4   2   6  167.36   13.88   3
  -5  -2  -6   37.21    4.30   1
   5   2   6   33.07    4.01   1
   5   2   6   30.05    4.08   3
  -6  -2  -6   11.47    2.51   1
   6   2   6   12.48    2.44   3
   6   2   6    7.23    1.95   1
  -7  -2  -6  204.75   18.06   1
   7   2   6  179.48   17.63   1
   7   2   6  181.38   18.39   3
   8   2   6    0.21    1.29   1
 -11   3   6    3.35    1.48   2
  11  -3  -6    4.52    1.25   3
 -10   3   6   13.78    2.32   2
  -9   3   6  565.12   49.29   2
  -8   3   6  153.24   13.85   2
  -7   3   6  120.17   10.40   2
  -7   3   6  112.27   10.58   1
  -7   3   6  109.55   10.62   4
  -6   3   6  146.50   11.73   2
  -6   3   6  113.35   11.75   1
  -5   3   6    6.65    1.16   2
  -5   3   6    4.06    1.02   1
  -4   3   6  480.54   43.38   3
  -4   3   6  458.76   42.14   1
  -4   3   6  500.43   41.69   2
  -3   3   6   39.11    4.21   2
  -3   3   6   43.10    4.29   2
   3  -3  -6   46.34    4.53   3
   3  -3  -6   44.63    4.21   1
  -2   3   6  119.20   12.05   2
  -2   3   6  155.87   12.26   1
   2  -3  -6  145.68   12.20   1
   2  -3  -6  116.76   12.59   3
  -1   3   6    8.30    1.37   2
  -1   3   6   10.10    1.54   3
  -1   3   6    9.54    1.49   1
   1  -3  -6    9.45    1.55   1
   0   3   6    6.32    1.28   3
   0   3   6    5.37    1.17   1
   0  -3  -6    3.25    1.14   1
   0   3   6    4.42    1.06   2
   1   3   6  124.58   11.35   1
   1   3   6  119.06   11.72   3
   2   3   6   63.81    7.01   1
  -2  -3  -6   67.09    7.24   1
   2   3   6   85.25    7.45   3
   3   3   6  532.13   46.60   2
  -4  -3  -6   68.28    7.69   1
   4   3   6   77.69    7.97   3
   4   3   6   72.88    7.64   1
   4   3   6   85.13    7.68   2
  -5  -3  -6   63.30    7.71   1
   5   3   6   73.78    7.67   1
   5   3   6   89.40    8.20   3
   6   3   6   57.63    7.24   1
   6   3   6   79.54    7.88   3
  -6  -3  -6   75.79    7.69   1
  -7  -3  -6   21.48    3.43   1
   7   3   6   12.30    2.73   3
   7   3   6   10.73    2.57   1
 -11   4   6  130.53   12.20   2
 -10   4   6    5.41    1.57   2
  -9   4   6    0.00    0.97   2
  -8   4   6   58.56    5.72   2
  -7   4   6   97.00    8.87   2
  -6   4   6   13.03    1.69   1
  -6   4   6    9.10    1.45   2
  -6   4   6    7.76    1.69   4
  -5   4   6 1086.61   83.03   1
  -5   4   6  816.72   82.01   2
  -4   4   6  132.33   12.69   2
  -4   4   6  152.95   12.93   1
  -3   4   6    0.45    0.57   1
  -3   4   6    0.40    0.55   2
  -2   4   6   61.09    5.79   3
  -2   4   6   57.31    5.59   2
  -2   4   6   56.50    5.65   1
   2  -4  -6   58.39    5.55   1
  -1   4   6  513.11   50.01   1
  -1   4   6  485.17   49.43   2
  -1   4   6  651.30   51.70   3
   1  -4  -6  634.36   50.12   1
   0  -4  -6  228.92   22.09   1
   0   4   6  250.24   22.75   3
   0   4   6  242.22   22.02   1
   0   4   6  260.53   21.78   2
   1   4   6  115.19   10.46   1
   1   4   6  114.97   10.79   3
  -1  -4  -6  112.66   10.61   1
   1   4   6  101.05   10.20   2
   2   4   6    7.48    1.53   3
  -2  -4  -6    5.84    1.62   1
   2   4   6    4.23    1.34   2
   2   4   6    6.71    1.49   1
   3   4   6   10.67    2.03   3
   3   4   6   10.72    1.95   2
  -3  -4  -6   12.30    2.18   1
   3   4   6    9.33    1.91   1
   4   4   6  137.09   12.94   1
   4   4   6  147.80   13.41   3
  -4  -4  -6  121.53   12.89   1
   5   4   6   44.66    5.10   3
   5   4   6   38.26    4.90   1
  -6  -4  -6  181.13   18.40   1
   6   4   6  193.39   18.38   1
   6   4   6  211.81   19.13   3
   7   4   6  125.41   14.17   3
  -7  -4  -6  162.39   14.21   1
   7   4   6  138.54   13.79   1
 -10   5   6    4.89    1.48   2
  -9   5   6  130.52   11.87   2
  -8   5   6    0.99    0.89   2
  -7   5   6   29.35    3.12   2
  -6   5   6  274.53   24.01   2
  -5   5   6  144.80   12.90   2
  -4   5   6   63.38    5.75   1
  -4   5   6   55.84    5.60   2
  -3   5   6    4.45    0.99   1
  -2   5   6  225.94   19.29   1
  -2   5   6  204.77   18.99   2
  -1   5   6   79.15    6.85   1
  -1   5   6   61.99    6.62   2
   0   5   6  104.24    9.29   1
   0   5   6   91.40    9.11   2
  -1  -5  -6    2.35    1.30   1
   1   5   6    1.84    0.95   2
   1   5   6    0.53    0.78   1
   2   5   6    6.23    1.50   1
   2   5   6    4.61    1.36   2
  -2  -5  -6    4.30    1.65   1
   3   5   6  153.11   14.17   2
   3   5   6  143.80   14.28   1
  -3  -5  -6  162.09   14.50   1
  -4  -5  -6    0.33    1.33   1
   4   5   6   -0.42    0.95   1
   4   5   6   -0.02    1.02   2
   5   5   6   67.44    7.76   1
  -5  -5  -6   81.69    8.08   1
   6   5   6   48.32    5.74   1
  -6  -5  -6   45.26    5.84   1
 -10   6   6   82.74    7.74   2
  -9   6   6   12.57    1.92   2
  -8   6   6  552.14   47.85   2
  -7   6   6    1.87    0.87   2
  -6   6   6    0.82    0.67   2
  -5   6   6   64.12    6.04   2
  -3   6   6  117.49   10.48   1
  -3   6   6  110.14   10.31   2
  -2   6   6   60.17    6.29   1
  -2   6   6   69.84    6.26   2
  -1   6   6    4.27    1.11   2
  -1   6   6    5.33    1.25   1
   0   6   6   12.33    1.98   2
   0   6   6   14.25    2.05   1
   1   6   6    2.78    1.24   2
   1   6   6    5.05    1.35   1
   2   6   6  229.58   19.84   2
   2   6   6  208.38   19.94   1
   3   6   6  267.94   25.85   1
   3   6   6  303.79   25.74   2
   4   6   6  268.79   24.00   1
  -4  -6  -6  253.62   24.05   1
   4   6   6  261.97   23.73   2
   5   6   6    9.14    2.22   1
  -5  -6  -6    9.25    2.54   1
  -6  -6  -6    1.78    1.87   1
  -6   7   6   38.25    3.80   2
  -5   7   6   59.17    5.61   2
  -4   7   6   57.08    5.45   2
  -3   7   6   21.31    2.51   2
  -2   7   6    8.95    1.60   1
  -2   7   6    9.17    1.54   2
  -1   7   6   22.83    2.63   2
  -1   7   6   19.11    2.64   1
   0   7   6    8.30    1.55   2
   0   7   6    5.98    1.49   1
   1   7   6   47.78    5.07   1
   1   7   6   46.00    5.05   2
   2   7   6   21.58    3.12   1
   2   7   6   24.73    3.31   2
   3   7   6  136.11   11.40   2
   3   7   6   98.77   11.12   1
   4   7   6   41.81    5.40   1
   4   7   6   52.33    5.70   2
  -6   8   6    3.26    1.03   2
  -4   8   6    0.09    0.74   2
  -3   8   6   16.98    2.22   2
  -2   8   6    6.86    1.34   2
  -1   8   6  120.57   11.17   2
   0   8   6   81.23    7.77   1
   0   8   6   75.00    7.67   2
   1   8   6   21.51    3.00   1
   1   8   6   20.97    3.02   2
   2   8   6    6.34    1.72   2
   2   8   6    3.75    1.46   1
   3   8   6    2.03    1.31   1
  -4   9   6  183.90   16.45   2
  -3   9   6    0.74    0.77   2
  -2   9   6   57.13    5.73   2
   1   9   6    9.43    2.05   1
   2   9   6   12.21    2.39   1
   3   9  -7    0.24    1.54   1
   2   9  -7    0.92    1.76   1
   1   9  -7   57.47    7.05   1
   0   9  -7   20.48    3.81   1
  -7  -8   7    2.49    1.83   1
   6   8  -7   31.90    4.81   1
  -6  -8   7   38.85    5.09   1
  -5  -8   7    2.28    1.78   1
   5   8  -7    0.92    1.77   1
  -5  -8   7    6.14    2.00   3
   5   8  -7    4.46    1.86   2
  -4  -8   7   16.47    3.24   3
   4   8  -7   20.69    3.52   1
   4   8  -7   18.03    3.22   2
   3   8  -7    0.99    1.31   2
   3   8  -7   -1.25    1.33   1
  -3  -8   7    1.73    1.39   3
   2   8  -7   15.84    3.29   1
   2   8  -7   19.17    3.30   2
  -2  -8   7   20.97    3.47   3
  -1  -8   7    2.48    1.48   3
   1   8  -7    2.12    1.88   1
   1   8  -7    1.14    1.45   2
   0   8  -7  296.74   26.12   2
   0   8  -7  272.82   26.44   1
  -1   8  -7   23.72    3.92   1
  -2   8  -7   66.08    7.63   1
  -3   8  -7    8.52    2.55   1
  -8  -7   7   52.62    7.23   3
  -8  -7   7   72.47    7.69   1
   8   7  -7   72.55    7.58   1
   7   7  -7   17.27    3.26   1
  -7  -7   7   13.70    3.14   1
  -7  -7   7   22.81    3.53   3
  -6  -7   7    6.38    2.13   3
  -6  -7   7   11.74    2.54   1
   6   7  -7   10.50    2.48   1
   5   7  -7   29.80    3.86   2
  -5  -7   7   15.49    3.34   1
   5   7  -7   19.81    3.45   1
  -5  -7   7   28.95    3.75   3
   4   7  -7  155.96   14.65   2
   4   7  -7  156.13   15.00   1
  -4  -7   7  149.36   15.26   3
   3   7  -7   12.45    2.38   2
  -3  -7   7   13.70    2.69   3
   3   7  -7   14.39    2.88   1
  -3  -7   7    6.77    2.20   1
  -2  -7   7   60.41    7.32   3
  -2  -7   7   73.70    7.29   1
   2   7  -7   63.75    7.36   1
   2   7  -7   64.95    7.05   2
   1   7  -7   30.09    4.14   2
  -1  -7   7   30.84    4.24   3
   1   7  -7   31.21    4.31   1
   0   7  -7   -0.76    1.04   2
   0   7  -7    0.10    1.24   1
   0  -7   7    1.89    1.28   3
  -1   7  -7  177.38   17.19   2
  -1   7  -7  186.90   17.45   1
   1  -7   7  185.73   18.08   3
  -2   7  -7   16.85    3.05   1
   2  -7   7   15.99    3.14   3
  -2   7  -7   12.85    2.78   2
  -3   7  -7   45.80    5.79   1
  -4   7  -7   84.24    9.17   1
  10   6  -7    1.28    1.70   1
  -9  -6   7   92.25    9.51   3
  -9  -6   7   77.71    9.13   1
   9   6  -7   85.13    9.24   1
   8   6  -7   15.40    2.96   1
  -8  -6   7    9.63    2.47   1
  -8  -6   7    8.52    2.31   3
  -7  -6   7  107.80   11.70   1
   7   6  -7  121.57   11.87   1
  -7  -6   7  127.30   12.31   3
  -6  -6   7   19.22    3.21   3
   6   6  -7   17.23    3.15   1
  -6  -6   7   18.39    3.12   1
   5   6  -7  289.78   23.89   1
  -5  -6   7  267.78   23.66   1
  -5  -6   7  227.02   24.25   3
   5   6  -7  245.37   23.26   2
  -4  -6   7   67.78    7.87   3
   4   6  -7   86.26    8.01   1
   4   6  -7   67.32    7.51   2
  -4  -6   7   73.57    7.73   1
   3   6  -7  414.75   35.81   1
  -3  -6   7  414.70   36.90   3
   3   6  -7  374.06   35.11   2
  -3  -6   7  379.65   35.56   1
  -2  -6   7    5.33    1.63   3
   2   6  -7    3.19    1.38   2
  -2  -6   7    1.90    1.43   1
   2   6  -7    2.45    1.51   1
   1   6  -7   21.38    3.06   2
   1   6  -7   17.44    3.06   1
  -1  -6   7   17.76    3.06   3
  -1  -6   7   17.87    3.01   1
   0  -6   7   81.26    8.59   3
   0   6  -7   76.52    8.30   1
   0   6  -7   81.36    8.21   2
   1  -6   7   24.14    3.49   3
  -1   6  -7   21.42    3.46   1
  -1   6  -7   21.64    3.24   2
  -2   6  -7   38.70    5.28   1
   2  -6   7   50.86    5.54   3
  -2   6  -7   39.49    5.01   2
  -3   6  -7  188.33   17.13   1
   3  -6   7  183.39   17.63   3
  -3   6  -7  167.68   16.69   2
  -4   6  -7    2.57    1.73   1
  -4   6  -7    4.65    1.72   2
  -5   6  -7   23.01    3.69   1
  11   5  -7   54.85    6.60   1
 -10  -5   7    4.58    2.07   1
  10   5  -7   11.65    2.55   1
  -9  -5   7    2.81    1.57   3
  -9  -5   7    1.42    1.60   1
   9   5  -7    2.08    1.65   1
  -8  -5   7   22.78    3.80   1
  -8  -5   7   33.36    4.10   3
   8   5  -7   26.91    3.94   1
  -7  -5   7   92.11    8.28   3
  -7  -5   7   56.28    7.49   1
   7   5  -7   75.04    7.77   1
  -6  -5   7    8.89    2.20   3
   6   5  -7   13.53    2.44   1
  -6  -5   7   10.24    2.29   1
  -5  -5   7    1.80    1.32   1
   5   5  -7    3.71    1.28   2
  -5  -5   7    1.72    1.18   3
   5   5  -7    2.43    1.50   1
   4   5  -7    3.02    1.42   1
  -4  -5   7    1.97    1.21   3
   4   5  -7    3.18    1.20   2
  -4  -5   7    1.51    1.31   1
   3   5  -7   61.22    6.68   1
   3   5  -7   58.04    6.33   2
  -3  -5   7   63.77    6.59   1
   2   5  -7   16.20    2.71   1
  -2  -5   7   14.87    2.62   3
  -2  -5   7   17.19    2.70   1
   2   5  -7   11.72    2.34   2
   1   5  -7  262.41   24.14   2
  -1  -5   7  270.70   24.38   1
   1   5  -7  251.91   24.41   1
  -1  -5   7  286.95   25.35   3
   0  -5   7    9.40    2.18   1
   0  -5   7   14.62    2.46   3
   0   5  -7    8.50    2.17   1
   0   5  -7   10.38    2.09   2
  -1   5  -7  474.00   37.90   1
  -1   5  -7  365.62   37.13   2
   1  -5   7  422.58   37.64   1
   1  -5   7  423.35   38.95   3
  -2   5  -7    3.25    1.31   2
  -2   5  -7    2.65    1.50   1
   2  -5   7    2.94    1.34   3
  -3   5  -7   64.07    6.88   2
  -3   5  -7   63.32    7.05   1
   3  -5   7   68.94    7.30   3
  -4   5  -7  271.29   24.49   2
  -4   5  -7  273.84   24.79   1
   4  -5   7  264.15   25.50   3
  -5   5  -7    0.25    1.33   1
 -11  -4   7   66.23    7.53   1
 -10  -4   7  121.83   12.70   2
  10   4  -7  158.11   13.07   1
 -10  -4   7  114.94   12.89   1
  -9  -4   7    0.52    1.29   1
   9   4  -7    0.37    1.26   1
  -9  -4   7   -0.26    1.18   2
   8   4  -7  239.66   19.79   1
  -8  -4   7  185.63   19.35   2
  -7  -4   7    0.07    1.06   1
  -7  -4   7   -0.69    0.84   2
  -7  -4   7    0.17    0.99   3
   7   4  -7   -0.41    0.99   1
  -6  -4   7  170.92   17.40   1
  -6  -4   7  180.16   18.00   3
  -6  -4   7  202.26   17.35   2
   6   4  -7  198.46   17.54   1
  -5  -4   7    9.86    2.19   1
   5   4  -7   13.65    2.44   1
  -5  -4   7   17.76    2.62   3
  -5  -4   7   12.97    2.24   2
   5   4  -7   11.90    2.14   2
   4   4  -7    1.39    1.00   2
   4   4  -7    2.63    1.36   1
  -4  -4   7    1.72    1.08   3
  -4  -4   7    1.24    1.02   2
  -4  -4   7    1.73    1.19   1
  -3  -4   7    5.27    1.46   2
  -3  -4   7    1.19    1.14   1
   3   4  -7    3.96    1.26   2
  -3  -4   7    4.07    1.33   3
  -2  -4   7  276.35   27.96   1
   2   4  -7  308.29   27.71   2
   2   4  -7  341.31   28.19   1
  -2  -4   7  321.37   29.06   3
  -1  -4   7   13.55    2.31   1
   1   4  -7   12.96    2.19   2
  -1  -4   7   12.32    2.32   3
   1   4  -7   10.37    2.28   1
   0   4  -7 1064.12   92.76   2
   0   4  -7 1093.93   93.89   1
   0  -4   7 1048.42   93.81   1
  -1   4  -7   61.70    6.49   1
  -1   4  -7   58.74    6.27   2
   1  -4   7   58.60    6.42   1
  -2   4  -7   79.64    8.24   2
   2  -4   7   84.89    8.43   1
  -2   4  -7   86.77    8.46   1
   2  -4   7   80.39    8.55   3
   3  -4   7   14.20    2.55   3
  -3   4  -7   14.40    2.62   1
  -3   4  -7   16.13    2.57   2
  -4   4  -7   38.80    4.51   2
  -4   4  -7   40.72    4.67   1
   4  -4   7   31.41    4.40   3
   5  -4   7   79.64    8.37   3
  -5   4  -7   72.90    8.04   2
  -5   4  -7   81.48    8.23   1
  -6   4  -7    8.29    2.21   1
 -11  -3   7  137.74   14.15   2
 -11  -3   7  156.07   14.53   1
 -10  -3   7   31.97    4.74   1
  10   3  -7   32.50    4.48   1
 -10  -3   7   45.71    4.89   2
  -9  -3   7    2.65    1.51   2
  -9  -3   7    1.21    1.50   1
   9   3  -7    2.22    1.50   1
   8   3  -7   46.35    5.02   1
  -8  -3   7   42.45    5.11   1
  -8  -3   7   40.09    4.91   2
  -8  -3   7   44.34    5.12   3
  -7  -3   7    0.75    1.00   2
   7   3  -7    1.75    1.13   1
  -7  -3   7    0.90    1.18   1
  -7  -3   7    0.18    0.88   3
  -6  -3   7   27.41    3.50   2
  -6  -3   7   28.77    3.62   3
  -6  -3   7   29.17    3.73   1
   5   3  -7    4.71    1.35   2
   5   3  -7    4.95    1.58   1
  -5  -3   7    5.13    1.60   1
  -5  -3   7    6.16    1.60   3
  -5  -3   7    7.89    1.65   2
   4   3  -7  726.62   58.04   1
  -4  -3   7  634.25   57.24   2
   4   3  -7  566.36   57.01   2
  -4  -3   7  702.13   59.80   3
  -3  -3   7    0.49    0.90   1
   3   3  -7    0.17    0.95   1
   3   3  -7   -0.12    0.75   2
  -3  -3   7    1.27    0.96   3
  -3  -3   7    0.87    0.88   2
  -2  -3   7   65.06    5.77   4
  -2  -3   7   59.44    6.71   3
  -2  -3   7   54.77    6.54   1
  -2  -3   7   63.50    6.42   2
   2   3  -7   79.63    6.84   1
  -1  -3   7   25.34    3.42   3
  -1  -3   7   28.50    3.56   1
   1   3  -7   26.70    3.30   2
  -1  -3   7   29.60    3.42   2
   1   3  -7   30.19    3.67   1
  -1  -3   7   25.59    2.78   4
   0  -3   7   74.66    7.86   4
   0   3  -7  100.65    8.71   1
   0  -3   7   73.43    8.61   3
   0   3  -7   90.37    8.38   2
   0  -3   7   96.91    8.61   1
   1  -3   7  632.84   57.87   4
   1  -3   7  718.72   61.15   3
  -1   3  -7  739.81   58.65   2
  -1   3  -7  621.15   59.17   1
   1  -3   7  643.32   59.08   1
   2  -3   7   75.08    6.77   1
  -2   3  -7   73.35    6.71   2
  -2   3  -7   52.97    6.57   1
   2  -3   7   55.57    6.70   3
  -3   3  -7   31.58    4.05   1
   3  -3   7   34.54    4.04   1
  -3   3  -7   35.46    3.96   2
   3  -3   7   27.77    3.89   3
  -4   3  -7  159.99   14.86   1
  -4   3  -7  173.57   14.83   2
   4  -3   7  158.52   15.31   3
   4  -3   7  138.04   14.68   1
   5  -3   7    3.56    1.42   3
  -5   3  -7    7.59    1.93   1
  -5   3  -7    6.35    1.84   2
  -6   3  -7   12.65    2.55   1
  -6   3  -7    8.22    2.27   2
 -12  -2   7   -0.23    1.43   1
 -11  -2   7   23.12    3.65   2
 -11  -2   7   26.21    3.99   1
 -10  -2   7    4.51    1.74   2
 -10  -2   7    4.65    1.91   1
   9   2  -7  314.83   27.17   1
  -9  -2   7  302.57   27.01   2
  -9  -2   7  281.17   27.16   1
  -8  -2   7  145.76   13.55   1
   8   2  -7  130.26   13.29   1
  -8  -2   7  150.91   13.89   3
  -7  -2   7  364.76   33.13   2
  -7  -2   7  338.27   33.48   1
  -7  -2   7  422.08   34.69   3
  -6  -2   7  175.42   18.53   3
   6   2  -7  204.61   18.07   1
  -6  -2   7  211.42   17.93   2
  -5  -2   7   50.76    5.60   3
  -5  -2   7   59.56    5.58   1
   5   2  -7   45.44    5.36   1
   5   2  -7   50.36    5.22   2
  -4  -2   7   80.71    8.64   1
   4   2  -7   95.88    8.50   2
  -4  -2   7   91.67    8.61   2
  -4  -2   7   89.14    8.95   3
  -3  -2   7  578.43   50.91   2
  -3  -2   7  625.96   51.60   1
  -3  -2   7  545.68   53.06   3
  -2  -2   7    2.66    1.09   2
  -2  -2   7    4.35    1.27   3
   2   2  -7    3.20    1.20   1
  -2  -2   7    1.52    1.07   1
   2   2  -7    2.26    1.09   2
   1   2  -7    8.69    1.73   2
  -1  -2   7   10.67    1.78   2
  -1  -2   7    7.70    1.66   1
  -1  -2   7    7.75    1.70   3
   1   2  -7   11.96    1.97   1
   0  -2   7  202.68   19.09   2
   0  -2   7  207.66   19.27   1
   0   2  -7  218.36   19.40   1
   0  -2   7  218.22   19.97   3
  -1   2  -7   72.19    7.25   2
   1  -2   7   84.14    7.51   1
   1  -2   7   64.26    7.45   3
  -2   2  -7  215.84   19.48   2
  -2   2  -7  174.74   19.58   1
   2  -2   7  241.52   20.44   3
   2  -2   7  231.41   19.73   1
  -3   2  -7  355.54   31.69   1
   3  -2   7  343.07   31.57   1
   3  -2   7  384.08   32.70   3
  -3   2  -7  326.03   31.26   2
  -4   2  -7   69.65    7.63   2
  -4   2  -7   79.49    7.90   1
   4  -2   7   78.49    8.01   3
   5  -2   7   91.07    9.51   1
  -5   2  -7  101.90    9.64   2
  -5   2  -7   97.64    9.74   1
   5  -2   7   95.26    9.89   3
  -6   2  -7    4.83    1.79   2
   6  -2   7    8.22    1.93   3
  -6   2  -7    5.98    2.02   1
 -12  -1   7   50.52    6.09   1
 -11  -1   7  116.50   12.75   2
 -11  -1   7  151.54   13.25   1
 -10  -1   7   61.79    6.68   2
  -9  -1   7    7.07    1.98   1
  -8  -1   7  101.32    9.11   1
  -8  -1   7   81.85    8.76   2
  -7  -1   7  180.27   15.89   1
   7   1  -7  174.54   15.70   1
  -7  -1   7  157.55   15.53   2
  -6  -1   7    0.45    0.74   3
  -6  -1   7    0.81    0.95   1
   6   1  -7    1.01    0.91   1
  -6  -1   7   -0.12    0.75   2
  -5  -1   7    3.65    1.13   3
  -5  -1   7    2.95    0.60   4
   5   1  -7    6.20    1.31   1
  -5  -1   7    3.65    1.10   2
  -5  -1   7    4.83    1.33   1
  -4  -1   7  196.33   19.37   1
  -4  -1   7  185.57   19.09   2
   4   1  -7  238.36   19.10   2
   4   1  -7  235.87   19.46   1
  -3  -1   7    9.59    1.79   1
  -3  -1   7   11.46    1.86   3
  -3  -1   7    7.32    1.62   2
   3   1  -7   13.48    1.92   1
   3   1  -7   10.74    1.73   2
   2   1  -7   63.71    5.53   1
  -2  -1   7   55.82    5.56   3
  -2  -1   7   38.63    5.18   1
  -2  -1   7   48.55    5.30   2
   2   1  -7   53.43    5.24   2
  -1  -1   7  554.19   50.60   2
  -1  -1   7  578.41   52.80   3
   1   1  -7  609.37   51.29   1
   0  -1   7   15.63    2.27   3
   0  -1   7   16.30    2.34   1
   0   1  -7   19.95    2.51   2
   0   1  -7    9.37    2.16   1
   0  -1   7   17.18    2.24   2
   1  -1   7  650.92   61.44   2
  -1   1  -7  718.97   61.57   2
   1  -1   7  767.29   64.26   3
   1  -1   7  690.97   62.18   1
  -2   1  -7   24.57    3.54   1
   2  -1   7   26.68    3.45   1
   2  -1   7   28.45    3.51   3
  -2   1  -7   32.61    3.56   2
  -3   1  -7   77.35    7.64   2
  -3   1  -7   73.23    7.76   1
   3  -1   7   65.43    7.56   1
   3  -1   7   90.72    8.06   3
   4  -1   7  290.56   27.23   3
  -4   1  -7  342.05   26.35   2
  -4   1  -7  276.87   26.49   1
   4  -1   7  259.15   26.26   1
   5  -1   7   -0.02    0.83   3
  -5   1  -7    0.72    1.28   1
   5  -1   7    0.00    0.94   1
  -5   1  -7    0.00    1.05   2
  -6   1  -7    0.22    1.34   1
   6  -1   7   -0.15    1.05   1
  -6   1  -7    0.13    1.04   2
   6  -1   7    1.36    1.15   3
  -7   1  -7    7.24    2.05   2
  -7   1  -7    8.35    2.28   1
 -12   0   7  308.16   28.21   1
 -11   0   7  116.49   10.37   2
 -11   0   7   89.76   10.18   1
 -10   0   7  202.60   19.46   2
 -10   0   7  223.13   19.74   1
  -9   0   7   79.08    8.23   2
  -9   0   7   87.59    8.44   1
  -8   0   7   14.06    2.25   2
  -8   0   7   13.19    2.37   1
   7   0  -7    4.89    1.22   1
  -7   0   7    2.93    1.17   2
  -7   0   7    4.26    0.94   4
  -7   0   7    5.48    1.53   1
  -6   0   7  161.27   15.66   3
  -6   0   7  169.51   15.08   2
  -6   0   7  144.26   14.56   4
   6   0  -7  188.41   15.22   1
  -6   0   7  171.24   15.26   1
  -5   0   7   16.90    2.37   2
  -5   0   7   17.54    2.51   1
   4   0  -7    0.69    0.67   1
  -4   0   7    0.99    0.82   1
  -4   0   7    0.78    0.66   3
  -4   0   7    1.18    0.84   2
  -3   0   7    0.13    0.60   3
  -3   0   7    0.57    0.66   1
   3   0  -7    2.17    0.81   2
   3   0  -7    0.08    0.65   1
  -3   0   7    2.97    0.99   2
  -2   0   7  142.31   14.23   2
  -2   0   7  170.20   14.96   3
   2   0  -7  161.21   14.23   2
   1   0  -7   82.04    8.04   2
  -1   0   7   81.16    8.02   2
   1   0  -7   88.87    8.29   1
  -1   0   7   85.64    8.20   1
   0   0  -7 1484.78  122.60   1
   0   0   7 1287.52  126.23   3
   0   0   7 1435.46  122.52   1
   1   0   7  334.29   26.70   1
   1   0   7  314.44   26.34   2
   1   0   7  266.99   27.33   3
  -1   0  -7  276.34   26.26   2
  -1   0  -7  289.83   26.64   1
   2   0   7  190.18   18.19   2
   2   0   7  221.33   19.12   3
  -2   0  -7  194.18   18.23   2
  -3   0  -7   34.58    3.93   1
  -3   0  -7   19.88    3.25   2
   3   0   7   27.29    3.54   1
   3   0   7   31.87    3.66   3
   4   0   7   44.69    5.47   1
   4   0   7   51.54    5.73   3
  -4   0  -7   53.23    5.55   2
  -4   0  -7   49.77    5.68   1
  -5   0  -7  178.26   17.94   2
   5   0   7  184.40   18.84   3
   5   0   7  197.68   18.31   1
  -5   0  -7  227.18   18.61   1
   6   0   7   12.85    2.69   1
   6   0   7   13.49    2.70   3
  -6   0  -7   16.40    2.97   1
  -7   0  -7   38.70    5.08   1
 -11   1   7  178.42   15.67   2
 -11   1   7  153.68   15.61   1
 -10   1   7   83.08    8.43   1
 -10   1   7   83.44    8.33   2
  -9   1   7    2.88    1.53   1
  -9   1   7    7.61    1.62   2
  -8   1   7   95.59    9.15   2
  -8   1   7   84.40    8.86   4
  -8   1   7  111.27    9.41   1
  -7   1   7  192.98   16.13   1
  -7   1   7  158.26   15.83   2
  -6   1   7    0.29    0.83   1
  -6   1   7    0.92    0.51   4
  -6   1   7    0.11    0.72   2
  -6   1   7    0.37    0.70   3
   6  -1  -7    1.22    0.70   1
  -5   1   7    3.11    1.01   3
   5  -1  -7    2.18    0.87   1
  -5   1   7    6.87    1.33   1
  -5   1   7    4.30    1.14   2
  -4   1   7  206.35   18.54   2
  -4   1   7  208.94   18.73   1
  -3   1   7    9.34    1.56   2
  -3   1   7    9.24    1.56   1
  -3   1   7    7.33    1.43   3
  -2   1   7   55.61    5.24   1
  -2   1   7   50.46    5.11   2
  -2   1   7   45.49    5.18   3
  -1   1   7  589.32   48.72   1
  -1   1   7  522.31   48.07   2
   1  -1  -7  544.24   48.07   2
   0   1   7   18.59    2.40   2
   0   1   7   18.01    2.61   1
   0   1   7   17.83    2.44   3
   0  -1  -7   25.88    2.84   1
   0  -1  -7   12.47    2.27   2
   1   1   7  493.22   44.34   1
  -1  -1  -7  488.41   43.87   2
   1   1   7  520.62   43.81   2
   2   1   7   25.37    3.37   1
   2   1   7   28.44    3.28   2
  -2  -1  -7   24.57    3.28   2
   2   1   7   28.61    3.48   3
  -2  -1  -7   26.68    3.61   1
   3   1   7   69.02    7.16   3
  -3  -1  -7   71.02    7.11   1
   3   1   7   61.88    6.84   1
   4   1   7  235.07   20.91   3
  -4  -1  -7  205.97   20.23   1
   4   1   7  214.72   20.05   1
   5   1   7   -0.08    1.03   1
   5   1   7   -0.61    0.92   3
  -5  -1  -7    0.73    1.39   1
   6   1   7    1.01    1.25   3
   6   1   7    1.76    1.44   1
  -6  -1  -7    0.20    1.59   1
   7   1   7    5.21    2.06   1
 -11   2   7   30.70    4.08   2
 -10   2   7    7.61    1.85   2
  -9   2   7  306.53   27.46   2
  -9   2   7  312.09   27.77   1
  -8   2   7  184.67   16.58   2
  -8   2   7  181.66   16.75   1
  -7   2   7  203.43   18.40   4
  -7   2   7  209.70   18.46   2
  -6   2   7  139.57   12.85   2
  -6   2   7  142.91   12.80   4
  -5   2   7   65.09    6.76   1
  -5   2   7   63.70    6.67   2
   5  -2  -7   80.05    6.66   1
   4  -2  -7   54.28    5.32   1
  -4   2   7   53.89    5.49   3
  -3   2   7  599.40   57.66   2
   3  -2  -7  753.32   58.33   1
  -3   2   7  640.60   58.32   1
  -2   2   7    4.28    1.05   3
   2  -2  -7    3.14    0.97   1
  -2   2   7    3.17    0.97   2
  -2   2   7    2.22    0.89   1
   1  -2  -7    8.74    1.68   1
  -1   2   7    8.76    1.57   3
  -1   2   7    8.15    1.55   1
  -1   2   7    7.60    1.42   2
   0   2   7  185.50   18.08   1
   0   2   7  188.42   17.90   2
   0   2   7  234.34   18.82   3
   0  -2  -7  192.24   18.19   1
   1   2   7   58.49    6.82   3
  -1  -2  -7   76.09    7.00   1
   1   2   7   64.35    6.63   1
   1   2   7   69.61    6.63   2
   2   2   7  222.61   19.02   2
  -2  -2  -7  202.14   19.28   1
   2   2   7  213.05   19.13   1
   2   2   7  201.58   19.79   3
   3   2   7  337.80   31.87   3
   3   2   7  352.08   30.80   1
   3   2   7  339.81   30.49   2
   4   2   7  113.39   11.15   3
  -4  -2  -7  111.45   10.93   1
   4   2   7  105.59   10.62   1
   5   2   7   61.52    7.97   3
   5   2   7   89.06    7.98   1
  -5  -2  -7   79.33    8.17   1
   6   2   7    5.51    1.81   3
  -6  -2  -7    5.17    2.18   1
   6   2   7    7.31    1.96   1
   7   2   7   30.75    4.36   1
 -11   3   7  141.60   13.37   2
 -10   3   7   45.77    5.05   2
  -9   3   7    3.59    1.32   2
  -8   3   7   45.22    4.76   2
  -7   3   7    0.98    0.92   1
  -7   3   7    3.00    1.02   4
  -7   3   7    1.63    0.91   2
  -6   3   7   16.38    2.66   1
  -6   3   7   27.36    2.86   2
  -6   3   7   23.73    2.74   4
  -5   3   7    8.06    1.46   1
  -5   3   7    7.77    1.43   2
  -4   3   7  757.44   61.10   2
  -4   3   7  650.60   61.65   1
   3  -3  -7    1.32    0.68   1
  -3   3   7    0.14    0.59   3
  -3   3   7   -0.05    0.61   2
  -3   3   7    0.45    0.66   1
  -2   3   7   71.72    6.93   1
  -2   3   7   79.09    7.12   3
   2  -3  -7   64.17    6.78   1
  -2   3   7   68.70    6.81   2
   1  -3  -7   32.66    3.45   1
  -1   3   7   26.16    3.19   1
  -1   3   7   28.45    3.27   3
  -1   3   7   25.20    3.15   2
   0   3   7   75.65    7.44   3
   0   3   7   68.97    7.13   1
   0   3   7   75.40    7.19   2
   1   3   7  663.55   55.52   1
   1   3   7  628.92   54.90   2
   1   3   7  595.65   57.23   3
  -2  -3  -7   72.69    7.13   1
   2   3   7   71.46    6.94   1
   2   3   7   67.44    7.15   3
   2   3   7   61.32    6.76   2
   3   3   7   22.15    3.60   3
   3   3   7   35.92    3.88   2
  -3  -3  -7   31.77    4.06   1
   3   3   7   33.05    3.79   1
   4   3   7  114.61   11.51   1
  -4  -3  -7  133.44   11.89   1
   4   3   7  111.68   11.90   3
   5   3   7    9.37    2.16   3
  -5  -3  -7    7.70    2.31   1
   5   3   7    5.81    1.89   1
  -6  -3  -7   15.11    3.15   1
   6   3   7   13.11    2.76   1
   6   3   7   15.85    2.95   3
 -10   4   7  137.64   12.76   2
  -9   4   7   -0.30    0.91   2
  -8   4   7  272.68   24.09   2
  -7   4   7    0.18    0.73   2
  -6   4   7  127.19   13.47   1
  -6   4   7  172.44   13.47   2
  -5   4   7   13.69    1.97   1
  -5   4   7   14.61    2.08   2
  -4   4   7    1.18    0.76   2
  -4   4   7    1.21    0.75   1
  -3   4   7    2.00    0.99   1
  -3   4   7    3.22    0.99   2
  -2   4   7  249.22   23.57   2
  -2   4   7  284.66   23.88   1
  -1   4   7    8.92    1.69   2
  -1   4   7   12.02    1.91   1
   1  -4  -7   13.04    1.98   1
   0   4   7  776.20   73.38   2
   0   4   7  917.00   74.30   1
   1   4   7   55.21    5.67   2
   1   4   7   59.28    5.94   3
   1   4   7   49.41    5.65   1
   2   4   7   71.77    7.68   3
   2   4   7   76.14    7.49   1
  -3  -4  -7   14.84    2.72   1
   3   4   7   17.68    2.49   2
   3   4   7   13.68    2.37   1
   3   4   7   11.17    2.33   3
   4   4   7   42.29    4.97   3
   4   4   7   38.43    4.83   1
  -4  -4  -7   42.52    5.17   1
  -5  -4  -7   98.05    9.20   1
   5   4   7   72.86    8.80   3
   5   4   7   85.04    8.79   1
   6   4   7    8.35    2.32   1
  -6  -4  -7    8.49    2.61   1
 -10   5   7    7.78    1.77   2
  -9   5   7    3.41    1.23   2
  -8   5   7   30.19    3.34   2
  -7   5   7  103.88    9.58   2
  -6   5   7   14.22    1.98   2
  -5   5   7    3.48    0.95   2
  -4   5   7    3.55    0.99   2
  -3   5   7   59.58    5.26   1
  -3   5   7   44.03    5.03   2
  -2   5   7   11.82    1.92   2
  -2   5   7   16.55    2.17   1
  -1   5   7  218.64   20.27   2
  -1   5   7  235.99   20.54   1
   0   5   7   11.78    1.98   1
  -1  -5  -7  241.36   22.09   1
  -2  -5  -7    4.18    1.61   1
   2   5   7    2.70    1.27   1
   3   5   7   51.85    6.30   1
  -3  -5  -7   70.45    6.87   1
   4   5   7  259.47   25.93   1
  -4  -5  -7  312.55   26.33   1
   5   5   7    1.06    1.39   1
  -5  -5  -7   -0.36    1.67   1
  -9   6   7  106.83    9.84   2
  -8   6   7   19.86    2.52   2
  -7   6   7  120.09   10.89   2
  -6   6   7   16.95    2.31   2
  -4   6   7   81.78    7.71   2
  -3   6   7  295.43   28.78   2
  -3   6   7  360.81   29.16   1
  -2   6   7    3.16    1.11   1
  -1   6   7   18.59    2.52   1
  -1   6   7   17.28    2.42   2
   0   6   7   75.17    7.25   1
   0   6   7   68.38    7.05   2
   1   6   7   18.47    2.91   2
   1   6   7   26.11    3.16   1
   2   6   7   32.84    4.34   1
   2   6   7   42.16    4.57   2
   3   6   7  140.38   13.95   1
   3   6   7  151.88   13.94   2
   4   6   7    2.00    1.47   1
  -8   7   7   78.49    7.29   2
  -7   7   7   18.43    2.37   2
  -6   7   7    8.79    1.47   2
  -5   7   7   27.79    3.20   2
  -4   7   7  122.53   11.23   2
  -2   7   7   58.25    5.99   1
  -2   7   7   58.79    5.84   2
  -1   7   7   21.60    2.93   2
  -1   7   7   24.32    3.09   1
   0   7   7    1.38    1.16   2
   0   7   7    0.49    0.99   1
   1   7   7  164.88   14.50   1
   1   7   7  142.45   14.20   2
   2   7   7   16.68    2.81   1
   2   7   7   17.76    2.85   2
   3   7   7   45.79    5.24   2
   3   7   7   39.20    5.05   1
  -7   8   7    3.66    1.19   2
  -5   8   7    2.47    1.12   2
  -3   8   7    0.01    0.83   2
  -2   8   7   16.03    2.33   2
  -1   8   7    1.96    1.14   2
   0   8   7  243.24   21.14   2
   0   8   7  222.73   21.25   1
   1   8   7   20.99    3.15   1
   2   8   7   55.61    6.21   1
  -6  -8   8    7.06    2.54   1
   5   8  -8  124.10   12.68   1
   4   8  -8   48.18    6.07   1
   4   8  -8   46.25    5.77   2
   3   8  -8   23.55    3.70   2
   3   8  -8   21.09    3.84   1
   2   8  -8   64.00    7.83   1
   2   8  -8   71.22    7.70   2
   1   8  -8   49.28    6.37   1
   1   8  -8   47.66    6.00   2
   0   8  -8    3.10    2.02   1
  -8  -7   8   13.50    3.17   1
  -7  -7   8    0.69    1.47   3
  -7  -7   8    1.37    1.70   1
   7   7  -8   -0.32    1.59   1
   6   7  -8   36.59    5.23   1
  -6  -7   8   42.90    5.36   3
   5   7  -8    8.20    2.46   1
  -5  -7   8    6.42    2.44   1
  -5  -7   8    7.24    2.14   3
   4   7  -8    3.18    1.85   1
  -4  -7   8    3.23    1.66   3
  -4  -7   8    2.52    1.85   1
   4   7  -8    3.72    1.80   2
  -3  -7   8  233.15   22.61   1
   3   7  -8  242.79   22.90   1
   3   7  -8  236.58   22.43   2
  -3  -7   8  261.66   23.64   3
   2   7  -8    3.70    1.81   2
  -2  -7   8    7.63    2.18   3
   2   7  -8    5.09    2.13   1
   1   7  -8   77.45    7.77   2
  -1  -7   8   64.81    7.88   3
   1   7  -8   69.14    7.90   1
   0   7  -8   23.59    3.79   1
   0   7  -8   18.03    3.28   2
   0  -7   8   22.43    3.74   3
  -1   7  -8   47.03    5.24   2
  -1   7  -8   33.56    5.10   1
  -2   7  -8   65.70    7.51   1
  -9  -6   8    1.61    1.57   3
   9   6  -8    2.09    1.84   1
  -9  -6   8    0.37    1.66   1
  -8  -6   8   58.11    6.48   3
  -8  -6   8   42.37    6.04   1
   8   6  -8   56.41    6.33   1
  -7  -6   8   28.23    4.30   3
  -7  -6   8   23.46    3.96   1
   7   6  -8   31.36    4.19   1
   6   6  -8    2.36    1.67   1
  -6  -6   8    3.01    1.77   1
  -6  -6   8    4.77    1.79   3
   5   6  -8   19.75    3.47   1
  -5  -6   8   17.56    3.28   1
  -5  -6   8   22.35    3.52   3
  -4  -6   8   74.03    8.76   1
   4   6  -8   93.51    8.69   2
  -4  -6   8   84.22    9.09   3
   4   6  -8   83.84    8.98   1
  -3  -6   8    2.41    1.50   3
   3   6  -8    2.69    1.47   2
  -3  -6   8    1.96    1.67   1
   3   6  -8    1.51    1.73   1
  -2  -6   8  592.17   52.07   3
  -2  -6   8  619.09   50.48   1
   2   6  -8  526.83   50.39   1
   2   6  -8  518.06   49.65   2
   1   6  -8    5.82    1.80   2
   1   6  -8    4.39    1.93   1
  -1  -6   8    6.37    2.02   1
  -1  -6   8    5.47    1.95   3
   0  -6   8    6.50    1.96   3
   0   6  -8    3.66    1.61   2
   0   6  -8    2.93    1.65   1
  -1   6  -8   25.18    3.79   1
  -1   6  -8   19.57    3.29   2
   1  -6   8   21.50    3.64   3
  -2   6  -8   42.95    5.37   1
  -2   6  -8   40.51    4.90   2
   2  -6   8   34.14    4.99   3
  -3   6  -8   42.39    5.49   1
 -10  -5   8   24.01    3.94   1
  10   5  -8   20.60    3.75   1
  -9  -5   8    0.44    1.49   1
   9   5  -8    0.73    1.72   1
  -8  -5   8    3.78    1.74   3
   8   5  -8    3.34    1.71   1
  -8  -5   8    2.77    1.70   1
  -7  -5   8   73.94    8.12   1
   7   5  -8   70.49    8.04   1
  -7  -5   8   82.81    8.42   3
  -6  -5   8  293.41   27.89   3
  -6  -5   8  296.71   27.02   1
   5   5  -8   93.62    8.89   1
  -5  -5   8   76.74    8.63   1
  -5  -5   8   81.44    8.92   3
  -4  -5   8   11.43    2.43   3
   4   5  -8   12.81    2.62   1
  -4  -5   8    9.60    2.33   1
   4   5  -8    6.88    1.90   2
  -3  -5   8  275.08   28.22   3
   3   5  -8  307.58   27.58   1
   3   5  -8  323.60   27.16   2
  -3  -5   8  296.76   27.45   1
   2   5  -8   77.33    8.43   2
  -2  -5   8   94.83    9.14   3
  -2  -5   8   82.76    8.61   1
   2   5  -8   80.73    8.70   1
  -1  -5   8  144.39   15.37   3
   1   5  -8  165.97   15.05   1
  -1  -5   8  133.90   14.72   1
   1   5  -8  186.29   15.01   2
   0   5  -8  133.01   12.36   1
   0  -5   8  133.98   12.23   1
   0   5  -8  101.23   11.80   2
   0  -5   8  131.96   12.69   3
  -1   5  -8    2.14    1.48   1
   1  -5   8    0.46    1.29   1
  -1   5  -8    0.80    1.17   2
   1  -5   8    1.44    1.27   3
  -2   5  -8   43.15    5.03   2
  -2   5  -8   35.88    5.05   1
   2  -5   8   44.59    5.26   3
   3  -5   8    1.59    1.32   3
  -3   5  -8    4.83    1.73   2
  -3   5  -8    3.63    1.75   1
  -4   5  -8   65.22    7.30   1
 -10  -4   8   25.35    3.97   1
  10   4  -8   22.95    3.81   1
   9   4  -8   22.59    3.51   1
  -9  -4   8   14.92    3.17   1
  -9  -4   8   24.56    3.52   2
  -8  -4   8  146.58   15.02   3
  -8  -4   8  135.09   14.31   2
  -8  -4   8  172.03   14.81   1
   8   4  -8  153.60   14.51   1
   7   4  -8  114.17   12.79   1
  -7  -4   8  147.64   13.55   3
  -7  -4   8  117.67   12.74   2
  -7  -4   8  163.17   13.26   1
  -6  -4   8   44.16    5.20   3
  -6  -4   8   46.78    5.32   1
   6   4  -8   41.06    5.12   1
  -6  -4   8   39.91    4.96   2
  -5  -4   8  247.67   24.36   2
   5   4  -8  274.79   24.82   1
  -5  -4   8  287.77   25.68   3
  -5  -4   8  273.55   24.81   1
   4   4  -8   18.82    2.98   2
  -4  -4   8   23.59    3.43   1
   4   4  -8   24.19    3.50   1
  -4  -4   8   28.45    3.57   3
  -3  -4   8   19.96    3.01   3
  -3  -4   8   15.38    2.63   1
   3   4  -8   13.86    2.44   2
   3   4  -8   13.93    2.68   1
   2   4  -8   98.69   10.38   1
  -2  -4   8  111.69   10.82   3
   1   4  -8  146.01   14.66   1
  -1  -4   8  161.93   15.21   3
  -1  -4   8  152.01   14.66   1
   1   4  -8  156.51   14.46   2
   0   4  -8   39.77    4.97   2
   0  -4   8   48.70    5.42   1
   0  -4   8   40.25    5.20   3
   0   4  -8   51.78    5.45   1
   1  -4   8  321.89   28.34   1
  -1   4  -8  302.95   28.31   1
  -1   4  -8  306.27   27.93   2
   1  -4   8  312.42   29.28   3
  -2   4  -8    5.57    1.63   2
  -2   4  -8    6.42    1.86   1
   2  -4   8    6.44    1.84   1
   2  -4   8    2.54    1.37   3
   3  -4   8   -0.41    0.91   3
  -3   4  -8    1.64    1.21   2
  -3   4  -8    0.66    1.18   1
  -4   4  -8    0.28    1.27   1
  -4   4  -8    0.76    1.34   2
   4  -4   8    1.50    1.15   3
  -5   4  -8   45.27    5.63   1
 -11  -3   8   16.68    3.12   1
 -11  -3   8   10.77    2.76   2
 -10  -3   8    0.39    1.33   1
 -10  -3   8   -0.70    1.24   2
   9   3  -8   43.44    5.68   1
  -9  -3   8   47.80    5.91   1
  -9  -3   8   63.40    6.10   2
  -8  -3   8   66.85    7.32   3
  -8  -3   8   60.58    6.99   2
   8   3  -8   76.71    7.20   1
  -8  -3   8   62.80    7.18   1
   7   3  -8    4.91    1.61   1
  -7  -3   8    4.88    1.63   3
  -7  -3   8    5.26    1.68   2
  -7  -3   8    3.89    1.67   1
   6   3  -8  140.96   13.06   1
  -6  -3   8  139.74   13.11   1
  -6  -3   8  151.80   13.56   3
  -6  -3   8  114.44   12.68   2
  -5  -3   8    4.93    1.65   1
  -5  -3   8    7.58    1.69   2
  -5  -3   8    4.67    1.62   3
   5   3  -8    5.10    1.65   1
  -4  -3   8    2.92    1.33   2
   4   3  -8    2.81    1.16   2
   4   3  -8    0.95    1.25   1
  -4  -3   8    0.92    1.20   1
  -4  -3   8    2.92    1.36   3
  -3  -3   8  516.07   43.45   1
  -3  -3   8  473.78   42.90   2
   3   3  -8  472.11   42.80   2
  -2  -3   8   65.79    6.76   3
  -2  -3   8   65.76    6.64   1
   2   3  -8   57.97    6.32   2
  -2  -3   8   48.93    6.19   2
   2   3  -8   72.64    6.79   1
   1   3  -8  161.57   16.48   1
  -1  -3   8  171.87   17.02   3
  -1  -3   8  196.96   16.62   1
   0  -3   8  194.51   17.32   1
   0   3  -8  176.26   17.30   1
   1  -3   8   45.48    5.26   3
  -1   3  -8   51.89    5.22   2
  -1   3  -8   37.69    5.15   1
   1  -3   8   46.19    5.15   1
  -2   3  -8  120.63   11.26   2
   2  -3   8  115.94   11.75   3
  -2   3  -8  117.42   11.47   1
   2  -3   8  111.40   11.27   1
  -3   3  -8    0.78    1.05   2
  -3   3  -8    0.65    1.27   1
   3  -3   8    1.16    1.11   1
   3  -3   8   -0.47    0.73   3
   4  -3   8    0.29    0.86   3
  -4   3  -8    1.08    1.32   1
  -4   3  -8    0.18    1.05   2
  -5   3  -8    0.81    1.41   1
  -5   3  -8   -0.21    1.14   2
 -11  -2   8    6.19    2.22   2
 -11  -2   8    9.15    2.45   1
 -10  -2   8  128.82   13.42   1
 -10  -2   8  149.91   13.53   2
  -9  -2   8   31.86    4.00   1
   9   2  -8   25.38    3.69   1
  -9  -2   8   24.81    3.62   2
   8   2  -8   22.96    3.41   1
  -8  -2   8   25.68    3.70   1
  -8  -2   8   28.96    3.58   2
  -7  -2   8    8.06    1.86   3
  -7  -2   8    8.43    2.13   1
   7   2  -8   10.90    2.05   1
  -7  -2   8    8.09    1.82   2
  -6  -2   8   12.67    2.35   2
  -6  -2   8   15.54    2.61   1
  -6  -2   8   17.91    2.57   3
   6   2  -8   17.11    2.57   1
  -5  -2   8    0.41    1.04   1
  -5  -2   8    0.43    1.04   2
  -5  -2   8    1.17    1.09   3
   5   2  -8    0.42    1.14   1
  -4  -2   8 1073.26   89.56   1
  -4  -2   8  965.82   92.25   3
   3   2  -8   65.93    7.34   1
   3   2  -8   78.91    7.34   2
  -3  -2   8   70.31    7.29   2
  -3  -2   8   91.38    7.73   1
  -3  -2   8   61.58    7.46   3
  -2  -2   8 1242.77   96.54   2
  -2  -2   8 1036.61  100.48   3
   2   2  -8 1056.96   97.51   1
   1   2  -8   11.73    2.17   2
  -1  -2   8   15.28    2.58   3
  -1  -2   8   15.69    2.40   1
  -1  -2   8   16.55    2.42   2
   1   2  -8   11.06    2.38   1
   0  -2   8    5.72    1.57   1
   0   2  -8    5.89    1.59   2
   0   2  -8    6.27    1.74   1
   0  -2   8    5.16    1.54   3
   1  -2   8   60.84    6.44   3
  -1   2  -8   50.77    6.20   1
  -1   2  -8   60.40    6.17   2
   1  -2   8   60.78    6.29   1
   2  -2   8  245.85   19.35   1
  -2   2  -8  201.50   19.22   1
   2  -2   8  169.66   19.56   3
  -2   2  -8  215.88   19.03   2
  -3   2  -8   11.73    2.46   1
   3  -2   8   14.62    2.47   1
   3  -2   8   14.21    2.53   3
  -3   2  -8   12.25    2.32   2
  -4   2  -8    6.43    1.86   2
  -4   2  -8    8.66    2.13   1
   4  -2   8    6.36    1.83   3
   4  -2   8    8.83    2.03   1
  -5   2  -8    2.06    1.46   2
  -5   2  -8    3.82    1.78   1
   5  -2   8    2.89    1.44   3
 -12  -1   8    5.66    2.34   1
 -11  -1   8   29.53    4.19   2
 -10  -1   8    0.39    1.28   2
 -10  -1   8    0.81    1.55   1
  -9  -1   8    4.17    1.60   2
  -9  -1   8    4.26    1.80   1
   8   1  -8    0.65    1.05   1
  -8  -1   8    0.19    0.95   2
  -8  -1   8    1.56    1.35   1
   7   1  -8   79.85    7.78   1
  -7  -1   8   79.29    7.97   1
  -7  -1   8   73.39    7.71   2
  -6  -1   8  183.58   16.33   2
  -6  -1   8  152.30   16.28   1
   6   1  -8  170.70   16.30   1
  -6  -1   8  205.30   17.03   3
  -5  -1   8   25.24    3.01   3
   5   1  -8   24.20    3.10   1
  -5  -1   8   22.24    2.87   2
  -5  -1   8   14.74    2.75   1
  -4  -1   8    0.86    1.00   2
  -4  -1   8    2.17    1.14   1
  -4  -1   8    4.84    1.37   3
   4   1  -8    4.90    1.40   1
  -3  -1   8  425.71   39.61   3
  -3  -1   8  463.29   38.07   2
   3   1  -8  406.28   38.34   1
  -2  -1   8   29.78    3.80   2
  -2  -1   8   23.93    3.69   1
  -2  -1   8   40.34    4.11   3
   2   1  -8   33.76    3.95   1
   2   1  -8   31.99    3.77   2
   1   1  -8  298.85   25.97   2
  -1  -1   8  315.81   27.15   3
  -1  -1   8  296.75   25.97   2
   1   1  -8  275.48   26.26   1
  -1  -1   8  268.07   26.20   1
   0  -1   8  101.50   10.25   3
   0  -1   8   96.97    9.87   1
   0  -1   8   93.23    9.67   2
   0   1  -8  118.85    9.97   2
   1  -1   8    6.91    1.68   1
  -1   1  -8    8.72    1.99   1
  -1   1  -8    6.42    1.66   2
   1  -1   8    7.72    1.81   3
   2  -1   8  142.78   14.97   3
  -2   1  -8  153.52   14.65   1
  -2   1  -8  173.02   14.54   2
   2  -1   8  151.17   14.54   1
   3  -1   8    0.74    0.97   1
  -3   1  -8    0.80    1.12   2
   3  -1   8    0.66    0.99   3
  -3   1  -8    0.70    1.25   1
   4  -1   8   14.14    2.45   1
  -4   1  -8   15.53    2.52   2
  -4   1  -8    7.81    2.31   1
   4  -1   8   11.99    2.46   3
  -5   1  -8    8.24    2.14   1
   5  -1   8    6.44    1.91   3
   5  -1   8    6.41    1.88   1
 -12   0   8   83.43    8.97   1
 -11   0   8   42.52    5.36   1
 -11   0   8   43.52    5.24   2
 -10   0   8   67.01    8.02   1
 -10   0   8   90.20    8.17   2
  -9   0   8   36.84    3.98   2
  -9   0   8   24.18    3.78   1
  -8   0   8   16.83    2.67   2
  -8   0   8   19.84    2.97   1
   7   0  -8  685.65   65.82   1
  -7   0   8  716.70   66.00   1
  -7   0   8  852.68   65.53   2
  -6   0   8  137.59   12.10   1
  -6   0   8  104.80   12.17   3
  -6   0   8  133.49   11.89   2
  -6   0   8  134.16   11.36   4
   5   0  -8  267.41   26.90   1
  -5   0   8  319.40   27.14   1
  -5   0   8  318.12   27.88   3
  -4   0   8   17.35    2.26   3
   4   0  -8   14.17    2.24   1
  -4   0   8    9.68    2.06   2
  -4   0   8   18.13    2.42   1
  -3   0   8   25.45    3.27   3
  -3   0   8   26.28    3.32   1
  -3   0   8   27.96    3.33   2
   3   0  -8   26.51    3.38   1
  -2   0   8  428.88   39.97   2
  -2   0   8  510.43   41.90   3
   2   0  -8  434.95   40.51   1
  -2   0   8  452.75   40.54   1
  -1   0   8  923.64   78.35   1
  -1   0   8  747.18   77.30   2
   1   0  -8  894.37   77.41   2
   1   0  -8 1026.11   78.50   1
  -1   0   8  872.37   80.77   3
   0   0  -8    6.56    1.88   1
   0   0   8    5.64    1.58   1
   0   0  -8    7.73    1.73   2
   0   0   8    6.78    1.56   2
   0   0   8    7.21    1.71   3
   1   0   8  408.44   36.29   3
   1   0   8  394.46   34.74   2
  -1   0  -8  426.92   34.88   2
   1   0   8  344.22   35.02   1
   2   0   8    7.55    1.67   1
  -2   0  -8    5.98    1.78   1
   2   0   8    5.35    1.58   3
  -2   0  -8    6.28    1.72   2
  -3   0  -8    0.45    1.13   1
   3   0   8    0.84    1.03   3
   3   0   8    0.32    0.82   1
   4   0   8    0.11    0.93   1
  -4   0  -8    1.33    1.42   1
   4   0   8   -0.85    0.84   3
  -5   0  -8  148.78   15.26   1
   5   0   8  160.22   15.11   1
   5   0   8  163.56   15.70   3
   6   0   8    0.16    1.21   1
  -6   0  -8    0.82    1.60   1
 -11   1   8   23.50    3.81   2
 -11   1   8   36.76    4.36   1
 -10   1   8    0.17    1.47   1
 -10   1   8    1.96    1.35   2
  -9   1   8    6.22    1.83   1
  -9   1   8    5.23    1.57   2
  -8   1   8   -0.27    0.93   2
  -8   1   8    1.10    1.24   1
  -7   1   8   73.45    6.96   1
  -7   1   8   63.70    6.45   4
  -6   1   8  158.80   13.77   4
  -6   1   8  150.18   14.26   1
  -6   1   8  157.92   14.10   2
   6  -1  -8  147.19   14.05   1
  -5   1   8   24.01    3.03   2
  -5   1   8   21.71    2.87   3
   5  -1  -8   25.34    3.01   1
  -5   1   8   21.60    3.09   1
  -4   1   8    3.44    1.14   3
  -4   1   8    4.51    1.29   1
  -4   1   8    4.32    1.30   2
   4  -1  -8    5.57    1.28   1
  -3   1   8  388.38   38.84   3
  -3   1   8  447.13   37.40   2
   3  -1  -8  444.06   37.75   1
  -3   1   8  421.65   37.78   1
   2  -1  -8   19.52    3.18   1
  -2   1   8   29.49    3.32   3
  -2   1   8   27.31    3.24   2
  -2   1   8   27.60    3.33   1
  -1   1   8  259.93   27.43   3
  -1   1   8  304.01   26.44   2
  -1   1   8  323.99   26.80   1
   1  -1  -8  301.35   26.78   1
   0   1   8  118.01   10.28   1
   0   1   8  121.61   10.17   2
   0   1   8   84.83   10.28   3
   0  -1  -8  101.53   10.21   1
   1   1   8    8.44    1.77   3
  -1  -1  -8    3.13    1.54   1
   1   1   8   10.11    1.76   2
   2   1   8  139.18   13.25   2
   2   1   8  156.05   13.68   1
   2   1   8  133.73   13.84   3
  -3  -1  -8    0.54    1.31   1
   3   1   8    0.73    0.99   3
   3   1   8    0.22    1.09   1
   4   1   8   14.11    2.61   1
   4   1   8   10.14    2.32   3
  -4  -1  -8   11.39    2.66   1
   5   1   8    6.01    2.06   1
  -5  -1  -8    9.01    2.29   1
   5   1   8    4.80    1.84   3
   6   1   8   19.11    3.43   1
 -11   2   8    6.37    2.01   2
 -10   2   8  116.08   11.13   2
  -9   2   8   28.94    3.61   2
  -8   2   8   24.84    3.26   2
  -8   2   8   22.78    3.41   1
  -8   2   8   27.33    3.05   4
  -7   2   8   12.43    1.90   2
  -7   2   8    8.86    1.81   1
  -7   2   8    7.47    1.52   4
  -6   2   8    9.15    1.69   2
  -6   2   8    8.86    1.52   4
  -6   2   8    6.45    1.61   1
  -5   2   8    1.05    0.91   2
  -5   2   8    0.67    0.94   1
  -4   2   8 1012.84   94.22   2
   4  -2  -8 1163.94   95.17   1
  -3   2   8   67.33    7.29   1
   3  -2  -8   75.12    7.26   1
  -3   2   8   79.75    7.33   2
  -2   2   8 1029.79  100.05   3
   2  -2  -8 1167.92   97.14   1
  -2   2   8 1130.78   96.08   2
  -1   2   8   13.14    2.03   2
   1  -2  -8   11.83    2.25   1
  -1   2   8   15.10    2.30   3
   0   2   8    6.69    1.61   3
   0   2   8    6.93    1.69   1
   0  -2  -8    4.42    1.62   1
   0   2   8    7.44    1.55   2
  -1  -2  -8   63.84    6.66   1
   1   2   8   62.45    6.63   3
   1   2   8   62.05    6.39   2
   1   2   8   60.69    6.48   1
  -2  -2  -8  238.29   21.50   1
   2   2   8  224.15   21.03   2
   2   2   8  236.72   21.36   1
   3   2   8    7.89    2.00   3
   3   2   8    9.59    2.02   1
  -3  -2  -8    7.69    2.19   1
   4   2   8    5.49    1.82   3
   4   2   8    4.96    1.69   1
  -4  -2  -8    5.48    1.98   1
   5   2   8    2.21    1.52   3
   5   2   8    2.03    1.53   1
  -5  -2  -8    1.83    1.67   1
   6   2   8    6.90    2.16   1
 -10   3   8   -1.12    1.12   2
  -9   3   8   68.85    6.91   2
  -8   3   8   66.47    6.58   2
  -7   3   8    6.81    1.50   1
  -7   3   8    4.70    1.39   2
  -6   3   8  117.31   11.82   1
  -6   3   8  137.91   11.85   2
  -5   3   8    4.17    1.19   2
  -5   3   8    3.44    1.23   1
  -4   3   8    2.86    1.14   1
  -4   3   8    3.52    1.27   2
   3  -3  -8  291.81   28.16   1
  -3   3   8  343.21   28.04   2
  -2   3   8   51.37    5.40   2
   2  -3  -8   53.67    5.52   1
  -1   3   8  139.70   14.67   1
  -1   3   8  180.16   14.68   2
   0  -3  -8  138.32   15.02   1
   0   3   8  165.43   15.56   3
   0   3   8  176.33   15.14   1
   0   3   8  171.16   15.01   2
   1   3   8   47.79    5.04   3
   1   3   8   44.49    4.84   1
   1   3   8   37.65    4.70   2
   2   3   8  124.28   11.80   3
   2   3   8   99.66   11.12   1
  -2  -3  -8  122.39   11.58   1
   2   3   8  125.55   11.29   2
   3   3   8    0.65    1.06   3
   3   3   8    0.00    0.98   1
  -3  -3  -8    0.71    1.31   1
  -4  -3  -8   -0.82    1.35   1
   4   3   8    0.56    1.19   1
   4   3   8    0.51    1.08   3
   5   3   8    0.73    1.34   3
  -5  -3  -8    2.08    1.81   1
   5   3   8    1.22    1.35   1
 -10   4   8   23.21    3.25   2
  -9   4   8   26.30    3.32   2
  -8   4   8  151.15   13.75   2
  -7   4   8  143.08   13.10   2
  -6   4   8   42.12    4.47   2
  -5   4   8  299.76   25.48   2
  -5   4   8  274.32   25.65   1
  -4   4   8   16.68    2.35   2
  -4   4   8   19.24    2.56   1
  -3   4   8   14.72    2.16   2
  -2   4   8  158.17   13.56   1
  -2   4   8  132.41   13.26   2
  -1   4   8  134.03   13.85   1
  -1   4   8  169.25   14.00   2
   0  -4  -8   49.29    5.03   1
   0   4   8   39.38    4.70   2
   0   4   8   39.50    4.65   1
   1   4   8  253.81   23.08   1
   2   4   8    4.04    1.60   2
   2   4   8    4.27    1.50   1
  -2  -4  -8    3.19    1.76   1
  -3  -4  -8    0.60    1.38   1
   3   4   8    0.25    1.08   1
   3   4   8   -0.01    1.23   2
  -4  -4  -8    1.60    1.70   1
   4   4   8    1.86    1.42   1
  -5  -4  -8   74.35    8.35   1
  -9   5   8    2.20    1.25   2
  -8   5   8    3.91    1.33   2
  -7   5   8   60.24    6.05   2
  -6   5   8  248.59   22.10   2
  -5   5   8   92.33    8.74   2
  -4   5   8    6.85    1.55   1
  -4   5   8    8.92    1.64   2
  -3   5   8  261.58   23.08   1
  -3   5   8  249.34   22.75   2
  -2   5   8   79.73    7.23   1
  -2   5   8   65.16    7.13   2
  -1   5   8  115.41   10.95   2
  -1   5   8  116.92   11.00   1
   0   5   8  115.53   10.43   1
   0   5   8  100.05   10.24   2
   1   5   8    0.86    1.05   1
   1   5   8    1.58    1.13   2
   2   5   8   38.80    4.41   1
  -2  -5  -8   30.95    4.65   1
  -3  -5  -8    2.32    1.84   1
   3   5   8    1.57    1.35   1
   3   5   8    3.30    1.54   2
   4   5   8   59.12    7.27   1
  -4  -5  -8   81.07    7.91   1
  -9   6   8    2.93    1.30   2
  -8   6   8   40.28    4.32   2
  -7   6   8   25.45    3.11   2
  -6   6   8    3.30    1.26   2
  -5   6   8   16.43    2.35   2
  -4   6   8   61.94    6.20   2
  -3   6   8    0.98    1.03   2
  -3   6   8    1.35    1.16   1
  -2   6   8  490.72   39.67   1
  -2   6   8  402.72   39.15   2
  -1   6   8    4.43    1.38   1
  -1   6   8    1.87    1.12   2
   0   6   8    3.52    1.34   1
   0   6   8    2.22    1.17   2
   1   6   8   15.92    2.64   2
   1   6   8   15.54    2.63   1
   2   6   8   34.45    4.41   2
   2   6   8   34.96    4.40   1
   3   6   8   37.18    4.87   2
   3   6   8   41.26    4.96   1
  -8   7   8   13.78    2.11   2
  -7   7   8    1.45    1.04   2
  -6   7   8   44.10    4.72   2
  -5   7   8    8.79    1.68   2
  -4   7   8    2.07    1.21   2
  -3   7   8  181.47   16.52   2
  -2   7   8    3.91    1.41   2
  -2   7   8    5.71    1.57   1
  -1   7   8   63.32    6.58   1
   0   7   8   15.96    2.66   1
   1   7   8   30.48    3.98   1
   2   7   8   50.07    5.75   1
   0   8   8    1.70    1.43   1
   1   8   8   84.75    8.70   1
  -7  -7   9   23.60    4.18   1
  -6  -7   9   13.47    3.37   1
   6   7  -9   19.10    3.59   1
   5   7  -9   25.28    4.33   1
  -5  -7   9   26.07    4.25   1
  -4  -7   9   66.70    7.71   1
   4   7  -9   66.97    7.79   1
  -4  -7   9   65.54    7.82   3
   3   7  -9    1.35    1.93   1
   3   7  -9   -0.28    1.33   2
   2   7  -9   46.41    5.69   2
   2   7  -9   41.45    5.86   1
   1   7  -9   11.93    2.83   1
   1   7  -9    6.95    2.33   2
   0   7  -9    1.25    1.78   1
  -8  -6   9   25.00    4.38   1
   8   6  -9   32.12    4.69   1
  -8  -6   9   33.26    4.68   3
   7   6  -9   16.85    3.42   1
  -7  -6   9   12.60    3.33   1
  -7  -6   9   26.52    3.94   3
   6   6  -9   32.85    5.21   1
  -6  -6   9   49.34    5.69   1
  -6  -6   9   41.54    5.36   3
   5   6  -9  129.34   14.00   1
  -5  -6   9  140.59   14.02   1
  -5  -6   9  156.51   14.67   3
  -4  -6   9   47.25    5.76   1
   4   6  -9   48.19    5.92   1
  -4  -6   9   37.83    5.51   3
   3   6  -9  225.56   22.84   2
  -3  -6   9  247.01   23.31   1
   3   6  -9  284.70   23.68   1
  -3  -6   9  243.39   24.08   3
  -2  -6   9   27.72    4.35   3
  -2  -6   9   29.78    4.34   1
   2   6  -9   31.62    4.47   1
   2   6  -9   26.22    4.01   2
  -1  -6   9   39.46    5.41   1
   1   6  -9   40.74    5.42   1
  -1  -6   9   45.64    5.61   3
   1   6  -9   39.83    5.14   2
   0   6  -9    6.08    1.99   2
   0  -6   9    5.89    2.09   3
   0   6  -9    7.89    2.35   1
  -1   6  -9   34.57    5.05   1
  -1   6  -9   36.04    4.72   2
  -2   6  -9    3.78    1.91   1
  10   5  -9   20.70    3.73   1
  -9  -5   9    8.89    2.63   1
   9   5  -9   15.21    2.97   1
  -8  -5   9   24.13    3.85   3
   8   5  -9   22.31    3.62   1
  -8  -5   9   14.80    3.48   1
   7   5  -9   44.97    5.64   1
  -7  -5   9   46.81    5.84   1
   6   5  -9   65.20    7.38   1
  -6  -5   9   64.06    7.39   1
  -5  -5   9   74.08    8.70   1
   5   5  -9   79.61    8.87   1
  -5  -5   9   95.63    9.23   3
  -4  -5   9    2.82    1.76   1
  -4  -5   9    6.36    2.03   3
   4   5  -9    5.67    2.29   1
  -3  -5   9    0.06    1.08   3
   3   5  -9    0.61    1.44   1
   3   5  -9    1.67    1.36   2
  -3  -5   9    1.17    1.48   1
   2   5  -9    4.36    2.05   1
   2   5  -9    7.78    2.10   2
  -2  -5   9    6.46    2.03   1
  -2  -5   9    5.51    2.02   3
   1   5  -9   85.83    9.10   2
   1   5  -9   97.42    9.42   1
  -1  -5   9   92.57    9.64   3
  -1  -5   9   79.18    9.13   1
   0  -5   9    0.65    1.41   1
   0   5  -9    1.77    1.66   1
   0   5  -9    4.07    1.59   2
   0  -5   9    3.37    1.64   3
  -1   5  -9    9.90    2.27   2
   1  -5   9    6.32    2.11   3
  -1   5  -9    7.50    2.33   1
  -2   5  -9    1.32    1.57   1
  -2   5  -9    1.11    1.34   2
  -3   5  -9    1.19    1.58   1
  10   4  -9    2.88    1.89   1
 -10  -4   9    3.58    2.00   1
  -9  -4   9   16.47    3.37   1
   9   4  -9   22.29    3.43   1
  -8  -4   9   46.03    5.73   1
   8   4  -9   45.14    5.49   1
  -7  -4   9   26.08    4.01   1
  -7  -4   9   27.51    3.85   3
   7   4  -9   23.18    3.74   1
  -6  -4   9  446.33   44.57   1
   6   4  -9  559.18   44.86   1
  -6  -4   9  491.58   46.09   3
  -5  -4   9  128.60   12.18   1
   5   4  -9  132.69   12.21   1
  -5  -4   9  106.52   12.31   3
  -4  -4   9  280.94   25.29   3
  -4  -4   9  276.44   24.42   1
   4   4  -9  238.10   24.37   1
  -3  -4   9    3.79    1.71   1
  -3  -4   9    4.59    1.65   3
   3   4  -9    6.19    2.00   1
   2   4  -9  106.13   11.12   1
   2   4  -9  126.82   11.12   2
  -2  -4   9  106.88   11.02   1
  -2  -4   9  107.31   11.45   3
   1   4  -9    7.46    2.22   1
  -1  -4   9    8.89    2.17   3
  -1  -4   9    6.48    2.02   1
   1   4  -9    7.60    1.92   2
   0  -4   9  166.06   15.42   3
   0   4  -9  136.22   14.45   2
   0   4  -9  145.42   14.86   1
   0  -4   9  169.90   14.97   1
   1  -4   9    6.97    2.17   3
  -1   4  -9    4.82    2.00   1
   1  -4   9    5.63    2.01   1
  -1   4  -9    4.99    1.73   2
  -2   4  -9    1.12    1.18   2
   2  -4   9    0.45    1.00   3
  -2   4  -9    0.57    1.29   1
   2  -4   9    0.56    1.39   1
  -3   4  -9    7.84    2.21   2
  -3   4  -9    5.42    2.09   1
 -10  -3   9   24.82    3.72   2
 -10  -3   9   18.60    3.53   1
  -9  -3   9  145.07   13.07   2
  -9  -3   9  125.20   13.04   1
   9   3  -9  128.42   12.85   1
   8   3  -9    5.11    1.84   1
  -8  -3   9    7.90    2.24   2
  -8  -3   9    7.64    2.20   1
  -7  -3   9   34.98    4.44   2
   7   3  -9   30.37    4.35   1
  -7  -3   9   37.30    4.55   3
  -7  -3   9   40.44    4.76   1
  -6  -3   9   46.40    5.12   2
  -6  -3   9   35.35    4.97   3
   6   3  -9   42.03    5.03   1
  -6  -3   9   47.85    5.32   1
  -5  -3   9  244.09   20.81   2
  -5  -3   9  219.25   21.55   3
  -5  -3   9  214.17   20.80   1
  -4  -3   9  261.98   23.89   2
  -4  -3   9  257.44   24.08   1
   4   3  -9  268.85   24.19   1
  -3  -3   9    2.74    1.35   3
   3   3  -9    2.25    1.43   1
  -3  -3   9    0.77    1.22   1
   2   3  -9   41.95    4.72   2
  -2  -3   9   38.60    4.83   1
   2   3  -9   40.20    4.96   1
  -2  -3   9   36.53    4.81   3
   1   3  -9   -0.06    1.22   1
  -1  -3   9    1.41    1.30   1
   1   3  -9    1.00    1.08   2
  -1  -3   9    0.95    1.11   3
   0  -3   9   10.68    2.36   1
   0   3  -9    8.56    2.42   1
   0  -3   9   14.05    2.65   3
   0   3  -9   12.05    2.37   2
   1  -3   9   26.77    3.68   1
  -1   3  -9   25.43    3.58   2
  -1   3  -9   23.76    3.76   1
   2  -3   9   72.14    7.87   3
   2  -3   9   74.50    7.60   1
  -2   3  -9   89.21    8.00   1
  -2   3  -9   53.64    7.27   2
  -3   3  -9    9.29    2.19   2
  -3   3  -9   10.60    2.54   1
   3  -3   9   11.01    2.46   3
   3  -3   9   10.06    2.38   1
  -4   3  -9    8.96    2.38   2
  -4   3  -9    8.65    2.39   1
 -11  -2   9   -0.81    1.44   2
 -11  -2   9    0.70    1.58   1
 -10  -2   9  121.50   13.24   2
 -10  -2   9  154.11   13.73   1
  -9  -2   9  220.01   19.33   1
  -9  -2   9  189.46   18.96   2
  -8  -2   9   81.30    7.94   2
   8   2  -9   64.34    7.65   1
  -8  -2   9   83.78    8.13   1
   7   2  -9   51.56    6.24   1
  -7  -2   9   67.63    6.52   2
   6   2  -9   25.94    3.65   1
  -6  -2   9   23.46    3.56   3
  -6  -2   9   28.23    3.78   1
  -6  -2   9   33.96    3.94   2
  -5  -2   9  172.34   15.98   2
  -5  -2   9  171.15   16.11   1
  -5  -2   9  170.80   16.57   3
   5   2  -9  170.56   16.10   1
  -4  -2   9   16.99    3.00   1
  -4  -2   9   19.14    2.94   2
  -4  -2   9   22.50    3.13   3
   4   2  -9   20.55    3.09   1
  -3  -2   9  294.24   25.67   1
  -3  -2   9  278.13   26.37   3
  -3  -2   9  269.82   25.23   2
   2   2  -9    8.79    2.12   1
  -2  -2   9    3.30    1.49   3
  -2  -2   9    9.47    1.94   2
  -2  -2   9    4.95    1.69   1
   1   2  -9  142.89   11.75   2
  -1  -2   9  128.25   11.68   1
  -1  -2   9  108.72   12.04   3
   1   2  -9  104.05   11.67   1
   0  -2   9    7.39    1.86   1
   0   2  -9    7.80    2.11   1
   0  -2   9    8.93    2.00   3
   0   2  -9    7.81    1.97   2
   1  -2   9   73.12    8.11   3
   1  -2   9   82.03    7.93   1
  -1   2  -9   71.50    7.77   2
  -2   2  -9   14.08    2.51   2
   2  -2   9   16.59    2.77   1
   2  -2   9   15.86    2.77   3
  -2   2  -9    8.42    2.49   1
   3  -2   9  117.70   11.62   1
  -3   2  -9  131.40   11.89   1
   3  -2   9  103.80   11.83   3
   4  -2   9    4.31    1.79   1
  -4   2  -9    5.94    2.10   1
 -11  -1   9    0.88    1.69   1
 -11  -1   9   -0.44    1.42   2
 -10  -1   9   70.20    6.92   1
 -10  -1   9   50.64    6.42   2
  -9  -1   9   50.05    5.99   2
  -9  -1   9   58.04    6.27   1
  -8  -1   9  122.39   12.85   1
  -8  -1   9  144.75   12.84   2
  -7  -1   9  186.04   16.70   2
   7   1  -9  164.89   16.57   1
  -7  -1   9  188.50   16.86   1
   6   1  -9   78.19    8.31   1
  -6  -1   9   73.06    8.54   3
  -6  -1   9  103.85    8.65   2
  -5  -1   9  273.94   23.65   1
  -5  -1   9  235.03   23.14   2
  -5  -1   9  266.69   24.25   3
   5   1  -9  257.03   23.49   1
  -4  -1   9  127.49   13.72   1
   4   1  -9  157.74   13.85   1
  -4  -1   9  150.68   13.69   2
  -4  -1   9  148.59   14.25   3
  -3  -1   9    1.11    1.04   3
  -3  -1   9   -0.20    0.89   2
   3   1  -9   -1.00    0.95   1
  -3  -1   9   -0.55    0.79   1
  -2  -1   9   91.92    8.47   1
  -2  -1   9   77.33    8.61   3
  -2  -1   9   80.36    8.29   2
  -1  -1   9  132.98   13.02   2
  -1  -1   9  143.41   13.22   1
   0  -1   9    1.89    1.10   3
   0   1  -9   -0.16    1.12   1
   0  -1   9    0.12    0.90   1
   1  -1   9   11.75    2.37   1
   1  -1   9   18.07    2.84   3
  -2   1  -9   47.49    6.00   1
   2  -1   9   61.03    6.26   3
   2  -1   9   50.46    5.87   1
   3  -1   9   17.93    3.06   3
  -3   1  -9   15.80    3.03   1
   3  -1   9   15.17    2.74   1
   4  -1   9   17.30    2.91   1
  -4   1  -9   14.71    3.04   1
   4  -1   9   12.50    2.74   3
   5  -1   9   49.63    5.92   1
 -12   0   9   47.21    5.99   1
 -11   0   9   30.50    4.30   1
 -10   0   9    1.01    1.53   1
 -10   0   9    0.69    1.41   2
  -9   0   9    5.03    1.96   1
  -9   0   9    7.47    1.85   2
  -8   0   9   36.07    4.11   1
  -8   0   9   21.93    3.45   2
  -7   0   9  180.18   19.16   2
  -7   0   9  244.34   19.60   1
  -6   0   9  414.71   36.67   2
   5   0  -9  197.70   17.73   1
  -5   0   9  158.14   17.43   2
  -5   0   9  213.91   18.38   3
  -5   0   9  201.58   17.86   1
  -4   0   9  529.10   46.41   1
  -4   0   9  553.73   47.88   3
   4   0  -9  511.61   46.28   1
  -4   0   9  496.13   45.87   2
  -3   0   9    0.47    0.90   1
  -3   0   9    0.38    0.89   3
  -3   0   9    0.28    1.04   2
   3   0  -9    0.25    1.09   1
  -2   0   9   43.27    5.10   2
  -2   0   9   53.80    5.49   1
  -1   0   9    0.29    1.00   1
   1   0  -9    1.96    1.31   1
  -1   0   9   -0.06    0.88   2
  -1   0   9    0.09    0.90   3
   0   0   9   33.56    4.01   1
   0   0  -9   37.04    4.28   1
   0   0   9   32.23    4.05   3
   0   0   9   25.48    3.77   2
  -1   0  -9   13.19    2.71   1
   1   0   9   18.83    2.89   3
   1   0   9   16.13    2.61   1
   2   0   9   -0.42    0.88   1
  -2   0  -9    0.81    1.26   1
   2   0   9    1.48    1.15   3
   3   0   9    6.20    1.82   3
  -3   0  -9    3.19    1.67   1
   3   0   9    6.63    1.79   1
   4   0   9   64.22    7.56   1
   4   0   9   83.88    8.12   3
  -4   0  -9   66.67    7.77   1
   5   0   9   -0.26    1.21   1
 -11   1   9    3.76    1.88   1
 -10   1   9   62.41    6.12   2
 -10   1   9   45.49    5.97   1
  -9   1   9   41.47    5.02   2
  -9   1   9   47.66    5.35   1
  -8   1   9  132.01   12.44   2
  -8   1   9  129.64   12.55   1
  -7   1   9  148.60   13.79   2
  -6   1   9  113.10   11.60   1
  -6   1   9  130.87   11.59   2
   5  -1  -9  229.30   22.30   1
  -5   1   9  271.79   22.35   2
  -5   1   9  241.58   22.47   1
  -4   1   9  140.57   12.82   2
  -4   1   9  132.90   12.86   1
  -3   1   9    0.31    0.86   3
   3  -1  -9    0.00    1.03   1
  -3   1   9   -0.57    0.80   2
  -3   1   9    1.93    1.21   1
  -2   1   9   93.83    9.88   1
  -2   1   9  112.18   10.29   3
  -2   1   9  100.48    9.81   2
  -1   1   9  126.58   12.82   1
  -1   1   9  154.39   13.45   3
   1  -1  -9  131.83   12.93   1
  -1   1   9  131.46   12.70   2
   0  -1  -9   -0.10    1.19   1
   0   1   9    1.87    1.25   2
   0   1   9    0.79    1.00   1
   0   1   9    0.01    0.89   3
   1   1   9   11.84    2.24   1
  -1  -1  -9    7.04    2.13   1
   1   1   9   12.49    2.27   2
   1   1   9   19.25    2.73   3
   2   1   9   41.46    5.26   1
  -2  -1  -9   46.70    5.48   1
   2   1   9   50.95    5.53   3
  -3  -1  -9   13.08    2.79   1
   3   1   9   13.56    2.59   1
   3   1   9   18.20    2.89   3
   4   1   9    8.76    2.30   3
  -4  -1  -9   19.97    3.15   1
   5   1   9   50.32    6.05   1
 -10   2   9  151.81   14.28   2
  -9   2   9  119.68   11.45   2
  -8   2   9   70.55    7.71   1
  -8   2   9   82.58    7.72   2
  -7   2   9   59.97    6.23   2
  -6   2   9   28.52    3.82   1
  -6   2   9   34.96    3.90   2
  -5   2   9  166.60   13.74   2
  -5   2   9  129.39   13.61   1
  -4   2   9   19.27    2.62   2
  -4   2   9   17.29    2.64   1
   4  -2  -9   13.49    2.28   1
   3  -2  -9  234.85   24.23   1
  -3   2   9  291.10   24.19   2
  -3   2   9  284.37   24.46   1
  -2   2   9    6.80    1.57   2
   2  -2  -9    3.65    1.52   1
  -2   2   9    6.15    1.56   1
  -1   2   9  101.97   10.93   3
  -1   2   9  126.58   10.72   2
   1  -2  -9   90.15   10.61   1
  -1   2   9  125.60   10.84   1
   0  -2  -9    6.83    1.98   1
   0   2   9    8.35    1.83   2
   0   2   9    7.37    1.78   3
  -1  -2  -9  102.32    8.68   1
   1   2   9   81.62    8.58   3
   1   2   9   68.17    8.06   2
   1   2   9   81.52    8.45   1
  -2  -2  -9   17.51    2.95   1
   2   2   9   15.75    2.76   1
   2   2   9   12.82    2.57   3
   3   2   9  112.83   10.52   3
   3   2   9   87.93   10.03   1
   4   2   9    4.16    1.81   3
  -4  -2  -9    5.17    2.23   1
   4   2   9    3.91    1.86   1
 -10   3   9   22.75    3.25   2
  -9   3   9  107.92   10.42   2
  -8   3   9    8.23    1.80   2
  -7   3   9   30.27    4.19   1
  -7   3   9   41.86    4.32   2
  -6   3   9   39.27    4.61   2
  -6   3   9   41.66    4.64   1
  -5   3   9  161.76   16.45   1
  -5   3   9  198.42   16.47   2
  -4   3   9  229.36   21.38   2
  -4   3   9  246.40   21.68   1
  -3   3   9    1.88    1.06   1
  -3   3   9    1.24    1.15   2
  -2   3   9   26.44    3.58   2
  -2   3   9   33.72    3.91   1
   2  -3  -9   35.02    4.02   1
   1  -3  -9    0.98    1.33   1
  -1   3   9    0.55    0.95   2
   0   3   9    8.88    2.17   1
   0  -3  -9   19.57    2.84   1
   0   3   9   11.17    2.17   2
   1   3   9   22.71    3.39   2
   1   3   9   28.13    3.61   1
  -1  -3  -9   26.76    3.74   1
   2   3   9   76.67    7.93   2
  -2  -3  -9   82.27    8.26   1
   2   3   9   72.22    7.96   1
  -3  -3  -9   12.17    2.74   1
   3   3   9    7.47    2.19   1
  -4  -3  -9   11.19    2.87   1
   4   3   9   10.51    2.46   1
  -9   4   9   23.18    3.22   2
  -8   4   9   43.25    4.76   2
  -7   4   9   36.23    4.27   2
  -6   4   9  511.77   43.18   2
  -6   4   9  473.33   43.52   1
  -5   4   9  109.33   11.96   1
  -5   4   9  147.34   12.06   2
  -4   4   9  337.17   26.62   1
  -4   4   9  253.27   26.11   2
  -3   4   9    3.05    1.21   2
  -3   4   9    2.82    1.26   1
  -2   4   9  113.15   10.77   2
  -1   4   9    7.29    1.80   1
  -1   4   9    4.42    1.55   2
   0   4   9  160.17   14.46   2
   0   4   9  147.72   14.49   1
   1   4   9    5.01    1.73   2
   1   4   9    5.63    1.61   1
  -1  -4  -9    2.45    1.73   1
  -2  -4  -9   -0.03    1.46   1
   2   4   9    0.37    1.37   2
   2   4   9   -0.05    1.00   1
   3   4   9    5.91    1.82   1
  -3  -4  -9    5.16    2.20   1
  -4  -4  -9   36.02    5.17   1
  -9   5   9   11.31    2.20   2
  -8   5   9   18.32    2.62   2
  -7   5   9   43.89    4.89   2
  -6   5   9   87.22    8.53   2
  -5   5   9   75.37    7.58   2
  -4   5   9    3.70    1.32   2
  -4   5   9    2.95    1.31   1
  -3   5   9    0.90    1.05   2
  -2   5   9    5.58    1.59   2
  -2   5   9    5.37    1.69   1
  -1   5   9   58.12    6.79   1
  -1   5   9   74.48    6.93   2
   0   5   9    2.27    1.39   2
   0   5   9    2.57    1.25   1
   1   5   9    4.49    1.70   1
   1   5   9    6.59    1.86   2
   2   5   9    0.61    1.43   2
   2   5   9   -0.12    1.09   1
  -7   6   9   18.77    2.71   2
  -6   6   9   38.83    4.43   2
  -5   6   9  135.04   12.60   2
  -4   6   9   35.43    4.15   2
  -3   6   9  213.80   19.76   2
  -3   6   9  222.20   20.07   1
  -2   6   9   19.49    2.94   2
  -2   6   9   20.27    2.99   1
  -1   6   9   35.16    4.25   1
  -1   6   9   34.29    4.33   2
   0   6   9    7.42    1.99   2
   0   6   9    3.82    1.53   1
   1   6   9   30.94    4.19   1
   1   6   9   32.31    4.31   2
  -5   7   9   27.25    3.38   2
  -4   7   9   55.55    5.87   2
  -3   7   9    0.87    1.06   2
  -1   7   9    8.24    2.04   1
   0   7   9   -0.28    1.16   1
  -5  -7  10   19.91    3.92   1
  -4  -7  10    4.43    2.33   1
   7   6 -10   39.05    5.23   1
  -7  -6  10   26.33    4.92   3
  -7  -6  10   38.70    5.25   1
  -6  -6  10    0.68    1.52   3
   6   6 -10   -0.22    1.72   1
  -6  -6  10    1.23    1.82   1
  -5  -6  10   58.75    7.65   3
  -5  -6  10   70.47    7.89   1
   5   6 -10   68.82    7.83   1
  -4  -6  10   37.77    5.33   1
  -4  -6  10   35.33    5.18   3
   4   6 -10   37.96    5.51   1
   3   6 -10    4.42    2.35   1
  -3  -6  10    7.30    2.56   1
  -3  -6  10    7.88    2.49   3
  -2  -6  10    8.64    2.66   1
   2   6 -10    7.15    2.44   1
   1   6 -10    3.78    2.14   1
   0   6 -10   11.47    2.70   2
   9   5 -10   21.15    3.64   1
   8   5 -10   82.83    9.05   1
  -8  -5  10   83.99    9.18   1
   7   5 -10    1.73    1.83   1
  -7  -5  10    2.15    1.70   3
  -7  -5  10    1.39    1.71   1
   6   5 -10   89.37    8.53   1
  -6  -5  10   71.11    8.15   1
  -6  -5  10   62.29    8.12   3
   5   5 -10   44.67    5.55   1
  -5  -5  10   33.45    5.13   3
  -5  -5  10   42.30    5.47   1
   4   5 -10   29.59    4.68   1
  -4  -5  10   26.05    4.37   1
  -4  -5  10   37.57    4.80   3
  -3  -5  10   25.65    4.12   3
  -3  -5  10   20.61    3.75   1
   3   5 -10   27.56    4.24   1
  -2  -5  10   16.13    3.39   3
   2   5 -10   18.13    3.44   1
  -2  -5  10   16.30    3.15   1
  -1  -5  10   31.77    5.03   1
   1   5 -10   43.16    5.45   1
  -1  -5  10   47.58    5.63   3
   0   5 -10   47.43    5.97   1
   0  -5  10   43.18    5.65   1
  -1   5 -10   14.65    3.14   1
  -9  -4  10   19.27    3.53   1
   9   4 -10   18.58    3.33   1
  -8  -4  10   13.98    2.94   1
   8   4 -10    9.35    2.67   1
  -7  -4  10   87.24   10.30   3
   7   4 -10  112.06   10.39   1
  -7  -4  10   98.61   10.30   1
   6   4 -10   20.39    3.51   1
  -6  -4  10   23.66    3.75   1
  -6  -4  10   19.93    3.57   3
  -5  -4  10   46.32    5.82   3
  -5  -4  10   45.98    5.77   1
   5   4 -10   46.37    5.85   1
   4   4 -10    2.33    1.77   1
  -4  -4  10    2.38    1.55   3
  -4  -4  10    2.85    1.70   1
  -3  -4  10    0.21    1.34   3
  -3  -4  10    0.16    1.34   1
   3   4 -10    0.15    1.51   1
   2   4 -10  105.87   11.58   1
  -2  -4  10  112.44   11.50   1
  -2  -4  10  127.50   12.18   3
   1   4 -10   60.76    6.72   1
  -1  -4  10   48.79    6.47   3
  -1  -4  10   55.31    6.51   1
   0   4 -10   30.44    4.54   1
   0  -4  10   28.12    4.20   3
   0  -4  10   27.48    4.23   1
   1  -4  10   53.99    6.61   1
   1  -4  10   51.31    6.65   3
  -1   4 -10   63.01    6.86   1
  -2   4 -10    2.62    1.82   1
 -10  -3  10    1.68    1.80   2
 -10  -3  10    2.47    1.96   1
   9   3 -10   64.66    7.69   1
  -9  -3  10   68.08    8.01   1
  -9  -3  10   89.30    8.27   2
   8   3 -10  118.43   11.33   1
  -8  -3  10  119.95   11.58   1
  -8  -3  10  100.17   11.13   2
  -7  -3  10   69.11    7.86   2
  -7  -3  10   69.11    8.08   1
   7   3 -10   86.10    8.18   1
  -6  -3  10   24.83    3.70   2
  -6  -3  10   27.16    3.98   1
   6   3 -10   23.16    3.82   1
  -6  -3  10   25.04    3.76   3
  -5  -3  10   60.14    6.52   3
  -5  -3  10   64.87    6.40   1
   5   3 -10   39.53    6.00   1
  -4  -3  10   26.59    3.88   3
  -4  -3  10   28.36    3.90   1
   4   3 -10   24.15    3.87   1
   3   3 -10   24.33    3.53   1
  -3  -3  10   15.40    3.13   1
  -3  -3  10   20.44    3.42   3
  -2  -3  10    4.58    1.79   3
  -2  -3  10    1.66    1.54   1
   2   3 -10    2.48    1.75   1
  -1  -3  10   15.71    2.99   3
   1   3 -10   15.14    3.10   1
  -1  -3  10   13.93    2.77   1
   0  -3  10   75.77    8.46   1
   0   3 -10   79.29    8.66   1
   0  -3  10   85.15    8.93   3
   1  -3  10   81.81    8.93   3
   1  -3  10   93.60    8.74   1
  -1   3 -10   67.46    8.57   1
   2  -3  10    0.01    1.31   1
  -2   3 -10    0.64    1.60   1
 -10  -2  10   36.47    4.90   1
 -10  -2  10   30.35    4.53   2
  -9  -2  10  157.71   15.17   2
   8   2 -10  131.01   11.48   1
  -8  -2  10  104.25   11.46   1
  -8  -2  10  109.38   11.31   2
   7   2 -10   60.91    7.61   1
  -7  -2  10   77.11    8.03   1
  -7  -2  10   85.54    7.97   2
  -6  -2  10   54.52    5.69   2
   6   2 -10   40.43    5.33   1
  -6  -2  10   46.23    5.50   1
  -5  -2  10   10.77    2.43   3
  -5  -2  10   11.54    2.48   1
   5   2 -10   14.50    2.73   1
  -5  -2  10   10.67    2.31   2
  -4  -2  10  132.78   12.77   2
  -4  -2  10  150.55   13.58   3
   4   2 -10  138.07   13.07   1
  -4  -2  10  115.17   12.91   1
  -3  -2  10    9.01    2.18   2
  -3  -2  10    9.78    2.36   3
  -3  -2  10   11.97    2.47   1
   3   2 -10   13.17    2.56   1
  -2  -2  10   11.49    2.51   3
  -2  -2  10    7.66    2.23   1
   2   2 -10   14.71    2.77   1
  -1  -2  10    0.76    1.19   1
  -1  -2  10    0.57    1.21   3
   1   2 -10    0.10    1.28   1
   0  -2  10   22.43    3.43   1
   0  -2  10   22.48    3.59   3
   0   2 -10   21.59    3.67   1
   1  -2  10    1.42    1.29   1
   1  -2  10    0.63    1.20   3
  -1   2 -10   -0.04    1.45   1
  -2   2 -10  140.17   13.40   1
   2  -2  10  126.65   12.98   1
  -3   2 -10    3.94    2.02   1
   3  -2  10    9.15    2.44   1
 -11  -1  10   57.96    6.86   1
 -10  -1  10    3.47    2.01   1
 -10  -1  10    9.06    2.44   2
  -9  -1  10   27.54    4.09   2
  -9  -1  10   32.61    4.41   1
  -8  -1  10  185.39   17.94   1
  -8  -1  10  194.97   17.80   2
  -7  -1  10    2.38    1.44   2
  -7  -1  10   -0.12    1.29   1
   7   1 -10    0.72    1.35   1
  -6  -1  10   17.49    3.02   1
   6   1 -10   23.99    3.20   1
  -6  -1  10   16.25    2.84   2
  -5  -1  10   47.40    5.34   2
  -5  -1  10   40.20    5.35   1
   5   1 -10   52.78    5.52   1
  -4  -1  10    0.21    1.08   1
  -4  -1  10   -1.14    0.98   2
   4   1 -10    0.95    1.27   1
  -4  -1  10    0.25    1.09   3
   3   1 -10    4.56    1.81   1
  -3  -1  10    3.64    1.52   2
  -3  -1  10    3.48    1.55   1
  -3  -1  10    4.84    1.65   3
  -2  -1  10    6.01    1.85   2
  -2  -1  10    6.09    1.86   1
   2   1 -10   10.70    2.42   1
  -2  -1  10   10.27    2.32   3
  -1  -1  10  138.30   13.04   1
  -1  -1  10  110.00   13.26   3
   1   1 -10  161.31   13.43   1
   0   1 -10   19.82    3.25   1
   0  -1  10   15.74    2.91   1
   0  -1  10   15.97    2.99   3
   1  -1  10   38.00    4.79   1
   1  -1  10   36.39    4.82   3
  -1   1 -10   37.13    4.95   1
  -2   1 -10   -0.31    1.50   1
   2  -1  10    1.06    1.24   1
   2  -1  10    0.48    1.18   3
   3  -1  10   65.79    8.56   3
   3  -1  10   95.86    8.73   1
   4  -1  10   15.62    3.06   1
 -11   0  10   44.76    5.78   1
 -10   0  10   49.03    5.44   1
 -10   0  10   35.60    4.96   2
  -9   0  10    2.67    1.86   1
  -9   0  10    9.47    2.05   2
  -8   0  10   31.82    4.69   1
  -8   0  10   40.94    4.66   2
  -7   0  10  174.33   19.24   1
  -7   0  10  249.01   19.45   2
   6   0 -10   17.42    2.66   1
  -6   0  10   13.90    2.66   1
  -6   0  10   12.95    2.49   2
   5   0 -10   77.61    7.08   1
  -5   0  10   67.08    6.86   2
  -5   0  10   51.98    6.74   1
  -4   0  10    0.18    1.05   2
  -4   0  10    0.34    1.06   1
   4   0 -10    2.28    1.38   1
  -3   0  10    9.23    2.04   1
   3   0 -10    9.09    2.19   1
  -3   0  10    6.16    1.90   2
  -3   0  10    9.06    2.07   3
   2   0 -10   52.26    6.27   1
  -2   0  10   55.29    6.18   2
  -2   0  10   59.51    6.55   3
  -2   0  10   60.38    6.35   1
  -1   0  10  259.54   23.42   3
  -1   0  10  276.86   22.47   2
  -1   0  10  201.47   22.44   1
   1   0 -10  249.32   22.77   1
   0   0  10   39.35    5.22   3
   0   0 -10   56.00    5.66   1
   0   0  10   38.93    5.06   1
   1   0  10  132.51   14.61   3
  -1   0 -10  176.29   14.67   1
   1   0  10  139.59   14.18   1
   2   0  10    6.52    2.02   1
   2   0  10    5.93    1.97   3
  -2   0 -10    8.71    2.42   1
   3   0  10    8.12    2.30   3
  -3   0 -10   10.76    2.67   1
   3   0  10    9.89    2.36   1
 -10   1  10    4.89    2.06   1
 -10   1  10    5.36    2.00   2
  -9   1  10   19.87    3.48   1
  -9   1  10   25.58    3.56   2
  -8   1  10  162.96   13.82   1
  -8   1  10  124.32   13.50   2
  -7   1  10    1.68    1.30   2
  -7   1  10    0.03    1.20   1
  -6   1  10   19.86    2.95   2
  -6   1  10   18.63    2.98   1
  -5   1  10   51.77    5.48   1
  -5   1  10   43.35    5.25   2
  -4   1  10    1.00    1.06   1
  -4   1  10    0.15    1.05   2
   4  -1 -10    0.52    1.09   1
  -3   1  10    6.20    1.75   1
   3  -1 -10    5.81    1.83   1
  -3   1  10    3.93    1.42   2
  -2   1  10    8.30    1.93   3
  -2   1  10    8.77    1.93   1
   2  -1 -10    7.25    2.07   1
  -2   1  10    6.46    1.76   2
  -1   1  10  114.98   12.44   3
  -1   1  10  138.99   12.13   2
   1  -1 -10  144.81   12.42   1
  -1   1  10  105.49   11.94   1
   0  -1 -10   12.05    2.70   1
   0   1  10   12.65    2.48   1
   0   1  10   14.79    2.60   2
   0   1  10   16.34    2.85   3
   1   1  10   45.24    5.57   3
  -1  -1 -10   55.42    5.91   1
   1   1  10   41.69    5.41   1
   2   1  10    0.28    1.13   3
  -2  -1 -10    1.49    1.67   1
   2   1  10   -0.02    1.17   1
   3   1  10   99.40   10.59   1
  -3  -1 -10  107.59   10.71   1
  -9   2  10  238.78   18.94   1
  -9   2  10  167.68   18.37   2
  -8   2  10  114.65   12.45   1
  -8   2  10  148.90   12.54   2
  -7   2  10   73.43    7.52   1
  -7   2  10   69.86    7.34   2
  -6   2  10   45.12    5.31   1
  -6   2  10   49.33    5.34   2
  -5   2  10   12.40    2.34   1
  -5   2  10   13.02    2.35   2
  -4   2  10  117.20   12.77   2
  -4   2  10  161.10   13.31   1
  -3   2  10   10.09    2.08   2
  -3   2  10    8.81    2.03   1
   3  -2 -10   11.07    2.27   1
   2  -2 -10   16.42    2.67   1
  -2   2  10    9.84    2.16   1
  -2   2  10    9.44    2.12   2
  -1   2  10    0.67    1.10   2
  -1   2  10   -0.10    0.87   1
   1  -2 -10    0.10    1.30   1
   0   2  10   16.58    2.98   2
   0  -2 -10   28.13    3.62   1
   0   2  10   17.39    3.00   1
   1   2  10   -0.21    1.04   1
  -1  -2 -10    0.64    1.54   1
   2   2  10  126.61   11.92   1
  -2  -2 -10  109.77   11.75   1
  -3  -2 -10    4.15    2.11   1
  -9   3  10   64.05    6.80   2
  -8   3  10  103.00   10.01   2
  -7   3  10   54.30    6.63   2
  -7   3  10   75.66    6.97   1
  -6   3  10   22.60    3.61   1
  -6   3  10   36.27    4.00   2
  -5   3  10   53.64    5.92   2
  -5   3  10   57.06    6.07   1
  -4   3  10   20.53    3.05   1
  -4   3  10   20.36    3.03   2
  -3   3  10   14.31    2.53   1
  -3   3  10   15.33    2.56   2
  -2   3  10    3.75    1.45   1
  -2   3  10    3.16    1.42   2
  -1   3  10   12.11    2.33   2
  -1   3  10   10.53    2.24   1
   1  -3 -10   13.90    2.72   1
   0  -3 -10   93.82    8.44   1
   0   3  10   64.49    7.77   2
   1   3  10   85.92    8.80   1
   1   3  10   72.19    8.38   2
  -1  -3 -10   94.14    8.93   1
  -2  -3 -10    0.52    1.54   1
   2   3  10    1.37    1.49   1
  -3  -3 -10   62.65    7.23   1
  -8   4  10   12.18    2.28   2
  -7   4  10  119.01   11.41   2
  -6   4  10   16.45    2.72   1
  -6   4  10   18.49    2.75   2
  -5   4  10   45.17    5.14   2
  -4   4  10    2.25    1.36   2
  -4   4  10    2.39    1.36   1
  -3   4  10    0.83    1.13   1
  -3   4  10    1.02    1.25   2
  -2   4  10  105.74   10.95   1
  -2   4  10  117.58   10.83   2
  -1   4  10   52.34    5.81   2
   0   4  10   29.57    3.99   2
   0   4  10   28.94    4.07   1
   1   4  10   45.72    5.46   2
   1   4  10   43.26    5.40   1
   2   4  10   -0.43    1.22   1
  -3  -4 -10    3.45    2.03   1
  -7   5  10    3.78    1.50   2
  -6   5  10   62.33    6.57   2
  -5   5  10   43.90    5.09   2
  -4   5  10   24.84    3.27   2
  -4   5  10   17.37    2.98   1
  -3   5  10   17.43    2.79   1
  -3   5  10   16.48    2.67   2
  -2   5  10   15.36    2.67   2
  -1   5  10   37.57    4.68   1
  -1   5  10   35.82    4.58   2
   0   5  10   42.33    5.32   2
   0   5  10   47.56    5.51   1
   1   5  10   13.09    2.56   1
   1   5  10   10.12    2.53   2
  -4   6  10   31.10    3.94   2
  -3   6  10    4.78    1.75   2
  -3   6  10    4.40    1.66   1
  -2   6  10    5.72    1.98   1
  -1   6  10    2.59    1.66   1
   0   6  10    9.05    2.30   1
  -1   7  10    8.68    2.23   1
  -5  -6  11    0.47    2.08   1
  -4  -6  11   31.66    5.00   1
   7   5 -11   16.16    3.33   1
  -7  -5  11   10.98    3.15   1
  -6  -5  11   34.13    5.59   1
  -6  -5  11   54.59    6.16   3
   6   5 -11   43.26    5.92   1
  -5  -5  11    5.36    2.33   3
   5   5 -11    6.34    2.48   1
  -5  -5  11    5.78    2.55   1
  -4  -5  11    1.55    1.88   3
  -4  -5  11    1.57    2.02   1
   4   5 -11    5.33    2.46   1
  -3  -5  11   61.49    7.46   1
  -3  -5  11   73.79    7.92   3
   3   5 -11   56.42    7.57   1
   2   5 -11    1.09    1.91   1
  -2  -5  11    0.84    1.70   1
  -1  -5  11   51.60    6.54   1
   9   4 -11   -0.39    1.74   1
  -8  -4  11   -1.63    1.45   1
   8   4 -11    3.07    1.96   1
  -7  -4  11   40.50    5.77   1
   7   4 -11   47.26    5.89   1
   6   4 -11   39.57    5.45   1
  -6  -4  11   39.87    5.46   1
   5   4 -11    7.50    2.65   1
  -5  -4  11    6.70    2.41   3
  -5  -4  11    8.67    2.52   1
  -4  -4  11    0.68    1.64   1
   4   4 -11   -0.45    1.64   1
  -4  -4  11    0.39    1.36   3
  -3  -4  11   -1.70    1.29   1
   3   4 -11    0.06    1.65   1
  -3  -4  11   -0.39    1.44   3
   2   4 -11   36.73    5.34   1
  -2  -4  11   38.86    5.12   1
  -2  -4  11   37.14    5.20   3
  -1  -4  11    2.19    1.86   3
   1   4 -11    1.28    2.00   1
  -1  -4  11    2.19    1.92   1
   0  -4  11  155.68   15.38   1
  -9  -3  11   30.66    4.67   1
  -8  -3  11    8.17    2.58   1
   8   3 -11   10.30    2.56   1
  -7  -3  11   28.97    4.43   1
   7   3 -11   28.92    4.39   1
   6   3 -11    5.76    2.18   1
  -6  -3  11    2.77    1.84   1
  -5  -3  11    1.42    1.53   3
  -5  -3  11    1.92    1.67   1
   5   3 -11    0.77    1.70   1
   4   3 -11   22.07    3.63   1
  -4  -3  11   14.14    3.10   1
  -4  -3  11   16.38    3.34   3
   3   3 -11   77.18    8.64   1
  -3  -3  11   83.28    8.72   1
  -3  -3  11   77.62    8.86   3
   2   3 -11    6.88    2.44   1
  -2  -3  11    8.14    2.42   3
  -2  -3  11    9.25    2.55   1
  -1  -3  11   45.74    6.03   1
  -1  -3  11   54.26    6.39   3
   1   3 -11   49.09    6.32   1
   0  -3  11   43.15    5.46   3
   0   3 -11   31.50    5.18   1
   0  -3  11   41.10    5.25   1
   1  -3  11   51.91    6.39   1
   2  -3  11   56.15    6.77   1
  -9  -2  11   30.59    4.18   2
  -9  -2  11   18.60    3.77   1
  -8  -2  11   16.84    3.28   1
  -8  -2  11   13.78    2.89   2
   7   2 -11   14.60    2.82   1
  -7  -2  11    9.45    2.69   1
  -6  -2  11   13.74    2.85   2
  -6  -2  11   16.45    3.02   1
   6   2 -11   12.74    2.85   1
  -5  -2  11    5.09    1.97   2
  -5  -2  11    3.66    1.87   1
   5   2 -11    5.93    2.14   1
  -4  -2  11  227.22   20.92   1
   4   2 -11  215.61   20.82   1
  -3  -2  11   83.97    9.29   3
   3   2 -11   86.17    9.11   1
  -2  -2  11   62.79    7.43   1
   2   2 -11   67.17    7.70   1
  -2  -2  11   72.56    7.85   3
   1   2 -11   22.35    4.11   1
  -1  -2  11   26.89    4.06   1
  -1  -2  11   33.59    4.40   3
   0   2 -11   19.78    3.71   1
   0  -2  11   19.10    3.62   3
   0  -2  11   15.85    3.13   1
  -1   2 -11   81.46    8.59   1
   1  -2  11   72.66    8.14   1
   1  -2  11   71.12    8.39   3
   2  -2  11    2.72    1.79   1
 -10  -1  11   51.23    6.33   1
  -9  -1  11    3.69    2.16   1
  -9  -1  11    1.16    1.65   2
  -8  -1  11   -0.42    1.51   2
  -8  -1  11   -0.12    1.45   1
  -7  -1  11   27.12    3.85   2
  -7  -1  11   21.29    3.66   1
  -6  -1  11   10.80    2.30   2
   6   1 -11    8.71    2.36   1
  -6  -1  11   10.85    2.49   1
  -5  -1  11    0.15    1.28   1
  -5  -1  11    1.34    1.34   2
   5   1 -11   -0.71    1.39   1
  -4  -1  11    8.95    2.38   1
  -4  -1  11   11.04    2.45   2
   4   1 -11   14.40    2.75   1
   3   1 -11   60.02    6.96   1
  -3  -1  11   59.71    6.81   2
  -3  -1  11   71.34    7.30   3
  -3  -1  11   56.16    6.86   1
  -2  -1  11   34.94    4.41   1
   2   1 -11   38.84    4.87   1
  -2  -1  11   22.64    4.24   3
  -1  -1  11  122.36   12.87   1
  -1  -1  11  147.50   13.75   3
   1   1 -11  127.49   13.16   1
   0   1 -11   24.89    3.98   1
   0  -1  11   18.94    3.39   1
   1  -1  11  131.63   14.55   3
   1  -1  11  148.94   14.24   1
  -1   1 -11  153.32   14.46   1
   2  -1  11   60.25    7.05   1
 -10   0  11    5.26    2.28   1
  -9   0  11    1.53    1.74   1
  -9   0  11   -1.12    1.24   2
  -8   0  11   15.61    3.10   1
  -8   0  11   19.68    3.30   2
  -7   0  11  202.07   18.59   1
  -7   0  11  191.45   18.27   2
  -6   0  11   12.81    2.74   1
  -6   0  11   14.77    2.67   2
  -5   0  11    9.37    2.12   2
  -5   0  11    6.56    2.05   1
   5   0 -11    6.51    2.08   1
   4   0 -11    3.86    1.71   1
  -4   0  11    2.63    1.59   2
  -4   0  11    2.21    1.53   1
  -3   0  11    0.95    1.22   1
  -3   0  11    0.80    1.36   2
   3   0 -11   -0.85    1.50   1
  -2   0  11  124.59   11.18   1
  -2   0  11  105.63   10.93   2
   2   0 -11   99.83   11.09   1
   1   0 -11   76.32    8.16   1
  -1   0  11   59.76    7.72   1
  -1   0  11   86.11    8.34   3
   0   0 -11   84.58    8.81   1
   0   0  11   78.25    8.57   1
   0   0  11   77.91    8.79   3
   1   0  11   28.60    4.15   3
   1   0  11   24.01    3.90   1
  -2   0 -11   51.20    6.50   1
   2   0  11   50.83    6.42   3
   2   0  11   55.63    6.43   1
 -10   1  11   53.15    6.46   1
  -9   1  11    6.53    2.14   1
  -9   1  11    3.01    1.74   2
  -8   1  11    1.14    1.44   2
  -8   1  11    1.32    1.46   1
  -7   1  11   29.34    3.79   1
  -7   1  11   18.38    3.26   2
  -6   1  11   11.12    2.48   1
  -6   1  11    8.53    2.23   2
  -5   1  11   -0.12    1.19   1
  -5   1  11   -0.06    1.35   2
  -4   1  11   11.07    2.33   1
  -4   1  11    9.34    2.30   2
   3  -1 -11   71.66    7.20   1
  -3   1  11   59.07    6.79   2
  -3   1  11   58.40    6.82   1
  -2   1  11   28.19    4.01   2
   2  -1 -11   27.87    4.28   1
  -2   1  11   32.37    4.19   1
  -1   1  11  113.90   12.92   2
  -1   1  11  133.53   13.26   1
   1  -1 -11  167.90   13.78   1
   0   1  11   18.95    3.28   1
   0  -1 -11   21.25    3.63   1
   1   1  11  134.45   12.76   1
  -1  -1 -11  119.51   12.75   1
  -2  -1 -11   27.15    4.36   1
  -8   2  11   10.05    2.44   2
  -8   2  11   19.97    3.01   1
  -7   2  11    7.50    2.07   2
  -7   2  11    9.47    2.34   1
  -6   2  11   10.39    2.35   2
  -6   2  11   13.86    2.60   1
  -5   2  11    5.33    2.00   2
  -5   2  11    5.63    1.91   1
  -4   2  11  271.58   23.83   2
  -4   2  11  251.64   24.01   1
  -3   2  11   65.13    7.06   1
  -3   2  11   62.27    6.92   2
  -2   2  11   50.10    6.21   1
  -2   2  11   60.89    6.33   2
  -1   2  11   17.05    3.30   2
   1  -2 -11   31.87    4.12   1
  -1   2  11   25.19    3.66   1
   0  -2 -11   23.83    3.68   1
   0   2  11   15.67    3.02   1
  -1  -2 -11   91.45    8.78   1
   1   2  11   66.59    8.18   1
  -2  -2 -11    5.65    2.34   1
  -7   3  11   26.44    3.80   2
  -6   3  11    3.59    1.72   2
  -6   3  11    3.13    1.58   1
  -5   3  11    1.23    1.39   2
  -5   3  11    2.37    1.40   1
  -4   3  11   19.52    3.12   2
  -4   3  11   17.92    3.14   1
  -3   3  11   84.34    8.06   2
  -3   3  11   66.95    7.85   1
  -2   3  11    9.39    2.29   2
  -2   3  11    6.49    2.04   1
  -1   3  11   52.84    5.81   2
  -1   3  11   42.98    5.55   1
   0   3  11   33.81    4.62   2
  -6   4  11   32.58    4.55   1
  -6   4  11   43.00    4.80   2
  -5   4  11    8.62    2.24   1
  -5   4  11    6.28    2.01   2
  -4   4  11    1.04    1.30   1
  -4   4  11    2.09    1.52   2
  -3   4  11    1.03    1.27   1
  -3   4  11    0.73    1.32   2
  -2   4  11   40.87    5.14   2
  -1   4  11    0.78    1.33   1
  -1   4  11    2.19    1.60   2
   0   4  11  134.07   13.08   1
   0   4  11  128.67   12.82   2
  -4   5  11    1.71    1.57   1
  -2   5  11    0.05    1.24   1
  -2   6  11   36.44    4.85   1
   6   4 -12  151.77   15.32   1
  -5  -4  12   11.82    3.01   1
   5   4 -12   15.33    3.62   1
  -4  -4  12   39.32    5.78   3
   4   4 -12   54.08    6.43   1
  -4  -4  12   40.17    5.78   1
  -3  -4  12   14.26    3.30   1
   7   3 -12    1.33    2.07   1
  -7  -3  12    3.16    2.10   1
   6   3 -12    5.20    2.32   1
  -6  -3  12    5.41    2.22   1
   5   3 -12  114.14   11.39   1
  -5  -3  12   99.10   11.03   1
   4   3 -12   14.18    3.43   1
  -4  -3  12   15.59    3.31   1
  -3  -3  12   44.20    5.93   3
   3   3 -12   46.21    6.09   1
  -3  -3  12   42.66    5.80   1
  -2  -3  12   52.66    6.34   1
   2   3 -12   39.29    6.09   1
  -2  -3  12   53.81    6.51   3
  -8  -2  12    4.84    2.19   1
  -8  -2  12    5.82    2.08   2
  -7  -2  12    4.05    2.04   1
  -6  -2  12   23.72    3.80   1
   6   2 -12   17.68    3.62   1
   5   2 -12    6.54    2.52   1
  -5  -2  12    4.20    2.18   1
   4   2 -12   87.96   10.00   1
  -4  -2  12   98.84   10.13   1
   3   2 -12   53.45    7.08   1
  -3  -2  12   65.24    7.25   1
   2   2 -12   88.88    9.67   1
  -2  -2  12   73.30    9.13   1
  -2  -2  12  100.43    9.98   3
   1   2 -12   53.21    6.50   1
  -1  -2  12   49.98    6.25   3
  -1  -2  12   39.58    5.82   1
  -8  -1  12   28.80    4.39   1
  -8  -1  12   23.31    4.05   2
  -7  -1  12   47.98    5.89   1
  -7  -1  12   43.88    5.88   2
  -6  -1  12    1.76    1.84   1
  -6  -1  12    3.81    1.88   2
  -5  -1  12   64.72    8.34   1
  -5  -1  12   74.35    8.26   2
   5   1 -12   97.24    8.92   1
   4   1 -12    1.75    2.06   1
  -4  -1  12    1.62    1.71   1
   3   1 -12   35.79    5.30   1
  -3  -1  12   42.25    5.35   1
  -2  -1  12   91.58   10.09   1
   2   1 -12  104.12   10.59   1
  -1  -1  12    2.35    1.82   1
   1   1 -12    5.28    2.50   1
   0  -1  12   21.04    4.04   3
  -9   0  12   20.43    3.71   1
  -8   0  12   20.49    3.69   1
  -7   0  12    1.56    1.73   2
  -7   0  12    0.27    1.54   1
  -6   0  12  194.31   18.07   1
  -6   0  12  180.71   17.67   2
  -5   0  12   39.51    5.01   2
  -5   0  12   36.67    5.09   1
  -4   0  12   72.10    7.62   1
   4   0 -12   57.24    7.32   1
  -4   0  12   70.78    7.53   2
  -3   0  12    1.86    1.53   1
   3   0 -12    1.61    2.09   1
   2   0 -12    6.42    2.52   1
  -2   0  12    4.56    2.01   1
  -1   0  12   87.86    9.61   1
   1   0 -12   94.62    9.97   1
   0   0 -12   -0.42    1.92   1
  -9   1  12    0.55    1.85   1
  -8   1  12   27.63    4.15   1
  -7   1  12   49.01    5.96   2
  -7   1  12   53.54    6.22   1
  -6   1  12    0.17    1.44   2
  -6   1  12    2.49    1.78   1
  -5   1  12   91.49    9.87   1
  -5   1  12   97.86    9.87   2
  -4   1  12    2.05    1.57   1
  -4   1  12    2.27    1.94   2
  -3   1  12   39.31    5.34   2
  -3   1  12   42.10    5.25   1
  -2   1  12  124.87   12.35   1
   2  -1 -12  119.92   12.53   1
  -1   1  12    3.00    1.68   1
   1  -1 -12    4.51    2.42   1
   0  -1 -12   28.03    4.54   1
  -8   2  12    0.84    1.65   1
  -7   2  12    1.30    1.77   1
  -6   2  12   26.97    3.89   2
  -6   2  12   23.67    3.82   1
  -5   2  12    4.91    2.04   2
  -5   2  12    3.79    1.87   1
  -4   2  12   70.17    8.25   2
  -4   2  12   83.56    8.37   1
  -3   2  12   45.02    5.78   2
  -3   2  12   50.98    6.01   1
  -2   2  12   70.42    7.94   2
  -2   2  12   76.74    8.14   1
  -1   2  12   39.85    5.22   1
  -7   3  12    3.27    1.91   1
  -6   3  12    4.68    1.98   1
  -5   3  12   80.58    8.58   1
  -4   3  12   13.73    2.89   1
  -4   3  12   12.24    2.68   2
  -3   3  12   41.68    5.34   2
  -3   3  12   41.84    5.44   1
  -2   3  12   41.29    5.31   1
  -5   4  12   14.91    2.93   1
  -4   4  12   44.45    5.72   1
  -3   4  12   13.82    2.90   1
  -4   5  12   14.38    2.98   1
   4   2 -13   17.74    3.85   1
   4   1 -13   47.53    6.44   1
   3   1 -13    0.90    2.05   1
  -5   0  13   82.78    9.05   2
   2   0 -13   17.67    3.95   1
   0   0   0    0.00    0.00   0
;
_shelx_hkl_checksum              50421
loop_
_space_group_symop_operation_xyz
'x, y, z'
'-x, y+1/2, -z'
'-x, -y, -z'
'x, -y-1/2, z'
loop_
_atom_site_label
_atom_site_type_symbol
_atom_site_fract_x
_atom_site_fract_y
_atom_site_fract_z
_atom_site_U_iso_or_equiv
_atom_site_adp_type
_atom_site_occupancy
_atom_site_site_symmetry_order
_atom_site_calc_flag
_atom_site_refinement_flags_posn
_atom_site_refinement_flags_adp
_atom_site_refinement_flags_occupancy
Fe1 Fe 0.82462(4) 0.7500 0.28027(3) 0.01744(13) Uani 1 2 d S T P
K1 K 0.56905(7) 0.7500 0.57766(8) 0.03143(17) Uani 1 2 d S T P
Cl1 Cl 0.75063(9) 0.7500 0.00497(7) 0.03735(19) Uani 1 2 d S T P
Cl2 Cl 0.65126(5) 0.98811(6) 0.27623(6) 0.03095(15) Uani 1 1 d . . .
O1W O 0.8934(2) 0.7500 0.5321(2) 0.0243(4) Uani 1 2 d DS T P
O1 O 1.01769(14) 0.92389(15) 0.31926(14) 0.0212(2) Uani 1 1 d . . .
O2 O 1.27975(16) 0.93239(19) 0.33329(18) 0.0319(3) Uani 1 1 d . . .
C1 C 1.15459(19) 0.8530(2) 0.32658(18) 0.0190(3) Uani 1 1 d . . .
C2 C 0.1567(4) 0.7500 0.9524(4) 0.0414(7) Uani 1 2 d S T P
H4 H 0.1254 0.8493 0.8799 0.050 Uiso 0.25 1 calc R U P
H5 H 0.1033 0.7596 1.0274 0.050 Uiso 0.5 2 calc R U P
H6 H 0.1234 0.6411 0.8929 0.050 Uiso 0.25 1 calc R U P
N1 N 0.3355(4) 0.7500 1.0385(3) 0.0569(9) Uani 1 2 d S T P
H1 H 0.3668 0.8525 1.0909 0.068 Uiso 0.25 1 calc R U P
H2 H 0.3850 0.7372 0.9693 0.068 Uiso 0.5 2 calc R U P
H3 H 0.3642 0.6602 1.1082 0.068 Uiso 0.25 1 calc R U P
H1W H 0.951(3) 0.848(4) 0.581(4) 0.060 Uiso 1 1 d D U .
loop_
_atom_site_aniso_label
_atom_site_aniso_U_11
_atom_site_aniso_U_22
_atom_site_aniso_U_33
_atom_site_aniso_U_23
_atom_site_aniso_U_13
_atom_site_aniso_U_12
Fe1 0.01487(19) 0.01509(19) 0.02194(19) 0.000 0.00654(13) 0.000
K1 0.0251(3) 0.0178(3) 0.0505(4) 0.000 0.0134(2) 0.000
Cl1 0.0407(4) 0.0467(4) 0.0219(3) 0.000 0.0089(3) 0.000
Cl2 0.0281(2) 0.0278(2) 0.0394(3) 0.00476(16) 0.01551(19) 0.01174(15)
O1W 0.0346(9) 0.0142(7) 0.0217(7) 0.000 0.0079(7) 0.000
O1 0.0185(5) 0.0135(5) 0.0318(6) -0.0007(4) 0.0097(4) 0.0002(4)
O2 0.0259(6) 0.0242(6) 0.0513(8) -0.0061(6) 0.0211(6) -0.0085(5)
C1 0.0208(7) 0.0158(6) 0.0219(6) -0.0012(5) 0.0100(5) -0.0014(5)
C2 0.0372(15) 0.0479(18) 0.0319(13) 0.000 0.0049(11) 0.000
N1 0.0308(13) 0.105(3) 0.0318(13) 0.000 0.0082(11) 0.000
loop_
_atom_type_symbol
_atom_type_description
_atom_type_scat_dispersion_real
_atom_type_scat_dispersion_imag
_atom_type_scat_source
C C 0.0033 0.0016 'International Tables Vol C Tables 4.2.6.8 and 6.1.1.4'
H H 0.0000 0.0000 'International Tables Vol C Tables 4.2.6.8 and 6.1.1.4'
N N 0.0061 0.0033 'International Tables Vol C Tables 4.2.6.8 and 6.1.1.4'
O O 0.0106 0.0060 'International Tables Vol C Tables 4.2.6.8 and 6.1.1.4'
Cl Cl 0.1484 0.1585 'International Tables Vol C Tables 4.2.6.8 and 6.1.1.4'
K K 0.2009 0.2494 'International Tables Vol C Tables 4.2.6.8 and 6.1.1.4'
Fe Fe 0.3463 0.8444 'International Tables Vol C Tables 4.2.6.8 and 6.1.1.4'
loop_
_geom_angle_atom_site_label_1
_geom_angle_atom_site_label_2
_geom_angle_atom_site_label_3
_geom_angle
_geom_angle_site_symmetry_1
_geom_angle_site_symmetry_3
O1 Fe1 O1 78.99(7) 4_575 .
O1 Fe1 O1W 86.43(5) 4_575 .
O1 Fe1 O1W 86.43(5) . .
O1 Fe1 Cl1 93.36(4) 4_575 .
O1 Fe1 Cl1 93.36(4) . .
O1W Fe1 Cl1 179.73(6) . .
O1 Fe1 Cl2 167.10(4) 4_575 .
O1 Fe1 Cl2 90.01(4) . .
O1W Fe1 Cl2 86.19(4) . .
Cl1 Fe1 Cl2 93.984(19) . .
O1 Fe1 Cl2 90.01(4) 4_575 4_575
O1 Fe1 Cl2 167.10(4) . 4_575
O1W Fe1 Cl2 86.19(4) . 4_575
Cl1 Fe1 Cl2 93.984(19) . 4_575
Cl2 Fe1 Cl2 100.04(3) . 4_575
O2 K1 O2 124.45(7) 3_776 2_746
O2 K1 O2 143.91(5) 3_776 4_475
O2 K1 O2 89.67(4) 2_746 4_475
O2 K1 O2 89.67(4) 3_776 1_455
O2 K1 O2 143.91(5) 2_746 1_455
O2 K1 O2 54.76(6) 4_475 1_455
O2 K1 O1W 70.25(3) 3_776 .
O2 K1 O1W 70.25(3) 2_746 .
O2 K1 O1W 118.30(5) 4_475 .
O2 K1 O1W 118.30(5) 1_455 .
O2 K1 Cl2 133.68(4) 3_776 2_646
O2 K1 Cl2 69.67(4) 2_746 2_646
O2 K1 Cl2 64.55(3) 4_475 2_646
O2 K1 Cl2 96.31(4) 1_455 2_646
O1W K1 Cl2 139.79(2) . 2_646
O2 K1 Cl2 69.67(4) 3_776 3_676
O2 K1 Cl2 133.68(4) 2_746 3_676
O2 K1 Cl2 96.31(4) 4_475 3_676
O2 K1 Cl2 64.55(3) 1_455 3_676
O1W K1 Cl2 139.79(2) . 3_676
Cl2 K1 Cl2 71.84(3) 2_646 3_676
O2 K1 Cl2 117.08(4) 3_776 4_575
O2 K1 Cl2 64.15(4) 2_746 4_575
O2 K1 Cl2 64.06(3) 4_475 4_575
O2 K1 Cl2 91.48(4) 1_455 4_575
O1W K1 Cl2 54.55(3) . 4_575
Cl2 K1 Cl2 108.662(19) 2_646 4_575
Cl2 K1 Cl2 155.62(2) 3_676 4_575
O2 K1 Cl2 64.15(4) 3_776 .
O2 K1 Cl2 117.08(4) 2_746 .
O2 K1 Cl2 91.48(4) 4_475 .
O2 K1 Cl2 64.06(3) 1_455 .
O1W K1 Cl2 54.55(3) . .
Cl2 K1 Cl2 155.62(2) 2_646 .
Cl2 K1 Cl2 108.662(19) 3_676 .
Cl2 K1 Cl2 60.48(3) 4_575 .
O2 K1 Cl1 73.29(4) 3_776 1_556
O2 K1 Cl1 73.29(4) 2_746 1_556
O2 K1 Cl1 134.62(3) 4_475 1_556
O2 K1 Cl1 134.62(3) 1_455 1_556
O1W K1 Cl1 95.44(4) . 1_556
Cl2 K1 Cl1 70.09(2) 2_646 1_556
Cl2 K1 Cl1 70.09(2) 3_676 1_556
Cl2 K1 Cl1 133.82(2) 4_575 1_556
Cl2 K1 Cl1 133.82(2) . 1_556
O2 K1 K1 167.40(4) 3_776 3_666
O2 K1 K1 47.67(4) 2_746 3_666
O2 K1 K1 42.00(3) 4_475 3_666
O2 K1 K1 96.56(4) 1_455 3_666
O1W K1 K1 97.15(2) . 3_666
Cl2 K1 K1 56.621(18) 2_646 3_666
Cl2 K1 K1 122.92(3) 3_676 3_666
Cl2 K1 K1 52.041(17) 4_575 3_666
Cl2 K1 K1 108.89(3) . 3_666
Cl1 K1 K1 109.08(2) 1_556 3_666
O2 K1 K1 47.67(4) 3_776 3_676
O2 K1 K1 167.40(4) 2_746 3_676
O2 K1 K1 96.56(4) 4_475 3_676
O2 K1 K1 42.00(3) 1_455 3_676
O1W K1 K1 97.15(2) . 3_676
Cl2 K1 K1 122.92(3) 2_646 3_676
Cl2 K1 K1 56.621(18) 3_676 3_676
Cl2 K1 K1 108.89(3) 4_575 3_676
Cl2 K1 K1 52.042(17) . 3_676
Cl1 K1 K1 109.08(2) 1_556 3_676
K1 K1 K1 137.52(3) 3_666 3_676
Fe1 Cl1 K1 170.69(3) . 1_554
Fe1 Cl2 K1 155.37(2) . 3_676
Fe1 Cl2 K1 85.49(2) . .
K1 Cl2 K1 71.337(19) 3_676 .
Fe1 O1W K1 104.49(7) . .
C1 O1 Fe1 115.52(10) . .
C1 O2 K1 140.44(12) . 3_776
C1 O2 K1 107.50(11) . 1_655
K1 O2 K1 90.33(4) 3_776 1_655
O2 C1 O1 126.43(15) . .
O2 C1 C1 119.12(10) . 4_575
O1 C1 C1 114.45(9) . 4_575
loop_
_geom_bond_atom_site_label_1
_geom_bond_atom_site_label_2
_geom_bond_distance
_geom_bond_site_symmetry_2
Fe1 O1 2.0527(12) 4_575
Fe1 O1 2.0527(12) .
Fe1 O1W 2.1176(18) .
Fe1 Cl1 2.3168(10) .
Fe1 Cl2 2.3330(6) .
Fe1 Cl2 2.3330(6) 4_575
K1 O2 2.6950(15) 3_776
K1 O2 2.6950(15) 2_746
K1 O2 2.9772(17) 4_475
K1 O2 2.9772(17) 1_455
K1 O1W 3.011(2) .
K1 Cl2 3.3516(9) 2_646
K1 Cl2 3.3516(9) 3_676
K1 Cl2 3.5497(10) 4_575
K1 Cl2 3.5497(10) .
K1 Cl1 3.5671(14) 1_556
K1 K1 4.0273(10) 3_666
K1 K1 4.0273(10) 3_676
Cl1 K1 3.5671(14) 1_554
Cl2 K1 3.3516(9) 3_676
O1 C1 1.2862(19) .
O2 C1 1.225(2) .
O2 K1 2.6950(15) 3_776
O2 K1 2.9772(17) 1_655
C1 C1 1.546(3) 4_575
C2 N1 1.453(4) .
loop_
_refln_index_h
_refln_index_k
_refln_index_l
_refln_F_squared_calc
_refln_F_squared_meas
_refln_F_squared_sigma
_refln_observed_status
1 0 0 24.28 14.32 0.81 o
2 0 0 3751.22 3428.39 239.58 o
3 0 0 243.71 311.40 12.18 o
4 0 0 462.29 476.37 19.16 o
5 0 0 656.00 574.90 33.05 o
6 0 0 1211.49 1071.25 46.30 o
7 0 0 165.54 170.60 8.81 o
8 0 0 56.21 55.09 3.25 o
9 0 0 0.43 -0.07 0.92 o
10 0 0 320.65 310.28 45.03 o
11 0 0 267.01 340.56 45.16 o
1 1 0 2732.76 2689.02 74.48 o
2 1 0 145.01 142.78 3.07 o
3 1 0 60.71 48.50 1.37 o
4 1 0 2878.16 2726.50 74.94 o
5 1 0 176.26 183.48 5.26 o
6 1 0 12.55 15.59 0.78 o
7 1 0 8.39 9.69 0.78 o
8 1 0 6.13 8.20 0.91 o
9 1 0 121.40 114.35 4.76 o
10 1 0 44.31 42.90 2.49 o
11 1 0 108.92 109.08 6.13 o
0 2 0 3056.96 3610.07 105.35 o
1 2 0 576.66 571.02 21.48 o
2 2 0 296.28 277.60 7.78 o
3 2 0 10594.96 10952.72 284.68 o
4 2 0 2.03 11.00 0.73 o
5 2 0 612.70 594.06 17.55 o
6 2 0 278.14 271.77 7.41 o
7 2 0 681.92 670.58 24.17 o
8 2 0 516.34 519.60 23.27 o
9 2 0 171.32 160.68 13.05 o
10 2 0 5.94 5.65 1.02 o
11 2 0 4.91 7.71 1.94 o
1 3 0 6196.90 6482.43 169.17 o
2 3 0 938.29 1028.82 36.09 o
3 3 0 38.15 40.31 1.21 o
4 3 0 1148.66 1078.67 28.26 o
5 3 0 603.80 643.81 16.41 o
6 3 0 86.07 86.44 2.95 o
7 3 0 168.78 165.09 6.00 o
8 3 0 554.63 512.10 17.50 o
9 3 0 63.04 73.88 4.23 o
10 3 0 8.75 8.56 1.22 o
0 4 0 10878.40 12203.95 431.33 o
1 4 0 740.57 845.97 22.32 o
2 4 0 1108.14 1186.31 32.57 o
3 4 0 68.82 79.43 2.33 o
4 4 0 672.33 714.34 20.79 o
5 4 0 254.21 266.49 8.03 o
6 4 0 155.97 166.02 5.94 o
7 4 0 65.50 64.84 3.45 o
8 4 0 164.45 160.67 6.51 o
9 4 0 29.58 28.00 3.21 o
10 4 0 159.62 171.94 8.68 o
11 4 0 129.50 132.61 14.69 o
1 5 0 2224.37 2420.62 61.79 o
2 5 0 136.36 154.16 4.71 o
3 5 0 249.11 269.24 7.64 o
4 5 0 1768.58 1880.52 54.23 o
5 5 0 199.96 205.53 7.23 o
6 5 0 20.53 19.87 1.34 o
7 5 0 44.58 42.96 2.25 o
8 5 0 5.40 5.54 0.95 o
9 5 0 9.54 5.80 1.11 o
10 5 0 61.40 63.23 6.20 o
0 6 0 2202.78 2430.33 106.41 o
1 6 0 347.07 374.91 11.21 o
2 6 0 2.65 5.48 0.57 o
3 6 0 875.67 958.24 31.73 o
4 6 0 417.93 462.69 15.58 o
5 6 0 351.22 369.94 13.83 o
6 6 0 109.69 109.23 4.26 o
7 6 0 646.69 612.20 28.15 o
8 6 0 120.44 112.44 6.09 o
9 6 0 82.76 86.16 6.07 o
1 7 0 586.89 575.27 19.38 o
2 7 0 343.40 336.85 10.81 o
3 7 0 3.01 4.94 0.84 o
4 7 0 772.80 756.27 29.53 o
5 7 0 101.99 102.04 4.43 o
6 7 0 75.21 80.15 3.76 o
7 7 0 48.63 46.33 3.18 o
8 7 0 114.47 116.33 7.28 o
0 8 0 1700.29 1689.19 85.98 o
1 8 0 84.00 82.18 3.60 o
2 8 0 172.19 170.36 7.38 o
3 8 0 240.46 235.84 9.84 o
4 8 0 413.51 420.52 19.23 o
5 8 0 78.39 72.13 4.17 o
6 8 0 106.53 102.75 5.07 o
7 8 0 4.79 3.06 1.38 o
8 8 0 151.77 176.32 18.79 o
1 9 0 650.13 646.78 26.07 o
2 9 0 25.43 31.99 2.10 o
3 9 0 53.88 52.02 3.35 o
4 9 0 86.17 75.35 4.44 o
5 9 0 0.46 1.57 1.22 o
6 9 0 33.77 35.06 3.22 o
0 10 0 442.95 410.04 26.76 o
1 10 0 27.51 27.11 2.21 o
2 10 0 11.66 13.02 1.68 o
3 10 0 509.98 498.59 31.87 o
4 10 0 1.76 2.42 2.66 o
-12 0 1 67.01 72.79 9.47 o
-11 0 1 57.36 71.61 5.14 o
-10 0 1 163.90 203.68 16.59 o
-9 0 1 18.27 17.64 1.95 o
-8 0 1 1319.18 1176.13 81.56 o
-7 0 1 1662.87 1410.49 61.76 o
-6 0 1 1216.30 1028.47 37.62 o
-5 0 1 3501.88 3896.02 150.79 o
-4 0 1 1011.82 844.89 37.09 o
-3 0 1 25.29 19.44 1.00 o
-2 0 1 1023.65 933.62 40.87 o
-1 0 1 1835.14 1941.81 75.59 o
0 0 1 2264.98 1985.84 61.10 o
1 0 1 1566.63 1413.98 53.96 o
2 0 1 2916.53 2851.53 101.53 o
3 0 1 1.96 0.71 0.49 o
4 0 1 8.60 4.43 0.52 o
5 0 1 4284.19 3876.21 237.21 o
6 0 1 536.04 507.33 22.68 o
7 0 1 31.88 30.96 2.88 o
8 0 1 35.43 32.59 2.35 o
9 0 1 3.87 3.88 1.30 o
10 0 1 260.00 290.55 19.49 o
11 0 1 204.22 239.61 23.88 o
-12 1 1 2.25 0.97 3.05 o
-11 1 1 247.91 279.88 15.29 o
-10 1 1 27.99 27.43 1.92 o
-9 1 1 34.16 36.05 1.92 o
-8 1 1 34.52 30.90 1.66 o
-7 1 1 81.70 81.02 3.59 o
-6 1 1 2147.54 1955.16 53.74 o
-5 1 1 1170.65 1155.62 35.68 o
-4 1 1 271.47 287.28 9.97 o
-3 1 1 7001.60 6547.56 311.15 o
-2 1 1 1092.09 1071.08 65.78 o
-1 1 1 1233.90 1070.47 35.47 o
0 1 1 4864.32 5222.44 109.98 o
1 1 1 2320.53 2466.74 57.09 o
2 1 1 1925.16 1731.81 50.12 o
3 1 1 829.56 939.02 25.64 o
4 1 1 488.13 443.13 12.36 o
5 1 1 35.95 36.57 1.27 o
6 1 1 742.04 716.49 21.03 o
7 1 1 180.86 181.13 7.83 o
8 1 1 55.32 56.13 2.57 o
9 1 1 748.58 733.22 26.58 o
10 1 1 9.57 8.72 1.28 o
11 1 1 46.31 45.05 6.07 o
-11 2 1 89.77 90.20 4.69 o
-10 2 1 141.23 132.64 5.16 o
-9 2 1 100.76 113.31 4.43 o
-8 2 1 197.85 184.13 7.64 o
-7 2 1 609.30 600.74 21.67 o
-6 2 1 97.72 92.81 2.74 o
-5 2 1 496.43 496.11 15.36 o
-4 2 1 3587.79 3294.82 105.63 o
-3 2 1 5125.72 4755.89 233.87 o
-2 2 1 16910.17 22539.97 983.37 o
-1 2 1 41.92 48.60 1.81 o
0 2 1 301.63 406.41 9.22 o
1 2 1 100.43 100.09 2.28 o
2 2 1 1142.83 1138.32 29.93 o
3 2 1 12.81 11.01 0.53 o
4 2 1 94.79 87.31 2.99 o
5 2 1 8.31 13.26 0.70 o
6 2 1 18.23 20.82 1.20 o
7 2 1 5.58 6.12 0.78 o
8 2 1 1757.68 1561.80 114.68 o
9 2 1 167.81 195.37 7.43 o
10 2 1 355.49 330.15 12.70 o
11 2 1 37.91 35.24 4.88 o
-11 3 1 29.55 22.24 2.69 o
-10 3 1 4.51 5.52 1.01 o
-9 3 1 12.86 14.25 1.21 o
-8 3 1 673.45 627.10 19.90 o
-7 3 1 580.54 612.28 22.71 o
-6 3 1 922.70 854.47 35.61 o
-5 3 1 223.47 218.49 6.46 o
-4 3 1 16.00 27.56 0.89 o
-3 3 1 8048.79 9422.94 655.50 o
-2 3 1 809.26 861.58 25.13 o
-1 3 1 94.30 146.62 4.14 o
0 3 1 619.87 827.31 19.26 o
1 3 1 1223.03 1302.57 32.67 o
2 3 1 812.26 843.43 22.05 o
3 3 1 182.39 204.20 5.61 o
4 3 1 612.82 589.84 16.45 o
5 3 1 20.72 24.42 1.07 o
6 3 1 56.34 60.74 2.47 o
7 3 1 18.59 22.16 1.56 o
8 3 1 59.13 60.45 2.72 o
9 3 1 372.05 399.99 13.95 o
10 3 1 28.87 32.17 3.86 o
-11 4 1 42.06 39.29 6.75 o
-10 4 1 104.70 106.42 5.20 o
-9 4 1 190.77 215.73 8.54 o
-8 4 1 202.49 199.65 8.58 o
-7 4 1 1055.35 1055.24 37.92 o
-6 4 1 242.06 266.88 9.94 o
-5 4 1 1772.94 1756.11 48.17 o
-4 4 1 538.28 563.46 17.80 o
-3 4 1 153.59 165.83 6.66 o
-2 4 1 1165.68 1293.18 35.42 o
-1 4 1 1847.79 2115.74 55.44 o
0 4 1 50.52 63.37 1.65 o
1 4 1 5282.71 5375.11 140.51 o
2 4 1 202.51 210.09 5.72 o
3 4 1 5.31 6.47 0.46 o
4 4 1 215.40 204.44 7.58 o
5 4 1 2206.04 2127.00 70.22 o
6 4 1 355.71 350.21 11.22 o
7 4 1 461.16 440.47 16.23 o
8 4 1 124.52 118.49 5.02 o
9 4 1 0.59 -0.23 0.80 o
10 4 1 161.08 168.86 10.09 o
-10 5 1 2.82 3.39 1.29 o
-9 5 1 14.89 12.46 1.54 o
-8 5 1 3.06 3.49 0.74 o
-7 5 1 228.70 229.73 8.84 o
-6 5 1 789.63 782.48 32.16 o
-5 5 1 706.85 703.90 20.61 o
-4 5 1 459.71 440.88 12.36 o
-3 5 1 818.69 796.78 24.34 o
-2 5 1 467.72 461.69 12.92 o
-1 5 1 75.32 78.02 2.30 o
0 5 1 1450.80 1577.29 39.74 o
1 5 1 378.62 385.18 9.50 o
2 5 1 323.96 350.36 9.90 o
3 5 1 992.70 981.42 25.99 o
4 5 1 294.92 312.57 10.04 o
5 5 1 6.64 7.09 0.72 o
6 5 1 216.01 232.77 8.83 o
7 5 1 3.35 3.39 0.85 o
8 5 1 0.30 -0.13 0.70 o
9 5 1 283.85 263.92 11.39 o
-9 6 1 49.20 39.28 2.74 o
-8 6 1 18.33 25.91 3.01 o
-7 6 1 313.49 304.68 12.64 o
-6 6 1 20.23 21.90 1.60 o
-5 6 1 14.55 13.87 1.35 o
-4 6 1 1437.28 1418.78 43.95 o
-3 6 1 253.01 265.66 8.00 o
-2 6 1 4130.65 4521.24 130.57 o
-1 6 1 33.70 38.70 1.50 o
0 6 1 131.49 152.01 4.52 o
1 6 1 1.09 1.56 0.38 o
2 6 1 637.95 673.48 21.15 o
3 6 1 51.87 56.49 2.11 o
4 6 1 822.02 734.14 25.71 o
5 6 1 172.61 180.35 6.58 o
6 6 1 21.45 23.69 1.51 o
7 6 1 20.78 17.02 1.57 o
8 6 1 419.13 437.91 20.37 o
9 6 1 115.58 140.84 11.92 o
-9 7 1 5.57 4.67 1.92 o
-8 7 1 199.17 229.42 11.28 o
-7 7 1 0.06 0.13 0.74 o
-6 7 1 416.05 381.41 14.61 o
-5 7 1 51.59 51.69 2.95 o
-4 7 1 311.25 296.13 10.96 o
-3 7 1 1422.74 1441.47 53.31 o
-2 7 1 123.98 124.53 4.30 o
-1 7 1 224.97 260.39 9.77 o
0 7 1 7.03 10.56 0.86 o
1 7 1 588.97 616.96 20.79 o
2 7 1 90.94 92.29 3.35 o
3 7 1 12.79 17.87 1.12 o
4 7 1 36.80 37.97 2.08 o
5 7 1 25.24 24.47 1.63 o
6 7 1 46.99 47.71 2.87 o
7 7 1 73.90 74.06 5.13 o
8 7 1 51.52 62.29 6.39 o
-8 8 1 59.02 57.25 5.16 o
-7 8 1 354.79 354.86 16.63 o
-6 8 1 70.03 79.92 4.18 o
-5 8 1 176.08 180.59 7.89 o
-4 8 1 79.39 79.38 5.20 o
-3 8 1 223.85 227.11 9.54 o
-2 8 1 129.79 123.56 5.53 o
-1 8 1 326.61 319.24 11.06 o
0 8 1 55.92 60.19 2.62 o
1 8 1 1024.77 1018.56 34.06 o
2 8 1 40.98 43.41 2.45 o
3 8 1 0.34 1.24 0.69 o
4 8 1 227.53 237.20 10.09 o
5 8 1 334.60 336.04 15.68 o
6 8 1 80.38 81.10 4.82 o
7 8 1 145.48 155.55 11.90 o
-6 9 1 298.30 266.56 14.62 o
-5 9 1 29.40 27.81 2.36 o
-4 9 1 107.47 104.09 5.64 o
-3 9 1 583.85 579.49 26.18 o
-2 9 1 127.85 130.41 5.91 o
-1 9 1 10.56 10.21 1.21 o
0 9 1 150.97 150.10 6.07 o
1 9 1 49.73 45.83 2.65 o
2 9 1 315.54 302.03 12.62 o
3 9 1 0.58 1.95 0.79 o
4 9 1 373.15 365.80 17.06 o
5 9 1 72.71 69.29 4.94 o
-4 10 1 210.37 202.71 13.90 o
-3 10 1 135.89 128.55 7.75 o
-2 10 1 380.84 346.66 16.19 o
-1 10 1 13.49 14.62 1.49 o
0 10 1 67.79 64.29 3.81 o
1 10 1 1.08 0.73 0.84 o
2 10 1 78.14 75.55 4.44 o
3 10 1 2.08 0.25 2.60 o
4 10 1 28.46 19.32 4.60 o
-12 0 2 65.93 60.76 8.58 o
-11 0 2 364.71 345.37 55.29 o
-10 0 2 9.41 6.50 1.47 o
-9 0 2 166.00 183.76 18.39 o
-8 0 2 148.17 131.43 8.05 o
-7 0 2 403.41 412.98 18.36 o
-6 0 2 2229.59 1862.52 72.42 o
-5 0 2 4112.14 3109.85 154.10 o
-4 0 2 1251.52 989.83 40.24 o
-3 0 2 1541.32 1920.13 84.55 o
-2 0 2 97.31 77.64 3.25 o
-1 0 2 1527.13 1393.57 54.01 o
0 0 2 3237.90 3390.85 132.89 o
1 0 2 47.08 75.41 2.99 o
2 0 2 583.76 637.28 27.81 o
3 0 2 2.37 2.82 0.47 o
4 0 2 401.35 353.36 20.02 o
5 0 2 86.29 91.92 4.07 o
6 0 2 4735.95 3433.19 212.52 o
7 0 2 20.43 18.78 1.81 o
8 0 2 465.07 458.85 20.88 o
9 0 2 99.42 96.73 6.28 o
10 0 2 108.50 116.84 7.48 o
-12 1 2 13.82 12.70 2.81 o
-11 1 2 20.30 23.28 2.03 o
-10 1 2 281.44 305.31 14.18 o
-9 1 2 618.64 609.31 20.92 o
-8 1 2 64.04 64.85 3.48 o
-7 1 2 1100.47 1060.63 38.26 o
-6 1 2 2222.20 2198.63 64.01 o
-5 1 2 2302.89 2094.27 60.69 o
-4 1 2 281.69 212.36 7.56 o
-3 1 2 257.80 226.24 22.16 o
-2 1 2 77.25 90.45 3.04 o
-1 1 2 1937.67 2065.88 57.37 o
0 1 2 185.28 212.55 7.79 o
1 1 2 1469.50 1600.95 46.49 o
2 1 2 1825.71 1691.43 48.90 o
3 1 2 57.37 70.41 2.08 o
4 1 2 405.85 276.90 30.70 o
5 1 2 1924.78 1818.64 52.81 o
6 1 2 61.78 65.19 2.82 o
7 1 2 613.55 597.67 21.87 o
8 1 2 0.87 0.80 0.66 o
9 1 2 19.66 23.08 1.66 o
10 1 2 182.68 184.76 9.34 o
-11 2 2 31.83 31.45 2.36 o
-10 2 2 739.23 715.81 39.55 o
-9 2 2 790.63 737.09 33.99 o
-8 2 2 1104.69 941.39 53.14 o
-7 2 2 19.74 26.02 1.38 o
-6 2 2 143.68 147.07 5.76 o
-5 2 2 469.96 428.03 36.01 o
-4 2 2 52.98 73.56 3.10 o
-3 2 2 1765.23 1860.94 153.50 o
-2 2 2 423.27 413.91 17.55 o
-1 2 2 2029.44 2147.93 49.99 o
0 2 2 6981.48 8337.81 200.81 o
1 2 2 1403.97 1468.75 36.80 o
2 2 2 690.16 622.29 16.39 o
3 2 2 7822.69 7511.98 228.05 o
4 2 2 74.71 73.00 2.47 o
5 2 2 217.93 199.91 6.59 o
6 2 2 356.63 407.82 12.95 o
7 2 2 193.27 185.31 7.31 o
8 2 2 92.18 89.33 5.39 o
9 2 2 441.89 458.59 15.93 o
10 2 2 13.12 18.30 2.12 o
-11 3 2 6.89 8.08 1.35 o
-10 3 2 138.61 160.72 9.70 o
-9 3 2 290.52 315.23 12.49 o
-8 3 2 269.19 271.35 10.25 o
-7 3 2 316.04 349.91 15.77 o
-6 3 2 484.56 527.11 23.49 o
-5 3 2 724.12 646.55 17.08 o
-4 3 2 704.18 688.04 31.51 o
-3 3 2 1624.99 2042.11 97.00 o
-2 3 2 392.66 394.78 13.23 o
-1 3 2 646.33 686.79 19.44 o
0 3 2 2012.17 2308.39 57.61 o
1 3 2 3.55 1.10 0.21 o
2 3 2 2476.27 2498.97 62.39 o
3 3 2 178.60 190.02 5.48 o
4 3 2 6.17 8.12 0.66 o
5 3 2 617.56 581.96 19.59 o
6 3 2 29.31 29.48 1.59 o
7 3 2 1555.03 1474.62 58.04 o
8 3 2 270.26 275.34 11.55 o
9 3 2 1.48 1.42 0.87 o
10 3 2 102.78 95.24 9.94 o
-11 4 2 152.47 164.38 12.40 o
-10 4 2 13.74 14.41 2.06 o
-9 4 2 180.47 161.17 7.68 o
-8 4 2 135.71 124.20 5.13 o
-7 4 2 1318.97 1279.59 50.34 o
-6 4 2 1134.08 971.61 28.30 o
-5 4 2 1500.36 1420.95 50.64 o
-4 4 2 1503.16 1505.94 59.31 o
-3 4 2 361.97 340.93 14.48 o
-2 4 2 1010.13 1047.32 30.30 o
-1 4 2 455.84 508.86 13.49 o
0 4 2 123.59 125.49 3.36 o
1 4 2 131.73 135.14 3.35 o
2 4 2 37.11 39.62 1.28 o
3 4 2 54.80 70.11 2.16 o
4 4 2 257.85 261.93 8.40 o
5 4 2 120.92 125.51 5.60 o
6 4 2 1896.91 1649.90 65.20 o
7 4 2 40.03 42.92 2.32 o
8 4 2 79.58 74.36 3.54 o
9 4 2 1.79 1.93 0.98 o
10 4 2 73.73 67.38 9.43 o
-11 5 2 9.03 8.85 4.19 o
-10 5 2 174.59 176.85 9.68 o
-9 5 2 92.88 96.86 5.92 o
-8 5 2 57.79 62.74 3.71 o
-7 5 2 288.29 310.08 14.81 o
-6 5 2 911.02 858.48 32.29 o
-5 5 2 1801.79 1715.16 61.25 o
-4 5 2 54.82 59.82 2.75 o
-3 5 2 155.07 140.65 4.71 o
-2 5 2 10.67 7.37 0.48 o
-1 5 2 810.73 891.00 22.48 o
0 5 2 20.96 23.35 0.84 o
1 5 2 11.01 15.44 0.72 o
2 5 2 730.78 741.29 21.75 o
3 5 2 25.41 26.38 1.50 o
4 5 2 571.00 561.13 20.43 o
5 5 2 1443.36 1385.20 46.01 o
6 5 2 3.08 3.65 0.73 o
7 5 2 509.24 519.23 21.23 o
8 5 2 1.10 1.12 0.89 o
9 5 2 31.80 27.25 2.96 o
-10 6 2 520.18 552.54 25.35 o
-9 6 2 322.00 305.73 16.67 o
-8 6 2 104.63 108.27 5.77 o
-7 6 2 69.59 56.15 3.82 o
-6 6 2 59.19 60.72 3.14 o
-5 6 2 853.56 834.17 29.90 o
-4 6 2 508.49 490.27 16.46 o
-3 6 2 154.55 155.40 5.95 o
-2 6 2 425.39 415.85 13.08 o
-1 6 2 1273.42 1388.46 43.01 o
0 6 2 226.20 228.41 6.62 o
1 6 2 316.66 327.74 9.90 o
2 6 2 519.69 544.43 16.14 o
3 6 2 940.14 955.22 32.32 o
4 6 2 8.15 8.95 0.92 o
5 6 2 1.15 1.81 0.65 o
6 6 2 200.08 207.10 9.08 o
7 6 2 94.13 93.51 6.02 o
8 6 2 43.09 37.97 2.68 o
-9 7 2 238.47 203.08 11.29 o
-8 7 2 103.76 101.25 5.57 o
-7 7 2 194.23 181.10 9.00 o
-6 7 2 167.13 177.06 7.87 o
-5 7 2 143.97 147.85 7.38 o
-4 7 2 117.98 127.91 5.75 o
-3 7 2 228.93 251.48 10.43 o
-2 7 2 296.11 299.72 10.34 o
-1 7 2 180.28 188.39 6.66 o
0 7 2 43.52 36.66 1.74 o
1 7 2 173.31 189.11 6.74 o
2 7 2 910.28 952.42 31.82 o
3 7 2 27.93 29.73 1.66 o
4 7 2 204.14 211.78 8.97 o
5 7 2 132.85 128.32 5.86 o
6 7 2 87.43 83.89 4.28 o
7 7 2 281.36 295.96 16.26 o
8 7 2 80.38 72.93 10.17 o
-8 8 2 91.53 98.09 14.26 o
-7 8 2 313.05 325.89 16.47 o
-6 8 2 391.23 424.16 18.15 o
-5 8 2 151.08 148.91 7.52 o
-4 8 2 699.57 675.16 27.10 o
-3 8 2 43.96 47.41 2.98 o
-2 8 2 254.42 253.09 10.55 o
-1 8 2 38.47 34.24 1.87 o
0 8 2 48.60 55.16 2.64 o
1 8 2 52.31 46.27 2.18 o
2 8 2 88.81 92.76 4.03 o
3 8 2 194.22 209.65 9.06 o
4 8 2 36.21 37.98 2.67 o
5 8 2 3.00 1.84 1.26 o
6 8 2 711.63 731.84 37.80 o
-6 9 2 492.13 512.26 26.76 o
-5 9 2 234.20 213.45 10.44 o
-4 9 2 90.39 93.51 5.15 o
-3 9 2 99.11 99.50 5.37 o
-2 9 2 59.03 59.84 3.61 o
-1 9 2 214.19 198.29 8.56 o
0 9 2 16.27 14.00 1.25 o
1 9 2 17.16 15.81 1.50 o
2 9 2 144.33 147.55 7.44 o
3 9 2 41.11 44.98 4.19 o
4 9 2 24.02 23.79 2.97 o
5 9 2 202.40 176.07 12.77 o
-4 10 2 0.42 0.10 1.16 o
-3 10 2 74.05 65.41 4.63 o
-2 10 2 131.60 131.84 6.88 o
-1 10 2 238.49 219.94 10.67 o
0 10 2 7.27 5.50 1.37 o
1 10 2 25.44 19.69 2.74 o
2 10 2 1.46 0.76 1.32 o
3 10 2 377.95 352.05 33.26 o
-12 0 3 728.80 730.88 66.10 o
-11 0 3 59.90 61.71 5.68 o
-10 0 3 268.70 302.33 20.27 o
-9 0 3 221.02 262.95 24.58 o
-8 0 3 21.80 21.22 1.51 o
-7 0 3 1303.82 1285.53 56.19 o
-6 0 3 1874.25 1264.61 64.24 o
-5 0 3 331.32 336.10 14.16 o
-4 0 3 2.55 5.86 0.52 o
-3 0 3 3323.53 3359.73 166.38 o
-2 0 3 9444.20 10882.99 603.23 o
-1 0 3 8987.49 10442.91 454.90 o
0 0 3 15197.64 14906.50 752.02 o
1 0 3 2798.31 2588.95 129.10 o
2 0 3 270.90 226.24 10.25 o
3 0 3 122.88 135.52 10.14 o
4 0 3 739.10 760.75 29.89 o
5 0 3 1272.53 1150.94 50.35 o
6 0 3 173.93 177.14 8.57 o
7 0 3 145.01 140.68 8.58 o
8 0 3 73.08 76.53 4.46 o
9 0 3 5.12 8.72 1.81 o
10 0 3 23.44 30.49 5.55 o
-12 1 3 43.97 36.66 5.92 o
-11 1 3 236.46 231.53 10.09 o
-10 1 3 41.43 44.51 2.50 o
-9 1 3 29.22 33.06 2.16 o
-8 1 3 356.93 372.66 12.69 o
-7 1 3 359.44 277.73 16.19 o
-6 1 3 18.85 23.11 1.19 o
-5 1 3 506.64 462.05 15.99 o
-4 1 3 11.60 11.03 0.61 o
-3 1 3 169.82 141.99 4.32 o
-2 1 3 5.64 10.59 0.84 o
-1 1 3 3.83 0.83 0.21 o
0 1 3 4823.70 4571.41 239.68 o
1 1 3 231.31 219.65 7.49 o
2 1 3 23.20 23.69 1.62 o
3 1 3 3339.27 3152.92 96.41 o
4 1 3 865.84 834.21 25.96 o
5 1 3 658.95 628.70 18.58 o
6 1 3 263.18 248.98 8.76 o
7 1 3 95.85 94.61 4.85 o
8 1 3 205.02 216.16 8.41 o
9 1 3 37.58 40.66 2.54 o
10 1 3 57.76 71.27 5.38 o
-12 2 3 109.09 125.17 9.81 o
-11 2 3 2.72 1.68 0.97 o
-10 2 3 35.08 40.09 2.30 o
-9 2 3 1355.34 1278.58 63.40 o
-8 2 3 338.78 301.30 15.91 o
-7 2 3 222.29 252.75 14.84 o
-6 2 3 172.72 155.93 5.28 o
-5 2 3 1489.97 1494.49 45.66 o
-4 2 3 2238.70 2065.15 96.03 o
-3 2 3 1274.59 1161.78 68.01 o
-2 2 3 40.32 29.87 4.06 o
-1 2 3 379.53 353.32 9.01 o
0 2 3 0.89 0.97 0.35 o
1 2 3 6.09 12.12 0.59 o
2 2 3 3503.82 3496.38 91.21 o
3 2 3 2000.67 1950.91 56.51 o
4 2 3 2140.20 2101.22 74.15 o
5 2 3 13.80 16.96 0.99 o
6 2 3 51.89 54.88 3.09 o
7 2 3 40.76 39.71 2.38 o
8 2 3 399.37 409.33 14.26 o
9 2 3 25.43 25.44 2.10 o
10 2 3 1.32 -0.62 2.72 o
-11 3 3 28.78 31.64 2.30 o
-10 3 3 67.65 66.48 3.99 o
-9 3 3 112.50 109.78 4.66 o
-8 3 3 2114.60 2167.40 94.07 o
-7 3 3 98.66 114.03 3.99 o
-6 3 3 0.68 2.04 0.41 o
-5 3 3 4.47 5.98 0.50 o
-4 3 3 41.66 46.49 2.48 o
-3 3 3 182.64 185.01 13.25 o
-2 3 3 334.53 348.68 12.96 o
-1 3 3 1480.89 1596.17 43.89 o
0 3 3 1486.60 1468.22 36.97 o
1 3 3 1345.53 1413.48 38.26 o
2 3 3 80.00 100.18 2.92 o
3 3 3 3880.44 3792.33 94.74 o
4 3 3 200.13 201.66 6.21 o
5 3 3 551.33 556.14 17.53 o
6 3 3 28.85 29.61 1.66 o
7 3 3 337.47 328.04 12.37 o
8 3 3 20.67 21.63 1.72 o
9 3 3 4.70 3.38 1.04 o
10 3 3 14.42 15.84 3.14 o
-11 4 3 85.33 88.56 5.95 o
-10 4 3 93.62 93.82 6.00 o
-9 4 3 21.53 24.47 1.71 o
-8 4 3 42.72 45.39 4.72 o
-7 4 3 79.00 87.39 3.43 o
-6 4 3 301.40 327.43 12.11 o
-5 4 3 250.07 234.46 13.97 o
-4 4 3 333.17 332.61 13.16 o
-3 4 3 609.09 590.18 18.28 o
-2 4 3 2281.52 2541.63 83.04 o
-1 4 3 1555.74 1527.68 53.12 o
0 4 3 752.00 677.06 20.18 o
1 4 3 3171.28 3284.78 85.28 o
2 4 3 224.82 207.90 6.32 o
3 4 3 274.62 271.34 7.83 o
4 4 3 214.59 236.12 7.80 o
5 4 3 572.90 521.42 17.68 o
6 4 3 1.08 1.63 0.64 o
7 4 3 600.22 574.95 21.31 o
8 4 3 0.90 1.04 0.80 o
9 4 3 0.75 1.48 2.02 o
-11 5 3 434.73 422.17 39.90 o
-10 5 3 19.31 20.98 2.77 o
-9 5 3 39.42 40.54 2.93 o
-8 5 3 170.51 181.41 8.88 o
-7 5 3 4.47 6.81 0.90 o
-6 5 3 0.35 0.19 0.75 o
-5 5 3 1279.80 1450.30 56.18 o
-4 5 3 30.37 34.84 3.01 o
-3 5 3 65.62 75.85 3.17 o
-2 5 3 155.76 162.01 4.99 o
-1 5 3 424.91 442.37 15.80 o
0 5 3 2202.42 2238.18 61.60 o
1 5 3 132.46 139.88 5.00 o
2 5 3 76.54 81.17 2.95 o
3 5 3 557.26 544.05 17.15 o
4 5 3 900.35 876.47 31.61 o
5 5 3 49.97 52.13 2.47 o
6 5 3 163.37 157.72 5.91 o
7 5 3 56.86 51.05 2.73 o
8 5 3 46.75 51.03 3.69 o
-10 6 3 0.34 1.31 0.98 o
-9 6 3 661.82 687.22 32.83 o
-8 6 3 260.34 281.37 13.32 o
-7 6 3 274.80 263.55 12.89 o
-6 6 3 73.98 73.33 4.34 o
-5 6 3 440.48 419.57 19.20 o
-4 6 3 117.39 126.91 4.78 o
-3 6 3 12.37 10.31 0.74 o
-2 6 3 101.05 96.22 3.78 o
-1 6 3 468.28 477.07 16.04 o
0 6 3 297.18 311.39 11.51 o
1 6 3 23.89 25.46 1.30 o
2 6 3 720.08 654.62 45.38 o
3 6 3 87.19 85.93 3.49 o
4 6 3 2202.02 2266.02 75.13 o
5 6 3 2.22 2.39 0.72 o
6 6 3 34.15 35.09 2.17 o
7 6 3 5.41 5.68 1.23 o
8 6 3 123.80 137.94 15.70 o
-9 7 3 1.36 2.49 1.66 o
-8 7 3 591.47 643.43 41.47 o
-7 7 3 152.09 155.56 9.52 o
-6 7 3 0.19 0.11 0.91 o
-5 7 3 72.47 83.65 4.08 o
-4 7 3 90.25 83.67 5.33 o
-3 7 3 127.99 128.25 5.69 o
-2 7 3 69.88 65.34 2.92 o
-1 7 3 32.27 32.94 2.33 o
0 7 3 364.11 389.41 14.35 o
1 7 3 218.19 220.57 8.43 o
2 7 3 79.41 66.74 4.63 o
3 7 3 1158.50 1152.19 41.54 o
4 7 3 85.55 86.95 4.31 o
5 7 3 105.01 105.57 5.13 o
6 7 3 4.36 5.46 1.21 o
7 7 3 193.69 182.04 14.49 o
-8 8 3 28.75 28.39 4.13 o
-7 8 3 44.88 38.10 4.64 o
-6 8 3 158.06 159.76 7.22 o
-5 8 3 14.97 14.81 1.42 o
-4 8 3 363.45 360.28 14.88 o
-3 8 3 1.67 1.77 0.80 o
-2 8 3 374.80 372.88 17.10 o
-1 8 3 412.05 395.55 16.13 o
0 8 3 87.63 87.80 4.23 o
1 8 3 606.53 605.56 24.29 o
2 8 3 66.91 63.63 3.38 o
3 8 3 257.03 250.95 11.94 o
4 8 3 4.44 5.06 1.19 o
5 8 3 119.43 114.01 6.17 o
6 8 3 31.86 35.87 6.11 o
-6 9 3 4.39 1.56 2.08 o
-5 9 3 77.63 74.98 4.35 o
-4 9 3 176.48 165.37 8.28 o
-3 9 3 7.18 5.89 1.20 o
-2 9 3 1.70 1.69 0.92 o
-1 9 3 224.20 218.84 10.58 o
0 9 3 629.88 636.12 28.65 o
1 9 3 9.25 9.87 1.46 o
2 9 3 23.53 27.78 2.35 o
3 9 3 173.99 169.94 8.53 o
4 9 3 106.46 106.46 6.83 o
-4 10 3 214.13 207.99 14.17 o
-3 10 3 28.93 29.44 6.47 o
-2 10 3 0.25 1.87 1.52 o
-1 10 3 112.28 95.94 7.38 o
0 10 3 39.09 38.15 5.96 o
1 10 3 0.27 1.18 1.92 o
2 10 3 182.80 166.71 17.18 o
3 10 3 205.90 216.64 21.73 o
-12 0 4 0.40 0.52 2.66 o
-11 0 4 828.60 857.87 69.38 o
-10 0 4 127.35 154.46 14.21 o
-9 0 4 121.27 119.20 8.59 o
-8 0 4 363.91 376.69 16.84 o
-7 0 4 1431.81 1264.68 63.21 o
-6 0 4 360.92 350.02 11.86 o
-5 0 4 1089.37 1000.18 35.31 o
-4 0 4 226.11 219.65 14.23 o
-3 0 4 845.84 891.84 44.29 o
-2 0 4 1322.49 1128.53 43.77 o
-1 0 4 893.60 927.30 36.57 o
0 0 4 3919.08 2780.87 323.18 o
1 0 4 862.03 804.06 44.20 o
2 0 4 1793.41 1751.95 76.65 o
3 0 4 288.50 257.71 13.40 o
4 0 4 1310.10 1148.60 45.13 o
5 0 4 61.77 47.60 4.35 o
6 0 4 378.67 374.45 17.16 o
7 0 4 51.81 51.26 5.97 o
8 0 4 23.99 25.21 2.32 o
9 0 4 50.30 48.85 7.79 o
-12 1 4 171.87 190.51 32.20 o
-11 1 4 31.46 29.39 2.26 o
-10 1 4 312.39 331.13 15.34 o
-9 1 4 1.01 1.19 0.77 o
-8 1 4 59.56 50.13 4.09 o
-7 1 4 472.02 477.32 14.20 o
-6 1 4 242.82 234.69 15.73 o
-5 1 4 164.92 162.06 6.60 o
-4 1 4 469.45 490.59 18.33 o
-3 1 4 1774.90 1887.42 54.97 o
-2 1 4 907.78 973.18 28.41 o
-1 1 4 2666.99 2602.00 85.95 o
0 1 4 5504.27 5406.64 166.00 o
1 1 4 1361.23 1227.14 37.78 o
2 1 4 863.21 979.82 34.16 o
3 1 4 17.23 16.86 0.91 o
4 1 4 16.79 14.85 0.91 o
5 1 4 263.58 259.21 9.12 o
6 1 4 6.71 6.81 0.82 o
7 1 4 62.94 64.55 2.73 o
8 1 4 179.20 180.93 12.15 o
9 1 4 15.33 16.42 2.13 o
-12 2 4 13.04 15.91 2.34 o
-11 2 4 15.17 14.18 1.78 o
-10 2 4 170.98 169.54 6.77 o
-9 2 4 21.15 19.42 1.67 o
-8 2 4 981.50 1123.72 44.11 o
-7 2 4 66.98 77.46 4.40 o
-6 2 4 40.53 33.47 1.80 o
-5 2 4 447.94 495.73 14.56 o
-4 2 4 4561.54 4103.93 129.89 o
-3 2 4 2386.93 1906.34 98.92 o
-2 2 4 4326.00 4505.63 130.24 o
-1 2 4 179.62 192.60 5.53 o
0 2 4 504.59 469.67 30.82 o
1 2 4 2807.36 2905.27 88.59 o
2 2 4 9.44 10.22 0.65 o
3 2 4 719.76 673.50 19.78 o
4 2 4 121.01 112.74 3.77 o
5 2 4 356.77 365.71 12.53 o
6 2 4 87.98 91.60 4.79 o
7 2 4 176.49 178.16 6.64 o
8 2 4 169.22 156.42 9.02 o
9 2 4 306.43 272.03 17.44 o
-12 3 4 70.82 63.18 8.69 o
-11 3 4 3.22 5.10 1.28 o
-10 3 4 102.01 100.11 5.26 o
-9 3 4 1.55 1.83 0.70 o
-8 3 4 416.16 485.90 23.30 o
-7 3 4 11.46 16.66 1.45 o
-6 3 4 0.91 1.09 0.33 o
-5 3 4 76.67 61.22 4.28 o
-4 3 4 1621.04 1623.75 101.22 o
-3 3 4 3246.81 2984.10 142.95 o
-2 3 4 900.07 889.99 29.82 o
-1 3 4 18.53 16.92 0.89 o
0 3 4 176.79 167.70 6.65 o
1 3 4 1017.11 1030.90 27.24 o
2 3 4 1077.68 1105.69 30.57 o
3 3 4 121.79 133.90 4.32 o
4 3 4 0.29 0.28 0.46 o
5 3 4 52.86 50.49 2.08 o
6 3 4 27.59 25.67 2.14 o
7 3 4 1.87 1.57 0.84 o
8 3 4 247.06 289.21 11.32 o
9 3 4 2.66 1.33 2.04 o
-11 4 4 554.45 564.65 29.61 o
-10 4 4 91.63 94.41 5.87 o
-9 4 4 7.34 8.09 1.00 o
-8 4 4 13.11 14.03 1.69 o
-7 4 4 994.28 1016.42 71.99 o
-6 4 4 552.99 533.17 29.18 o
-5 4 4 500.06 530.05 22.88 o
-4 4 4 81.94 100.62 3.66 o
-3 4 4 335.04 327.98 11.97 o
-2 4 4 1422.04 1315.30 52.60 o
-1 4 4 1452.38 1528.78 44.26 o
0 4 4 3052.43 2982.68 78.02 o
1 4 4 2258.36 2181.97 67.32 o
2 4 4 687.51 713.12 23.98 o
3 4 4 152.26 147.20 6.54 o
4 4 4 600.69 571.68 19.51 o
5 4 4 77.67 75.03 3.18 o
6 4 4 257.43 257.36 9.96 o
7 4 4 26.23 27.11 1.97 o
8 4 4 23.41 22.65 1.90 o
-11 5 4 111.18 109.99 13.02 o
-10 5 4 143.91 153.59 10.98 o
-9 5 4 31.05 37.95 3.32 o
-8 5 4 53.05 52.29 3.32 o
-7 5 4 90.65 109.36 5.13 o
-6 5 4 89.44 96.33 6.17 o
-5 5 4 44.69 41.08 2.08 o
-4 5 4 2.02 2.61 0.39 o
-3 5 4 146.58 139.07 4.35 o
-2 5 4 105.10 123.94 4.19 o
-1 5 4 688.75 700.65 29.75 o
0 5 4 1631.48 1674.94 51.92 o
1 5 4 945.02 956.95 40.30 o
2 5 4 74.48 79.25 2.86 o
3 5 4 103.88 105.95 4.17 o
4 5 4 17.87 17.67 1.31 o
5 5 4 221.45 227.80 8.22 o
6 5 4 37.08 37.77 2.27 o
7 5 4 7.04 6.47 1.15 o
8 5 4 39.09 44.11 4.25 o
-10 6 4 88.66 80.51 4.81 o
-9 6 4 0.51 1.74 1.00 o
-8 6 4 158.28 173.29 8.67 o
-7 6 4 7.14 6.13 1.66 o
-6 6 4 50.70 51.84 3.44 o
-5 6 4 59.24 52.75 4.04 o
-4 6 4 1907.30 1875.23 73.23 o
-3 6 4 1562.86 1555.75 61.05 o
-2 6 4 1165.29 1153.03 41.35 o
-1 6 4 129.67 143.13 5.80 o
0 6 4 39.04 39.98 2.05 o
1 6 4 705.94 729.88 27.57 o
2 6 4 47.07 44.84 2.36 o
3 6 4 310.74 303.53 11.47 o
4 6 4 514.96 478.28 24.50 o
5 6 4 25.85 25.40 1.83 o
6 6 4 27.61 32.43 2.67 o
7 6 4 33.50 35.52 3.87 o
-9 7 4 21.66 16.74 2.82 o
-8 7 4 59.56 62.49 5.03 o
-7 7 4 241.01 220.74 12.75 o
-6 7 4 3.30 2.31 1.18 o
-5 7 4 102.06 99.46 5.96 o
-4 7 4 79.43 79.21 3.93 o
-3 7 4 717.47 715.78 28.57 o
-2 7 4 527.16 532.03 19.46 o
-1 7 4 136.32 142.21 6.26 o
0 7 4 310.16 312.65 14.04 o
1 7 4 67.44 68.99 3.51 o
2 7 4 266.97 278.18 11.63 o
3 7 4 2.04 3.16 0.96 o
4 7 4 34.59 34.67 2.33 o
5 7 4 31.99 26.66 2.18 o
6 7 4 1.92 0.71 1.34 o
7 7 4 7.89 8.48 4.25 o
-8 8 4 22.82 23.61 4.09 o
-7 8 4 246.78 237.35 13.81 o
-6 8 4 146.19 152.55 9.96 o
-5 8 4 5.28 5.42 0.99 o
-4 8 4 7.18 6.25 1.04 o
-3 8 4 36.90 32.84 2.42 o
-2 8 4 151.32 144.78 7.26 o
-1 8 4 307.13 298.22 12.41 o
0 8 4 522.09 506.77 20.51 o
1 8 4 609.00 593.29 23.91 o
2 8 4 281.00 298.85 12.59 o
3 8 4 21.68 24.87 2.25 o
4 8 4 58.40 61.04 4.99 o
5 8 4 0.14 1.00 1.31 o
-6 9 4 79.60 74.28 6.85 o
-5 9 4 21.87 21.81 2.33 o
-4 9 4 326.87 289.81 13.64 o
-3 9 4 253.60 244.38 11.72 o
-2 9 4 2.63 1.79 0.99 o
-1 9 4 71.39 70.37 4.21 o
0 9 4 261.31 252.62 12.08 o
1 9 4 329.08 316.47 13.27 o
2 9 4 89.77 84.35 4.89 o
3 9 4 108.39 103.66 8.23 o
-4 10 4 216.10 188.73 19.63 o
-3 10 4 235.43 245.00 24.35 o
-2 10 4 79.69 61.59 8.58 o
-1 10 4 26.17 31.90 5.76 o
2 10 4 0.09 0.54 2.52 o
-13 0 5 2.86 2.25 2.79 o
-12 0 5 176.02 174.22 22.34 o
-11 0 5 116.76 123.45 9.37 o
-10 0 5 333.47 313.68 20.64 o
-9 0 5 13.60 19.77 2.69 o
-8 0 5 34.00 34.02 3.73 o
-7 0 5 160.76 180.69 11.61 o
-6 0 5 5280.02 5034.07 192.93 o
-5 0 5 411.98 373.94 19.75 o
-4 0 5 683.57 611.77 38.02 o
-3 0 5 208.17 212.06 13.06 o
-2 0 5 4.62 3.32 0.57 o
-1 0 5 4933.72 5851.20 293.88 o
0 0 5 1662.35 1536.68 93.79 o
1 0 5 202.01 219.00 10.10 o
2 0 5 186.90 198.70 14.26 o
3 0 5 173.41 155.70 9.83 o
4 0 5 376.88 406.56 21.11 o
5 0 5 650.62 637.19 28.47 o
6 0 5 571.65 510.40 26.58 o
7 0 5 223.15 209.05 12.85 o
8 0 5 79.29 78.67 5.52 o
-12 1 5 0.99 -0.16 1.47 o
-11 1 5 4.57 3.35 1.29 o
-10 1 5 283.58 307.48 15.58 o
-9 1 5 3.17 1.98 0.94 o
-8 1 5 4.77 5.36 0.87 o
-7 1 5 1374.62 1181.26 61.13 o
-6 1 5 48.76 54.25 1.74 o
-5 1 5 2281.27 1973.95 76.48 o
-4 1 5 56.44 56.56 3.67 o
-3 1 5 35.04 38.85 2.79 o
-2 1 5 2107.78 1937.52 75.08 o
-1 1 5 10.29 6.70 0.67 o
0 1 5 42.96 48.68 2.51 o
1 1 5 1.46 3.75 0.63 o
2 1 5 17.25 13.59 0.90 o
3 1 5 0.70 4.33 1.45 o
4 1 5 36.31 38.93 2.00 o
5 1 5 325.42 308.37 10.78 o
6 1 5 235.18 225.23 8.13 o
7 1 5 14.65 12.98 1.31 o
8 1 5 7.93 5.02 1.17 o
-12 2 5 87.50 93.09 8.25 o
-11 2 5 46.94 36.54 6.42 o
-10 2 5 2.37 1.06 1.10 o
-9 2 5 947.24 881.46 89.09 o
-8 2 5 0.14 -0.13 0.57 o
-7 2 5 122.03 124.24 5.32 o
-6 2 5 447.19 350.26 46.81 o
-5 2 5 4.05 4.51 0.41 o
-4 2 5 1965.33 1897.77 65.80 o
-3 2 5 5165.30 4174.48 148.32 o
-2 2 5 1863.95 1760.54 51.37 o
-1 2 5 400.34 393.00 12.42 o
0 2 5 868.36 844.98 23.40 o
1 2 5 1332.93 1272.79 39.38 o
2 2 5 1129.43 1022.46 42.83 o
3 2 5 427.69 395.13 18.33 o
4 2 5 106.42 105.91 3.85 o
5 2 5 46.78 52.45 2.48 o
6 2 5 102.26 92.08 6.29 o
7 2 5 3.24 2.25 0.94 o
8 2 5 300.27 343.50 14.52 o
9 2 5 59.17 59.47 8.34 o
-11 3 5 1.28 3.12 1.15 o
-10 3 5 242.05 272.88 14.87 o
-9 3 5 74.20 64.14 4.76 o
-8 3 5 298.96 320.35 19.47 o
-7 3 5 369.59 384.84 14.23 o
-6 3 5 185.74 187.39 19.50 o
-5 3 5 825.06 747.95 26.62 o
-4 3 5 379.85 351.18 12.35 o
-3 3 5 0.49 1.13 0.33 o
-2 3 5 2864.87 2815.87 81.44 o
-1 3 5 65.06 65.19 2.46 o
0 3 5 192.77 211.37 6.85 o
1 3 5 492.91 517.58 13.89 o
2 3 5 131.95 124.79 4.10 o
3 3 5 2.85 5.28 0.66 o
4 3 5 35.73 36.65 1.90 o
5 3 5 156.65 154.76 6.33 o
6 3 5 209.87 204.49 8.22 o
7 3 5 280.09 269.04 10.54 o
8 3 5 18.84 20.37 2.80 o
-11 4 5 34.13 34.78 3.33 o
-10 4 5 136.20 151.14 9.98 o
-9 4 5 0.70 0.89 0.90 o
-8 4 5 222.70 284.33 11.98 o
-7 4 5 63.62 47.74 4.31 o
-6 4 5 2619.61 2418.68 81.71 o
-5 4 5 460.40 397.52 16.06 o
-4 4 5 676.46 705.88 20.70 o
-3 4 5 149.34 145.81 4.56 o
-2 4 5 152.76 172.01 5.12 o
-1 4 5 445.69 474.12 13.39 o
0 4 5 87.63 91.94 4.03 o
1 4 5 77.22 70.22 3.01 o
2 4 5 91.58 90.09 3.32 o
3 4 5 52.51 50.72 2.44 o
4 4 5 295.24 302.78 10.68 o
5 4 5 248.98 277.74 10.71 o
6 4 5 122.47 113.73 5.15 o
7 4 5 265.30 288.61 11.38 o
8 4 5 10.42 6.71 3.22 o
-11 5 5 42.49 45.44 7.31 o
-10 5 5 97.20 88.03 5.86 o
-9 5 5 56.82 58.99 4.65 o
-8 5 5 0.50 0.52 0.94 o
-7 5 5 766.54 653.96 177.63 o
-6 5 5 124.77 118.62 5.89 o
-5 5 5 2098.29 2218.57 78.77 o
-4 5 5 3.48 5.16 0.67 o
-3 5 5 202.34 215.18 8.20 o
-2 5 5 1262.54 1180.71 46.07 o
-1 5 5 12.49 12.04 0.92 o
0 5 5 21.38 26.88 1.37 o
1 5 5 98.03 103.33 4.76 o
2 5 5 21.08 24.60 1.31 o
3 5 5 9.34 9.28 1.02 o
4 5 5 239.04 228.52 8.29 o
5 5 5 293.68 298.22 10.87 o
6 5 5 286.94 315.78 13.49 o
7 5 5 11.88 12.53 2.01 o
-10 6 5 8.29 9.77 1.83 o
-9 6 5 325.46 320.64 29.18 o
-8 6 5 102.87 102.75 5.62 o
-7 6 5 137.44 142.24 10.87 o
-6 6 5 220.27 250.41 11.99 o
-5 6 5 162.95 183.65 9.11 o
-4 6 5 1.16 3.17 0.89 o
-3 6 5 1000.44 984.22 35.50 o
-2 6 5 451.31 467.22 19.72 o
-1 6 5 612.10 656.28 35.53 o
0 6 5 29.48 27.80 1.71 o
1 6 5 476.77 487.98 26.24 o
2 6 5 152.19 147.94 10.42 o
3 6 5 1.14 1.85 0.82 o
4 6 5 63.79 62.85 3.20 o
5 6 5 11.27 13.02 1.44 o
6 6 5 40.04 41.45 3.84 o
-9 7 5 5.34 6.56 2.12 o
-8 7 5 114.24 107.64 7.26 o
-7 7 5 110.00 111.57 7.35 o
-6 7 5 55.51 51.46 4.60 o
-5 7 5 244.98 250.19 10.62 o
-4 7 5 151.99 159.21 7.07 o
-3 7 5 36.34 38.47 2.39 o
-2 7 5 945.43 912.88 33.00 o
-1 7 5 56.82 56.83 3.04 o
0 7 5 17.24 19.10 1.61 o
1 7 5 102.15 97.61 5.53 o
2 7 5 75.21 73.53 5.48 o
3 7 5 145.62 150.27 9.55 o
4 7 5 0.58 0.09 0.91 o
5 7 5 54.45 59.91 4.72 o
-8 8 5 90.05 79.32 10.75 o
-7 8 5 1.12 1.95 1.74 o
-6 8 5 799.47 747.96 30.14 o
-5 8 5 296.99 301.51 12.76 o
-4 8 5 385.92 366.69 16.44 o
-3 8 5 132.15 125.80 7.27 o
-2 8 5 29.02 29.97 2.39 o
-1 8 5 138.75 156.06 8.12 o
0 8 5 31.62 34.25 2.35 o
1 8 5 7.72 11.12 1.72 o
2 8 5 157.86 153.87 8.81 o
3 8 5 2.94 2.91 1.24 o
4 8 5 86.39 76.09 6.57 o
-6 9 5 1.68 2.12 2.04 o
-5 9 5 265.90 270.52 17.97 o
-4 9 5 0.12 0.83 0.95 o
-3 9 5 34.54 33.42 2.63 o
-2 9 5 166.40 154.27 7.91 o
-1 9 5 10.68 9.91 1.56 o
0 9 5 39.83 40.16 3.03 o
1 9 5 50.06 43.37 2.86 o
2 9 5 0.18 0.14 2.15 o
3 9 5 17.92 11.74 3.67 o
-3 10 5 345.48 322.18 31.22 o
-2 10 5 34.32 41.97 6.93 o
-1 10 5 175.10 184.72 19.41 o
-12 0 6 29.91 31.78 6.05 o
-11 0 6 276.41 260.01 17.64 o
-10 0 6 62.02 68.50 5.95 o
-9 0 6 87.78 109.90 18.80 o
-8 0 6 146.05 138.92 14.91 o
-7 0 6 1676.86 1576.44 80.00 o
-6 0 6 36.71 48.12 3.83 o
-5 0 6 3024.71 2811.49 140.87 o
-4 0 6 1174.03 1216.46 63.72 o
-3 0 6 4.77 3.99 0.89 o
-2 0 6 783.59 931.66 47.41 o
-1 0 6 3181.57 2484.96 125.07 o
0 0 6 11.11 23.08 1.77 o
1 0 6 13.45 12.54 1.29 o
2 0 6 1.14 1.08 0.62 o
3 0 6 50.24 53.54 2.85 o
4 0 6 589.28 547.13 24.83 o
5 0 6 203.43 191.74 12.43 o
6 0 6 256.98 235.59 20.72 o
7 0 6 59.18 67.47 4.71 o
-12 1 6 184.50 226.08 22.79 o
-11 1 6 27.47 33.54 2.77 o
-10 1 6 3.04 4.76 1.71 o
-9 1 6 703.69 593.33 112.15 o
-8 1 6 14.34 15.54 1.83 o
-7 1 6 658.97 662.75 35.86 o
-6 1 6 561.85 486.51 27.78 o
-5 1 6 170.75 159.75 8.09 o
-4 1 6 619.79 615.62 44.58 o
-3 1 6 3.70 4.29 0.45 o
-2 1 6 148.99 138.51 5.48 o
-1 1 6 526.53 521.61 48.43 o
0 1 6 243.65 260.22 8.94 o
1 1 6 32.03 25.02 1.19 o
2 1 6 90.72 97.52 3.90 o
3 1 6 1093.45 840.15 165.03 o
4 1 6 78.14 79.46 3.22 o
5 1 6 405.31 353.24 13.33 o
6 1 6 232.80 242.56 8.31 o
7 1 6 74.36 73.67 4.13 o
8 1 6 142.21 141.78 15.43 o
-12 2 6 1.88 3.12 1.90 o
-11 2 6 2.06 0.43 1.39 o
-10 2 6 511.42 754.83 65.97 o
-9 2 6 43.54 48.51 3.28 o
-8 2 6 1767.24 1651.71 91.12 o
-7 2 6 86.44 96.22 4.21 o
-6 2 6 10.71 17.19 1.31 o
-5 2 6 126.84 112.11 6.14 o
-4 2 6 980.95 888.21 29.37 o
-3 2 6 8.26 6.63 0.51 o
-2 2 6 106.95 107.13 4.13 o
-1 2 6 30.12 26.87 1.35 o
0 2 6 4.82 3.25 0.50 o
1 2 6 3.22 3.89 0.56 o
2 2 6 1354.00 1352.64 41.93 o
3 2 6 414.47 424.43 13.63 o
4 2 6 246.25 260.48 12.21 o
5 2 6 70.66 73.10 3.30 o
6 2 6 17.31 18.06 1.88 o
7 2 6 369.56 381.61 16.16 o
8 2 6 0.12 0.41 2.50 o
-11 3 6 4.77 6.08 1.37 o
-10 3 6 15.88 19.98 2.36 o
-9 3 6 1208.69 1130.17 49.83 o
-8 3 6 328.20 251.91 20.55 o
-7 3 6 263.34 236.14 8.98 o
-6 3 6 226.98 217.80 13.93 o
-5 3 6 8.69 9.77 0.91 o
-4 3 6 996.18 1005.23 33.53 o
-3 3 6 78.43 89.57 3.11 o
-2 3 6 290.73 275.96 9.70 o
-1 3 6 18.58 22.13 1.40 o
0 3 6 10.05 9.86 0.73 o
1 3 6 296.54 265.90 9.91 o
2 3 6 141.31 139.04 4.88 o
3 3 6 1107.14 1122.98 44.39 o
4 3 6 156.53 159.73 5.64 o
5 3 6 154.22 153.25 7.78 o
6 3 6 122.83 123.91 7.76 o
7 3 6 24.06 28.03 2.84 o
-11 4 6 236.69 267.58 18.17 o
-10 4 6 7.90 10.44 1.73 o
-9 4 6 3.12 0.44 0.91 o
-8 4 6 125.37 143.38 13.47 o
-7 4 6 302.85 269.00 31.19 o
-6 4 6 15.46 20.15 1.55 o
-5 4 6 1852.05 1950.51 72.41 o
-4 4 6 270.38 279.80 9.77 o
-3 4 6 1.32 1.29 0.53 o
-2 4 6 129.84 125.07 4.23 o
-1 4 6 986.56 1062.58 34.50 o
0 4 6 501.94 506.22 15.13 o
1 4 6 238.44 239.64 9.74 o
2 4 6 10.95 11.89 0.96 o
3 4 6 17.05 19.18 1.33 o
4 4 6 294.43 283.87 11.01 o
5 4 6 88.03 90.15 4.59 o
6 4 6 384.99 369.88 15.30 o
7 4 6 264.89 277.95 13.55 o
-11 5 6 120.71 146.04 16.01 o
-10 5 6 8.68 9.11 1.95 o
-9 5 6 312.58 296.62 15.19 o
-8 5 6 0.30 0.55 1.02 o
-7 5 6 67.57 67.53 5.47 o
-6 5 6 516.86 549.86 22.20 o
-5 5 6 305.04 319.27 13.17 o
-4 5 6 126.38 131.81 5.66 o
-3 5 6 10.55 9.41 1.16 o
-2 5 6 430.27 455.58 16.72 o
-1 5 6 140.83 147.58 6.48 o
0 5 6 220.01 217.51 9.23 o
1 5 6 2.93 3.62 0.78 o
2 5 6 7.72 9.20 1.15 o
3 5 6 289.21 294.37 11.31 o
4 5 6 0.92 1.31 0.87 o
5 5 6 118.66 130.11 8.92 o
6 5 6 84.48 89.65 6.31 o
7 5 6 42.47 44.67 6.83 o
-10 6 6 164.94 165.75 9.79 o
-9 6 6 26.80 25.95 2.45 o
-8 6 6 861.75 893.00 79.37 o
-7 6 6 2.14 2.67 1.08 o
-6 6 6 0.36 -0.08 0.77 o
-5 6 6 139.86 139.56 6.33 o
-4 6 6 66.92 71.63 4.32 o
-3 6 6 252.19 245.32 9.74 o
-2 6 6 134.95 136.44 5.60 o
-1 6 6 8.67 10.11 1.10 o
0 6 6 21.32 25.64 1.76 o
1 6 6 8.43 9.00 1.26 o
2 6 6 417.15 441.26 18.12 o
3 6 6 579.10 589.05 23.89 o
4 6 6 474.60 514.19 19.17 o
5 6 6 13.04 18.01 2.20 o
6 6 6 3.17 5.03 2.42 o
-9 7 6 409.63 438.89 27.96 o
-8 7 6 18.18 19.99 2.85 o
-7 7 6 236.40 251.71 17.86 o
-6 7 6 64.78 68.38 3.67 o
-5 7 6 120.06 127.40 5.94 o
-4 7 6 117.85 116.83 6.18 o
-3 7 6 51.72 46.79 3.50 o
-2 7 6 19.60 19.67 1.55 o
-1 7 6 42.47 44.49 2.66 o
0 7 6 10.86 16.31 1.57 o
1 7 6 104.61 99.32 4.90 o
2 7 6 52.04 50.04 3.09 o
3 7 6 320.50 288.34 28.26 o
4 7 6 89.31 91.80 6.31 o
-8 8 6 59.72 75.39 10.59 o
-7 8 6 79.74 78.55 7.31 o
-6 8 6 9.00 7.21 1.41 o
-5 8 6 376.59 389.16 18.47 o
-4 8 6 0.15 0.46 0.95 o
-3 8 6 36.50 36.03 2.78 o
-2 8 6 16.30 16.12 2.06 o
-1 8 6 272.65 274.63 13.65 o
0 8 6 174.28 174.19 10.66 o
1 8 6 52.38 48.29 3.27 o
2 8 6 8.56 10.42 1.54 o
3 8 6 0.19 2.78 1.94 o
-5 9 6 2.65 0.74 1.97 o
-4 9 6 359.17 368.15 19.76 o
-3 9 6 3.20 2.35 1.25 o
-2 9 6 124.85 122.70 7.58 o
-1 9 6 35.78 35.57 4.57 o
0 9 6 71.45 73.84 10.11 o
1 9 6 24.11 21.44 4.09 o
2 9 6 31.99 23.69 4.64 o
-12 0 7 528.73 599.14 54.85 o
-11 0 7 159.24 203.09 25.95 o
-10 0 7 385.01 414.37 26.93 o
-9 0 7 171.12 162.02 11.44 o
-8 0 7 29.98 26.51 3.17 o
-7 0 7 7.21 8.49 1.13 o
-6 0 7 328.93 326.31 13.16 o
-5 0 7 50.22 33.39 3.34 o
-4 0 7 2.20 1.73 0.71 o
-3 0 7 1.66 1.92 1.04 o
-2 0 7 270.15 307.77 16.23 o
-1 0 7 152.14 164.00 7.90 o
0 0 7 2689.03 2781.04 140.94 o
1 0 7 682.89 581.74 23.21 o
2 0 7 356.85 393.03 20.76 o
3 0 7 48.76 55.92 5.40 o
4 0 7 98.11 96.96 5.44 o
5 0 7 402.43 385.63 17.90 o
6 0 7 23.87 27.68 3.11 o
7 0 7 56.05 75.09 9.86 o
-12 1 7 108.53 98.05 11.82 o
-11 1 7 262.08 291.52 18.77 o
-10 1 7 147.69 146.27 13.44 o
-9 1 7 5.60 11.78 2.62 o
-8 1 7 211.97 185.65 9.00 o
-7 1 7 351.79 337.24 13.75 o
-6 1 7 0.73 1.11 0.47 o
-5 1 7 7.58 7.91 0.82 o
-4 1 7 392.74 415.23 15.12 o
-3 1 7 15.41 19.16 1.16 o
-2 1 7 92.96 101.23 4.17 o
-1 1 7 1169.72 1107.60 39.77 o
0 1 7 30.56 34.07 1.90 o
1 1 7 1339.45 1175.85 82.62 o
2 1 7 49.90 53.34 2.23 o
3 1 7 136.59 141.56 5.44 o
4 1 7 516.85 502.02 28.89 o
5 1 7 0.59 0.09 0.75 o
6 1 7 2.87 1.20 0.90 o
7 1 7 9.14 13.57 2.38 o
-12 2 7 3.11 -0.45 2.77 o
-11 2 7 45.38 51.94 4.36 o
-10 2 7 6.78 11.25 2.05 o
-9 2 7 589.42 591.08 23.76 o
-8 2 7 282.70 305.63 18.79 o
-7 2 7 627.99 550.65 83.53 o
-6 2 7 334.31 331.73 26.88 o
-5 2 7 127.53 115.17 7.08 o
-4 2 7 164.84 143.99 14.61 o
-3 2 7 1284.38 1224.37 43.68 o
-2 2 7 5.99 5.85 0.68 o
-1 2 7 18.13 17.26 1.07 o
0 2 7 404.43 401.33 12.93 o
1 2 7 138.52 136.60 5.22 o
2 2 7 448.43 416.74 13.44 o
3 2 7 678.54 678.82 23.15 o
4 2 7 209.12 176.01 14.88 o
5 2 7 187.23 171.08 7.90 o
6 2 7 11.92 12.29 1.53 o
7 2 7 63.25 59.67 8.46 o
-11 3 7 256.89 282.04 15.69 o
-10 3 7 59.27 76.96 7.57 o
-9 3 7 3.17 4.76 1.41 o
-8 3 7 79.07 85.02 4.32 o
-7 3 7 0.93 2.50 0.73 o
-6 3 7 47.83 49.31 3.15 o
-5 3 7 13.00 12.96 1.11 o
-4 3 7 1170.00 1322.36 48.78 o
-3 3 7 0.11 0.91 0.48 o
-2 3 7 129.92 131.66 4.58 o
-1 3 7 59.32 53.98 2.02 o
0 3 7 159.68 159.54 7.72 o
1 3 7 1416.28 1285.27 39.99 o
2 3 7 135.84 130.06 5.15 o
3 3 7 65.58 62.00 2.68 o
4 3 7 257.88 272.55 15.25 o
5 3 7 10.63 12.98 1.47 o
6 3 7 29.62 25.29 2.33 o
-11 4 7 106.66 128.54 14.61 o
-10 4 7 252.07 262.06 16.53 o
-9 4 7 0.74 0.08 1.09 o
-8 4 7 454.70 452.06 43.17 o
-7 4 7 0.74 -0.26 0.78 o
-6 4 7 347.03 339.20 15.98 o
-5 4 7 22.82 26.48 1.62 o
-4 4 7 3.51 2.93 0.70 o
-3 4 7 5.41 6.23 1.00 o
-2 4 7 566.11 576.44 23.32 o
-1 4 7 18.18 23.07 1.51 o
0 4 7 1928.77 1900.38 106.61 o
1 4 7 98.42 110.79 4.79 o
2 4 7 149.50 154.99 6.43 o
3 4 7 29.40 28.62 1.84 o
4 4 7 75.60 75.84 3.75 o
5 4 7 167.72 159.13 6.77 o
6 4 7 20.17 16.23 2.65 o
-11 5 7 114.27 106.46 12.81 o
-10 5 7 22.59 15.87 3.42 o
-9 5 7 5.12 4.86 1.44 o
-8 5 7 49.22 55.89 3.88 o
-7 5 7 142.94 160.79 18.12 o
-6 5 7 22.80 23.76 2.41 o
-5 5 7 4.25 5.28 1.04 o
-4 5 7 4.15 5.30 1.04 o
-3 5 7 116.28 110.70 5.34 o
-2 5 7 25.53 28.58 1.86 o
-1 5 7 528.44 491.63 18.19 o
0 5 7 18.59 21.67 1.87 o
1 5 7 766.93 720.63 66.77 o
2 5 7 4.29 6.04 1.21 o
3 5 7 120.20 124.05 5.95 o
4 5 7 517.36 538.63 22.07 o
5 5 7 1.94 0.69 1.62 o
-10 6 7 1.22 2.48 3.30 o
-9 6 7 150.27 176.89 10.15 o
-8 6 7 34.02 28.40 4.79 o
-7 6 7 235.17 231.92 11.32 o
-6 6 7 31.47 34.55 2.78 o
-5 6 7 487.78 505.02 23.90 o
-4 6 7 137.80 147.35 6.85 o
-3 6 7 735.90 722.06 26.88 o
-2 6 7 5.25 6.19 1.19 o
-1 6 7 35.12 35.70 2.23 o
0 6 7 158.47 147.91 6.78 o
1 6 7 43.74 43.69 2.80 o
2 6 7 72.18 79.31 4.44 o
3 6 7 319.37 320.20 15.99 o
4 6 7 4.74 5.85 1.82 o
5 6 7 44.65 44.65 7.16 o
-8 7 7 139.50 136.38 8.51 o
-7 7 7 38.43 35.65 2.88 o
-6 7 7 18.68 18.11 1.98 o
-5 7 7 50.21 49.19 5.02 o
-4 7 7 282.28 279.52 14.33 o
-3 7 7 25.50 23.56 2.66 o
-2 7 7 128.31 122.38 5.32 o
-1 7 7 52.84 52.14 3.75 o
0 7 7 0.03 1.10 0.98 o
1 7 7 329.93 330.43 14.10 o
2 7 7 31.02 31.37 2.53 o
3 7 7 84.41 84.57 5.98 o
4 7 7 162.16 163.53 17.80 o
-7 8 7 6.60 6.22 1.94 o
-6 8 7 65.39 68.93 6.78 o
-5 8 7 8.02 6.03 1.56 o
-4 8 7 33.50 35.76 3.72 o
-3 8 7 1.84 0.60 1.11 o
-2 8 7 38.45 34.50 2.89 o
-1 8 7 4.34 3.71 1.38 o
0 8 7 520.81 498.70 29.07 o
1 8 7 36.63 42.96 4.76 o
2 8 7 121.75 116.89 10.16 o
3 8 7 22.80 16.53 4.95 o
-3 9 7 5.05 0.47 2.99 o
-2 9 7 0.38 1.78 3.41 o
-1 9 7 109.46 111.54 13.68 o
0 9 7 34.56 39.74 7.39 o
-12 0 8 139.01 161.94 17.41 o
-11 0 8 72.59 83.52 7.27 o
-10 0 8 156.77 155.51 22.51 o
-9 0 8 77.21 61.15 12.28 o
-8 0 8 37.57 35.51 3.85 o
-7 0 8 1231.07 1482.21 96.37 o
-6 0 8 310.48 250.99 11.82 o
-5 0 8 639.60 590.23 30.74 o
-4 0 8 24.54 29.64 3.26 o
-3 0 8 47.32 51.56 3.23 o
-2 0 8 837.67 892.72 39.69 o
-1 0 8 1779.61 1766.50 68.75 o
0 0 8 11.38 13.24 1.46 o
1 0 8 723.38 770.70 34.29 o
2 0 8 9.51 12.38 1.63 o
3 0 8 1.02 1.01 1.08 o
4 0 8 0.56 0.03 1.11 o
5 0 8 307.04 306.30 17.22 o
6 0 8 0.25 0.86 1.87 o
-12 1 8 17.57 10.98 4.54 o
-11 1 8 78.19 58.87 6.43 o
-10 1 8 3.71 1.63 1.36 o
-9 1 8 9.05 9.69 1.64 o
-8 1 8 2.24 1.08 0.93 o
-7 1 8 155.85 142.82 6.34 o
-6 1 8 328.63 321.57 11.40 o
-5 1 8 41.84 44.03 2.03 o
-4 1 8 8.13 7.43 0.92 o
-3 1 8 776.91 837.66 28.17 o
-2 1 8 52.18 57.42 2.87 o
-1 1 8 627.24 574.69 17.23 o
0 1 8 209.73 205.81 8.47 o
1 1 8 15.36 14.75 1.27 o
2 1 8 294.34 292.44 10.41 o
3 1 8 1.21 1.22 0.79 o
4 1 8 25.09 24.32 1.81 o
5 1 8 10.45 13.31 1.59 o
6 1 8 34.55 37.08 6.66 o
-11 2 8 16.22 14.10 2.47 o
-10 2 8 293.87 254.43 16.48 o
-9 2 8 45.00 54.05 3.61 o
-8 2 8 49.37 49.72 2.68 o
-7 2 8 15.00 18.08 1.35 o
-6 2 8 22.44 23.67 3.01 o
-5 2 8 0.46 1.36 0.81 o
-4 2 8 2021.95 2076.40 90.98 o
-3 2 8 135.90 144.92 5.50 o
-2 2 8 2458.97 2199.88 78.65 o
-1 2 8 32.14 27.04 1.58 o
0 2 8 9.76 11.99 1.10 o
1 2 8 120.56 117.13 4.39 o
2 2 8 473.28 428.98 15.58 o
3 2 8 22.75 22.04 1.84 o
4 2 8 12.18 13.03 1.39 o
5 2 8 4.69 4.76 1.23 o
6 2 8 11.90 13.39 4.19 o
-11 3 8 36.87 27.18 5.73 o
-10 3 8 0.05 -1.01 1.37 o
-9 3 8 122.71 109.69 11.49 o
-8 3 8 142.20 130.15 6.11 o
-7 3 8 9.05 10.13 1.24 o
-6 3 8 233.16 260.67 10.17 o
-5 3 8 8.09 9.71 1.15 o
-4 3 8 5.01 4.66 0.91 o
-3 3 8 793.97 785.16 82.61 o
-2 3 8 115.04 115.28 5.85 o
-1 3 8 395.96 332.88 14.87 o
0 3 8 348.30 331.73 12.54 o
1 3 8 89.39 86.92 3.70 o
2 3 8 228.58 228.28 7.85 o
3 3 8 0.59 0.81 0.75 o
4 3 8 0.05 0.60 0.87 o
5 3 8 2.78 1.60 1.18 o
-10 4 8 41.76 46.13 4.07 o
-9 4 8 37.70 44.18 3.74 o
-8 4 8 292.77 296.09 12.56 o
-7 4 8 256.05 269.98 16.13 o
-6 4 8 71.35 83.05 4.33 o
-5 4 8 537.33 538.36 19.95 o
-4 4 8 40.00 41.47 3.11 o
-3 4 8 30.07 30.11 2.20 o
-2 4 8 277.64 241.35 22.49 o
-1 4 8 275.57 299.09 11.46 o
0 4 8 74.58 85.84 3.97 o
1 4 8 552.66 578.59 23.56 o
2 4 8 8.05 8.96 1.19 o
3 4 8 0.51 0.79 0.90 o
4 4 8 2.55 2.28 1.16 o
5 4 8 124.33 112.00 28.22 o
-10 5 8 38.98 43.37 5.27 o
-9 5 8 2.97 2.34 1.62 o
-8 5 8 8.01 6.75 1.54 o
-7 5 8 132.79 137.37 7.29 o
-6 5 8 528.57 538.33 29.67 o
-5 5 8 132.60 168.02 8.53 o
-4 5 8 16.76 17.81 1.62 o
-3 5 8 540.16 553.30 20.58 o
-2 5 8 157.61 154.88 6.42 o
-1 5 8 254.26 276.15 18.88 o
0 5 8 247.89 231.69 11.89 o
1 5 8 2.36 2.30 0.96 o
2 5 8 79.22 75.63 4.21 o
3 5 8 5.83 5.37 1.23 o
4 5 8 134.73 133.91 11.77 o
-9 6 8 3.07 3.53 1.51 o
-8 6 8 100.36 93.99 8.93 o
-7 6 8 48.70 52.47 3.68 o
-6 6 8 4.85 6.47 1.52 o
-5 6 8 34.69 36.21 2.93 o
-4 6 8 149.79 152.05 9.18 o
-3 6 8 2.73 3.38 1.07 o
-2 6 8 1029.62 1014.84 47.45 o
-1 6 8 8.81 8.63 1.25 o
0 6 8 7.02 7.00 1.28 o
1 6 8 37.40 37.09 3.04 o
2 6 8 76.41 72.44 4.14 o
3 6 8 91.96 78.07 5.70 o
-8 7 8 31.20 26.57 3.41 o
-7 7 8 0.51 1.67 1.33 o
-6 7 8 75.82 80.80 5.69 o
-5 7 8 14.99 15.41 2.04 o
-4 7 8 5.63 5.57 1.39 o
-3 7 8 453.73 441.70 21.58 o
-2 7 8 10.44 10.02 1.51 o
-1 7 8 138.71 133.27 7.24 o
0 7 8 37.91 38.10 3.37 o
1 7 8 72.06 71.88 9.16 o
2 7 8 119.91 110.37 15.17 o
-6 8 8 18.05 13.70 4.93 o
-5 8 8 255.83 241.01 24.62 o
-4 8 8 89.40 91.57 8.12 o
-3 8 8 37.57 43.53 5.17 o
-2 8 8 113.70 131.71 10.66 o
-1 8 8 79.93 93.99 8.48 o
0 8 8 6.99 4.42 2.26 o
1 8 8 203.42 164.55 16.89 o
-12 0 9 98.22 91.62 11.63 o
-11 0 9 40.85 59.18 8.34 o
-10 0 9 0.03 1.64 2.01 o
-9 0 9 13.72 12.54 2.61 o
-8 0 9 62.45 57.29 13.72 o
-7 0 9 382.94 420.60 62.35 o
-6 0 9 1032.54 808.83 71.52 o
-5 0 9 314.19 377.84 18.56 o
-4 0 9 1120.25 1020.47 45.47 o
-3 0 9 0.96 0.68 0.94 o
-2 0 9 110.82 94.57 10.22 o
-1 0 9 2.65 0.88 0.96 o
0 0 9 56.44 62.64 3.90 o
1 0 9 37.02 31.54 3.06 o
2 0 9 0.17 1.01 1.19 o
3 0 9 13.96 10.50 1.97 o
4 0 9 122.85 140.02 11.50 o
5 0 9 0.24 -0.50 2.35 o
-11 1 9 3.03 2.35 2.07 o
-10 1 9 94.58 112.64 10.22 o
-9 1 9 100.86 95.16 5.43 o
-8 1 9 235.43 257.62 12.30 o
-7 1 9 355.82 332.66 17.12 o
-6 1 9 181.47 192.27 18.94 o
-5 1 9 473.54 494.54 16.95 o
-4 1 9 260.06 278.50 10.71 o
-3 1 9 0.02 0.08 0.63 o
-2 1 9 197.73 179.55 8.23 o
-1 1 9 265.23 266.28 10.32 o
0 1 9 1.67 1.14 0.76 o
1 1 9 24.20 26.93 3.18 o
2 1 9 103.93 96.66 4.52 o
3 1 9 37.25 30.48 2.25 o
4 1 9 33.13 29.05 3.16 o
5 1 9 90.47 96.98 8.21 o
-11 2 9 1.52 -0.17 2.06 o
-10 2 9 277.70 278.39 18.81 o
-9 2 9 442.57 324.48 56.29 o
-8 2 9 149.33 149.58 6.93 o
-7 2 9 141.80 116.88 7.46 o
-6 2 9 57.52 57.21 3.14 o
-5 2 9 330.85 317.32 12.06 o
-4 2 9 31.95 35.70 2.03 o
-3 2 9 504.44 537.89 19.84 o
-2 2 9 11.20 12.24 1.51 o
-1 2 9 214.16 229.00 10.87 o
0 2 9 12.92 15.18 1.41 o
1 2 9 165.41 156.82 6.11 o
2 2 9 28.74 28.63 1.96 o
3 2 9 187.34 216.02 11.44 o
4 2 9 9.48 9.01 1.68 o
-10 3 9 39.76 43.26 3.90 o
-9 3 9 306.87 244.49 11.82 o
-8 3 9 10.82 14.23 1.93 o
-7 3 9 68.67 70.34 3.50 o
-6 3 9 69.70 81.98 3.90 o
-5 3 9 436.17 400.36 21.66 o
-4 3 9 477.89 490.42 19.95 o
-3 3 9 3.81 3.38 1.06 o
-2 3 9 67.73 69.32 3.16 o
-1 3 9 0.92 1.54 0.90 o
0 3 9 22.98 24.26 2.24 o
1 3 9 44.71 49.81 2.87 o
2 3 9 144.66 146.00 5.76 o
3 3 9 19.48 19.61 1.90 o
4 3 9 17.88 19.03 2.43 o
-10 4 9 12.71 6.25 2.67 o
-9 4 9 49.77 41.01 3.74 o
-8 4 9 79.14 86.65 5.91 o
-7 4 9 53.94 55.52 4.67 o
-6 4 9 932.46 972.72 38.70 o
-5 4 9 252.40 246.29 12.82 o
-4 4 9 575.92 544.03 25.28 o
-3 4 9 9.37 7.55 1.29 o
-2 4 9 210.42 218.75 9.63 o
-1 4 9 11.52 13.64 1.51 o
0 4 9 309.36 300.81 11.71 o
1 4 9 9.71 9.79 1.34 o
2 4 9 1.22 0.82 0.88 o
3 4 9 13.62 11.90 2.00 o
4 4 9 77.93 69.90 10.03 o
-10 5 9 40.99 40.16 7.24 o
-9 5 9 25.96 23.26 3.20 o
-8 5 9 37.23 38.76 3.73 o
-7 5 9 96.42 87.51 6.06 o
-6 5 9 164.35 140.21 13.81 o
-5 5 9 153.51 157.62 8.27 o
-4 5 9 6.80 7.92 1.40 o
-3 5 9 0.81 1.63 1.08 o
-2 5 9 10.53 11.38 1.49 o
-1 5 9 151.64 155.52 9.27 o
0 5 9 6.25 4.69 1.16 o
1 5 9 13.40 13.60 1.74 o
2 5 9 2.13 1.28 1.28 o
3 5 9 2.72 2.31 3.07 o
-8 6 9 62.73 58.91 5.13 o
-7 6 9 35.37 37.40 4.72 o
-6 6 9 81.91 79.36 5.38 o
-5 6 9 248.02 272.67 13.36 o
-4 6 9 78.47 80.64 6.21 o
-3 6 9 445.25 464.44 17.52 o
-2 6 9 46.42 48.66 3.68 o
-1 6 9 70.42 75.24 3.91 o
0 6 9 11.84 11.89 1.67 o
1 6 9 61.40 64.70 4.40 o
2 6 9 4.88 7.33 3.71 o
-7 7 9 52.76 45.79 8.11 o
-6 7 9 37.78 32.20 5.46 o
-5 7 9 50.92 51.24 4.38 o
-4 7 9 126.45 121.98 6.92 o
-3 7 9 1.31 1.15 1.48 o
-2 7 9 80.44 85.66 7.92 o
-1 7 9 19.89 17.55 2.65 o
0 7 9 0.02 0.63 1.89 o
-11 0 10 106.76 86.87 11.22 o
-10 0 10 73.42 83.00 13.03 o
-9 0 10 11.66 12.87 6.60 o
-8 0 10 61.45 71.76 8.85 o
-7 0 10 486.67 423.62 72.60 o
-6 0 10 26.29 28.96 2.91 o
-5 0 10 149.71 129.77 11.84 o
-4 0 10 0.71 1.59 1.27 o
-3 0 10 16.41 16.47 1.98 o
-2 0 10 97.73 110.55 6.15 o
-1 0 10 507.00 485.66 24.03 o
0 0 10 71.78 88.09 10.57 o
1 0 10 282.32 294.51 25.55 o
2 0 10 15.55 13.64 2.36 o
3 0 10 21.59 18.62 2.72 o
-11 1 10 152.42 112.51 13.32 o
-10 1 10 10.92 11.09 2.04 o
-9 1 10 52.37 51.20 4.12 o
-8 1 10 314.90 321.05 26.10 o
-7 1 10 0.61 1.74 1.14 o
-6 1 10 37.67 37.67 2.60 o
-5 1 10 95.31 92.09 4.67 o
-4 1 10 0.02 0.47 0.79 o
-3 1 10 6.72 8.96 1.19 o
-2 1 10 14.35 15.57 1.36 o
-1 1 10 239.86 257.71 13.62 o
0 1 10 25.23 29.78 2.05 o
1 1 10 74.64 82.09 4.64 o
2 1 10 0.06 0.91 1.01 o
3 1 10 161.82 179.82 14.51 o
4 1 10 31.84 30.31 5.94 o
-10 2 10 69.85 64.91 6.45 o
-9 2 10 382.83 368.42 47.17 o
-8 2 10 227.05 238.76 14.48 o
-7 2 10 146.21 143.46 6.67 o
-6 2 10 81.71 91.98 4.71 o
-5 2 10 18.56 23.66 1.92 o
-4 2 10 258.92 266.56 12.24 o
-3 2 10 17.75 20.48 1.65 o
-2 2 10 18.44 22.92 2.36 o
-1 2 10 0.58 0.65 0.89 o
0 2 10 41.51 41.84 2.65 o
1 2 10 0.82 0.90 1.10 o
2 2 10 247.39 244.21 12.09 o
3 2 10 8.18 11.27 3.14 o
-10 3 10 3.91 3.99 2.57 o
-9 3 10 129.35 139.51 10.16 o
-8 3 10 204.91 214.40 10.64 o
-7 3 10 139.06 138.43 7.87 o
-6 3 10 44.73 52.42 3.16 o
-5 3 10 113.08 108.65 6.39 o
-4 3 10 42.89 46.01 3.01 o
-3 3 10 29.72 34.54 3.40 o
-2 3 10 6.40 6.03 1.36 o
-1 3 10 27.03 25.96 2.09 o
0 3 10 139.10 155.96 7.72 o
1 3 10 172.66 161.97 7.55 o
2 3 10 0.97 1.19 1.43 o
3 3 10 120.59 121.60 14.03 o
-9 4 10 34.45 36.69 4.70 o
-8 4 10 22.08 23.34 2.90 o
-7 4 10 198.03 203.66 12.67 o
-6 4 10 33.54 37.81 2.75 o
-5 4 10 80.71 89.10 5.45 o
-4 4 10 3.22 4.71 1.32 o
-3 4 10 1.04 0.97 1.12 o
-2 4 10 231.76 221.46 9.88 o
-1 4 10 107.63 105.59 6.16 o
0 4 10 52.78 56.12 3.64 o
1 4 10 94.63 99.14 5.48 o
2 4 10 1.58 1.54 2.96 o
3 4 10 9.46 6.69 3.94 o
-9 5 10 49.51 41.04 7.06 o
-8 5 10 154.58 161.91 12.51 o
-7 5 10 2.54 4.51 1.62 o
-6 5 10 129.52 138.62 10.22 o
-5 5 10 75.77 80.39 5.14 o
-4 5 10 50.55 51.40 4.93 o
-3 5 10 40.70 40.33 3.78 o
-2 5 10 33.64 31.78 3.02 o
-1 5 10 79.20 76.18 4.82 o
0 5 10 101.95 87.60 5.43 o
1 5 10 28.55 24.49 3.03 o
-7 6 10 78.03 68.69 7.33 o
-6 6 10 0.24 1.08 1.87 o
-5 6 10 124.59 128.67 8.73 o
-4 6 10 59.72 67.92 4.71 o
-3 6 10 13.87 10.81 1.78 o
-2 6 10 10.37 13.70 2.58 o
-1 6 10 7.79 6.03 2.54 o
0 6 10 18.96 19.81 3.40 o
-5 7 10 39.37 38.63 7.61 o
-4 7 10 8.65 8.59 4.52 o
-1 7 10 18.91 16.84 4.33 o
-10 0 11 6.36 10.20 4.42 o
-9 0 11 1.16 -0.03 2.57 o
-8 0 11 39.94 34.45 4.38 o
-7 0 11 402.95 382.49 25.32 o
-6 0 11 27.40 26.94 3.71 o
-5 0 11 11.95 14.91 2.33 o
-4 0 11 7.82 5.56 1.80 o
-3 0 11 1.19 0.70 1.51 o
-2 0 11 233.61 215.37 13.75 o
-1 0 11 140.19 145.58 12.66 o
0 0 11 141.03 155.92 9.77 o
1 0 11 44.16 51.15 5.51 o
2 0 11 94.07 102.18 7.23 o
-10 1 11 94.94 101.28 8.77 o
-9 1 11 9.11 6.63 1.82 o
-8 1 11 0.26 0.95 1.42 o
-7 1 11 40.30 47.27 4.70 o
-6 1 11 16.54 19.53 2.05 o
-5 1 11 0.39 0.23 1.13 o
-4 1 11 22.89 21.45 2.11 o
-3 1 11 119.07 121.47 5.10 o
-2 1 11 58.32 60.60 3.97 o
-1 1 11 236.75 265.76 13.29 o
0 1 11 32.15 40.60 3.44 o
1 1 11 262.64 267.36 11.88 o
2 1 11 115.31 82.19 32.12 o
-9 2 11 62.43 49.41 11.63 o
-8 2 11 41.18 30.05 3.64 o
-7 2 11 16.06 20.11 2.50 o
-6 2 11 25.85 26.07 2.34 o
-5 2 11 11.23 9.90 1.71 o
-4 2 11 531.51 468.14 22.56 o
-3 2 11 138.30 141.75 11.98 o
-2 2 11 111.99 120.97 6.07 o
-1 2 11 47.74 51.47 4.01 o
0 2 11 31.61 36.61 2.94 o
1 2 11 147.39 149.83 7.71 o
2 2 11 8.16 7.74 2.84 o
-9 3 11 62.26 59.49 9.06 o
-8 3 11 19.80 18.17 3.53 o
-7 3 11 46.68 54.31 4.68 o
-6 3 11 7.56 7.19 1.74 o
-5 3 11 2.60 3.03 1.32 o
-4 3 11 32.18 35.31 2.82 o
-3 3 11 148.57 151.69 7.29 o
-2 3 11 18.44 15.71 2.02 o
-1 3 11 87.97 95.27 5.20 o
0 3 11 72.88 72.99 5.31 o
1 3 11 94.33 100.74 12.40 o
2 3 11 106.64 108.98 13.14 o
-9 4 11 2.31 -0.76 3.38 o
-8 4 11 0.91 0.71 4.56 o
-7 4 11 73.03 85.52 8.00 o
-6 4 11 74.89 75.46 4.87 o
-5 4 11 17.64 14.72 2.02 o
-4 4 11 2.86 1.49 1.28 o
-3 4 11 1.65 -0.10 1.19 o
-2 4 11 80.68 74.73 5.04 o
-1 4 11 1.22 3.25 1.46 o
0 4 11 267.94 269.10 15.28 o
-7 5 11 30.65 27.02 5.03 o
-6 5 11 87.62 87.21 10.13 o
-5 5 11 13.63 11.29 2.74 o
-4 5 11 6.21 4.55 1.85 o
-3 5 11 119.45 124.98 9.27 o
-2 5 11 1.20 1.12 1.72 o
-1 5 11 121.40 100.15 12.69 o
-5 6 11 1.90 0.91 4.04 o
-4 6 11 44.63 61.43 9.70 o
-2 6 11 68.46 70.71 9.41 o
-9 0 12 29.60 39.64 7.20 o
-8 0 12 43.26 39.76 7.16 o
-7 0 12 0.74 1.70 2.23 o
-6 0 12 333.64 364.47 24.54 o
-5 0 12 77.73 74.06 6.93 o
-4 0 12 137.12 130.40 8.45 o
-3 0 12 5.77 3.40 2.40 o
-2 0 12 10.87 10.45 3.05 o
-1 0 12 179.74 177.14 13.43 o
0 0 12 0.66 -0.81 3.72 o
-9 1 12 3.40 1.07 3.59 o
-8 1 12 53.67 51.73 4.69 o
-7 1 12 108.26 94.52 5.81 o
-6 1 12 6.27 3.74 1.65 o
-5 1 12 163.28 166.32 12.01 o
-4 1 12 4.22 3.73 1.74 o
-3 1 12 84.16 77.70 5.15 o
-2 1 12 225.94 212.30 13.76 o
-1 1 12 5.72 6.99 1.95 o
0 1 12 43.95 47.79 6.78 o
-8 2 12 4.34 6.93 2.86 o
-7 2 12 6.56 5.00 2.67 o
-6 2 12 41.03 45.28 3.67 o
-5 2 12 9.19 9.24 2.05 o
-4 2 12 168.84 164.50 9.27 o
-3 2 12 106.05 103.66 6.36 o
-2 2 12 147.35 158.59 9.81 o
-1 2 12 74.03 88.39 6.66 o
-7 3 12 6.57 5.05 2.26 o
-6 3 12 9.88 9.85 2.42 o
-5 3 12 165.69 187.48 16.51 o
-4 3 12 22.51 26.85 2.94 o
-3 3 12 79.87 83.89 4.95 o
-2 3 12 86.78 91.03 7.25 o
-6 4 12 316.61 294.81 29.76 o
-5 4 12 31.35 27.30 3.52 o
-4 4 12 89.34 86.81 5.73 o
-3 4 12 30.47 27.19 4.23 o
-4 5 12 24.84 27.90 5.78 o
-5 0 13 170.23 160.70 17.57 o
-2 0 13 30.59 34.28 7.66 o
-4 1 13 85.86 92.24 12.50 o
-3 1 13 0.23 1.75 3.98 o
-4 2 13 39.51 34.42 7.47 o
