#------------------------------------------------------------------------------
#$Date: 2019-11-23 09:14:58 +0200 (Sat, 23 Nov 2019) $
#$Revision: 232679 $
#$URL: file:///home/coder/svn-repositories/cod/cif/4/34/80/4348036.cif $
#------------------------------------------------------------------------------
#
# This file is available in the Crystallography Open Database (COD),
# http://www.crystallography.net/
#
# All data on this site have been placed in the public domain by the
# contributors.
#
data_4348036
loop_
_publ_author_name
'Axelson, Jordan C.'
'Gonzalez, Miguel I.'
'Meihaus, Katie R.'
'Chang, Christopher J.'
'Long, Jeffrey R.'
_publ_section_title
;
 Synthesis and Characterization of a Tetrapodal NO4(4-) Ligand and Its
 Transition Metal Complexes.
;
_journal_issue                   15
_journal_name_full               'Inorganic chemistry'
_journal_page_first              7527
_journal_page_last               7534
_journal_paper_doi               10.1021/acs.inorgchem.6b00908
_journal_volume                  55
_journal_year                    2016
_chemical_formula_moiety         'C13 H15 Fe K2 N O11'
_chemical_formula_sum            'C13 H15 Fe K2 N O11'
_chemical_formula_weight         495.30
_chemical_name_common            jaa24
_chemical_name_systematic        'K2[(C13H9NO8)Fe(H2O)] 2(H2O)'
_space_group_crystal_system      triclinic
_space_group_IT_number           2
_space_group_name_Hall           '-P 1'
_space_group_name_H-M_alt        'P -1'
_atom_sites_solution_hydrogens   mixed
_audit_creation_method           SHELXL-2014/7
_cell_angle_alpha                81.500(2)
_cell_angle_beta                 88.018(2)
_cell_angle_gamma                86.820(2)
_cell_formula_units_Z            2
_cell_length_a                   7.5937(4)
_cell_length_b                   10.3520(4)
_cell_length_c                   10.9128(5)
_cell_measurement_reflns_used    5815
_cell_measurement_temperature    100(2)
_cell_measurement_theta_max      25.34
_cell_measurement_theta_min      2.94
_cell_volume                     846.82(7)
_computing_cell_refinement       'Buker APEX2 v. 2011.4'
_computing_data_collection       'Buker APEX2 v. 2011.4'
_computing_data_reduction        'Buker APEX2 v. 2011.4'
_computing_molecular_graphics    DIAMOND
_computing_publication_material  WinGX
_computing_structure_refinement  'SHELXL-2014/7 (Sheldrick, 2014)'
_computing_structure_solution    SHELXT
_diffrn_ambient_temperature      100(2)
_diffrn_detector_area_resol_mean 8.366
_diffrn_measured_fraction_theta_full 0.989
_diffrn_measured_fraction_theta_max 0.981
_diffrn_measurement_device_type  'Bruker APEX-II CCD'
_diffrn_measurement_method       '\f and \w scans'
_diffrn_radiation_type           MoK\a
_diffrn_radiation_wavelength     0.71073
_diffrn_reflns_av_R_equivalents  0.0481
_diffrn_reflns_av_unetI/netI     0.0603
_diffrn_reflns_Laue_measured_fraction_full 0.989
_diffrn_reflns_Laue_measured_fraction_max 0.981
_diffrn_reflns_limit_h_max       9
_diffrn_reflns_limit_h_min       -9
_diffrn_reflns_limit_k_max       12
_diffrn_reflns_limit_k_min       -12
_diffrn_reflns_limit_l_max       13
_diffrn_reflns_limit_l_min       -13
_diffrn_reflns_number            14312
_diffrn_reflns_point_group_measured_fraction_full 0.989
_diffrn_reflns_point_group_measured_fraction_max 0.981
_diffrn_reflns_theta_full        25.000
_diffrn_reflns_theta_max         25.371
_diffrn_reflns_theta_min         1.888
_diffrn_source                   'microfocus sealed tube'
_exptl_absorpt_coefficient_mu    1.446
_exptl_absorpt_correction_T_max  0.883
_exptl_absorpt_correction_T_min  0.764
_exptl_absorpt_correction_type   multi-scan
_exptl_absorpt_process_details
;
TWINABS-2012/1 (Bruker,2012) was used for absorption correction.
 
For component 1:
 wR2(int) was 0.0967 before and 0.0464 after correction.
 The Ratio of minimum to maximum transmission not present.
 The \l/2 correction factor is Not present
 
For component 2:
 wR2(int) was 0.1126 before and 0.0495 after correction.
 The Ratio of minimum to maximum transmission not present.
 The \l/2 correction factor is Not present

Final HKLF 4 output contains 14312 reflections, Rint = 0.0481
 (8385 with I > 3sig(I), Rint = 0.0420)
;
_exptl_crystal_colour            yellow
_exptl_crystal_density_diffrn    1.927
_exptl_crystal_description       block
_exptl_crystal_F_000             496
_exptl_crystal_size_max          0.166
_exptl_crystal_size_mid          0.114
_exptl_crystal_size_min          0.088
_refine_diff_density_max         0.784
_refine_diff_density_min         -0.686
_refine_diff_density_rms         0.114
_refine_ls_extinction_method     none
_refine_ls_goodness_of_fit_ref   1.042
_refine_ls_hydrogen_treatment    constr
_refine_ls_matrix_type           full
_refine_ls_number_parameters     196
_refine_ls_number_reflns         9131
_refine_ls_number_restraints     0
_refine_ls_restrained_S_all      1.042
_refine_ls_R_factor_all          0.0508
_refine_ls_R_factor_gt           0.0418
_refine_ls_shift/su_max          0.000
_refine_ls_shift/su_mean         0.000
_refine_ls_structure_factor_coef Fsqd
_refine_ls_weighting_details
'w=1/[\s^2^(Fo^2^)+(0.0534P)^2^+0.3685P] where P=(Fo^2^+2Fc^2^)/3'
_refine_ls_weighting_scheme      calc
_refine_ls_wR_factor_gt          0.1027
_refine_ls_wR_factor_ref         0.1084
_reflns_Friedel_coverage         0.000
_reflns_number_gt                7942
_reflns_number_total             9131
_reflns_threshold_expression     'I > 2\s(I)'
_cod_data_source_file            jaa24.cif
_cod_data_source_block           shelx
_cod_database_code               4348036
_shelx_shelxl_version_number     2014/7
_shelx_space_group_comment
;
The symmetry employed for this shelxl refinement is uniquely defined
by the following loop, which should always be used as a source of
symmetry information in preference to the above space-group names.
They are only intended as comments.
;
_shelx_estimated_absorpt_t_min   0.795
_shelx_estimated_absorpt_t_max   0.883
_shelx_res_file
;
 
    shelx.res created by SHELXL-2014/7
 
TITL shelxt_a.res in P-1
CELL  0.71073   7.5937  10.3520  10.9128   81.500   88.018   86.820
ZERR     2.00   0.0004   0.0004   0.0005    0.002    0.002    0.002
LATT   1
SFAC  C    H    N    O    K    FE
UNIT  26 22 2 22 4 2
MERG   0
FMAP   2
PLAN   20
SIZE     0.088   0.114   0.166
ACTA    50.00
BOND   $H
LIST   4
WPDB  -2
L.S.  10
TEMP  -173.00
WGHT    0.053400    0.368500
BASF   0.48306
FVAR       0.78147   0.74075   0.79457
C1    1    0.366844    0.289097    0.254456    11.00000    0.00923
C2    1    0.040845    0.349171    0.230268    11.00000    0.00488
C3    1    0.163607    0.812458    0.239005    11.00000    0.00648
C4    1    0.495446    0.751689    0.237848    11.00000    0.00735
C5    1    0.144208    0.183981    0.410452    11.00000    0.00978
AFIX 137
H5A   2    0.239959    0.157295    0.468223    11.00000   -1.50000
H5B   2    0.130544    0.115404    0.358975    11.00000   -1.50000
H5C   2    0.034002    0.197735    0.457272    11.00000   -1.50000
AFIX   0
C6    1    0.187729    0.310130    0.328247    11.00000    0.00799
C7    1    0.217943    0.419404    0.405588    11.00000    0.00759
C8    1    0.211761    0.399576    0.533759    11.00000    0.01034
AFIX  43
H8    2    0.179183    0.318123    0.578351    11.00000   -1.20000
AFIX   0
C9    1    0.253766    0.500239    0.595762    11.00000    0.00807
AFIX  43
H9    2    0.255838    0.486738    0.683731    11.00000   -1.20000
AFIX   0
C10   1    0.292454    0.619426    0.531157    11.00000    0.00911
AFIX  43
H10   2    0.319630    0.689216    0.573706    11.00000   -1.20000
AFIX   0
C11   1    0.291401    0.636862    0.402350    11.00000    0.00553
C12   1    0.328267    0.768704    0.322610    11.00000    0.00629
C13   1    0.358711    0.874368    0.403225    11.00000    0.00822
AFIX 137
H13A  2    0.253829    0.886266    0.456070    11.00000   -1.50000
H13B  2    0.380995    0.956946    0.349880    11.00000   -1.50000
H13C  2    0.460769    0.847436    0.455254    11.00000   -1.50000
AFIX   0
N1    3    0.258303    0.536455    0.343146    11.00000    0.00182    0.00637 =
         0.00780   -0.00101    0.00062   -0.00077
O1    4    0.391570    0.372587    0.156404    11.00000    0.00634    0.00915 =
         0.00926   -0.00075    0.00054    0.00040
O2    4    0.045662    0.458810    0.161985    11.00000    0.00593    0.00860 =
         0.00720    0.00253   -0.00060   -0.00179
O3    4    0.127988    0.743875    0.157361    11.00000    0.00491    0.01325 =
         0.01355   -0.00465   -0.00473    0.00087
O4    4    0.489552    0.670452    0.159777    11.00000    0.00690    0.01121 =
         0.01131   -0.00667    0.00115   -0.00084
O5    4    0.471614    0.200306    0.295454    11.00000    0.00677    0.01155 =
         0.01852    0.00198   -0.00017    0.00505
O6    4   -0.071652    0.269062    0.221346    11.00000    0.00668    0.01046 =
         0.01977    0.00093   -0.00722   -0.00282
O7    4    0.079244    0.915848    0.255335    11.00000    0.01234
O8    4    0.623814    0.816375    0.246639    11.00000    0.00787    0.00956 =
         0.01360   -0.00222    0.00022   -0.00334
O9    4    0.293244    0.591410   -0.048592    11.00000    0.00633    0.01624 =
         0.00440    0.00242    0.00141    0.00011
AFIX   3
H9X   2    0.382345    0.605513   -0.095393    11.00000   -1.20000
H9Y   2    0.223344    0.641113   -0.100293    11.00000   -1.20000
AFIX   0
O10   4    0.631765    1.103197    0.048452    11.00000    0.05571
PART    1
O11   4    0.738256    0.914219   -0.065574    31.00000    0.02805    0.04278 =
         0.07458    0.03258    0.01003    0.00654
PART    2
O11A  4    0.887235    0.924409   -0.026978   -31.00000    0.00651
PART    0
K1    5    0.822698    0.672851    0.059357    11.00000    0.00756    0.01222 =
         0.01117   -0.00212   -0.00006    0.00175
PART    1
K2    5    0.761723    1.042047    0.277024    21.00000    0.00627    0.00831 =
         0.01800   -0.00188   -0.00020    0.00021
PART    2
K2A   5    0.765351    1.046010    0.196129   -21.00000    0.00923    0.01071 =
         0.04462   -0.00440   -0.00254   -0.00178
PART    0
FE01  6    0.272000    0.564874    0.146086    11.00000    0.00448    0.00646 =
         0.00710   -0.00117    0.00048   -0.00082
HKLF    5
 
REM  shelxt_a.res in P-1
REM R1 =  0.0418 for    7942 Fo > 4sig(Fo)  and  0.0508 for all    9131 data
REM    196 parameters refined using      0 restraints
 
END
 
WGHT      0.0534      0.3685
 
REM Highest difference peak  0.784,  deepest hole -0.686,  1-sigma level  0.114
Q1    1   0.7399  0.9625 -0.0129  11.00000  0.05    0.78
Q2    1   0.7142  0.8905 -0.0835  11.00000  0.05    0.64
Q3    1   0.1598  0.2258  0.1571  11.00000  0.05    0.56
Q4    1   0.7667  0.9446 -0.1363  11.00000  0.05    0.55
Q5    1   0.0273  0.8925  0.2954  11.00000  0.05    0.49
Q6    1   0.1236  0.9402  0.2350  11.00000  0.05    0.49
Q7    1   0.2212  0.3587  0.3725  11.00000  0.05    0.47
Q8    1   0.3090  0.6544  0.5317  11.00000  0.05    0.46
Q9    1   0.3030  0.7098  0.3606  11.00000  0.05    0.43
Q10   1   0.3048  0.5363  0.5821  11.00000  0.05    0.42
Q11   1   0.1450  0.7684  0.2036  11.00000  0.05    0.42
Q12   1   0.8394  0.9283 -0.0919  11.00000  0.05    0.41
Q13   1   0.3950  0.4662  0.0234  11.00000  0.05    0.40
Q14   1   0.0623  0.4741  0.2221  11.00000  0.05    0.40
Q15   1   0.2907  0.5115 -0.0411  11.00000  0.05    0.39
Q16   1   0.3492  0.8181  0.3630  11.00000  0.05    0.39
Q17   1   0.2474  0.4344  0.5823  11.00000  0.05    0.38
Q18   1   0.2576  0.3079  0.2996  11.00000  0.05    0.38
Q19   1   0.2190  0.5853  0.0036  11.00000  0.05    0.38
Q20   1   0.2077  0.0363  0.2689  11.00000  0.05    0.36
;
_shelx_res_checksum              82829
_shelx_hkl_file
;
  -1   0   0 10.4699 3.01560   1
  -1   0   0 16.7878 3.35559   1
   1   0   0 9.52037 2.49605   1
   1   0   0 12.8038 2.70318   1
  -2   0   0 5004.63 152.666   1
  -2   0   0 4890.78 152.644   1
   2   0   0 4806.47 152.213   1
   2   0   0 4945.44 152.166   1
  -3   0   0 12.6901 5.04920   1
  -3   0   0 17.6125 5.67550   1
   3   0   0 12.7937 5.00208   1
  -4   0   0 821.288 36.0077   1
  -4   0   0 781.321 35.8620   1
   4   0   0 803.054 34.4824   1
  -5   0   0 84.3538 12.7669   1
   5   0   0 91.6570 12.1362   1
  -6   0   0 122.287 16.5069   1
   6   0   0 132.134 14.8972   1
  -8   0   0 82.6618 23.2952   1
  -8   0   0 91.3903 20.8598   1
   9   0   1 903.953 58.6884  -2
  -9   0   0 903.953 58.6884   1
  -9   1   0 359.675 37.0053   1
   8  -1   0 122.716 26.2365  -2
  -8   1   0 122.716 26.2365   1
   8  -1   0 65.9181 32.6018  -2
  -8   1   0 65.9181 32.6018   1
  -7   1   0 58.3483 18.1074  -2
   7  -1   0 58.3483 18.1074   1
   7  -1   0 80.3540 26.0997  -2
  -7   1   0 80.3540 26.0997   1
  -6   1   0 916.603 45.4564  -2
   6  -1   0 916.603 45.4564   1
   6  -1   0 935.872 55.4359  -2
  -6   1   0 935.872 55.4359   1
  -5   1   0 3.18938 10.0944  -2
   5  -1   0 3.18938 10.0944   1
  -4   1   0 6851.43 216.752  -2
   4  -1   0 6851.43 216.752   1
   4  -1   0 6772.67 216.025  -2
  -4   1   0 6772.67 216.025   1
  -3   1   0 2.31657 8.82512  -2
   3  -1   0 2.31657 8.82512   1
   3  -1   0 5.64178 9.62526  -2
  -3   1   0 5.64178 9.62526   1
   2  -1   0 1328.54 47.1323   1
   2  -1   0 1319.55 47.2459   1
  -2   1   0 1347.82 50.1892   1
  -2   1   0 1374.92 47.5860   1
  -2   1   0 1381.38 47.2910   1
   1  -1   0 91.2273 6.82558   1
   1  -1   0 80.1847 6.88237   1
   1  -1   0 84.2103 6.35241   1
  -1   1   0 98.6863 6.83605   1
  -1   1   0 95.8671 7.51628   1
   0   1   0 1517.28 48.4518   1
  -1  -1   0 36.4910 2.88418   1
  -1  -1   0 29.4540 2.88641   1
  -1  -1   0 29.5808 6.16714   1
   1   1   0 35.1124 2.20960   1
   1   1   0 38.0896 6.31988   1
  -2  -1   0 323.175 15.2848   1
  -2  -1   0 335.008 15.6207   1
   2   1   0 390.557 22.7046   1
   2   1   0 349.657 14.8922   1
  -3  -1   0 437.314 21.5384   1
  -3  -1   0 461.876 21.5713   1
   3   1   0 449.529 20.2129   1
   3   1   0 477.948 29.2754   1
  -4  -1   0 90.1842 11.1642   1
  -4  -1   0 95.0586 11.5237   1
   4   1   0 103.003 10.2294   1
   4   1   0 110.255 17.3320   1
  -5  -1   0 464.443 27.7264   1
   5   1   0 519.695 25.6927   1
  -6  -1  -1 419.742 26.3385  -2
   6   1   0 419.742 26.3385   1
  -7  -1   0 683.818 48.5582   1
  -8  -1  -1 62.3255 17.5491  -2
   8   1   0 62.3255 17.5491   1
   9   1   1 849.843 53.7182  -2
  -9  -1   0 849.843 53.7182   1
   8  -2   0 844.291 59.3333  -2
  -8   2   0 844.291 59.3333   1
   8  -2   0 875.213 51.2312  -2
  -8   2   0 875.213 51.2312   1
  -7   2   0 4.52469 13.8335  -2
   7  -2   0 4.52469 13.8335   1
   7  -2   0 0.98008 14.3814  -2
  -7   2   0 0.98008 14.3814   1
   7  -2   0 -23.428 17.2143  -2
  -7   2   0 -23.428 17.2143   1
  -6   2   0 9999.99 314.369  -2
   6  -2   0 9999.99 314.369   1
   6  -2   0 9954.52 314.556  -2
  -6   2   0 9954.52 314.556   1
   6  -2   0 9393.50 328.123  -2
  -6   2   0 9393.50 328.123   1
  -5   2   0 302.141 24.0622  -2
   5  -2   0 302.141 24.0622   1
   5  -2   0 251.187 27.0403  -2
  -5   2   0 251.187 27.0403   1
   4  -2   0 4212.10 139.620   1
  -4   2   0 4182.88 146.447   1
   3  -2   0 12.3554 6.07857   1
   3  -2   0 18.5868 6.56092   1
  -3   2   0 8.50649 6.45368   1
   2  -2   0 4919.46 153.409   1
   2  -2   0 4874.13 153.659   1
   2  -2   0 4910.90 158.134   1
  -2   2   0 4846.16 152.861   1
  -2   2   0 4873.03 153.131   1
  -2   2   0 4885.60 158.736   1
   1  -2   0 17.5580 5.16923   1
   1  -2   0 17.7495 4.91938   1
   1  -2   0 12.5529 3.87692   1
  -1   2   0 17.1306 5.79870   1
  -1   2   0 15.5651 4.51792   1
   0  -2   0 2.82388 3.13546   1
   0  -2   0 3.41092 1.75196   1
   0   2   0 5.68033 3.52644   1
   0   2   0 5.51299 2.03338   1
   1   2   1 231.845 14.1440  -2
  -1  -2   0 231.845 14.1440   1
  -1  -2  -1 224.181 14.2315  -2
   1   2   0 224.181 14.2315   1
  -2  -2   0 502.406 19.3104   1
  -2  -2   0 509.564 28.9254   1
  -2  -2   0 526.669 19.2065   1
  -2  -2  -1 1295.47 49.1580  -2
   2   2   0 1295.47 49.1580   1
   3   2   1 5000.94 161.324  -2
  -3  -2   0 5000.94 161.324   1
   3   2   1 4955.91 160.990  -2
  -3  -2   0 4955.91 160.990   1
  -3  -2  -1 5493.78 158.968  -2
   3   2   0 5493.78 158.968   1
   4   2   1 2979.90 100.507  -2
  -4  -2   0 2979.90 100.507   1
   4   2   1 2943.04 99.5464  -2
  -4  -2   0 2943.04 99.5464   1
  -4  -2  -1 2943.74 119.286  -2
   4   2   0 2943.74 119.286   1
  -4  -2  -1 2992.16 96.0843  -2
   4   2   0 2992.16 96.0843   1
   5   2   1 747.733 36.3178  -2
  -5  -2   0 747.733 36.3178   1
   5   2   1 729.475 35.2468  -2
  -5  -2   0 729.475 35.2468   1
   6   2   1 22.2171 11.6500  -2
  -6  -2   0 22.2171 11.6500   1
  -7  -2  -1 324.891 25.9373  -2
   7   2   0 324.891 25.9373   1
  -8  -2   0 6.44041 11.7331   1
  -8  -2  -1 158.366 23.1835  -2
   8   2   0 158.366 23.1835   1
   8  -3   0 521.844 51.7666  -2
  -8   3   0 521.844 51.7666   1
   7  -3   0 3.36212 7.64940   1
  -7   3   0 23.4540 13.6984   1
  -7   3   0 1.73697 8.06743   1
   6  -3   0 394.749 28.3343   1
  -6   3   0 336.359 27.2600   1
  -6   3   0 349.858 31.5082   1
   5  -3   0 2.56094 6.34512   1
  -5   3   0 6.23555 7.89566   1
  -5   3   0 -1.1815 5.87245   1
   4  -3   0 66.4214 11.7924   1
  -4   3   0 97.0550 14.8678   1
  -4   3   0 75.8081 11.6131   1
   3  -3   0 153.602 13.8756   1
   3  -3   0 177.572 14.4908   1
   3  -3  -1 745.485 38.7930  -2
  -3   3   0 745.485 38.7930   1
  -2   3   1 495.844 26.2567  -2
   2  -3   0 495.844 26.2567   1
   2  -3  -1 489.937 27.2680  -2
  -2   3   0 489.937 27.2680   1
  -1   3   1 1359.14 45.9006  -2
   1  -3   0 1359.14 45.9006   1
  -1   3   1 1380.39 51.2423  -2
   1  -3   0 1380.39 51.2423   1
   1  -3  -1 1429.11 50.3894  -2
  -1   3   0 1429.11 50.3894   1
   1  -3  -1 1306.49 44.2687  -2
  -1   3   0 1306.49 44.2687   1
   1  -3  -1 1341.91 44.0271  -2
  -1   3   0 1341.91 44.0271   1
   1  -3  -1 1353.11 48.2822  -2
  -1   3   0 1353.11 48.2822   1
   0   3   1 574.027 24.5271  -2
   0  -3   0 574.027 24.5271   1
   0   3   1 560.349 21.4748  -2
   0  -3   0 560.349 21.4748   1
   0  -3  -1 547.257 23.7711  -2
   0   3   0 547.257 23.7711   1
   1   3   1 3034.26 102.280  -2
  -1  -3   0 3034.26 102.280   1
   1   3   1 3176.06 93.7408  -2
  -1  -3   0 3176.06 93.7408   1
   1   3   1 3308.26 106.043  -2
  -1  -3   0 3308.26 106.043   1
   1   3   1 2975.30 105.019  -2
  -1  -3   0 2975.30 105.019   1
  -1  -3  -1 2738.36 104.287  -2
   1   3   0 2738.36 104.287   1
  -1  -3  -1 3274.80 94.6211  -2
   1   3   0 3274.80 94.6211   1
   2   3   1 1252.67 57.0379  -2
  -2  -3   0 1252.67 57.0379   1
  -2  -3  -1 1343.24 41.3593  -2
   2   3   0 1343.24 41.3593   1
  -2  -3  -1 1289.63 50.8573  -2
   2   3   0 1289.63 50.8573   1
   3   3   1 4775.53 149.457  -2
  -3  -3   0 4775.53 149.457   1
   3   3   1 4944.66 149.422  -2
  -3  -3   0 4944.66 149.422   1
  -3  -3  -1 5199.64 175.727  -2
   3   3   0 5199.64 175.727   1
  -3  -3  -1 4419.14 162.399  -2
   3   3   0 4419.14 162.399   1
  -3  -3  -1 4636.73 143.743  -2
   3   3   0 4636.73 143.743   1
   4   3   1 178.838 14.6053  -2
  -4  -3   0 178.838 14.6053   1
  -4  -3  -1 164.614 13.2228  -2
   4   3   0 164.614 13.2228   1
  -5  -3   0 700.878 42.3982   1
  -5  -3   0 634.954 32.5134   1
  -5  -3   0 703.422 32.9716   1
  -5  -3  -1 822.391 30.8470  -2
   5   3   0 822.391 30.8470   1
  -6  -3   0 42.4278 11.6257   1
  -6  -3   0 30.5146 13.5294   1
   6   3   0 22.0563 7.41644   1
  -7  -3   0 350.567 34.9182   1
  -7  -3   0 333.611 27.4679   1
   7   3   0 323.481 23.8981   1
  -8  -3   0 -3.6102 7.83349   1
  -8  -3   0 0.21729 10.1194   1
   8   3   0 3.84829 7.38538   1
   8  -4  -1 820.405 63.9964  -2
  -8   4   0 820.405 63.9964   1
  -7   4   1 10.9996 19.2965  -2
   7  -4   0 10.9996 19.2965   1
   7  -4  -1 30.3923 26.1497  -2
  -7   4   0 30.3923 26.1497   1
  -6   4   1 326.458 29.2732  -2
   6  -4   0 326.458 29.2732   1
   6  -4  -1 361.947 29.1586  -2
  -6   4   0 361.947 29.1586   1
   6  -4  -1 338.577 34.3740  -2
  -6   4   0 338.577 34.3740   1
  -5   4   1 490.950 32.1942  -2
   5  -4   0 490.950 32.1942   1
   5  -4  -1 442.001 28.5734  -2
  -5   4   0 442.001 28.5734   1
   5  -4  -1 447.480 35.1577  -2
  -5   4   0 447.480 35.1577   1
  -4   4   1 503.745 29.9539  -2
   4  -4   0 503.745 29.9539   1
   4  -4  -1 540.999 28.2053  -2
  -4   4   0 540.999 28.2053   1
   4  -4  -1 537.724 33.8726  -2
  -4   4   0 537.724 33.8726   1
  -3   4   1 2671.65 94.6397  -2
   3  -4   0 2671.65 94.6397   1
  -3   4   1 2841.57 94.4517  -2
   3  -4   0 2841.57 94.4517   1
  -3   4   1 2656.42 98.5494  -2
   3  -4   0 2656.42 98.5494   1
   3  -4  -1 2716.60 99.7418  -2
  -3   4   0 2716.60 99.7418   1
  -2   4   1 2486.99 90.9771  -2
   2  -4   0 2486.99 90.9771   1
  -2   4   1 2513.56 86.8522  -2
   2  -4   0 2513.56 86.8522   1
   2  -4  -1 2596.28 91.0209  -2
  -2   4   0 2596.28 91.0209   1
   2  -4  -1 2656.80 83.0128  -2
  -2   4   0 2656.80 83.0128   1
  -1   4   1 2619.42 91.6824  -2
   1  -4   0 2619.42 91.6824   1
  -1   4   1 2634.11 83.9692  -2
   1  -4   0 2634.11 83.9692   1
  -1   4   1 2591.09 83.3024  -2
   1  -4   0 2591.09 83.3024   1
   1  -4  -1 2630.59 88.8334  -2
  -1   4   0 2630.59 88.8334   1
   1  -4  -1 2614.36 88.8868  -2
  -1   4   0 2614.36 88.8868   1
   0   4   1 1300.54 48.9083  -2
   0  -4   0 1300.54 48.9083   1
   0   4   0 164.285 12.6099   1
   0   4   0 143.858 8.54110   1
   1   4   1 352.298 21.0120  -2
  -1  -4   0 352.298 21.0120   1
   1   4   1 384.678 15.1472  -2
  -1  -4   0 384.678 15.1472   1
  -2  -4   0 93.8682 12.0527   1
  -2  -4   0 88.4702 13.9401   1
  -2  -4   0 114.733 12.0645   1
  -2  -4   0 106.072 11.6325   1
  -2  -4  -1 1535.02 60.2379  -2
   2   4   0 1535.02 60.2379   1
  -3  -4   0 445.359 32.2947   1
  -3  -4   0 434.512 18.3324   1
  -3  -4   0 464.881 18.4898   1
  -3  -4   0 449.686 27.3823   1
  -3  -4   0 489.756 29.0424   1
   3   4   0 447.112 17.7395   1
   3   4   0 444.363 26.9257   1
  -4  -4   0 18.8045 5.51533   1
  -4  -4   0 20.5315 14.1177   1
  -4  -4   0 19.5670 5.47467   1
  -4  -4   0 25.7766 10.2597   1
   4   4   0 19.2133 8.68428   1
   4   4   0 23.7738 5.69440   1
  -5  -4   0 0.42711 4.72121   1
  -5  -4   0 0.35307 4.59597   1
  -5  -4   0 4.05318 7.98633   1
  -5  -4  -2 136.818 20.7369  -2
   5   4   0 136.818 20.7369   1
   6   4   2 212.758 21.2467  -2
  -6  -4   0 212.758 21.2467   1
  -6  -4  -2 184.871 18.2879  -2
   6   4   0 184.871 18.2879   1
  -7  -4   0 104.756 21.0952   1
  -7  -4  -2 174.613 19.8789  -2
   7   4   0 174.613 19.8789   1
  -8   5   1 44.7167 20.6492  -2
   8  -5   0 44.7167 20.6492   1
  -7   5   1 805.041 48.9128  -2
   7  -5   0 805.041 48.9128   1
   7  -5  -1 835.264 54.6587  -2
  -7   5   0 835.264 54.6587   1
  -6   5   1 182.046 23.1418  -2
   6  -5   0 182.046 23.1418   1
   6  -5  -1 178.351 26.7702  -2
  -6   5   0 178.351 26.7702   1
  -5   5   1 566.538 36.2752  -2
   5  -5   0 566.538 36.2752   1
   5  -5  -1 513.332 38.6672  -2
  -5   5   0 513.332 38.6672   1
  -4   5   1 155.064 19.5095  -2
   4  -5   0 155.064 19.5095   1
   4  -5  -1 154.307 22.6361  -2
  -4   5   0 154.307 22.6361   1
   3  -5   0 558.036 31.2434   1
   3  -5   0 551.701 28.9216   1
   3  -5   0 607.204 29.6302   1
  -3   5   0 511.458 31.6710   1
  -3   5   0 562.994 25.6096   1
   2  -5   0 493.718 27.9639   1
   2  -5   0 451.703 23.4481   1
  -2   5   0 510.861 27.3540   1
  -2   5   0 485.751 22.1853   1
   1  -5   0 3749.20 132.291   1
   1  -5   0 3960.51 121.037   1
   1  -5   0 3890.76 120.839   1
  -1   5   0 3817.82 128.533   1
  -1   5   0 3820.30 125.087   1
   0  -5   0 11.2304 4.10363   1
   0  -5   0 14.9277 4.00803   1
   0  -5   0 14.7784 6.08923   1
   0   5   0 22.5221 6.72460   1
   1   5   2 1709.78 66.7943  -2
  -1  -5   0 1709.78 66.7943   1
   1   5   0 931.858 40.5616   1
   2   5   2 52.5326 10.4906  -2
  -2  -5   0 52.5326 10.4906   1
   3   5   2 773.382 25.3417  -2
  -3  -5   0 773.382 25.3417   1
  -3  -5  -2 730.132 37.3205  -2
   3   5   0 730.132 37.3205   1
  -3  -5  -2 657.099 24.1981  -2
   3   5   0 657.099 24.1981   1
   4   5   2 99.9456 10.3459  -2
  -4  -5   0 99.9456 10.3459   1
   4   5   2 76.7871 9.63755  -2
  -4  -5   0 76.7871 9.63755   1
  -4  -5  -2 89.9860 8.44022  -2
   4   5   0 89.9860 8.44022   1
  -4  -5  -2 89.1105 15.9997  -2
   4   5   0 89.1105 15.9997   1
   5   5   2 906.669 38.7355  -2
  -5  -5   0 906.669 38.7355   1
   5   5   2 805.985 37.2272  -2
  -5  -5   0 805.985 37.2272   1
  -5  -5  -2 869.201 34.1591  -2
   5   5   0 869.201 34.1591   1
  -5  -5  -2 848.433 46.4175  -2
   5   5   0 848.433 46.4175   1
   6   5   2 633.698 32.8932  -2
  -6  -5   0 633.698 32.8932   1
  -6  -5  -2 526.822 27.2704  -2
   6   5   0 526.822 27.2704   1
   7   5   2 478.089 32.3416  -2
  -7  -5   0 478.089 32.3416   1
  -7   6   1 170.831 30.1737  -2
   7  -6   0 170.831 30.1737   1
   6  -6   0 157.219 21.7423   1
  -6   6   0 146.550 24.6992   1
  -6   6   0 178.601 20.3225   1
   5  -6   0 467.647 32.0252   1
  -5   6   0 456.319 35.5731   1
   4  -6   0 43.7332 12.1859   1
   4  -6   0 32.0354 10.0040   1
  -4   6   0 23.1846 10.6601   1
   3  -6   0 54.9611 12.1810   1
   3  -6   0 42.4923 10.3538   1
   3  -6   0 51.9436 10.5469   1
  -3   6   0 57.2761 8.87113   1
  -3   6   0 60.0141 13.2492   1
  -2   6   2 40.3731 14.8484  -2
   2  -6   0 40.3731 14.8484   1
   2  -6  -2 62.0483 14.3957  -2
  -2   6   0 62.0483 14.3957   1
   2  -6  -2 55.3954 7.48814  -2
  -2   6   0 55.3954 7.48814   1
  -1   6   2 7.33046 7.79817  -2
   1  -6   0 7.33046 7.79817   1
  -1   6   2 -3.1347 10.5912  -2
   1  -6   0 -3.1347 10.5912   1
  -1   6   2 1.08518 5.36903  -2
   1  -6   0 1.08518 5.36903   1
   1  -6  -2 0.86666 9.95249  -2
  -1   6   0 0.86666 9.95249   1
   0   6   2 157.159 10.4928  -2
   0  -6   0 157.159 10.4928   1
   0   6   2 145.459 15.9053  -2
   0  -6   0 145.459 15.9053   1
   0  -6  -2 138.892 15.0141  -2
   0   6   0 138.892 15.0141   1
   1   6   2 813.048 29.8155  -2
  -1  -6   0 813.048 29.8155   1
   1   6   2 841.278 34.7066  -2
  -1  -6   0 841.278 34.7066   1
   1   6   2 852.824 39.3524  -2
  -1  -6   0 852.824 39.3524   1
   1   6   2 790.693 39.3629  -2
  -1  -6   0 790.693 39.3629   1
   2   6   2 939.234 41.9730  -2
  -2  -6   0 939.234 41.9730   1
   2   6   2 952.339 30.3107  -2
  -2  -6   0 952.339 30.3107   1
   2   6   2 882.025 50.6651  -2
  -2  -6   0 882.025 50.6651   1
   2   6   2 963.926 44.5846  -2
  -2  -6   0 963.926 44.5846   1
   2   6   2 965.894 45.3613  -2
  -2  -6   0 965.894 45.3613   1
   3   6   2 1111.26 48.8932  -2
  -3  -6   0 1111.26 48.8932   1
   3   6   2 1051.92 49.2749  -2
  -3  -6   0 1051.92 49.2749   1
   3   6   2 943.076 47.4987  -2
  -3  -6   0 943.076 47.4987   1
   3   6   2 1030.03 57.1683  -2
  -3  -6   0 1030.03 57.1683   1
  -3  -6  -2 784.855 44.1333  -2
   3   6   0 784.855 44.1333   1
   4   6   2 243.572 14.5000  -2
  -4  -6   0 243.572 14.5000   1
   4   6   2 242.781 14.6247  -2
  -4  -6   0 242.781 14.6247   1
  -4  -6  -2 253.202 12.2184  -2
   4   6   0 253.202 12.2184   1
  -4  -6  -2 249.936 22.9221  -2
   4   6   0 249.936 22.9221   1
   5   6   2 345.239 22.5617  -2
  -5  -6   0 345.239 22.5617   1
  -5  -6  -2 375.402 18.4331  -2
   5   6   0 375.402 18.4331   1
   6   6   2 911.109 43.4122  -2
  -6  -6   0 911.109 43.4122   1
  -7  -6   0 -0.0901 6.82120   1
  -7  -6   0 9.85203 11.7896   1
  -8  -6   0 115.925 20.6437   1
  -7   7   2 558.926 46.3335  -2
   7  -7   0 558.926 46.3335   1
  -6   7   2 25.7051 22.8231  -2
   6  -7   0 25.7051 22.8231   1
  -5   7   2 530.526 37.9948  -2
   5  -7   0 530.526 37.9948   1
   5  -7  -2 606.636 42.9143  -2
  -5   7   0 606.636 42.9143   1
  -4   7   2 70.9273 19.7957  -2
   4  -7   0 70.9273 19.7957   1
  -4   7   2 69.3698 17.2321  -2
   4  -7   0 69.3698 17.2321   1
   4  -7  -2 71.3123 17.9216  -2
  -4   7   0 71.3123 17.9216   1
  -3   7   2 2183.64 83.2205  -2
   3  -7   0 2183.64 83.2205   1
  -3   7   2 2420.60 91.8610  -2
   3  -7   0 2420.60 91.8610   1
   3  -7  -2 2230.46 80.5522  -2
  -3   7   0 2230.46 80.5522   1
   3  -7  -2 2147.68 85.8991  -2
  -3   7   0 2147.68 85.8991   1
  -2   7   2 24.3452 8.23460  -2
   2  -7   0 24.3452 8.23460   1
  -2   7   2 17.8249 10.3715  -2
   2  -7   0 17.8249 10.3715   1
   2  -7  -2 22.4184 8.95704  -2
  -2   7   0 22.4184 8.95704   1
  -1   7   2 272.695 15.2862  -2
   1  -7   0 272.695 15.2862   1
  -1   7   2 288.567 23.9745  -2
   1  -7   0 288.567 23.9745   1
  -1   7   2 269.349 15.5105  -2
   1  -7   0 269.349 15.5105   1
   1  -7  -2 254.149 19.5529  -2
  -1   7   0 254.149 19.5529   1
   0   7   2 418.510 23.6039  -2
   0  -7   0 418.510 23.6039   1
   0   7   2 497.568 20.5968  -2
   0  -7   0 497.568 20.5968   1
   0   7   2 496.598 30.0867  -2
   0  -7   0 496.598 30.0867   1
   0  -7  -2 447.653 26.6573  -2
   0   7   0 447.653 26.6573   1
   1   7   2 1341.38 43.7794  -2
  -1  -7   0 1341.38 43.7794   1
   1   7   2 1206.32 53.2061  -2
  -1  -7   0 1206.32 53.2061   1
   1   7   2 1042.76 52.9135  -2
  -1  -7   0 1042.76 52.9135   1
   2   7   2 488.702 32.6264  -2
  -2  -7   0 488.702 32.6264   1
   2   7   2 459.496 38.3587  -2
  -2  -7   0 459.496 38.3587   1
   3   7   2 680.905 41.0494  -2
  -3  -7   0 680.905 41.0494   1
  -4  -7   0 9.47446 11.7248   1
  -4  -7   0 5.12362 3.71273   1
  -4  -7   0 3.28196 3.34462   1
  -4  -7   0 6.48612 7.77769   1
   4   7   0 -4.6548 7.16509   1
  -5  -7   0 224.575 32.1936   1
  -5  -7   0 162.643 21.7372   1
  -5  -7   0 218.558 16.0575   1
  -6  -7   0 70.0658 18.9393   1
  -6  -7   0 66.7416 12.5532   1
   7   7   3 456.928 32.8656  -2
  -7  -7   0 456.928 32.8656   1
  -6   8   2 -9.2030 13.8699  -2
   6  -8   0 -9.2030 13.8699   1
  -5   8   2 182.585 24.3084  -2
   5  -8   0 182.585 24.3084   1
  -4   8   2 226.859 25.0981  -2
   4  -8   0 226.859 25.0981   1
   4  -8  -2 204.295 23.9520  -2
  -4   8   0 204.295 23.9520   1
  -3   8   2 776.286 45.7527  -2
   3  -8   0 776.286 45.7527   1
  -3   8   2 699.357 38.7904  -2
   3  -8   0 699.357 38.7904   1
   3  -8  -2 754.930 39.8589  -2
  -3   8   0 754.930 39.8589   1
  -2   8   2 91.1019 15.5743  -2
   2  -8   0 91.1019 15.5743   1
  -2   8   2 93.1367 21.2165  -2
   2  -8   0 93.1367 21.2165   1
   2  -8  -2 90.4253 16.9404  -2
  -2   8   0 90.4253 16.9404   1
   1  -8   0 205.813 13.9948   1
   1  -8   0 225.607 14.8851   1
   1  -8   0 177.431 17.1979   1
   1  -8   0 195.339 22.2515   1
  -1   8   0 200.131 18.4355   1
   0  -8   0 767.184 33.1977   1
   0  -8   0 733.550 42.1804   1
   0  -8   0 764.998 29.4271   1
   0   8   0 725.348 38.8381   1
  -1  -8   0 47.7980 8.28652   1
  -1  -8   0 52.7616 12.9748   1
  -1  -8   0 49.2119 6.84414   1
  -1  -8   0 45.5359 13.1263   1
  -2  -8   0 867.885 56.5850   1
  -2  -8   0 944.841 50.5812   1
  -2  -8   0 965.340 43.7612   1
  -2  -8   0 968.040 49.9795   1
   3   8   3 56.9440 18.0550  -2
  -3  -8   0 56.9440 18.0550   1
   3   8   3 54.8364 25.6688  -2
  -3  -8   0 54.8364 25.6688   1
   4   8   3 322.026 15.9882  -2
  -4  -8   0 322.026 15.9882   1
   4   8   3 401.118 44.0937  -2
  -4  -8   0 401.118 44.0937   1
   5   8   3 44.1322 10.5469  -2
  -5  -8   0 44.1322 10.5469   1
   5   8   3 45.6359 17.2639  -2
  -5  -8   0 45.6359 17.2639   1
   6   8   3 436.896 26.7614  -2
  -6  -8   0 436.896 26.7614   1
   6   8   3 402.566 37.3493  -2
  -6  -8   0 402.566 37.3493   1
   7   8   3 141.742 18.6813  -2
  -7  -8   0 141.742 18.6813   1
  -5   9   2 500.820 40.9783  -2
   5  -9   0 500.820 40.9783   1
   4  -9   0 311.474 26.6461   1
   3  -9   0 26.1302 9.77780   1
  -3   9   0 19.6781 9.59326   1
   2  -9   0 39.5643 10.9968   1
   2  -9   0 22.8766 11.4074   1
   2  -9  -3 113.776 19.4666  -2
  -2   9   0 113.776 19.4666   1
  -1   9   3 245.611 29.6846  -2
   1  -9   0 245.611 29.6846   1
  -1   9   3 211.167 17.4064  -2
   1  -9   0 211.167 17.4064   1
   1  -9  -3 226.387 22.9985  -2
  -1   9   0 226.387 22.9985   1
   0   9   3 159.091 10.3935  -2
   0  -9   0 159.091 10.3935   1
   0   9   3 127.700 17.4593  -2
   0  -9   0 127.700 17.4593   1
   0   9   3 165.850 15.9587  -2
   0  -9   0 165.850 15.9587   1
   0   9   3 149.378 23.8009  -2
   0  -9   0 149.378 23.8009   1
   1   9   3 828.039 45.8759  -2
  -1  -9   0 828.039 45.8759   1
   1   9   3 697.801 33.2152  -2
  -1  -9   0 697.801 33.2152   1
   1   9   3 660.383 41.5699  -2
  -1  -9   0 660.383 41.5699   1
   2   9   3 5.58256 8.59441  -2
  -2  -9   0 5.58256 8.59441   1
   2   9   3 11.9030 17.7143  -2
  -2  -9   0 11.9030 17.7143   1
   2   9   3 -5.7248 8.81593  -2
  -2  -9   0 -5.7248 8.81593   1
   3   9   3 40.3926 10.4573  -2
  -3  -9   0 40.3926 10.4573   1
   3   9   3 40.9362 18.5976  -2
  -3  -9   0 40.9362 18.5976   1
   3   9   3 49.9970 13.9843  -2
  -3  -9   0 49.9970 13.9843   1
   4   9   3 517.361 49.5123  -2
  -4  -9   0 517.361 49.5123   1
   4   9   3 492.793 19.7749  -2
  -4  -9   0 492.793 19.7749   1
   4   9   3 561.580 37.1325  -2
  -4  -9   0 561.580 37.1325   1
   5   9   3 307.403 30.8766  -2
  -5  -9   0 307.403 30.8766   1
   5   9   3 291.636 18.8577  -2
  -5  -9   0 291.636 18.8577   1
   6   9   3 254.286 22.2306  -2
  -6  -9   0 254.286 22.2306   1
  -4  10   3 522.997 38.9384  -2
   4 -10   0 522.997 38.9384   1
  -3  10   3 -6.7053 15.4843  -2
   3 -10   0 -6.7053 15.4843   1
  -2  10   3 693.096 36.3896  -2
   2 -10   0 693.096 36.3896   1
   2 -10  -3 630.945 37.5452  -2
  -2  10   0 630.945 37.5452   1
  -1  10   3 96.4994 20.3778  -2
   1 -10   0 96.4994 20.3778   1
  -1  10   3 100.118 12.9294  -2
   1 -10   0 100.118 12.9294   1
   1 -10  -3 116.460 16.8194  -2
  -1  10   0 116.460 16.8194   1
   0  10   3 865.449 35.0964  -2
   0 -10   0 865.449 35.0964   1
   0  10   3 1020.60 35.6589  -2
   0 -10   0 1020.60 35.6589   1
   2  10   3 235.714 35.2201  -2
  -2 -10   0 235.714 35.2201   1
   3  10   3 98.2858 32.6759  -2
  -3 -10   0 98.2858 32.6759   1
   4  10   3 72.5570 33.9504  -2
  -4 -10   0 72.5570 33.9504   1
  -5 -10   0 171.938 14.1541   1
  -5 -10   0 125.214 23.4884   1
  -5 -10   0 151.420 35.5425   1
  -3  11   3 136.119 22.8114  -2
   3 -11   0 136.119 22.8114   1
  -2  11   3 184.362 22.4624  -2
   2 -11   0 184.362 22.4624   1
  -1  11   3 364.775 25.4852  -2
   1 -11   0 364.775 25.4852   1
   0 -11   0 2.77373 4.70706   1
  -2 -11   0 413.399 43.3598   1
   3  11   4 167.303 39.9818  -2
  -3 -11   0 167.303 39.9818   1
   4  11   4 317.186 50.5831  -2
  -4 -11   0 317.186 50.5831   1
  -1  12   4 58.6147 17.8494  -2
   1 -12   0 58.6147 17.8494   1
   0  12   4 89.4079 15.5038  -2
   0 -12   0 89.4079 15.5038   1
   2  12   4 783.897 64.1288  -2
  -2 -12   0 783.897 64.1288   1
   1  12   5 139.693 14.8331  -2
  -1 -12   1 139.693 14.8331   1
   0  12   5 74.1437 17.5458  -2
   0 -12   1 74.1437 17.5458   1
   3  11   5 27.1516 30.7413  -2
  -3 -11   1 27.1516 30.7413   1
  -2 -11   1 53.5122 20.8302   1
   0  11   4 297.222 21.2579  -2
   0 -11   1 297.222 21.2579   1
  -1  11   4 281.153 24.6412  -2
   1 -11   1 281.153 24.6412   1
  -2  11   4 325.161 28.8798  -2
   2 -11   1 325.161 28.8798   1
  -3  11   4 159.090 24.7346  -2
   3 -11   1 159.090 24.7346   1
  -5 -10   1 300.508 44.5263   1
  -5 -10   1 272.649 31.7829   1
  -5 -10   1 256.983 18.5962   1
   4  10   4 261.566 45.9504  -2
  -4 -10   1 261.566 45.9504   1
   3  10   4 39.1555 29.1889  -2
  -3 -10   1 39.1555 29.1889   1
   0  10   4 277.907 16.9138  -2
   0 -10   1 277.907 16.9138   1
   1 -10  -4 308.051 26.8687  -2
  -1  10  -1 308.051 26.8687   1
  -1  10   4 287.118 20.4151  -2
   1 -10   1 287.118 20.4151   1
   2 -10  -4 53.4809 15.5454  -2
  -2  10  -1 53.4809 15.5454   1
  -2  10   4 42.1488 14.5120  -2
   2 -10   1 42.1488 14.5120   1
  -3  10   4 101.331 20.2240  -2
   3 -10   1 101.331 20.2240   1
  -4  10   4 41.3145 22.6034  -2
   4 -10   1 41.3145 22.6034   1
  -6  -9   1 135.048 24.6745   1
   5   9   4 435.282 24.2870  -2
  -5  -9   1 435.282 24.2870   1
   5   9   4 451.318 53.4397  -2
  -5  -9   1 451.318 53.4397   1
   5   9   4 421.039 36.4670  -2
  -5  -9   1 421.039 36.4670   1
   4   9   4 281.004 15.1874  -2
  -4  -9   1 281.004 15.1874   1
   4   9   4 350.907 30.0035  -2
  -4  -9   1 350.907 30.0035   1
   4   9   4 307.932 39.4533  -2
  -4  -9   1 307.932 39.4533   1
   3   9   4 97.0857 17.8681  -2
  -3  -9   1 97.0857 17.8681   1
   3   9   4 59.0538 23.2324  -2
  -3  -9   1 59.0538 23.2324   1
   3   9   4 88.1076 14.8681  -2
  -3  -9   1 88.1076 14.8681   1
   2   9   4 221.976 23.0022  -2
  -2  -9   1 221.976 23.0022   1
   2   9   4 243.380 21.1987  -2
  -2  -9   1 243.380 21.1987   1
   1   9   4 401.607 30.3229  -2
  -1  -9   1 401.607 30.3229   1
   1   9   4 437.527 26.7140  -2
  -1  -9   1 437.527 26.7140   1
   0  -9  -4 769.873 43.8027  -2
   0   9  -1 769.873 43.8027   1
   0   9   4 867.393 36.5931  -2
   0  -9   1 867.393 36.5931   1
   0   9   4 763.339 31.8193  -2
   0  -9   1 763.339 31.8193   1
   1  -9  -4 270.848 26.2126  -2
  -1   9  -1 270.848 26.2126   1
  -1   9   4 260.039 20.7476  -2
   1  -9   1 260.039 20.7476   1
  -1   9   4 248.810 32.9582  -2
   1  -9   1 248.810 32.9582   1
   2  -9  -4 585.913 38.6307  -2
  -2   9  -1 585.913 38.6307   1
   2  -9   1 395.769 34.4198   1
   2  -9   1 346.990 23.9458   1
  -3   9  -1 29.9755 12.6567   1
   3  -9   1 46.8740 12.9420   1
   3  -9   1 37.0985 13.4717   1
  -4   9  -1 69.5701 18.1503   1
   4  -9   1 29.4622 12.0427   1
  -5   9   3 42.7252 24.3020  -2
   5  -9   1 42.7252 24.3020   1
   7   8   4 85.8805 16.0955  -2
  -7  -8   1 85.8805 16.0955   1
   6   8   4 56.0421 19.7741  -2
  -6  -8   1 56.0421 19.7741   1
   5   8   4 209.420 16.9492  -2
  -5  -8   1 209.420 16.9492   1
   5   8   4 205.870 26.4994  -2
  -5  -8   1 205.870 26.4994   1
   4   8   4 378.324 44.2179  -2
  -4  -8   1 378.324 44.2179   1
   4   8   4 391.030 19.6360  -2
  -4  -8   1 391.030 19.6360   1
   3   8   4 64.9380 27.5646  -2
  -3  -8   1 64.9380 27.5646   1
   3   8   4 65.1033 18.0332  -2
  -3  -8   1 65.1033 18.0332   1
   2   8   4 42.9797 16.3251  -2
  -2  -8   1 42.9797 16.3251   1
   1   8  -1 133.222 17.4528   1
  -1  -8   1 103.439 12.3377   1
  -1  -8   1 80.1130 15.1375   1
  -1  -8   1 104.695 17.4217   1
  -1  -8   1 99.2949 7.97883   1
   0   8  -1 1.32346 6.95803   1
   0  -8   1 4.40133 8.16425   1
   0  -8   1 7.97721 3.88301   1
   0  -8   1 8.60103 5.41081   1
   0  -8   1 9.91008 4.96425   1
  -1   8  -1 58.7963 13.0914   1
  -1   8  -1 58.4720 6.09250   1
  -1   8   3 115.236 14.0600  -2
   1  -8   1 115.236 14.0600   1
   2  -8  -3 14.2992 16.1780  -2
  -2   8  -1 14.2992 16.1780   1
  -2   8   3 1.22476 13.7597  -2
   2  -8   1 1.22476 13.7597   1
  -2   8   3 0.21919 18.9743  -2
   2  -8   1 0.21919 18.9743   1
   3  -8  -3 892.305 47.9130  -2
  -3   8  -1 892.305 47.9130   1
  -3   8   3 854.978 53.0045  -2
   3  -8   1 854.978 53.0045   1
  -3   8   3 995.697 47.3132  -2
   3  -8   1 995.697 47.3132   1
   4  -8  -3 264.702 27.9869  -2
  -4   8  -1 264.702 27.9869   1
  -4   8   3 262.504 27.0042  -2
   4  -8   1 262.504 27.0042   1
  -4   8   3 291.855 32.3474  -2
   4  -8   1 291.855 32.3474   1
   5  -8  -3 487.676 39.7714  -2
  -5   8  -1 487.676 39.7714   1
  -5   8   3 526.781 37.9650  -2
   5  -8   1 526.781 37.9650   1
  -6   8   3 353.070 33.4987  -2
   6  -8   1 353.070 33.4987   1
  -7  -7   1 157.154 26.8761   1
  -6  -7   1 345.455 24.3137   1
  -6  -7   1 305.826 32.6726   1
  -5  -7   1 77.7227 23.0815   1
  -5  -7   1 39.7733 9.88670   1
  -5  -7   1 67.2267 16.1646   1
   4   7  -1 485.316 33.9429   1
  -4  -7   1 557.628 46.5645   1
  -4  -7   1 569.697 37.4631   1
  -4  -7   1 533.582 23.1479   1
  -4  -7   1 512.333 23.3748   1
  -3  -7   1 225.323 29.3928   1
  -3  -7   1 223.348 22.1336   1
  -3  -7   1 249.370 25.6760   1
  -3  -7   1 226.928 21.3311   1
   2   7   3 460.257 31.2462  -2
  -2  -7   1 460.257 31.2462   1
   1   7   3 468.313 29.5826  -2
  -1  -7   1 468.313 29.5826   1
   1   7   3 463.690 19.4829  -2
  -1  -7   1 463.690 19.4829   1
   1   7   3 471.217 25.7523  -2
  -1  -7   1 471.217 25.7523   1
   1   7   3 483.788 32.2906  -2
  -1  -7   1 483.788 32.2906   1
   0  -7  -3 131.699 16.7531  -2
   0   7  -1 131.699 16.7531   1
   0   7   3 156.060 20.0795  -2
   0  -7   1 156.060 20.0795   1
   0   7   3 113.710 12.3588  -2
   0  -7   1 113.710 12.3588   1
   1  -7  -3 141.831 16.1938  -2
  -1   7  -1 141.831 16.1938   1
   1  -7  -3 143.311 9.44211  -2
  -1   7  -1 143.311 9.44211   1
  -1   7   3 118.308 11.9276  -2
   1  -7   1 118.308 11.9276   1
  -1   7   3 140.353 19.5694  -2
   1  -7   1 140.353 19.5694   1
   2  -7  -3 43.0022 12.2004  -2
  -2   7  -1 43.0022 12.2004   1
   2  -7  -3 68.0198 7.54217  -2
  -2   7  -1 68.0198 7.54217   1
  -2   7   3 60.4008 10.0152  -2
   2  -7   1 60.4008 10.0152   1
  -2   7   3 46.1520 10.1417  -2
   2  -7   1 46.1520 10.1417   1
  -2   7   3 54.5019 14.7118  -2
   2  -7   1 54.5019 14.7118   1
   3  -7  -3 812.302 44.3526  -2
  -3   7  -1 812.302 44.3526   1
   3  -7  -3 805.802 37.4505  -2
  -3   7  -1 805.802 37.4505   1
  -3   7   3 760.292 39.6187  -2
   3  -7   1 760.292 39.6187   1
  -3   7   3 862.807 48.3538  -2
   3  -7   1 862.807 48.3538   1
   4  -7  -3 107.247 20.1538  -2
  -4   7  -1 107.247 20.1538   1
  -4   7   3 119.225 19.6977  -2
   4  -7   1 119.225 19.6977   1
  -4   7   3 131.788 22.9114  -2
   4  -7   1 131.788 22.9114   1
   5  -7  -3 588.337 45.1094  -2
  -5   7  -1 588.337 45.1094   1
  -5   7   3 522.601 38.3411  -2
   5  -7   1 522.601 38.3411   1
   6  -7  -3 19.2285 25.5509  -2
  -6   7  -1 19.2285 25.5509   1
  -6   7   3 -28.943 21.2760  -2
   6  -7   1 -28.943 21.2760   1
  -7   7   3 293.400 37.9412  -2
   7  -7   1 293.400 37.9412   1
  -7  -6   1 59.0255 14.7590   1
  -7  -6   1 59.3060 19.6006   1
   6   6   3 264.438 22.7964  -2
  -6  -6   1 264.438 22.7964   1
  -5  -6  -3 65.4513 18.7135  -2
   5   6  -1 65.4513 18.7135   1
  -5  -6  -3 80.3992 7.89156  -2
   5   6  -1 80.3992 7.89156   1
   5   6   3 106.323 14.2207  -2
  -5  -6   1 106.323 14.2207   1
  -4  -6  -3 145.422 19.4420  -2
   4   6  -1 145.422 19.4420   1
   4   6   3 143.316 12.0431  -2
  -4  -6   1 143.316 12.0431   1
   4   6   3 172.591 28.8717  -2
  -4  -6   1 172.591 28.8717   1
   4   6   3 122.610 11.0447  -2
  -4  -6   1 122.610 11.0447   1
   3   6   3 873.940 44.2883  -2
  -3  -6   1 873.940 44.2883   1
   3   6   3 722.121 27.1317  -2
  -3  -6   1 722.121 27.1317   1
   3   6   3 962.158 44.5101  -2
  -3  -6   1 962.158 44.5101   1
   3   6   3 878.305 52.8763  -2
  -3  -6   1 878.305 52.8763   1
   3   6   3 797.864 27.6058  -2
  -3  -6   1 797.864 27.6058   1
   2   6   3 66.3679 10.6349  -2
  -2  -6   1 66.3679 10.6349   1
   2   6   3 53.6944 9.52034  -2
  -2  -6   1 53.6944 9.52034   1
   2   6   3 35.4054 10.1600  -2
  -2  -6   1 35.4054 10.1600   1
   1   6   3 2146.76 84.0092  -2
  -1  -6   1 2146.76 84.0092   1
   1   6   3 2181.51 84.8998  -2
  -1  -6   1 2181.51 84.8998   1
   1   6   3 2178.99 68.3538  -2
  -1  -6   1 2178.99 68.3538   1
   1   6   3 2318.07 82.0539  -2
  -1  -6   1 2318.07 82.0539   1
   0  -6  -3 147.664 16.9038  -2
   0   6  -1 147.664 16.9038   1
   0   6   3 180.815 14.5004  -2
   0  -6   1 180.815 14.5004   1
   0   6   3 167.655 18.3064  -2
   0  -6   1 167.655 18.3064   1
   1  -6  -3 662.132 35.2076  -2
  -1   6  -1 662.132 35.2076   1
  -1   6   3 697.574 40.3378  -2
   1  -6   1 697.574 40.3378   1
  -1   6   3 700.359 29.5313  -2
   1  -6   1 700.359 29.5313   1
   2  -6  -3 1095.73 51.6252  -2
  -2   6  -1 1095.73 51.6252   1
   2  -6  -3 1100.28 45.2727  -2
  -2   6  -1 1100.28 45.2727   1
  -2   6   3 1154.37 55.8735  -2
   2  -6   1 1154.37 55.8735   1
  -3   6  -1 1146.88 49.5384   1
  -3   6  -1 1036.14 54.3074   1
   3  -6   1 1234.72 49.3011   1
   3  -6   1 1142.74 55.7745   1
   3  -6   1 1097.27 48.6080   1
  -4   6  -1 615.665 35.2178   1
  -4   6  -1 529.056 38.4917   1
   4  -6   1 598.558 34.3452   1
   4  -6   1 623.554 39.2741   1
  -5   6  -1 278.500 25.6884   1
  -5   6  -1 326.421 31.8623   1
   5  -6   1 244.464 24.2053   1
  -6   6  -1 108.863 22.6833   1
   6  -6   1 78.9029 18.4516   1
  -7   6   2 420.657 39.9639  -2
   7  -6   1 420.657 39.9639   1
   7   5   3 273.003 32.2997  -2
  -7  -5   1 273.003 32.2997   1
  -6  -5  -3 514.135 25.0862  -2
   6   5  -1 514.135 25.0862   1
   6   5   3 558.345 40.6336  -2
  -6  -5   1 558.345 40.6336   1
   6   5   3 485.183 29.3049  -2
  -6  -5   1 485.183 29.3049   1
  -5  -5  -3 177.232 12.0762  -2
   5   5  -1 177.232 12.0762   1
  -5  -5  -3 146.024 19.2377  -2
   5   5  -1 146.024 19.2377   1
   5   5   3 170.806 16.0216  -2
  -5  -5   1 170.806 16.0216   1
   5   5   3 156.349 14.9611  -2
  -5  -5   1 156.349 14.9611   1
   5   5   3 181.947 21.9110  -2
  -5  -5   1 181.947 21.9110   1
  -4  -5  -3 17.7798 4.95773  -2
   4   5  -1 17.7798 4.95773   1
  -4  -5  -3 -4.6789 10.6991  -2
   4   5  -1 -4.6789 10.6991   1
   4   5   3 18.4194 7.71774  -2
  -4  -5   1 18.4194 7.71774   1
   4   5   3 7.45274 7.61524  -2
  -4  -5   1 7.45274 7.61524   1
   4   5   3 65.5821 21.3869  -2
  -4  -5   1 65.5821 21.3869   1
   4   5   3 11.2280 11.8395  -2
  -4  -5   1 11.2280 11.8395   1
  -3  -5  -3 152.610 17.0924  -2
   3   5  -1 152.610 17.0924   1
   3   5   3 132.926 23.7424  -2
  -3  -5   1 132.926 23.7424   1
   3   5   3 120.416 9.17773  -2
  -3  -5   1 120.416 9.17773   1
   2   5   3 101.238 13.5864  -2
  -2  -5   1 101.238 13.5864   1
   1   5  -1 530.211 26.5259   1
   1   5  -1 520.706 29.1160   1
  -1  -5   1 550.895 18.9895   1
  -1  -5   1 567.617 26.8650   1
  -1  -5   1 563.804 29.1979   1
  -1  -5   1 587.300 30.9666   1
   0   5  -1 144.325 10.4309   1
   0   5  -1 136.678 14.2051   1
   0  -5   1 160.218 15.8613   1
   0  -5   1 162.150 12.2727   1
  -1   5  -1 722.740 35.5946   1
  -1   5  -1 738.446 30.2375   1
   1  -5   1 744.604 28.4865   1
   1  -5   1 703.469 29.1281   1
   1  -5   1 766.691 39.1581   1
  -2   5  -1 3.57986 4.65591   1
  -2   5  -1 3.97077 6.45663   1
   2  -5   1 7.30803 6.73182   1
   2  -5   1 -4.9401 3.64159   1
   2  -5   1 1.88806 4.29375   1
   3  -5  -2 541.284 35.9910  -2
  -3   5  -1 541.284 35.9910   1
   3  -5   1 489.833 25.6796   1
   3  -5   1 461.116 29.6172   1
   3  -5   1 385.314 24.2329   1
   4  -5  -2 298.381 29.3899  -2
  -4   5  -1 298.381 29.3899   1
  -4   5   2 322.468 26.6044  -2
   4  -5   1 322.468 26.6044   1
  -4   5   2 317.449 28.6337  -2
   4  -5   1 317.449 28.6337   1
   5  -5  -2 28.2135 18.8597  -2
  -5   5  -1 28.2135 18.8597   1
  -5   5   2 71.5283 18.0834  -2
   5  -5   1 71.5283 18.0834   1
   6  -5  -2 133.209 26.0756  -2
  -6   5  -1 133.209 26.0756   1
  -6   5   2 157.870 23.2816  -2
   6  -5   1 157.870 23.2816   1
   7  -5  -2 199.339 30.7853  -2
  -7   5  -1 199.339 30.7853   1
  -7   5   2 264.196 27.6255  -2
   7  -5   1 264.196 27.6255   1
  -8   5   2 191.599 28.2009  -2
   8  -5   1 191.599 28.2009   1
  -7  -4   1 112.842 21.6954   1
  -6  -4  -3 344.831 22.3406  -2
   6   4  -1 344.831 22.3406   1
  -6  -4   1 279.500 28.3202   1
  -6  -4   1 203.824 19.4801   1
  -5  -4  -3 861.826 46.2650  -2
   5   4  -1 861.826 46.2650   1
  -5  -4   1 212.513 16.9008   1
  -5  -4   1 214.708 16.4603   1
  -5  -4   1 216.068 23.2922   1
   4   4  -1 141.585 15.6136   1
   4   4  -1 128.070 9.06783   1
  -4  -4   1 110.787 19.5408   1
  -4  -4   1 127.913 10.8925   1
  -4  -4   1 125.428 16.1057   1
  -4  -4   1 119.643 11.2865   1
  -4  -4   1 113.207 15.6086   1
   3   4  -1 1444.31 58.9590   1
   3   4  -1 1434.02 44.2416   1
  -3  -4   1 1484.81 48.4889   1
  -3  -4   1 1335.94 59.7736   1
  -3  -4   1 1480.67 68.5738   1
  -3  -4   1 1384.87 48.6673   1
  -3  -4   1 1441.31 61.9620   1
   2   4  -1 2258.59 82.6848   1
  -2  -4   1 2258.60 83.1540   1
  -2  -4   1 2268.73 83.6484   1
  -2  -4   1 2147.08 84.3432   1
  -2  -4   1 2348.91 92.9985   1
   1   4  -1 1334.44 52.5439   1
   1   4  -1 1348.57 51.4255   1
   1   4   2 1532.07 58.7056  -2
  -1  -4   1 1532.07 58.7056   1
   0  -4  -2 2294.16 82.5273  -2
   0   4  -1 2294.16 82.5273   1
   0   4   2 2415.87 83.4230  -2
   0  -4   1 2415.87 83.4230   1
   0   4   2 2440.86 85.1166  -2
   0  -4   1 2440.86 85.1166   1
   1  -4  -2 3158.66 108.688  -2
  -1   4  -1 3158.66 108.688   1
   1  -4  -2 3014.32 107.583  -2
  -1   4  -1 3014.32 107.583   1
  -1   4   2 3211.30 111.979  -2
   1  -4   1 3211.30 111.979   1
  -1   4   2 3233.99 101.373  -2
   1  -4   1 3233.99 101.373   1
   2  -4  -2 3030.37 107.976  -2
  -2   4  -1 3030.37 107.976   1
   2  -4  -2 3066.68 96.1391  -2
  -2   4  -1 3066.68 96.1391   1
   2  -4  -2 3016.16 106.838  -2
  -2   4  -1 3016.16 106.838   1
  -2   4   2 3253.31 100.141  -2
   2  -4   1 3253.31 100.141   1
  -2   4   2 2828.85 107.532  -2
   2  -4   1 2828.85 107.532   1
  -2   4   2 2852.04 100.075  -2
   2  -4   1 2852.04 100.075   1
   3  -4  -2 77.9515 14.0170  -2
  -3   4  -1 77.9515 14.0170   1
  -3   4   2 86.7188 13.7390  -2
   3  -4   1 86.7188 13.7390   1
  -3   4   2 99.3609 11.7675  -2
   3  -4   1 99.3609 11.7675   1
  -3   4   2 89.0098 12.2578  -2
   3  -4   1 89.0098 12.2578   1
   4  -4  -2 439.324 32.8032  -2
  -4   4  -1 439.324 32.8032   1
   4  -4  -2 480.186 26.2001  -2
  -4   4  -1 480.186 26.2001   1
  -4   4   2 489.141 29.3844  -2
   4  -4   1 489.141 29.3844   1
   5  -4  -2 470.214 37.6004  -2
  -5   4  -1 470.214 37.6004   1
   5  -4  -2 518.984 30.6363  -2
  -5   4  -1 518.984 30.6363   1
  -5   4   2 547.228 34.2519  -2
   5  -4   1 547.228 34.2519   1
   6  -4  -2 480.790 42.1862  -2
  -6   4  -1 480.790 42.1862   1
  -6   4   2 478.318 36.0196  -2
   6  -4   1 478.318 36.0196   1
   7  -4  -2 60.6613 31.4069  -2
  -7   4  -1 60.6613 31.4069   1
  -7   4   2 26.9755 20.9636  -2
   7  -4   1 26.9755 20.9636   1
  -8  -3   1 15.7264 13.9216   1
   7   3  -1 145.717 16.0049   1
  -7  -3   1 120.985 22.3777   1
  -6  -3   1 447.532 36.3165   1
  -6  -3   1 451.551 28.9773   1
  -5  -3  -2 455.225 20.2086  -2
   5   3  -1 455.225 20.2086   1
  -5  -3   1 178.605 16.5606   1
  -5  -3   1 219.136 22.7853   1
  -5  -3   1 217.010 17.3046   1
   4   3   2 493.745 25.2331  -2
  -4  -3   1 493.745 25.2331   1
  -3  -3  -2 805.986 38.0961  -2
   3   3  -1 805.986 38.0961   1
   3   3   2 763.988 31.3818  -2
  -3  -3   1 763.988 31.3818   1
   3   3   2 888.079 31.9745  -2
  -3  -3   1 888.079 31.9745   1
   3   3   2 849.748 46.6354  -2
  -3  -3   1 849.748 46.6354   1
  -2  -3  -2 762.226 24.9581  -2
   2   3  -1 762.226 24.9581   1
  -2  -3  -2 796.840 33.8879  -2
   2   3  -1 796.840 33.8879   1
   2   3   2 843.676 26.7368  -2
  -2  -3   1 843.676 26.7368   1
   2   3   2 791.755 35.2668  -2
  -2  -3   1 791.755 35.2668   1
   2   3   2 791.517 40.6225  -2
  -2  -3   1 791.517 40.6225   1
   2   3   2 674.688 26.0674  -2
  -2  -3   1 674.688 26.0674   1
  -1  -3  -2 164.444 11.3599  -2
   1   3  -1 164.444 11.3599   1
  -1  -3  -2 118.420 11.0450  -2
   1   3  -1 118.420 11.0450   1
   1   3   2 111.397 9.77530  -2
  -1  -3   1 111.397 9.77530   1
   1   3   2 142.807 10.7839  -2
  -1  -3   1 142.807 10.7839   1
   1   3   2 128.503 11.2805  -2
  -1  -3   1 128.503 11.2805   1
   0  -3  -2 624.212 24.9220  -2
   0   3  -1 624.212 24.9220   1
   0  -3  -2 585.242 26.9898  -2
   0   3  -1 585.242 26.9898   1
   0   3   2 598.278 25.6883  -2
   0  -3   1 598.278 25.6883   1
   0   3   2 580.518 27.8280  -2
   0  -3   1 580.518 27.8280   1
   1  -3  -2 45.9880 11.0615  -2
  -1   3  -1 45.9880 11.0615   1
   1  -3  -2 32.4010 8.38930  -2
  -1   3  -1 32.4010 8.38930   1
   1  -3  -2 38.1680 5.67673  -2
  -1   3  -1 38.1680 5.67673   1
  -1   3   2 39.3895 11.1577  -2
   1  -3   1 39.3895 11.1577   1
  -1   3   2 40.4434 8.50598  -2
   1  -3   1 40.4434 8.50598   1
   2  -3  -2 1789.29 69.9412  -2
  -2   3  -1 1789.29 69.9412   1
  -2   3   2 1754.73 69.2120  -2
   2  -3   1 1754.73 69.2120   1
   3  -3  -2 763.014 40.7836  -2
  -3   3  -1 763.014 40.7836   1
   3  -3   1 792.581 39.6113   1
   3  -3   1 785.570 35.6177   1
   3  -3   1 829.002 35.9523   1
  -4   3  -1 189.062 20.1492   1
   4  -3   1 178.042 16.7078   1
  -5   3  -1 747.332 44.9994   1
   5  -3   1 756.660 39.4157   1
  -6   3  -1 114.500 21.0710   1
  -6   3  -1 176.985 19.3125   1
   6  -3   1 128.677 17.9612   1
  -7   3  -1 49.1073 17.4888   1
  -7   3  -1 54.3610 15.6344   1
   7  -3   1 61.5760 15.8701   1
   8  -3  -1 31.0326 33.6091  -2
  -8   3  -1 31.0326 33.6091   1
   9   2   2 260.438 35.0114  -2
  -9  -2   1 260.438 35.0114   1
  -8  -2  -2 618.150 38.8224  -2
   8   2  -1 618.150 38.8224   1
  -8  -2   1 739.109 54.4725   1
   5   2   2 1415.62 54.9425  -2
  -5  -2   1 1415.62 54.9425   1
   5   2   2 1219.79 52.5691  -2
  -5  -2   1 1219.79 52.5691   1
  -4  -2  -2 4093.45 134.303  -2
   4   2  -1 4093.45 134.303   1
  -4  -2  -2 4402.65 161.415  -2
   4   2  -1 4402.65 161.415   1
   4   2   2 4322.91 138.901  -2
  -4  -2   1 4322.91 138.901   1
  -3  -2  -2 1203.21 40.2230  -2
   3   2  -1 1203.21 40.2230   1
   3   2   2 1092.38 42.5986  -2
  -3  -2   1 1092.38 42.5986   1
   3   2   2 1190.05 42.7820  -2
  -3  -2   1 1190.05 42.7820   1
  -2  -2  -2 1652.25 50.6547  -2
   2   2  -1 1652.25 50.6547   1
  -2  -2  -2 1535.66 57.9032  -2
   2   2  -1 1535.66 57.9032   1
   2   2   2 1593.93 52.5151  -2
  -2  -2   1 1593.93 52.5151   1
   1   2  -1 899.789 34.2327   1
   1   2  -1 891.713 32.2612   1
   1   2  -1 876.574 33.7746   1
   1   2   2 2879.91 96.3609  -2
  -1  -2   1 2879.91 96.3609   1
   0   2  -1 47.3515 5.66265   1
   0   2  -1 44.9364 7.50261   1
   0  -2   1 60.1228 7.04245   1
   0  -2   1 49.0347 3.53602   1
   0  -2   1 40.5274 3.71294   1
   0  -2   1 59.0673 8.59506   1
  -1   2  -1 41.2110 6.29441   1
  -1   2  -1 35.1226 6.99388   1
  -1   2  -1 28.4359 7.95974   1
   1  -2   1 32.8873 5.66607   1
   1  -2   1 31.5264 6.32248   1
   1  -2   1 32.7148 8.11038   1
  -2   2  -1 1064.24 45.3707   1
  -2   2  -1 1073.58 39.7788   1
   2  -2   1 1071.49 40.9559   1
   2  -2   1 1154.77 41.0679   1
   2  -2   1 1061.86 44.5209   1
  -3   2  -1 408.624 26.4369   1
  -3   2  -1 445.124 22.5276   1
   3  -2   1 408.216 22.6115   1
   3  -2   1 398.651 22.2908   1
  -4   2  -1 530.972 33.2475   1
  -4   2  -1 543.220 28.7867   1
   4  -2   1 585.889 29.5682   1
   5  -2  -1 892.794 50.3281  -2
  -5   2  -1 892.794 50.3281   1
  -5   2   1 816.997 42.6810  -2
   5  -2   1 816.997 42.6810   1
   6  -2  -1 253.131 30.9647  -2
  -6   2  -1 253.131 30.9647   1
  -6   2   1 209.197 23.4653  -2
   6  -2   1 209.197 23.4653   1
   7  -2  -1 268.970 34.7792  -2
  -7   2  -1 268.970 34.7792   1
  -7   2   1 316.218 27.8473  -2
   7  -2   1 316.218 27.8473   1
   8  -2  -1 34.9450 22.7745  -2
  -8   2  -1 34.9450 22.7745   1
   8  -2  -1 46.0116 16.5680  -2
  -8   2  -1 46.0116 16.5680   1
   9   1   2 106.169 22.7128  -2
  -9  -1   1 106.169 22.7128   1
   8   1   2 291.545 30.6266  -2
  -8  -1   1 291.545 30.6266   1
  -7  -1   1 39.6448 14.7153   1
  -6  -1  -2 520.967 29.6378  -2
   6   1  -1 520.967 29.6378   1
  -6  -1   1 426.073 33.9985   1
   5   1  -1 5.55197 4.88464   1
  -5  -1   1 0.42011 5.99173   1
  -5  -1   1 1.11707 4.73287   1
   4   1  -1 -0.1826 3.16394   1
   4   1  -1 3.05878 7.15497   1
  -4  -1   1 -5.4758 3.35855   1
  -4  -1   1 5.59209 5.11768   1
  -4  -1   1 -3.6658 3.69593   1
   3   1  -1 1001.35 47.1965   1
   3   1  -1 989.339 36.6666   1
  -3  -1   1 969.019 44.7543   1
  -3  -1   1 959.431 38.4300   1
  -3  -1   1 1029.48 38.2211   1
   2   1  -1 519.902 27.0758   1
   2   1  -1 499.121 19.8099   1
  -2  -1   1 510.337 20.1976   1
  -2  -1   1 484.324 24.8105   1
  -2  -1   1 470.891 20.5058   1
  -2  -1   1 488.732 27.1460   1
   1   1  -1 654.636 25.9086   1
   1   1  -1 644.624 21.6694   1
   1   1  -1 663.150 22.2229   1
   1   1  -1 638.236 26.9179   1
  -1  -1   1 690.201 27.4377   1
  -1  -1   1 654.820 28.7160   1
  -1  -1   1 726.346 22.7483   1
  -1  -1   1 614.210 25.7255   1
   0   1  -1 438.958 15.3319   1
   0   1  -1 443.370 18.3740   1
   0   1  -1 437.105 14.9474   1
   0   1  -1 447.929 18.6767   1
   0  -1   1 437.103 15.9458   1
   0  -1   1 455.028 18.6962   1
   0  -1   1 450.886 18.9895   1
   0  -1   1 416.745 14.7799   1
   0  -1   1 436.336 15.3498   1
  -1   1  -1 2248.32 74.5041   1
  -1   1  -1 2227.38 70.1393   1
  -1   1  -1 2127.36 69.2711   1
   1  -1   1 2226.76 74.4475   1
   1  -1   1 2177.60 69.4751   1
   1  -1   1 2083.55 69.7634   1
  -2   1  -1 176.008 14.8823   1
  -2   1  -1 215.107 13.3299   1
  -2   1  -1 182.315 11.9742   1
   2  -1   1 195.862 15.1325   1
   2  -1   1 185.970 12.2392   1
   2  -1   1 174.483 12.2648   1
   3  -1  -1 721.811 36.6922  -2
  -3   1  -1 721.811 36.6922   1
   3  -1  -1 697.518 30.8538  -2
  -3   1  -1 697.518 30.8538   1
  -3   1   1 658.292 30.9693  -2
   3  -1   1 658.292 30.9693   1
   4  -1  -1 115.320 16.6050  -2
  -4   1  -1 115.320 16.6050   1
   4  -1  -1 113.435 12.6166  -2
  -4   1  -1 113.435 12.6166   1
  -4   1   1 120.268 13.4144  -2
   4  -1   1 120.268 13.4144   1
   5  -1  -1 2095.71 88.3925  -2
  -5   1  -1 2095.71 88.3925   1
  -5   1   1 2004.07 77.2232  -2
   5  -1   1 2004.07 77.2232   1
   6  -1  -1 38.4206 21.1486  -2
  -6   1  -1 38.4206 21.1486   1
  -6   1   1 61.3988 15.5732  -2
   6  -1   1 61.3988 15.5732   1
   7  -1  -1 668.220 52.6396  -2
  -7   1  -1 668.220 52.6396   1
  -7   1   1 675.988 40.4692  -2
   7  -1   1 675.988 40.4692   1
   9   0   2 164.987 32.9136  -2
  -9   0   1 164.987 32.9136   1
  -8   0   1 125.885 22.4730   1
  -8   0   1 118.572 22.7217   1
  -7   0   1 185.675 22.5944   1
  -7   0   1 178.554 23.9923   1
   6   0  -1 231.208 18.7326   1
  -6   0   1 181.234 22.3432   1
   5   0  -1 9.29026 5.84559   1
  -5   0   1 10.5273 8.31759   1
   4   0  -1 170.057 19.6586   1
   4   0  -1 122.887 12.5896   1
  -4   0   1 167.580 14.6793   1
  -4   0   1 173.401 16.9650   1
   3   0  -1 115.077 10.4518   1
   3   0  -1 133.499 15.5318   1
  -3   0   1 113.927 12.6180   1
  -3   0   1 115.110 10.6970   1
   2   0  -1 3.61691 3.49215   1
   2   0  -1 3.79899 3.53867   1
   2   0  -1 -0.4222 5.35800   1
  -2   0   1 4.96041 5.03189   1
  -2   0   1 -4.2128 3.11049   1
  -1   0  -1 2692.76 82.2186  -2
   1   0  -1 2692.76 82.2186   1
   1   0   1 2542.41 81.8013  -2
  -1   0   1 2542.41 81.8013   1
   0   0  -1 1252.48 44.6349  -2
   0   0  -1 1252.48 44.6349   1
   0   0  -1 1284.88 41.2658  -2
   0   0  -1 1284.88 41.2658   1
   0   0  -1 1216.04 42.6539  -2
   0   0  -1 1216.04 42.6539   1
   0   0  -1 1293.93 39.6991  -2
   0   0  -1 1293.93 39.6991   1
   0   0  -1 1267.26 40.3838  -2
   0   0  -1 1267.26 40.3838   1
   0   0   1 1210.58 41.1237  -2
   0   0   1 1210.58 41.1237   1
   0   0   1 1375.93 40.0139  -2
   0   0   1 1375.93 40.0139   1
   0   0   1 1199.89 44.6043  -2
   0   0   1 1199.89 44.6043   1
   0   0   1 1244.52 42.8023  -2
   0   0   1 1244.52 42.8023   1
   1   0  -1 2506.36 79.1347  -2
  -1   0  -1 2506.36 79.1347   1
  -1   0   1 2467.95 83.6274  -2
   1   0   1 2467.95 83.6274   1
  -1   0   1 2545.17 78.9532  -2
   1   0   1 2545.17 78.9532   1
  -2   0  -1 14.5637 5.01386   1
  -2   0  -1 7.02338 4.49223   1
   2   0   1 10.5838 4.46588   1
   2   0   1 10.9415 4.28495   1
  -3   0  -1 217.518 15.0604   1
  -3   0  -1 220.563 15.3165   1
   3   0   1 223.018 14.5648   1
  -4   0  -1 222.131 16.9826   1
   4   0   1 225.876 15.9256   1
  -5   0  -1 96.5980 13.3497   1
   5   0   1 103.432 12.7750   1
  -6   0  -1 328.231 25.1278   1
   6   0   1 291.794 21.6146   1
  -7   0  -1 5.93517 11.2990   1
  -7   0  -1 6.38048 8.63828   1
  -8   0  -1 137.051 28.9248   1
   8  -1   1 44.6652 22.9949  -2
  -8   1   1 44.6652 22.9949   1
   8  -1   1 65.7443 31.9449  -2
  -8   1   1 65.7443 31.9449   1
  -7   1  -1 716.817 41.3172  -2
   7  -1  -1 716.817 41.3172   1
   7  -1   1 690.593 43.3950  -2
  -7   1   1 690.593 43.3950   1
  -6   1  -1 64.0347 16.0460  -2
   6  -1  -1 64.0347 16.0460   1
   6  -1   1 60.7013 16.7061  -2
  -6   1   1 60.7013 16.7061   1
  -5   1  -1 2166.21 79.9667  -2
   5  -1  -1 2166.21 79.9667   1
   5  -1   1 2098.04 80.4778  -2
  -5   1   1 2098.04 80.4778   1
  -4   1  -1 114.446 12.5026  -2
   4  -1  -1 114.446 12.5026   1
   4  -1   1 84.9379 11.2672  -2
  -4   1   1 84.9379 11.2672   1
  -3   1  -1 622.650 29.3217  -2
   3  -1  -1 622.650 29.3217   1
   3  -1   1 713.214 30.6206  -2
  -3   1   1 713.214 30.6206   1
   2  -1  -1 85.8175 8.63600   1
  -2   1   1 103.876 9.47176   1
  -2   1   1 88.2992 8.72880   1
  -2   1   1 86.0071 9.00951   1
   1  -1  -1 1728.62 60.7112   1
   1  -1  -1 1833.04 57.5887   1
   1  -1  -1 1786.15 57.0069   1
  -1   1   1 1685.79 60.5933   1
  -1   1   1 1790.86 56.7567   1
  -1   1   1 1806.99 57.6608   1
   0  -1  -1 1.98436 1.20874   1
   0  -1  -1 0.47720 1.52035   1
   0  -1  -1 -1.0361 1.91048   1
   0  -1  -1 0.22825 1.56104   1
   0  -1  -1 1.64233 1.58754   1
   0   1   1 2.62892 2.00231   1
   0   1   1 1.79169 2.22060   1
   0   1   1 0.92493 1.11077   1
  -1  -1  -1 481.168 17.2498   1
  -1  -1  -1 475.602 16.8282   1
  -1  -1  -1 459.763 17.2611   1
   1   1   1 469.207 16.2420   1
   1   1   1 478.599 17.4261   1
   1   1   1 474.376 19.7372   1
  -2  -1  -1 700.462 27.2215   1
  -2  -1  -1 720.586 27.3015   1
   2   1   1 724.621 26.9871   1
   2   1   1 729.328 26.3799   1
  -3  -1  -1 1187.52 42.6301   1
  -3  -1  -1 1030.48 41.5281   1
   3   1   1 1106.86 40.9151   1
   3   1   1 1113.30 40.6111   1
  -4  -1  -1 26.3986 7.39079   1
  -4  -1  -1 24.0889 6.90662   1
   4   1   1 40.5981 8.34541   1
   4   1   1 39.3274 7.69086   1
  -5  -1  -1 621.567 32.2581   1
   5   1   1 608.070 29.4078   1
   5   1   1 595.822 30.7384   1
   6   1   0 381.087 27.8648  -2
  -6  -1  -1 381.087 27.8648   1
  -6  -1   0 392.011 25.8317  -2
   6   1   1 392.011 25.8317   1
  -6  -1   0 397.598 27.7154  -2
   6   1   1 397.598 27.7154   1
  -7  -1   0 1140.03 54.6632  -2
   7   1   1 1140.03 54.6632   1
   8  -2   1 44.9211 17.0588  -2
  -8   2   1 44.9211 17.0588   1
   8  -2   1 94.5145 24.2253  -2
  -8   2   1 94.5145 24.2253   1
  -7   2  -1 261.332 26.1283  -2
   7  -2  -1 261.332 26.1283   1
   7  -2   1 272.454 33.3407  -2
  -7   2   1 272.454 33.3407   1
   7  -2   1 294.840 27.9812  -2
  -7   2   1 294.840 27.9812   1
  -6   2  -1 201.371 23.0228  -2
   6  -2  -1 201.371 23.0228   1
   6  -2   1 239.946 28.5654  -2
  -6   2   1 239.946 28.5654   1
   6  -2   1 154.584 21.8073  -2
  -6   2   1 154.584 21.8073   1
  -5   2  -1 823.049 40.9841  -2
   5  -2  -1 823.049 40.9841   1
   5  -2   1 798.809 45.2941  -2
  -5   2   1 798.809 45.2941   1
   5  -2   1 816.958 41.2315  -2
  -5   2   1 816.958 41.2315   1
   4  -2  -1 14.2749 6.82761   1
  -4   2   1 11.8716 7.10298   1
  -4   2   1 15.4814 6.51304   1
   3  -2  -1 465.540 24.2440   1
   3  -2  -1 501.916 24.8282   1
  -3   2   1 503.221 24.9697   1
  -3   2   1 492.937 25.7127   1
   2  -2  -1 424.758 19.8417   1
   2  -2  -1 384.792 19.4101   1
  -2   2   1 416.262 19.6456   1
  -2   2   1 416.934 20.0611   1
  -2   2   1 411.376 20.0982   1
  -2   2   1 401.995 19.4037   1
   1  -2  -1 30.9964 5.43959   1
   1  -2  -1 41.4186 6.14076   1
   1  -2  -1 35.6883 4.60731   1
  -1   2   1 33.5450 4.50874   1
  -1   2   1 34.8013 5.26971   1
  -1   2   1 41.8442 5.55483   1
   0  -2  -1 3.71346 3.04455   1
   0  -2  -1 2.36005 2.32121   1
   0  -2  -1 0.20680 2.11760   1
   0   2   1 3.34563 3.25659   1
   1   2   0 213.476 13.5020  -2
  -1  -2  -1 213.476 13.5020   1
  -1  -2   0 217.408 14.3497  -2
   1   2   1 217.408 14.3497   1
  -2  -2  -1 901.587 31.4305   1
  -2  -2  -1 939.847 32.0503   1
  -2  -2  -1 917.714 31.5744   1
  -2  -2   0 1367.53 52.0942  -2
   2   2   1 1367.53 52.0942   1
   3   2   0 5182.30 159.927  -2
  -3  -2  -1 5182.30 159.927   1
   3   2   0 4997.91 159.195  -2
  -3  -2  -1 4997.91 159.195   1
  -3  -2   0 5068.45 154.377  -2
   3   2   1 5068.45 154.377   1
  -3  -2   0 5041.82 156.378  -2
   3   2   1 5041.82 156.378   1
   4   2   0 3338.58 109.143  -2
  -4  -2  -1 3338.58 109.143   1
   4   2   0 3203.23 108.581  -2
  -4  -2  -1 3203.23 108.581   1
  -4  -2   0 3198.60 104.798  -2
   4   2   1 3198.60 104.798   1
   5   2   0 700.457 34.9861  -2
  -5  -2  -1 700.457 34.9861   1
   5   2   0 808.137 37.3886  -2
  -5  -2  -1 808.137 37.3886   1
  -5  -2   0 710.451 34.0304  -2
   5   2   1 710.451 34.0304   1
   6   2   0 38.9052 13.2889  -2
  -6  -2  -1 38.9052 13.2889   1
  -6  -2   0 42.5860 12.0261  -2
   6   2   1 42.5860 12.0261   1
   7   2   0 317.283 27.9517  -2
  -7  -2  -1 317.283 27.9517   1
  -7  -2   0 294.950 25.7489  -2
   7   2   1 294.950 25.7489   1
  -8  -2   0 154.585 23.6897  -2
   8   2   1 154.585 23.6897   1
   8  -3   1 31.4585 30.8180  -2
  -8   3   1 31.4585 30.8180   1
   7  -3  -1 6.26258 8.83005   1
  -7   3   1 -1.9055 8.52879   1
  -7   3   1 -6.7599 9.16207   1
  -7   3   1 21.5061 10.9950   1
   6  -3  -1 55.6883 13.8211   1
  -6   3   1 65.4394 14.0802   1
  -6   3   1 48.8422 14.2719   1
  -6   3   1 49.8659 13.3377   1
   5  -3  -1 357.232 25.4069   1
  -5   3   1 365.883 26.5640   1
  -5   3   1 369.328 27.3374   1
  -5   3   1 355.489 25.6656   1
   4  -3  -1 6.35407 5.63876   1
  -4   3   1 0.52448 5.01953   1
  -4   3   1 6.62163 6.61040   1
  -4   3   1 -1.4690 4.13035   1
   3  -3  -1 622.822 29.0535   1
   3  -3  -1 589.662 28.9438   1
   3  -3   0 782.889 37.1201  -2
  -3   3   1 782.889 37.1201   1
   2  -3  -1 140.981 11.7341   1
   2  -3  -1 160.019 11.1869   1
   2  -3  -1 143.694 11.4827   1
   2  -3   0 474.355 24.0274  -2
  -2   3   1 474.355 24.0274   1
  -1   3   0 1494.85 50.5836  -2
   1  -3  -1 1494.85 50.5836   1
  -1   3   0 1417.89 48.3368  -2
   1  -3  -1 1417.89 48.3368   1
   1  -3   0 1414.21 49.0991  -2
  -1   3   1 1414.21 49.0991   1
   1  -3   0 1434.73 46.7157  -2
  -1   3   1 1434.73 46.7157   1
   0   3   0 580.624 23.6871  -2
   0  -3  -1 580.624 23.6871   1
   0   3   0 597.936 23.3570  -2
   0  -3  -1 597.936 23.3570   1
   1   3   0 3127.11 107.432  -2
  -1  -3  -1 3127.11 107.432   1
   1   3   0 2945.31 102.518  -2
  -1  -3  -1 2945.31 102.518   1
   1   3   0 2941.93 90.9195  -2
  -1  -3  -1 2941.93 90.9195   1
  -1  -3   0 2973.46 91.1557  -2
   1   3   1 2973.46 91.1557   1
  -1  -3   0 2943.88 103.448  -2
   1   3   1 2943.88 103.448   1
   2   3   0 1236.04 38.6717  -2
  -2  -3  -1 1236.04 38.6717   1
   2   3   0 1126.30 38.3513  -2
  -2  -3  -1 1126.30 38.3513   1
   2   3   0 1218.52 40.2658  -2
  -2  -3  -1 1218.52 40.2658   1
  -2  -3   0 1220.20 53.0420  -2
   2   3   1 1220.20 53.0420   1
  -2  -3   0 1241.21 48.3222  -2
   2   3   1 1241.21 48.3222   1
  -2  -3   0 1140.38 40.0928  -2
   2   3   1 1140.38 40.0928   1
   3   3   0 4949.82 150.343  -2
  -3  -3  -1 4949.82 150.343   1
   3   3   0 4771.37 149.884  -2
  -3  -3  -1 4771.37 149.884   1
  -3  -3   0 4485.44 163.312  -2
   3   3   1 4485.44 163.312   1
  -3  -3   0 4892.33 174.784  -2
   3   3   1 4892.33 174.784   1
  -3  -3   0 4866.86 145.968  -2
   3   3   1 4866.86 145.968   1
  -4  -3  -1 9.27282 4.75363   1
  -4  -3  -1 0.54043 3.44081   1
  -4  -3   0 157.283 14.2289  -2
   4   3   1 157.283 14.2289   1
  -4  -3   0 159.056 8.73417  -2
   4   3   1 159.056 8.73417   1
  -5  -3  -1 98.8196 12.7010   1
  -5  -3  -1 127.866 13.7565   1
  -5  -3   0 729.097 28.8884  -2
   5   3   1 729.097 28.8884   1
  -6  -3  -1 42.9891 11.8296   1
   6   3   1 47.9886 11.0049   1
  -7  -3  -1 34.0772 12.6881   1
   7   3   1 29.4609 9.97793   1
  -8  -3  -1 3.03836 11.0316   1
  -8  -3  -1 6.33951 9.43544   1
   8   3   1 -1.9967 6.88025   1
  -8   4   1 25.7900 14.1459   1
  -7   4   0 15.6580 20.3307  -2
   7  -4  -1 15.6580 20.3307   1
   7  -4   0 54.9097 25.4920  -2
  -7   4   1 54.9097 25.4920   1
  -6   4   0 332.423 29.8303  -2
   6  -4  -1 332.423 29.8303   1
   6  -4   0 361.107 29.2758  -2
  -6   4   1 361.107 29.2758   1
   6  -4   0 302.825 31.9996  -2
  -6   4   1 302.825 31.9996   1
  -5   4   0 427.615 29.6564  -2
   5  -4  -1 427.615 29.6564   1
   5  -4   0 425.016 31.9618  -2
  -5   4   1 425.016 31.9618   1
   5  -4   0 382.138 27.0374  -2
  -5   4   1 382.138 27.0374   1
  -4   4   0 594.075 32.1493  -2
   4  -4  -1 594.075 32.1493   1
   4  -4   0 573.774 29.7424  -2
  -4   4   1 573.774 29.7424   1
   4  -4   0 532.007 32.6535  -2
  -4   4   1 532.007 32.6535   1
  -3   4   0 2691.48 93.6787  -2
   3  -4  -1 2691.48 93.6787   1
  -3   4   0 2758.80 92.9410  -2
   3  -4  -1 2758.80 92.9410   1
   3  -4   0 2626.43 95.5508  -2
  -3   4   1 2626.43 95.5508   1
  -2   4   0 2835.94 93.7229  -2
   2  -4  -1 2835.94 93.7229   1
  -2   4   0 2841.70 92.0048  -2
   2  -4  -1 2841.70 92.0048   1
  -2   4   0 2718.06 91.5244  -2
   2  -4  -1 2718.06 91.5244   1
   2  -4   0 2625.17 92.9564  -2
  -2   4   1 2625.17 92.9564   1
   2  -4   0 2685.41 88.9505  -2
  -2   4   1 2685.41 88.9505   1
  -1   4   0 2833.87 89.5267  -2
   1  -4  -1 2833.87 89.5267   1
  -1   4   0 2855.33 94.0831  -2
   1  -4  -1 2855.33 94.0831   1
   1  -4   0 2683.89 90.9838  -2
  -1   4   1 2683.89 90.9838   1
   0  -4  -1 1178.48 40.7309   1
   0  -4  -1 1241.81 42.9421   1
   0  -4  -1 1251.58 44.8421   1
   0   4   1 1214.17 44.2847   1
   1   4   0 330.833 21.0494  -2
  -1  -4  -1 330.833 21.0494   1
   1   4   0 365.913 16.6319  -2
  -1  -4  -1 365.913 16.6319   1
   1   4   1 234.858 12.3644   1
  -2  -4  -1 1528.87 62.3335   1
  -2  -4  -1 1602.92 68.2700   1
  -2  -4  -1 1593.88 50.4119   1
  -2  -4   0 1660.96 65.0500  -2
   2   4   1 1660.96 65.0500   1
  -3  -4  -1 -1.8774 6.07297   1
  -3  -4  -1 2.68524 2.81296   1
  -3  -4  -1 -1.7388 2.17075   1
   3   4   1 0.30960 2.83451   1
   3   4   1 4.79284 6.39949   1
   3   4   1 3.98474 7.55323   1
  -4  -4  -1 30.7619 6.91906   1
  -4  -4  -1 29.5721 6.84129   1
   4   4   1 23.6268 6.41252   1
   4   4   1 17.9411 9.47429   1
  -5  -4  -1 3.47100 5.38792   1
  -5  -4  -1 3.44943 5.26476   1
  -5  -4  -1 -4.2130 15.9208  -2
   5   4   1 -4.2130 15.9208   1
  -6  -4  -1 922.990 44.3859   1
  -6  -4  -1 1716.15 65.2278  -2
   6   4   1 1716.15 65.2278   1
   7   4   1 290.684 27.7389  -2
  -7  -4  -1 290.684 27.7389   1
  -7  -4  -1 252.677 23.6723  -2
   7   4   1 252.677 23.6723   1
   8   4   1 1080.37 57.1356  -2
  -8  -4  -1 1080.37 57.1356   1
  -8   5   0 9.71478 18.3488  -2
   8  -5  -1 9.71478 18.3488   1
   8  -5   0 22.4822 16.3426  -2
  -8   5   1 22.4822 16.3426   1
  -7   5   0 857.397 50.2841  -2
   7  -5  -1 857.397 50.2841   1
   7  -5   0 854.598 53.7333  -2
  -7   5   1 854.598 53.7333   1
  -6   5   0 176.486 22.6804  -2
   6  -5  -1 176.486 22.6804   1
   6  -5   0 205.268 25.2023  -2
  -6   5   1 205.268 25.2023   1
  -5   5   0 578.843 35.8755  -2
   5  -5  -1 578.843 35.8755   1
   5  -5   0 527.016 36.5316  -2
  -5   5   1 527.016 36.5316   1
  -4   5   0 149.325 19.3300  -2
   4  -5  -1 149.325 19.3300   1
   4  -5   0 173.131 20.1876  -2
  -4   5   1 173.131 20.1876   1
   3  -5  -1 641.098 31.4910   1
   3  -5  -1 575.629 29.8265   1
  -3   5   1 606.255 31.6523   1
  -3   5   1 634.885 28.1844   1
  -3   5   1 607.685 27.9800   1
   2  -5  -1 6.42663 4.95999   1
   2  -5  -1 10.2164 5.01873   1
   2  -5  -1 12.7718 5.18534   1
  -2   5   1 7.82572 3.09630   1
  -2   5   1 11.9394 5.21291   1
   1  -5  -1 814.721 35.2103   1
   1  -5  -1 788.930 30.1272   1
   1  -5  -1 739.815 29.0926   1
  -1   5   1 803.101 32.2692   1
   0  -5  -1 114.250 5.91265   1
   0  -5  -1 101.131 9.62495   1
   0  -5  -1 120.780 11.2470   1
   0   5   1 134.370 11.2646   1
   1   5   1 117.661 14.6897  -2
  -1  -5  -1 117.661 14.6897   1
   2   5   1 155.211 9.62761  -2
  -2  -5  -1 155.211 9.62761   1
   2   5   1 156.600 16.4553  -2
  -2  -5  -1 156.600 16.4553   1
   2   5   1 94.3506 7.64071   1
   3   5   1 564.192 20.9207  -2
  -3  -5  -1 564.192 20.9207   1
  -3  -5  -1 607.278 33.2510  -2
   3   5   1 607.278 33.2510   1
  -3  -5  -1 614.027 24.3454  -2
   3   5   1 614.027 24.3454   1
   4   5   1 77.9233 9.77824  -2
  -4  -5  -1 77.9233 9.77824   1
   4   5   1 86.5380 10.2016  -2
  -4  -5  -1 86.5380 10.2016   1
  -4  -5  -1 65.4583 12.6674  -2
   4   5   1 65.4583 12.6674   1
  -4  -5  -1 67.6485 9.10834  -2
   4   5   1 67.6485 9.10834   1
   5   5   1 1134.67 44.9322  -2
  -5  -5  -1 1134.67 44.9322   1
   5   5   1 968.202 42.4228  -2
  -5  -5  -1 968.202 42.4228   1
  -5  -5  -1 1034.60 40.8723  -2
   5   5   1 1034.60 40.8723   1
  -5  -5  -1 999.793 52.2741  -2
   5   5   1 999.793 52.2741   1
   6   5   1 86.1731 13.5485  -2
  -6  -5  -1 86.1731 13.5485   1
   6   5   1 73.4669 16.5490  -2
  -6  -5  -1 73.4669 16.5490   1
  -6  -5  -1 94.5649 12.3074  -2
   6   5   1 94.5649 12.3074   1
   7   5   1 528.449 34.1043  -2
  -7  -5  -1 528.449 34.1043   1
   8   5   1 195.799 25.7053  -2
  -8  -5  -1 195.799 25.7053   1
  -7   6   0 192.301 30.4839  -2
   7  -6  -1 192.301 30.4839   1
   6  -6  -1 576.840 38.2226   1
  -6   6   1 607.815 37.1632   1
  -6   6   1 500.883 39.1263   1
   5  -6  -1 392.559 28.5469   1
  -5   6   1 327.217 29.0034   1
  -5   6   1 380.683 25.2071   1
   4  -6  -1 503.262 30.9188   1
  -4   6   1 452.520 30.8713   1
  -4   6   1 571.152 30.0858   1
  -4   6   1 531.207 27.4447   1
   3  -6  -1 79.8337 11.7240   1
   3  -6  -1 40.5979 9.70580   1
  -3   6   1 51.2532 6.64905   1
  -3   6   1 41.8659 9.92358   1
  -2   6   1 718.070 36.9015  -2
   2  -6  -1 718.070 36.9015   1
   2  -6  -1 758.328 34.0512  -2
  -2   6   1 758.328 34.0512   1
  -1   6   1 2.26448 6.04285  -2
   1  -6  -1 2.26448 6.04285   1
  -1   6   1 8.51695 6.33309  -2
   1  -6  -1 8.51695 6.33309   1
  -1   6   1 -10.795 9.43056  -2
   1  -6  -1 -10.795 9.43056   1
   1  -6  -1 9.02598 8.36705  -2
  -1   6   1 9.02598 8.36705   1
   0   6   1 1609.15 61.5752  -2
   0  -6  -1 1609.15 61.5752   1
   0   6   1 1575.49 56.8874  -2
   0  -6  -1 1575.49 56.8874   1
   1   6   1 962.874 42.1028  -2
  -1  -6  -1 962.874 42.1028   1
   1   6   1 905.160 44.6311  -2
  -1  -6  -1 905.160 44.6311   1
   1   6   1 996.242 38.7256  -2
  -1  -6  -1 996.242 38.7256   1
   1   6   1 1013.33 36.3582  -2
  -1  -6  -1 1013.33 36.3582   1
   2   6   1 2097.37 90.7225  -2
  -2  -6  -1 2097.37 90.7225   1
   2   6   1 2056.37 67.3798  -2
  -2  -6  -1 2056.37 67.3798   1
   2   6   1 1941.65 83.0886  -2
  -2  -6  -1 1941.65 83.0886   1
   2   6   1 2280.99 81.1665  -2
  -2  -6  -1 2280.99 81.1665   1
   2   6   1 2204.88 80.8930  -2
  -2  -6  -1 2204.88 80.8930   1
  -2  -6  -1 2207.28 69.7296  -2
   2   6   1 2207.28 69.7296   1
   3   6   1 362.494 26.0763  -2
  -3  -6  -1 362.494 26.0763   1
   3   6   1 377.378 16.5646  -2
  -3  -6  -1 377.378 16.5646   1
   3   6   1 368.733 32.9274  -2
  -3  -6  -1 368.733 32.9274   1
  -3  -6  -1 378.203 17.6210  -2
   3   6   1 378.203 17.6210   1
  -3  -6  -1 336.273 25.3060  -2
   3   6   1 336.273 25.3060   1
   4   6   1 1519.72 54.0695  -2
  -4  -6  -1 1519.72 54.0695   1
   4   6   1 1744.03 55.4579  -2
  -4  -6  -1 1744.03 55.4579   1
  -4  -6  -1 1617.18 54.2862  -2
   4   6   1 1617.18 54.2862   1
  -4  -6  -1 1347.77 66.7567  -2
   4   6   1 1347.77 66.7567   1
   5   6   1 469.677 26.2062  -2
  -5  -6  -1 469.677 26.2062   1
  -5  -6  -1 525.986 25.2309  -2
   5   6   1 525.986 25.2309   1
   6   6   1 1363.93 57.4887  -2
  -6  -6  -1 1363.93 57.4887   1
  -7  -6  -1 383.691 37.8860   1
  -7  -6  -1 399.565 28.6429   1
  -8  -6  -1 549.103 38.4026   1
  -7   7   1 278.147 35.7654  -2
   7  -7  -1 278.147 35.7654   1
  -6   7   1 20.3321 21.4315  -2
   6  -7  -1 20.3321 21.4315   1
  -5   7   1 261.354 28.3909  -2
   5  -7  -1 261.354 28.3909   1
   5  -7  -1 254.011 27.7010  -2
  -5   7   1 254.011 27.7010   1
  -4   7   1 49.7956 16.2983  -2
   4  -7  -1 49.7956 16.2983   1
   4  -7  -1 50.6852 9.06822  -2
  -4   7   1 50.6852 9.06822   1
   4  -7  -1 56.3852 14.1545  -2
  -4   7   1 56.3852 14.1545   1
  -3   7   1 155.100 17.6524  -2
   3  -7  -1 155.100 17.6524   1
  -3   7   1 137.476 16.2175  -2
   3  -7  -1 137.476 16.2175   1
   3  -7  -1 128.104 8.31991  -2
  -3   7   1 128.104 8.31991   1
   3  -7  -1 151.261 15.3786  -2
  -3   7   1 151.261 15.3786   1
   3  -7  -1 145.739 9.63831  -2
  -3   7   1 145.739 9.63831   1
  -2   7   1 73.0608 10.5560  -2
   2  -7  -1 73.0608 10.5560   1
  -2   7   1 83.1351 10.6054  -2
   2  -7  -1 83.1351 10.6054   1
  -2   7   1 100.702 13.2092  -2
   2  -7  -1 100.702 13.2092   1
   2  -7  -1 68.2562 10.0267  -2
  -2   7   1 68.2562 10.0267   1
  -1   7   1 329.448 23.7492  -2
   1  -7  -1 329.448 23.7492   1
  -1   7   1 331.711 17.2040  -2
   1  -7  -1 331.711 17.2040   1
  -1   7   1 330.083 17.4619  -2
   1  -7  -1 330.083 17.4619   1
   1  -7  -1 319.603 20.1894  -2
  -1   7   1 319.603 20.1894   1
   0   7   1 28.2427 10.7837  -2
   0  -7  -1 28.2427 10.7837   1
   0   7   1 36.4170 9.60403  -2
   0  -7  -1 36.4170 9.60403   1
   1   7   1 1799.03 72.0351  -2
  -1  -7  -1 1799.03 72.0351   1
   1   7   1 1932.08 63.9920  -2
  -1  -7  -1 1932.08 63.9920   1
   2   7   1 518.839 22.0471  -2
  -2  -7  -1 518.839 22.0471   1
   2   7   1 500.993 32.9619  -2
  -2  -7  -1 500.993 32.9619   1
   3   7   1 2318.47 95.1682  -2
  -3  -7  -1 2318.47 95.1682   1
   3   7   1 1278.67 42.8353   1
  -4  -7  -1 141.720 24.4421   1
  -4  -7  -1 173.937 20.0523   1
  -4  -7  -1 150.025 10.1856   1
  -4  -7  -1 153.153 10.1973   1
   4   7   1 161.211 19.9858   1
   4   7   1 168.785 10.8195   1
  -5  -7  -1 210.456 15.6085   1
  -5  -7  -1 215.786 24.3129   1
  -5  -7  -1 261.589 35.3391   1
  -6  -7  -1 80.1650 18.0071   1
  -6  -7  -1 103.096 14.3615   1
   7   7   2 480.532 33.5479  -2
  -7  -7  -1 480.532 33.5479   1
  -6   8   1 256.686 27.8383  -2
   6  -8  -1 256.686 27.8383   1
  -5   8   1 79.0919 19.2133  -2
   5  -8  -1 79.0919 19.2133   1
  -4   8   1 701.257 40.9085  -2
   4  -8  -1 701.257 40.9085   1
   4  -8  -1 685.084 37.4245  -2
  -4   8   1 685.084 37.4245   1
  -3   8   1 425.292 31.2623  -2
   3  -8  -1 425.292 31.2623   1
  -3   8   1 416.391 28.7780  -2
   3  -8  -1 416.391 28.7780   1
   3  -8  -1 419.987 25.9335  -2
  -3   8   1 419.987 25.9335   1
  -2   8   1 540.349 28.2057  -2
   2  -8  -1 540.349 28.2057   1
  -2   8   1 481.787 32.9443  -2
   2  -8  -1 481.787 32.9443   1
   2  -8  -1 454.160 26.7959  -2
  -2   8   1 454.160 26.7959   1
   1  -8  -1 445.959 21.7652   1
   1  -8  -1 483.749 22.6719   1
   1  -8  -1 429.734 30.2397   1
   1  -8  -1 449.980 26.9218   1
  -1   8   1 496.253 27.2853   1
   0  -8  -1 1001.55 41.0573   1
   0  -8  -1 971.690 47.8717   1
  -1  -8  -1 565.693 25.1932   1
  -1  -8  -1 538.509 35.3190   1
  -1  -8  -1 563.275 25.3368   1
  -1  -8  -1 515.784 32.4632   1
  -2  -8  -1 1582.64 68.9767   1
  -2  -8  -1 1559.41 79.5439   1
  -2  -8  -1 1554.96 52.5551   1
  -2  -8  -1 1696.75 64.5270   1
  -2  -8  -1 1534.38 72.1114   1
   3   8   2 278.135 28.3458  -2
  -3  -8  -1 278.135 28.3458   1
   4   8   2 915.878 62.3267  -2
  -4  -8  -1 915.878 62.3267   1
   4   8   2 678.400 26.3512  -2
  -4  -8  -1 678.400 26.3512   1
   5   8   2 400.164 33.5515  -2
  -5  -8  -1 400.164 33.5515   1
   5   8   2 327.764 20.0816  -2
  -5  -8  -1 327.764 20.0816   1
   6   8   2 696.509 35.8099  -2
  -6  -8  -1 696.509 35.8099   1
   6   8   2 760.343 50.5555  -2
  -6  -8  -1 760.343 50.5555   1
   7   8   2 55.2775 19.6206  -2
  -7  -8  -1 55.2775 19.6206   1
   7   8   2 62.8619 14.1588  -2
  -7  -8  -1 62.8619 14.1588   1
   5  -9  -1 458.241 34.5915   1
   4  -9  -1 325.789 26.7539   1
   3  -9  -1 866.136 42.6461   1
  -3   9   1 868.019 41.9929   1
  -2   9   2 391.834 33.2955  -2
   2  -9  -1 391.834 33.2955   1
  -2   9   1 265.905 21.0823   1
  -1   9   2 445.740 25.1977  -2
   1  -9  -1 445.740 25.1977   1
  -1   9   2 534.690 26.4450  -2
   1  -9  -1 534.690 26.4450   1
  -1   9   2 622.797 34.4329  -2
   1  -9  -1 622.797 34.4329   1
  -1   9   2 694.642 41.1327  -2
   1  -9  -1 694.642 41.1327   1
   0   9   2 235.703 11.6576  -2
   0  -9  -1 235.703 11.6576   1
   0   9   2 225.844 18.8346  -2
   0  -9  -1 225.844 18.8346   1
   0   9   2 227.055 24.5631  -2
   0  -9  -1 227.055 24.5631   1
   0   9   2 156.644 19.8423  -2
   0  -9  -1 156.644 19.8423   1
   1   9   2 1058.37 59.5966  -2
  -1  -9  -1 1058.37 59.5966   1
   1   9   2 1352.23 48.6819  -2
  -1  -9  -1 1352.23 48.6819   1
   1   9   2 1268.32 60.3114  -2
  -1  -9  -1 1268.32 60.3114   1
   1   9   2 1335.91 48.7492  -2
  -1  -9  -1 1335.91 48.7492   1
   2   9   2 224.974 29.4605  -2
  -2  -9  -1 224.974 29.4605   1
   2   9   2 203.363 16.3509  -2
  -2  -9  -1 203.363 16.3509   1
   2   9   2 157.078 20.0436  -2
  -2  -9  -1 157.078 20.0436   1
   2   9   2 191.725 22.1110  -2
  -2  -9  -1 191.725 22.1110   1
   3   9   2 51.5881 14.1189  -2
  -3  -9  -1 51.5881 14.1189   1
   3   9   2 41.6797 19.2223  -2
  -3  -9  -1 41.6797 19.2223   1
   3   9   2 58.7568 10.8480  -2
  -3  -9  -1 58.7568 10.8480   1
   4   9   2 659.415 40.4861  -2
  -4  -9  -1 659.415 40.4861   1
   4   9   2 638.562 54.9707  -2
  -4  -9  -1 638.562 54.9707   1
   5   9   2 777.397 33.8702  -2
  -5  -9  -1 777.397 33.8702   1
   5   9   2 853.581 51.0756  -2
  -5  -9  -1 853.581 51.0756   1
   6   9   2 301.429 23.7036  -2
  -6  -9  -1 301.429 23.7036   1
  -5  10   2 388.037 37.6828  -2
   5 -10  -1 388.037 37.6828   1
  -4  10   2 859.385 49.4484  -2
   4 -10  -1 859.385 49.4484   1
  -3  10   2 371.658 29.5244  -2
   3 -10  -1 371.658 29.5244   1
  -2  10   2 839.749 40.7392  -2
   2 -10  -1 839.749 40.7392   1
  -1  10   2 144.430 17.6223  -2
   1 -10  -1 144.430 17.6223   1
  -1  10   2 142.333 14.0990  -2
   1 -10  -1 142.333 14.0990   1
   1 -10  -2 181.982 18.8284  -2
  -1  10   1 181.982 18.8284   1
   0  10   2 928.454 36.6710  -2
   0 -10  -1 928.454 36.6710   1
   0  10   2 999.314 54.6733  -2
   0 -10  -1 999.314 54.6733   1
   0  10   2 1132.38 38.1668  -2
   0 -10  -1 1132.38 38.1668   1
   2  10   2 252.958 36.0439  -2
  -2 -10  -1 252.958 36.0439   1
   3  10   2 26.4136 27.2458  -2
  -3 -10  -1 26.4136 27.2458   1
  -4 -10  -1 330.550 40.8059   1
  -5 -10  -1 33.9363 21.6584   1
  -5 -10  -1 56.0813 9.01981   1
  -3  11   2 15.3551 16.9801  -2
   3 -11  -1 15.3551 16.9801   1
  -2  11   2 123.580 19.6070  -2
   2 -11  -1 123.580 19.6070   1
  -1  11   2 588.333 31.1964  -2
   1 -11  -1 588.333 31.1964   1
   0 -11  -1 317.752 17.3371   1
  -2 -11  -1 51.8761 20.8021   1
  -3 -11  -1 520.314 49.5692   1
   4  11   3 201.601 42.9911  -2
  -4 -11  -1 201.601 42.9911   1
  -1  12   3 48.3575 15.4836  -2
   1 -12  -1 48.3575 15.4836   1
   0  12   3 190.037 16.7044  -2
   0 -12  -1 190.037 16.7044   1
   1  12   3 19.1285 27.0359  -2
  -1 -12  -1 19.1285 27.0359   1
   2  12   3 660.239 57.9114  -2
  -2 -12  -1 660.239 57.9114   1
  -2 -11   2 273.164 15.8155   1
  -1 -11   2 68.2643 11.1385   1
   0  11   5 257.478 22.3731  -2
   0 -11   2 257.478 22.3731   1
   1 -11  -5 476.825 40.9077  -2
  -1  11  -2 476.825 40.9077   1
  -1  11   5 544.409 33.6500  -2
   1 -11   2 544.409 33.6500   1
  -2  11   5 179.325 25.5972  -2
   2 -11   2 179.325 25.5972   1
  -3  11   5 35.7063 20.0850  -2
   3 -11   2 35.7063 20.0850   1
  -5 -10   2 12.1069 15.0069   1
  -5 -10   2 9.82512 8.30483   1
   4  10   5 235.198 45.7577  -2
  -4 -10   2 235.198 45.7577   1
   3  10   5 91.4350 34.5626  -2
  -3 -10   2 91.4350 34.5626   1
   1  10   5 184.419 24.7280  -2
  -1 -10   2 184.419 24.7280   1
   1  10   5 210.402 14.8203  -2
  -1 -10   2 210.402 14.8203   1
   0  10   5 154.946 15.7688  -2
   0 -10   2 154.946 15.7688   1
   1 -10  -5 727.009 42.8446  -2
  -1  10  -2 727.009 42.8446   1
  -1  10   5 624.193 33.9663  -2
   1 -10   2 624.193 33.9663   1
   2 -10  -5 12.3314 15.8767  -2
  -2  10  -2 12.3314 15.8767   1
  -2  10   5 -0.4721 11.2247  -2
   2 -10   2 -0.4721 11.2247   1
   3 -10  -5 361.407 33.6668  -2
  -3  10  -2 361.407 33.6668   1
  -3  10   5 305.886 29.5632  -2
   3 -10   2 305.886 29.5632   1
  -4  10   5 -12.527 19.7922  -2
   4 -10   2 -12.527 19.7922   1
  -6  -9   2 115.875 23.9144   1
   5   9   5 520.164 42.5390  -2
  -5  -9   2 520.164 42.5390   1
   5   9   5 570.691 58.8042  -2
  -5  -9   2 570.691 58.8042   1
   4   9   5 192.452 24.7201  -2
  -4  -9   2 192.452 24.7201   1
   4   9   5 180.556 36.3533  -2
  -4  -9   2 180.556 36.3533   1
   3   9   5 59.5135 16.1001  -2
  -3  -9   2 59.5135 16.1001   1
   3   9   5 31.2857 19.2958  -2
  -3  -9   2 31.2857 19.2958   1
   3   9   5 30.6718 12.9240  -2
  -3  -9   2 30.6718 12.9240   1
   3   9   5 59.5178 6.78220  -2
  -3  -9   2 59.5178 6.78220   1
   2   9   5 61.9864 6.04181  -2
  -2  -9   2 61.9864 6.04181   1
   2   9   5 50.8348 13.7787  -2
  -2  -9   2 50.8348 13.7787   1
   2   9   5 66.1521 5.70688  -2
  -2  -9   2 66.1521 5.70688   1
   2   9   5 69.3544 15.0187  -2
  -2  -9   2 69.3544 15.0187   1
   1   9   5 24.4699 7.16152  -2
  -1  -9   2 24.4699 7.16152   1
   1   9   5 -4.4961 11.8889  -2
  -1  -9   2 -4.4961 11.8889   1
   1   9   5 13.4756 13.1808  -2
  -1  -9   2 13.4756 13.1808   1
   0  -9  -5 548.427 37.8725  -2
   0   9  -2 548.427 37.8725   1
   0   9   5 444.699 23.0102  -2
   0  -9   2 444.699 23.0102   1
   0   9   5 536.214 26.8220  -2
   0  -9   2 536.214 26.8220   1
   1  -9  -5 534.993 38.0291  -2
  -1   9  -2 534.993 38.0291   1
  -1   9   5 481.529 30.2790  -2
   1  -9   2 481.529 30.2790   1
   2  -9  -5 244.694 29.4021  -2
  -2   9  -2 244.694 29.4021   1
  -2   9   5 259.809 24.9637  -2
   2  -9   2 259.809 24.9637   1
  -3   9  -2 3.50494 9.10411   1
   3  -9   2 1.98618 7.29940   1
  -4   9  -2 213.263 28.1768   1
   4  -9   2 209.727 23.6824   1
  -5   9   4 51.1504 25.8484  -2
   5  -9   2 51.1504 25.8484   1
   6   8   5 38.6976 19.5372  -2
  -6  -8   2 38.6976 19.5372   1
   5   8   5 828.481 53.2955  -2
  -5  -8   2 828.481 53.2955   1
   5   8   5 796.494 66.1896  -2
  -5  -8   2 796.494 66.1896   1
   4   8   5 304.469 41.8843  -2
  -4  -8   2 304.469 41.8843   1
   3   8   5 825.058 30.8044  -2
  -3  -8   2 825.058 30.8044   1
   3   8   5 763.925 45.4704  -2
  -3  -8   2 763.925 45.4704   1
   3   8   5 774.448 59.0983  -2
  -3  -8   2 774.448 59.0983   1
   2   8   5 61.0565 16.5466  -2
  -2  -8   2 61.0565 16.5466   1
   1   8  -2 201.930 21.4837   1
  -1  -8   2 214.601 10.8537   1
  -1  -8   2 218.948 10.4603   1
  -1  -8   2 254.227 20.8010   1
  -1  -8   2 210.408 20.3157   1
   0   8  -2 20.5684 7.09000   1
   0   8  -2 15.5576 9.30915   1
   0  -8   2 7.91177 8.42195   1
   0  -8   2 28.2786 9.49867   1
   0  -8   2 23.3846 6.61790   1
   0  -8   2 39.6092 15.8822   1
   0  -8   2 16.5101 6.05946   1
   0  -8   2 18.5901 5.64311   1
  -1   8  -2 4.33498 8.57244   1
  -1   8  -2 5.71931 4.51347   1
   1  -8   2 5.20874 10.1002   1
   1  -8   2 3.40678 5.77700   1
   1  -8   2 3.28016 4.95933   1
   2  -8  -4 248.836 27.1659  -2
  -2   8  -2 248.836 27.1659   1
  -2   8   4 245.130 32.6445  -2
   2  -8   2 245.130 32.6445   1
   3  -8  -4 193.024 27.5930  -2
  -3   8  -2 193.024 27.5930   1
  -3   8   4 260.065 24.8438  -2
   3  -8   2 260.065 24.8438   1
   4  -8  -4 629.092 45.1905  -2
  -4   8  -2 629.092 45.1905   1
  -4   8   4 636.745 40.6565  -2
   4  -8   2 636.745 40.6565   1
   5  -8  -4 721.414 52.0960  -2
  -5   8  -2 721.414 52.0960   1
  -5   8   4 759.525 47.3756  -2
   5  -8   2 759.525 47.3756   1
  -6   8   4 31.2293 18.4666  -2
   6  -8   2 31.2293 18.4666   1
   7   7   5 18.8552 17.9329  -2
  -7  -7   2 18.8552 17.9329   1
  -6  -7   2 241.730 29.5732   1
  -5  -7   2 79.2691 23.9259   1
  -5  -7   2 63.3818 17.1234   1
   4   7  -2 267.535 24.5699   1
  -4  -7   2 316.222 28.3765   1
  -4  -7   2 316.973 35.2864   1
  -4  -7   2 293.256 17.5990   1
  -4  -7   2 314.753 17.6676   1
   3   7   4 357.530 15.8242  -2
  -3  -7   2 357.530 15.8242   1
   2   7   4 227.319 21.8840  -2
  -2  -7   2 227.319 21.8840   1
   2   7   4 222.872 26.0253  -2
  -2  -7   2 222.872 26.0253   1
  -1  -7  -4 162.658 19.3677  -2
   1   7  -2 162.658 19.3677   1
   1   7   4 160.217 9.73572  -2
  -1  -7   2 160.217 9.73572   1
   1   7   4 170.516 22.3085  -2
  -1  -7   2 170.516 22.3085   1
   1   7   4 166.892 17.7758  -2
  -1  -7   2 166.892 17.7758   1
   1   7   4 167.187 18.3874  -2
  -1  -7   2 167.187 18.3874   1
   0  -7  -4 370.671 27.2593  -2
   0   7  -2 370.671 27.2593   1
   0  -7  -4 338.926 20.6759  -2
   0   7  -2 338.926 20.6759   1
   0   7   4 303.641 15.8909  -2
   0  -7   2 303.641 15.8909   1
   0   7   4 384.485 19.0088  -2
   0  -7   2 384.485 19.0088   1
   0   7   4 430.357 32.3517  -2
   0  -7   2 430.357 32.3517   1
   0   7   4 376.196 24.1456  -2
   0  -7   2 376.196 24.1456   1
   1  -7  -4 119.297 11.5069  -2
  -1   7  -2 119.297 11.5069   1
   1  -7  -4 95.0203 15.8420  -2
  -1   7  -2 95.0203 15.8420   1
  -1   7   4 151.941 22.8829  -2
   1  -7   2 151.941 22.8829   1
  -1   7   4 102.720 11.1962  -2
   1  -7   2 102.720 11.1962   1
  -1   7   4 129.774 13.3865  -2
   1  -7   2 129.774 13.3865   1
  -1   7   4 120.478 14.0416  -2
   1  -7   2 120.478 14.0416   1
   2  -7  -4 362.803 21.3937  -2
  -2   7  -2 362.803 21.3937   1
   2  -7  -4 356.858 27.7416  -2
  -2   7  -2 356.858 27.7416   1
  -2   7   4 370.516 22.1160  -2
   2  -7   2 370.516 22.1160   1
  -2   7   4 306.163 21.8434  -2
   2  -7   2 306.163 21.8434   1
  -2   7   4 381.624 31.8331  -2
   2  -7   2 381.624 31.8331   1
   3  -7  -4 71.3892 17.1755  -2
  -3   7  -2 71.3892 17.1755   1
   3  -7  -4 77.6014 12.9508  -2
  -3   7  -2 77.6014 12.9508   1
  -3   7   4 51.1994 13.6877  -2
   3  -7   2 51.1994 13.6877   1
  -3   7   4 57.7165 19.3312  -2
   3  -7   2 57.7165 19.3312   1
   4  -7  -4 441.936 37.1226  -2
  -4   7  -2 441.936 37.1226   1
  -4   7   4 443.428 32.7538  -2
   4  -7   2 443.428 32.7538   1
   5  -7  -4 49.4267 26.2938  -2
  -5   7  -2 49.4267 26.2938   1
  -5   7   4 108.559 23.5914  -2
   5  -7   2 108.559 23.5914   1
   6  -7  -4 396.547 44.7149  -2
  -6   7  -2 396.547 44.7149   1
  -6   7   4 263.399 34.9754  -2
   6  -7   2 263.399 34.9754   1
   7  -7   2 42.6639 16.2952   1
  -7  -6   2 212.591 30.3663   1
  -6  -6   2 9.38207 10.4607   1
  -5  -6  -4 50.5075 17.5540  -2
   5   6  -2 50.5075 17.5540   1
  -5  -6   2 17.2637 11.0761   1
   4   6   4 332.518 37.4134  -2
  -4  -6   2 332.518 37.4134   1
   4   6   4 352.481 19.8362  -2
  -4  -6   2 352.481 19.8362   1
   3   6   4 153.006 24.9401  -2
  -3  -6   2 153.006 24.9401   1
   3   6   4 156.243 18.3093  -2
  -3  -6   2 156.243 18.3093   1
   3   6   4 150.434 20.1778  -2
  -3  -6   2 150.434 20.1778   1
   3   6   4 144.075 10.0433  -2
  -3  -6   2 144.075 10.0433   1
   3   6   4 123.880 9.17100  -2
  -3  -6   2 123.880 9.17100   1
  -2  -6  -4 966.231 46.1230  -2
   2   6  -2 966.231 46.1230   1
  -2  -6  -4 948.917 44.5111  -2
   2   6  -2 948.917 44.5111   1
   2   6   4 900.102 46.3912  -2
  -2  -6   2 900.102 46.3912   1
   2   6   4 916.952 43.6392  -2
  -2  -6   2 916.952 43.6392   1
   2   6   4 843.751 42.4373  -2
  -2  -6   2 843.751 42.4373   1
  -1  -6  -4 515.786 31.0391  -2
   1   6  -2 515.786 31.0391   1
  -1  -6  -4 579.766 28.6383  -2
   1   6  -2 579.766 28.6383   1
   1   6   4 575.240 34.5561  -2
  -1  -6   2 575.240 34.5561   1
   1   6   4 556.904 29.5628  -2
  -1  -6   2 556.904 29.5628   1
   1   6   4 432.129 17.5718  -2
  -1  -6   2 432.129 17.5718   1
   1   6   4 510.191 28.6858  -2
  -1  -6   2 510.191 28.6858   1
   1   6   4 534.525 18.3925  -2
  -1  -6   2 534.525 18.3925   1
   0  -6  -4 210.712 15.8499  -2
   0   6  -2 210.712 15.8499   1
   0  -6  -4 205.484 20.3481  -2
   0   6  -2 205.484 20.3481   1
   0   6   4 216.063 13.2090  -2
   0  -6   2 216.063 13.2090   1
   0   6   4 179.914 11.0199  -2
   0  -6   2 179.914 11.0199   1
   0   6   4 215.101 23.1883  -2
   0  -6   2 215.101 23.1883   1
   0   6   4 220.458 13.4906  -2
   0  -6   2 220.458 13.4906   1
   0   6   4 233.605 18.7758  -2
   0  -6   2 233.605 18.7758   1
   1  -6  -4 1515.54 57.6848  -2
  -1   6  -2 1515.54 57.6848   1
   1  -6  -4 1390.86 62.4212  -2
  -1   6  -2 1390.86 62.4212   1
  -1   6   4 1576.77 70.3521  -2
   1  -6   2 1576.77 70.3521   1
  -1   6   4 1376.17 54.6143  -2
   1  -6   2 1376.17 54.6143   1
  -1   6   4 1529.44 60.9104  -2
   1  -6   2 1529.44 60.9104   1
   2  -6  -4 479.831 27.6779  -2
  -2   6  -2 479.831 27.6779   1
   2  -6  -4 477.646 33.8307  -2
  -2   6  -2 477.646 33.8307   1
  -2   6   4 444.053 27.3830  -2
   2  -6   2 444.053 27.3830   1
  -2   6   4 512.413 37.1379  -2
   2  -6   2 512.413 37.1379   1
  -3   6  -2 486.743 35.8364   1
  -3   6  -2 516.738 31.0131   1
  -3   6   4 924.629 44.9257  -2
   3  -6   2 924.629 44.9257   1
  -4   6  -2 57.8428 17.3433   1
  -4   6  -2 57.1106 12.8495   1
   4  -6   2 59.9797 16.0226   1
   4  -6   2 65.3850 13.6958   1
  -5   6  -2 97.0600 21.8864   1
  -5   6  -2 56.4296 16.3503   1
   5  -6   2 93.0599 17.4462   1
  -6   6  -2 1.87983 13.0503   1
  -6   6   3 84.3857 24.5370  -2
   6  -6   2 84.3857 24.5370   1
   7  -6  -3 26.1967 34.9211  -2
  -7   6  -2 26.1967 34.9211   1
  -7   6   3 8.09228 25.6514  -2
   7  -6   2 8.09228 25.6514   1
   8   5   4 55.8869 20.3362  -2
  -8  -5   2 55.8869 20.3362   1
   7   5   4 245.070 31.3686  -2
  -7  -5   2 245.070 31.3686   1
   6   5   4 501.536 39.3832  -2
  -6  -5   2 501.536 39.3832   1
  -5  -5  -4 575.094 23.1155  -2
   5   5  -2 575.094 23.1155   1
  -5  -5  -4 518.307 35.0220  -2
   5   5  -2 518.307 35.0220   1
   5   5   4 582.760 40.2889  -2
  -5  -5   2 582.760 40.2889   1
  -4  -5  -4 415.982 28.5163  -2
   4   5  -2 415.982 28.5163   1
   4   5   4 385.882 37.6141  -2
  -4  -5   2 385.882 37.6141   1
   4   5   4 410.149 21.9883  -2
  -4  -5   2 410.149 21.9883   1
   4   5   4 398.634 31.0584  -2
  -4  -5   2 398.634 31.0584   1
   3   5   4 9.56952 7.14735  -2
  -3  -5   2 9.56952 7.14735   1
   3   5   4 21.9375 17.6078  -2
  -3  -5   2 21.9375 17.6078   1
   3   5   4 -11.750 12.2605  -2
  -3  -5   2 -11.750 12.2605   1
   2   5  -2 518.361 30.9048   1
   2   5  -2 546.427 29.9947   1
   2   5   4 1009.53 45.0191  -2
  -2  -5   2 1009.53 45.0191   1
   1   5  -2 29.4500 7.74324   1
   1   5  -2 54.0263 10.5160   1
  -1  -5   2 45.0513 9.42125   1
  -1  -5   2 44.0503 3.79640   1
  -1  -5   2 44.5286 9.19718   1
  -1  -5   2 33.0639 9.96988   1
   0   5  -2 151.527 12.6373   1
   0   5  -2 173.735 16.8962   1
   0  -5   2 151.920 10.3668   1
   0  -5   2 157.082 14.4484   1
   0  -5   2 163.334 9.44047   1
   0  -5   2 177.920 10.7289   1
   0  -5   2 152.708 17.6036   1
  -1   5  -2 895.854 45.2514   1
  -1   5  -2 1031.62 42.2887   1
   1  -5   2 953.817 38.6667   1
   1  -5   2 962.532 49.3253   1
   1  -5   2 1011.18 37.5942   1
   1  -5   2 983.114 43.3106   1
  -2   5  -2 215.169 21.3265   1
  -2   5  -2 216.374 17.6759   1
   2  -5   2 211.199 15.7053   1
   2  -5   2 220.908 21.6467   1
   2  -5   2 217.355 16.2747   1
   3  -5  -3 64.2638 20.2532  -2
  -3   5  -2 64.2638 20.2532   1
   3  -5   2 71.8922 14.8555   1
   3  -5   2 100.728 12.9030   1
   3  -5   2 66.0022 11.5017   1
   4  -5  -3 175.840 27.1074  -2
  -4   5  -2 175.840 27.1074   1
  -4   5   3 164.512 25.2868  -2
   4  -5   2 164.512 25.2868   1
  -4   5   3 151.676 20.6746  -2
   4  -5   2 151.676 20.6746   1
   5  -5  -3 408.958 37.5215  -2
  -5   5  -2 408.958 37.5215   1
  -5   5   3 376.905 31.0767  -2
   5  -5   2 376.905 31.0767   1
   6  -5  -3 117.224 26.9977  -2
  -6   5  -2 117.224 26.9977   1
  -6   5   3 119.050 21.8168  -2
   6  -5   2 119.050 21.8168   1
   7  -5  -3 700.430 54.7160  -2
  -7   5  -2 700.430 54.7160   1
  -7   5   3 840.397 50.1315  -2
   7  -5   2 840.397 50.1315   1
   8   4   4 219.214 28.6142  -2
  -8  -4   2 219.214 28.6142   1
   7   4   4 559.339 37.7217  -2
  -7  -4   2 559.339 37.7217   1
  -6  -4  -4 454.521 35.8969  -2
   6   4  -2 454.521 35.8969   1
  -6  -4   2 395.245 34.9246   1
  -5  -4  -4 819.615 44.8571  -2
   5   4  -2 819.615 44.8571   1
  -5  -4   2 432.771 40.0630   1
  -5  -4   2 439.236 25.0828   1
  -5  -4   2 441.015 34.1030   1
   4   4  -2 46.4009 7.06463   1
   4   4  -2 49.6845 10.5545   1
  -4  -4   2 45.5208 12.7660   1
  -4  -4   2 54.7032 12.7315   1
  -4  -4   2 56.4022 8.64800   1
  -4  -4   2 52.2508 15.8142   1
  -4  -4   2 50.5061 8.70908   1
   3   4  -2 67.3908 4.98772   1
   3   4  -2 82.0298 10.9307   1
   3   4  -2 87.1050 4.95580   1
  -3  -4   2 85.1781 8.37364   1
  -3  -4   2 83.8508 8.36617   1
  -3  -4   2 84.3282 12.7481   1
  -3  -4   2 78.1579 16.2948   1
  -3  -4   2 96.0822 14.0879   1
   2   4  -2 18.2377 7.60156   1
   2   4  -2 9.55065 6.01995   1
   2   4  -2 9.80319 5.63895   1
  -2  -4   2 21.6508 7.28933   1
  -2  -4   2 8.54651 6.30811   1
  -2  -4   2 14.7337 6.97853   1
   1   4  -2 33.0702 7.23620   1
   1   4  -2 55.9684 10.8234   1
   1   4   3 177.628 14.9750  -2
  -1  -4   2 177.628 14.9750   1
   0  -4  -3 1836.59 69.2458  -2
   0   4  -2 1836.59 69.2458   1
   0   4   3 1981.18 73.1079  -2
   0  -4   2 1981.18 73.1079   1
   0   4   3 1804.54 60.3467  -2
   0  -4   2 1804.54 60.3467   1
   0   4   3 1796.36 69.7758  -2
   0  -4   2 1796.36 69.7758   1
   1  -4  -3 7.43905 8.31967  -2
  -1   4  -2 7.43905 8.31967   1
   1  -4  -3 41.8032 12.4619  -2
  -1   4  -2 41.8032 12.4619   1
  -1   4   3 50.9960 13.8712  -2
   1  -4   2 50.9960 13.8712   1
  -1   4   3 26.2675 9.69322  -2
   1  -4   2 26.2675 9.69322   1
  -1   4   3 16.6926 8.79593  -2
   1  -4   2 16.6926 8.79593   1
   2  -4  -3 59.5767 14.5987  -2
  -2   4  -2 59.5767 14.5987   1
   2  -4  -3 71.2068 12.2952  -2
  -2   4  -2 71.2068 12.2952   1
   2  -4  -3 70.5688 8.25139  -2
  -2   4  -2 70.5688 8.25139   1
  -2   4   3 33.8249 10.0152  -2
   2  -4   2 33.8249 10.0152   1
  -2   4   3 59.6599 14.1648  -2
   2  -4   2 59.6599 14.1648   1
  -2   4   3 80.1593 10.8328  -2
   2  -4   2 80.1593 10.8328   1
   3  -4  -3 407.698 30.4433  -2
  -3   4  -2 407.698 30.4433   1
   3  -4  -3 438.500 28.4508  -2
  -3   4  -2 438.500 28.4508   1
  -3   4   3 455.226 30.8189  -2
   3  -4   2 455.226 30.8189   1
  -3   4   3 408.864 23.8099  -2
   3  -4   2 408.864 23.8099   1
  -3   4   3 433.208 25.2747  -2
   3  -4   2 433.208 25.2747   1
   4  -4  -3 -0.5004 13.0917  -2
  -4   4  -2 -0.5004 13.0917   1
  -4   4   3 10.4162 12.4152  -2
   4  -4   2 10.4162 12.4152   1
  -4   4   3 3.14189 11.0058  -2
   4  -4   2 3.14189 11.0058   1
   5  -4  -3 172.461 26.6990  -2
  -5   4  -2 172.461 26.6990   1
  -5   4   3 121.704 20.2052  -2
   5  -4   2 121.704 20.2052   1
   6  -4  -3 716.282 53.1250  -2
  -6   4  -2 716.282 53.1250   1
  -6   4   3 713.986 44.4465  -2
   6  -4   2 713.986 44.4465   1
   7  -4  -3 272.687 38.6585  -2
  -7   4  -2 272.687 38.6585   1
  -7   4   3 257.981 31.6952  -2
   7  -4   2 257.981 31.6952   1
  -8  -3   2 123.718 21.2203   1
  -7  -3   2 42.5479 16.8966   1
  -7  -3   2 55.3996 15.6084   1
  -6  -3   2 246.763 27.0112   1
  -5  -3  -3 215.255 13.8163  -2
   5   3  -2 215.255 13.8163   1
  -5  -3   2 66.0731 14.4255   1
  -5  -3   2 77.5572 15.3420   1
  -5  -3   2 74.9110 11.4488   1
  -4  -3  -3 243.143 20.4310  -2
   4   3  -2 243.143 20.4310   1
   4   3   3 242.334 17.1620  -2
  -4  -3   2 242.334 17.1620   1
  -3  -3  -3 1015.77 44.7503  -2
   3   3  -2 1015.77 44.7503   1
   3   3   3 1102.49 40.2729  -2
  -3  -3   2 1102.49 40.2729   1
   3   3   3 1202.60 56.9221  -2
  -3  -3   2 1202.60 56.9221   1
   3   3   3 997.466 47.0655  -2
  -3  -3   2 997.466 47.0655   1
  -2  -3  -3 187.246 8.42378  -2
   2   3  -2 187.246 8.42378   1
  -2  -3  -3 180.623 13.6156  -2
   2   3  -2 180.623 13.6156   1
   2   3   3 197.453 16.6995  -2
  -2  -3   2 197.453 16.6995   1
   2   3   3 201.118 19.5664  -2
  -2  -3   2 201.118 19.5664   1
   2   3   3 203.326 16.9271  -2
  -2  -3   2 203.326 16.9271   1
   2   3   3 206.762 11.2404  -2
  -2  -3   2 206.762 11.2404   1
  -1  -3  -3 907.447 37.9631  -2
   1   3  -2 907.447 37.9631   1
  -1  -3  -3 886.353 37.4031  -2
   1   3  -2 886.353 37.4031   1
   1   3   3 942.550 30.6776  -2
  -1  -3   2 942.550 30.6776   1
   1   3   3 888.429 28.8096  -2
  -1  -3   2 888.429 28.8096   1
   1   3   3 884.180 38.4864  -2
  -1  -3   2 884.180 38.4864   1
   1   3   3 838.393 37.4830  -2
  -1  -3   2 838.393 37.4830   1
   1   3   3 880.082 34.9376  -2
  -1  -3   2 880.082 34.9376   1
   1   3   3 858.023 30.4801  -2
  -1  -3   2 858.023 30.4801   1
   0  -3  -3 435.222 22.0749  -2
   0   3  -2 435.222 22.0749   1
   0  -3  -3 443.378 24.3860  -2
   0   3  -2 443.378 24.3860   1
   0   3   3 436.300 17.8808  -2
   0  -3   2 436.300 17.8808   1
   0   3   3 414.777 23.1547  -2
   0  -3   2 414.777 23.1547   1
   0   3   3 429.585 17.8329  -2
   0  -3   2 429.585 17.8329   1
   0   3   3 519.097 27.1501  -2
   0  -3   2 519.097 27.1501   1
   0   3   3 422.299 18.9327  -2
   0  -3   2 422.299 18.9327   1
   1  -3  -3 349.218 23.5291  -2
  -1   3  -2 349.218 23.5291   1
   1  -3  -3 370.553 22.0911  -2
  -1   3  -2 370.553 22.0911   1
  -1   3   3 396.792 26.2178  -2
   1  -3   2 396.792 26.2178   1
  -1   3   3 394.297 22.6482  -2
   1  -3   2 394.297 22.6482   1
  -1   3   3 331.738 19.1366  -2
   1  -3   2 331.738 19.1366   1
   2  -3  -3 2324.33 88.4307  -2
  -2   3  -2 2324.33 88.4307   1
  -2   3   3 2238.38 79.3152  -2
   2  -3   2 2238.38 79.3152   1
  -2   3   3 2264.19 87.5589  -2
   2  -3   2 2264.19 87.5589   1
   3  -3  -3 2931.71 114.098  -2
  -3   3  -2 2931.71 114.098   1
  -3   3   3 3169.80 114.927  -2
   3  -3   2 3169.80 114.927   1
  -4   3  -2 859.698 48.0192   1
  -4   3  -2 922.964 40.4673   1
   4  -3   2 856.263 41.0830   1
  -5   3  -2 549.721 31.9919   1
  -5   3  -2 602.498 40.9508   1
   5  -3   2 583.194 33.5548   1
  -6   3  -2 614.477 45.0701   1
   6  -3   2 638.007 38.1709   1
  -7   3  -2 20.0630 13.7066   1
   7  -3   2 26.9520 11.3843   1
   8   2   3 219.401 28.1963  -2
  -8  -2   2 219.401 28.1963   1
   7   2   3 127.235 20.4817  -2
  -7  -2   2 127.235 20.4817   1
   7   2   3 112.942 22.9066  -2
  -7  -2   2 112.942 22.9066   1
   6   2   3 423.622 29.3019  -2
  -6  -2   2 423.622 29.3019   1
   6   2   3 485.290 36.6415  -2
  -6  -2   2 485.290 36.6415   1
  -5  -2  -3 118.670 11.0082  -2
   5   2  -2 118.670 11.0082   1
   5   2   3 142.236 17.8457  -2
  -5  -2   2 142.236 17.8457   1
   5   2   3 100.667 13.2672  -2
  -5  -2   2 100.667 13.2672   1
  -4  -2  -3 478.537 22.6485  -2
   4   2  -2 478.537 22.6485   1
  -4  -2  -3 523.865 35.5164  -2
   4   2  -2 523.865 35.5164   1
   4   2   3 494.061 31.9533  -2
  -4  -2   2 494.061 31.9533   1
   4   2   3 519.928 26.2243  -2
  -4  -2   2 519.928 26.2243   1
  -3  -2  -3 225.831 13.0276  -2
   3   2  -2 225.831 13.0276   1
   3   2   3 235.954 15.0334  -2
  -3  -2   2 235.954 15.0334   1
   3   2   3 225.877 24.0655  -2
  -3  -2   2 225.877 24.0655   1
  -2  -2  -3 166.322 12.3007  -2
   2   2  -2 166.322 12.3007   1
  -2  -2  -3 143.781 9.29338  -2
   2   2  -2 143.781 9.29338   1
   2   2   3 160.012 11.4935  -2
  -2  -2   2 160.012 11.4935   1
   1   2  -2 15.6658 3.21439   1
   1   2  -2 12.4626 5.63299   1
   1   2  -2 17.9463 2.94336   1
   1   2  -2 20.1075 3.48260   1
   1   2  -2 16.2107 4.50382   1
   1   2  -2 14.6550 6.03014   1
   1   2   3 310.906 15.0951  -2
  -1  -2   2 310.906 15.0951   1
   1   2   3 313.476 15.0964  -2
  -1  -2   2 313.476 15.0964   1
   0   2  -2 1231.36 49.6255   1
   0   2  -2 1303.67 42.1704   1
   0   2  -2 1299.05 42.0577   1
   0   2  -2 1325.98 50.5111   1
   0   2  -2 1306.47 42.6516   1
   0  -2   2 1332.52 43.7764   1
   0  -2   2 1326.64 45.2579   1
   0  -2   2 1313.50 51.0251   1
   0  -2   2 1325.75 42.1746   1
  -1   2  -2 1778.68 59.4466   1
  -1   2  -2 1682.97 65.6780   1
  -1   2  -2 1733.17 66.5538   1
   1  -2   2 1706.98 66.3037   1
   1  -2   2 1763.32 57.4748   1
   1  -2   2 1740.88 66.0968   1
   1  -2   2 1821.94 58.9495   1
   1  -2   2 1727.44 59.9727   1
  -2   2  -2 39.6743 11.3923   1
  -2   2  -2 28.2340 6.94656   1
  -2   2  -2 37.6490 10.0931   1
   2  -2   2 28.0340 7.80230   1
   2  -2   2 31.3269 7.52057   1
   2  -2   2 39.5562 9.83494   1
  -3   2  -2 43.5954 9.12646   1
  -3   2  -2 66.4042 13.5691   1
   3  -2   2 59.7246 10.2384   1
   3  -2   2 45.7357 8.90758   1
   3  -2   2 27.5301 9.40975   1
  -4   2  -2 74.6313 11.7960   1
  -4   2  -2 89.0949 16.0953   1
   4  -2   2 88.8689 12.6364   1
   5  -2  -2 382.136 35.1958  -2
  -5   2  -2 382.136 35.1958   1
  -5   2   2 389.789 28.3500  -2
   5  -2   2 389.789 28.3500   1
   6  -2  -2 141.579 26.8768  -2
  -6   2  -2 141.579 26.8768   1
  -6   2   2 87.7396 18.7375  -2
   6  -2   2 87.7396 18.7375   1
   7  -2  -2 158.290 31.3109  -2
  -7   2  -2 158.290 31.3109   1
  -7   2   2 170.813 22.5750  -2
   7  -2   2 170.813 22.5750   1
   8   1   3 37.5387 19.5696  -2
  -8  -1   2 37.5387 19.5696   1
   8   1   3 66.1527 19.9909  -2
  -8  -1   2 66.1527 19.9909   1
   7   1   3 6.64901 15.7018  -2
  -7  -1   2 6.64901 15.7018   1
  -6  -1  -3 17.5370 12.1749  -2
   6   1  -2 17.5370 12.1749   1
   6   1   3 11.7644 15.2607  -2
  -6  -1   2 11.7644 15.2607   1
   5   1  -2 175.405 14.3201   1
  -5  -1   2 168.751 16.8646   1
  -5  -1   2 147.986 18.4259   1
   4   1  -2 365.541 19.8559   1
   4   1  -2 340.316 26.9007   1
  -4  -1   2 308.891 24.3760   1
  -4  -1   2 388.995 21.7048   1
  -4  -1   2 384.081 22.6197   1
   3   1  -2 2729.16 102.491   1
   3   1  -2 2618.10 86.8479   1
  -3  -1   2 2681.28 88.7841   1
  -3  -1   2 2742.35 94.5350   1
  -3  -1   2 2648.48 103.014   1
  -3  -1   2 2553.63 89.7670   1
  -3  -1   2 2652.02 100.120   1
   2   1  -2 6.73568 4.44218   1
   2   1  -2 -0.1677 3.33078   1
   2   1  -2 5.08838 3.16652   1
  -2  -1   2 9.66140 5.55083   1
  -2  -1   2 2.95621 3.89741   1
  -2  -1   2 5.04271 6.23368   1
  -2  -1   2 6.38898 4.71948   1
  -2  -1   2 6.12324 3.51607   1
   1   1  -2 1642.60 51.2214   1
   1   1  -2 1668.52 57.5322   1
   1   1  -2 1664.46 53.5638   1
   1   1  -2 1638.95 54.8049   1
   1   1  -2 1717.48 60.8063   1
  -1  -1   2 1529.76 60.1343   1
  -1  -1   2 1583.05 57.6073   1
  -1  -1   2 1664.17 53.6304   1
  -1  -1   2 1592.91 54.5890   1
  -1  -1   2 1669.17 51.6601   1
   0  -1  -2 1393.46 53.1712  -2
   0   1  -2 1393.46 53.1712   1
   0  -1   2 1362.82 47.2590   1
   0  -1   2 1390.67 43.6573   1
   0  -1   2 1317.48 50.4297   1
   0  -1   2 1308.24 51.9287   1
   0  -1   2 1421.34 45.5837   1
  -1   1  -2 253.750 13.2952   1
  -1   1  -2 244.588 14.4738   1
  -1   1  -2 232.050 17.6526   1
  -1   1  -2 238.835 13.2672   1
  -1   1  -2 267.220 16.9236   1
  -1   1   2 249.546 20.2113  -2
   1  -1   2 249.546 20.2113   1
   2  -1  -2 7674.99 238.316  -2
  -2   1  -2 7674.99 238.316   1
   2  -1  -2 7774.97 249.978  -2
  -2   1  -2 7774.97 249.978   1
  -2   1   2 7377.58 239.199  -2
   2  -1   2 7377.58 239.199   1
  -2   1   2 8102.35 250.259  -2
   2  -1   2 8102.35 250.259   1
   3  -1  -2 3024.50 111.047  -2
  -3   1  -2 3024.50 111.047   1
   3  -1  -2 3052.31 101.437  -2
  -3   1  -2 3052.31 101.437   1
  -3   1   2 2994.12 102.073  -2
   3  -1   2 2994.12 102.073   1
   4  -1  -2 482.119 25.6298  -2
  -4   1  -2 482.119 25.6298   1
   4  -1  -2 429.792 30.7496  -2
  -4   1  -2 429.792 30.7496   1
  -4   1   2 449.829 25.9834  -2
   4  -1   2 449.829 25.9834   1
   5  -1  -2 332.345 24.2476  -2
  -5   1  -2 332.345 24.2476   1
   5  -1  -2 363.970 31.6654  -2
  -5   1  -2 363.970 31.6654   1
  -5   1   2 356.352 24.8908  -2
   5  -1   2 356.352 24.8908   1
   6  -1  -2 265.625 31.5129  -2
  -6   1  -2 265.625 31.5129   1
   6  -1  -2 324.381 26.6869  -2
  -6   1  -2 324.381 26.6869   1
  -6   1   2 287.459 25.0060  -2
   6  -1   2 287.459 25.0060   1
  -6   1   2 296.153 26.1658  -2
   6  -1   2 296.153 26.1658   1
   7  -1  -2 417.696 43.8787  -2
  -7   1  -2 417.696 43.8787   1
  -7   1   2 347.866 30.2601  -2
   7  -1   2 347.866 30.2601   1
  -7   1   2 345.846 31.1860  -2
   7  -1   2 345.846 31.1860   1
  -8   0   2 0.08896 9.02858   1
  -8   0   2 9.86471 12.3360   1
  -7   0   2 28.8242 13.2195   1
  -7   0   2 3.26020 8.59700   1
   6   0  -2 9.36122 6.27194   1
  -6   0   2 -0.2484 6.70210   1
  -6   0   2 9.61578 7.82590   1
   5   0  -2 939.817 40.3003   1
  -5   0   2 857.833 47.5162   1
  -5   0   2 877.433 43.3352   1
   4   0  -2 57.2924 9.42726   1
   4   0  -2 71.5748 13.7568   1
  -4   0   2 76.3568 11.7143   1
  -4   0   2 74.6232 12.0449   1
   3   0  -2 101.254 10.2466   1
   3   0  -2 117.060 13.2718   1
  -3   0   2 116.451 11.0276   1
  -3   0   2 115.113 13.0277   1
  -3   0   2 127.268 12.4279   1
   2   0  -2 1110.73 45.6829   1
   2   0  -2 1142.69 40.4897   1
   2   0  -2 1130.92 46.0141   1
   2   0   2 1819.09 61.6522  -2
  -2   0   2 1819.09 61.6522   1
  -1   0  -2 4.65313 7.01909  -2
   1   0  -2 4.65313 7.01909   1
  -1   0  -2 -7.5906 7.12907  -2
   1   0  -2 -7.5906 7.12907   1
  -1   0  -2 -7.0022 6.19942  -2
   1   0  -2 -7.0022 6.19942   1
  -1   0  -2 5.76958 6.69994  -2
   1   0  -2 5.76958 6.69994   1
   1   0   2 15.0665 8.33916  -2
  -1   0   2 15.0665 8.33916   1
   1   0   2 7.33924 6.68750  -2
  -1   0   2 7.33924 6.68750   1
   1   0   2 2.35985 6.55082  -2
  -1   0   2 2.35985 6.55082   1
   1   0   2 4.26882 7.30720  -2
  -1   0   2 4.26882 7.30720   1
   0   0  -2 3312.19 107.532  -2
   0   0  -2 3312.19 107.532   1
   0   0  -2 3423.47 104.863  -2
   0   0  -2 3423.47 104.863   1
   0   0  -2 3421.09 103.158  -2
   0   0  -2 3421.09 103.158   1
   0   0  -2 3399.02 100.300  -2
   0   0  -2 3399.02 100.300   1
   0   0  -2 3339.27 113.029  -2
   0   0  -2 3339.27 113.029   1
   0   0   2 3169.17 107.440  -2
   0   0   2 3169.17 107.440   1
   0   0   2 3230.32 119.475  -2
   0   0   2 3230.32 119.475   1
   0   0   2 3325.88 100.268  -2
   0   0   2 3325.88 100.268   1
   0   0   2 3095.32 112.840  -2
   0   0   2 3095.32 112.840   1
   0   0   2 3220.51 104.631  -2
   0   0   2 3220.51 104.631   1
   0   0   2 3340.16 102.792  -2
   0   0   2 3340.16 102.792   1
   1   0  -2 -2.8327 9.00984  -2
  -1   0  -2 -2.8327 9.00984   1
   1   0  -2 3.04675 10.8513  -2
  -1   0  -2 3.04675 10.8513   1
   1   0  -2 -5.1510 7.42231  -2
  -1   0  -2 -5.1510 7.42231   1
   1   0  -2 -0.5758 7.16430  -2
  -1   0  -2 -0.5758 7.16430   1
  -1   0   2 -2.8518 9.61399  -2
   1   0   2 -2.8518 9.61399   1
  -1   0   2 -10.022 7.22088  -2
   1   0   2 -10.022 7.22088   1
  -1   0   2 7.30050 7.37525  -2
   1   0   2 7.30050 7.37525   1
  -1   0   2 11.4271 9.09336  -2
   1   0   2 11.4271 9.09336   1
   2   0  -2 1557.80 55.0062  -2
  -2   0  -2 1557.80 55.0062   1
  -2   0   2 1593.45 54.9068  -2
   2   0   2 1593.45 54.9068   1
  -3   0  -2 38.8440 9.23939   1
  -3   0  -2 50.2241 8.86365   1
  -3   0  -2 36.6210 10.9679   1
   3   0   2 62.3055 9.33732   1
   3   0   2 28.6788 7.22932   1
  -4   0  -2 559.263 35.2652   1
  -4   0  -2 591.335 29.8511   1
   4   0   2 588.843 28.9093   1
   4   0   2 584.349 29.3938   1
  -5   0  -2 297.972 27.0391   1
  -5   0  -2 270.525 21.0842   1
   5   0   2 279.117 19.8920   1
   5   0   2 298.531 21.6416   1
  -6   0  -2 550.982 42.3431   1
  -6   0  -2 565.912 34.9005   1
   6   0   2 612.738 34.9322   1
   6   0   2 619.324 33.4025   1
  -7   0  -2 959.724 50.7938   1
  -7   0  -2 952.082 61.3742   1
   7   0   2 921.427 48.6685   1
   8  -1   2 46.0149 24.3374  -2
  -8   1   2 46.0149 24.3374   1
   7  -1   2 427.212 35.1120  -2
  -7   1   2 427.212 35.1120   1
  -6   1  -2 345.251 25.9658  -2
   6  -1  -2 345.251 25.9658   1
   6  -1   2 291.061 26.4699  -2
  -6   1   2 291.061 26.4699   1
  -5   1  -2 396.728 24.9473  -2
   5  -1  -2 396.728 24.9473   1
   5  -1   2 379.186 28.1233  -2
  -5   1   2 379.186 28.1233   1
   5  -1   2 337.248 24.8808  -2
  -5   1   2 337.248 24.8808   1
  -4   1  -2 432.228 24.8378  -2
   4  -1  -2 432.228 24.8378   1
  -4   1  -2 505.401 32.7184  -2
   4  -1  -2 505.401 32.7184   1
   4  -1   2 519.522 30.1851  -2
  -4   1   2 519.522 30.1851   1
   4  -1   2 458.757 26.2985  -2
  -4   1   2 458.757 26.2985   1
  -3   1  -2 3069.72 101.359  -2
   3  -1  -2 3069.72 101.359   1
   3  -1   2 3004.60 102.200  -2
  -3   1   2 3004.60 102.200   1
  -2   1  -2 8023.38 247.329  -2
   2  -1  -2 8023.38 247.329   1
  -2   1   2 5492.25 170.260   1
  -2   1   2 5497.88 171.746   1
  -2   1   2 5510.71 183.592   1
   1  -1  -2 3.58012 3.61745   1
   1  -1  -2 5.87148 4.38638   1
   1  -1  -2 4.22018 2.88744   1
   1  -1  -2 -0.5619 3.40384   1
   1  -1  -2 -0.0561 3.76941   1
  -1   1   2 0.50207 3.15200   1
  -1   1   2 6.70756 4.37241   1
  -1   1   2 -0.7519 2.59571   1
  -1   1   2 -0.8644 3.53271   1
  -1   1   2 2.53988 4.06598   1
   0  -1  -2 3.35016 2.59695   1
   0  -1  -2 4.75942 3.73999   1
   0  -1  -2 6.73473 3.51918   1
   0  -1  -2 6.14639 3.05665   1
   0  -1  -2 2.61379 3.99811   1
   0  -1  -2 2.02630 3.20146   1
   0  -1   2 1196.35 46.6967  -2
   0   1   2 1196.35 46.6967   1
  -1  -1  -2 38.6858 5.97268   1
  -1  -1  -2 29.5153 6.57252   1
  -1  -1  -2 37.7010 5.89615   1
  -1  -1  -2 21.8582 7.25945   1
   1   1   2 39.9885 6.47599   1
   1   1   2 43.1694 5.53548   1
   1   1   2 44.2905 6.70960   1
  -2  -1  -2 1793.78 60.3836   1
  -2  -1  -2 1753.44 58.3391   1
  -2  -1  -2 1709.67 59.1699   1
   2   1   2 1802.91 58.5272   1
   2   1   2 1759.52 58.9421   1
   2   1   2 1724.52 58.3050   1
  -3  -1  -2 103.052 10.5511   1
  -3  -1  -2 94.8839 10.9423   1
   3   1   2 84.0933 10.0454   1
   3   1   2 95.9919 9.76917   1
  -4  -1  -2 512.768 27.1502   1
  -4  -1  -2 484.831 26.3346   1
   4   1   2 512.016 24.6332   1
   4   1   2 494.564 26.0108   1
  -5  -1  -2 -1.4758 4.98907   1
   5   1   2 1.36950 5.20287   1
   5   1   2 3.00253 4.68654   1
   6   1  -1 411.476 29.7788  -2
  -6  -1  -2 411.476 29.7788   1
  -6  -1   1 450.284 30.6672  -2
   6   1   2 450.284 30.6672   1
  -6  -1   1 483.635 28.9500  -2
   6   1   2 483.635 28.9500   1
   7   1  -1 64.2238 18.2856  -2
  -7  -1  -2 64.2238 18.2856   1
  -7  -1   1 32.2533 16.6112  -2
   7   1   2 32.2533 16.6112   1
   9   1  -1 102.977 21.9617  -2
  -9  -1  -2 102.977 21.9617   1
   8  -2   2 104.828 22.2128  -2
  -8   2   2 104.828 22.2128   1
   8  -2   2 91.0378 25.2771  -2
  -8   2   2 91.0378 25.2771   1
   8  -2   2 102.706 20.6955  -2
  -8   2   2 102.706 20.6955   1
  -7   2  -2 146.040 20.8758  -2
   7  -2  -2 146.040 20.8758   1
   7  -2   2 165.351 22.9347  -2
  -7   2   2 165.351 22.9347   1
   7  -2   2 162.456 26.5242  -2
  -7   2   2 162.456 26.5242   1
   7  -2   2 155.792 22.5335  -2
  -7   2   2 155.792 22.5335   1
  -6   2  -2 122.708 19.7004  -2
   6  -2  -2 122.708 19.7004   1
   6  -2   2 101.391 19.2237  -2
  -6   2   2 101.391 19.2237   1
  -5   2  -2 416.615 27.9128  -2
   5  -2  -2 416.615 27.9128   1
   5  -2   2 382.196 28.2046  -2
  -5   2   2 382.196 28.2046   1
   4  -2  -2 2.22353 5.25573   1
  -4   2   2 0.96974 5.54202   1
  -4   2   2 2.21064 5.66563   1
   3  -2  -2 51.7671 9.18437   1
  -3   2   2 41.4901 9.07105   1
  -3   2   2 28.7399 7.40393   1
   2  -2  -2 2350.18 80.8792   1
   2  -2  -2 2458.33 85.3819   1
   2  -2  -2 2342.35 79.8542   1
  -2   2   2 2532.62 81.5247   1
  -2   2   2 2310.85 84.6480   1
   1  -2  -2 489.479 20.4756   1
   1  -2  -2 517.399 21.2595   1
   1  -2  -2 527.586 22.4512   1
   1  -2  -2 465.481 22.0809   1
  -1   2   2 484.435 21.2979   1
  -1   2   2 500.106 19.7601   1
   0  -2  -2 62.0177 7.03294   1
   0  -2  -2 51.7067 7.25224   1
   0  -2  -2 54.4980 5.33864   1
   0  -2  -2 52.3818 7.15602   1
   0  -2  -2 51.2081 5.80229   1
   0   2   2 62.1494 7.89534   1
   0   2   2 61.7026 5.64674   1
   0   2   2 54.4269 4.57840   1
   0   2   2 50.0114 7.25296   1
   1   2  -1 2941.96 92.3089  -2
  -1  -2  -2 2941.96 92.3089   1
   1   2  -1 2981.44 101.614  -2
  -1  -2  -2 2981.44 101.614   1
  -1  -2   1 2969.84 101.383  -2
   1   2   2 2969.84 101.383   1
  -1  -2   1 3069.34 92.8625  -2
   1   2   2 3069.34 92.8625   1
   2   2  -1 1600.30 54.2291  -2
  -2  -2  -2 1600.30 54.2291   1
  -2  -2   1 1621.63 52.1042  -2
   2   2   2 1621.63 52.1042   1
  -2  -2   1 1643.35 60.9665  -2
   2   2   2 1643.35 60.9665   1
   3   2  -1 1144.51 42.6928  -2
  -3  -2  -2 1144.51 42.6928   1
   3   2  -1 1118.90 43.2858  -2
  -3  -2  -2 1118.90 43.2858   1
  -3  -2   1 1096.84 42.4724  -2
   3   2   2 1096.84 42.4724   1
  -3  -2   1 1154.48 40.3810  -2
   3   2   2 1154.48 40.3810   1
   4   2  -1 4063.34 137.370  -2
  -4  -2  -2 4063.34 137.370   1
   4   2  -1 4326.78 139.196  -2
  -4  -2  -2 4326.78 139.196   1
  -4  -2   1 4240.56 134.329  -2
   4   2   2 4240.56 134.329   1
   5   2  -1 1258.36 54.0229  -2
  -5  -2  -2 1258.36 54.0229   1
   5   2  -1 1394.06 56.5806  -2
  -5  -2  -2 1394.06 56.5806   1
  -5  -2   1 1354.89 53.9771  -2
   5   2   2 1354.89 53.9771   1
   6   2  -1 148.896 18.5477  -2
  -6  -2  -2 148.896 18.5477   1
  -6  -2   1 130.948 17.2675  -2
   6   2   2 130.948 17.2675   1
   7   2  -1 540.425 35.9647  -2
  -7  -2  -2 540.425 35.9647   1
  -7  -2   1 497.053 34.5307  -2
   7   2   2 497.053 34.5307   1
   8   2  -1 700.785 45.8558  -2
  -8  -2  -2 700.785 45.8558   1
  -8   3   2 610.752 46.1869   1
   7  -3  -2 9.16735 10.0241   1
  -7   3   2 15.9416 10.3462   1
  -7   3   2 4.90550 8.58816   1
  -7   3   2 23.2223 13.1851   1
   6  -3  -2 41.7341 12.0954   1
  -6   3   2 59.6098 14.9979   1
  -6   3   2 32.6852 11.0701   1
  -6   3   2 34.2938 11.9148   1
   5  -3  -2 0.58499 5.86561   1
  -5   3   2 4.29374 7.08220   1
  -5   3   2 4.45855 7.57967   1
  -5   3   2 5.98058 6.04391   1
   4  -3  -2 -0.5273 4.92515   1
  -4   3   2 8.64881 5.92393   1
  -4   3   2 9.23291 5.45319   1
  -4   3   2 6.36764 5.33786   1
   3  -3  -2 6.83843 4.74321   1
   3  -3  -2 5.02547 4.98464   1
   3  -3   1 732.898 33.9248  -2
  -3   3   2 732.898 33.9248   1
   2  -3  -2 1227.75 44.5214   1
   2  -3  -2 1080.50 42.6858   1
   2  -3   1 1860.53 63.3326  -2
  -2   3   2 1860.53 63.3326   1
  -1   3  -1 35.6730 8.57907  -2
   1  -3  -2 35.6730 8.57907   1
   1  -3   1 40.7556 7.70888  -2
  -1   3   2 40.7556 7.70888   1
   1  -3   1 33.4362 5.77372  -2
  -1   3   2 33.4362 5.77372   1
   1  -3   1 38.2125 5.73967  -2
  -1   3   2 38.2125 5.73967   1
   0   3  -1 503.208 19.3018  -2
   0  -3  -2 503.208 19.3018   1
   0   3  -1 562.844 22.6580  -2
   0  -3  -2 562.844 22.6580   1
   0   3  -1 562.478 20.4464  -2
   0  -3  -2 562.478 20.4464   1
   0   3  -1 534.284 23.8393  -2
   0  -3  -2 534.284 23.8393   1
   0  -3   1 544.029 24.6019  -2
   0   3   2 544.029 24.6019   1
   1   3  -1 138.430 12.7747  -2
  -1  -3  -2 138.430 12.7747   1
   1   3  -1 118.044 5.56934  -2
  -1  -3  -2 118.044 5.56934   1
   1   3  -1 123.421 6.09823  -2
  -1  -3  -2 123.421 6.09823   1
   1   3  -1 117.716 11.2204  -2
  -1  -3  -2 117.716 11.2204   1
   1   3  -1 126.129 9.47626  -2
  -1  -3  -2 126.129 9.47626   1
  -1  -3   1 131.717 12.1487  -2
   1   3   2 131.717 12.1487   1
  -1  -3   1 113.486 9.61630  -2
   1   3   2 113.486 9.61630   1
  -1  -3   1 120.976 10.6462  -2
   1   3   2 120.976 10.6462   1
   2   3  -1 726.963 27.3525  -2
  -2  -3  -2 726.963 27.3525   1
   2   3  -1 711.337 26.5109  -2
  -2  -3  -2 711.337 26.5109   1
   2   3  -1 751.172 29.1558  -2
  -2  -3  -2 751.172 29.1558   1
  -2  -3   1 763.792 34.3465  -2
   2   3   2 763.792 34.3465   1
  -2  -3   1 741.378 29.4046  -2
   2   3   2 741.378 29.4046   1
  -2  -3   1 776.447 38.5252  -2
   2   3   2 776.447 38.5252   1
   3   3  -1 763.938 30.3696  -2
  -3  -3  -2 763.938 30.3696   1
   3   3  -1 736.730 31.0507  -2
  -3  -3  -2 736.730 31.0507   1
   3   3  -1 739.965 31.0016  -2
  -3  -3  -2 739.965 31.0016   1
  -3  -3   1 820.041 44.0284  -2
   3   3   2 820.041 44.0284   1
  -3  -3   1 671.016 35.3508  -2
   3   3   2 671.016 35.3508   1
  -3  -3   1 742.446 31.3593  -2
   3   3   2 742.446 31.3593   1
   4   3  -1 500.022 26.0595  -2
  -4  -3  -2 500.022 26.0595   1
  -4  -3   1 533.986 26.5018  -2
   4   3   2 533.986 26.5018   1
  -4  -3   1 486.801 19.8978  -2
   4   3   2 486.801 19.8978   1
  -4  -3   1 522.814 31.7852  -2
   4   3   2 522.814 31.7852   1
  -5  -3  -2 283.680 20.2012   1
  -5  -3  -2 304.358 21.3636   1
  -5  -3   1 431.191 26.1177  -2
   5   3   2 431.191 26.1177   1
  -6  -3  -2 5.03204 6.63507   1
   6   3   2 -2.2760 5.33038   1
  -7  -3  -2 871.445 46.1256   1
   7   3   2 857.617 43.1918   1
  -8  -3  -2 41.7775 14.4787   1
   8   3   2 38.7323 12.2355   1
  -8   4   2 236.312 28.8963   1
  -7   4  -1 18.7931 21.3415  -2
   7  -4  -2 18.7931 21.3415   1
   7  -4   1 50.0982 24.4558  -2
  -7   4   2 50.0982 24.4558   1
  -6   4  -1 464.703 34.5467  -2
   6  -4  -2 464.703 34.5467   1
   6  -4   1 418.038 35.0830  -2
  -6   4   2 418.038 35.0830   1
   6  -4   1 500.457 34.3753  -2
  -6   4   2 500.457 34.3753   1
  -5   4  -1 534.402 33.8694  -2
   5  -4  -2 534.402 33.8694   1
   5  -4   1 555.783 35.1923  -2
  -5   4   2 555.783 35.1923   1
   5  -4   1 601.317 34.1529  -2
  -5   4   2 601.317 34.1529   1
  -4   4  -1 532.409 29.9683  -2
   4  -4  -2 532.409 29.9683   1
   4  -4   1 428.222 26.6826  -2
  -4   4   2 428.222 26.6826   1
   4  -4   1 502.644 28.5217  -2
  -4   4   2 502.644 28.5217   1
   4  -4   1 508.071 28.1366  -2
  -4   4   2 508.071 28.1366   1
  -3   4  -1 94.1981 11.7795  -2
   3  -4  -2 94.1981 11.7795   1
  -3   4  -1 90.9245 11.3492  -2
   3  -4  -2 90.9245 11.3492   1
   3  -4   1 94.8844 10.7608  -2
  -3   4   2 94.8844 10.7608   1
   3  -4   1 95.9054 10.0532  -2
  -3   4   2 95.9054 10.0532   1
  -2   4  -1 3026.44 100.709  -2
   2  -4  -2 3026.44 100.709   1
  -2   4  -1 2942.60 100.874  -2
   2  -4  -2 2942.60 100.874   1
   2  -4   1 3104.65 99.6754  -2
  -2   4   2 3104.65 99.6754   1
   2  -4   1 3028.03 98.9234  -2
  -2   4   2 3028.03 98.9234   1
   2  -4   1 3103.67 103.657  -2
  -2   4   2 3103.67 103.657   1
  -1   4  -1 3346.03 105.648  -2
   1  -4  -2 3346.03 105.648   1
  -1   4  -1 3239.58 105.268  -2
   1  -4  -2 3239.58 105.268   1
   1  -4   1 3199.43 110.025  -2
  -1   4   2 3199.43 110.025   1
   0   4  -1 2538.78 86.9141  -2
   0  -4  -2 2538.78 86.9141   1
   0   4   2 2046.57 69.0572   1
   1   4  -1 1427.10 56.8783  -2
  -1  -4  -2 1427.10 56.8783   1
   1   4  -1 1449.89 50.9088  -2
  -1  -4  -2 1449.89 50.9088   1
   1   4   2 178.041 12.1177   1
   2   4  -1 2187.08 83.8963  -2
  -2  -4  -2 2187.08 83.8963   1
  -2  -4   1 2309.90 83.8420  -2
   2   4   2 2309.90 83.8420   1
  -3  -4  -2 152.847 10.2519   1
  -3  -4  -2 173.320 11.9919   1
  -3  -4  -2 167.022 10.9050   1
   3   4   2 175.781 12.1440   1
   3   4   2 172.238 19.2171   1
   3   4   2 190.693 17.8948   1
  -4  -4  -2 158.157 12.5562   1
  -4  -4  -2 150.709 12.4820   1
   4   4   2 138.117 12.2154   1
   4   4   2 139.460 17.6728   1
  -5  -4  -2 124.870 13.9130   1
  -5  -4  -2 166.601 15.2628   1
  -5  -4   0 175.816 23.9244  -2
   5   4   2 175.816 23.9244   1
   6   4   0 266.691 23.4493  -2
  -6  -4  -2 266.691 23.4493   1
  -6  -4   0 194.086 20.8481  -2
   6   4   2 194.086 20.8481   1
   7   4   0 142.849 22.4964  -2
  -7  -4  -2 142.849 22.4964   1
  -7  -4   0 172.225 21.2583  -2
   7   4   2 172.225 21.2583   1
   8   4   0 260.614 28.4756  -2
  -8  -4  -2 260.614 28.4756   1
  -8   5  -1 196.836 28.3917  -2
   8  -5  -2 196.836 28.3917   1
  -7   5  -1 203.721 25.6887  -2
   7  -5  -2 203.721 25.6887   1
   7  -5   1 295.019 27.6422  -2
  -7   5   2 295.019 27.6422   1
  -6   5  -1 201.715 23.6589  -2
   6  -5  -2 201.715 23.6589   1
   6  -5   1 120.455 21.5129  -2
  -6   5   2 120.455 21.5129   1
   6  -5   1 189.286 21.3530  -2
  -6   5   2 189.286 21.3530   1
  -5   5  -1 29.4405 15.2471  -2
   5  -5  -2 29.4405 15.2471   1
   5  -5   1 61.3499 16.7712  -2
  -5   5   2 61.3499 16.7712   1
  -4   5  -1 301.325 24.2709  -2
   4  -5  -2 301.325 24.2709   1
   4  -5   1 322.036 23.8280  -2
  -4   5   2 322.036 23.8280   1
   3  -5  -2 82.6990 10.9975   1
   3  -5  -2 74.4862 11.5147   1
   3  -5   1 470.433 23.9455  -2
  -3   5   2 470.433 23.9455   1
   3  -5   1 465.137 25.4946  -2
  -3   5   2 465.137 25.4946   1
   2  -5  -2 329.016 16.4918   1
   2  -5  -2 311.134 18.8277   1
   2  -5  -2 303.235 17.9563   1
  -2   5   2 293.551 15.1267   1
  -2   5   2 318.101 14.9501   1
  -2   5   2 297.869 14.1020   1
   1  -5  -2 1172.52 42.6413   1
   1  -5  -2 1189.90 45.1889   1
   1  -5  -2 1263.78 48.3488   1
   1  -5  -2 1238.83 44.8553   1
  -1   5   2 1228.04 43.0346   1
   0  -5  -2 3.52492 3.90463   1
   0  -5  -2 3.13602 3.79882   1
   0  -5  -2 6.13740 2.66579   1
  -1  -5  -2 795.701 39.1559   1
  -1  -5  -2 858.119 35.7055   1
  -1  -5  -2 860.507 33.1853   1
  -1  -5  -2 859.433 42.0670   1
   1   5   2 834.300 33.6013   1
   2   5   0 38.1949 7.89108  -2
  -2  -5  -2 38.1949 7.89108   1
   2   5   0 47.9037 10.9915  -2
  -2  -5  -2 47.9037 10.9915   1
   2   5   2 46.9014 7.11604   1
   3   5   0 918.732 34.1356  -2
  -3  -5  -2 918.732 34.1356   1
   3   5   0 833.595 30.7142  -2
  -3  -5  -2 833.595 30.7142   1
  -3  -5   0 857.243 43.0722  -2
   3   5   2 857.243 43.0722   1
  -3  -5   0 839.960 34.2520  -2
   3   5   2 839.960 34.2520   1
   4   5   0 83.0142 11.3333  -2
  -4  -5  -2 83.0142 11.3333   1
   4   5   0 65.5601 9.63812  -2
  -4  -5  -2 65.5601 9.63812   1
  -4  -5   0 88.7612 11.0925  -2
   4   5   2 88.7612 11.0925   1
  -4  -5   0 77.3156 13.4241  -2
   4   5   2 77.3156 13.4241   1
   5   5   0 972.782 41.6877  -2
  -5  -5  -2 972.782 41.6877   1
   5   5   0 875.435 39.8931  -2
  -5  -5  -2 875.435 39.8931   1
  -5  -5   0 933.243 49.7700  -2
   5   5   2 933.243 49.7700   1
  -5  -5   0 955.648 39.9713  -2
   5   5   2 955.648 39.9713   1
   6   5   0 522.883 30.8409  -2
  -6  -5  -2 522.883 30.8409   1
  -6  -5   0 615.360 31.1089  -2
   6   5   2 615.360 31.1089   1
   7   5   0 481.159 32.9330  -2
  -7  -5  -2 481.159 32.9330   1
  -7  -5   0 488.221 30.5538  -2
   7   5   2 488.221 30.5538   1
   8   5   0 155.344 24.2714  -2
  -8  -5  -2 155.344 24.2714   1
  -7   6  -1 380.758 37.3890  -2
   7  -6  -2 380.758 37.3890   1
   6  -6  -2 416.652 32.6571   1
  -6   6   2 492.275 32.4220   1
   5  -6  -2 12.6558 8.24805   1
  -5   6   2 3.86599 8.11829   1
  -5   6   2 14.0993 7.92394   1
   4  -6  -2 69.7297 13.0473   1
  -4   6   2 35.1319 10.4994   1
  -4   6   2 57.2177 9.07371   1
   3  -6  -2 56.1977 11.2616   1
   3  -6  -2 69.7920 11.2382   1
  -3   6   2 42.3449 7.84374   1
  -3   6   2 43.5640 6.57435   1
  -2   6   0 54.6633 11.4348  -2
   2  -6  -2 54.6633 11.4348   1
  -2   6   2 67.1917 7.58831   1
  -1   6   0 18.5536 11.5228  -2
   1  -6  -2 18.5536 11.5228   1
  -1   6   0 6.68895 8.47632  -2
   1  -6  -2 6.68895 8.47632   1
  -1   6   0 -0.3806 7.62891  -2
   1  -6  -2 -0.3806 7.62891   1
  -1   6   2 3.00126 3.71695   1
   0   6   0 163.839 14.4668  -2
   0  -6  -2 163.839 14.4668   1
   0   6   0 181.611 14.1578  -2
   0  -6  -2 181.611 14.1578   1
   1   6   0 997.321 48.6414  -2
  -1  -6  -2 997.321 48.6414   1
   1   6   0 993.338 37.4765  -2
  -1  -6  -2 993.338 37.4765   1
   1   6   0 882.497 39.1282  -2
  -1  -6  -2 882.497 39.1282   1
   1   6   0 853.398 43.3921  -2
  -1  -6  -2 853.398 43.3921   1
   2   6   0 938.456 41.6065  -2
  -2  -6  -2 938.456 41.6065   1
   2   6   0 897.443 44.7947  -2
  -2  -6  -2 897.443 44.7947   1
   2   6   0 912.352 35.0189  -2
  -2  -6  -2 912.352 35.0189   1
   2   6   0 886.054 48.8896  -2
  -2  -6  -2 886.054 48.8896   1
  -2  -6   0 941.329 36.6915  -2
   2   6   2 941.329 36.6915   1
   3   6   0 872.840 30.9580  -2
  -3  -6  -2 872.840 30.9580   1
   3   6   0 950.394 47.2334  -2
  -3  -6  -2 950.394 47.2334   1
   3   6   0 976.129 36.0196  -2
  -3  -6  -2 976.129 36.0196   1
   3   6   0 907.604 31.4308  -2
  -3  -6  -2 907.604 31.4308   1
  -3  -6   0 958.421 37.0565  -2
   3   6   2 958.421 37.0565   1
  -3  -6   0 928.376 45.9411  -2
   3   6   2 928.376 45.9411   1
   4   6   0 210.914 15.1290  -2
  -4  -6  -2 210.914 15.1290   1
   4   6   0 221.891 14.3734  -2
  -4  -6  -2 221.891 14.3734   1
  -4  -6   0 206.113 20.7990  -2
   4   6   2 206.113 20.7990   1
  -4  -6   0 206.193 15.9608  -2
   4   6   2 206.193 15.9608   1
   5   6   0 278.523 20.4095  -2
  -5  -6  -2 278.523 20.4095   1
  -5  -6   0 322.520 21.4585  -2
   5   6   2 322.520 21.4585   1
   6   6   0 778.981 39.9346  -2
  -6  -6  -2 778.981 39.9346   1
  -6  -6   0 823.474 39.1525  -2
   6   6   2 823.474 39.1525   1
   7   6   0 23.9077 17.3310  -2
  -7  -6  -2 23.9077 17.3310   1
  -8  -6  -2 271.902 27.2529   1
   7  -7  -2 84.3153 20.1057   1
  -6   7   0 32.4478 21.3923  -2
   6  -7  -2 32.4478 21.3923   1
  -5   7   0 589.658 39.7031  -2
   5  -7  -2 589.658 39.7031   1
  -4   7   0 66.1934 16.1991  -2
   4  -7  -2 66.1934 16.1991   1
   4  -7   0 83.0400 9.94239  -2
  -4   7   2 83.0400 9.94239   1
   4  -7   0 54.1983 12.7400  -2
  -4   7   2 54.1983 12.7400   1
  -3   7   0 2361.20 86.6686  -2
   3  -7  -2 2361.20 86.6686   1
  -3   7   0 2470.75 86.0890  -2
   3  -7  -2 2470.75 86.0890   1
   3  -7   0 2418.91 80.4068  -2
  -3   7   2 2418.91 80.4068   1
   3  -7   0 2316.20 79.4073  -2
  -3   7   2 2316.20 79.4073   1
   3  -7   0 2141.91 80.8188  -2
  -3   7   2 2141.91 80.8188   1
  -2   7   0 24.6702 8.38672  -2
   2  -7  -2 24.6702 8.38672   1
  -2   7   0 37.9441 8.55190  -2
   2  -7  -2 37.9441 8.55190   1
  -2   7   0 19.4515 7.90221  -2
   2  -7  -2 19.4515 7.90221   1
  -2   7   0 20.7911 10.3289  -2
   2  -7  -2 20.7911 10.3289   1
   2  -7   0 37.9086 6.90188  -2
  -2   7   2 37.9086 6.90188   1
  -1   7   0 271.487 21.1934  -2
   1  -7  -2 271.487 21.1934   1
  -1   7   0 289.102 20.1662  -2
   1  -7  -2 289.102 20.1662   1
  -1   7   0 277.338 16.0482  -2
   1  -7  -2 277.338 16.0482   1
  -1   7   0 266.945 16.5839  -2
   1  -7  -2 266.945 16.5839   1
   0   7   0 539.242 28.9494  -2
   0  -7  -2 539.242 28.9494   1
   0   7   0 554.308 28.2718  -2
   0  -7  -2 554.308 28.2718   1
   0   7   0 549.830 20.2688  -2
   0  -7  -2 549.830 20.2688   1
   1   7   0 1311.89 61.9947  -2
  -1  -7  -2 1311.89 61.9947   1
   1   7   0 1378.90 66.8271  -2
  -1  -7  -2 1378.90 66.8271   1
   1   7   0 1433.54 57.4026  -2
  -1  -7  -2 1433.54 57.4026   1
   1   7   0 1466.17 52.4113  -2
  -1  -7  -2 1466.17 52.4113   1
   2   7   0 395.447 26.1128  -2
  -2  -7  -2 395.447 26.1128   1
   2   7   0 407.518 22.0123  -2
  -2  -7  -2 407.518 22.0123   1
   2   7   0 458.459 30.9431  -2
  -2  -7  -2 458.459 30.9431   1
   2   7   2 16.6177 5.87701   1
   3   7   0 759.963 44.3337  -2
  -3  -7  -2 759.963 44.3337   1
   3   7   2 521.558 24.0068   1
  -4  -7  -2 11.7838 8.79780   1
  -4  -7  -2 13.9732 4.47919   1
  -4  -7  -2 17.3572 13.7015   1
  -4  -7  -2 16.9206 5.09620   1
   4   7   2 9.97490 5.35575   1
  -5  -7  -2 3.92303 4.99021   1
  -5  -7  -2 13.1392 9.82161   1
   5   7   2 9.16813 5.56764   1
   6   7   1 559.285 32.1104  -2
  -6  -7  -2 559.285 32.1104   1
   7   7   1 468.222 32.5333  -2
  -7  -7  -2 468.222 32.5333   1
  -6   8   0 21.1075 14.8819  -2
   6  -8  -2 21.1075 14.8819   1
  -5   8   0 105.689 20.1783  -2
   5  -8  -2 105.689 20.1783   1
  -4   8   0 163.135 21.5438  -2
   4  -8  -2 163.135 21.5438   1
  -3   8   0 751.181 38.8212  -2
   3  -8  -2 751.181 38.8212   1
   3  -8   0 684.978 32.2328  -2
  -3   8   2 684.978 32.2328   1
  -2   8   0 89.7791 16.5781  -2
   2  -8  -2 89.7791 16.5781   1
  -2   8   2 1.57824 5.18656   1
   1  -8  -2 46.8105 8.89645   1
   1  -8  -2 35.4859 9.98328   1
   1  -8  -2 51.9193 11.6299   1
   1  -8  -2 43.2499 8.13730   1
   0  -8  -2 341.710 23.1050   1
   0  -8  -2 306.019 25.4060   1
   0  -8  -2 278.573 19.5894   1
  -1  -8  -2 -1.9514 3.15007   1
  -1  -8  -2 -1.9438 6.19317   1
  -1  -8  -2 2.22181 3.86867   1
  -1  -8  -2 -0.2801 6.47528   1
  -1  -8  -2 2.13441 5.68018   1
  -2  -8  -2 980.172 42.6683   1
  -2  -8  -2 923.062 36.6338   1
  -2  -8  -2 956.482 51.8222   1
  -2  -8  -2 906.441 54.7655   1
  -2  -8  -2 969.864 47.6722   1
   3   8   1 262.165 15.8752  -2
  -3  -8  -2 262.165 15.8752   1
   3   8   1 328.722 29.0649  -2
  -3  -8  -2 328.722 29.0649   1
   3   8   1 270.790 25.5865  -2
  -3  -8  -2 270.790 25.5865   1
   3   8   2 71.5575 9.67505   1
   4   8   1 893.985 33.0963  -2
  -4  -8  -2 893.985 33.0963   1
   5   8   1 315.511 19.4728  -2
  -5  -8  -2 315.511 19.4728   1
   6   8   1 738.166 36.6667  -2
  -6  -8  -2 738.166 36.6667   1
   7   8   1 52.1728 13.6860  -2
  -7  -8  -2 52.1728 13.6860   1
   7   8   1 23.8721 16.1005  -2
  -7  -8  -2 23.8721 16.1005   1
   5  -9  -2 484.638 35.1605   1
   4  -9  -2 26.1028 10.4244   1
   3  -9  -2 242.678 21.0812   1
   2  -9  -2 54.9209 10.7933   1
   2  -9  -2 59.5882 13.9378   1
  -2   9   2 91.4940 11.9119   1
  -1   9   1 551.295 34.6911  -2
   1  -9  -2 551.295 34.6911   1
  -1   9   1 564.717 27.4660  -2
   1  -9  -2 564.717 27.4660   1
  -1   9   1 618.066 37.4577  -2
   1  -9  -2 618.066 37.4577   1
   0   9   1 244.963 20.7565  -2
   0  -9  -2 244.963 20.7565   1
   0   9   1 256.222 24.6404  -2
   0  -9  -2 256.222 24.6404   1
   0   9   1 253.645 14.7661  -2
   0  -9  -2 253.645 14.7661   1
   1   9   1 1179.57 54.7050  -2
  -1  -9  -2 1179.57 54.7050   1
   1   9   1 1103.88 58.4982  -2
  -1  -9  -2 1103.88 58.4982   1
   1   9   1 1157.98 64.5795  -2
  -1  -9  -2 1157.98 64.5795   1
   1   9   1 1227.50 48.1855  -2
  -1  -9  -2 1227.50 48.1855   1
   2   9   1 205.016 28.6214  -2
  -2  -9  -2 205.016 28.6214   1
   2   9   1 184.207 22.6378  -2
  -2  -9  -2 184.207 22.6378   1
   2   9   1 202.461 15.7404  -2
  -2  -9  -2 202.461 15.7404   1
   2   9   1 156.061 19.1432  -2
  -2  -9  -2 156.061 19.1432   1
   2   9   1 206.320 14.5902  -2
  -2  -9  -2 206.320 14.5902   1
   3   9   1 62.6210 11.1653  -2
  -3  -9  -2 62.6210 11.1653   1
   3   9   1 25.5152 17.2938  -2
  -3  -9  -2 25.5152 17.2938   1
   3   9   1 69.5699 15.5674  -2
  -3  -9  -2 69.5699 15.5674   1
   4   9   1 674.969 39.5208  -2
  -4  -9  -2 674.969 39.5208   1
   4   9   1 502.671 21.9427  -2
  -4  -9  -2 502.671 21.9427   1
   4   9   1 626.964 23.4900  -2
  -4  -9  -2 626.964 23.4900   1
   5   9   1 817.890 48.8020  -2
  -5  -9  -2 817.890 48.8020   1
   5   9   1 700.619 32.0686  -2
  -5  -9  -2 700.619 32.0686   1
   6   9   1 293.206 22.7663  -2
  -6  -9  -2 293.206 22.7663   1
  -5  10   1 361.843 35.3779  -2
   5 -10  -2 361.843 35.3779   1
  -4  10   1 819.683 47.8900  -2
   4 -10  -2 819.683 47.8900   1
  -3  10   1 380.304 29.0291  -2
   3 -10  -2 380.304 29.0291   1
  -2  10   1 921.434 42.7680  -2
   2 -10  -2 921.434 42.7680   1
  -1  10   1 159.997 14.5026  -2
   1 -10  -2 159.997 14.5026   1
  -1  10   1 152.912 18.2149  -2
   1 -10  -2 152.912 18.2149   1
   0  10   1 1096.97 41.6317  -2
   0 -10  -2 1096.97 41.6317   1
   0  10   1 1147.17 49.8374  -2
   0 -10  -2 1147.17 49.8374   1
   0  10   1 1127.87 40.9681  -2
   0 -10  -2 1127.87 40.9681   1
   1  10   1 11.6748 18.8930  -2
  -1 -10  -2 11.6748 18.8930   1
   1  10   1 -5.9712 14.9092  -2
  -1 -10  -2 -5.9712 14.9092   1
   2  10   1 238.772 33.7731  -2
  -2 -10  -2 238.772 33.7731   1
   3  10   1 16.3957 25.8453  -2
  -3 -10  -2 16.3957 25.8453   1
   4  10   1 1272.99 43.1190  -2
  -4 -10  -2 1272.99 43.1190   1
  -5 -10  -2 4.36459 4.80683   1
  -5 -10  -2 14.1948 15.0761   1
  -3  11   1 25.7687 16.4055  -2
   3 -11  -2 25.7687 16.4055   1
  -2  11   1 106.665 17.9109  -2
   2 -11  -2 106.665 17.9109   1
  -1  11   1 321.456 21.9925  -2
   1 -11  -2 321.456 21.9925   1
   0 -11  -2 653.708 27.7427   1
  -1 -11  -2 1.48516 12.1580   1
  -2 -11  -2 19.9394 15.1777   1
  -3 -11  -2 15.2951 14.5323   1
  -1  12   2 24.5088 13.5523  -2
   1 -12  -2 24.5088 13.5523   1
   0 -12  -2 391.483 21.2322   1
   1  12   2 19.6531 24.8108  -2
  -1 -12  -2 19.6531 24.8108   1
   2  12   2 912.170 67.4052  -2
  -2 -12  -2 912.170 67.4052   1
   3  12   2 35.9925 25.2810  -2
  -3 -12  -2 35.9925 25.2810   1
  -3 -11   3 86.8940 14.2032   1
  -2 -11   3 6.09256 7.05662   1
  -1 -11   3 308.051 22.3185   1
   0  11   6 183.820 22.2713  -2
   0 -11   3 183.820 22.2713   1
  -1  11   6 388.076 31.5507  -2
   1 -11   3 388.076 31.5507   1
  -4 -10   3 38.5187 10.3198   1
   3  10   6 736.560 66.0592  -2
  -3 -10   3 736.560 66.0592   1
   2  10   6 221.491 17.0179  -2
  -2 -10   3 221.491 17.0179   1
   1  10   6 793.599 36.8369  -2
  -1 -10   3 793.599 36.8369   1
   1  10   6 774.150 48.1939  -2
  -1 -10   3 774.150 48.1939   1
   0 -10  -6 160.761 24.3030  -2
   0  10  -3 160.761 24.3030   1
   0  10   6 143.335 17.5741  -2
   0 -10   3 143.335 17.5741   1
   1 -10  -6 380.084 33.5224  -2
  -1  10  -3 380.084 33.5224   1
  -1  10   6 371.087 26.6705  -2
   1 -10   3 371.087 26.6705   1
   2 -10  -6 114.180 23.2737  -2
  -2  10  -3 114.180 23.2737   1
  -2  10   6 87.7824 17.1080  -2
   2 -10   3 87.7824 17.1080   1
   3 -10  -6 192.362 28.8225  -2
  -3  10  -3 192.362 28.8225   1
  -3  10   6 196.028 26.2365  -2
   3 -10   3 196.028 26.2365   1
   4 -10   3 30.1432 13.6799   1
   5   9   6 513.952 43.7683  -2
  -5  -9   3 513.952 43.7683   1
   5   9   6 515.834 30.7731  -2
  -5  -9   3 515.834 30.7731   1
   5   9   6 499.858 57.5327  -2
  -5  -9   3 499.858 57.5327   1
   4   9   6 196.219 35.8736  -2
  -4  -9   3 196.219 35.8736   1
   4   9   6 170.049 24.9576  -2
  -4  -9   3 170.049 24.9576   1
   4   9   6 189.488 16.8643  -2
  -4  -9   3 189.488 16.8643   1
   3   9   6 412.170 21.9173  -2
  -3  -9   3 412.170 21.9173   1
   3   9   6 410.626 32.1247  -2
  -3  -9   3 410.626 32.1247   1
   3   9   6 428.203 44.0159  -2
  -3  -9   3 428.203 44.0159   1
   3   9   6 369.475 31.4785  -2
  -3  -9   3 369.475 31.4785   1
   2   9   6 43.4294 13.9255  -2
  -2  -9   3 43.4294 13.9255   1
   2   9   6 39.4729 14.9085  -2
  -2  -9   3 39.4729 14.9085   1
   2   9   6 40.7982 10.1724  -2
  -2  -9   3 40.7982 10.1724   1
   1   9   6 5.67047 10.7650  -2
  -1  -9   3 5.67047 10.7650   1
   1   9   6 4.52501 12.4808  -2
  -1  -9   3 4.52501 12.4808   1
   1   9   6 6.22299 14.5618  -2
  -1  -9   3 6.22299 14.5618   1
   0  -9  -6 575.765 40.5328  -2
   0   9  -3 575.765 40.5328   1
   0   9   6 510.474 30.5210  -2
   0  -9   3 510.474 30.5210   1
   0   9   6 561.897 35.6693  -2
   0  -9   3 561.897 35.6693   1
   1  -9  -6 318.721 33.3198  -2
  -1   9  -3 318.721 33.3198   1
  -1   9   6 358.321 27.6881  -2
   1  -9   3 358.321 27.6881   1
   2  -9  -6 1016.80 58.5144  -2
  -2   9  -3 1016.80 58.5144   1
  -2   9   6 977.810 50.0756  -2
   2  -9   3 977.810 50.0756   1
  -3   9  -3 -14.490 8.63063   1
   3  -9   3 -3.5557 7.39938   1
   3  -9   3 9.58012 9.14588   1
  -4   9  -3 321.939 35.4382   1
   4  -9   3 299.612 28.2956   1
  -5   9   5 -10.501 24.4327  -2
   5  -9   3 -10.501 24.4327   1
   6   8   6 147.310 27.1879  -2
  -6  -8   3 147.310 27.1879   1
   6   8   6 137.710 18.8032  -2
  -6  -8   3 137.710 18.8032   1
   5   8   6 506.355 30.8684  -2
  -5  -8   3 506.355 30.8684   1
   5   8   6 568.728 57.5587  -2
  -5  -8   3 568.728 57.5587   1
   5   8   6 551.036 43.9078  -2
  -5  -8   3 551.036 43.9078   1
   4   8   6 268.479 20.3770  -2
  -4  -8   3 268.479 20.3770   1
   4   8   6 313.480 43.7370  -2
  -4  -8   3 313.480 43.7370   1
   3   8   6 370.925 44.9088  -2
  -3  -8   3 370.925 44.9088   1
   2   8  -3 0.03489 7.51164   1
   2   8  -3 8.76942 7.58317   1
   2   8   6 30.9521 16.3524  -2
  -2  -8   3 30.9521 16.3524   1
   1   8  -3 92.2660 13.8415   1
   1   8  -3 111.424 18.8930   1
  -1  -8   3 92.2167 6.89817   1
  -1  -8   3 98.8586 10.0716   1
  -1  -8   3 102.998 15.4265   1
  -1  -8   3 94.8376 11.3253   1
  -1  -8   3 98.9645 6.54892   1
  -1  -8   3 104.445 16.9832   1
   0   8  -3 4.52901 8.47294   1
   0   8  -3 3.19967 5.02227   1
   0  -8   3 3.43074 8.52498   1
   0  -8   3 -1.3662 5.45994   1
   0  -8   3 2.58430 4.21130   1
   0  -8   3 1.31916 3.85812   1
   0  -8   3 9.10692 9.53794   1
  -1   8  -3 9.25642 6.44146   1
  -1   8  -3 14.3142 10.2526   1
  -1   8   5 76.9172 16.6650  -2
   1  -8   3 76.9172 16.6650   1
   2  -8  -5 159.946 25.3343  -2
  -2   8  -3 159.946 25.3343   1
  -2   8   5 171.862 21.4966  -2
   2  -8   3 171.862 21.4966   1
   3  -8  -5 413.734 36.4246  -2
  -3   8  -3 413.734 36.4246   1
  -3   8   5 417.289 32.9389  -2
   3  -8   3 417.289 32.9389   1
   4  -8  -5 589.200 45.6088  -2
  -4   8  -3 589.200 45.6088   1
  -4   8   5 515.108 38.3527  -2
   4  -8   3 515.108 38.3527   1
   5  -8  -5 126.328 28.4912  -2
  -5   8  -3 126.328 28.4912   1
  -5   8   5 101.974 23.4721  -2
   5  -8   3 101.974 23.4721   1
  -6   8   5 60.0757 21.5686  -2
   6  -8   3 60.0757 21.5686   1
   7   7   6 56.5528 19.8077  -2
  -7  -7   3 56.5528 19.8077   1
  -6  -7   3 73.5267 20.7348   1
  -6  -7   3 65.7931 16.0183   1
  -5  -7   3 492.001 47.5152   1
  -5  -7   3 538.344 41.2640   1
  -5  -7   3 446.750 28.7225   1
  -4  -7   3 213.407 17.2419   1
  -4  -7   3 231.775 25.1590   1
  -4  -7   3 249.335 32.7945   1
   3   7   5 234.537 35.2273  -2
  -3  -7   3 234.537 35.2273   1
   2   7  -3 1303.24 59.4956   1
   2   7   5 1323.99 59.9617  -2
  -2  -7   3 1323.99 59.9617   1
  -1  -7  -5 373.935 29.3159  -2
   1   7  -3 373.935 29.3159   1
   1   7   5 333.219 17.5412  -2
  -1  -7   3 333.219 17.5412   1
   1   7   5 398.889 27.8684  -2
  -1  -7   3 398.889 27.8684   1
   1   7   5 303.517 13.5805  -2
  -1  -7   3 303.517 13.5805   1
   1   7   5 319.182 31.2584  -2
  -1  -7   3 319.182 31.2584   1
   1   7   5 349.056 25.1134  -2
  -1  -7   3 349.056 25.1134   1
   0  -7  -5 1223.98 51.9564  -2
   0   7  -3 1223.98 51.9564   1
   0  -7  -5 1226.34 58.7396  -2
   0   7  -3 1226.34 58.7396   1
   0   7   5 1221.90 43.8279  -2
   0  -7   3 1221.90 43.8279   1
   0   7   5 1289.34 65.3403  -2
   0  -7   3 1289.34 65.3403   1
   0   7   5 1222.77 56.2824  -2
   0  -7   3 1222.77 56.2824   1
   0   7   5 1094.11 46.7967  -2
   0  -7   3 1094.11 46.7967   1
   0   7   5 1117.59 44.4689  -2
   0  -7   3 1117.59 44.4689   1
   1  -7  -5 -4.0157 11.5826  -2
  -1   7  -3 -4.0157 11.5826   1
   1  -7  -5 5.49613 8.46448  -2
  -1   7  -3 5.49613 8.46448   1
  -1   7   5 -15.692 9.20790  -2
   1  -7   3 -15.692 9.20790   1
  -1   7   5 1.43845 8.22579  -2
   1  -7   3 1.43845 8.22579   1
  -1   7   5 3.64424 8.33108  -2
   1  -7   3 3.64424 8.33108   1
  -1   7   5 17.0389 11.1630  -2
   1  -7   3 17.0389 11.1630   1
  -1   7   5 8.93267 16.7022  -2
   1  -7   3 8.93267 16.7022   1
   2  -7  -5 130.368 14.8215  -2
  -2   7  -3 130.368 14.8215   1
   2  -7  -5 86.1338 17.2557  -2
  -2   7  -3 86.1338 17.2557   1
  -2   7   5 132.719 22.5530  -2
   2  -7   3 132.719 22.5530   1
  -2   7   5 122.771 15.6774  -2
   2  -7   3 122.771 15.6774   1
  -2   7   5 112.880 14.6139  -2
   2  -7   3 112.880 14.6139   1
   3  -7  -5 28.9543 12.4228  -2
  -3   7  -3 28.9543 12.4228   1
   3  -7  -5 35.0710 16.5300  -2
  -3   7  -3 35.0710 16.5300   1
  -3   7   5 28.9889 13.8432  -2
   3  -7   3 28.9889 13.8432   1
  -3   7   5 17.8772 11.9848  -2
   3  -7   3 17.8772 11.9848   1
   4  -7  -5 1716.09 84.4038  -2
  -4   7  -3 1716.09 84.4038   1
  -4   7   5 1646.01 73.2604  -2
   4  -7   3 1646.01 73.2604   1
   5  -7  -5 -6.7472 26.2656  -2
  -5   7  -3 -6.7472 26.2656   1
  -5   7   5 -0.6072 18.6205  -2
   5  -7   3 -0.6072 18.6205   1
  -6   7   5 682.481 49.7954  -2
   6  -7   3 682.481 49.7954   1
   7   6   5 273.069 28.1026  -2
  -7  -6   3 273.069 28.1026   1
   6   6   5 -0.6950 13.0335  -2
  -6  -6   3 -0.6950 13.0335   1
  -5  -6  -5 179.466 23.4600  -2
   5   6  -3 179.466 23.4600   1
   5   6   5 173.490 18.3090  -2
  -5  -6   3 173.490 18.3090   1
   5   6   5 195.647 36.6555  -2
  -5  -6   3 195.647 36.6555   1
   4   6   5 308.823 35.4674  -2
  -4  -6   3 308.823 35.4674   1
   4   6   5 318.771 29.6679  -2
  -4  -6   3 318.771 29.6679   1
   4   6   5 296.180 19.5393  -2
  -4  -6   3 296.180 19.5393   1
   3   6   5 511.829 24.3070  -2
  -3  -6   3 511.829 24.3070   1
   3   6   5 494.779 41.2169  -2
  -3  -6   3 494.779 41.2169   1
   3   6   5 547.373 24.9482  -2
  -3  -6   3 547.373 24.9482   1
   3   6   5 589.185 36.2211  -2
  -3  -6   3 589.185 36.2211   1
  -2  -6  -5 1028.88 50.7415  -2
   2   6  -3 1028.88 50.7415   1
  -2  -6  -5 1000.15 48.8084  -2
   2   6  -3 1000.15 48.8084   1
   2   6   5 1126.66 38.6661  -2
  -2  -6   3 1126.66 38.6661   1
   2   6   5 1011.56 52.6624  -2
  -2  -6   3 1011.56 52.6624   1
   2   6   5 1062.01 50.9678  -2
  -2  -6   3 1062.01 50.9678   1
   2   6   5 970.189 38.3012  -2
  -2  -6   3 970.189 38.3012   1
   2   6   5 1064.33 47.3608  -2
  -2  -6   3 1064.33 47.3608   1
  -1  -6  -5 946.541 43.5759  -2
   1   6  -3 946.541 43.5759   1
  -1  -6  -5 834.382 44.8279  -2
   1   6  -3 834.382 44.8279   1
   1   6   5 913.011 45.4512  -2
  -1  -6   3 913.011 45.4512   1
   1   6   5 940.865 49.7106  -2
  -1  -6   3 940.865 49.7106   1
   1   6   5 950.660 42.3029  -2
  -1  -6   3 950.660 42.3029   1
   1   6   5 885.762 31.1046  -2
  -1  -6   3 885.762 31.1046   1
   1   6   5 984.824 35.1685  -2
  -1  -6   3 984.824 35.1685   1
   1   6   5 915.424 35.6985  -2
  -1  -6   3 915.424 35.6985   1
   0  -6  -5 511.539 34.1126  -2
   0   6  -3 511.539 34.1126   1
   0  -6  -5 624.245 32.0088  -2
   0   6  -3 624.245 32.0088   1
   0   6   5 603.772 28.8885  -2
   0  -6   3 603.772 28.8885   1
   0   6   5 580.681 25.3622  -2
   0  -6   3 580.681 25.3622   1
   0   6   5 617.806 35.2004  -2
   0  -6   3 617.806 35.2004   1
   0   6   5 609.479 40.6418  -2
   0  -6   3 609.479 40.6418   1
   0   6   5 629.986 26.6559  -2
   0  -6   3 629.986 26.6559   1
   1  -6  -5 21.4713 10.5979  -2
  -1   6  -3 21.4713 10.5979   1
   1  -6  -5 38.7139 15.2781  -2
  -1   6  -3 38.7139 15.2781   1
  -1   6   5 26.3562 13.3495  -2
   1  -6   3 26.3562 13.3495   1
  -1   6   5 28.2858 9.03381  -2
   1  -6   3 28.2858 9.03381   1
  -1   6   5 37.4628 12.7058  -2
   1  -6   3 37.4628 12.7058   1
  -1   6   5 12.0805 17.8157  -2
   1  -6   3 12.0805 17.8157   1
   2  -6  -5 299.908 23.5834  -2
  -2   6  -3 299.908 23.5834   1
   2  -6  -5 272.096 28.3366  -2
  -2   6  -3 272.096 28.3366   1
  -2   6   5 290.846 31.4847  -2
   2  -6   3 290.846 31.4847   1
  -2   6   5 230.275 22.4170  -2
   2  -6   3 230.275 22.4170   1
   3  -6  -5 78.3100 22.7186  -2
  -3   6  -3 78.3100 22.7186   1
   3  -6  -5 44.2437 17.6073  -2
  -3   6  -3 44.2437 17.6073   1
   3  -6   3 15.3305 7.72137   1
   3  -6   3 27.0731 10.1197   1
   3  -6   3 13.9333 11.2781   1
   3  -6   3 24.2249 8.63807   1
  -4   6  -3 224.375 23.8488   1
  -4   6  -3 294.615 31.6623   1
   4  -6   3 254.467 23.5776   1
  -5   6  -3 14.2039 13.9404   1
   5  -6   3 8.46519 8.60334   1
  -6   6  -3 26.6629 14.9692   1
  -6   6   4 28.7079 24.0485  -2
   6  -6   3 28.7079 24.0485   1
  -7   6   4 641.106 49.2661  -2
   7  -6   3 641.106 49.2661   1
   8   5   5 325.180 33.0993  -2
  -8  -5   3 325.180 33.0993   1
   7   5   5 423.404 39.9788  -2
  -7  -5   3 423.404 39.9788   1
   7   5   5 435.371 32.5703  -2
  -7  -5   3 435.371 32.5703   1
   6   5   5 1347.59 71.4839  -2
  -6  -5   3 1347.59 71.4839   1
   6   5   5 1325.97 81.3019  -2
  -6  -5   3 1325.97 81.3019   1
   6   5   5 1182.04 56.0395  -2
  -6  -5   3 1182.04 56.0395   1
  -5  -5  -5 369.801 27.8053  -2
   5   5  -3 369.801 27.8053   1
  -5  -5  -5 310.727 16.2524  -2
   5   5  -3 310.727 16.2524   1
  -5  -5  -5 323.476 15.6002  -2
   5   5  -3 323.476 15.6002   1
   5   5   5 307.041 23.1428  -2
  -5  -5   3 307.041 23.1428   1
   5   5   5 384.643 33.4258  -2
  -5  -5   3 384.643 33.4258   1
  -4  -5  -5 263.181 11.1895  -2
   4   5  -3 263.181 11.1895   1
  -4  -5  -5 370.684 25.7940  -2
   4   5  -3 370.684 25.7940   1
   4   5   5 393.505 38.1116  -2
  -4  -5   3 393.505 38.1116   1
   4   5   5 359.837 21.3629  -2
  -4  -5   3 359.837 21.3629   1
   4   5   5 338.130 21.5185  -2
  -4  -5   3 338.130 21.5185   1
   3   5  -3 18.3888 9.02811   1
   3   5   5 -0.6797 8.38243  -2
  -3  -5   3 -0.6797 8.38243   1
   3   5   5 23.7330 8.70761  -2
  -3  -5   3 23.7330 8.70761   1
   3   5   5 1.41031 14.3273  -2
  -3  -5   3 1.41031 14.3273   1
   3   5   5 -1.4391 17.1145  -2
  -3  -5   3 -1.4391 17.1145   1
   2   5  -3 1257.44 55.6512   1
   2   5   5 1550.41 62.7731  -2
  -2  -5   3 1550.41 62.7731   1
   2   5   5 1600.87 54.9037  -2
  -2  -5   3 1600.87 54.9037   1
   1   5  -3 2.98123 6.29908   1
   1   5  -3 9.24865 5.84474   1
   1   5   5 45.9353 11.1965  -2
  -1  -5   3 45.9353 11.1965   1
   0   5  -3 193.092 16.3996   1
   0   5  -3 268.850 22.0408   1
   0  -5   3 250.184 23.5964   1
   0  -5   3 239.610 20.1035   1
   0  -5   3 233.963 13.3266   1
   0  -5   3 235.305 14.0896   1
   0  -5   3 234.213 15.9850   1
  -1   5  -3 46.4745 9.94926   1
  -1   5  -3 26.4095 10.5109   1
   1  -5   3 42.4529 13.1493   1
   1  -5   3 39.8379 10.6299   1
   1  -5   3 33.2866 9.30386   1
   1  -5   3 26.3435 7.26098   1
   1  -5   3 34.7607 7.54023   1
  -2   5  -3 461.060 32.8108   1
  -2   5  -3 478.996 19.5930   1
  -2   5  -3 458.943 29.1741   1
  -2   5   4 511.649 30.0638  -2
   2  -5   3 511.649 30.0638   1
   3  -5  -4 116.190 25.0662  -2
  -3   5  -3 116.190 25.0662   1
  -3   5   4 151.437 25.6369  -2
   3  -5   3 151.437 25.6369   1
  -3   5   4 142.194 19.5745  -2
   3  -5   3 142.194 19.5745   1
   4  -5  -4 35.5018 22.9646  -2
  -4   5  -3 35.5018 22.9646   1
  -4   5   4 74.3148 18.9833  -2
   4  -5   3 74.3148 18.9833   1
  -4   5   4 39.4692 21.0602  -2
   4  -5   3 39.4692 21.0602   1
   5  -5  -4 63.9538 25.3668  -2
  -5   5  -3 63.9538 25.3668   1
  -5   5   4 131.578 22.0935  -2
   5  -5   3 131.578 22.0935   1
   6  -5  -4 8.76790 21.3431  -2
  -6   5  -3 8.76790 21.3431   1
  -6   5   4 7.59672 17.7168  -2
   6  -5   3 7.59672 17.7168   1
  -7   5   4 211.875 27.7937  -2
   7  -5   3 211.875 27.7937   1
   8   4   5 155.909 25.7966  -2
  -8  -4   3 155.909 25.7966   1
   7   4   5 277.565 28.4533  -2
  -7  -4   3 277.565 28.4533   1
  -6  -4  -5 462.255 36.2860  -2
   6   4  -3 462.255 36.2860   1
  -6  -4   3 395.706 35.4722   1
  -6  -4   3 392.654 29.1247   1
   5   4  -3 1.83130 4.21375   1
   5   4  -3 -6.4671 6.76434   1
  -5  -4   3 7.57886 12.3062   1
  -5  -4   3 -0.7930 7.66115   1
  -5  -4   3 3.23201 6.15864   1
   4   4  -3 552.284 31.0940   1
   4   4  -3 527.073 22.3185   1
  -4  -4   3 555.305 40.9850   1
  -4  -4   3 570.007 36.1705   1
  -4  -4   3 483.560 27.5804   1
  -4  -4   3 559.789 27.2522   1
  -4  -4   3 551.066 36.9158   1
   3   4  -3 28.6515 8.64851   1
   3   4  -3 23.5950 3.93273   1
   3   4  -3 39.6647 10.1931   1
  -3  -4   3 28.1322 6.43909   1
  -3  -4   3 19.7670 11.1740   1
  -3  -4   3 18.5735 9.49451   1
  -3  -4   3 36.8886 7.96190   1
  -3  -4   3 21.9826 9.40685   1
   2   4  -3 45.6013 9.44188   1
   2   4  -3 45.5041 8.23722   1
   2   4  -3 42.2418 3.68160   1
   2   4  -3 50.0838 10.9595   1
   2   4   4 33.0139 9.06943  -2
  -2  -4   3 33.0139 9.06943   1
  -1  -4  -4 277.612 22.5773  -2
   1   4  -3 277.612 22.5773   1
   1   4   4 282.866 13.3452  -2
  -1  -4   3 282.866 13.3452   1
   1   4   4 282.137 18.0426  -2
  -1  -4   3 282.137 18.0426   1
   0  -4  -4 534.636 31.5383  -2
   0   4  -3 534.636 31.5383   1
   0  -4  -4 532.306 28.8751  -2
   0   4  -3 532.306 28.8751   1
   0   4   4 536.663 31.1502  -2
   0  -4   3 536.663 31.1502   1
   0   4   4 524.425 25.8792  -2
   0  -4   3 524.425 25.8792   1
   0   4   4 608.255 35.6393  -2
   0  -4   3 608.255 35.6393   1
   1  -4  -4 1392.20 62.5727  -2
  -1   4  -3 1392.20 62.5727   1
   1  -4  -4 1377.75 60.2923  -2
  -1   4  -3 1377.75 60.2923   1
  -1   4   4 1538.76 63.6569  -2
   1  -4   3 1538.76 63.6569   1
  -1   4   4 1456.38 56.2641  -2
   1  -4   3 1456.38 56.2641   1
  -1   4   4 1551.26 53.7725  -2
   1  -4   3 1551.26 53.7725   1
  -1   4   4 1562.69 67.4617  -2
   1  -4   3 1562.69 67.4617   1
  -1   4   4 1547.54 54.3095  -2
   1  -4   3 1547.54 54.3095   1
   2  -4  -4 118.267 15.6819  -2
  -2   4  -3 118.267 15.6819   1
   2  -4  -4 124.615 18.9120  -2
  -2   4  -3 124.615 18.9120   1
  -2   4   4 106.423 13.2734  -2
   2  -4   3 106.423 13.2734   1
  -2   4   4 89.6106 13.8688  -2
   2  -4   3 89.6106 13.8688   1
  -2   4   4 137.088 13.6126  -2
   2  -4   3 137.088 13.6126   1
  -2   4   4 121.507 17.4451  -2
   2  -4   3 121.507 17.4451   1
   3  -4  -4 739.451 40.0960  -2
  -3   4  -3 739.451 40.0960   1
   3  -4  -4 603.297 40.4741  -2
  -3   4  -3 603.297 40.4741   1
  -3   4   4 711.335 35.0764  -2
   3  -4   3 711.335 35.0764   1
  -3   4   4 676.439 35.1752  -2
   3  -4   3 676.439 35.1752   1
  -3   4   4 786.304 44.3511  -2
   3  -4   3 786.304 44.3511   1
  -3   4   4 712.922 34.5071  -2
   3  -4   3 712.922 34.5071   1
   4  -4  -4 83.2497 17.5023  -2
  -4   4  -3 83.2497 17.5023   1
   4  -4  -4 52.9606 17.9236  -2
  -4   4  -3 52.9606 17.9236   1
  -4   4   4 67.5777 17.5533  -2
   4  -4   3 67.5777 17.5533   1
  -4   4   4 56.0862 14.4578  -2
   4  -4   3 56.0862 14.4578   1
  -4   4   4 92.2806 15.0152  -2
   4  -4   3 92.2806 15.0152   1
   5  -4  -4 1193.78 65.9164  -2
  -5   4  -3 1193.78 65.9164   1
  -5   4   4 1048.03 53.0947  -2
   5  -4   3 1048.03 53.0947   1
  -5   4   4 1054.15 53.1459  -2
   5  -4   3 1054.15 53.1459   1
   6  -4  -4 100.001 30.3507  -2
  -6   4  -3 100.001 30.3507   1
  -6   4   4 115.661 23.8347  -2
   6  -4   3 115.661 23.8347   1
   7  -4  -4 346.366 45.6814  -2
  -7   4  -3 346.366 45.6814   1
  -7   4   4 472.215 40.1410  -2
   7  -4   3 472.215 40.1410   1
  -8  -3   3 810.806 50.9747   1
  -7  -3   3 7.31675 9.58798   1
  -7  -3   3 9.39575 11.4604   1
  -6  -3   3 -1.3022 6.22993   1
  -6  -3   3 27.1587 13.6679   1
   5   3  -3 139.104 14.0543   1
   5   3   4 94.5302 16.8285  -2
  -5  -3   3 94.5302 16.8285   1
  -4  -3  -4 407.890 17.7665  -2
   4   3  -3 407.890 17.7665   1
  -4  -3  -4 368.292 25.2546  -2
   4   3  -3 368.292 25.2546   1
   4   3   4 391.080 23.2653  -2
  -4  -3   3 391.080 23.2653   1
   4   3   4 394.372 36.2168  -2
  -4  -3   3 394.372 36.2168   1
  -3  -3  -4 363.179 22.3485  -2
   3   3  -3 363.179 22.3485   1
  -3  -3  -4 375.467 15.1469  -2
   3   3  -3 375.467 15.1469   1
  -3  -3  -4 393.997 18.0586  -2
   3   3  -3 393.997 18.0586   1
   3   3   4 388.659 31.2880  -2
  -3  -3   3 388.659 31.2880   1
   3   3   4 412.632 28.2570  -2
  -3  -3   3 412.632 28.2570   1
   3   3   4 401.406 22.0970  -2
  -3  -3   3 401.406 22.0970   1
   3   3   4 391.658 20.6776  -2
  -3  -3   3 391.658 20.6776   1
  -2  -3  -4 88.4663 7.02814  -2
   2   3  -3 88.4663 7.02814   1
  -2  -3  -4 87.8926 12.5512  -2
   2   3  -3 87.8926 12.5512   1
  -2  -3  -4 80.8205 9.64933  -2
   2   3  -3 80.8205 9.64933   1
   2   3   4 91.7035 13.5438  -2
  -2  -3   3 91.7035 13.5438   1
   2   3   4 88.1703 10.1311  -2
  -2  -3   3 88.1703 10.1311   1
   2   3   4 90.3189 9.17888  -2
  -2  -3   3 90.3189 9.17888   1
   2   3   4 98.3167 13.7281  -2
  -2  -3   3 98.3167 13.7281   1
  -1  -3  -4 847.106 38.1238  -2
   1   3  -3 847.106 38.1238   1
  -1  -3  -4 902.918 38.8461  -2
   1   3  -3 902.918 38.8461   1
  -1  -3  -4 795.274 28.6660  -2
   1   3  -3 795.274 28.6660   1
   1   3   4 889.313 39.9150  -2
  -1  -3   3 889.313 39.9150   1
   1   3   4 791.533 29.2593  -2
  -1  -3   3 791.533 29.2593   1
   1   3   4 863.334 33.1740  -2
  -1  -3   3 863.334 33.1740   1
   1   3   4 799.263 32.3242  -2
  -1  -3   3 799.263 32.3242   1
   1   3   4 821.126 31.3841  -2
  -1  -3   3 821.126 31.3841   1
   1   3   4 883.848 40.2246  -2
  -1  -3   3 883.848 40.2246   1
   0  -3  -4 58.1283 12.3371  -2
   0   3  -3 58.1283 12.3371   1
   0  -3  -4 40.9191 5.37668  -2
   0   3  -3 40.9191 5.37668   1
   0  -3  -4 43.8352 7.05693  -2
   0   3  -3 43.8352 7.05693   1
   0  -3  -4 42.6121 8.98754  -2
   0   3  -3 42.6121 8.98754   1
   0   3   4 47.6780 9.96991  -2
   0  -3   3 47.6780 9.96991   1
   0   3   4 42.9639 7.36429  -2
   0  -3   3 42.9639 7.36429   1
   0   3   4 59.9064 12.1232  -2
   0  -3   3 59.9064 12.1232   1
   0   3   4 41.9017 12.8108  -2
   0  -3   3 41.9017 12.8108   1
   0   3   4 40.7654 7.87481  -2
   0  -3   3 40.7654 7.87481   1
   1  -3  -4 1575.14 66.0098  -2
  -1   3  -3 1575.14 66.0098   1
   1  -3  -4 1574.21 67.3392  -2
  -1   3  -3 1574.21 67.3392   1
  -1   3   4 1684.79 69.7325  -2
   1  -3   3 1684.79 69.7325   1
  -1   3   4 1594.19 56.6521  -2
   1  -3   3 1594.19 56.6521   1
  -1   3   4 1681.21 67.8906  -2
   1  -3   3 1681.21 67.8906   1
  -1   3   4 1758.15 59.0021  -2
   1  -3   3 1758.15 59.0021   1
  -1   3   4 1616.69 60.5044  -2
   1  -3   3 1616.69 60.5044   1
   2  -3  -4 116.064 20.9617  -2
  -2   3  -3 116.064 20.9617   1
  -2   3   4 147.741 20.5869  -2
   2  -3   3 147.741 20.5869   1
  -2   3   4 132.909 16.3355  -2
   2  -3   3 132.909 16.3355   1
   3  -3  -4 507.135 36.6325  -2
  -3   3  -3 507.135 36.6325   1
  -3   3   4 451.124 28.5236  -2
   3  -3   3 451.124 28.5236   1
  -3   3   4 429.784 34.5172  -2
   3  -3   3 429.784 34.5172   1
  -4   3  -3 32.6873 12.8029   1
  -4   3  -3 23.5825 8.16754   1
  -4   3  -3 40.1341 13.5301   1
   4  -3   3 27.5186 8.99322   1
   4  -3   3 45.8217 10.4511   1
   4  -3   3 55.4655 15.0011   1
  -5   3  -3 26.3096 9.30235   1
  -5   3  -3 17.3824 11.2606   1
   5  -3   3 33.5338 10.5572   1
   5  -3   3 23.6737 9.14072   1
  -6   3  -3 41.8984 11.9653   1
  -6   3  -3 28.5808 16.2113   1
   6  -3   3 36.6605 12.4254   1
   6  -3   3 20.3266 10.2060   1
  -7   3  -3 41.7126 19.9545   1
   7  -3   3 44.2693 14.2277   1
   8   2   4 46.9628 21.5505  -2
  -8  -2   3 46.9628 21.5505   1
   7   2   4 -11.413 15.4544  -2
  -7  -2   3 -11.413 15.4544   1
   7   2   4 21.0081 16.4337  -2
  -7  -2   3 21.0081 16.4337   1
   6   2   4 99.2276 18.9777  -2
  -6  -2   3 99.2276 18.9777   1
   6   2   4 50.5428 13.9525  -2
  -6  -2   3 50.5428 13.9525   1
   5   2   4 233.435 19.0058  -2
  -5  -2   3 233.435 19.0058   1
   5   2   4 225.053 19.6046  -2
  -5  -2   3 225.053 19.6046   1
   5   2   4 238.339 21.8856  -2
  -5  -2   3 238.339 21.8856   1
   5   2   4 219.588 23.1049  -2
  -5  -2   3 219.588 23.1049   1
   4   2   4 1198.33 49.8506  -2
  -4  -2   3 1198.33 49.8506   1
   4   2   4 1219.59 48.5389  -2
  -4  -2   3 1219.59 48.5389   1
   4   2   4 1225.45 58.4392  -2
  -4  -2   3 1225.45 58.4392   1
   4   2   4 1177.61 54.0770  -2
  -4  -2   3 1177.61 54.0770   1
  -3  -2  -4 2855.79 93.5702  -2
   3   2  -3 2855.79 93.5702   1
   3   2   4 2690.16 98.5482  -2
  -3  -2   3 2690.16 98.5482   1
   3   2   4 3044.12 115.331  -2
  -3  -2   3 3044.12 115.331   1
   3   2   4 3022.17 105.809  -2
  -3  -2   3 3022.17 105.809   1
   3   2   4 3034.06 97.9589  -2
  -3  -2   3 3034.06 97.9589   1
  -2  -2  -4 55.4553 8.19104  -2
   2   2  -3 55.4553 8.19104   1
  -2  -2  -4 62.6856 9.14121  -2
   2   2  -3 62.6856 9.14121   1
   2   2   4 61.5026 9.68495  -2
  -2  -2   3 61.5026 9.68495   1
  -1  -2  -4 3332.52 101.443  -2
   1   2  -3 3332.52 101.443   1
   1   2   4 3327.37 102.133  -2
  -1  -2   3 3327.37 102.133   1
   0   2  -3 668.663 25.0716   1
   0   2  -3 678.504 32.3564   1
   0   2  -3 637.928 31.8269   1
   0  -2   3 576.311 32.0009   1
   0  -2   3 686.608 26.5921   1
   0  -2   3 665.648 25.2207   1
   0  -2   3 653.049 28.8517   1
   0  -2   3 675.607 33.4408   1
  -1   2  -3 235.433 19.1749   1
  -1   2  -3 194.952 16.8566   1
  -1   2  -3 189.417 12.8498   1
  -1   2  -3 211.056 12.7758   1
   1  -2   3 208.450 13.2167   1
   1  -2   3 205.259 15.1788   1
   1  -2   3 218.929 19.4213   1
   1  -2   3 216.927 13.8460   1
   1  -2   3 211.484 17.6852   1
  -2   2  -3 7.22419 4.71562   1
  -2   2  -3 11.6508 7.69634   1
  -2   2  -3 16.6870 9.72523   1
   2  -2   3 19.4297 6.07084   1
   2  -2   3 12.0309 6.15862   1
   2  -2   3 13.7435 5.74237   1
   2  -2   3 6.88654 7.49456   1
  -3   2  -3 432.554 30.2119   1
  -3   2  -3 490.734 31.2690   1
  -3   2  -3 446.631 24.4189   1
   3  -2   3 410.990 28.9909   1
   3  -2   3 427.017 24.5396   1
   3  -2   3 447.151 25.1408   1
  -4   2  -3 55.5906 15.1154   1
  -4   2  -3 36.1709 9.75666   1
   4  -2   3 41.9288 10.5928   1
   4  -2   3 42.1265 10.3486   1
   5  -2  -3 8.95758 13.7728  -2
  -5   2  -3 8.95758 13.7728   1
   5  -2  -3 2.07446 18.8275  -2
  -5   2  -3 2.07446 18.8275   1
  -5   2   3 14.9150 15.7111  -2
   5  -2   3 14.9150 15.7111   1
   6  -2  -3 23.9077 23.2840  -2
  -6   2  -3 23.9077 23.2840   1
   6  -2  -3 44.5040 16.7253  -2
  -6   2  -3 44.5040 16.7253   1
  -6   2   3 57.4324 17.5635  -2
   6  -2   3 57.4324 17.5635   1
  -6   2   3 46.3101 16.3715  -2
   6  -2   3 46.3101 16.3715   1
   7  -2  -3 5.66531 24.2453  -2
  -7   2  -3 5.66531 24.2453   1
  -7   2   3 34.9044 16.8385  -2
   7  -2   3 34.9044 16.8385   1
   8   1   4 209.442 27.2639  -2
  -8  -1   3 209.442 27.2639   1
   8   1   4 233.229 31.8723  -2
  -8  -1   3 233.229 31.8723   1
   7   1   4 15.3457 17.0617  -2
  -7  -1   3 15.3457 17.0617   1
   6   1   4 93.0507 18.9589  -2
  -6  -1   3 93.0507 18.9589   1
   5   1  -3 248.189 17.3291   1
  -5  -1   3 244.322 24.1101   1
  -5  -1   3 197.163 19.5674   1
  -5  -1   3 276.835 23.0146   1
   4   1  -3 15.2279 5.47529   1
   4   1  -3 4.65708 8.36825   1
  -4  -1   3 19.4606 8.63389   1
  -4  -1   3 5.41176 5.78503   1
  -4  -1   3 11.7607 6.93184   1
  -4  -1   3 2.48342 5.18541   1
   3   1  -3 89.2839 12.6884   1
   3   1  -3 89.8007 10.2022   1
   3   1  -3 80.4734 9.05675   1
  -3  -1   3 89.1738 14.4354   1
  -3  -1   3 73.7543 9.36640   1
  -3  -1   3 88.6623 12.9280   1
  -3  -1   3 68.9364 10.7961   1
  -3  -1   3 100.887 12.3438   1
   2   1  -3 318.435 16.0668   1
   2   1  -3 308.701 16.2182   1
   2   1  -3 310.607 20.4347   1
   2   1  -3 305.727 18.5889   1
  -2  -1   3 312.951 20.9214   1
  -2  -1   3 296.315 19.1397   1
  -2  -1   3 331.849 17.0583   1
  -2  -1   3 304.465 18.1209   1
  -2  -1   3 312.383 20.9946   1
   1   1  -3 62.6167 4.89497   1
   1   1  -3 74.7592 9.79475   1
   1   1  -3 53.2392 7.52143   1
   1   1  -3 68.0694 7.27964   1
   1   1  -3 49.6665 9.02682   1
   1   1  -3 63.6604 7.26809   1
  -1  -1   3 48.0343 8.24120   1
  -1  -1   3 64.8620 7.06693   1
  -1  -1   3 52.5185 9.70824   1
  -1  -1   3 81.7078 9.84190   1
  -1  -1   3 68.9040 7.45666   1
   0  -1  -3 2982.00 105.160  -2
   0   1  -3 2982.00 105.160   1
   0  -1  -3 2914.99 100.923  -2
   0   1  -3 2914.99 100.923   1
   0  -1  -3 3014.97 91.9627  -2
   0   1  -3 3014.97 91.9627   1
   0   1   3 2949.04 97.4164  -2
   0  -1   3 2949.04 97.4164   1
   1  -1  -3 1778.35 70.8591  -2
  -1   1  -3 1778.35 70.8591   1
  -1   1   3 1946.58 66.4379  -2
   1  -1   3 1946.58 66.4379   1
  -1   1   3 1928.65 71.7805  -2
   1  -1   3 1928.65 71.7805   1
   2  -1  -3 788.394 33.9894  -2
  -2   1  -3 788.394 33.9894   1
   2  -1  -3 825.263 41.6774  -2
  -2   1  -3 825.263 41.6774   1
  -2   1   3 826.995 34.7800  -2
   2  -1   3 826.995 34.7800   1
  -2   1   3 836.645 36.0234  -2
   2  -1   3 836.645 36.0234   1
  -2   1   3 894.565 42.5989  -2
   2  -1   3 894.565 42.5989   1
   3  -1  -3 951.992 48.0394  -2
  -3   1  -3 951.992 48.0394   1
   3  -1  -3 862.538 38.1447  -2
  -3   1  -3 862.538 38.1447   1
  -3   1   3 953.094 40.0465  -2
   3  -1   3 953.094 40.0465   1
  -3   1   3 897.734 39.9244  -2
   3  -1   3 897.734 39.9244   1
  -3   1   3 927.313 46.6213  -2
   3  -1   3 927.313 46.6213   1
   4  -1  -3 23.4022 7.55801  -2
  -4   1  -3 23.4022 7.55801   1
   4  -1  -3 4.26993 12.0887  -2
  -4   1  -3 4.26993 12.0887   1
  -4   1   3 19.1258 8.86167  -2
   4  -1   3 19.1258 8.86167   1
  -4   1   3 31.1130 10.0978  -2
   4  -1   3 31.1130 10.0978   1
   5  -1  -3 47.0611 17.6822  -2
  -5   1  -3 47.0611 17.6822   1
   5  -1  -3 89.4776 14.8309  -2
  -5   1  -3 89.4776 14.8309   1
  -5   1   3 87.4977 14.8694  -2
   5  -1   3 87.4977 14.8694   1
  -5   1   3 105.221 15.3206  -2
   5  -1   3 105.221 15.3206   1
   6  -1  -3 942.861 60.2580  -2
  -6   1  -3 942.861 60.2580   1
   6  -1  -3 958.826 49.2425  -2
  -6   1  -3 958.826 49.2425   1
  -6   1   3 999.646 48.8545  -2
   6  -1   3 999.646 48.8545   1
  -6   1   3 907.559 48.4142  -2
   6  -1   3 907.559 48.4142   1
   7  -1  -3 71.3159 20.8134  -2
  -7   1  -3 71.3159 20.8134   1
   7  -1  -3 133.905 31.9723  -2
  -7   1  -3 133.905 31.9723   1
  -8   0   3 103.355 22.0087   1
  -8   0   3 135.033 23.9947   1
  -7   0   3 884.253 55.0714   1
  -7   0   3 784.283 47.8221   1
   6   0  -3 109.461 14.1567   1
  -6   0   3 111.518 18.6098   1
  -6   0   3 93.0567 16.5320   1
   5   0  -3 704.403 34.1534   1
  -5   0   3 715.544 42.3589   1
  -5   0   3 664.185 37.2763   1
   4   0  -3 13.7888 7.77162   1
   4   0  -3 -1.3883 4.00213   1
  -4   0   3 2.91136 6.47108   1
  -4   0   3 2.90032 5.81022   1
  -4   0   3 1.15501 4.75241   1
   3   0  -3 528.484 25.3032   1
   3   0  -3 555.004 27.1287   1
   3   0  -3 508.128 29.8213   1
   3   0  -3 534.724 30.1992   1
   3   0   3 580.940 28.3177  -2
  -3   0   3 580.940 28.3177   1
  -2   0  -3 531.130 23.9509  -2
   2   0  -3 531.130 23.9509   1
   2   0   3 473.893 25.4407  -2
  -2   0   3 473.893 25.4407   1
   2   0   3 550.875 24.4159  -2
  -2   0   3 550.875 24.4159   1
   2   0   3 516.941 27.5140  -2
  -2   0   3 516.941 27.5140   1
  -1   0  -3 181.052 12.8669  -2
   1   0  -3 181.052 12.8669   1
  -1   0  -3 189.079 12.2832  -2
   1   0  -3 189.079 12.2832   1
  -1   0  -3 176.304 12.2873  -2
   1   0  -3 176.304 12.2873   1
  -1   0  -3 195.227 14.6737  -2
   1   0  -3 195.227 14.6737   1
  -1   0  -3 184.504 12.9569  -2
   1   0  -3 184.504 12.9569   1
   1   0   3 163.472 11.6874  -2
  -1   0   3 163.472 11.6874   1
   1   0   3 185.644 14.7411  -2
  -1   0   3 185.644 14.7411   1
   1   0   3 173.440 14.0657  -2
  -1   0   3 173.440 14.0657   1
   1   0   3 155.620 13.0282  -2
  -1   0   3 155.620 13.0282   1
   1   0   3 181.217 13.2086  -2
  -1   0   3 181.217 13.2086   1
   0   0  -3 711.836 27.5858  -2
   0   0  -3 711.836 27.5858   1
   0   0  -3 686.407 32.5105  -2
   0   0  -3 686.407 32.5105   1
   0   0  -3 726.522 30.0449  -2
   0   0  -3 726.522 30.0449   1
   0   0  -3 684.617 30.6823  -2
   0   0  -3 684.617 30.6823   1
   0   0  -3 708.183 27.6432  -2
   0   0  -3 708.183 27.6432   1
   0   0   3 703.491 27.4462  -2
   0   0   3 703.491 27.4462   1
   0   0   3 734.295 33.8253  -2
   0   0   3 734.295 33.8253   1
   0   0   3 665.633 27.3777  -2
   0   0   3 665.633 27.3777   1
   0   0   3 730.374 31.6281  -2
   0   0   3 730.374 31.6281   1
   0   0   3 662.615 29.4875  -2
   0   0   3 662.615 29.4875   1
   1   0  -3 191.712 17.0113  -2
  -1   0  -3 191.712 17.0113   1
   1   0  -3 194.441 15.5698  -2
  -1   0  -3 194.441 15.5698   1
   1   0  -3 174.274 17.1168  -2
  -1   0  -3 174.274 17.1168   1
   1   0  -3 180.395 13.2105  -2
  -1   0  -3 180.395 13.2105   1
   1   0  -3 193.008 13.0824  -2
  -1   0  -3 193.008 13.0824   1
  -1   0   3 207.580 17.5122  -2
   1   0   3 207.580 17.5122   1
  -1   0   3 192.293 13.2177  -2
   1   0   3 192.293 13.2177   1
  -1   0   3 206.839 17.1002  -2
   1   0   3 206.839 17.1002   1
  -1   0   3 177.861 14.4909  -2
   1   0   3 177.861 14.4909   1
  -1   0   3 196.598 13.1653  -2
   1   0   3 196.598 13.1653   1
   2   0  -3 423.627 22.5128  -2
  -2   0  -3 423.627 22.5128   1
   2   0  -3 501.604 26.1116  -2
  -2   0  -3 501.604 26.1116   1
   2   0  -3 446.387 29.7802  -2
  -2   0  -3 446.387 29.7802   1
   2   0  -3 480.710 23.8738  -2
  -2   0  -3 480.710 23.8738   1
  -2   0   3 432.625 24.0680  -2
   2   0   3 432.625 24.0680   1
  -2   0   3 471.755 22.9865  -2
   2   0   3 471.755 22.9865   1
  -2   0   3 441.472 23.5038  -2
   2   0   3 441.472 23.5038   1
  -2   0   3 518.200 30.3410  -2
   2   0   3 518.200 30.3410   1
   3   0  -3 559.818 27.8264  -2
  -3   0  -3 559.818 27.8264   1
  -3   0   3 498.708 27.8014  -2
   3   0   3 498.708 27.8014   1
  -4   0  -3 389.146 29.9426   1
  -4   0  -3 431.674 24.9342   1
   4   0   3 372.982 23.8996   1
   4   0   3 403.835 23.5681   1
  -5   0  -3 16.0578 9.86831   1
  -5   0  -3 4.14619 6.36663   1
   5   0   3 4.19296 5.86071   1
   5   0   3 5.91806 6.07512   1
  -6   0  -3 190.753 20.3227   1
  -6   0  -3 172.105 25.5978   1
   6   0   3 187.916 18.2229   1
   6   0   3 196.918 20.2338   1
  -7   0  -3 186.820 29.3345   1
  -7   0  -3 232.204 24.9440   1
   7   0   3 226.156 23.8344   1
   8  -1   3 281.755 34.5822  -2
  -8   1   3 281.755 34.5822   1
   7  -1   3 44.8940 19.8038  -2
  -7   1   3 44.8940 19.8038   1
  -6   1  -3 934.730 46.7001  -2
   6  -1  -3 934.730 46.7001   1
   6  -1   3 971.563 49.7836  -2
  -6   1   3 971.563 49.7836   1
  -5   1  -3 75.1616 13.1737  -2
   5  -1  -3 75.1616 13.1737   1
  -5   1  -3 100.194 18.8311  -2
   5  -1  -3 100.194 18.8311   1
   5  -1   3 70.9812 14.3523  -2
  -5   1   3 70.9812 14.3523   1
   5  -1   3 80.1902 14.7148  -2
  -5   1   3 80.1902 14.7148   1
  -4   1  -3 21.4483 8.32891  -2
   4  -1  -3 21.4483 8.32891   1
  -4   1  -3 23.5990 9.78614  -2
   4  -1  -3 23.5990 9.78614   1
   4  -1   3 25.7596 9.42188  -2
  -4   1   3 25.7596 9.42188   1
   4  -1   3 15.7097 8.45544  -2
  -4   1   3 15.7097 8.45544   1
  -3   1  -3 845.164 36.6117  -2
   3  -1  -3 845.164 36.6117   1
  -3   1  -3 930.073 41.4435  -2
   3  -1  -3 930.073 41.4435   1
   3  -1   3 714.417 36.3514  -2
  -3   1   3 714.417 36.3514   1
   3  -1   3 950.673 42.0588  -2
  -3   1   3 950.673 42.0588   1
  -2   1  -3 789.431 32.7803  -2
   2  -1  -3 789.431 32.7803   1
  -2   1  -3 767.014 33.0836  -2
   2  -1  -3 767.014 33.0836   1
   2  -1   3 787.500 32.6959  -2
  -2   1   3 787.500 32.6959   1
   2  -1   3 779.030 34.2291  -2
  -2   1   3 779.030 34.2291   1
  -1   1  -3 2006.87 70.4773  -2
   1  -1  -3 2006.87 70.4773   1
  -1   1  -3 2239.11 74.3143  -2
   1  -1  -3 2239.11 74.3143   1
   1  -1   3 2210.42 71.5459  -2
  -1   1   3 2210.42 71.5459   1
   0  -1  -3 2347.69 77.8782   1
   0  -1  -3 2431.32 87.4198   1
   0  -1  -3 2413.82 81.2901   1
   0  -1  -3 2459.51 79.7921   1
   0  -1  -3 2351.35 81.1175   1
   0  -1  -3 2393.09 77.2897   1
   0  -1   3 3094.20 111.219  -2
   0   1   3 3094.20 111.219   1
   0  -1   3 3181.14 104.159  -2
   0   1   3 3181.14 104.159   1
   0  -1   3 3089.85 102.235  -2
   0   1   3 3089.85 102.235   1
   0  -1   3 3143.63 98.5897  -2
   0   1   3 3143.63 98.5897   1
  -1  -1  -3 1007.17 44.8676   1
  -1  -1  -3 1022.41 37.5970   1
  -1  -1  -3 972.053 41.7883   1
  -1  -1  -3 1102.52 38.3305   1
  -1  -1  -3 1021.83 39.5013   1
   1   1   3 1088.23 42.7211   1
   1   1   3 1091.60 37.3991   1
   1   1   3 1023.24 38.6747   1
   1   1   3 1020.83 38.3011   1
   1   1   3 1039.92 37.9708   1
  -2  -1  -3 793.614 37.0034   1
  -2  -1  -3 733.497 30.3414   1
  -2  -1  -3 730.783 30.1864   1
  -2  -1  -3 791.422 32.4339   1
   2   1   3 739.274 30.3365   1
   2   1   3 692.688 30.2597   1
  -3  -1  -3 562.852 27.6083   1
  -3  -1  -3 454.559 30.6240   1
  -3  -1  -3 541.593 25.8058   1
  -3  -1  -3 515.367 25.4255   1
   3   1   3 542.987 26.2343   1
   3   1   3 492.916 24.5018   1
  -4  -1  -3 1178.59 58.1703   1
  -4  -1  -3 1125.45 48.0412   1
  -4  -1  -3 1208.14 50.3804   1
   4   1   3 1217.44 48.5496   1
   4   1   3 1187.84 46.9074   1
   5   1  -2 173.473 19.7922  -2
  -5  -1  -3 173.473 19.7922   1
   5   1   3 36.8483 9.12345   1
   5   1   3 40.0441 10.2099   1
   6   1  -2 42.9537 24.6319  -2
  -6  -1  -3 42.9537 24.6319   1
   6   1  -2 8.95458 15.9447  -2
  -6  -1  -3 8.95458 15.9447   1
  -6  -1   2 34.9036 16.2566  -2
   6   1   3 34.9036 16.2566   1
  -6  -1   2 30.8216 14.4176  -2
   6   1   3 30.8216 14.4176   1
   7   1  -2 40.5224 25.3803  -2
  -7  -1  -3 40.5224 25.3803   1
   7   1  -2 25.2846 16.6900  -2
  -7  -1  -3 25.2846 16.6900   1
  -7  -1   2 19.2486 15.4599  -2
   7   1   3 19.2486 15.4599   1
   8   1  -2 20.6010 17.7987  -2
  -8  -1  -3 20.6010 17.7987   1
   8  -2   3 78.1548 19.2216  -2
  -8   2   3 78.1548 19.2216   1
   8  -2   3 95.7737 23.9532  -2
  -8   2   3 95.7737 23.9532   1
  -7   2  -3 18.6540 15.1336  -2
   7  -2  -3 18.6540 15.1336   1
   7  -2   3 17.9433 16.4520  -2
  -7   2   3 17.9433 16.4520   1
   7  -2   3 71.4372 19.1014  -2
  -7   2   3 71.4372 19.1014   1
  -6   2  -3 28.9164 15.9320  -2
   6  -2  -3 28.9164 15.9320   1
   6  -2   3 54.6985 17.4262  -2
  -6   2   3 54.6985 17.4262   1
  -5   2  -3 15.9121 13.7359  -2
   5  -2  -3 15.9121 13.7359   1
   5  -2   3 21.3231 15.2107  -2
  -5   2   3 21.3231 15.2107   1
   4  -2  -3 211.524 20.3173   1
   4  -2  -3 186.553 16.4068   1
  -4   2   3 202.208 18.2710   1
  -4   2   3 205.586 18.8817   1
   3  -2  -3 40.1963 8.42976   1
   3  -2  -3 33.2769 8.78690   1
   3  -2  -3 40.7084 8.79759   1
  -3   2   3 53.7665 10.4232   1
  -3   2   3 32.1281 8.47426   1
   2  -2  -3 215.438 15.0917   1
   2  -2  -3 179.603 15.0583   1
   2  -2  -3 188.461 13.4503   1
   2  -2  -3 183.341 13.9604   1
   2  -2  -3 187.790 12.6924   1
  -2   2   3 177.475 14.6714   1
  -2   2   3 173.169 14.0222   1
  -2   2   3 189.782 10.1736   1
   1  -2  -3 171.756 11.2901   1
   1  -2  -3 135.916 6.85490   1
   1  -2  -3 131.020 11.8765   1
   1  -2  -3 170.433 13.2253   1
   1  -2  -3 143.030 11.0761   1
  -1   2   3 145.518 12.9428   1
  -1   2   3 129.762 11.4466   1
  -1   2   3 168.150 10.5916   1
  -1   2   3 152.025 12.6843   1
  -1   2   3 148.749 8.18746   1
   0  -2  -3 1697.33 63.0942   1
   0  -2  -3 1622.90 55.3670   1
   0  -2  -3 1676.42 58.9798   1
   0  -2  -3 1647.05 56.7347   1
   0  -2  -3 1709.95 58.7849   1
   0  -2  -3 1586.05 56.3800   1
   0   2   3 1745.56 57.3833   1
   0   2   3 1714.14 54.7261   1
   0   2   3 1610.73 56.6512   1
   0   2   3 1686.51 63.1381   1
   1   2  -2 366.162 19.8489  -2
  -1  -2  -3 366.162 19.8489   1
   1   2  -2 353.875 17.5077  -2
  -1  -2  -3 353.875 17.5077   1
   1   2  -2 362.583 19.2322  -2
  -1  -2  -3 362.583 19.2322   1
  -1  -2   2 378.159 20.2606  -2
   1   2   3 378.159 20.2606   1
  -1  -2   2 342.373 18.8284  -2
   1   2   3 342.373 18.8284   1
   2   2  -2 154.645 12.6802  -2
  -2  -2  -3 154.645 12.6802   1
   2   2  -2 178.373 14.3131  -2
  -2  -2  -3 178.373 14.3131   1
  -2  -2   2 180.694 15.6481  -2
   2   2   3 180.694 15.6481   1
  -2  -2   2 170.640 14.2630  -2
   2   2   3 170.640 14.2630   1
   3   2  -2 219.112 16.8024  -2
  -3  -2  -3 219.112 16.8024   1
   3   2  -2 194.089 15.4539  -2
  -3  -2  -3 194.089 15.4539   1
   3   2  -2 230.953 16.7733  -2
  -3  -2  -3 230.953 16.7733   1
  -3  -2   2 213.581 16.8706  -2
   3   2   3 213.581 16.8706   1
   4   2  -2 520.433 28.2831  -2
  -4  -2  -3 520.433 28.2831   1
   4   2  -2 462.795 25.9161  -2
  -4  -2  -3 462.795 25.9161   1
  -4  -2   2 481.210 26.9047  -2
   4   2   3 481.210 26.9047   1
   5   2  -2 106.128 13.6037  -2
  -5  -2  -3 106.128 13.6037   1
  -5  -2   2 119.732 14.1101  -2
   5   2   3 119.732 14.1101   1
   6   2  -2 442.251 29.9738  -2
  -6  -2  -3 442.251 29.9738   1
  -6  -2   2 441.153 29.9398  -2
   6   2   3 441.153 29.9398   1
   7   2  -2 127.280 31.3677  -2
  -7  -2  -3 127.280 31.3677   1
   7   2  -2 123.667 21.5622  -2
  -7  -2  -3 123.667 21.5622   1
  -7  -2   2 90.9691 19.3630  -2
   7   2   3 90.9691 19.3630   1
   8   2  -2 343.006 34.2659  -2
  -8  -2  -3 343.006 34.2659   1
  -8   3   3 2.89125 10.4698   1
   7  -3  -3 21.2574 11.0258   1
  -7   3   3 16.1987 10.8766   1
  -7   3   3 24.0310 13.3836   1
  -7   3   3 39.9574 14.1264   1
   6  -3  -3 344.011 27.1376   1
  -6   3   3 345.727 29.5967   1
  -6   3   3 337.382 28.4962   1
  -6   3   3 377.554 29.4258   1
   5  -3  -3 864.375 42.5199   1
  -5   3   3 806.127 44.5469   1
  -5   3   3 839.000 43.6357   1
  -5   3   3 851.128 42.3003   1
   4  -3  -3 786.197 37.4849   1
  -4   3   3 766.161 38.3206   1
  -4   3   3 734.613 38.6929   1
   3  -3  -3 1346.38 52.0968   1
   3  -3  -3 1355.16 53.5516   1
  -3   3   3 1314.08 53.3624   1
  -3   3   3 1306.05 54.4645   1
  -3   3   3 1297.98 48.4665   1
  -2   3  -2 2682.50 85.7443  -2
   2  -3  -3 2682.50 85.7443   1
   2  -3   2 2331.74 84.1387  -2
  -2   3   3 2331.74 84.1387   1
   2  -3   2 2373.86 80.3965  -2
  -2   3   3 2373.86 80.3965   1
  -1   3  -2 360.206 19.6540  -2
   1  -3  -3 360.206 19.6540   1
  -1   3  -2 317.952 20.9781  -2
   1  -3  -3 317.952 20.9781   1
   1  -3   2 352.751 18.6621  -2
  -1   3   3 352.751 18.6621   1
   0   3  -2 432.914 18.6306  -2
   0  -3  -3 432.914 18.6306   1
   0   3  -2 425.368 21.8056  -2
   0  -3  -3 425.368 21.8056   1
   0   3  -2 398.936 18.7185  -2
   0  -3  -3 398.936 18.7185   1
   0   3  -2 454.731 20.8720  -2
   0  -3  -3 454.731 20.8720   1
   0   3  -2 414.660 21.7928  -2
   0  -3  -3 414.660 21.7928   1
   0  -3   2 422.398 22.0966  -2
   0   3   3 422.398 22.0966   1
   0  -3   2 483.897 23.6752  -2
   0   3   3 483.897 23.6752   1
   0  -3   2 457.131 17.3776  -2
   0   3   3 457.131 17.3776   1
   0  -3   2 408.410 16.1689  -2
   0   3   3 408.410 16.1689   1
   1   3  -2 917.206 33.4914  -2
  -1  -3  -3 917.206 33.4914   1
   1   3  -2 885.690 31.5218  -2
  -1  -3  -3 885.690 31.5218   1
   1   3  -2 886.073 37.3599  -2
  -1  -3  -3 886.073 37.3599   1
   1   3  -2 884.661 39.3827  -2
  -1  -3  -3 884.661 39.3827   1
   1   3  -2 919.056 35.1632  -2
  -1  -3  -3 919.056 35.1632   1
  -1  -3   2 885.912 35.0053  -2
   1   3   3 885.912 35.0053   1
  -1  -3   2 798.013 36.3054  -2
   1   3   3 798.013 36.3054   1
  -1  -3   2 903.414 38.2200  -2
   1   3   3 903.414 38.2200   1
   2   3  -2 214.334 14.1172  -2
  -2  -3  -3 214.334 14.1172   1
   2   3  -2 182.766 12.0502  -2
  -2  -3  -3 182.766 12.0502   1
   2   3  -2 256.411 15.2820  -2
  -2  -3  -3 256.411 15.2820   1
  -2  -3   2 224.605 15.0062  -2
   2   3   3 224.605 15.0062   1
  -2  -3   2 183.849 15.9021  -2
   2   3   3 183.849 15.9021   1
  -2  -3   2 188.933 8.26197  -2
   2   3   3 188.933 8.26197   1
   3   3  -2 1147.28 45.0314  -2
  -3  -3  -3 1147.28 45.0314   1
   3   3  -2 1247.26 46.1795  -2
  -3  -3  -3 1247.26 46.1795   1
   3   3  -2 1143.18 44.1813  -2
  -3  -3  -3 1143.18 44.1813   1
  -3  -3   2 1111.78 44.8082  -2
   3   3   3 1111.78 44.8082   1
  -3  -3   2 1191.59 51.2416  -2
   3   3   3 1191.59 51.2416   1
  -3  -3   2 1159.82 39.3485  -2
   3   3   3 1159.82 39.3485   1
   4   3  -2 209.128 17.1469  -2
  -4  -3  -3 209.128 17.1469   1
  -4  -3   2 196.903 12.7305  -2
   4   3   3 196.903 12.7305   1
  -4  -3   2 178.158 18.4703  -2
   4   3   3 178.158 18.4703   1
  -4  -3   2 200.677 18.2196  -2
   4   3   3 200.677 18.2196   1
   5   3  -2 245.086 21.2791  -2
  -5  -3  -3 245.086 21.2791   1
  -5  -3   2 206.224 20.5011  -2
   5   3   3 206.224 20.5011   1
  -6  -3  -3 369.660 26.4716   1
   6   3   3 334.744 24.4715   1
  -7  -3  -3 437.545 32.5484   1
   7   3   3 466.785 30.7457   1
  -8  -3  -3 21.4036 11.4655   1
  -8   4   3 42.0326 16.6146   1
  -7   4  -2 194.990 28.4172  -2
   7  -4  -3 194.990 28.4172   1
  -7   4   3 77.3486 16.7415   1
  -6   4  -2 699.769 42.6119  -2
   6  -4  -3 699.769 42.6119   1
   6  -4   2 638.243 41.1995  -2
  -6   4   3 638.243 41.1995   1
  -5   4  -2 166.024 20.5626  -2
   5  -4  -3 166.024 20.5626   1
   5  -4   2 172.009 19.5681  -2
  -5   4   3 172.009 19.5681   1
   5  -4   2 170.480 20.3217  -2
  -5   4   3 170.480 20.3217   1
  -4   4  -2 14.2861 10.6064  -2
   4  -4  -3 14.2861 10.6064   1
   4  -4   2 18.6530 8.41805  -2
  -4   4   3 18.6530 8.41805   1
   4  -4   2 14.7266 8.76049  -2
  -4   4   3 14.7266 8.76049   1
   4  -4   2 15.7822 9.55147  -2
  -4   4   3 15.7822 9.55147   1
  -3   4  -2 466.795 24.9738  -2
   3  -4  -3 466.795 24.9738   1
  -3   4  -2 370.763 27.1551  -2
   3  -4  -3 370.763 27.1551   1
  -3   4  -2 400.321 23.6147  -2
   3  -4  -3 400.321 23.6147   1
   3  -4   2 361.720 18.9683  -2
  -3   4   3 361.720 18.9683   1
   3  -4   2 454.174 23.3641  -2
  -3   4   3 454.174 23.3641   1
   3  -4   2 422.388 23.8348  -2
  -3   4   3 422.388 23.8348   1
  -2   4  -2 62.3462 10.3080  -2
   2  -4  -3 62.3462 10.3080   1
  -2   4  -2 62.3318 10.7440  -2
   2  -4  -3 62.3318 10.7440   1
   2  -4   2 64.9810 8.58822  -2
  -2   4   3 64.9810 8.58822   1
  -1   4  -2 40.2580 10.7806  -2
   1  -4  -3 40.2580 10.7806   1
  -1   4  -2 47.3872 12.2097  -2
   1  -4  -3 47.3872 12.2097   1
   1  -4   2 21.8149 7.57057  -2
  -1   4   3 21.8149 7.57057   1
   1  -4   2 41.9150 7.56211  -2
  -1   4   3 41.9150 7.56211   1
   0   4  -2 1857.85 67.7084  -2
   0  -4  -3 1857.85 67.7084   1
   0   4  -2 2019.55 71.4159  -2
   0  -4  -3 2019.55 71.4159   1
   0   4  -2 1943.89 66.7124  -2
   0  -4  -3 1943.89 66.7124   1
   0  -4   2 1991.31 69.7678  -2
   0   4   3 1991.31 69.7678   1
   1   4  -2 205.139 16.3939  -2
  -1  -4  -3 205.139 16.3939   1
   1   4  -2 212.368 18.3656  -2
  -1  -4  -3 212.368 18.3656   1
  -1  -4   2 171.644 15.9582  -2
   1   4   3 171.644 15.9582   1
  -2  -4  -3 2954.36 94.6776   1
  -2  -4  -3 2991.29 94.3956   1
  -2  -4  -3 2855.41 92.9864   1
  -2  -4  -3 2963.10 107.237   1
   2   4   3 2916.63 106.354   1
   2   4   3 2905.34 95.2422   1
   2   4   3 2999.70 111.125   1
  -3  -4  -3 568.852 25.5350   1
  -3  -4  -3 505.606 23.0794   1
  -3  -4  -3 518.341 23.8957   1
   3   4   3 541.676 34.3616   1
   3   4   3 487.297 29.8299   1
   3   4   3 536.811 25.5943   1
  -4  -4  -3 62.3255 9.63466   1
  -4  -4  -3 44.9302 8.29009   1
  -4  -4  -3 62.9997 9.88121   1
   4   4   3 57.1129 12.2206   1
   4   4   3 59.9389 9.56792   1
  -5  -4  -3 743.504 35.3757   1
  -5  -4  -3 678.695 33.9191   1
  -5  -4   1 893.199 49.8145  -2
   5   4   3 893.199 49.8145   1
   6   4  -1 312.665 25.2428  -2
  -6  -4  -3 312.665 25.2428   1
  -6  -4   1 322.366 26.3249  -2
   6   4   3 322.366 26.3249   1
   7   4  -1 489.344 35.9128  -2
  -7  -4  -3 489.344 35.9128   1
  -7  -4   1 531.704 34.9764  -2
   7   4   3 531.704 34.9764   1
   8   4  -1 40.0209 18.5107  -2
  -8  -4  -3 40.0209 18.5107   1
  -8  -4   1 49.4909 18.9278  -2
   8   4   3 49.4909 18.9278   1
  -7   5  -2 749.733 47.6372  -2
   7  -5  -3 749.733 47.6372   1
   7  -5   2 829.017 49.2007  -2
  -7   5   3 829.017 49.2007   1
  -6   5  -2 163.052 22.6012  -2
   6  -5  -3 163.052 22.6012   1
   6  -5   2 129.046 19.6290  -2
  -6   5   3 129.046 19.6290   1
  -5   5  -2 360.701 29.2290  -2
   5  -5  -3 360.701 29.2290   1
   5  -5   2 368.452 26.2557  -2
  -5   5   3 368.452 26.2557   1
  -4   5  -2 147.181 18.5696  -2
   4  -5  -3 147.181 18.5696   1
   4  -5   2 146.328 14.9774  -2
  -4   5   3 146.328 14.9774   1
  -3   5  -2 82.1541 15.2530  -2
   3  -5  -3 82.1541 15.2530   1
  -3   5   3 9.07583 3.82710   1
  -3   5   3 8.96785 4.99969   1
   2  -5  -3 47.5270 9.60108   1
   2  -5  -3 54.4524 10.2927   1
   2  -5  -3 45.2699 8.50548   1
  -2   5   3 42.2933 7.81522   1
  -2   5   3 39.4147 6.59567   1
   1  -5  -3 312.752 21.1587   1
   1  -5  -3 334.386 19.8384   1
   1  -5  -3 359.494 14.8668   1
   1  -5  -3 336.791 17.5644   1
   1  -5  -3 353.438 15.2901   1
  -1   5   3 361.488 16.6010   1
   0  -5  -3 166.166 11.2691   1
   0  -5  -3 163.071 11.3183   1
   0  -5  -3 163.752 13.5636   1
   0  -5  -3 152.035 10.2889   1
   0  -5  -3 156.709 9.45983   1
   0   5   3 158.301 14.5324   1
  -1  -5  -3 799.304 28.7194   1
  -1  -5  -3 867.126 41.6853   1
  -1  -5  -3 892.380 38.7092   1
  -1  -5  -3 896.875 30.1235   1
  -1  -5  -3 877.838 40.7723   1
  -1  -5  -3 856.539 35.4581   1
   1   5   3 830.924 35.7401   1
   2   5  -1 128.234 13.2439  -2
  -2  -5  -3 128.234 13.2439   1
   2   5  -1 111.872 16.2145  -2
  -2  -5  -3 111.872 16.2145   1
  -2  -5   1 125.655 13.8733  -2
   2   5   3 125.655 13.8733   1
   3   5  -1 136.507 13.3430  -2
  -3  -5  -3 136.507 13.3430   1
   3   5  -1 107.269 9.91774  -2
  -3  -5  -3 107.269 9.91774   1
  -3  -5   1 142.027 20.8442  -2
   3   5   3 142.027 20.8442   1
  -3  -5   1 128.964 13.7415  -2
   3   5   3 128.964 13.7415   1
  -3  -5   1 136.653 17.8206  -2
   3   5   3 136.653 17.8206   1
   4   5  -1 8.82708 9.00219  -2
  -4  -5  -3 8.82708 9.00219   1
   4   5  -1 18.1867 8.80502  -2
  -4  -5  -3 18.1867 8.80502   1
   4   5  -1 7.24926 8.59679  -2
  -4  -5  -3 7.24926 8.59679   1
  -4  -5   1 -3.1130 10.3412  -2
   4   5   3 -3.1130 10.3412   1
  -4  -5   1 8.53207 8.86270  -2
   4   5   3 8.53207 8.86270   1
   5   5  -1 152.393 15.6857  -2
  -5  -5  -3 152.393 15.6857   1
  -5  -5   1 138.972 15.3542  -2
   5   5   3 138.972 15.3542   1
   6   5  -1 493.295 29.0065  -2
  -6  -5  -3 493.295 29.0065   1
  -6  -5   1 410.557 27.0790  -2
   6   5   3 410.557 27.0790   1
   7   5  -1 260.236 24.8737  -2
  -7  -5  -3 260.236 24.8737   1
  -7  -5   1 227.470 23.0871  -2
   7   5   3 227.470 23.0871   1
   8   5  -1 224.202 27.5216  -2
  -8  -5  -3 224.202 27.5216   1
  -7   6  -2 17.2391 21.9875  -2
   7  -6  -3 17.2391 21.9875   1
   6  -6  -3 148.702 21.2699   1
  -6   6   3 162.787 19.3292   1
   5  -6  -3 5.23235 7.27104   1
  -5   6   3 15.2900 8.04624   1
  -5   6   3 10.0891 7.40176   1
   4  -6  -3 777.784 40.0781   1
  -4   6   3 790.659 36.5927   1
  -4   6   3 758.356 33.4540   1
   3  -6  -3 119.288 17.0947   1
   3  -6  -3 113.061 13.7893   1
   3  -6  -3 128.279 14.8801   1
  -3   6   3 116.591 11.9380   1
  -3   6   3 103.486 7.84307   1
  -3   6   3 117.434 10.6408   1
  -2   6  -1 1207.89 50.2311  -2
   2  -6  -3 1207.89 50.2311   1
   2  -6   1 1275.35 45.2643  -2
  -2   6   3 1275.35 45.2643   1
  -1   6  -1 678.146 29.0576  -2
   1  -6  -3 678.146 29.0576   1
  -1   6  -1 731.491 31.8385  -2
   1  -6  -3 731.491 31.8385   1
  -1   6  -1 682.470 35.5534  -2
   1  -6  -3 682.470 35.5534   1
   0   6  -1 174.299 12.1861  -2
   0  -6  -3 174.299 12.1861   1
   0   6  -1 186.993 16.6732  -2
   0  -6  -3 186.993 16.6732   1
   0   6  -1 180.312 13.0101  -2
   0  -6  -3 180.312 13.0101   1
   0   6  -1 187.935 10.5866  -2
   0  -6  -3 187.935 10.5866   1
   1   6  -1 2508.24 84.4874  -2
  -1  -6  -3 2508.24 84.4874   1
   1   6  -1 2209.14 77.4288  -2
  -1  -6  -3 2209.14 77.4288   1
   1   6  -1 2199.76 70.9004  -2
  -1  -6  -3 2199.76 70.9004   1
   1   6  -1 2100.33 78.7435  -2
  -1  -6  -3 2100.33 78.7435   1
   1   6  -1 2203.75 87.3781  -2
  -1  -6  -3 2203.75 87.3781   1
   1   6  -1 2272.13 90.5031  -2
  -1  -6  -3 2272.13 90.5031   1
   2   6  -1 38.1441 12.6167  -2
  -2  -6  -3 38.1441 12.6167   1
   2   6  -1 59.1497 12.2836  -2
  -2  -6  -3 59.1497 12.2836   1
   2   6  -1 47.6332 8.03959  -2
  -2  -6  -3 47.6332 8.03959   1
  -2  -6   1 65.3392 10.3981  -2
   2   6   3 65.3392 10.3981   1
   3   6  -1 863.459 35.5076  -2
  -3  -6  -3 863.459 35.5076   1
   3   6  -1 918.249 32.3267  -2
  -3  -6  -3 918.249 32.3267   1
   3   6  -1 793.297 30.7686  -2
  -3  -6  -3 793.297 30.7686   1
   3   6  -1 796.071 44.1665  -2
  -3  -6  -3 796.071 44.1665   1
  -3  -6   1 774.655 42.9299  -2
   3   6   3 774.655 42.9299   1
  -3  -6   1 889.440 36.8060  -2
   3   6   3 889.440 36.8060   1
   4   6  -1 151.834 13.6142  -2
  -4  -6  -3 151.834 13.6142   1
   4   6  -1 143.410 13.3856  -2
  -4  -6  -3 143.410 13.3856   1
   4   6  -1 154.725 14.8466  -2
  -4  -6  -3 154.725 14.8466   1
  -4  -6   1 180.534 22.1169  -2
   4   6   3 180.534 22.1169   1
  -4  -6   1 152.909 15.3015  -2
   4   6   3 152.909 15.3015   1
   5   6  -1 83.2319 14.4548  -2
  -5  -6  -3 83.2319 14.4548   1
  -5  -6   1 89.2368 15.2834  -2
   5   6   3 89.2368 15.2834   1
   6   6  -1 220.956 22.0961  -2
  -6  -6  -3 220.956 22.0961   1
  -6  -6   1 227.509 22.2591  -2
   6   6   3 227.509 22.2591   1
  -7  -6  -3 23.1041 9.80336   1
  -8  -6  -3 135.690 21.9659   1
  -7   7  -1 293.391 36.0555  -2
   7  -7  -3 293.391 36.0555   1
  -6   7  -1 33.1845 20.3966  -2
   6  -7  -3 33.1845 20.3966   1
  -5   7  -1 494.173 35.9275  -2
   5  -7  -3 494.173 35.9275   1
  -4   7  -1 87.6792 17.4817  -2
   4  -7  -3 87.6792 17.4817   1
   4  -7   1 100.642 11.4043  -2
  -4   7   3 100.642 11.4043   1
  -3   7  -1 715.957 37.5048  -2
   3  -7  -3 715.957 37.5048   1
   3  -7   1 798.946 30.4685  -2
  -3   7   3 798.946 30.4685   1
   3  -7   1 767.525 29.3161  -2
  -3   7   3 767.525 29.3161   1
  -2   7  -1 54.2755 7.39197  -2
   2  -7  -3 54.2755 7.39197   1
  -2   7  -1 53.0644 9.69747  -2
   2  -7  -3 53.0644 9.69747   1
  -2   7  -1 58.8318 12.9990  -2
   2  -7  -3 58.8318 12.9990   1
  -2   7  -1 64.7491 10.5680  -2
   2  -7  -3 64.7491 10.5680   1
  -1   7  -1 132.692 16.5362  -2
   1  -7  -3 132.692 16.5362   1
  -1   7  -1 150.462 12.3672  -2
   1  -7  -3 150.462 12.3672   1
  -1   7  -1 139.000 12.6184  -2
   1  -7  -3 139.000 12.6184   1
  -1   7  -1 147.485 13.7966  -2
   1  -7  -3 147.485 13.7966   1
   0   7  -1 115.170 12.0071  -2
   0  -7  -3 115.170 12.0071   1
   0   7  -1 103.472 10.8579  -2
   0  -7  -3 103.472 10.8579   1
   0   7  -1 132.550 15.8640  -2
   0  -7  -3 132.550 15.8640   1
   0   7  -1 99.9764 5.47745  -2
   0  -7  -3 99.9764 5.47745   1
   0   7  -1 61.7525 7.24095  -2
   0  -7  -3 61.7525 7.24095   1
   1   7  -1 380.626 29.6079  -2
  -1  -7  -3 380.626 29.6079   1
   1   7  -1 480.256 25.8336  -2
  -1  -7  -3 480.256 25.8336   1
   1   7  -1 511.671 27.0572  -2
  -1  -7  -3 511.671 27.0572   1
   2   7  -1 380.639 24.1256  -2
  -2  -7  -3 380.639 24.1256   1
   2   7  -1 488.587 32.7519  -2
  -2  -7  -3 488.587 32.7519   1
  -2  -7   1 497.965 28.4516  -2
   2   7   3 497.965 28.4516   1
   3   7  -1 228.194 12.9526  -2
  -3  -7  -3 228.194 12.9526   1
   3   7  -1 320.351 28.8400  -2
  -3  -7  -3 320.351 28.8400   1
   3   7   3 68.2626 10.2925   1
  -4  -7  -3 129.032 12.2061   1
  -4  -7  -3 92.3141 9.77661   1
  -4  -7  -3 102.886 10.4005   1
   4   7   3 105.271 11.8698   1
  -5  -7  -3 92.9966 11.9273   1
   5   7   3 101.702 13.0023   1
  -6  -7  -3 32.5913 9.64474   1
   7   7   0 463.874 33.0624  -2
  -7  -7  -3 463.874 33.0624   1
  -6   8  -1 395.134 33.4084  -2
   6  -8  -3 395.134 33.4084   1
  -5   8  -1 605.036 39.8351  -2
   5  -8  -3 605.036 39.8351   1
  -4   8  -1 289.055 26.2271  -2
   4  -8  -3 289.055 26.2271   1
  -3   8  -1 1008.27 47.1576  -2
   3  -8  -3 1008.27 47.1576   1
   2  -8  -3 13.4139 8.35537   1
   2  -8  -3 4.37467 5.31609   1
   2  -8  -3 7.46843 5.43884   1
   1  -8  -3 61.3239 12.2137   1
   1  -8  -3 60.5184 10.9193   1
   1  -8  -3 65.2828 10.6348   1
   1  -8  -3 27.2094 6.67968   1
   0  -8  -3 13.2351 9.63883   1
   0  -8  -3 20.5024 5.04131   1
   0  -8  -3 30.5900 8.79939   1
   0  -8  -3 42.6345 7.89257   1
   0  -8  -3 25.0316 8.16629   1
  -1  -8  -3 5.43495 3.61721   1
  -1  -8  -3 -3.4295 3.78157   1
  -1  -8  -3 3.02851 5.37564   1
  -1  -8  -3 3.59205 8.42295   1
  -1  -8  -3 1.96698 7.32245   1
  -1  -8  -3 1.51155 4.43456   1
  -2  -8  -3 206.725 24.2468   1
  -2  -8  -3 203.573 17.0335   1
  -2  -8  -3 241.721 20.2573   1
  -2  -8  -3 217.054 15.9397   1
  -2  -8  -3 236.719 24.1860   1
   2   8   3 248.350 18.6120   1
   3   8   0 19.9249 16.8402  -2
  -3  -8  -3 19.9249 16.8402   1
   3   8   0 39.1092 10.6841  -2
  -3  -8  -3 39.1092 10.6841   1
   3   8   0 21.5368 13.2008  -2
  -3  -8  -3 21.5368 13.2008   1
  -3  -8   0 47.7920 12.8964  -2
   3   8   3 47.7920 12.8964   1
   4   8   0 319.310 17.4422  -2
  -4  -8  -3 319.310 17.4422   1
  -4  -8   0 332.634 22.3601  -2
   4   8   3 332.634 22.3601   1
   5   8   0 35.7125 10.5257  -2
  -5  -8  -3 35.7125 10.5257   1
   6   8   0 400.733 25.9588  -2
  -6  -8  -3 400.733 25.9588   1
   7   8   0 79.9573 15.3369  -2
  -7  -8  -3 79.9573 15.3369   1
   7   8   0 141.444 24.7475  -2
  -7  -8  -3 141.444 24.7475   1
   5  -9  -3 44.9828 13.8360   1
   4  -9  -3 50.1258 13.3344   1
   3  -9  -3 -5.0311 4.96863   1
   2  -9  -3 98.7956 16.7285   1
   2  -9  -3 89.2170 12.5449   1
  -1   9   0 224.206 23.5183  -2
   1  -9  -3 224.206 23.5183   1
  -1   9   0 150.607 13.9899  -2
   1  -9  -3 150.607 13.9899   1
   0   9   0 178.041 14.6360  -2
   0  -9  -3 178.041 14.6360   1
   0   9   0 162.871 19.5644  -2
   0  -9  -3 162.871 19.5644   1
   0   9   0 150.675 18.8121  -2
   0  -9  -3 150.675 18.8121   1
   1   9   0 748.724 40.2667  -2
  -1  -9  -3 748.724 40.2667   1
   1   9   0 852.262 39.0752  -2
  -1  -9  -3 852.262 39.0752   1
   1   9   0 819.057 47.8397  -2
  -1  -9  -3 819.057 47.8397   1
   1   9   0 778.434 50.0084  -2
  -1  -9  -3 778.434 50.0084   1
   2   9   0 37.0762 12.8320  -2
  -2  -9  -3 37.0762 12.8320   1
   2   9   0 14.3552 8.43909  -2
  -2  -9  -3 14.3552 8.43909   1
   2   9   0 9.90368 7.45576  -2
  -2  -9  -3 9.90368 7.45576   1
   2   9   0 4.73521 16.6759  -2
  -2  -9  -3 4.73521 16.6759   1
   2   9   0 6.28921 10.3623  -2
  -2  -9  -3 6.28921 10.3623   1
   3   9   0 34.0481 17.5994  -2
  -3  -9  -3 34.0481 17.5994   1
   3   9   0 45.4209 10.1023  -2
  -3  -9  -3 45.4209 10.1023   1
   4   9   0 536.897 23.3410  -2
  -4  -9  -3 536.897 23.3410   1
   5   9   0 289.061 19.5932  -2
  -5  -9  -3 289.061 19.5932   1
   6   9   0 254.402 22.0650  -2
  -6  -9  -3 254.402 22.0650   1
  -4  10   0 464.324 35.6354  -2
   4 -10  -3 464.324 35.6354   1
  -3  10   0 22.2625 14.5393  -2
   3 -10  -3 22.2625 14.5393   1
  -2  10   0 583.902 32.3386  -2
   2 -10  -3 583.902 32.3386   1
  -1  10   0 81.2560 11.4144  -2
   1 -10  -3 81.2560 11.4144   1
  -1  10   0 91.1582 15.5844  -2
   1 -10  -3 91.1582 15.5844   1
   0  10   0 1011.49 38.2538  -2
   0 -10  -3 1011.49 38.2538   1
   0  10   0 976.279 46.7865  -2
   0 -10  -3 976.279 46.7865   1
   1  10   0 35.2504 20.6010  -2
  -1 -10  -3 35.2504 20.6010   1
   1  10   0 31.4698 7.56111  -2
  -1 -10  -3 31.4698 7.56111   1
   2  10   0 220.957 33.1745  -2
  -2 -10  -3 220.957 33.1745   1
   2  10   0 252.507 25.5935  -2
  -2 -10  -3 252.507 25.5935   1
  -3 -10  -3 57.2623 20.8729   1
  -4 -10  -3 27.2784 6.49055   1
  -4 -10  -3 23.7067 18.5546   1
  -5 -10  -3 0.23231 4.35782   1
  -3  11   0 116.935 20.8687  -2
   3 -11  -3 116.935 20.8687   1
  -2  11   0 144.257 18.6205  -2
   2 -11  -3 144.257 18.6205   1
  -1  11   0 333.278 22.6957  -2
   1 -11  -3 333.278 22.6957   1
   0 -11  -3 220.706 28.5028   1
   0 -11  -3 231.288 15.2223   1
  -1 -11  -3 -4.8437 11.1353   1
  -2 -11  -3 92.9192 23.7079   1
  -3 -11  -3 180.138 31.0883   1
   4  11   1 130.601 10.9006  -2
  -4 -11  -3 130.601 10.9006   1
  -1  12   1 35.7805 12.8724  -2
   1 -12  -3 35.7805 12.8724   1
   0  12   1 212.985 34.7709  -2
   0 -12  -3 212.985 34.7709   1
   0  12   1 175.561 15.3911  -2
   0 -12  -3 175.561 15.3911   1
   1  12   1 -1.9167 26.7082  -2
  -1 -12  -3 -1.9167 26.7082   1
   2  12   1 495.361 50.0331  -2
  -2 -12  -3 495.361 50.0331   1
  -1 -11   4 173.778 20.8196   1
   0  11   7 3.73336 19.7727  -2
   0 -11   4 3.73336 19.7727   1
  -1  11   7 260.738 29.4433  -2
   1 -11   4 260.738 29.4433   1
   4  10   7 4.95839 15.2774  -2
  -4 -10   4 4.95839 15.2774   1
   3  10   7 266.485 48.6443  -2
  -3 -10   4 266.485 48.6443   1
   3  10   7 223.483 21.9783  -2
  -3 -10   4 223.483 21.9783   1
   2  10   7 121.681 23.2295  -2
  -2 -10   4 121.681 23.2295   1
   2  10   7 120.647 18.2137  -2
  -2 -10   4 120.647 18.2137   1
   1  10   7 561.590 39.1264  -2
  -1 -10   4 561.590 39.1264   1
   1  10   7 536.703 32.1330  -2
  -1 -10   4 536.703 32.1330   1
   0  10   7 144.891 19.8221  -2
   0 -10   4 144.891 19.8221   1
  -1  10   7 534.352 34.7093  -2
   1 -10   4 534.352 34.7093   1
  -2  10   7 38.6446 15.4456  -2
   2 -10   4 38.6446 15.4456   1
  -3  10   7 240.837 29.8599  -2
   3 -10   4 240.837 29.8599   1
   5   9   7 502.957 33.2255  -2
  -5  -9   4 502.957 33.2255   1
   5   9   7 621.040 49.8751  -2
  -5  -9   4 621.040 49.8751   1
   4   9   7 163.989 27.1354  -2
  -4  -9   4 163.989 27.1354   1
   4   9   7 148.682 18.4215  -2
  -4  -9   4 148.682 18.4215   1
   4   9   7 207.310 35.3060  -2
  -4  -9   4 207.310 35.3060   1
   3   9   7 320.885 40.1469  -2
  -3  -9   4 320.885 40.1469   1
   3   9   7 320.513 31.4734  -2
  -3  -9   4 320.513 31.4734   1
   3   9   7 368.645 24.0566  -2
  -3  -9   4 368.645 24.0566   1
   2   9   7 25.4657 17.7723  -2
  -2  -9   4 25.4657 17.7723   1
   2   9   7 29.2402 12.8484  -2
  -2  -9   4 29.2402 12.8484   1
   2   9   7 31.9720 13.3784  -2
  -2  -9   4 31.9720 13.3784   1
  -1  -9  -7 22.9142 17.5938  -2
   1   9  -4 22.9142 17.5938   1
   1   9   7 26.4681 18.0179  -2
  -1  -9   4 26.4681 18.0179   1
   1   9   7 5.36484 13.6075  -2
  -1  -9   4 5.36484 13.6075   1
   1   9   7 13.6098 13.8684  -2
  -1  -9   4 13.6098 13.8684   1
   0  -9  -7 692.584 46.4114  -2
   0   9  -4 692.584 46.4114   1
   0   9   7 590.665 35.9458  -2
   0  -9   4 590.665 35.9458   1
   1  -9  -7 153.519 27.5796  -2
  -1   9  -4 153.519 27.5796   1
  -1   9   7 162.850 23.5943  -2
   1  -9   4 162.850 23.5943   1
   2  -9  -7 633.171 49.5090  -2
  -2   9  -4 633.171 49.5090   1
  -2   9   7 559.650 38.9671  -2
   2  -9   4 559.650 38.9671   1
  -3   9  -4 111.898 24.6087   1
   3  -9   4 103.768 18.8163   1
   3  -9   4 98.1656 17.5487   1
   4  -9   4 231.444 27.0651   1
   6   8   7 6.76903 14.9917  -2
  -6  -8   4 6.76903 14.9917   1
   5   8   7 490.557 57.8123  -2
  -5  -8   4 490.557 57.8123   1
   5   8   7 631.924 36.2149  -2
  -5  -8   4 631.924 36.2149   1
   5   8   7 587.496 47.6866  -2
  -5  -8   4 587.496 47.6866   1
   4   8   7 444.470 49.3454  -2
  -4  -8   4 444.470 49.3454   1
   4   8   7 442.437 29.1234  -2
  -4  -8   4 442.437 29.1234   1
   3   8   7 340.928 24.9211  -2
  -3  -8   4 340.928 24.9211   1
   3   8   7 458.568 48.8714  -2
  -3  -8   4 458.568 48.8714   1
   2   8   7 46.4724 14.4281  -2
  -2  -8   4 46.4724 14.4281   1
   2   8   7 35.3146 17.4873  -2
  -2  -8   4 35.3146 17.4873   1
   1   8  -4 447.396 35.4298   1
   1   8  -4 442.174 29.7011   1
  -1  -8   4 394.913 25.4226   1
  -1  -8   4 438.416 29.7577   1
  -1  -8   4 448.997 33.8299   1
   0   8  -4 160.652 16.9281   1
   0   8  -4 136.341 22.1152   1
   0  -8   4 157.292 12.7670   1
   0  -8   4 130.989 16.1720   1
   0  -8   4 169.892 18.5187   1
   0  -8   4 129.582 20.0686   1
  -1   8  -4 81.9189 19.4304   1
   1  -8   4 65.8187 14.0588   1
   1  -8   4 51.4430 10.7183   1
   1  -8   4 71.3208 15.3487   1
   2  -8  -6 447.247 39.6320  -2
  -2   8  -4 447.247 39.6320   1
  -2   8   6 485.951 34.6942  -2
   2  -8   4 485.951 34.6942   1
   3  -8  -6 597.411 46.6573  -2
  -3   8  -4 597.411 46.6573   1
  -3   8   6 578.055 36.8696  -2
   3  -8   4 578.055 36.8696   1
  -3   8   6 621.067 40.6956  -2
   3  -8   4 621.067 40.6956   1
   4  -8  -6 684.634 52.6447  -2
  -4   8  -4 684.634 52.6447   1
  -4   8   6 649.157 43.6054  -2
   4  -8   4 649.157 43.6054   1
  -5   8   6 429.298 37.2689  -2
   5  -8   4 429.298 37.2689   1
  -6  -7   4 104.024 18.6693   1
  -6  -7   4 127.573 25.0570   1
  -5  -7   4 76.9949 15.4934   1
  -5  -7   4 110.786 23.5770   1
  -5  -7   4 64.6476 23.8291   1
  -4  -7   4 310.553 22.7675   1
  -4  -7   4 284.796 29.6062   1
  -4  -7   4 313.597 37.3887   1
   3   7   6 266.523 38.4537  -2
  -3  -7   4 266.523 38.4537   1
   2   7   6 1545.32 65.0733  -2
  -2  -7   4 1545.32 65.0733   1
   2   7   6 1562.08 55.5814  -2
  -2  -7   4 1562.08 55.5814   1
   2   7   6 1374.36 56.4309  -2
  -2  -7   4 1374.36 56.4309   1
  -1  -7  -6 1440.25 67.5186  -2
   1   7  -4 1440.25 67.5186   1
  -1  -7  -6 1575.66 65.2334  -2
   1   7  -4 1575.66 65.2334   1
   1   7   6 1538.31 69.1884  -2
  -1  -7   4 1538.31 69.1884   1
   1   7   6 1425.31 56.3374  -2
  -1  -7   4 1425.31 56.3374   1
   1   7   6 1572.54 55.0170  -2
  -1  -7   4 1572.54 55.0170   1
   1   7   6 1368.21 61.1808  -2
  -1  -7   4 1368.21 61.1808   1
   1   7   6 1353.51 47.4996  -2
  -1  -7   4 1353.51 47.4996   1
   0  -7  -6 1352.55 58.3652  -2
   0   7  -4 1352.55 58.3652   1
   0  -7  -6 1230.35 61.6820  -2
   0   7  -4 1230.35 61.6820   1
   0   7   6 1200.28 52.7192  -2
   0  -7   4 1200.28 52.7192   1
   0   7   6 1321.25 62.8284  -2
   0  -7   4 1321.25 62.8284   1
   0   7   6 1344.55 51.3944  -2
   0  -7   4 1344.55 51.3944   1
   0   7   6 1324.34 47.8686  -2
   0  -7   4 1324.34 47.8686   1
   1  -7  -6 1.66283 9.07625  -2
  -1   7  -4 1.66283 9.07625   1
   1  -7  -6 17.4948 15.1582  -2
  -1   7  -4 17.4948 15.1582   1
  -1   7   6 9.29548 12.6934  -2
   1  -7   4 9.29548 12.6934   1
  -1   7   6 4.73757 9.02226  -2
   1  -7   4 4.73757 9.02226   1
  -1   7   6 33.5627 12.6506  -2
   1  -7   4 33.5627 12.6506   1
   2  -7  -6 181.590 19.5300  -2
  -2   7  -4 181.590 19.5300   1
   2  -7  -6 149.236 22.5045  -2
  -2   7  -4 149.236 22.5045   1
  -2   7   6 169.535 17.6119  -2
   2  -7   4 169.535 17.6119   1
  -2   7   6 149.824 18.1576  -2
   2  -7   4 149.824 18.1576   1
   3  -7  -6 25.1537 18.3302  -2
  -3   7  -4 25.1537 18.3302   1
   3  -7  -6 -5.8641 11.5115  -2
  -3   7  -4 -5.8641 11.5115   1
  -3   7   6 4.93085 11.7525  -2
   3  -7   4 4.93085 11.7525   1
  -3   7   6 -10.483 11.1167  -2
   3  -7   4 -10.483 11.1167   1
   4  -7  -6 105.693 26.6644  -2
  -4   7  -4 105.693 26.6644   1
  -4   7   6 94.9086 21.2526  -2
   4  -7   4 94.9086 21.2526   1
  -4   7   6 71.2985 17.4646  -2
   4  -7   4 71.2985 17.4646   1
   5  -7  -6 84.2897 32.8727  -2
  -5   7  -4 84.2897 32.8727   1
  -5   7   6 114.851 25.3424  -2
   5  -7   4 114.851 25.3424   1
  -6   7   6 105.160 29.8777  -2
   6  -7   4 105.160 29.8777   1
  -7  -6   4 261.708 27.8922   1
   6   6   6 289.680 27.0970  -2
  -6  -6   4 289.680 27.0970   1
  -5  -6  -6 685.431 42.0503  -2
   5   6  -4 685.431 42.0503   1
   5   6   6 720.406 38.8038  -2
  -5  -6   4 720.406 38.8038   1
   5   6   6 869.105 64.9326  -2
  -5  -6   4 869.105 64.9326   1
   4   6   6 266.103 28.1982  -2
  -4  -6   4 266.103 28.1982   1
   4   6   6 209.211 20.0747  -2
  -4  -6   4 209.211 20.0747   1
   4   6   6 267.544 36.5835  -2
  -4  -6   4 267.544 36.5835   1
   3   6   6 741.229 51.7055  -2
  -3  -6   4 741.229 51.7055   1
   3   6   6 721.243 33.1769  -2
  -3  -6   4 721.243 33.1769   1
   3   6   6 806.464 46.2106  -2
  -3  -6   4 806.464 46.2106   1
   3   6   6 716.239 34.6231  -2
  -3  -6   4 716.239 34.6231   1
  -2  -6  -6 970.246 52.0617  -2
   2   6  -4 970.246 52.0617   1
   2   6   6 1052.87 41.3422  -2
  -2  -6   4 1052.87 41.3422   1
   2   6   6 1045.25 43.3022  -2
  -2  -6   4 1045.25 43.3022   1
   2   6   6 1111.74 54.8155  -2
  -2  -6   4 1111.74 54.8155   1
   2   6   6 1092.79 47.3632  -2
  -2  -6   4 1092.79 47.3632   1
  -1  -6  -6 1343.60 57.4224  -2
   1   6  -4 1343.60 57.4224   1
  -1  -6  -6 1249.66 59.0289  -2
   1   6  -4 1249.66 59.0289   1
   1   6   6 1272.39 63.9096  -2
  -1  -6   4 1272.39 63.9096   1
   1   6   6 1179.99 51.6886  -2
  -1  -6   4 1179.99 51.6886   1
   1   6   6 1274.82 60.4287  -2
  -1  -6   4 1274.82 60.4287   1
   1   6   6 1173.46 49.1663  -2
  -1  -6   4 1173.46 49.1663   1
   1   6   6 1174.33 42.0940  -2
  -1  -6   4 1174.33 42.0940   1
   1   6   6 1351.29 48.3430  -2
  -1  -6   4 1351.29 48.3430   1
   0  -6  -6 29.8679 11.0368  -2
   0   6  -4 29.8679 11.0368   1
   0  -6  -6 -3.2153 12.9596  -2
   0   6  -4 -3.2153 12.9596   1
   0   6   6 19.0050 7.97653  -2
   0  -6   4 19.0050 7.97653   1
   0   6   6 0.03842 18.1944  -2
   0  -6   4 0.03842 18.1944   1
   0   6   6 22.9754 13.4992  -2
   0  -6   4 22.9754 13.4992   1
   0   6   6 17.2113 11.6123  -2
   0  -6   4 17.2113 11.6123   1
   0   6   6 33.9822 10.3042  -2
   0  -6   4 33.9822 10.3042   1
   1  -6  -6 142.981 17.9500  -2
  -1   6  -4 142.981 17.9500   1
   1  -6  -6 176.523 22.4703  -2
  -1   6  -4 176.523 22.4703   1
  -1   6   6 162.771 16.5921  -2
   1  -6   4 162.771 16.5921   1
  -1   6   6 173.855 19.4957  -2
   1  -6   4 173.855 19.4957   1
  -1   6   6 127.855 26.6070  -2
   1  -6   4 127.855 26.6070   1
  -1   6   6 167.545 15.9609  -2
   1  -6   4 167.545 15.9609   1
  -1   6   6 172.612 21.6698  -2
   1  -6   4 172.612 21.6698   1
   2  -6  -6 67.0536 21.5239  -2
  -2   6  -4 67.0536 21.5239   1
   2  -6  -6 58.5493 17.4425  -2
  -2   6  -4 58.5493 17.4425   1
  -2   6   6 52.5032 17.6619  -2
   2  -6   4 52.5032 17.6619   1
   3  -6  -6 551.635 45.4907  -2
  -3   6  -4 551.635 45.4907   1
   3  -6  -6 546.468 39.8915  -2
  -3   6  -4 546.468 39.8915   1
   3  -6   4 370.583 27.3981   1
   3  -6   4 372.972 26.1072   1
  -4   6  -4 -7.4111 12.3123   1
   4  -6   4 9.59147 7.33889   1
   4  -6   4 5.45152 7.35949   1
  -5   6  -4 87.9716 25.1986   1
   5  -6   4 54.2272 14.3163   1
  -6   6  -4 78.3038 25.9268   1
  -6   6   5 271.486 34.7885  -2
   6  -6   4 271.486 34.7885   1
  -7   6   5 707.865 52.2913  -2
   7  -6   4 707.865 52.2913   1
   7   5   6 952.631 52.4418  -2
  -7  -5   4 952.631 52.4418   1
   6   5   6 1058.70 54.1858  -2
  -6  -5   4 1058.70 54.1858   1
   6   5   6 1191.31 77.9893  -2
  -6  -5   4 1191.31 77.9893   1
   6   5   6 1255.83 69.9538  -2
  -6  -5   4 1255.83 69.9538   1
  -5  -5  -6 42.1002 14.1953  -2
   5   5  -4 42.1002 14.1953   1
   5   5   6 31.8092 12.8949  -2
  -5  -5   4 31.8092 12.8949   1
   5   5   6 61.8512 25.9295  -2
  -5  -5   4 61.8512 25.9295   1
   5   5   6 71.4374 19.2776  -2
  -5  -5   4 71.4374 19.2776   1
  -4  -5  -6 224.689 20.3618  -2
   4   5  -4 224.689 20.3618   1
  -4  -5  -6 210.478 10.5116  -2
   4   5  -4 210.478 10.5116   1
   4   5   6 258.796 33.2402  -2
  -4  -5   4 258.796 33.2402   1
   4   5   6 233.997 20.4574  -2
  -4  -5   4 233.997 20.4574   1
   3   5   6 78.2050 23.5661  -2
  -3  -5   4 78.2050 23.5661   1
   3   5   6 67.0745 12.5285  -2
  -3  -5   4 67.0745 12.5285   1
   3   5   6 80.8146 13.8648  -2
  -3  -5   4 80.8146 13.8648   1
  -2  -5  -6 259.739 25.2219  -2
   2   5  -4 259.739 25.2219   1
   2   5   6 254.583 18.5292  -2
  -2  -5   4 254.583 18.5292   1
   2   5   6 307.007 20.7301  -2
  -2  -5   4 307.007 20.7301   1
   1   5  -4 248.111 22.5874   1
   1   5  -4 262.108 20.8253   1
   1   5   6 259.618 18.7035  -2
  -1  -5   4 259.618 18.7035   1
   0   5  -4 152.827 16.0670   1
   0   5  -4 135.669 17.4714   1
   0  -5   4 157.861 18.6341   1
   0  -5   4 123.401 10.6394   1
   0  -5   4 140.202 12.3586   1
   0  -5   4 118.574 13.9854   1
   0  -5   4 153.853 20.0375   1
  -1   5  -4 114.432 18.3142   1
  -1   5  -4 82.0794 14.0927   1
   1  -5   4 128.428 12.8908   1
   1  -5   4 111.516 16.8245   1
   1  -5   4 130.444 19.7449   1
   1  -5   4 117.997 14.4544   1
   1  -5   4 116.746 11.8419   1
  -2   5  -4 429.758 33.0285   1
  -2   5  -4 431.816 29.7392   1
  -2   5   5 2192.30 82.5464  -2
   2  -5   4 2192.30 82.5464   1
   3  -5  -5 1013.46 61.3898  -2
  -3   5  -4 1013.46 61.3898   1
  -3   5   5 1157.30 63.7587  -2
   3  -5   4 1157.30 63.7587   1
  -3   5   5 1088.20 52.2499  -2
   3  -5   4 1088.20 52.2499   1
   4  -5  -5 836.314 54.8425  -2
  -4   5  -4 836.314 54.8425   1
  -4   5   5 709.681 42.4100  -2
   4  -5   4 709.681 42.4100   1
   5  -5  -5 165.751 32.2085  -2
  -5   5  -4 165.751 32.2085   1
  -5   5   5 168.015 22.4800  -2
   5  -5   4 168.015 22.4800   1
  -5   5   5 97.9507 22.1708  -2
   5  -5   4 97.9507 22.1708   1
   6  -5  -5 487.141 47.4482  -2
  -6   5  -4 487.141 47.4482   1
  -6   5   5 425.288 36.8856  -2
   6  -5   4 425.288 36.8856   1
  -7   5   5 60.6668 20.2339  -2
   7  -5   4 60.6668 20.2339   1
   8   4   6 219.377 30.5149  -2
  -8  -4   4 219.377 30.5149   1
   7   4   6 1209.45 62.1298  -2
  -7  -4   4 1209.45 62.1298   1
  -6  -4  -6 62.8200 19.1769  -2
   6   4  -4 62.8200 19.1769   1
  -6  -4   4 3.24686 10.0534   1
  -6  -4   4 27.2848 11.1370   1
  -5  -4  -6 319.500 27.5214  -2
   5   4  -4 319.500 27.5214   1
  -5  -4   4 228.815 30.1640   1
  -5  -4   4 282.428 29.0862   1
  -5  -4   4 215.143 20.9143   1
   4   4  -4 65.7688 7.90776   1
   4   4  -4 61.9099 12.2609   1
  -4  -4   4 49.6257 13.9177   1
  -4  -4   4 80.3133 11.7552   1
  -4  -4   4 53.2128 14.2627   1
  -4  -4   4 61.0452 17.6538   1
  -4  -4   4 72.0913 12.6080   1
   3   4  -4 148.275 13.9753   1
   3   4  -4 160.738 18.0241   1
   3   4  -4 153.940 9.36839   1
  -3  -4   4 156.761 14.7843   1
  -3  -4   4 153.722 21.5394   1
  -3  -4   4 141.151 13.2216   1
  -3  -4   4 159.461 19.9258   1
  -3  -4   4 164.623 19.2570   1
   2   4  -4 90.6114 13.9541   1
   2   4  -4 82.6214 14.4804   1
   2   4  -4 70.5727 6.40419   1
  -2  -4   4 82.2864 13.7707   1
  -2  -4   4 63.0678 10.4414   1
  -2  -4   4 87.3692 9.68192   1
  -2  -4   4 76.8200 7.15686   1
  -2  -4   4 78.0578 15.1070   1
  -1  -4  -5 944.005 45.9677  -2
   1   4  -4 944.005 45.9677   1
   1   4   5 955.098 34.3302  -2
  -1  -4   4 955.098 34.3302   1
   1   4   5 929.435 38.2616  -2
  -1  -4   4 929.435 38.2616   1
   1   4   5 881.155 38.5986  -2
  -1  -4   4 881.155 38.5986   1
   1   4   5 949.446 37.2915  -2
  -1  -4   4 949.446 37.2915   1
   0  -4  -5 118.306 17.9093  -2
   0   4  -4 118.306 17.9093   1
   0  -4  -5 146.749 15.7458  -2
   0   4  -4 146.749 15.7458   1
   0   4   5 167.537 21.4530  -2
   0  -4   4 167.537 21.4530   1
   0   4   5 167.868 16.6904  -2
   0  -4   4 167.868 16.6904   1
   0   4   5 197.448 21.0595  -2
   0  -4   4 197.448 21.0595   1
   0   4   5 161.187 12.7953  -2
   0  -4   4 161.187 12.7953   1
   1  -4  -5 2131.60 70.2342  -2
  -1   4  -4 2131.60 70.2342   1
   1  -4  -5 2137.24 85.4447  -2
  -1   4  -4 2137.24 85.4447   1
   1  -4  -5 1969.91 85.3131  -2
  -1   4  -4 1969.91 85.3131   1
  -1   4   5 2129.84 87.8299  -2
   1  -4   4 2129.84 87.8299   1
  -1   4   5 2151.50 90.3514  -2
   1  -4   4 2151.50 90.3514   1
  -1   4   5 2298.08 76.4387  -2
   1  -4   4 2298.08 76.4387   1
  -1   4   5 2080.89 78.4461  -2
   1  -4   4 2080.89 78.4461   1
  -1   4   5 2089.89 72.8602  -2
   1  -4   4 2089.89 72.8602   1
   2  -4  -5 2915.69 111.217  -2
  -2   4  -4 2915.69 111.217   1
   2  -4  -5 2857.14 111.696  -2
  -2   4  -4 2857.14 111.696   1
  -2   4   5 2672.92 100.324  -2
   2  -4   4 2672.92 100.324   1
  -2   4   5 3021.13 99.6384  -2
   2  -4   4 3021.13 99.6384   1
  -2   4   5 2954.35 97.5872  -2
   2  -4   4 2954.35 97.5872   1
  -2   4   5 2596.90 110.766  -2
   2  -4   4 2596.90 110.766   1
   3  -4  -5 358.654 28.4680  -2
  -3   4  -4 358.654 28.4680   1
   3  -4  -5 285.747 28.9014  -2
  -3   4  -4 285.747 28.9014   1
  -3   4   5 347.783 30.8897  -2
   3  -4   4 347.783 30.8897   1
  -3   4   5 344.465 23.7157  -2
   3  -4   4 344.465 23.7157   1
  -3   4   5 314.537 23.6925  -2
   3  -4   4 314.537 23.6925   1
   4  -4  -5 75.8621 21.5141  -2
  -4   4  -4 75.8621 21.5141   1
  -4   4   5 77.6715 15.7444  -2
   4  -4   4 77.6715 15.7444   1
  -4   4   5 93.1533 15.7968  -2
   4  -4   4 93.1533 15.7968   1
  -4   4   5 80.7378 20.2682  -2
   4  -4   4 80.7378 20.2682   1
   5  -4  -5 319.968 36.6567  -2
  -5   4  -4 319.968 36.6567   1
  -5   4   5 304.746 27.7403  -2
   5  -4   4 304.746 27.7403   1
  -5   4   5 297.850 28.3564  -2
   5  -4   4 297.850 28.3564   1
   6  -4  -5 16.8865 27.0001  -2
  -6   4  -4 16.8865 27.0001   1
  -6   4   5 30.8402 20.7463  -2
   6  -4   4 30.8402 20.7463   1
  -7   4   5 265.715 34.4153  -2
   7  -4   4 265.715 34.4153   1
  -8  -3   4 51.6408 16.8417   1
  -7  -3   4 1.91036 10.5935   1
  -7  -3   4 -2.2424 8.69194   1
   6   3  -4 14.7044 7.56250   1
  -6  -3   4 14.7360 9.86196   1
  -6  -3   4 27.3027 14.4033   1
   5   3  -4 274.262 19.6831   1
  -5  -3   4 289.744 28.7300   1
  -5  -3   4 287.287 23.5588   1
  -4  -3  -5 2271.96 88.7058  -2
   4   3  -4 2271.96 88.7058   1
  -4  -3  -5 2374.14 80.3177  -2
   4   3  -4 2374.14 80.3177   1
  -4  -3  -5 2302.74 78.1458  -2
   4   3  -4 2302.74 78.1458   1
   4   3   5 2295.39 86.5723  -2
  -4  -3   4 2295.39 86.5723   1
   4   3   5 2369.02 105.273  -2
  -4  -3   4 2369.02 105.273   1
   4   3   5 2510.32 86.1128  -2
  -4  -3   4 2510.32 86.1128   1
   4   3   5 2647.54 96.6609  -2
  -4  -3   4 2647.54 96.6609   1
  -3  -3  -5 1368.32 66.2492  -2
   3   3  -4 1368.32 66.2492   1
  -3  -3  -5 1556.82 51.9288  -2
   3   3  -4 1556.82 51.9288   1
  -3  -3  -5 1585.50 52.8591  -2
   3   3  -4 1585.50 52.8591   1
  -3  -3  -5 1556.42 59.2657  -2
   3   3  -4 1556.42 59.2657   1
   3   3   5 1545.35 73.0569  -2
  -3  -3   4 1545.35 73.0569   1
   3   3   5 1543.29 57.3943  -2
  -3  -3   4 1543.29 57.3943   1
   3   3   5 1621.15 67.6369  -2
  -3  -3   4 1621.15 67.6369   1
   3   3   5 1463.30 59.3980  -2
  -3  -3   4 1463.30 59.3980   1
  -2  -3  -5 4130.05 131.119  -2
   2   3  -4 4130.05 131.119   1
  -2  -3  -5 4303.61 154.919  -2
   2   3  -4 4303.61 154.919   1
  -2  -3  -5 4371.69 134.450  -2
   2   3  -4 4371.69 134.450   1
  -2  -3  -5 3874.58 146.884  -2
   2   3  -4 3874.58 146.884   1
   2   3   5 4896.78 153.173  -2
  -2  -3   4 4896.78 153.173   1
   2   3   5 4547.20 157.646  -2
  -2  -3   4 4547.20 157.646   1
   2   3   5 4210.50 138.916  -2
  -2  -3   4 4210.50 138.916   1
   2   3   5 4425.19 141.729  -2
  -2  -3   4 4425.19 141.729   1
  -1  -3  -5 120.740 9.36257  -2
   1   3  -4 120.740 9.36257   1
  -1  -3  -5 133.266 8.65837  -2
   1   3  -4 133.266 8.65837   1
  -1  -3  -5 141.883 14.2949  -2
   1   3  -4 141.883 14.2949   1
  -1  -3  -5 149.310 14.9881  -2
   1   3  -4 149.310 14.9881   1
   1   3   5 144.129 9.52329  -2
  -1  -3   4 144.129 9.52329   1
   1   3   5 113.243 9.78396  -2
  -1  -3   4 113.243 9.78396   1
   1   3   5 120.983 11.0331  -2
  -1  -3   4 120.983 11.0331   1
   1   3   5 123.784 15.2994  -2
  -1  -3   4 123.784 15.2994   1
   1   3   5 130.127 12.7502  -2
  -1  -3   4 130.127 12.7502   1
   1   3   5 149.136 15.8689  -2
  -1  -3   4 149.136 15.8689   1
   0  -3  -5 1456.53 48.8727  -2
   0   3  -4 1456.53 48.8727   1
   0  -3  -5 1384.78 59.9034  -2
   0   3  -4 1384.78 59.9034   1
   0  -3  -5 1483.89 49.7485  -2
   0   3  -4 1483.89 49.7485   1
   0  -3  -5 1307.22 58.7444  -2
   0   3  -4 1307.22 58.7444   1
   0   3   5 1344.77 54.5401  -2
   0  -3   4 1344.77 54.5401   1
   0   3   5 1507.52 52.5517  -2
   0  -3   4 1507.52 52.5517   1
   0   3   5 1409.18 62.4975  -2
   0  -3   4 1409.18 62.4975   1
   0   3   5 1390.21 49.3615  -2
   0  -3   4 1390.21 49.3615   1
   0   3   5 1386.19 62.4387  -2
   0  -3   4 1386.19 62.4387   1
   1  -3  -5 568.178 35.6900  -2
  -1   3  -4 568.178 35.6900   1
   1  -3  -5 575.878 33.8351  -2
  -1   3  -4 575.878 33.8351   1
  -1   3   5 615.264 27.9087  -2
   1  -3   4 615.264 27.9087   1
  -1   3   5 613.317 28.5419  -2
   1  -3   4 613.317 28.5419   1
  -1   3   5 473.718 34.8204  -2
   1  -3   4 473.718 34.8204   1
  -1   3   5 550.322 34.2339  -2
   1  -3   4 550.322 34.2339   1
  -1   3   5 560.698 30.3592  -2
   1  -3   4 560.698 30.3592   1
   2  -3  -5 2686.92 88.4796  -2
  -2   3  -4 2686.92 88.4796   1
   2  -3  -5 2591.81 103.232  -2
  -2   3  -4 2591.81 103.232   1
  -2   3   5 2569.04 93.1503  -2
   2  -3   4 2569.04 93.1503   1
  -2   3   5 2458.33 102.493  -2
   2  -3   4 2458.33 102.493   1
   3  -3  -5 -10.353 10.7989  -2
  -3   3  -4 -10.353 10.7989   1
   3  -3  -5 12.0528 18.3738  -2
  -3   3  -4 12.0528 18.3738   1
  -3   3   5 8.31793 14.6397  -2
   3  -3   4 8.31793 14.6397   1
  -3   3   5 -2.4914 16.7496  -2
   3  -3   4 -2.4914 16.7496   1
  -4   3  -4 135.669 19.9243   1
  -4   3  -4 139.611 15.4092   1
  -4   3  -4 110.917 20.8749   1
   4  -3   4 123.605 16.5988   1
   4  -3   4 122.908 19.6674   1
   4  -3   4 136.436 16.3584   1
  -5   3  -4 4.54973 11.7382   1
  -5   3  -4 10.8206 7.67195   1
   5  -3   4 8.56373 7.46431   1
   5  -3   4 5.98364 8.12854   1
  -6   3  -4 531.051 44.2321   1
  -6   3  -4 496.053 33.8644   1
   6  -3   4 507.630 35.1006   1
   6  -3   4 475.768 38.4276   1
  -7   3   4 144.762 28.3438  -2
   7  -3   4 144.762 28.3438   1
   8   2   5 127.653 26.5213  -2
  -8  -2   4 127.653 26.5213   1
   7   2   5 152.783 25.9587  -2
  -7  -2   4 152.783 25.9587   1
   7   2   5 151.984 24.0915  -2
  -7  -2   4 151.984 24.0915   1
   6   2   5 45.6908 15.2681  -2
  -6  -2   4 45.6908 15.2681   1
   6   2   5 46.5567 15.5023  -2
  -6  -2   4 46.5567 15.5023   1
  -5  -2  -5 432.640 26.6499  -2
   5   2  -4 432.640 26.6499   1
   5   2   5 356.071 26.4561  -2
  -5  -2   4 356.071 26.4561   1
   5   2   5 431.771 33.5347  -2
  -5  -2   4 431.771 33.5347   1
   5   2   5 392.363 29.3037  -2
  -5  -2   4 392.363 29.3037   1
  -4  -2  -5 1456.33 56.8564  -2
   4   2  -4 1456.33 56.8564   1
   4   2   5 1576.67 65.9665  -2
  -4  -2   4 1576.67 65.9665   1
   4   2   5 1427.44 60.3821  -2
  -4  -2   4 1427.44 60.3821   1
   4   2   5 1473.90 58.8088  -2
  -4  -2   4 1473.90 58.8088   1
   4   2   5 1591.78 71.4518  -2
  -4  -2   4 1591.78 71.4518   1
  -3  -2  -5 872.288 36.0582  -2
   3   2  -4 872.288 36.0582   1
  -3  -2  -5 939.319 46.5671  -2
   3   2  -4 939.319 46.5671   1
   3   2   5 936.453 44.9033  -2
  -3  -2   4 936.453 44.9033   1
   3   2   5 864.184 40.4947  -2
  -3  -2   4 864.184 40.4947   1
   3   2   5 929.272 49.3360  -2
  -3  -2   4 929.272 49.3360   1
   3   2   5 893.652 38.7041  -2
  -3  -2   4 893.652 38.7041   1
  -2  -2  -5 1424.87 58.9028  -2
   2   2  -4 1424.87 58.9028   1
  -2  -2  -5 1488.07 52.5644  -2
   2   2  -4 1488.07 52.5644   1
  -2  -2  -5 1484.33 51.2427  -2
   2   2  -4 1484.33 51.2427   1
   2   2   5 1433.98 53.8647  -2
  -2  -2   4 1433.98 53.8647   1
  -1  -2  -5 533.119 31.2711  -2
   1   2  -4 533.119 31.2711   1
  -1  -2  -5 572.497 24.0610  -2
   1   2  -4 572.497 24.0610   1
  -1  -2  -5 537.626 30.7731  -2
   1   2  -4 537.626 30.7731   1
   1   2   5 567.250 24.6148  -2
  -1  -2   4 567.250 24.6148   1
   1   2   5 576.048 26.4986  -2
  -1  -2   4 576.048 26.4986   1
   0   2  -4 38.5047 7.02002   1
   0   2  -4 34.0776 9.66218   1
   0   2  -4 45.2341 10.6064   1
   0   2   5 131.120 17.5586  -2
   0  -2   4 131.120 17.5586   1
  -1   2  -4 39.9881 7.94835   1
  -1   2  -4 35.4949 10.5092   1
  -1   2  -4 38.7208 11.7211   1
  -1   2  -4 51.9887 8.36397   1
   1  -2   4 45.3260 8.56365   1
   1  -2   4 39.2369 11.5159   1
   1  -2   4 38.2403 7.71979   1
   1  -2   4 42.9092 12.8524   1
   1  -2   4 34.3231 10.1273   1
  -2   2  -4 321.417 26.7011   1
  -2   2  -4 390.276 21.0117   1
  -2   2  -4 386.134 27.2353   1
   2  -2   4 347.227 26.9520   1
   2  -2   4 370.358 21.5435   1
   2  -2   4 389.847 21.8164   1
   2  -2   4 344.096 22.5074   1
  -3   2  -4 -0.0691 7.96811   1
  -3   2  -4 -1.7955 4.28495   1
  -3   2  -4 -3.8158 6.81812   1
   3  -2   4 -1.0241 4.78720   1
   3  -2   4 3.76234 7.30651   1
   3  -2   4 5.10672 5.99813   1
  -4   2  -4 137.250 19.4762   1
  -4   2  -4 90.7325 13.9388   1
  -4   2  -4 101.740 18.1354   1
  -4   2   4 410.599 28.6965  -2
   4  -2   4 410.599 28.6965   1
  -4   2   4 379.071 35.5103  -2
   4  -2   4 379.071 35.5103   1
   5  -2  -4 1353.31 74.6765  -2
  -5   2  -4 1353.31 74.6765   1
   5  -2  -4 1442.38 61.0810  -2
  -5   2  -4 1442.38 61.0810   1
  -5   2   4 1427.19 63.3036  -2
   5  -2   4 1427.19 63.3036   1
  -5   2   4 1490.21 64.1961  -2
   5  -2   4 1490.21 64.1961   1
   6  -2  -4 294.475 27.4916  -2
  -6   2  -4 294.475 27.4916   1
   6  -2  -4 279.863 35.9838  -2
  -6   2  -4 279.863 35.9838   1
  -6   2   4 285.807 28.0137  -2
   6  -2   4 285.807 28.0137   1
  -6   2   4 283.427 27.5154  -2
   6  -2   4 283.427 27.5154   1
   7  -2  -4 94.4518 28.7121  -2
  -7   2  -4 94.4518 28.7121   1
  -7   2   4 47.5659 17.8855  -2
   7  -2   4 47.5659 17.8855   1
   8   1   5 1479.33 74.8847  -2
  -8  -1   4 1479.33 74.8847   1
   7   1   5 138.652 24.3497  -2
  -7  -1   4 138.652 24.3497   1
   6   1   5 1272.82 61.2521  -2
  -6  -1   4 1272.82 61.2521   1
   5   1  -4 156.851 16.7230   1
   5   1  -4 135.895 13.7474   1
  -5  -1   4 123.879 18.7878   1
  -5  -1   4 110.299 16.3293   1
  -5  -1   4 147.435 18.2701   1
   4   1  -4 1105.90 46.7994   1
   4   1  -4 1128.84 45.3154   1
  -4  -1   4 1182.65 58.8277   1
  -4  -1   4 1106.98 56.3706   1
  -4  -1   4 1093.15 49.9635   1
  -4  -1   4 1148.83 51.8702   1
   3   1  -4 7.02540 4.82570   1
   3   1  -4 4.05766 6.12318   1
   3   1  -4 10.9051 4.79448   1
  -3  -1   4 15.8877 6.54377   1
  -3  -1   4 3.17302 7.16544   1
  -3  -1   4 -2.4226 5.50906   1
  -3  -1   4 23.7636 6.90844   1
  -3  -1   4 7.91930 5.81296   1
   2   1  -4 19.8891 8.03717   1
   2   1  -4 18.7430 7.08085   1
   2   1  -4 8.40517 4.50179   1
   2   1  -4 11.7445 4.90439   1
  -2  -1   4 17.2740 7.20456   1
  -2  -1   4 27.6338 8.99933   1
  -2  -1   4 11.1072 6.49606   1
  -2  -1   4 7.50913 6.79155   1
  -2  -1   4 14.7363 5.68910   1
  -2  -1   4 15.1223 5.29095   1
  -1  -1  -4 231.653 16.0651  -2
   1   1  -4 231.653 16.0651   1
  -1  -1   4 217.635 18.5618   1
  -1  -1   4 206.670 13.5522   1
  -1  -1   4 230.360 14.1416   1
  -1  -1   4 214.837 16.5406   1
  -1  -1   4 229.751 17.8385   1
   0  -1  -4 4347.72 136.947  -2
   0   1  -4 4347.72 136.947   1
   0  -1  -4 4206.67 145.036  -2
   0   1  -4 4206.67 145.036   1
   0  -1  -4 4282.70 151.952  -2
   0   1  -4 4282.70 151.952   1
   0  -1  -4 4466.61 133.126  -2
   0   1  -4 4466.61 133.126   1
   0   1   4 4192.41 153.424  -2
   0  -1   4 4192.41 153.424   1
   0   1   4 4413.62 137.551  -2
   0  -1   4 4413.62 137.551   1
   0   1   4 4256.96 140.956  -2
   0  -1   4 4256.96 140.956   1
   1  -1  -4 2304.66 77.2569  -2
  -1   1  -4 2304.66 77.2569   1
   1  -1  -4 2214.21 86.1102  -2
  -1   1  -4 2214.21 86.1102   1
   1  -1  -4 2427.49 76.5567  -2
  -1   1  -4 2427.49 76.5567   1
  -1   1   4 2243.84 80.2109  -2
   1  -1   4 2243.84 80.2109   1
  -1   1   4 2228.23 86.2740  -2
   1  -1   4 2228.23 86.2740   1
  -1   1   4 2348.94 78.0587  -2
   1  -1   4 2348.94 78.0587   1
  -1   1   4 2135.26 88.7277  -2
   1  -1   4 2135.26 88.7277   1
   2  -1  -4 2652.36 103.829  -2
  -2   1  -4 2652.36 103.829   1
   2  -1  -4 2811.52 92.4641  -2
  -2   1  -4 2811.52 92.4641   1
   2  -1  -4 2784.68 93.9527  -2
  -2   1  -4 2784.68 93.9527   1
  -2   1   4 2815.43 93.1812  -2
   2  -1   4 2815.43 93.1812   1
  -2   1   4 2684.83 95.6010  -2
   2  -1   4 2684.83 95.6010   1
  -2   1   4 2886.42 105.648  -2
   2  -1   4 2886.42 105.648   1
   3  -1  -4 1.91772 8.73438  -2
  -3   1  -4 1.91772 8.73438   1
   3  -1  -4 -2.4062 11.9221  -2
  -3   1  -4 -2.4062 11.9221   1
   3  -1  -4 -4.0633 13.3572  -2
  -3   1  -4 -4.0633 13.3572   1
  -3   1   4 -0.9296 9.51352  -2
   3  -1   4 -0.9296 9.51352   1
  -3   1   4 3.73877 10.2862  -2
   3  -1   4 3.73877 10.2862   1
  -3   1   4 -2.7887 12.3679  -2
   3  -1   4 -2.7887 12.3679   1
   4  -1  -4 1196.85 61.0632  -2
  -4   1  -4 1196.85 61.0632   1
   4  -1  -4 1152.82 49.8641  -2
  -4   1  -4 1152.82 49.8641   1
  -4   1   4 1215.41 51.5240  -2
   4  -1   4 1215.41 51.5240   1
  -4   1   4 1142.53 50.7379  -2
   4  -1   4 1142.53 50.7379   1
   5  -1  -4 754.692 50.7250  -2
  -5   1  -4 754.692 50.7250   1
   5  -1  -4 769.735 40.1753  -2
  -5   1  -4 769.735 40.1753   1
  -5   1   4 775.366 40.6565  -2
   5  -1   4 775.366 40.6565   1
  -5   1   4 753.574 40.8312  -2
   5  -1   4 753.574 40.8312   1
   6  -1  -4 852.133 45.3908  -2
  -6   1  -4 852.133 45.3908   1
   6  -1  -4 752.162 55.6380  -2
  -6   1  -4 752.162 55.6380   1
  -6   1   4 888.284 47.7609  -2
   6  -1   4 888.284 47.7609   1
  -6   1   4 797.893 44.3019  -2
   6  -1   4 797.893 44.3019   1
   7  -1  -4 46.8964 20.5292  -2
  -7   1  -4 46.8964 20.5292   1
   7  -1  -4 34.0156 29.3577  -2
  -7   1  -4 34.0156 29.3577   1
   8  -1  -4 248.901 33.3973  -2
  -8   1  -4 248.901 33.3973   1
  -8   0   4 370.609 38.0086   1
  -8   0   4 364.871 35.4848   1
  -7   0   4 407.287 36.2520   1
  -7   0   4 358.878 32.2944   1
   6   0  -4 13.3193 7.26675   1
   6   0  -4 21.3988 9.88744   1
  -6   0   4 11.5919 9.52323   1
  -6   0   4 10.5255 10.0588   1
  -6   0   4 9.09120 8.85075   1
   5   0  -4 187.836 19.4974   1
   5   0  -4 206.475 17.3662   1
  -5   0   4 211.377 22.8615   1
  -5   0   4 231.862 21.7056   1
  -5   0   4 204.400 19.7022   1
   4   0  -4 49.4972 10.2608   1
   4   0  -4 56.8222 13.0198   1
   4   0  -4 63.4892 10.0699   1
   4   0  -4 57.0087 11.9748   1
  -4   0   4 41.3199 10.2398   1
  -4   0   4 49.8772 11.7642   1
  -4   0   4 50.1071 12.1145   1
  -3   0  -4 45.0904 11.5789  -2
   3   0  -4 45.0904 11.5789   1
  -3   0   4 8.39714 7.06245   1
  -3   0   4 12.2685 6.52376   1
  -3   0   4 14.2419 6.46627   1
  -2   0  -4 921.012 41.9865  -2
   2   0  -4 921.012 41.9865   1
  -2   0  -4 879.228 36.5765  -2
   2   0  -4 879.228 36.5765   1
  -2   0  -4 888.622 37.5643  -2
   2   0  -4 888.622 37.5643   1
   2   0   4 835.493 38.7063  -2
  -2   0   4 835.493 38.7063   1
   2   0   4 872.352 40.0455  -2
  -2   0   4 872.352 40.0455   1
   2   0   4 923.107 37.0520  -2
  -2   0   4 923.107 37.0520   1
   2   0   4 961.105 38.4003  -2
  -2   0   4 961.105 38.4003   1
  -1   0  -4 1812.16 68.3837  -2
   1   0  -4 1812.16 68.3837   1
  -1   0  -4 1730.11 60.2336  -2
   1   0  -4 1730.11 60.2336   1
  -1   0  -4 1720.90 62.2635  -2
   1   0  -4 1720.90 62.2635   1
  -1   0  -4 1756.75 60.8266  -2
   1   0  -4 1756.75 60.8266   1
   1   0   4 1753.06 64.1848  -2
  -1   0   4 1753.06 64.1848   1
   1   0   4 1759.59 60.6533  -2
  -1   0   4 1759.59 60.6533   1
   1   0   4 1685.84 63.5145  -2
  -1   0   4 1685.84 63.5145   1
   1   0   4 1653.77 60.2371  -2
  -1   0   4 1653.77 60.2371   1
   1   0   4 1763.01 69.2968  -2
  -1   0   4 1763.01 69.2968   1
   0   0  -4 14.6317 5.77756  -2
   0   0  -4 14.6317 5.77756   1
   0   0  -4 5.10944 5.33353  -2
   0   0  -4 5.10944 5.33353   1
   0   0  -4 2.00587 5.93050  -2
   0   0  -4 2.00587 5.93050   1
   0   0  -4 -0.2560 7.73490  -2
   0   0  -4 -0.2560 7.73490   1
   0   0  -4 8.30707 7.73810  -2
   0   0  -4 8.30707 7.73810   1
   0   0   4 16.0521 8.97390  -2
   0   0   4 16.0521 8.97390   1
   0   0   4 2.35187 5.17870  -2
   0   0   4 2.35187 5.17870   1
   0   0   4 9.78898 6.70092  -2
   0   0   4 9.78898 6.70092   1
   0   0   4 3.30286 5.77882  -2
   0   0   4 3.30286 5.77882   1
   0   0   4 20.1590 8.94183  -2
   0   0   4 20.1590 8.94183   1
   1   0  -4 1763.65 68.8408  -2
  -1   0  -4 1763.65 68.8408   1
   1   0  -4 1781.89 71.8751  -2
  -1   0  -4 1781.89 71.8751   1
   1   0  -4 1791.65 61.1005  -2
  -1   0  -4 1791.65 61.1005   1
   1   0  -4 1737.39 64.2773  -2
  -1   0  -4 1737.39 64.2773   1
   1   0  -4 1643.98 60.8992  -2
  -1   0  -4 1643.98 60.8992   1
  -1   0   4 1788.90 72.4470  -2
   1   0   4 1788.90 72.4470   1
  -1   0   4 1712.23 60.8301  -2
   1   0   4 1712.23 60.8301   1
  -1   0   4 1739.34 68.8981  -2
   1   0   4 1739.34 68.8981   1
  -1   0   4 1820.52 61.6327  -2
   1   0   4 1820.52 61.6327   1
  -1   0   4 1736.85 64.0292  -2
   1   0   4 1736.85 64.0292   1
   2   0  -4 965.275 39.4744  -2
  -2   0  -4 965.275 39.4744   1
   2   0  -4 953.427 39.2746  -2
  -2   0  -4 953.427 39.2746   1
   2   0  -4 938.564 47.0353  -2
  -2   0  -4 938.564 47.0353   1
  -2   0   4 919.172 40.2881  -2
   2   0   4 919.172 40.2881   1
  -2   0   4 921.210 39.6173  -2
   2   0   4 921.210 39.6173   1
  -2   0   4 1021.48 48.0210  -2
   2   0   4 1021.48 48.0210   1
   3   0  -4 37.1130 12.6289  -2
  -3   0  -4 37.1130 12.6289   1
   3   0  -4 56.5436 12.4136  -2
  -3   0  -4 56.5436 12.4136   1
  -3   0   4 32.4974 12.9727  -2
   3   0   4 32.4974 12.9727   1
   4   0  -4 274.815 22.4507  -2
  -4   0  -4 274.815 22.4507   1
   4   0   4 235.185 18.5446   1
   4   0   4 246.081 19.2641   1
  -5   0  -4 17.4923 11.7758   1
  -5   0  -4 5.94827 6.45917   1
   5   0   4 21.1474 8.48807   1
   5   0   4 6.69344 6.66332   1
  -6   0  -4 23.0881 10.4416   1
  -6   0  -4 39.5913 16.9746   1
   6   0   4 14.3505 8.83317   1
   6   0   4 14.6778 8.42945   1
  -7   0  -4 237.002 25.5332   1
  -7   0  -4 208.319 32.1657   1
   8   0  -3 217.918 31.2130  -2
  -8   0  -4 217.918 31.2130   1
   8  -1   4 264.840 34.3349  -2
  -8   1   4 264.840 34.3349   1
   7  -1   4 29.9186 19.3574  -2
  -7   1   4 29.9186 19.3574   1
  -6   1  -4 915.964 45.8249  -2
   6  -1  -4 915.964 45.8249   1
   6  -1   4 887.666 52.3022  -2
  -6   1   4 887.666 52.3022   1
   6  -1   4 869.850 48.6764  -2
  -6   1   4 869.850 48.6764   1
  -5   1  -4 690.801 37.0249  -2
   5  -1  -4 690.801 37.0249   1
  -5   1  -4 845.057 46.7660  -2
   5  -1  -4 845.057 46.7660   1
   5  -1   4 705.939 40.0508  -2
  -5   1   4 705.939 40.0508   1
   5  -1   4 765.107 44.5182  -2
  -5   1   4 765.107 44.5182   1
  -4   1  -4 1189.57 54.4843  -2
   4  -1  -4 1189.57 54.4843   1
  -4   1  -4 1177.13 58.0442  -2
   4  -1  -4 1177.13 58.0442   1
  -4   1  -4 1298.51 58.1092  -2
   4  -1  -4 1298.51 58.1092   1
  -4   1  -4 1221.35 51.6891  -2
   4  -1  -4 1221.35 51.6891   1
   4  -1   4 1334.48 59.8297  -2
  -4   1   4 1334.48 59.8297   1
   4  -1   4 1306.86 55.0141  -2
  -4   1   4 1306.86 55.0141   1
   4  -1   4 1313.24 52.0650  -2
  -4   1   4 1313.24 52.0650   1
  -3   1  -4 12.2582 10.2243  -2
   3  -1  -4 12.2582 10.2243   1
  -3   1  -4 2.52100 7.65266  -2
   3  -1  -4 2.52100 7.65266   1
  -3   1  -4 18.1882 9.58141  -2
   3  -1  -4 18.1882 9.58141   1
  -3   1  -4 -3.2380 8.17195  -2
   3  -1  -4 -3.2380 8.17195   1
   3  -1   4 11.7941 9.16147  -2
  -3   1   4 11.7941 9.16147   1
   3  -1   4 -9.3340 6.99055  -2
  -3   1   4 -9.3340 6.99055   1
  -2   1  -4 2889.60 106.371  -2
   2  -1  -4 2889.60 106.371   1
  -2   1  -4 2895.10 97.8219  -2
   2  -1  -4 2895.10 97.8219   1
  -2   1  -4 2932.15 97.9821  -2
   2  -1  -4 2932.15 97.9821   1
   2  -1   4 2948.84 100.957  -2
  -2   1   4 2948.84 100.957   1
   2  -1   4 2927.15 98.0056  -2
  -2   1   4 2927.15 98.0056   1
  -1   1  -4 2369.79 80.6531  -2
   1  -1  -4 2369.79 80.6531   1
  -1   1  -4 2450.37 89.1603  -2
   1  -1  -4 2450.37 89.1603   1
  -1   1  -4 2304.36 83.2365  -2
   1  -1  -4 2304.36 83.2365   1
   1  -1   4 2376.58 84.1276  -2
  -1   1   4 2376.58 84.1276   1
   1  -1   4 2415.07 82.6885  -2
  -1   1   4 2415.07 82.6885   1
   1  -1   4 2412.10 81.4318  -2
  -1   1   4 2412.10 81.4318   1
   0   1  -4 4098.56 139.280  -2
   0  -1  -4 4098.56 139.280   1
   0   1  -4 4267.79 150.662  -2
   0  -1  -4 4267.79 150.662   1
   0  -1   4 4304.00 139.512  -2
   0   1   4 4304.00 139.512   1
   0  -1   4 4285.65 134.400  -2
   0   1   4 4285.65 134.400   1
   0  -1   4 4316.29 152.176  -2
   0   1   4 4316.29 152.176   1
   0  -1   4 4390.08 142.476  -2
   0   1   4 4390.08 142.476   1
  -1  -1  -4 4.28810 6.63660   1
  -1  -1  -4 -4.4635 5.30545   1
  -1  -1  -4 4.95852 4.46494   1
  -1  -1  -4 -3.6133 3.55545   1
  -1  -1  -4 0.97903 5.35794   1
   1   1   4 4.33348 5.93396   1
   1   1   4 2.74631 4.48162   1
   1   1   4 1.29034 6.40602   1
   1   1   4 2.78158 3.63997   1
   1   1   4 4.68095 4.45282   1
   2   1  -4 123.186 15.3418  -2
  -2  -1  -4 123.186 15.3418   1
   2   1   4 104.475 11.5566   1
   2   1   4 121.660 11.7204   1
  -3  -1  -4 100.178 13.2198   1
  -3  -1  -4 87.6115 11.5552   1
  -3  -1  -4 101.959 16.1216   1
  -3  -1  -4 108.186 11.6688   1
   3   1   4 89.8246 11.2724   1
   3   1   4 110.965 12.3905   1
  -4  -1  -4 0.43147 4.61153   1
  -4  -1  -4 -2.0021 7.44927   1
   4   1   4 1.38982 4.63365   1
   4   1   4 2.49246 4.90806   1
   5   1  -3 213.070 20.6021  -2
  -5  -1  -4 213.070 20.6021   1
   5   1   4 6.56354 6.05298   1
   5   1   4 13.9998 7.59778   1
   6   1  -3 147.527 21.5090  -2
  -6  -1  -4 147.527 21.5090   1
   6   1  -3 77.2039 26.4146  -2
  -6  -1  -4 77.2039 26.4146   1
  -6  -1   3 85.6911 18.5822  -2
   6   1   4 85.6911 18.5822   1
  -6  -1   3 108.038 17.8761  -2
   6   1   4 108.038 17.8761   1
   7   1  -3 15.6558 23.5027  -2
  -7  -1  -4 15.6558 23.5027   1
   7   1  -3 -15.444 16.3393  -2
  -7  -1  -4 -15.444 16.3393   1
  -7  -1   3 7.18612 16.0263  -2
   7   1   4 7.18612 16.0263   1
   8   1  -3 179.202 25.9265  -2
  -8  -1  -4 179.202 25.9265   1
   8  -2   4 175.707 26.1380  -2
  -8   2   4 175.707 26.1380   1
   7  -2   4 73.2012 19.2926  -2
  -7   2   4 73.2012 19.2926   1
   7  -2   4 84.0588 21.2337  -2
  -7   2   4 84.0588 21.2337   1
  -6   2  -4 277.332 25.6452  -2
   6  -2  -4 277.332 25.6452   1
   6  -2   4 263.986 27.3052  -2
  -6   2   4 263.986 27.3052   1
  -5   2  -4 1584.10 67.0202  -2
   5  -2  -4 1584.10 67.0202   1
   5  -2   4 1671.79 71.1206  -2
  -5   2   4 1671.79 71.1206   1
   4  -2  -4 301.040 23.1697   1
   4  -2  -4 313.696 21.6031   1
   4  -2  -4 343.076 23.9137   1
  -4   2   4 310.599 19.1260   1
  -4   2   4 302.232 24.3091   1
  -4   2   4 257.223 22.1146   1
   3  -2  -4 120.001 13.6164   1
   3  -2  -4 101.782 12.4432   1
   3  -2  -4 91.9123 11.8271   1
   3  -2  -4 92.0203 10.9641   1
  -3   2   4 121.442 13.7681   1
  -3   2   4 94.6111 13.4458   1
  -3   2   4 100.847 9.67493   1
   2  -2  -4 -3.3076 3.93681   1
   2  -2  -4 5.43612 4.83422   1
   2  -2  -4 2.77682 5.63959   1
   2  -2  -4 4.53906 4.42765   1
  -2   2   4 -0.4245 4.69611   1
  -2   2   4 -2.8286 2.88751   1
  -2   2   4 4.84529 5.51462   1
   1  -2  -4 307.472 19.5270   1
   1  -2  -4 278.927 17.7229   1
   1  -2  -4 283.768 16.4241   1
   1  -2  -4 292.403 18.9978   1
   1  -2  -4 275.945 13.5313   1
  -1   2   4 290.209 19.6249   1
  -1   2   4 291.403 19.1500   1
  -1   2   4 255.911 18.2593   1
  -1   2   4 286.453 15.0652   1
   0  -2  -4 1417.87 50.9573   1
   0  -2  -4 1295.44 48.4794   1
   0  -2  -4 1425.14 53.4366   1
   0  -2  -4 1391.78 56.5982   1
   0  -2  -4 1383.94 50.2137   1
   0  -2  -4 1333.69 50.3377   1
   0   2   4 1392.64 57.3911   1
   0   2   4 1415.87 50.6481   1
   0   2   4 1328.15 50.9301   1
   0   2   4 1353.16 50.6428   1
   1   2  -3 3168.90 101.951  -2
  -1  -2  -4 3168.90 101.951   1
   1   2  -3 3190.34 107.546  -2
  -1  -2  -4 3190.34 107.546   1
   1   2  -3 3048.59 101.713  -2
  -1  -2  -4 3048.59 101.713   1
  -1  -2   3 3231.86 102.676  -2
   1   2   4 3231.86 102.676   1
  -1  -2   3 3145.70 107.012  -2
   1   2   4 3145.70 107.012   1
   2   2  -3 32.0029 10.8267  -2
  -2  -2  -4 32.0029 10.8267   1
   2   2  -3 46.1506 10.3954  -2
  -2  -2  -4 46.1506 10.3954   1
  -2  -2   3 54.4809 10.9162  -2
   2   2   4 54.4809 10.9162   1
  -2  -2   3 33.4929 11.3945  -2
   2   2   4 33.4929 11.3945   1
   3   2  -3 2744.93 106.831  -2
  -3  -2  -4 2744.93 106.831   1
   3   2  -3 2653.58 92.9666  -2
  -3  -2  -4 2653.58 92.9666   1
   3   2  -3 2680.84 93.9422  -2
  -3  -2  -4 2680.84 93.9422   1
   3   2  -3 3055.72 98.6125  -2
  -3  -2  -4 3055.72 98.6125   1
  -3  -2   3 2697.21 93.6715  -2
   3   2   4 2697.21 93.6715   1
   4   2  -3 1226.72 52.2905  -2
  -4  -2  -4 1226.72 52.2905   1
   4   2  -3 1105.12 48.3841  -2
  -4  -2  -4 1105.12 48.3841   1
   4   2  -3 1274.29 62.6333  -2
  -4  -2  -4 1274.29 62.6333   1
  -4  -2   3 1169.63 49.6878  -2
   4   2   4 1169.63 49.6878   1
   5   2  -3 210.536 19.2976  -2
  -5  -2  -4 210.536 19.2976   1
   5   2  -3 276.673 29.8384  -2
  -5  -2  -4 276.673 29.8384   1
  -5  -2   3 263.738 21.6047  -2
   5   2   4 263.738 21.6047   1
   6   2  -3 82.9758 24.4297  -2
  -6  -2  -4 82.9758 24.4297   1
   6   2  -3 70.8890 15.4229  -2
  -6  -2  -4 70.8890 15.4229   1
  -6  -2   3 78.2729 16.0376  -2
   6   2   4 78.2729 16.0376   1
   7   2  -3 -7.1390 25.7519  -2
  -7  -2  -4 -7.1390 25.7519   1
   7   2  -3 23.7930 16.9937  -2
  -7  -2  -4 23.7930 16.9937   1
  -7  -2   3 13.7280 16.1532  -2
   7   2   4 13.7280 16.1532   1
   8   2  -3 48.6106 22.9489  -2
  -8  -2  -4 48.6106 22.9489   1
  -8   3   4 146.301 24.0974   1
   7  -3  -4 71.9560 17.0246   1
  -7   3   4 62.4284 16.6674   1
  -7   3   4 82.5192 18.3587   1
   6  -3  -4 265.541 24.2663   1
  -6   3   4 276.134 26.5324   1
  -6   3   4 282.951 27.2179   1
   5  -3  -4 135.250 18.7407   1
   5  -3  -4 112.621 18.2315   1
   5  -3  -4 115.074 15.9013   1
  -5   3   4 123.594 16.8073   1
  -5   3   4 149.905 18.8510   1
   4  -3  -4 569.852 30.8196   1
   4  -3  -4 551.059 34.0047   1
   4  -3  -4 540.168 32.2456   1
  -4   3   4 575.808 33.4600   1
  -4   3   4 558.714 26.1277   1
  -4   3   4 522.139 32.6181   1
   3  -3  -4 340.556 20.6253   1
   3  -3  -4 323.526 21.1787   1
   3  -3  -4 322.194 22.1011   1
   3  -3  -4 331.026 23.8986   1
  -3   3   4 347.211 23.2393   1
  -3   3   4 368.357 16.7582   1
  -3   3   4 358.949 23.0916   1
  -2   3  -3 122.352 14.6589  -2
   2  -3  -4 122.352 14.6589   1
   2  -3   3 128.769 15.1727  -2
  -2   3   4 128.769 15.1727   1
  -1   3  -3 1553.58 58.4730  -2
   1  -3  -4 1553.58 58.4730   1
  -1   3  -3 1573.89 59.0470  -2
   1  -3  -4 1573.89 59.0470   1
  -1   3  -3 1492.14 55.5678  -2
   1  -3  -4 1492.14 55.5678   1
  -1   3  -3 1659.49 59.3999  -2
   1  -3  -4 1659.49 59.3999   1
   1  -3   3 1477.37 60.5343  -2
  -1   3   4 1477.37 60.5343   1
   0   3  -3 48.4945 10.0753  -2
   0  -3  -4 48.4945 10.0753   1
   0   3  -3 53.9192 7.87892  -2
   0  -3  -4 53.9192 7.87892   1
   0   3  -3 52.3988 10.6660  -2
   0  -3  -4 52.3988 10.6660   1
   0   3  -3 45.0387 8.38502  -2
   0  -3  -4 45.0387 8.38502   1
   0   3  -3 56.6339 11.2292  -2
   0  -3  -4 56.6339 11.2292   1
   0  -3   3 61.8661 11.1706  -2
   0   3   4 61.8661 11.1706   1
   0  -3   3 42.2425 10.7070  -2
   0   3   4 42.2425 10.7070   1
   1   3  -3 833.471 36.7606  -2
  -1  -3  -4 833.471 36.7606   1
   1   3  -3 851.453 35.6420  -2
  -1  -3  -4 851.453 35.6420   1
   1   3  -3 854.889 36.2418  -2
  -1  -3  -4 854.889 36.2418   1
   1   3  -3 878.297 38.3673  -2
  -1  -3  -4 878.297 38.3673   1
   1   3  -3 922.481 41.9888  -2
  -1  -3  -4 922.481 41.9888   1
   1   3  -3 788.106 32.5761  -2
  -1  -3  -4 788.106 32.5761   1
  -1  -3   3 886.141 32.0196  -2
   1   3   4 886.141 32.0196   1
  -1  -3   3 870.600 36.5909  -2
   1   3   4 870.600 36.5909   1
  -1  -3   3 927.350 38.4596  -2
   1   3   4 927.350 38.4596   1
  -1  -3   3 819.835 36.1421  -2
   1   3   4 819.835 36.1421   1
   2   3  -3 92.0639 10.0790  -2
  -2  -3  -4 92.0639 10.0790   1
   2   3  -3 82.6447 11.2498  -2
  -2  -3  -4 82.6447 11.2498   1
   2   3  -3 80.4130 14.7520  -2
  -2  -3  -4 80.4130 14.7520   1
   2   3  -3 97.3290 12.6379  -2
  -2  -3  -4 97.3290 12.6379   1
   2   3  -3 81.0747 15.0723  -2
  -2  -3  -4 81.0747 15.0723   1
  -2  -3   3 81.9903 11.8497  -2
   2   3   4 81.9903 11.8497   1
  -2  -3   3 98.6822 8.95042  -2
   2   3   4 98.6822 8.95042   1
  -2  -3   3 81.0526 11.1014  -2
   2   3   4 81.0526 11.1014   1
   3   3  -3 324.704 20.4472  -2
  -3  -3  -4 324.704 20.4472   1
   3   3  -3 274.891 20.6340  -2
  -3  -3  -4 274.891 20.6340   1
   3   3  -3 352.093 22.9758  -2
  -3  -3  -4 352.093 22.9758   1
  -3  -3   3 333.802 17.5160  -2
   3   3   4 333.802 17.5160   1
  -3  -3   3 362.657 22.8169  -2
   3   3   4 362.657 22.8169   1
  -3  -3   3 340.909 23.5088  -2
   3   3   4 340.909 23.5088   1
   4   3  -3 350.549 23.3082  -2
  -4  -3  -4 350.549 23.3082   1
   4   3  -3 428.394 26.0127  -2
  -4  -3  -4 428.394 26.0127   1
  -4  -3   3 375.829 20.1034  -2
   4   3   4 375.829 20.1034   1
  -4  -3   3 373.025 25.5218  -2
   4   3   4 373.025 25.5218   1
  -4  -3   3 367.158 27.5142  -2
   4   3   4 367.158 27.5142   1
   5   3  -3 137.570 18.5582  -2
  -5  -3  -4 137.570 18.5582   1
  -5  -3   3 124.569 21.6519  -2
   5   3   4 124.569 21.6519   1
  -5  -3   3 130.360 19.2769  -2
   5   3   4 130.360 19.2769   1
  -6  -3  -4 22.9319 9.37572   1
   6   3   4 23.0134 9.13852   1
  -7  -3  -4 -4.2058 15.7989   1
  -7  -3  -4 8.11472 9.09927   1
   7   3   4 0.73999 7.84442   1
  -8  -3  -4 54.0378 15.8736   1
  -8   4   4 -0.4871 12.0810   1
  -7   4  -3 521.770 40.2548  -2
   7  -4  -4 521.770 40.2548   1
  -7   4   4 377.148 33.7189   1
  -6   4  -3 166.292 23.8787  -2
   6  -4  -4 166.292 23.8787   1
   6  -4   3 215.060 23.6692  -2
  -6   4   4 215.060 23.6692   1
  -5   4  -3 1034.83 51.3556  -2
   5  -4  -4 1034.83 51.3556   1
   5  -4   3 1191.79 55.1940  -2
  -5   4   4 1191.79 55.1940   1
   5  -4   3 961.567 50.8956  -2
  -5   4   4 961.567 50.8956   1
   5  -4   3 1080.78 48.8562  -2
  -5   4   4 1080.78 48.8562   1
  -4   4  -3 54.0363 12.4371  -2
   4  -4  -4 54.0363 12.4371   1
   4  -4   3 49.5934 8.91717  -2
  -4   4   4 49.5934 8.91717   1
   4  -4   3 65.2605 12.3776  -2
  -4   4   4 65.2605 12.3776   1
   4  -4   3 59.1843 13.1904  -2
  -4   4   4 59.1843 13.1904   1
  -3   4  -3 659.223 37.6035  -2
   3  -4  -4 659.223 37.6035   1
  -3   4  -3 631.720 32.6750  -2
   3  -4  -4 631.720 32.6750   1
   3  -4   3 698.556 33.7382  -2
  -3   4   4 698.556 33.7382   1
   3  -4   3 686.799 24.2262  -2
  -3   4   4 686.799 24.2262   1
   3  -4   3 677.051 33.8619  -2
  -3   4   4 677.051 33.8619   1
   3  -4   3 686.002 25.6800  -2
  -3   4   4 686.002 25.6800   1
  -2   4  -3 101.698 15.1497  -2
   2  -4  -4 101.698 15.1497   1
  -2   4  -3 129.715 14.3428  -2
   2  -4  -4 129.715 14.3428   1
  -2   4  -3 122.345 13.0348  -2
   2  -4  -4 122.345 13.0348   1
  -2   4  -3 121.419 11.7731  -2
   2  -4  -4 121.419 11.7731   1
   2  -4   3 101.956 12.5594  -2
  -2   4   4 101.956 12.5594   1
  -1   4  -3 1497.64 56.1377  -2
   1  -4  -4 1497.64 56.1377   1
  -1   4  -3 1455.28 57.9072  -2
   1  -4  -4 1455.28 57.9072   1
  -1   4  -3 1461.60 53.9865  -2
   1  -4  -4 1461.60 53.9865   1
  -1   4  -3 1510.09 57.4869  -2
   1  -4  -4 1510.09 57.4869   1
   1  -4   3 1440.43 53.0520  -2
  -1   4   4 1440.43 53.0520   1
   1  -4   3 1453.59 58.5754  -2
  -1   4   4 1453.59 58.5754   1
   0   4  -3 532.547 27.7113  -2
   0  -4  -4 532.547 27.7113   1
   0   4  -3 543.537 28.6225  -2
   0  -4  -4 543.537 28.6225   1
   0   4  -3 549.202 28.1335  -2
   0  -4  -4 549.202 28.1335   1
   0  -4   3 489.634 29.0221  -2
   0   4   4 489.634 29.0221   1
   0  -4   3 494.491 20.5805  -2
   0   4   4 494.491 20.5805   1
   0  -4   3 519.902 28.8848  -2
   0   4   4 519.902 28.8848   1
   1   4  -3 248.139 19.5649  -2
  -1  -4  -4 248.139 19.5649   1
   1   4  -3 236.867 19.4264  -2
  -1  -4  -4 236.867 19.4264   1
  -1  -4   3 264.270 20.6774  -2
   1   4   4 264.270 20.6774   1
   2   4  -3 39.2069 10.3100  -2
  -2  -4  -4 39.2069 10.3100   1
   2   4   4 8.26823 5.34492   1
   2   4   4 11.5179 7.09629   1
   2   4   4 7.32417 6.07142   1
  -3  -4  -4 549.012 26.1467   1
  -3  -4  -4 590.949 28.2113   1
  -3  -4  -4 558.136 27.8876   1
   3   4   4 554.080 35.8517   1
   3   4   4 579.136 28.7523   1
   3   4   4 568.113 32.3400   1
  -4  -4  -4 76.2414 11.8777   1
  -4  -4  -4 90.4146 11.7406   1
  -4  -4  -4 82.1885 11.2005   1
   4   4   4 74.7532 11.0507   1
   4   4   4 85.2330 14.4813   1
  -5  -4  -4 459.498 30.0984   1
  -5  -4  -4 371.102 24.8601   1
  -5  -4   2 830.226 47.5343  -2
   5   4   4 830.226 47.5343   1
   6   4  -2 415.221 29.9845  -2
  -6  -4  -4 415.221 29.9845   1
  -6  -4   2 444.700 31.4648  -2
   6   4   4 444.700 31.4648   1
   7   4  -2 473.114 35.5743  -2
  -7  -4  -4 473.114 35.5743   1
  -7  -4   2 537.582 36.5960  -2
   7   4   4 537.582 36.5960   1
   8   4  -2 194.618 26.7384  -2
  -8  -4  -4 194.618 26.7384   1
  -7   5  -3 229.761 25.8507  -2
   7  -5  -4 229.761 25.8507   1
   7  -5   3 199.621 25.0214  -2
  -7   5   4 199.621 25.0214   1
  -6   5  -3 1.24970 14.5423  -2
   6  -5  -4 1.24970 14.5423   1
   6  -5   3 16.4554 14.2278  -2
  -6   5   4 16.4554 14.2278   1
  -5   5  -3 78.2971 18.2049  -2
   5  -5  -4 78.2971 18.2049   1
   5  -5   3 102.153 15.5218  -2
  -5   5   4 102.153 15.5218   1
   5  -5   3 102.994 17.3224  -2
  -5   5   4 102.994 17.3224   1
  -4   5  -3 74.5489 15.8863  -2
   4  -5  -4 74.5489 15.8863   1
   4  -5   3 57.0260 9.30100  -2
  -4   5   4 57.0260 9.30100   1
   4  -5   3 69.1807 16.7991  -2
  -4   5   4 69.1807 16.7991   1
   3  -5  -4 3.25091 6.27120   1
   3  -5  -4 9.43302 5.42893   1
   3  -5  -4 -0.9288 5.28324   1
  -3   5   4 -3.0852 4.50807   1
   2  -5  -4 91.5934 11.0355   1
   2  -5  -4 78.7150 8.92286   1
   2  -5  -4 74.2698 11.9811   1
   2  -5  -4 77.6750 12.4806   1
  -2   5   4 94.4309 10.7657   1
  -2   5   4 86.9144 10.4365   1
   1  -5  -4 97.4890 10.0019   1
   1  -5  -4 99.3810 12.4363   1
   1  -5  -4 98.1285 8.94606   1
   1  -5  -4 86.6452 12.3705   1
  -1   5   4 85.3366 10.4397   1
   0  -5  -4 158.501 15.6504   1
   0  -5  -4 140.772 12.6413   1
   0  -5  -4 136.788 10.2633   1
   0  -5  -4 163.630 13.3117   1
   0  -5  -4 146.552 13.8415   1
   0  -5  -4 135.237 9.21251   1
   0  -5  -4 135.963 13.1809   1
   0   5   4 128.560 14.3242   1
  -1  -5  -4 108.554 12.7758   1
  -1  -5  -4 100.325 8.81088   1
  -1  -5  -4 97.4283 12.6686   1
  -1  -5  -4 108.626 13.2990   1
  -1  -5  -4 110.055 11.9285   1
  -1  -5  -4 108.126 10.6687   1
   1   5   4 98.2086 12.0620   1
   2   5  -2 1009.12 47.7706  -2
  -2  -5  -4 1009.12 47.7706   1
   2   5  -2 991.285 36.9702  -2
  -2  -5  -4 991.285 36.9702   1
   2   5  -2 1048.23 42.2632  -2
  -2  -5  -4 1048.23 42.2632   1
  -2  -5   2 962.392 42.1274  -2
   2   5   4 962.392 42.1274   1
   3   5  -2 24.8281 10.5643  -2
  -3  -5  -4 24.8281 10.5643   1
   3   5  -2 12.2545 8.29552  -2
  -3  -5  -4 12.2545 8.29552   1
  -3  -5   2 34.5655 11.0336  -2
   3   5   4 34.5655 11.0336   1
  -3  -5   2 1.46912 10.5401  -2
   3   5   4 1.46912 10.5401   1
  -3  -5   2 13.3286 14.9838  -2
   3   5   4 13.3286 14.9838   1
   4   5  -2 364.369 22.2987  -2
  -4  -5  -4 364.369 22.2987   1
   4   5  -2 405.612 24.3526  -2
  -4  -5  -4 405.612 24.3526   1
   4   5  -2 407.992 24.2149  -2
  -4  -5  -4 407.992 24.2149   1
  -4  -5   2 338.982 23.8037  -2
   4   5   4 338.982 23.8037   1
  -4  -5   2 354.452 28.3708  -2
   4   5   4 354.452 28.3708   1
   5   5  -2 462.851 27.7587  -2
  -5  -5  -4 462.851 27.7587   1
  -5  -5   2 499.223 29.6754  -2
   5   5   4 499.223 29.6754   1
   6   5  -2 437.019 28.3667  -2
  -6  -5  -4 437.019 28.3667   1
  -6  -5   2 407.830 27.7060  -2
   6   5   4 407.830 27.7060   1
   7   5  -2 277.727 25.7577  -2
  -7  -5  -4 277.727 25.7577   1
  -7  -5   2 267.485 25.6533  -2
   7   5   4 267.485 25.6533   1
   8   5  -2 95.4775 22.3929  -2
  -8  -5  -4 95.4775 22.3929   1
  -7   6  -3 490.242 40.7481  -2
   7  -6  -4 490.242 40.7481   1
   6  -6  -4 15.2049 10.3683   1
  -6   6   4 11.7276 8.99208   1
   5  -6  -4 39.8439 11.8367   1
  -5   6   4 37.6518 10.9818   1
   4  -6  -4 9.45886 7.80153   1
  -4   6   4 17.9426 7.71688   1
   3  -6  -4 570.074 35.4435   1
   3  -6  -4 543.466 31.6143   1
   3  -6  -4 543.744 29.9089   1
   3  -6   2 1020.68 43.6580  -2
  -3   6   4 1020.68 43.6580   1
  -2   6  -2 492.775 29.8623  -2
   2  -6  -4 492.775 29.8623   1
   2  -6   2 556.353 26.5515  -2
  -2   6   4 556.353 26.5515   1
  -1   6  -2 1473.81 56.5495  -2
   1  -6  -4 1473.81 56.5495   1
  -1   6  -2 1373.21 58.6054  -2
   1  -6  -4 1373.21 58.6054   1
   0   6  -2 185.215 13.1587  -2
   0  -6  -4 185.215 13.1587   1
   0   6  -2 195.099 17.7378  -2
   0  -6  -4 195.099 17.7378   1
   0   6  -2 210.328 15.9766  -2
   0  -6  -4 210.328 15.9766   1
   0   6  -2 197.894 12.4304  -2
   0  -6  -4 197.894 12.4304   1
   0   6  -2 168.989 12.5883  -2
   0  -6  -4 168.989 12.5883   1
   0   6  -2 211.279 18.2375  -2
   0  -6  -4 211.279 18.2375   1
   1   6  -2 578.649 34.0383  -2
  -1  -6  -4 578.649 34.0383   1
   1   6  -2 552.337 24.7123  -2
  -1  -6  -4 552.337 24.7123   1
   1   6  -2 524.878 22.3231  -2
  -1  -6  -4 524.878 22.3231   1
   1   6  -2 548.000 28.9483  -2
  -1  -6  -4 548.000 28.9483   1
   1   6  -2 519.986 31.6993  -2
  -1  -6  -4 519.986 31.6993   1
   1   6  -2 589.570 30.1578  -2
  -1  -6  -4 589.570 30.1578   1
  -1  -6   2 479.461 28.7034  -2
   1   6   4 479.461 28.7034   1
   2   6  -2 928.823 34.7502  -2
  -2  -6  -4 928.823 34.7502   1
   2   6  -2 918.463 45.4753  -2
  -2  -6  -4 918.463 45.4753   1
   2   6  -2 819.005 31.8653  -2
  -2  -6  -4 819.005 31.8653   1
   2   6  -2 829.091 37.4053  -2
  -2  -6  -4 829.091 37.4053   1
  -2  -6   2 831.359 38.7390  -2
   2   6   4 831.359 38.7390   1
   3   6  -2 104.932 16.1830  -2
  -3  -6  -4 104.932 16.1830   1
   3   6  -2 119.426 11.0670  -2
  -3  -6  -4 119.426 11.0670   1
   3   6  -2 110.766 12.2663  -2
  -3  -6  -4 110.766 12.2663   1
   3   6  -2 128.573 14.1627  -2
  -3  -6  -4 128.573 14.1627   1
  -3  -6   2 124.818 15.9691  -2
   3   6   4 124.818 15.9691   1
  -3  -6   2 124.328 14.5555  -2
   3   6   4 124.328 14.5555   1
   4   6  -2 337.183 21.0430  -2
  -4  -6  -4 337.183 21.0430   1
   4   6  -2 317.371 22.7251  -2
  -4  -6  -4 317.371 22.7251   1
   4   6  -2 391.493 23.4238  -2
  -4  -6  -4 391.493 23.4238   1
  -4  -6   2 370.397 30.3399  -2
   4   6   4 370.397 30.3399   1
  -4  -6   2 347.640 24.2261  -2
   4   6   4 347.640 24.2261   1
   5   6  -2 14.1047 12.5121  -2
  -5  -6  -4 14.1047 12.5121   1
  -5  -6   2 66.4487 16.4401  -2
   5   6   4 66.4487 16.4401   1
   6   6  -2 17.5507 15.2358  -2
  -6  -6  -4 17.5507 15.2358   1
  -6  -6   2 -2.9107 15.3742  -2
   6   6   4 -2.9107 15.3742   1
   7   6  -2 351.103 31.0138  -2
  -7  -6  -4 351.103 31.0138   1
  -8  -6  -4 106.651 20.9916   1
  -6   7  -2 356.620 33.7091  -2
   6  -7  -4 356.620 33.7091   1
  -5   7  -2 123.004 21.2207  -2
   5  -7  -4 123.004 21.2207   1
  -4   7  -2 469.836 31.7632  -2
   4  -7  -4 469.836 31.7632   1
   4  -7   2 483.531 26.6899  -2
  -4   7   4 483.531 26.6899   1
  -3   7  -2 76.1457 13.8602  -2
   3  -7  -4 76.1457 13.8602   1
   3  -7   2 77.3577 9.93451  -2
  -3   7   4 77.3577 9.93451   1
  -2   7  -2 280.156 19.1258  -2
   2  -7  -4 280.156 19.1258   1
  -2   7  -2 263.167 23.3867  -2
   2  -7  -4 263.167 23.3867   1
  -1   7  -2 93.4813 7.74420  -2
   1  -7  -4 93.4813 7.74420   1
  -1   7  -2 129.065 16.9322  -2
   1  -7  -4 129.065 16.9322   1
  -1   7  -2 77.6387 10.6209  -2
   1  -7  -4 77.6387 10.6209   1
  -1   7  -2 98.1627 13.4667  -2
   1  -7  -4 98.1627 13.4667   1
   0   7  -2 342.482 18.5737  -2
   0  -7  -4 342.482 18.5737   1
   0   7  -2 337.505 21.6880  -2
   0  -7  -4 337.505 21.6880   1
   0   7  -2 358.239 26.1292  -2
   0  -7  -4 358.239 26.1292   1
   0   7  -2 359.818 18.8801  -2
   0  -7  -4 359.818 18.8801   1
   0   7  -2 328.680 24.3915  -2
   0  -7  -4 328.680 24.3915   1
   0   7  -2 375.529 18.2358  -2
   0  -7  -4 375.529 18.2358   1
   1   7  -2 201.672 18.9046  -2
  -1  -7  -4 201.672 18.9046   1
   1   7  -2 202.979 14.6527  -2
  -1  -7  -4 202.979 14.6527   1
   1   7  -2 159.562 20.0805  -2
  -1  -7  -4 159.562 20.0805   1
   1   7  -2 154.752 10.8407  -2
  -1  -7  -4 154.752 10.8407   1
   1   7  -2 188.327 15.7138  -2
  -1  -7  -4 188.327 15.7138   1
   1   7  -2 175.885 16.5793  -2
  -1  -7  -4 175.885 16.5793   1
   2   7  -2 203.344 18.8327  -2
  -2  -7  -4 203.344 18.8327   1
   2   7  -2 233.063 24.3229  -2
  -2  -7  -4 233.063 24.3229   1
   2   7  -2 165.074 11.6222  -2
  -2  -7  -4 165.074 11.6222   1
  -2  -7   2 218.831 21.1756  -2
   2   7   4 218.831 21.1756   1
   3   7  -2 492.007 36.5447  -2
  -3  -7  -4 492.007 36.5447   1
   3   7  -2 470.498 22.9827  -2
  -3  -7  -4 470.498 22.9827   1
   3   7   4 414.034 24.6701   1
  -4  -7  -4 295.358 18.7344   1
  -4  -7  -4 319.902 19.9857   1
  -4  -7  -4 308.081 20.9398   1
   4   7   4 304.456 21.4118   1
  -5  -7  -4 217.089 17.8675   1
   5   7   4 205.762 18.8605   1
  -6  -7  -4 56.6820 13.2909   1
   7   7  -1 141.175 21.9595  -2
  -7  -7  -4 141.175 21.9595   1
  -6   8  -2 41.4540 16.3286  -2
   6  -8  -4 41.4540 16.3286   1
  -5   8  -2 840.489 48.2802  -2
   5  -8  -4 840.489 48.2802   1
  -4   8  -2 652.687 39.2387  -2
   4  -8  -4 652.687 39.2387   1
  -3   8  -2 227.359 21.7406  -2
   3  -8  -4 227.359 21.7406   1
   2  -8  -4 91.2011 16.0002   1
   2  -8  -4 83.5531 11.9716   1
   1  -8  -4 -3.3440 5.38053   1
   1  -8  -4 0.64398 4.55239   1
   1  -8  -4 -0.2690 4.25286   1
   1  -8  -4 1.00733 5.93438   1
   0  -8  -4 47.8496 10.9792   1
   0  -8  -4 67.5001 10.5459   1
   0  -8  -4 72.4377 15.5178   1
   0  -8  -4 68.8486 12.5505   1
   0  -8  -4 50.7975 7.91545   1
   0  -8  -4 52.6486 13.4674   1
  -1  -8  -4 190.166 17.0523   1
  -1  -8  -4 215.641 22.2060   1
  -1  -8  -4 187.626 17.6843   1
  -1  -8  -4 206.423 14.4131   1
  -1  -8  -4 200.290 21.8680   1
  -1  -8  -4 215.019 11.9720   1
  -1  -8  -4 244.958 17.0430   1
  -2  -8  -4 -3.5880 4.80889   1
  -2  -8  -4 -3.9445 7.02234   1
  -2  -8  -4 2.16343 5.39826   1
  -2  -8  -4 -3.7782 2.89675   1
  -2  -8  -4 -2.1344 8.42859   1
  -2  -8  -4 1.09036 3.66353   1
  -2  -8  -4 7.08907 8.85887   1
   2   8   4 3.98006 6.51018   1
   3   8  -1 54.3580 17.7014  -2
  -3  -8  -4 54.3580 17.7014   1
   3   8  -1 48.6695 13.7368  -2
  -3  -8  -4 48.6695 13.7368   1
   3   8  -1 60.6806 8.98069  -2
  -3  -8  -4 60.6806 8.98069   1
  -3  -8   1 45.0938 14.9527  -2
   3   8   4 45.0938 14.9527   1
   4   8  -1 321.759 19.6511  -2
  -4  -8  -4 321.759 19.6511   1
   4   8  -1 318.583 22.9712  -2
  -4  -8  -4 318.583 22.9712   1
  -4  -8   1 372.697 25.4661  -2
   4   8   4 372.697 25.4661   1
   5   8  -1 209.940 18.5465  -2
  -5  -8  -4 209.940 18.5465   1
   6   8  -1 31.7285 12.8067  -2
  -6  -8  -4 31.7285 12.8067   1
   7   8  -1 88.9512 16.1905  -2
  -7  -8  -4 88.9512 16.1905   1
   5  -9  -4 34.5542 12.9154   1
   4  -9  -4 -0.6600 7.18158   1
   3  -9  -4 114.344 15.6945   1
   2  -9  -4 265.010 19.9423   1
  -1   9  -1 309.082 27.8716  -2
   1  -9  -4 309.082 27.8716   1
   0   9  -1 620.663 29.0538  -2
   0  -9  -4 620.663 29.0538   1
   0   9  -1 814.212 46.5349  -2
   0  -9  -4 814.212 46.5349   1
   0   9  -1 763.823 40.0006  -2
   0  -9  -4 763.823 40.0006   1
   1   9  -1 479.210 28.5212  -2
  -1  -9  -4 479.210 28.5212   1
   1   9  -1 461.579 37.1991  -2
  -1  -9  -4 461.579 37.1991   1
   1   9  -1 503.420 30.2177  -2
  -1  -9  -4 503.420 30.2177   1
   1   9  -1 501.087 23.6460  -2
  -1  -9  -4 501.087 23.6460   1
   1   9  -1 393.688 19.3795  -2
  -1  -9  -4 393.688 19.3795   1
   1   9  -1 452.076 35.3622  -2
  -1  -9  -4 452.076 35.3622   1
   2   9  -1 220.341 12.0722  -2
  -2  -9  -4 220.341 12.0722   1
   2   9  -1 233.537 29.5696  -2
  -2  -9  -4 233.537 29.5696   1
   2   9  -1 231.976 26.0242  -2
  -2  -9  -4 231.976 26.0242   1
   2   9  -1 243.384 21.4942  -2
  -2  -9  -4 243.384 21.4942   1
   2   9  -1 231.518 14.0411  -2
  -2  -9  -4 231.518 14.0411   1
   2   9  -1 240.613 19.7555  -2
  -2  -9  -4 240.613 19.7555   1
   3   9  -1 78.5615 8.14597  -2
  -3  -9  -4 78.5615 8.14597   1
   3   9  -1 79.8760 21.0467  -2
  -3  -9  -4 79.8760 21.0467   1
   3   9  -1 78.0811 9.53199  -2
  -3  -9  -4 78.0811 9.53199   1
  -3  -9   1 78.7173 14.0016  -2
   3   9   4 78.7173 14.0016   1
   4   9  -1 270.556 17.0310  -2
  -4  -9  -4 270.556 17.0310   1
   5   9  -1 385.413 24.5147  -2
  -5  -9  -4 385.413 24.5147   1
   6   9  -1 164.830 20.4483  -2
  -6  -9  -4 164.830 20.4483   1
  -4  10  -1 48.8610 18.1660  -2
   4 -10  -4 48.8610 18.1660   1
  -3  10  -1 145.634 19.7221  -2
   3 -10  -4 145.634 19.7221   1
  -2  10  -1 34.9772 12.2082  -2
   2 -10  -4 34.9772 12.2082   1
  -1  10  -1 301.657 20.3555  -2
   1 -10  -4 301.657 20.3555   1
   0  10  -1 258.966 27.8563  -2
   0 -10  -4 258.966 27.8563   1
   0  10  -1 224.748 16.2846  -2
   0 -10  -4 224.748 16.2846   1
   0  10  -1 234.923 23.4532  -2
   0 -10  -4 234.923 23.4532   1
   1  10  -1 145.136 26.8293  -2
  -1 -10  -4 145.136 26.8293   1
   1  10  -1 173.610 12.1939  -2
  -1 -10  -4 173.610 12.1939   1
   2  10  -1 81.7883 26.6096  -2
  -2 -10  -4 81.7883 26.6096   1
   3  10  -1 35.9946 8.90158  -2
  -3 -10  -4 35.9946 8.90158   1
  -4 -10  -4 229.019 15.6482   1
  -5 -10  -4 61.5908 11.2590   1
  -3  11  -1 160.060 21.7402  -2
   3 -11  -4 160.060 21.7402   1
  -2  11  -1 305.441 25.4453  -2
   2 -11  -4 305.441 25.4453   1
  -1  11  -1 235.873 19.9936  -2
   1 -11  -4 235.873 19.9936   1
   0 -11  -4 -1.0050 12.1610   1
   0 -11  -4 7.10471 5.60395   1
  -1 -11  -4 21.9358 5.69615   1
  -1 -11  -4 16.7958 13.6808   1
  -2 -11  -4 38.0406 17.3867   1
  -2 -11  -4 42.7424 6.54599   1
  -3 -11  -4 2.84332 14.5993   1
   4  11   0 222.229 16.6223  -2
  -4 -11  -4 222.229 16.6223   1
  -1  12   0 60.3739 15.1064  -2
   1 -12  -4 60.3739 15.1064   1
   0  12   0 38.8790 11.4104  -2
   0 -12  -4 38.8790 11.4104   1
   1  12   0 230.914 15.3578  -2
  -1 -12  -4 230.914 15.3578   1
   2  12   0 880.649 63.8954  -2
  -2 -12  -4 880.649 63.8954   1
   2  12   0 760.205 30.5262  -2
  -2 -12  -4 760.205 30.5262   1
   3  10   8 79.5475 22.1616  -2
  -3 -10   5 79.5475 22.1616   1
   2  10   8 25.1885 19.0684  -2
  -2 -10   5 25.1885 19.0684   1
   1  10   8 118.163 21.1877  -2
  -1 -10   5 118.163 21.1877   1
   0  10   8 78.7235 19.4515  -2
   0 -10   5 78.7235 19.4515   1
  -1  10   8 279.354 27.3048  -2
   1 -10   5 279.354 27.3048   1
  -2  10   8 141.334 22.1817  -2
   2 -10   5 141.334 22.1817   1
   4   9   8 19.2781 21.2877  -2
  -4  -9   5 19.2781 21.2877   1
   4   9   8 24.5916 27.5229  -2
  -4  -9   5 24.5916 27.5229   1
   4   9   8 -7.4773 14.7165  -2
  -4  -9   5 -7.4773 14.7165   1
   3   9   8 288.939 39.3300  -2
  -3  -9   5 288.939 39.3300   1
   3   9   8 271.736 23.7936  -2
  -3  -9   5 271.736 23.7936   1
   3   9   8 239.528 29.0417  -2
  -3  -9   5 239.528 29.0417   1
   2   9   8 8.88306 17.2500  -2
  -2  -9   5 8.88306 17.2500   1
   2   9   8 -7.3360 14.2814  -2
  -2  -9   5 -7.3360 14.2814   1
   1   9   8 97.0926 24.5836  -2
  -1  -9   5 97.0926 24.5836   1
   1   9   8 113.619 20.1703  -2
  -1  -9   5 113.619 20.1703   1
   0   9   8 23.9923 18.7428  -2
   0  -9   5 23.9923 18.7428   1
  -1   9   8 516.490 37.7687  -2
   1  -9   5 516.490 37.7687   1
  -2   9   8 84.5326 24.6006  -2
   2  -9   5 84.5326 24.6006   1
   3  -9   5 140.595 22.5039   1
   4  -9   5 89.1492 20.9374   1
   5   8   8 208.542 25.1702  -2
  -5  -8   5 208.542 25.1702   1
   5   8   8 236.688 45.3183  -2
  -5  -8   5 236.688 45.3183   1
   5   8   8 221.662 34.2908  -2
  -5  -8   5 221.662 34.2908   1
   4   8   8 86.4730 20.3901  -2
  -4  -8   5 86.4730 20.3901   1
   4   8   8 47.8900 32.9758  -2
  -4  -8   5 47.8900 32.9758   1
   3   8   8 427.510 31.4226  -2
  -3  -8   5 427.510 31.4226   1
   2   8   8 77.5838 19.8571  -2
  -2  -8   5 77.5838 19.8571   1
   2   8   8 78.1709 18.5066  -2
  -2  -8   5 78.1709 18.5066   1
   1   8  -5 237.719 27.9108   1
   1   8   8 189.188 24.7409  -2
  -1  -8   5 189.188 24.7409   1
   0   8  -5 319.847 32.6173   1
   0  -8   5 340.858 31.3375   1
   0  -8   5 313.465 24.6280   1
   0  -8   5 310.022 25.5043   1
   1  -8  -7 97.8850 25.5351  -2
  -1   8  -5 97.8850 25.5351   1
  -1   8   7 88.3466 20.9387  -2
   1  -8   5 88.3466 20.9387   1
   2  -8  -7 387.535 38.6330  -2
  -2   8  -5 387.535 38.6330   1
  -2   8   7 365.448 32.0343  -2
   2  -8   5 365.448 32.0343   1
   3  -8  -7 50.9535 27.0490  -2
  -3   8  -5 50.9535 27.0490   1
  -3   8   7 93.3725 24.2598  -2
   3  -8   5 93.3725 24.2598   1
  -3   8   7 59.5611 18.5486  -2
   3  -8   5 59.5611 18.5486   1
  -4   8   7 483.229 40.1429  -2
   4  -8   5 483.229 40.1429   1
  -5   8   7 124.340 26.9318  -2
   5  -8   5 124.340 26.9318   1
  -6  -7   5 4.73523 10.0924   1
  -5  -7   5 548.172 53.2043   1
  -5  -7   5 551.922 47.1822   1
  -5  -7   5 544.723 36.3849   1
  -4  -7   5 11.4598 15.5157   1
  -4  -7   5 -6.6049 7.07804   1
  -4  -7   5 4.12592 12.2721   1
   3   7  -5 107.738 19.8989   1
   3   7   7 136.157 20.0988  -2
  -3  -7   5 136.157 20.0988   1
   2   7   7 610.298 34.9599  -2
  -2  -7   5 610.298 34.9599   1
   2   7   7 535.629 32.2025  -2
  -2  -7   5 535.629 32.2025   1
  -1  -7  -7 691.053 45.4924  -2
   1   7  -5 691.053 45.4924   1
   1   7   7 744.404 47.7914  -2
  -1  -7   5 744.404 47.7914   1
   1   7   7 722.535 37.3662  -2
  -1  -7   5 722.535 37.3662   1
   1   7   7 705.701 38.4521  -2
  -1  -7   5 705.701 38.4521   1
   1   7   7 638.391 27.6483  -2
  -1  -7   5 638.391 27.6483   1
   0  -7  -7 253.132 27.4862  -2
   0   7  -5 253.132 27.4862   1
   0   7   7 237.750 17.3093  -2
   0  -7   5 237.750 17.3093   1
   0   7   7 227.988 22.0674  -2
   0  -7   5 227.988 22.0674   1
   0   7   7 253.455 27.3420  -2
   0  -7   5 253.455 27.3420   1
   1  -7  -7 231.528 25.9536  -2
  -1   7  -5 231.528 25.9536   1
  -1   7   7 205.325 25.1270  -2
   1  -7   5 205.325 25.1270   1
  -1   7   7 211.964 18.4706  -2
   1  -7   5 211.964 18.4706   1
  -1   7   7 178.096 21.1618  -2
   1  -7   5 178.096 21.1618   1
   2  -7  -7 144.175 24.3353  -2
  -2   7  -5 144.175 24.3353   1
  -2   7   7 175.612 18.4491  -2
   2  -7   5 175.612 18.4491   1
  -2   7   7 180.744 21.0127  -2
   2  -7   5 180.744 21.0127   1
   3  -7  -7 221.572 30.9003  -2
  -3   7  -5 221.572 30.9003   1
  -3   7   7 214.302 23.9069  -2
   3  -7   5 214.302 23.9069   1
  -3   7   7 238.721 23.1396  -2
   3  -7   5 238.721 23.1396   1
   4  -7  -7 1148.72 71.6330  -2
  -4   7  -5 1148.72 71.6330   1
  -4   7   7 1106.40 59.4386  -2
   4  -7   5 1106.40 59.4386   1
  -5   7   7 170.069 29.8964  -2
   5  -7   5 170.069 29.8964   1
   6  -7   5 346.093 34.4450   1
   6   6   7 137.029 23.5590  -2
  -6  -6   5 137.029 23.5590   1
   5   6   7 175.928 36.9930  -2
  -5  -6   5 175.928 36.9930   1
   5   6   7 108.542 20.5830  -2
  -5  -6   5 108.542 20.5830   1
   4   6   7 288.835 25.3252  -2
  -4  -6   5 288.835 25.3252   1
   4   6   7 315.962 34.4355  -2
  -4  -6   5 315.962 34.4355   1
   4   6   7 325.465 40.7308  -2
  -4  -6   5 325.465 40.7308   1
   3   6   7 124.691 16.9822  -2
  -3  -6   5 124.691 16.9822   1
   3   6   7 109.585 21.0081  -2
  -3  -6   5 109.585 21.0081   1
  -2  -6  -7 922.551 52.0613  -2
   2   6  -5 922.551 52.0613   1
   2   6   7 1028.80 55.5935  -2
  -2  -6   5 1028.80 55.5935   1
   2   6   7 1044.90 45.8999  -2
  -2  -6   5 1044.90 45.8999   1
  -1  -6  -7 203.803 23.6426  -2
   1   6  -5 203.803 23.6426   1
   1   6   7 182.226 23.3319  -2
  -1  -6   5 182.226 23.3319   1
   1   6   7 184.013 12.9796  -2
  -1  -6   5 184.013 12.9796   1
   1   6   7 166.335 18.1939  -2
  -1  -6   5 166.335 18.1939   1
   1   6   7 184.097 16.1793  -2
  -1  -6   5 184.097 16.1793   1
   1   6   7 185.504 16.4555  -2
  -1  -6   5 185.504 16.4555   1
   0  -6  -7 388.286 32.4029  -2
   0   6  -5 388.286 32.4029   1
   0   6   7 456.765 35.0453  -2
   0  -6   5 456.765 35.0453   1
   0   6   7 392.145 25.2142  -2
   0  -6   5 392.145 25.2142   1
   0   6   7 415.822 28.0564  -2
   0  -6   5 415.822 28.0564   1
   0   6   7 399.383 22.3639  -2
   0  -6   5 399.383 22.3639   1
   1  -6  -7 53.9695 16.1610  -2
  -1   6  -5 53.9695 16.1610   1
   1  -6  -7 44.6705 19.9408  -2
  -1   6  -5 44.6705 19.9408   1
  -1   6   7 48.4536 18.9479  -2
   1  -6   5 48.4536 18.9479   1
  -1   6   7 63.9487 17.2047  -2
   1  -6   5 63.9487 17.2047   1
  -1   6   7 67.1101 13.2956  -2
   1  -6   5 67.1101 13.2956   1
   2  -6  -7 194.529 29.3271  -2
  -2   6  -5 194.529 29.3271   1
  -2   6   7 170.093 23.9259  -2
   2  -6   5 170.093 23.9259   1
   3  -6  -7 88.0954 29.4406  -2
  -3   6  -5 88.0954 29.4406   1
  -3   6   7 107.394 23.6786  -2
   3  -6   5 107.394 23.6786   1
  -4   6  -5 50.1240 20.2965   1
   4  -6   5 83.6877 16.2328   1
   4  -6   5 74.4131 17.7181   1
  -5   6  -5 136.480 30.3963   1
   5  -6   5 144.616 22.5057   1
   6  -6   5 385.419 34.9552   1
   7   5   7 698.758 45.6464  -2
  -7  -5   5 698.758 45.6464   1
  -6  -5  -7 551.167 41.8613  -2
   6   5  -5 551.167 41.8613   1
   6   5   7 630.997 39.9425  -2
  -6  -5   5 630.997 39.9425   1
   6   5   7 549.867 52.5716  -2
  -6  -5   5 549.867 52.5716   1
   6   5   7 752.685 52.2343  -2
  -6  -5   5 752.685 52.2343   1
  -5  -5  -7 206.532 20.7796  -2
   5   5  -5 206.532 20.7796   1
   5   5   7 232.024 29.3655  -2
  -5  -5   5 232.024 29.3655   1
   5   5   7 184.076 21.9561  -2
  -5  -5   5 184.076 21.9561   1
   5   5   7 186.705 31.7458  -2
  -5  -5   5 186.705 31.7458   1
   4   5   7 197.893 32.6477  -2
  -4  -5   5 197.893 32.6477   1
   4   5   7 216.147 22.5366  -2
  -4  -5   5 216.147 22.5366   1
  -3  -5  -7 556.260 21.9859  -2
   3   5  -5 556.260 21.9859   1
   3   5   7 567.437 33.9592  -2
  -3  -5   5 567.437 33.9592   1
  -2  -5  -7 828.242 30.6509  -2
   2   5  -5 828.242 30.6509   1
  -2  -5  -7 855.993 47.8946  -2
   2   5  -5 855.993 47.8946   1
   2   5   7 794.319 40.6790  -2
  -2  -5   5 794.319 40.6790   1
   2   5   7 855.161 38.0885  -2
  -2  -5   5 855.161 38.0885   1
   2   5   7 809.208 32.4743  -2
  -2  -5   5 809.208 32.4743   1
  -1  -5  -7 239.442 26.4335  -2
   1   5  -5 239.442 26.4335   1
   1   5   7 241.282 17.6519  -2
  -1  -5   5 241.282 17.6519   1
   1   5   7 255.596 19.9806  -2
  -1  -5   5 255.596 19.9806   1
   0   5  -5 768.248 41.0990   1
   0   5  -5 665.663 41.2864   1
   0  -5   5 691.758 29.9640   1
   0  -5   5 683.553 31.7702   1
   0  -5   5 692.631 42.7514   1
   0  -5   5 615.286 35.0218   1
   0  -5   5 706.540 32.9792   1
   0  -5   5 753.911 46.8098   1
  -1   5  -5 596.975 40.2936   1
  -1   5  -5 583.031 37.3358   1
   1  -5   5 676.354 41.2459   1
   1  -5   5 661.416 32.3291   1
   1  -5   5 600.771 43.2936   1
   1  -5   5 619.468 30.0308   1
   1  -5   5 583.284 34.4059   1
  -2   5  -5 3114.83 100.353   1
  -2   5  -5 2926.18 122.405   1
  -2   5  -5 2942.06 120.305   1
   2  -5   5 3108.21 105.203   1
   2  -5   5 2916.93 110.929   1
   2  -5   5 3169.84 126.976   1
   2  -5   5 3121.05 108.870   1
   3  -5  -6 796.558 54.2692  -2
  -3   5  -5 796.558 54.2692   1
  -3   5   6 761.475 43.9660  -2
   3  -5   5 761.475 43.9660   1
   4  -5  -6 214.333 33.9540  -2
  -4   5  -5 214.333 33.9540   1
  -4   5   6 253.229 25.8973  -2
   4  -5   5 253.229 25.8973   1
  -4   5   6 206.415 26.9689  -2
   4  -5   5 206.415 26.9689   1
   5  -5  -6 366.981 42.0214  -2
  -5   5  -5 366.981 42.0214   1
  -5   5   6 298.173 31.5460  -2
   5  -5   5 298.173 31.5460   1
  -6   5   6 198.373 28.1681  -2
   6  -5   5 198.373 28.1681   1
  -7   5   6 -1.4306 19.2160  -2
   7  -5   5 -1.4306 19.2160   1
   7   4   7 214.949 29.5998  -2
  -7  -4   5 214.949 29.5998   1
  -6  -4  -7 362.658 31.2005  -2
   6   4  -5 362.658 31.2005   1
   6   4   7 400.628 33.8583  -2
  -6  -4   5 400.628 33.8583   1
  -5  -4  -7 6.61434 15.0453  -2
   5   4  -5 6.61434 15.0453   1
   5   4   7 -2.8828 26.6950  -2
  -5  -4   5 -2.8828 26.6950   1
   4   4  -5 239.606 19.2991   1
   4   4  -5 257.061 15.3548   1
  -4  -4   5 242.507 22.2083   1
  -4  -4   5 227.096 28.1880   1
  -4  -4   5 284.059 28.3000   1
   3   4  -5 36.8183 8.64355   1
   3   4  -5 40.8023 13.3986   1
   3   4  -5 45.1201 6.63130   1
  -3  -4   5 42.0591 9.75068   1
  -3  -4   5 44.8394 13.5527   1
  -3  -4   5 56.5565 16.4222   1
  -3  -4   5 41.9681 13.4991   1
  -3  -4   5 51.3313 12.3020   1
   2   4  -5 349.949 27.0112   1
   2   4  -5 320.764 16.0860   1
  -2  -4   5 283.380 19.3517   1
  -2  -4   5 326.664 27.5672   1
  -2  -4   5 316.160 27.3165   1
  -2  -4   5 317.303 17.0539   1
  -2  -4   5 300.496 22.1619   1
  -1  -4  -6 158.523 13.1424  -2
   1   4  -5 158.523 13.1424   1
  -1  -4  -6 198.428 20.6427  -2
   1   4  -5 198.428 20.6427   1
  -1  -4  -6 176.042 21.7438  -2
   1   4  -5 176.042 21.7438   1
   1   4   6 229.166 21.1976  -2
  -1  -4   5 229.166 21.1976   1
   1   4   6 198.167 13.8654  -2
  -1  -4   5 198.167 13.8654   1
   1   4   6 168.386 17.0320  -2
  -1  -4   5 168.386 17.0320   1
   1   4   6 182.508 14.6707  -2
  -1  -4   5 182.508 14.6707   1
   1   4   6 142.109 24.6249  -2
  -1  -4   5 142.109 24.6249   1
   0  -4  -6 827.921 45.4518  -2
   0   4  -5 827.921 45.4518   1
   0  -4  -6 863.503 35.1725  -2
   0   4  -5 863.503 35.1725   1
   0  -4  -6 835.487 44.3161  -2
   0   4  -5 835.487 44.3161   1
   0  -4  -6 888.453 31.6756  -2
   0   4  -5 888.453 31.6756   1
   0   4   6 833.038 41.0269  -2
   0  -4   5 833.038 41.0269   1
   0   4   6 878.368 48.0650  -2
   0  -4   5 878.368 48.0650   1
   0   4   6 825.492 35.3880  -2
   0  -4   5 825.492 35.3880   1
   0   4   6 919.000 38.6595  -2
   0  -4   5 919.000 38.6595   1
   0   4   6 868.078 49.9856  -2
   0  -4   5 868.078 49.9856   1
   1  -4  -6 887.094 48.6529  -2
  -1   4  -5 887.094 48.6529   1
   1  -4  -6 928.031 35.6637  -2
  -1   4  -5 928.031 35.6637   1
   1  -4  -6 873.706 46.8686  -2
  -1   4  -5 873.706 46.8686   1
  -1   4   6 886.532 39.2499  -2
   1  -4   5 886.532 39.2499   1
  -1   4   6 885.706 49.4988  -2
   1  -4   5 885.706 49.4988   1
  -1   4   6 1046.12 42.2976  -2
   1  -4   5 1046.12 42.2976   1
  -1   4   6 902.114 52.5107  -2
   1  -4   5 902.114 52.5107   1
  -1   4   6 887.374 43.3359  -2
   1  -4   5 887.374 43.3359   1
   2  -4  -6 3037.77 124.808  -2
  -2   4  -5 3037.77 124.808   1
   2  -4  -6 3217.91 126.063  -2
  -2   4  -5 3217.91 126.063   1
  -2   4   6 3103.54 127.186  -2
   2  -4   5 3103.54 127.186   1
  -2   4   6 3130.72 114.933  -2
   2  -4   5 3130.72 114.933   1
  -2   4   6 3234.12 109.421  -2
   2  -4   5 3234.12 109.421   1
  -2   4   6 3501.71 113.525  -2
   2  -4   5 3501.71 113.525   1
   3  -4  -6 156.099 14.6402  -2
  -3   4  -5 156.099 14.6402   1
   3  -4  -6 196.607 25.7902  -2
  -3   4  -5 196.607 25.7902   1
  -3   4   6 192.475 18.5283  -2
   3  -4   5 192.475 18.5283   1
  -3   4   6 167.261 24.5026  -2
   3  -4   5 167.261 24.5026   1
  -3   4   6 161.402 19.0112  -2
   3  -4   5 161.402 19.0112   1
   4  -4  -6 46.2614 12.5542  -2
  -4   4  -5 46.2614 12.5542   1
   4  -4  -6 47.5227 21.2723  -2
  -4   4  -5 47.5227 21.2723   1
  -4   4   6 55.3685 16.6911  -2
   4  -4   5 55.3685 16.6911   1
  -4   4   6 81.1905 16.4625  -2
   4  -4   5 81.1905 16.4625   1
   5  -4  -6 415.323 42.5732  -2
  -5   4  -5 415.323 42.5732   1
  -5   4   6 346.516 31.1141  -2
   5  -4   5 346.516 31.1141   1
  -5   4   6 389.100 32.8498  -2
   5  -4   5 389.100 32.8498   1
  -6   4   6 42.1225 22.4674  -2
   6  -4   5 42.1225 22.4674   1
  -7   4   6 383.620 39.0932  -2
   7  -4   5 383.620 39.0932   1
  -8  -3   5 81.2844 22.4856   1
  -7  -3   5 20.0529 12.1832   1
  -7  -3   5 42.7122 18.8236   1
   6   3  -5 118.420 17.2287   1
   6   3  -5 96.8495 17.7812   1
  -6  -3   5 80.8600 20.3418   1
  -6  -3   5 87.4697 18.5525   1
  -5  -3  -6 328.186 26.2822  -2
   5   3  -5 328.186 26.2822   1
  -5  -3   5 268.817 29.2730   1
  -5  -3   5 323.593 26.5991   1
  -4  -3  -6 3499.88 115.079  -2
   4   3  -5 3499.88 115.079   1
  -4  -3  -6 3392.79 114.004  -2
   4   3  -5 3392.79 114.004   1
  -4  -3  -6 3432.10 125.401  -2
   4   3  -5 3432.10 125.401   1
   4   3   6 3517.68 144.734  -2
  -4  -3   5 3517.68 144.734   1
   4   3   6 3753.20 123.370  -2
  -4  -3   5 3753.20 123.370   1
   4   3   6 3634.65 134.511  -2
  -4  -3   5 3634.65 134.511   1
   4   3   6 3667.28 126.851  -2
  -4  -3   5 3667.28 126.851   1
  -3  -3  -6 531.964 25.1912  -2
   3   3  -5 531.964 25.1912   1
  -3  -3  -6 526.396 26.0611  -2
   3   3  -5 526.396 26.0611   1
  -3  -3  -6 489.799 23.0267  -2
   3   3  -5 489.799 23.0267   1
   3   3   6 559.482 35.5603  -2
  -3  -3   5 559.482 35.5603   1
   3   3   6 541.000 30.9117  -2
  -3  -3   5 541.000 30.9117   1
   3   3   6 540.641 37.9419  -2
  -3  -3   5 540.641 37.9419   1
   3   3   6 533.180 28.2550  -2
  -3  -3   5 533.180 28.2550   1
  -2  -3  -6 2722.45 105.303  -2
   2   3  -5 2722.45 105.303   1
  -2  -3  -6 2596.85 87.3999  -2
   2   3  -5 2596.85 87.3999   1
  -2  -3  -6 2610.51 99.9044  -2
   2   3  -5 2610.51 99.9044   1
  -2  -3  -6 2691.85 86.3104  -2
   2   3  -5 2691.85 86.3104   1
   2   3   6 2754.31 88.5946  -2
  -2  -3   5 2754.31 88.5946   1
   2   3   6 2623.95 107.046  -2
  -2  -3   5 2623.95 107.046   1
   2   3   6 2747.61 104.247  -2
  -2  -3   5 2747.61 104.247   1
   2   3   6 2646.14 95.7476  -2
  -2  -3   5 2646.14 95.7476   1
   2   3   6 2758.61 92.6893  -2
  -2  -3   5 2758.61 92.6893   1
  -1  -3  -6 1343.34 60.1115  -2
   1   3  -5 1343.34 60.1115   1
  -1  -3  -6 1478.13 63.0984  -2
   1   3  -5 1478.13 63.0984   1
  -1  -3  -6 1466.19 50.4993  -2
   1   3  -5 1466.19 50.4993   1
  -1  -3  -6 1403.10 50.0085  -2
   1   3  -5 1403.10 50.0085   1
   1   3   6 1468.81 54.0181  -2
  -1  -3   5 1468.81 54.0181   1
   1   3   6 1455.76 51.3169  -2
  -1  -3   5 1455.76 51.3169   1
   1   3   6 1347.87 56.5774  -2
  -1  -3   5 1347.87 56.5774   1
   1   3   6 1441.70 64.2709  -2
  -1  -3   5 1441.70 64.2709   1
   1   3   6 1347.28 64.0549  -2
  -1  -3   5 1347.28 64.0549   1
   0  -3  -6 527.518 34.2130  -2
   0   3  -5 527.518 34.2130   1
   0  -3  -6 580.606 26.9788  -2
   0   3  -5 580.606 26.9788   1
   0  -3  -6 594.516 34.8369  -2
   0   3  -5 594.516 34.8369   1
   0   3   6 588.773 37.0294  -2
   0  -3   5 588.773 37.0294   1
   0   3   6 570.393 31.5414  -2
   0  -3   5 570.393 31.5414   1
   0   3   6 650.542 29.8147  -2
   0  -3   5 650.542 29.8147   1
   0   3   6 583.631 27.4247  -2
   0  -3   5 583.631 27.4247   1
   0   3   6 578.812 37.8483  -2
   0  -3   5 578.812 37.8483   1
   1  -3  -6 45.5836 14.2101  -2
  -1   3  -5 45.5836 14.2101   1
   1  -3  -6 87.1785 18.5478  -2
  -1   3  -5 87.1785 18.5478   1
   1  -3  -6 49.5962 10.3579  -2
  -1   3  -5 49.5962 10.3579   1
  -1   3   6 31.8495 13.1825  -2
   1  -3   5 31.8495 13.1825   1
  -1   3   6 54.1680 14.7818  -2
   1  -3   5 54.1680 14.7818   1
  -1   3   6 45.1357 16.9828  -2
   1  -3   5 45.1357 16.9828   1
  -1   3   6 66.6020 12.5613  -2
   1  -3   5 66.6020 12.5613   1
  -1   3   6 41.7073 10.7282  -2
   1  -3   5 41.7073 10.7282   1
   2  -3  -6 101.533 12.9186  -2
  -2   3  -5 101.533 12.9186   1
   2  -3  -6 81.6802 22.3919  -2
  -2   3  -5 81.6802 22.3919   1
   2  -3  -6 101.290 19.9886  -2
  -2   3  -5 101.290 19.9886   1
  -2   3   6 118.398 21.0107  -2
   2  -3   5 118.398 21.0107   1
  -2   3   6 130.819 19.0107  -2
   2  -3   5 130.819 19.0107   1
  -2   3   6 93.0910 20.3482  -2
   2  -3   5 93.0910 20.3482   1
  -2   3   6 116.785 15.9353  -2
   2  -3   5 116.785 15.9353   1
   3  -3  -6 197.873 29.1840  -2
  -3   3  -5 197.873 29.1840   1
   3  -3  -6 165.228 17.7273  -2
  -3   3  -5 165.228 17.7273   1
  -3   3   6 161.539 22.4811  -2
   3  -3   5 161.539 22.4811   1
  -3   3   6 153.708 26.3250  -2
   3  -3   5 153.708 26.3250   1
  -4   3  -5 59.9652 17.8037   1
  -4   3  -5 63.4374 12.7523   1
  -4   3   6 153.561 24.0442  -2
   4  -3   5 153.561 24.0442   1
  -5   3  -5 270.269 31.7051   1
  -5   3  -5 258.785 23.1982   1
   5  -3   5 256.581 24.4603   1
   5  -3   5 279.011 25.3118   1
  -6   3  -5 9.67272 15.4159   1
   6  -3   5 13.6853 9.91468   1
  -7   3   5 925.209 55.9838  -2
   7  -3   5 925.209 55.9838   1
   8   2   6 536.518 44.8690  -2
  -8  -2   5 536.518 44.8690   1
   7   2   6 -8.6552 16.9911  -2
  -7  -2   5 -8.6552 16.9911   1
   7   2   6 22.1340 18.7313  -2
  -7  -2   5 22.1340 18.7313   1
  -6  -2  -6 595.942 35.9163  -2
   6   2  -5 595.942 35.9163   1
   6   2   6 530.431 37.3517  -2
  -6  -2   5 530.431 37.3517   1
   6   2   6 542.695 42.8969  -2
  -6  -2   5 542.695 42.8969   1
  -5  -2  -6 244.331 20.5977  -2
   5   2  -5 244.331 20.5977   1
   5   2   6 241.654 29.6377  -2
  -5  -2   5 241.654 29.6377   1
   5   2   6 237.872 23.0678  -2
  -5  -2   5 237.872 23.0678   1
   5   2   6 220.370 25.4862  -2
  -5  -2   5 220.370 25.4862   1
  -4  -2  -6 1122.53 47.6998  -2
   4   2  -5 1122.53 47.6998   1
   4   2   6 1123.89 52.5950  -2
  -4  -2   5 1123.89 52.5950   1
   4   2   6 1165.69 62.3982  -2
  -4  -2   5 1165.69 62.3982   1
   4   2   6 1198.90 61.2518  -2
  -4  -2   5 1198.90 61.2518   1
   4   2   6 1219.71 56.5885  -2
  -4  -2   5 1219.71 56.5885   1
  -3  -2  -6 219.694 15.3464  -2
   3   2  -5 219.694 15.3464   1
  -3  -2  -6 213.268 17.3065  -2
   3   2  -5 213.268 17.3065   1
   3   2   6 228.651 21.3466  -2
  -3  -2   5 228.651 21.3466   1
   3   2   6 243.766 19.0913  -2
  -3  -2   5 243.766 19.0913   1
   3   2   6 237.115 22.5063  -2
  -3  -2   5 237.115 22.5063   1
   3   2   6 269.554 25.7899  -2
  -3  -2   5 269.554 25.7899   1
  -2  -2  -6 585.470 33.4005  -2
   2   2  -5 585.470 33.4005   1
  -2  -2  -6 642.506 29.2227  -2
   2   2  -5 642.506 29.2227   1
  -2  -2  -6 590.808 24.1047  -2
   2   2  -5 590.808 24.1047   1
  -2  -2  -6 632.869 36.6588  -2
   2   2  -5 632.869 36.6588   1
   2   2   6 638.355 36.9255  -2
  -2  -2   5 638.355 36.9255   1
   2   2   6 582.560 30.0397  -2
  -2  -2   5 582.560 30.0397   1
   2   2   6 654.816 34.3270  -2
  -2  -2   5 654.816 34.3270   1
   2   2   6 621.299 30.7914  -2
  -2  -2   5 621.299 30.7914   1
  -1  -2  -6 587.027 34.7478  -2
   1   2  -5 587.027 34.7478   1
  -1  -2  -6 577.324 33.0362  -2
   1   2  -5 577.324 33.0362   1
  -1  -2  -6 589.882 27.4490  -2
   1   2  -5 589.882 27.4490   1
   1   2   6 549.756 32.3096  -2
  -1  -2   5 549.756 32.3096   1
   1   2   6 536.899 27.5226  -2
  -1  -2   5 536.899 27.5226   1
   0  -2  -6 528.701 26.6091  -2
   0   2  -5 528.701 26.6091   1
   0  -2   5 125.918 17.1532   1
   0  -2   5 117.700 11.5511   1
   0  -2   5 152.189 15.8406   1
   0  -2   5 153.973 18.5871   1
   0  -2   5 127.029 12.6196   1
  -1   2  -5 156.871 19.2099   1
  -1   2  -5 182.190 14.5359   1
  -1   2  -5 172.460 13.8810   1
  -1   2  -5 176.872 18.9153   1
   1  -2   5 173.082 17.2365   1
   1  -2   5 182.976 15.0600   1
   1  -2   5 176.843 20.5600   1
   1  -2   5 146.908 13.4035   1
   1  -2   5 157.681 19.2729   1
  -2   2  -5 7.09226 5.55395   1
  -2   2  -5 14.6940 10.6630   1
  -2   2  -5 8.17163 8.00766   1
  -2   2  -5 1.87599 4.92958   1
   2  -2   5 21.2204 9.65853   1
   2  -2   5 5.44827 5.12805   1
  -3   2  -5 1297.16 66.7063   1
  -3   2  -5 1379.16 54.9155   1
  -3   2  -5 1276.68 66.0782   1
   3  -2   5 1303.86 56.7981   1
   3  -2   5 1416.87 66.9004   1
   3  -2   5 1393.67 55.7331   1
   4  -2  -5 30.7157 14.5130  -2
  -4   2  -5 30.7157 14.5130   1
  -4   2   5 54.5880 17.8275  -2
   4  -2   5 54.5880 17.8275   1
  -4   2   5 44.6624 21.4755  -2
   4  -2   5 44.6624 21.4755   1
   5  -2  -5 3289.44 140.200  -2
  -5   2  -5 3289.44 140.200   1
   5  -2  -5 3413.55 122.634  -2
  -5   2  -5 3413.55 122.634   1
  -5   2   5 3496.13 123.864  -2
   5  -2   5 3496.13 123.864   1
  -5   2   5 3407.39 124.808  -2
   5  -2   5 3407.39 124.808   1
   6  -2  -5 24.8737 24.3419  -2
  -6   2  -5 24.8737 24.3419   1
   6  -2  -5 58.2820 17.4133  -2
  -6   2  -5 58.2820 17.4133   1
  -6   2   5 44.4966 18.9624  -2
   6  -2   5 44.4966 18.9624   1
   8   1   6 598.167 46.6215  -2
  -8  -1   5 598.167 46.6215   1
   7   1   6 193.282 28.6665  -2
  -7  -1   5 193.282 28.6665   1
  -6  -1  -6 869.689 48.2902  -2
   6   1  -5 869.689 48.2902   1
   6   1   6 911.585 51.6546  -2
  -6  -1   5 911.585 51.6546   1
   5   1  -5 44.2592 10.0845   1
   5   1  -5 48.2986 11.8741   1
  -5  -1   5 58.9187 15.3546   1
  -5  -1   5 73.2725 15.5512   1
  -5  -1   5 59.5492 14.1931   1
   4   1  -5 63.8085 11.5169   1
   4   1  -5 72.1109 10.6056   1
  -4  -1   5 78.7190 16.5442   1
  -4  -1   5 67.8756 13.2234   1
  -4  -1   5 49.0876 12.9364   1
  -4  -1   5 79.1404 15.5000   1
   3   1  -5 22.1230 6.67767   1
   3   1  -5 20.8107 9.19970   1
   3   1  -5 25.2660 7.79462   1
  -3  -1   5 17.7696 9.52484   1
  -3  -1   5 37.2180 11.4713   1
  -3  -1   5 17.2450 8.49026   1
  -3  -1   5 27.6832 8.93674   1
   2   1  -5 6.69774 4.60163   1
   2   1  -5 13.7047 7.21482   1
   2   1  -5 14.1637 7.74761   1
   2   1  -5 9.72513 5.37874   1
  -2  -1   5 5.56895 4.93737   1
  -2  -1   5 3.03867 6.65047   1
  -2  -1   5 4.82093 4.56645   1
  -2  -1   5 12.0973 7.04581   1
  -2  -1   5 9.77931 6.66943   1
  -1  -1  -5 2090.48 72.8999  -2
   1   1  -5 2090.48 72.8999   1
  -1  -1   5 1180.71 56.5372   1
  -1  -1   5 1239.92 51.9790   1
  -1  -1   5 1271.97 54.7730   1
  -1  -1   5 1249.28 47.6160   1
  -1  -1   5 1247.11 46.9250   1
   0  -1  -5 242.071 17.0141  -2
   0   1  -5 242.071 17.0141   1
   0  -1  -5 210.127 20.3208  -2
   0   1  -5 210.127 20.3208   1
   0  -1  -5 220.300 16.6308  -2
   0   1  -5 220.300 16.6308   1
   0  -1  -5 252.483 22.0677  -2
   0   1  -5 252.483 22.0677   1
   0   1   5 221.833 20.3973  -2
   0  -1   5 221.833 20.3973   1
   0   1   5 243.539 22.3581  -2
   0  -1   5 243.539 22.3581   1
   0   1   5 241.696 18.0950  -2
   0  -1   5 241.696 18.0950   1
   0   1   5 250.377 23.9536  -2
   0  -1   5 250.377 23.9536   1
   1  -1  -5 3369.22 122.696  -2
  -1   1  -5 3369.22 122.696   1
   1  -1  -5 3382.97 108.988  -2
  -1   1  -5 3382.97 108.988   1
   1  -1  -5 3453.16 111.762  -2
  -1   1  -5 3453.16 111.762   1
  -1   1   5 3289.11 109.022  -2
   1  -1   5 3289.11 109.022   1
  -1   1   5 3303.45 122.413  -2
   1  -1   5 3303.45 122.413   1
  -1   1   5 3281.69 115.204  -2
   1  -1   5 3281.69 115.204   1
  -1   1   5 3357.38 128.347  -2
   1  -1   5 3357.38 128.347   1
   2  -1  -5 182.503 16.6817  -2
  -2   1  -5 182.503 16.6817   1
   2  -1  -5 206.517 24.3043  -2
  -2   1  -5 206.517 24.3043   1
   2  -1  -5 203.269 17.0446  -2
  -2   1  -5 203.269 17.0446   1
  -2   1   5 187.853 21.7373  -2
   2  -1   5 187.853 21.7373   1
  -2   1   5 187.831 17.3530  -2
   2  -1   5 187.831 17.3530   1
  -2   1   5 187.948 19.4159  -2
   2  -1   5 187.948 19.4159   1
   3  -1  -5 2073.25 90.0307  -2
  -3   1  -5 2073.25 90.0307   1
   3  -1  -5 2349.36 95.8363  -2
  -3   1  -5 2349.36 95.8363   1
   3  -1  -5 2081.08 77.6501  -2
  -3   1  -5 2081.08 77.6501   1
  -3   1   5 2149.06 78.9520  -2
   3  -1   5 2149.06 78.9520   1
  -3   1   5 2174.11 91.0693  -2
   3  -1   5 2174.11 91.0693   1
  -3   1   5 1941.93 78.8240  -2
   3  -1   5 1941.93 78.8240   1
   4  -1  -5 68.8483 16.9361  -2
  -4   1  -5 68.8483 16.9361   1
   4  -1  -5 58.7034 11.6077  -2
  -4   1  -5 58.7034 11.6077   1
  -4   1   5 66.2641 13.7699  -2
   4  -1   5 66.2641 13.7699   1
  -4   1   5 82.5698 13.2205  -2
   4  -1   5 82.5698 13.2205   1
   5  -1  -5 2468.41 106.865  -2
  -5   1  -5 2468.41 106.865   1
   5  -1  -5 2347.72 88.9850  -2
  -5   1  -5 2347.72 88.9850   1
  -5   1   5 2163.52 87.8395  -2
   5  -1   5 2163.52 87.8395   1
  -5   1   5 2181.91 88.1533  -2
   5  -1   5 2181.91 88.1533   1
   6  -1  -5 96.7299 20.3234  -2
  -6   1  -5 96.7299 20.3234   1
   6  -1  -5 114.542 27.6372  -2
  -6   1  -5 114.542 27.6372   1
  -6   1   5 108.899 20.1804  -2
   6  -1   5 108.899 20.1804   1
  -6   1   5 107.203 20.7069  -2
   6  -1   5 107.203 20.7069   1
   7  -1  -5 82.7076 22.4444  -2
  -7   1  -5 82.7076 22.4444   1
  -8   0   5 106.914 24.1332   1
  -7   0   5 19.2587 12.9334   1
  -7   0   5 4.29346 9.74422   1
   6   0  -5 -2.4097 7.75312   1
  -6   0   5 26.6373 11.2427   1
  -6   0   5 3.73185 8.38925   1
  -6   0   5 15.3889 11.8918   1
   5   0  -5 93.8654 13.2426   1
   5   0  -5 145.118 17.2345   1
  -5   0   5 93.6731 15.4674   1
  -5   0   5 109.259 17.8667   1
  -5   0   5 91.9314 17.2129   1
   4   0  -5 87.0005 13.8615   1
   4   0  -5 87.5262 11.7670   1
  -4   0   5 73.2715 14.4854   1
  -4   0   5 87.2368 15.1462   1
  -4   0   5 69.6055 12.1141   1
  -3   0  -5 1057.77 44.0956  -2
   3   0  -5 1057.77 44.0956   1
   3   0   5 1006.48 47.9888  -2
  -3   0   5 1006.48 47.9888   1
  -2   0  -5 317.539 24.5629  -2
   2   0  -5 317.539 24.5629   1
  -2   0  -5 329.089 21.0858  -2
   2   0  -5 329.089 21.0858   1
  -2   0  -5 340.253 21.3853  -2
   2   0  -5 340.253 21.3853   1
  -2   0  -5 319.674 20.6283  -2
   2   0  -5 319.674 20.6283   1
   2   0   5 349.558 22.8938  -2
  -2   0   5 349.558 22.8938   1
   2   0   5 320.931 24.0145  -2
  -2   0   5 320.931 24.0145   1
   2   0   5 354.873 23.4435  -2
  -2   0   5 354.873 23.4435   1
  -1   0  -5 7449.21 239.290  -2
   1   0  -5 7449.21 239.290   1
  -1   0  -5 7729.74 255.010  -2
   1   0  -5 7729.74 255.010   1
  -1   0  -5 7379.24 233.129  -2
   1   0  -5 7379.24 233.129   1
  -1   0  -5 7588.98 227.024  -2
   1   0  -5 7588.98 227.024   1
   1   0   5 7469.43 256.203  -2
  -1   0   5 7469.43 256.203   1
   1   0   5 7318.06 237.376  -2
  -1   0   5 7318.06 237.376   1
   1   0   5 7276.20 227.528  -2
  -1   0   5 7276.20 227.528   1
   1   0   5 7517.85 242.014  -2
  -1   0   5 7517.85 242.014   1
   0   0  -5 43.0559 10.7257  -2
   0   0  -5 43.0559 10.7257   1
   0   0  -5 35.3659 10.4277  -2
   0   0  -5 35.3659 10.4277   1
   0   0  -5 49.1626 9.08105  -2
   0   0  -5 49.1626 9.08105   1
   0   0  -5 42.5296 8.70045  -2
   0   0  -5 42.5296 8.70045   1
   0   0   5 33.4293 9.13175  -2
   0   0   5 33.4293 9.13175   1
   0   0   5 32.9457 10.6421  -2
   0   0   5 32.9457 10.6421   1
   0   0   5 26.6649 7.88632  -2
   0   0   5 26.6649 7.88632   1
   0   0   5 35.8026 11.6032  -2
   0   0   5 35.8026 11.6032   1
   1   0  -5 7558.98 225.870  -2
  -1   0  -5 7558.98 225.870   1
   1   0  -5 7478.26 256.578  -2
  -1   0  -5 7478.26 256.578   1
   1   0  -5 7576.48 245.287  -2
  -1   0  -5 7576.48 245.287   1
   1   0  -5 7094.76 231.713  -2
  -1   0  -5 7094.76 231.713   1
  -1   0   5 7496.19 226.355  -2
   1   0   5 7496.19 226.355   1
  -1   0   5 7746.14 245.827  -2
   1   0   5 7746.14 245.827   1
  -1   0   5 7582.07 236.122  -2
   1   0   5 7582.07 236.122   1
  -1   0   5 7542.79 239.034  -2
   1   0   5 7542.79 239.034   1
  -1   0   5 6607.90 255.306  -2
   1   0   5 6607.90 255.306   1
   2   0  -5 281.756 20.4772  -2
  -2   0  -5 281.756 20.4772   1
   2   0  -5 293.223 26.6158  -2
  -2   0  -5 293.223 26.6158   1
   2   0  -5 272.041 19.9529  -2
  -2   0  -5 272.041 19.9529   1
  -2   0   5 289.381 21.2400  -2
   2   0   5 289.381 21.2400   1
  -2   0   5 283.059 26.3629  -2
   2   0   5 283.059 26.3629   1
  -2   0   5 276.605 21.6633  -2
   2   0   5 276.605 21.6633   1
   3   0  -5 959.139 44.0641  -2
  -3   0  -5 959.139 44.0641   1
   3   0  -5 991.088 44.1477  -2
  -3   0  -5 991.088 44.1477   1
   3   0  -5 967.104 54.8339  -2
  -3   0  -5 967.104 54.8339   1
  -3   0   5 993.797 45.5886  -2
   3   0   5 993.797 45.5886   1
  -3   0   5 976.349 45.1389  -2
   3   0   5 976.349 45.1389   1
  -3   0   5 1091.33 55.2600  -2
   3   0   5 1091.33 55.2600   1
   4   0  -5 124.446 18.3437  -2
  -4   0  -5 124.446 18.3437   1
  -4   0   5 134.489 19.8925  -2
   4   0   5 134.489 19.8925   1
  -5   0  -5 44.7459 12.9947   1
  -5   0  -5 37.6465 15.4210   1
  -5   0   5 151.776 21.7922  -2
   5   0   5 151.776 21.7922   1
  -6   0  -5 9.70278 9.40299   1
  -6   0  -5 36.9145 15.6914   1
   6   0   5 42.9164 11.4883   1
   6   0   5 23.3078 10.8212   1
  -7   0  -5 16.3286 10.6338   1
   8   0  -4 512.575 43.6640  -2
  -8   0  -5 512.575 43.6640   1
   8  -1   5 86.3251 27.5814  -2
  -8   1   5 86.3251 27.5814   1
   7  -1   5 68.3142 23.2061  -2
  -7   1   5 68.3142 23.2061   1
  -6   1  -5 78.1838 16.7902  -2
   6  -1  -5 78.1838 16.7902   1
   6  -1   5 93.3876 20.4219  -2
  -6   1   5 93.3876 20.4219   1
   6  -1   5 71.6994 19.9401  -2
  -6   1   5 71.6994 19.9401   1
   6  -1   5 91.8513 17.7315  -2
  -6   1   5 91.8513 17.7315   1
  -5   1  -5 2304.80 89.9816  -2
   5  -1  -5 2304.80 89.9816   1
  -5   1  -5 2392.41 94.4884  -2
   5  -1  -5 2392.41 94.4884   1
  -5   1  -5 2478.08 101.609  -2
   5  -1  -5 2478.08 101.609   1
   5  -1   5 2416.87 95.4100  -2
  -5   1   5 2416.87 95.4100   1
   5  -1   5 2517.91 103.790  -2
  -5   1   5 2517.91 103.790   1
   5  -1   5 2427.06 91.5188  -2
  -5   1   5 2427.06 91.5188   1
  -4   1  -5 78.2132 13.3921  -2
   4  -1  -5 78.2132 13.3921   1
  -4   1  -5 88.1669 12.5357  -2
   4  -1  -5 88.1669 12.5357   1
   4  -1   5 63.8270 13.7386  -2
  -4   1   5 63.8270 13.7386   1
   4  -1   5 85.5561 11.7416  -2
  -4   1   5 85.5561 11.7416   1
   4  -1   5 65.6243 13.6121  -2
  -4   1   5 65.6243 13.6121   1
  -3   1  -5 2229.43 82.0980  -2
   3  -1  -5 2229.43 82.0980   1
  -3   1  -5 2354.63 84.4209  -2
   3  -1  -5 2354.63 84.4209   1
  -3   1  -5 2301.97 90.8922  -2
   3  -1  -5 2301.97 90.8922   1
   3  -1   5 2225.80 85.9596  -2
  -3   1   5 2225.80 85.9596   1
   3  -1   5 2291.73 92.3486  -2
  -3   1   5 2291.73 92.3486   1
   3  -1   5 2342.63 82.5856  -2
  -3   1   5 2342.63 82.5856   1
  -2   1  -5 168.226 15.8258  -2
   2  -1  -5 168.226 15.8258   1
  -2   1  -5 177.037 13.6856  -2
   2  -1  -5 177.037 13.6856   1
  -2   1  -5 165.455 17.6430  -2
   2  -1  -5 165.455 17.6430   1
  -2   1  -5 168.749 17.1137  -2
   2  -1  -5 168.749 17.1137   1
   2  -1   5 173.066 18.6795  -2
  -2   1   5 173.066 18.6795   1
   2  -1   5 169.208 14.5326  -2
  -2   1   5 169.208 14.5326   1
   2  -1   5 153.375 15.0153  -2
  -2   1   5 153.375 15.0153   1
  -1   1  -5 3470.49 113.368  -2
   1  -1  -5 3470.49 113.368   1
  -1   1  -5 3465.48 111.427  -2
   1  -1  -5 3465.48 111.427   1
  -1   1  -5 3360.76 111.964  -2
   1  -1  -5 3360.76 111.964   1
  -1   1  -5 3407.51 123.276  -2
   1  -1  -5 3407.51 123.276   1
   1  -1   5 3127.63 115.012  -2
  -1   1   5 3127.63 115.012   1
   1  -1   5 3330.86 111.797  -2
  -1   1   5 3330.86 111.797   1
   1  -1   5 3335.30 115.657  -2
  -1   1   5 3335.30 115.657   1
   0   1  -5 288.114 23.2952  -2
   0  -1  -5 288.114 23.2952   1
   0   1  -5 234.901 18.0793  -2
   0  -1  -5 234.901 18.0793   1
   0   1  -5 263.974 21.3453  -2
   0  -1  -5 263.974 21.3453   1
   0   1  -5 245.916 13.1731  -2
   0  -1  -5 245.916 13.1731   1
   0  -1   5 269.253 19.6772  -2
   0   1   5 269.253 19.6772   1
   0  -1   5 262.400 21.7383  -2
   0   1   5 262.400 21.7383   1
   0  -1   5 237.410 22.7866  -2
   0   1   5 237.410 22.7866   1
   0  -1   5 257.120 21.5512  -2
   0   1   5 257.120 21.5512   1
  -1  -1  -5 920.586 41.3329   1
  -1  -1  -5 912.685 43.0772   1
  -1  -1  -5 872.682 37.3499   1
  -1  -1  -5 931.057 46.4350   1
  -1  -1   5 2036.11 75.4647  -2
   1   1   5 2036.11 75.4647   1
  -2  -1  -5 0.53906 4.85915   1
  -2  -1  -5 1.47840 4.59959   1
  -2  -1  -5 -4.9161 5.73005   1
  -2  -1  -5 -0.6740 5.24874   1
  -2  -1  -5 -3.1725 4.93394   1
   2   1   5 3.18382 5.38545   1
   2   1   5 -1.4191 4.41404   1
   2   1   5 8.04282 5.74192   1
   2   1   5 3.54436 7.07867   1
  -3  -1  -5 2.31567 4.62685   1
  -3  -1  -5 4.68166 8.48849   1
  -3  -1  -5 -2.7038 6.55209   1
  -3  -1  -5 1.08018 5.39117   1
   3   1   5 1.83571 5.39869   1
   3   1   5 1.06845 5.20402   1
  -4  -1  -5 1298.64 54.2284   1
  -4  -1  -5 1159.51 62.7108   1
  -4  -1  -5 1347.62 54.5425   1
   4   1   5 1261.04 52.2606   1
   4   1   5 1248.55 53.5518   1
   5   1  -4 154.342 20.7495  -2
  -5  -1  -5 154.342 20.7495   1
  -5  -1   4 203.046 20.7892  -2
   5   1   5 203.046 20.7892   1
   6   1  -4 1337.05 62.4215  -2
  -6  -1  -5 1337.05 62.4215   1
   6   1  -4 1334.85 78.7529  -2
  -6  -1  -5 1334.85 78.7529   1
  -6  -1   4 1417.60 64.2974  -2
   6   1   5 1417.60 64.2974   1
   7   1  -4 92.4904 21.5623  -2
  -7  -1  -5 92.4904 21.5623   1
   8   1  -4 1423.87 70.6788  -2
  -8  -1  -5 1423.87 70.6788   1
   7  -2   5 592.193 46.0583  -2
  -7   2   5 592.193 46.0583   1
   7  -2   5 636.601 45.0654  -2
  -7   2   5 636.601 45.0654   1
  -6   2  -5 55.3354 17.1023  -2
   6  -2  -5 55.3354 17.1023   1
   6  -2   5 36.7138 19.4359  -2
  -6   2   5 36.7138 19.4359   1
   6  -2   5 45.0576 13.7622  -2
  -6   2   5 45.0576 13.7622   1
  -5   2  -5 3655.80 129.129  -2
   5  -2  -5 3655.80 129.129   1
   5  -2   5 3563.97 132.972  -2
  -5   2   5 3563.97 132.972   1
   4  -2  -5 -4.3112 5.17289   1
   4  -2  -5 15.6024 6.97021   1
   4  -2  -5 5.05172 6.07085   1
   4  -2  -5 9.27321 7.84673   1
  -4   2   5 -10.181 4.49197   1
  -4   2   5 -1.6529 4.64044   1
  -4   2   5 7.13388 6.99252   1
   3  -2  -5 1136.12 48.6770   1
   3  -2  -5 1207.11 53.6456   1
   3  -2  -5 1211.58 51.5198   1
  -3   2   5 1167.36 45.5056   1
  -3   2   5 1153.47 54.3180   1
  -3   2   5 1118.20 51.5873   1
   2  -2  -5 387.208 18.7554   1
   2  -2  -5 429.115 23.1533   1
   2  -2  -5 433.603 25.3822   1
   2  -2  -5 415.074 25.5272   1
  -2   2   5 382.710 26.0203   1
  -2   2   5 385.750 20.5432   1
  -2   2   5 411.597 26.0490   1
  -2   2   5 429.450 26.3453   1
   1  -2  -5 498.941 23.1132   1
   1  -2  -5 521.450 25.5657   1
   1  -2  -5 509.390 28.9799   1
   1  -2  -5 527.774 27.1204   1
   1  -2  -5 544.914 29.1870   1
  -1   2   5 455.082 29.4410   1
  -1   2   5 484.003 27.3737   1
  -1   2   5 534.031 24.9559   1
  -1   2   5 489.239 28.0135   1
   0  -2  -5 85.1556 10.2863   1
   0  -2  -5 108.463 13.7993   1
   0  -2  -5 84.8634 11.4850   1
   0  -2  -5 99.8748 12.1567   1
   0  -2  -5 112.525 13.9090   1
   0  -2  -5 86.5577 8.79083   1
   0  -2   4 113.467 17.3132  -2
   0   2   5 113.467 17.3132   1
   0  -2   4 117.750 16.6387  -2
   0   2   5 117.750 16.6387   1
   1   2  -4 500.638 25.3561  -2
  -1  -2  -5 500.638 25.3561   1
   1   2  -4 535.172 27.5757  -2
  -1  -2  -5 535.172 27.5757   1
  -1  -2   4 474.859 27.4768  -2
   1   2   5 474.859 27.4768   1
  -1  -2   4 548.076 27.2528  -2
   1   2   5 548.076 27.2528   1
   2   2  -4 1477.42 55.9218  -2
  -2  -2  -5 1477.42 55.9218   1
   2   2  -4 1370.29 53.9770  -2
  -2  -2  -5 1370.29 53.9770   1
  -2  -2   4 1516.25 54.8356  -2
   2   2   5 1516.25 54.8356   1
  -2  -2   4 1362.17 55.7107  -2
   2   2   5 1362.17 55.7107   1
  -2  -2   4 1440.82 56.1360  -2
   2   2   5 1440.82 56.1360   1
   3   2  -4 855.213 47.6821  -2
  -3  -2  -5 855.213 47.6821   1
   3   2  -4 791.095 36.4221  -2
  -3  -2  -5 791.095 36.4221   1
   3   2  -4 764.899 36.9588  -2
  -3  -2  -5 764.899 36.9588   1
   3   2  -4 834.857 40.5691  -2
  -3  -2  -5 834.857 40.5691   1
  -3  -2   4 721.355 36.9431  -2
   3   2   5 721.355 36.9431   1
  -3  -2   4 760.201 37.5172  -2
   3   2   5 760.201 37.5172   1
  -3  -2   4 807.691 35.6622  -2
   3   2   5 807.691 35.6622   1
   4   2  -4 1511.57 72.4534  -2
  -4  -2  -5 1511.57 72.4534   1
   4   2  -4 1377.08 57.6577  -2
  -4  -2  -5 1377.08 57.6577   1
   4   2  -4 1429.27 58.2988  -2
  -4  -2  -5 1429.27 58.2988   1
  -4  -2   4 1391.89 58.7616  -2
   4   2   5 1391.89 58.7616   1
  -4  -2   4 1434.49 55.9259  -2
   4   2   5 1434.49 55.9259   1
   5   2  -4 377.048 35.7600  -2
  -5  -2  -5 377.048 35.7600   1
   5   2  -4 356.524 25.3165  -2
  -5  -2  -5 356.524 25.3165   1
  -5  -2   4 345.174 22.8772  -2
   5   2   5 345.174 22.8772   1
  -5  -2   4 354.749 26.4662  -2
   5   2   5 354.749 26.4662   1
   6   2  -4 50.7431 22.0366  -2
  -6  -2  -5 50.7431 22.0366   1
   6   2  -4 49.8936 15.4344  -2
  -6  -2  -5 49.8936 15.4344   1
  -6  -2   4 60.5981 17.1722  -2
   6   2   5 60.5981 17.1722   1
   7   2  -4 170.685 24.8414  -2
  -7  -2  -5 170.685 24.8414   1
   8   2  -4 85.9684 26.2206  -2
  -8  -2  -5 85.9684 26.2206   1
  -8   3   5 67.8458 22.3889   1
   7  -3  -5 519.086 40.6066   1
  -7   3   5 561.776 43.0317   1
   6  -3  -5 26.3747 11.1315   1
  -6   3   5 15.5087 11.3292   1
  -6   3   5 40.0165 14.7835   1
   5  -3  -5 360.733 27.5635   1
   5  -3  -5 330.876 26.0206   1
  -5   3   5 372.759 29.9971   1
  -5   3   5 313.544 28.0839   1
  -5   3   5 369.793 22.3820   1
   4  -3  -5 9.95178 6.32344   1
   4  -3  -5 -0.3478 5.07923   1
   4  -3  -5 1.23060 5.47992   1
   4  -3  -5 1.72259 7.40171   1
  -4   3   5 7.10069 7.24169   1
  -4   3   5 -0.6163 6.51391   1
  -4   3   5 -3.6394 3.86409   1
   3  -3  -5 8.17768 5.66568   1
   3  -3  -5 7.37426 4.81068   1
   3  -3  -5 2.04011 5.18015   1
   3  -3  -5 8.33171 6.75028   1
   3  -3   4 3.62229 14.2842  -2
  -3   3   5 3.62229 14.2842   1
  -2   3  -4 2704.10 98.8257  -2
   2  -3  -5 2704.10 98.8257   1
   2  -3   4 2595.82 94.9166  -2
  -2   3   5 2595.82 94.9166   1
   2  -3   4 2674.87 87.4453  -2
  -2   3   5 2674.87 87.4453   1
  -1   3  -4 512.391 20.3638  -2
   1  -3  -5 512.391 20.3638   1
  -1   3  -4 577.377 30.0202  -2
   1  -3  -5 577.377 30.0202   1
  -1   3  -4 549.720 28.6335  -2
   1  -3  -5 549.720 28.6335   1
  -1   3  -4 461.734 27.7931  -2
   1  -3  -5 461.734 27.7931   1
  -1   3  -4 490.623 25.9800  -2
   1  -3  -5 490.623 25.9800   1
   1  -3   4 521.936 30.7413  -2
  -1   3   5 521.936 30.7413   1
   1  -3   4 467.884 26.7003  -2
  -1   3   5 467.884 26.7003   1
   1  -3   4 565.068 22.7881  -2
  -1   3   5 565.068 22.7881   1
   1  -3   4 497.824 29.7420  -2
  -1   3   5 497.824 29.7420   1
   0   3  -4 1452.03 59.8438  -2
   0  -3  -5 1452.03 59.8438   1
   0   3  -4 1395.94 52.8428  -2
   0  -3  -5 1395.94 52.8428   1
   0   3  -4 1368.40 51.9737  -2
   0  -3  -5 1368.40 51.9737   1
   0   3  -4 1347.25 54.5251  -2
   0  -3  -5 1347.25 54.5251   1
   0   3  -4 1475.38 57.0692  -2
   0  -3  -5 1475.38 57.0692   1
   0  -3   4 1470.67 50.4358  -2
   0   3   5 1470.67 50.4358   1
   0  -3   4 1338.39 55.2466  -2
   0   3   5 1338.39 55.2466   1
   0  -3   4 1368.97 60.7051  -2
   0   3   5 1368.97 60.7051   1
   1   3  -4 126.158 12.3917  -2
  -1  -3  -5 126.158 12.3917   1
   1   3  -4 144.426 14.4799  -2
  -1  -3  -5 144.426 14.4799   1
   1   3  -4 101.308 11.0230  -2
  -1  -3  -5 101.308 11.0230   1
   1   3  -4 149.211 14.2578  -2
  -1  -3  -5 149.211 14.2578   1
   1   3  -4 169.119 15.5402  -2
  -1  -3  -5 169.119 15.5402   1
   1   3  -4 143.690 16.0952  -2
  -1  -3  -5 143.690 16.0952   1
  -1  -3   4 169.294 14.0622  -2
   1   3   5 169.294 14.0622   1
  -1  -3   4 135.971 14.1173  -2
   1   3   5 135.971 14.1173   1
   2   3  -4 4494.75 157.669  -2
  -2  -3  -5 4494.75 157.669   1
   2   3  -4 4784.05 167.903  -2
  -2  -3  -5 4784.05 167.903   1
   2   3  -4 4897.60 151.404  -2
  -2  -3  -5 4897.60 151.404   1
   2   3  -4 4218.59 145.171  -2
  -2  -3  -5 4218.59 145.171   1
   2   3  -4 4518.19 144.927  -2
  -2  -3  -5 4518.19 144.927   1
  -2  -3   4 4317.32 154.082  -2
   2   3   5 4317.32 154.082   1
  -2  -3   4 4409.26 145.161  -2
   2   3   5 4409.26 145.161   1
   3   3  -4 1336.52 54.8829  -2
  -3  -3  -5 1336.52 54.8829   1
   3   3  -4 1568.99 60.8363  -2
  -3  -3  -5 1568.99 60.8363   1
   3   3  -4 1369.74 67.0083  -2
  -3  -3  -5 1369.74 67.0083   1
   3   3  -4 1425.54 57.1590  -2
  -3  -3  -5 1425.54 57.1590   1
  -3  -3   4 1334.53 57.1824  -2
   3   3   5 1334.53 57.1824   1
  -3  -3   4 1433.55 59.8194  -2
   3   3   5 1433.55 59.8194   1
  -3  -3   4 1449.28 52.9788  -2
   3   3   5 1449.28 52.9788   1
   4   3  -4 2552.77 93.8975  -2
  -4  -3  -5 2552.77 93.8975   1
   4   3  -4 2418.30 89.8938  -2
  -4  -3  -5 2418.30 89.8938   1
   4   3  -4 2473.58 89.6223  -2
  -4  -3  -5 2473.58 89.6223   1
  -4  -3   4 2492.40 90.1337  -2
   4   3   5 2492.40 90.1337   1
  -4  -3   4 2402.25 96.9306  -2
   4   3   5 2402.25 96.9306   1
  -4  -3   4 2536.32 85.3034  -2
   4   3   5 2536.32 85.3034   1
   5   3  -4 539.665 34.3664  -2
  -5  -3  -5 539.665 34.3664   1
  -5  -3   4 587.411 36.4105  -2
   5   3   5 587.411 36.4105   1
  -5  -3   4 594.763 39.0630  -2
   5   3   5 594.763 39.0630   1
  -6  -3  -5 34.0146 16.0020   1
  -6  -3  -5 30.8648 10.5899   1
   6   3   5 19.2745 9.77838   1
  -7  -3  -5 -7.2323 7.42081   1
   7   3   5 2.15988 7.96959   1
  -8  -3  -5 103.397 21.2076   1
  -7   4  -4 334.899 34.4405  -2
   7  -4  -5 334.899 34.4405   1
  -7   4   5 277.807 30.6107   1
  -6   4  -4 26.7770 17.8526  -2
   6  -4  -5 26.7770 17.8526   1
  -6   4   5 17.0005 10.5560   1
  -5   4  -4 313.306 27.4005  -2
   5  -4  -5 313.306 27.4005   1
   5  -4   4 333.279 23.4726  -2
  -5   4   5 333.279 23.4726   1
   5  -4   4 324.209 28.0134  -2
  -5   4   5 324.209 28.0134   1
   5  -4   4 300.161 28.1674  -2
  -5   4   5 300.161 28.1674   1
   5  -4   4 354.289 20.1597  -2
  -5   4   5 354.289 20.1597   1
  -4   4  -4 47.4337 15.4922  -2
   4  -4  -5 47.4337 15.4922   1
  -4   4  -4 57.0669 13.3896  -2
   4  -4  -5 57.0669 13.3896   1
   4  -4   4 59.9436 7.61282  -2
  -4   4   5 59.9436 7.61282   1
   4  -4   4 63.6373 14.6714  -2
  -4   4   5 63.6373 14.6714   1
   4  -4   4 78.4849 14.2907  -2
  -4   4   5 78.4849 14.2907   1
   4  -4   4 81.9100 9.68299  -2
  -4   4   5 81.9100 9.68299   1
  -3   4  -4 346.999 22.4660  -2
   3  -4  -5 346.999 22.4660   1
  -3   4  -4 330.963 17.8928  -2
   3  -4  -5 330.963 17.8928   1
  -3   4  -4 255.896 23.4131  -2
   3  -4  -5 255.896 23.4131   1
  -3   4  -4 278.203 21.3981  -2
   3  -4  -5 278.203 21.3981   1
   3  -4   4 324.922 23.4030  -2
  -3   4   5 324.922 23.4030   1
   3  -4   4 335.781 23.2127  -2
  -3   4   5 335.781 23.2127   1
  -2   4  -4 2451.30 100.218  -2
   2  -4  -5 2451.30 100.218   1
  -2   4  -4 2965.33 104.673  -2
   2  -4  -5 2965.33 104.673   1
  -2   4  -4 3051.41 100.569  -2
   2  -4  -5 3051.41 100.569   1
  -2   4  -4 3211.40 104.901  -2
   2  -4  -5 3211.40 104.901   1
   2  -4   4 2763.97 100.578  -2
  -2   4   5 2763.97 100.578   1
   2  -4   4 2816.79 106.653  -2
  -2   4   5 2816.79 106.653   1
  -1   4  -4 2079.91 76.5166  -2
   1  -4  -5 2079.91 76.5166   1
  -1   4  -4 1898.81 71.4714  -2
   1  -4  -5 1898.81 71.4714   1
  -1   4  -4 2024.83 75.7876  -2
   1  -4  -5 2024.83 75.7876   1
  -1   4  -4 2031.18 75.9197  -2
   1  -4  -5 2031.18 75.9197   1
   1  -4   4 1935.45 78.6964  -2
  -1   4   5 1935.45 78.6964   1
   0   4  -4 176.718 15.0798  -2
   0  -4  -5 176.718 15.0798   1
   0   4  -4 175.764 18.0000  -2
   0  -4  -5 175.764 18.0000   1
   0   4  -4 176.988 13.7257  -2
   0  -4  -5 176.988 13.7257   1
   0   4  -4 181.502 18.2314  -2
   0  -4  -5 181.502 18.2314   1
   0   4  -4 191.693 19.4604  -2
   0  -4  -5 191.693 19.4604   1
   0  -4   4 217.043 20.4282  -2
   0   4   5 217.043 20.4282   1
   0  -4   4 205.431 14.7779  -2
   0   4   5 205.431 14.7779   1
   0  -4   4 153.391 18.9648  -2
   0   4   5 153.391 18.9648   1
   1   4  -4 994.631 43.8159  -2
  -1  -4  -5 994.631 43.8159   1
   1   4  -4 970.409 44.2190  -2
  -1  -4  -5 970.409 44.2190   1
  -1  -4   4 979.630 42.7855  -2
   1   4   5 979.630 42.7855   1
  -1  -4   4 957.376 43.9077  -2
   1   4   5 957.376 43.9077   1
   2   4  -4 128.837 14.8639  -2
  -2  -4  -5 128.837 14.8639   1
   2   4   5 59.2890 11.4937   1
   2   4   5 74.0891 12.3327   1
   2   4   5 63.3436 11.1981   1
   2   4   5 80.8638 6.44154   1
  -3  -4  -5 39.7226 10.5387   1
  -3  -4  -5 31.5459 8.72910   1
  -3  -4  -5 28.8713 8.86408   1
  -3  -4  -5 38.1536 12.1261   1
   3   4   5 34.4737 8.95463   1
   3   4   5 54.6348 12.3853   1
   3   4   5 42.0934 5.50287   1
   3   4   5 93.5285 15.9505   1
  -4  -4  -5 582.490 31.6537   1
  -4  -4  -5 537.234 29.9877   1
  -4  -4  -5 528.002 28.5788   1
  -4  -4  -5 513.227 38.4325   1
   4   4   5 427.567 28.1707   1
   4   4   5 561.044 34.1095   1
  -5  -4  -5 70.4483 19.5256   1
  -5  -4  -5 43.5477 11.6845   1
  -5  -4  -5 39.4476 10.7136   1
   5   4   5 64.6647 15.6753   1
   5   4   5 57.4437 12.7454   1
   6   4  -3 386.449 29.9882  -2
  -6  -4  -5 386.449 29.9882   1
  -6  -4   3 388.919 31.6284  -2
   6   4   5 388.919 31.6284   1
   7   4  -3 257.612 27.6936  -2
  -7  -4  -5 257.612 27.6936   1
  -7  -4   3 310.475 30.2911  -2
   7   4   5 310.475 30.2911   1
   8   4  -3 143.368 25.4752  -2
  -8  -4  -5 143.368 25.4752   1
  -7   5  -4 76.3835 19.1107  -2
   7  -5  -5 76.3835 19.1107   1
   7  -5   4 83.6517 19.8211  -2
  -7   5   5 83.6517 19.8211   1
  -6   5  -4 505.424 36.3537  -2
   6  -5  -5 505.424 36.3537   1
   6  -5   4 448.068 35.2122  -2
  -6   5   5 448.068 35.2122   1
  -5   5  -4 124.834 19.9269  -2
   5  -5  -5 124.834 19.9269   1
   5  -5   4 116.053 19.4708  -2
  -5   5   5 116.053 19.4708   1
  -4   5  -4 810.997 42.9819  -2
   4  -5  -5 810.997 42.9819   1
  -4   5   5 596.414 34.9052   1
   3  -5  -5 68.2714 14.8709   1
   3  -5  -5 68.3896 10.6671   1
   3  -5  -5 73.7071 12.1524   1
  -3   5   5 66.6725 11.8597   1
   2  -5  -5 2137.35 79.7784   1
   2  -5  -5 2085.11 81.2442   1
   2  -5  -5 2077.56 81.5005   1
   2  -5  -5 2101.82 77.3712   1
  -2   5   5 2248.32 83.7795   1
  -2   5   5 2119.17 77.0561   1
   1  -5  -5 53.2931 8.80323   1
   1  -5  -5 56.7026 10.6504   1
   1  -5  -5 57.1399 12.2481   1
   1  -5  -5 48.2161 9.21097   1
  -1   5   5 68.6931 13.0230   1
  -1   5   5 54.2545 10.6085   1
  -1   5   5 80.7343 8.84857   1
   0  -5  -5 1628.52 65.5098   1
   0  -5  -5 1580.10 63.4843   1
   0  -5  -5 1638.34 66.1807   1
   0  -5  -5 1595.24 58.8589   1
   0  -5  -5 1657.66 58.2157   1
   0  -5  -5 1670.41 63.3046   1
   0   5   5 1599.07 64.2888   1
  -1  -5  -5 33.6958 10.3218   1
  -1  -5  -5 32.8122 9.22707   1
  -1  -5  -5 38.9258 9.89438   1
  -1  -5  -5 30.0137 8.59124   1
  -1  -5  -5 25.7816 6.39717   1
  -1  -5  -5 27.9812 9.74876   1
   1   5   5 25.1154 8.29733   1
   2   5  -3 1455.63 57.9710  -2
  -2  -5  -5 1455.63 57.9710   1
   2   5  -3 1525.82 63.8888  -2
  -2  -5  -5 1525.82 63.8888   1
   2   5  -3 1483.19 53.8131  -2
  -2  -5  -5 1483.19 53.8131   1
  -2  -5   3 1434.90 58.6872  -2
   2   5   5 1434.90 58.6872   1
   3   5  -3 18.1713 11.6863  -2
  -3  -5  -5 18.1713 11.6863   1
   3   5  -3 10.0269 11.0932  -2
  -3  -5  -5 10.0269 11.0932   1
   3   5  -3 1.43633 9.75926  -2
  -3  -5  -5 1.43633 9.75926   1
  -3  -5   3 -14.006 13.3975  -2
   3   5   5 -14.006 13.3975   1
  -3  -5   3 43.0091 13.5327  -2
   3   5   5 43.0091 13.5327   1
  -3  -5   3 14.8678 12.8718  -2
   3   5   5 14.8678 12.8718   1
   4   5  -3 343.896 24.5551  -2
  -4  -5  -5 343.896 24.5551   1
   4   5  -3 352.354 23.0032  -2
  -4  -5  -5 352.354 23.0032   1
   4   5  -3 282.495 22.7528  -2
  -4  -5  -5 282.495 22.7528   1
  -4  -5   3 287.003 25.4798  -2
   4   5   5 287.003 25.4798   1
  -4  -5   3 336.687 25.1609  -2
   4   5   5 336.687 25.1609   1
   5   5  -3 278.116 21.5147  -2
  -5  -5  -5 278.116 21.5147   1
   5   5  -3 344.609 25.1512  -2
  -5  -5  -5 344.609 25.1512   1
  -5  -5   3 293.259 24.5451  -2
   5   5   5 293.259 24.5451   1
   6   5  -3 1099.79 51.3062  -2
  -6  -5  -5 1099.79 51.3062   1
  -6  -5   3 1035.47 51.2721  -2
   6   5   5 1035.47 51.2721   1
   7   5  -3 319.496 28.9672  -2
  -7  -5  -5 319.496 28.9672   1
  -7  -5   3 411.593 31.1158  -2
   7   5   5 411.593 31.1158   1
   8   5  -3 289.281 31.4065  -2
  -8  -5  -5 289.281 31.4065   1
  -7   6  -4 727.383 50.8703  -2
   7  -6  -5 727.383 50.8703   1
   6  -6  -5 246.247 26.1308   1
   5  -6  -5 14.2158 8.75534   1
  -5   6   5 -4.3732 7.77407   1
   4  -6  -5 258.116 22.2288   1
  -4   6   5 255.906 21.1541   1
   3  -6  -5 10.2144 7.37444   1
   3  -6  -5 2.99503 8.40335   1
  -3   6   5 6.09839 6.86592   1
  -2   6  -3 344.094 26.3399  -2
   2  -6  -5 344.094 26.3399   1
   2  -6   3 312.865 22.6035  -2
  -2   6   5 312.865 22.6035   1
  -1   6  -3 24.9066 9.62025  -2
   1  -6  -5 24.9066 9.62025   1
  -1   6  -3 5.36055 12.1343  -2
   1  -6  -5 5.36055 12.1343   1
  -1   6  -3 33.0319 8.10862  -2
   1  -6  -5 33.0319 8.10862   1
  -1   6  -3 27.6246 13.2419  -2
   1  -6  -5 27.6246 13.2419   1
   1  -6   3 11.6057 10.3561  -2
  -1   6   5 11.6057 10.3561   1
   0   6  -3 564.124 23.4793  -2
   0  -6  -5 564.124 23.4793   1
   0   6  -3 567.861 27.0341  -2
   0  -6  -5 567.861 27.0341   1
   0   6  -3 572.824 30.7009  -2
   0  -6  -5 572.824 30.7009   1
   0   6  -3 570.731 26.7052  -2
   0  -6  -5 570.731 26.7052   1
   0   6  -3 611.436 29.4669  -2
   0  -6  -5 611.436 29.4669   1
   0   6  -3 537.880 31.9826  -2
   0  -6  -5 537.880 31.9826   1
   1   6  -3 940.755 47.3614  -2
  -1  -6  -5 940.755 47.3614   1
   1   6  -3 956.270 38.4445  -2
  -1  -6  -5 956.270 38.4445   1
   1   6  -3 1013.04 45.0275  -2
  -1  -6  -5 1013.04 45.0275   1
   1   6  -3 1030.41 47.7627  -2
  -1  -6  -5 1030.41 47.7627   1
   1   6  -3 1009.09 42.8228  -2
  -1  -6  -5 1009.09 42.8228   1
  -1  -6   3 1004.26 46.3835  -2
   1   6   5 1004.26 46.3835   1
   2   6  -3 1101.84 43.7577  -2
  -2  -6  -5 1101.84 43.7577   1
   2   6  -3 979.487 38.9932  -2
  -2  -6  -5 979.487 38.9932   1
   2   6  -3 1001.60 49.8162  -2
  -2  -6  -5 1001.60 49.8162   1
   2   6  -3 1111.64 53.0291  -2
  -2  -6  -5 1111.64 53.0291   1
   2   6  -3 961.617 43.9150  -2
  -2  -6  -5 961.617 43.9150   1
  -2  -6   3 888.144 43.9650  -2
   2   6   5 888.144 43.9650   1
   3   6  -3 554.864 29.1401  -2
  -3  -6  -5 554.864 29.1401   1
   3   6  -3 511.428 25.8725  -2
  -3  -6  -5 511.428 25.8725   1
   3   6  -3 503.309 29.2594  -2
  -3  -6  -5 503.309 29.2594   1
  -3  -6   3 486.273 29.5454  -2
   3   6   5 486.273 29.5454   1
   4   6  -3 311.396 23.5995  -2
  -4  -6  -5 311.396 23.5995   1
   4   6  -3 307.747 21.4886  -2
  -4  -6  -5 307.747 21.4886   1
  -4  -6   3 315.159 24.7403  -2
   4   6   5 315.159 24.7403   1
   5   6  -3 185.493 20.7528  -2
  -5  -6  -5 185.493 20.7528   1
   5   6  -3 218.639 21.5566  -2
  -5  -6  -5 218.639 21.5566   1
  -5  -6   3 216.291 23.3319  -2
   5   6   5 216.291 23.3319   1
   6   6  -3 -7.1819 16.5470  -2
  -6  -6  -5 -7.1819 16.5470   1
  -6  -6   3 9.55571 18.3829  -2
   6   6   5 9.55571 18.3829   1
   7   6  -3 341.811 31.9051  -2
  -7  -6  -5 341.811 31.9051   1
  -6   7  -3 767.956 49.1952  -2
   6  -7  -5 767.956 49.1952   1
  -5   7  -3 6.25505 16.6704  -2
   5  -7  -5 6.25505 16.6704   1
  -4   7  -3 1662.45 71.1822  -2
   4  -7  -5 1662.45 71.1822   1
  -3   7  -3 43.3281 12.4435  -2
   3  -7  -5 43.3281 12.4435   1
   3  -7   3 28.4349 9.22502  -2
  -3   7   5 28.4349 9.22502   1
  -2   7  -3 96.3525 13.0660  -2
   2  -7  -5 96.3525 13.0660   1
  -2   7  -3 112.841 16.7583  -2
   2  -7  -5 112.841 16.7583   1
   2  -7   3 104.745 11.4061  -2
  -2   7   5 104.745 11.4061   1
  -1   7  -3 8.35188 8.74545  -2
   1  -7  -5 8.35188 8.74545   1
  -1   7  -3 0.59282 10.3754  -2
   1  -7  -5 0.59282 10.3754   1
  -1   7  -3 -8.4340 10.8948  -2
   1  -7  -5 -8.4340 10.8948   1
  -1   7  -3 11.8659 8.66521  -2
   1  -7  -5 11.8659 8.66521   1
  -1   7  -3 1.01454 5.48275  -2
   1  -7  -5 1.01454 5.48275   1
   0   7  -3 1098.48 49.3592  -2
   0  -7  -5 1098.48 49.3592   1
   0   7  -3 1145.82 42.2205  -2
   0  -7  -5 1145.82 42.2205   1
   0   7  -3 1121.16 47.0936  -2
   0  -7  -5 1121.16 47.0936   1
   0   7  -3 1241.97 53.4904  -2
   0  -7  -5 1241.97 53.4904   1
   0   7  -3 1180.65 46.3255  -2
   0  -7  -5 1180.65 46.3255   1
   0   7  -3 1189.11 53.5110  -2
   0  -7  -5 1189.11 53.5110   1
   1   7  -3 429.366 28.1248  -2
  -1  -7  -5 429.366 28.1248   1
   1   7  -3 432.698 26.2279  -2
  -1  -7  -5 432.698 26.2279   1
   1   7  -3 368.128 26.7545  -2
  -1  -7  -5 368.128 26.7545   1
   1   7  -3 422.134 22.0665  -2
  -1  -7  -5 422.134 22.0665   1
   1   7  -3 401.124 30.8441  -2
  -1  -7  -5 401.124 30.8441   1
  -1  -7   3 401.847 29.5585  -2
   1   7   5 401.847 29.5585   1
   2   7  -3 1202.24 45.6866  -2
  -2  -7  -5 1202.24 45.6866   1
   2   7  -3 1166.85 58.4331  -2
  -2  -7  -5 1166.85 58.4331   1
   2   7  -3 1093.10 48.6840  -2
  -2  -7  -5 1093.10 48.6840   1
   2   7  -3 1167.82 52.3879  -2
  -2  -7  -5 1167.82 52.3879   1
  -2  -7   3 1210.16 55.0363  -2
   2   7   5 1210.16 55.0363   1
   3   7  -3 256.864 23.1186  -2
  -3  -7  -5 256.864 23.1186   1
   3   7  -3 223.739 18.2642  -2
  -3  -7  -5 223.739 18.2642   1
   3   7  -3 216.652 27.2318  -2
  -3  -7  -5 216.652 27.2318   1
   3   7   5 158.995 16.9280   1
  -4  -7  -5 97.4869 14.1905   1
  -4  -7  -5 104.743 13.1707   1
   4   7   5 128.051 15.7532   1
  -5  -7  -5 300.603 22.9675   1
  -5  -7  -5 293.698 22.0504   1
   5   7   5 323.790 24.9132   1
  -6  -7  -5 7.91745 7.79974   1
   6   7   5 13.3458 9.05531   1
   7   7  -2 45.7559 19.7809  -2
  -7  -7  -5 45.7559 19.7809   1
  -6   8  -3 36.5997 16.2410  -2
   6  -8  -5 36.5997 16.2410   1
  -5   8  -3 89.8280 18.9034  -2
   5  -8  -5 89.8280 18.9034   1
  -4   8  -3 475.982 33.8823  -2
   4  -8  -5 475.982 33.8823   1
  -3   8  -3 473.004 31.3542  -2
   3  -8  -5 473.004 31.3542   1
   2  -8  -5 4.25433 5.71283   1
   1  -8  -5 66.7975 12.6556   1
   1  -8  -5 92.3971 11.8332   1
   1  -8  -5 88.8965 15.2646   1
   0  -8  -5 -3.4874 8.16627   1
   0  -8  -5 2.66121 6.47580   1
   0  -8  -5 6.77358 4.52133   1
   0  -8  -5 19.0039 7.80260   1
   0  -8  -5 7.16598 4.96205   1
   0  -8  -5 8.84845 5.30792   1
   0  -8  -5 15.4032 8.29121   1
  -1  -8  -5 892.064 49.8879   1
  -1  -8  -5 832.603 39.1859   1
  -1  -8  -5 902.047 42.1432   1
  -1  -8  -5 865.105 35.3353   1
  -1  -8  -5 879.214 48.3219   1
  -1  -8  -5 936.610 43.0494   1
  -1  -8  -5 886.450 39.1353   1
   1   8   5 834.142 44.0843   1
   2   8  -2 63.4326 9.77864  -2
  -2  -8  -5 63.4326 9.77864   1
   2   8   5 68.0948 13.9129   1
   3   8  -2 882.337 36.2136  -2
  -3  -8  -5 882.337 36.2136   1
   3   8  -2 764.329 40.6109  -2
  -3  -8  -5 764.329 40.6109   1
   3   8  -2 820.301 51.6882  -2
  -3  -8  -5 820.301 51.6882   1
  -3  -8   2 818.758 42.9484  -2
   3   8   5 818.758 42.9484   1
   4   8  -2 267.507 23.0689  -2
  -4  -8  -5 267.507 23.0689   1
   4   8  -2 242.526 19.4377  -2
  -4  -8  -5 242.526 19.4377   1
  -4  -8   2 265.870 24.0544  -2
   4   8   5 265.870 24.0544   1
   5   8  -2 669.168 35.2342  -2
  -5  -8  -5 669.168 35.2342   1
   6   8  -2 27.6615 12.1907  -2
  -6  -8  -5 27.6615 12.1907   1
   5  -9  -5 8.01744 8.66055   1
   4  -9  -5 11.4521 9.26174   1
   3  -9  -5 270.558 22.8428   1
   2  -9  -5 0.29400 5.50767   1
  -1   9  -2 583.263 30.9092  -2
   1  -9  -5 583.263 30.9092   1
   0   9  -2 597.798 36.7907  -2
   0  -9  -5 597.798 36.7907   1
   0   9  -2 486.285 26.2533  -2
   0  -9  -5 486.285 26.2533   1
   1   9  -2 -0.1892 17.6468  -2
  -1  -9  -5 -0.1892 17.6468   1
   1   9  -2 -3.7224 8.20616  -2
  -1  -9  -5 -3.7224 8.20616   1
   1   9  -2 -7.4593 12.8188  -2
  -1  -9  -5 -7.4593 12.8188   1
   1   9  -2 -9.8049 14.8527  -2
  -1  -9  -5 -9.8049 14.8527   1
   2   9  -2 96.5688 15.4554  -2
  -2  -9  -5 96.5688 15.4554   1
   2   9  -2 79.5128 9.93869  -2
  -2  -9  -5 79.5128 9.93869   1
   2   9  -2 46.5003 13.0168  -2
  -2  -9  -5 46.5003 13.0168   1
   3   9  -2 44.7060 11.9739  -2
  -3  -9  -5 44.7060 11.9739   1
   3   9  -2 39.2882 11.5450  -2
  -3  -9  -5 39.2882 11.5450   1
   3   9  -2 29.7591 7.89363  -2
  -3  -9  -5 29.7591 7.89363   1
  -3  -9   2 53.5623 14.1462  -2
   3   9   5 53.5623 14.1462   1
   4   9  -2 147.182 14.5175  -2
  -4  -9  -5 147.182 14.5175   1
   5   9  -2 428.369 27.8564  -2
  -5  -9  -5 428.369 27.8564   1
   6   9  -2 174.027 22.0920  -2
  -6  -9  -5 174.027 22.0920   1
  -4  10  -2 2.46163 16.9435  -2
   4 -10  -5 2.46163 16.9435   1
  -3  10  -2 379.042 29.0933  -2
   3 -10  -5 379.042 29.0933   1
  -2  10  -2 1.49745 10.3726  -2
   2 -10  -5 1.49745 10.3726   1
  -1  10  -2 741.658 36.2078  -2
   1 -10  -5 741.658 36.2078   1
   0  10  -2 163.850 15.3420  -2
   0 -10  -5 163.850 15.3420   1
   1  10  -2 208.274 16.4193  -2
  -1 -10  -5 208.274 16.4193   1
   1  10  -2 198.096 29.3407  -2
  -1 -10  -5 198.096 29.3407   1
   1  10  -2 178.353 22.4790  -2
  -1 -10  -5 178.353 22.4790   1
   2  10  -2 89.5495 12.4351  -2
  -2 -10  -5 89.5495 12.4351   1
   3  10  -2 123.784 14.6210  -2
  -3 -10  -5 123.784 14.6210   1
  -4 -10  -5 234.103 17.5746   1
  -5 -10  -5 10.5525 7.00146   1
  -3  11  -2 20.9130 16.4528  -2
   3 -11  -5 20.9130 16.4528   1
  -2  11  -2 172.524 21.6680  -2
   2 -11  -5 172.524 21.6680   1
  -1  11  -2 437.461 28.9403  -2
   1 -11  -5 437.461 28.9403   1
   0 -11  -5 193.100 16.2837   1
  -1 -11  -5 -2.8263 4.46378   1
  -2 -11  -5 280.899 17.3816   1
  -2 -11  -5 275.837 34.0877   1
   3  11  -1 42.0932 11.5026  -2
  -3 -11  -5 42.0932 11.5026   1
   4  11  -1 120.563 16.6389  -2
  -4 -11  -5 120.563 16.6389   1
   0  12  -1 80.0550 15.3551  -2
   0 -12  -5 80.0550 15.3551   1
   1  12  -1 143.157 14.7107  -2
  -1 -12  -5 143.157 14.7107   1
   1  10   9 3.13774 19.3610  -2
  -1 -10   6 3.13774 19.3610   1
   0  10   9 141.376 24.0714  -2
   0 -10   6 141.376 24.0714   1
   3   9   9 302.927 35.6859  -2
  -3  -9   6 302.927 35.6859   1
   3   9   9 255.171 26.3714  -2
  -3  -9   6 255.171 26.3714   1
   2   9   9 111.089 21.3155  -2
  -2  -9   6 111.089 21.3155   1
   2   9   9 125.283 26.9020  -2
  -2  -9   6 125.283 26.9020   1
   1   9   9 516.024 37.2193  -2
  -1  -9   6 516.024 37.2193   1
   1   9   9 525.734 44.8354  -2
  -1  -9   6 525.734 44.8354   1
   0   9   9 335.941 32.4235  -2
   0  -9   6 335.941 32.4235   1
  -1   9   9 410.599 37.1396  -2
   1  -9   6 410.599 37.1396   1
  -2   9   9 71.9703 26.8574  -2
   2  -9   6 71.9703 26.8574   1
   3  -9   6 174.204 25.2367   1
   4   8   9 743.863 45.9691  -2
  -4  -8   6 743.863 45.9691   1
   4   8   9 560.517 61.9593  -2
  -4  -8   6 560.517 61.9593   1
   3   8   9 191.353 27.5207  -2
  -3  -8   6 191.353 27.5207   1
   2   8   9 147.392 24.8832  -2
  -2  -8   6 147.392 24.8832   1
  -1  -8   6 172.040 25.0537   1
  -1  -8   6 166.624 21.8595   1
   0  -8   6 7.90969 9.74118   1
   0  -8   6 19.1494 14.0465   1
  -1   8   8 69.8877 25.9462  -2
   1  -8   6 69.8877 25.9462   1
  -2   8   8 239.751 30.1962  -2
   2  -8   6 239.751 30.1962   1
  -3   8   8 152.759 23.1150  -2
   3  -8   6 152.759 23.1150   1
  -3   8   8 88.8838 26.6187  -2
   3  -8   6 88.8838 26.6187   1
  -4   8   8 646.951 47.6089  -2
   4  -8   6 646.951 47.6089   1
  -5  -7   6 599.931 51.1141   1
  -5  -7   6 528.538 55.6144   1
  -5  -7   6 562.050 40.5582   1
  -4  -7   6 12.3916 10.9471   1
  -4  -7   6 -7.7262 12.2915   1
  -4  -7   6 -12.811 14.9657   1
   3   7   8 323.236 30.6412  -2
  -3  -7   6 323.236 30.6412   1
  -2  -7  -8 5.34988 19.2887  -2
   2   7  -6 5.34988 19.2887   1
   2   7   8 56.5366 20.1692  -2
  -2  -7   6 56.5366 20.1692   1
  -1  -7  -8 234.633 29.5399  -2
   1   7  -6 234.633 29.5399   1
   1   7   8 194.419 19.3839  -2
  -1  -7   6 194.419 19.3839   1
   1   7   8 256.261 31.5354  -2
  -1  -7   6 256.261 31.5354   1
   1   7   8 211.454 24.5921  -2
  -1  -7   6 211.454 24.5921   1
   0  -7  -8 9.35962 17.9142  -2
   0   7  -6 9.35962 17.9142   1
   0   7   8 20.8178 16.5096  -2
   0  -7   6 20.8178 16.5096   1
   0   7   8 -21.086 16.5467  -2
   0  -7   6 -21.086 16.5467   1
   1  -7  -8 154.061 24.1400  -2
  -1   7  -6 154.061 24.1400   1
  -1   7   8 89.7155 20.3908  -2
   1  -7   6 89.7155 20.3908   1
  -1   7   8 138.125 16.6887  -2
   1  -7   6 138.125 16.6887   1
  -1   7   8 143.203 21.2800  -2
   1  -7   6 143.203 21.2800   1
   2  -7  -8 75.3057 21.3328  -2
  -2   7  -6 75.3057 21.3328   1
  -2   7   8 66.1333 17.7727  -2
   2  -7   6 66.1333 17.7727   1
  -2   7   8 71.9376 14.3548  -2
   2  -7   6 71.9376 14.3548   1
  -3   7   8 44.4010 15.1713  -2
   3  -7   6 44.4010 15.1713   1
  -3   7   8 21.2877 15.3996  -2
   3  -7   6 21.2877 15.3996   1
  -4   7   8 802.331 51.5423  -2
   4  -7   6 802.331 51.5423   1
  -5   7   8 156.008 31.7061  -2
   5  -7   6 156.008 31.7061   1
   6   6   8 62.2099 22.4691  -2
  -6  -6   6 62.2099 22.4691   1
   5   6   8 18.5880 19.2693  -2
  -5  -6   6 18.5880 19.2693   1
   5   6   8 47.6694 33.3545  -2
  -5  -6   6 47.6694 33.3545   1
   4   6   8 292.883 35.1176  -2
  -4  -6   6 292.883 35.1176   1
   4   6   8 268.748 37.1425  -2
  -4  -6   6 268.748 37.1425   1
   4   6   8 253.973 27.5746  -2
  -4  -6   6 253.973 27.5746   1
   3   6   8 275.218 25.1494  -2
  -3  -6   6 275.218 25.1494   1
   3   6   8 211.564 27.2643  -2
  -3  -6   6 211.564 27.2643   1
  -2  -6  -8 620.050 42.1817  -2
   2   6  -6 620.050 42.1817   1
   2   6   8 649.365 28.2650  -2
  -2  -6   6 649.365 28.2650   1
   2   6   8 655.852 44.6903  -2
  -2  -6   6 655.852 44.6903   1
   2   6   8 611.263 36.6172  -2
  -2  -6   6 611.263 36.6172   1
  -1  -6  -8 120.193 21.2031  -2
   1   6  -6 120.193 21.2031   1
   1   6   8 152.942 24.1880  -2
  -1  -6   6 152.942 24.1880   1
   1   6   8 134.934 19.5060  -2
  -1  -6   6 134.934 19.5060   1
   1   6   8 143.696 12.9530  -2
  -1  -6   6 143.696 12.9530   1
   1   6   8 110.595 13.3320  -2
  -1  -6   6 110.595 13.3320   1
   0  -6  -8 1243.19 64.6758  -2
   0   6  -6 1243.19 64.6758   1
   0   6   8 1204.70 48.8242  -2
   0  -6   6 1204.70 48.8242   1
   0   6   8 1193.71 57.2062  -2
   0  -6   6 1193.71 57.2062   1
   0   6   8 1321.66 68.6338  -2
   0  -6   6 1321.66 68.6338   1
   1  -6  -8 148.231 26.0653  -2
  -1   6  -6 148.231 26.0653   1
  -1   6   8 122.641 21.9197  -2
   1  -6   6 122.641 21.9197   1
  -1   6   8 124.412 17.4065  -2
   1  -6   6 124.412 17.4065   1
  -1   6   8 126.258 23.8663  -2
   1  -6   6 126.258 23.8663   1
   2  -6  -8 603.792 47.8131  -2
  -2   6  -6 603.792 47.8131   1
  -2   6   8 570.643 40.5531  -2
   2  -6   6 570.643 40.5531   1
   3  -6  -8 542.516 50.4063  -2
  -3   6  -6 542.516 50.4063   1
  -3   6   8 575.212 41.9190  -2
   3  -6   6 575.212 41.9190   1
  -4   6  -6 552.383 48.8066   1
   4  -6   6 505.176 37.2440   1
   4  -6   6 451.485 33.3229   1
   5  -6   6 -0.7225 10.0997   1
   6  -6   6 16.2234 13.0020   1
   6   5   8 7.13999 15.5099  -2
  -6  -5   6 7.13999 15.5099   1
   6   5   8 8.03040 24.0794  -2
  -6  -5   6 8.03040 24.0794   1
   5   5   8 260.555 36.2018  -2
  -5  -5   6 260.555 36.2018   1
   5   5   8 241.167 32.2051  -2
  -5  -5   6 241.167 32.2051   1
   5   5   8 218.773 26.3503  -2
  -5  -5   6 218.773 26.3503   1
   4   5   8 64.5304 23.3378  -2
  -4  -5   6 64.5304 23.3378   1
   4   5   8 23.1572 24.6009  -2
  -4  -5   6 23.1572 24.6009   1
   4   5   8 53.0617 18.9844  -2
  -4  -5   6 53.0617 18.9844   1
  -3  -5  -8 39.9065 8.81202  -2
   3   5  -6 39.9065 8.81202   1
   3   5   8 42.7549 18.3034  -2
  -3  -5   6 42.7549 18.3034   1
  -2  -5  -8 592.965 26.3677  -2
   2   5  -6 592.965 26.3677   1
  -2  -5  -8 579.581 41.1106  -2
   2   5  -6 579.581 41.1106   1
   2   5   8 567.252 27.9781  -2
  -2  -5   6 567.252 27.9781   1
   2   5   8 646.376 38.8168  -2
  -2  -5   6 646.376 38.8168   1
  -1  -5  -8 199.623 27.4785  -2
   1   5  -6 199.623 27.4785   1
   1   5   8 293.800 18.1423  -2
  -1  -5   6 293.800 18.1423   1
   1   5   8 315.773 27.9631  -2
  -1  -5   6 315.773 27.9631   1
   0   5  -6 499.257 37.9495   1
   0  -5   6 562.511 26.6336   1
   0  -5   6 519.264 33.3120   1
   0  -5   6 577.885 41.2012   1
   0  -5   6 519.480 26.9181   1
   0  -5   6 590.688 30.9478   1
  -1   5  -6 157.739 22.7822   1
   1  -5   6 152.901 23.7110   1
   1  -5   6 145.864 19.5789   1
   1  -5   6 205.847 17.4513   1
   2  -5  -7 826.003 54.5579  -2
  -2   5  -6 826.003 54.5579   1
   2  -5   6 282.416 26.0160   1
   2  -5   6 275.662 29.0705   1
   2  -5   6 326.738 23.5143   1
   3  -5  -7 1176.96 68.4045  -2
  -3   5  -6 1176.96 68.4045   1
  -3   5   7 1163.11 58.7861  -2
   3  -5   6 1163.11 58.7861   1
   4  -5  -7 -24.091 26.4692  -2
  -4   5  -6 -24.091 26.4692   1
  -4   5   7 -3.1606 15.4921  -2
   4  -5   6 -3.1606 15.4921   1
  -4   5   7 1.54109 21.2911  -2
   4  -5   6 1.54109 21.2911   1
  -5   5   7 112.084 25.7974  -2
   5  -5   6 112.084 25.7974   1
  -6   5   7 115.756 25.3887  -2
   6  -5   6 115.756 25.3887   1
   7   4   8 172.209 30.0845  -2
  -7  -4   6 172.209 30.0845   1
   6   4   8 574.262 42.9904  -2
  -6  -4   6 574.262 42.9904   1
   5   4  -6 199.601 19.4956   1
   5   4   8 164.071 35.5776  -2
  -5  -4   6 164.071 35.5776   1
   4   4  -6 672.085 33.5862   1
   4   4  -6 638.886 29.1855   1
  -4  -4   6 749.565 49.4813   1
  -4  -4   6 672.893 40.9356   1
   3   4  -6 188.418 13.2617   1
  -3  -4   6 193.259 20.9126   1
  -3  -4   6 163.314 24.3495   1
  -3  -4   6 165.377 23.6853   1
   2   4  -6 593.047 37.9784   1
   2   4  -6 568.016 26.2304   1
  -2  -4   6 634.488 41.7889   1
  -2  -4   6 606.516 28.2189   1
  -2  -4   6 622.131 41.9275   1
  -2  -4   6 542.561 34.5437   1
  -2  -4   6 657.805 32.1993   1
  -1  -4  -7 190.502 15.4962  -2
   1   4  -6 190.502 15.4962   1
  -1  -4  -7 155.068 22.4712  -2
   1   4  -6 155.068 22.4712   1
  -1  -4  -7 193.903 12.6876  -2
   1   4  -6 193.903 12.6876   1
   1   4   7 216.848 19.8512  -2
  -1  -4   6 216.848 19.8512   1
   1   4   7 186.037 16.4450  -2
  -1  -4   6 186.037 16.4450   1
   1   4   7 206.105 29.0735  -2
  -1  -4   6 206.105 29.0735   1
   1   4   7 217.166 22.7831  -2
  -1  -4   6 217.166 22.7831   1
   0  -4  -7 195.690 24.7888  -2
   0   4  -6 195.690 24.7888   1
   0  -4  -7 202.159 14.0623  -2
   0   4  -6 202.159 14.0623   1
   0  -4  -7 187.720 16.5075  -2
   0   4  -6 187.720 16.5075   1
   0   4   7 214.366 17.7587  -2
   0  -4   6 214.366 17.7587   1
   0   4   7 173.441 27.2695  -2
   0  -4   6 173.441 27.2695   1
   0   4   7 211.843 19.5189  -2
   0  -4   6 211.843 19.5189   1
   0   4   7 222.840 26.6217  -2
   0  -4   6 222.840 26.6217   1
   0   4   7 185.836 21.7560  -2
   0  -4   6 185.836 21.7560   1
   1  -4  -7 720.798 32.2759  -2
  -1   4  -6 720.798 32.2759   1
   1  -4  -7 732.283 45.8284  -2
  -1   4  -6 732.283 45.8284   1
  -1   4   7 751.436 47.4387  -2
   1  -4   6 751.436 47.4387   1
  -1   4   7 813.484 38.6221  -2
   1  -4   6 813.484 38.6221   1
  -1   4   7 680.063 48.1818  -2
   1  -4   6 680.063 48.1818   1
  -1   4   7 696.862 40.5774  -2
   1  -4   6 696.862 40.5774   1
  -1   4   7 742.662 36.0217  -2
   1  -4   6 742.662 36.0217   1
   2  -4  -7 514.790 39.4055  -2
  -2   4  -6 514.790 39.4055   1
  -2   4   7 481.642 29.7639  -2
   2  -4   6 481.642 29.7639   1
  -2   4   7 457.146 36.7527  -2
   2  -4   6 457.146 36.7527   1
  -2   4   7 449.424 32.4455  -2
   2  -4   6 449.424 32.4455   1
   3  -4  -7 251.305 30.4633  -2
  -3   4  -6 251.305 30.4633   1
   3  -4  -7 247.695 19.2068  -2
  -3   4  -6 247.695 19.2068   1
  -3   4   7 283.198 23.2556  -2
   3  -4   6 283.198 23.2556   1
  -3   4   7 197.833 22.6750  -2
   3  -4   6 197.833 22.6750   1
   4  -4  -7 490.918 43.4839  -2
  -4   4  -6 490.918 43.4839   1
  -4   4   7 429.482 31.7053  -2
   4  -4   6 429.482 31.7053   1
  -4   4   7 362.102 31.3328  -2
   4  -4   6 362.102 31.3328   1
   5  -4  -7 245.405 37.6431  -2
  -5   4  -6 245.405 37.6431   1
  -5   4   7 265.010 30.4710  -2
   5  -4   6 265.010 30.4710   1
  -6   4   7 1.08598 22.4937  -2
   6  -4   6 1.08598 22.4937   1
  -7  -3   6 8.33062 11.7291   1
  -6  -3   6 102.096 22.7288   1
  -6  -3   6 93.7208 19.8739   1
  -5  -3  -7 1154.36 52.3515  -2
   5   3  -6 1154.36 52.3515   1
  -5  -3  -7 1088.16 48.3167  -2
   5   3  -6 1088.16 48.3167   1
   5   3   7 1121.75 57.0986  -2
  -5  -3   6 1121.75 57.0986   1
  -4  -3  -7 691.689 34.8034  -2
   4   3  -6 691.689 34.8034   1
  -4  -3  -7 774.142 35.5248  -2
   4   3  -6 774.142 35.5248   1
   4   3   7 768.449 42.9346  -2
  -4  -3   6 768.449 42.9346   1
   4   3   7 656.018 49.4697  -2
  -4  -3   6 656.018 49.4697   1
  -3  -3  -7 1629.22 57.7550  -2
   3   3  -6 1629.22 57.7550   1
  -3  -3  -7 1534.57 57.6997  -2
   3   3  -6 1534.57 57.6997   1
  -3  -3  -7 1326.02 55.0052  -2
   3   3  -6 1326.02 55.0052   1
   3   3   7 1719.71 74.6769  -2
  -3  -3   6 1719.71 74.6769   1
   3   3   7 1587.87 77.1730  -2
  -3  -3   6 1587.87 77.1730   1
   3   3   7 1655.27 67.9944  -2
  -3  -3   6 1655.27 67.9944   1
   3   3   7 1704.88 78.0297  -2
  -3  -3   6 1704.88 78.0297   1
   3   3   7 1475.03 61.6318  -2
  -3  -3   6 1475.03 61.6318   1
  -2  -3  -7 186.989 14.7247  -2
   2   3  -6 186.989 14.7247   1
  -2  -3  -7 183.241 20.5991  -2
   2   3  -6 183.241 20.5991   1
  -2  -3  -7 184.047 13.7414  -2
   2   3  -6 184.047 13.7414   1
   2   3   7 168.356 16.5135  -2
  -2  -3   6 168.356 16.5135   1
   2   3   7 235.458 25.4933  -2
  -2  -3   6 235.458 25.4933   1
   2   3   7 181.242 20.0346  -2
  -2  -3   6 181.242 20.0346   1
   2   3   7 188.196 16.0068  -2
  -2  -3   6 188.196 16.0068   1
   2   3   7 189.993 23.3301  -2
  -2  -3   6 189.993 23.3301   1
  -1  -3  -7 266.734 22.8512  -2
   1   3  -6 266.734 22.8512   1
  -1  -3  -7 278.919 17.5162  -2
   1   3  -6 278.919 17.5162   1
  -1  -3  -7 267.633 16.3391  -2
   1   3  -6 267.633 16.3391   1
   1   3   7 258.417 25.0787  -2
  -1  -3   6 258.417 25.0787   1
   1   3   7 261.634 18.6426  -2
  -1  -3   6 261.634 18.6426   1
   1   3   7 235.372 21.3938  -2
  -1  -3   6 235.372 21.3938   1
   1   3   7 276.003 26.4808  -2
  -1  -3   6 276.003 26.4808   1
   1   3   7 293.645 18.7428  -2
  -1  -3   6 293.645 18.7428   1
   0  -3  -7 581.469 29.2793  -2
   0   3  -6 581.469 29.2793   1
   0  -3  -7 630.600 38.2023  -2
   0   3  -6 630.600 38.2023   1
   0   3   7 618.438 23.5779  -2
   0  -3   6 618.438 23.5779   1
   0   3   7 600.976 40.4689  -2
   0  -3   6 600.976 40.4689   1
   0   3   7 589.787 34.6995  -2
   0  -3   6 589.787 34.6995   1
   0   3   7 606.796 30.3144  -2
   0  -3   6 606.796 30.3144   1
   0   3   7 656.548 32.3862  -2
   0  -3   6 656.548 32.3862   1
   0   3   7 661.433 42.7426  -2
   0  -3   6 661.433 42.7426   1
   1  -3  -7 1569.84 60.0464  -2
  -1   3  -6 1569.84 60.0464   1
   1  -3  -7 1556.92 72.3010  -2
  -1   3  -6 1556.92 72.3010   1
  -1   3   7 1579.55 66.9715  -2
   1  -3   6 1579.55 66.9715   1
  -1   3   7 1487.34 74.8094  -2
   1  -3   6 1487.34 74.8094   1
  -1   3   7 1684.82 76.9838  -2
   1  -3   6 1684.82 76.9838   1
  -1   3   7 1529.02 60.3432  -2
   1  -3   6 1529.02 60.3432   1
   2  -3  -7 100.932 14.1912  -2
  -2   3  -6 100.932 14.1912   1
   2  -3  -7 52.4415 22.8700  -2
  -2   3  -6 52.4415 22.8700   1
  -2   3   7 73.7489 15.1858  -2
   2  -3   6 73.7489 15.1858   1
  -2   3   7 77.0241 23.2880  -2
   2  -3   6 77.0241 23.2880   1
  -2   3   7 100.788 22.8689  -2
   2  -3   6 100.788 22.8689   1
  -2   3   7 104.420 20.1455  -2
   2  -3   6 104.420 20.1455   1
   3  -3  -7 556.405 31.7188  -2
  -3   3  -6 556.405 31.7188   1
   3  -3  -7 558.293 45.7506  -2
  -3   3  -6 558.293 45.7506   1
  -3   3   7 497.889 35.7425  -2
   3  -3   6 497.889 35.7425   1
  -4   3  -6 56.9608 13.2785   1
  -4   3  -6 55.7231 18.8205   1
  -4   3   7 63.5240 22.9754  -2
   4  -3   6 63.5240 22.9754   1
  -5   3  -6 782.384 43.5282   1
  -5   3  -6 825.001 58.9135   1
   5  -3   6 831.432 47.1090   1
   5  -3   6 850.999 46.4637   1
   6  -3   6 198.677 24.6838   1
   7   2   7 101.309 24.8709  -2
  -7  -2   6 101.309 24.8709   1
  -6  -2  -7 335.586 27.2156  -2
   6   2  -6 335.586 27.2156   1
   6   2   7 292.832 33.0078  -2
  -6  -2   6 292.832 33.0078   1
   6   2   7 265.424 28.8829  -2
  -6  -2   6 265.424 28.8829   1
  -5  -2  -7 80.7122 14.4135  -2
   5   2  -6 80.7122 14.4135   1
   5   2   7 68.7304 18.0792  -2
  -5  -2   6 68.7304 18.0792   1
   5   2   7 50.2530 15.6795  -2
  -5  -2   6 50.2530 15.6795   1
   5   2   7 75.1888 21.1566  -2
  -5  -2   6 75.1888 21.1566   1
  -4  -2  -7 913.590 41.3703  -2
   4   2  -6 913.590 41.3703   1
  -4  -2  -7 900.987 42.1934  -2
   4   2  -6 900.987 42.1934   1
   4   2   7 908.729 55.0182  -2
  -4  -2   6 908.729 55.0182   1
   4   2   7 998.632 56.8052  -2
  -4  -2   6 998.632 56.8052   1
   4   2   7 967.110 50.0949  -2
  -4  -2   6 967.110 50.0949   1
   4   2   7 1057.62 53.2962  -2
  -4  -2   6 1057.62 53.2962   1
  -3  -2  -7 830.251 37.2607  -2
   3   2  -6 830.251 37.2607   1
  -3  -2  -7 759.069 32.3381  -2
   3   2  -6 759.069 32.3381   1
   3   2   7 770.740 42.8311  -2
  -3  -2   6 770.740 42.8311   1
   3   2   7 801.177 45.6605  -2
  -3  -2   6 801.177 45.6605   1
   3   2   7 772.920 46.4807  -2
  -3  -2   6 772.920 46.4807   1
  -2  -2  -7 675.476 33.1530  -2
   2   2  -6 675.476 33.1530   1
  -2  -2  -7 701.294 38.6079  -2
   2   2  -6 701.294 38.6079   1
   2   2   7 709.704 42.4815  -2
  -2  -2   6 709.704 42.4815   1
   2   2   7 685.564 39.0092  -2
  -2  -2   6 685.564 39.0092   1
   2   2   7 710.211 35.4205  -2
  -2  -2   6 710.211 35.4205   1
  -1  -2  -7 42.9217 11.8696  -2
   1   2  -6 42.9217 11.8696   1
  -1  -2  -7 67.8287 12.5347  -2
   1   2  -6 67.8287 12.5347   1
  -1  -2  -7 43.9739 15.9544  -2
   1   2  -6 43.9739 15.9544   1
   1   2   7 39.0371 19.4230  -2
  -1  -2   6 39.0371 19.4230   1
   1   2   7 56.4499 12.9847  -2
  -1  -2   6 56.4499 12.9847   1
   1   2   7 48.8756 17.1381  -2
  -1  -2   6 48.8756 17.1381   1
   0  -2  -7 75.2065 13.8844  -2
   0   2  -6 75.2065 13.8844   1
   0   2   7 67.3019 18.8510  -2
   0  -2   6 67.3019 18.8510   1
  -1   2  -6 172.792 15.2116   1
  -1   2  -6 222.924 23.7165   1
  -1   2  -6 168.709 14.9938   1
  -1   2  -6 187.311 20.9078   1
   1  -2   6 150.572 14.4974   1
   1  -2   6 153.544 17.8768   1
   1  -2   6 205.533 22.8931   1
   1  -2   6 99.9529 17.4434   1
  -2   2  -6 2.27342 8.05425   1
  -2   2  -6 -2.7256 4.61677   1
  -2   2  -6 10.9102 5.80755   1
  -2   2  -6 -3.1471 9.04489   1
   2  -2   6 -2.0519 7.39732   1
   2  -2   6 -0.0279 7.94075   1
   2  -2   6 6.04220 5.90674   1
   2  -2   6 -0.9073 6.11952   1
  -3   2  -6 227.446 19.2856   1
  -3   2  -6 181.732 26.2565   1
   3  -2   6 238.973 21.8686   1
   3  -2   6 214.536 19.6603   1
   3  -2   6 192.940 25.5946   1
   4  -2  -6 29.6411 25.0292  -2
  -4   2  -6 29.6411 25.0292   1
   4  -2  -6 24.6226 14.4279  -2
  -4   2  -6 24.6226 14.4279   1
  -4   2   6 57.3232 19.3888  -2
   4  -2   6 57.3232 19.3888   1
   5  -2  -6 224.117 37.4385  -2
  -5   2  -6 224.117 37.4385   1
   5  -2  -6 171.411 23.4914  -2
  -5   2  -6 171.411 23.4914   1
  -5   2   6 275.160 27.5665  -2
   5  -2   6 275.160 27.5665   1
  -5   2   6 276.115 29.2706  -2
   5  -2   6 276.115 29.2706   1
   6  -2  -6 17.4009 16.0818  -2
  -6   2  -6 17.4009 16.0818   1
   6  -2  -6 26.2618 25.7943  -2
  -6   2  -6 26.2618 25.7943   1
  -6   2   6 17.0090 19.6287  -2
   6  -2   6 17.0090 19.6287   1
   7   1   7 175.842 29.3621  -2
  -7  -1   6 175.842 29.3621   1
  -6  -1  -7 138.165 24.0769  -2
   6   1  -6 138.165 24.0769   1
   6   1   7 180.982 28.2961  -2
  -6  -1   6 180.982 28.2961   1
   5   1  -6 2.80933 6.88401   1
  -5  -1   6 -1.4690 8.00326   1
  -5  -1   6 -8.6942 7.59994   1
  -5  -1   6 -1.2570 8.04084   1
   4   1  -6 23.4917 8.13744   1
   4   1  -6 10.2160 7.17656   1
  -4  -1   6 17.6478 10.5149   1
  -4  -1   6 13.0287 9.64949   1
  -4  -1   6 30.6765 12.7911   1
  -4  -1   6 28.5588 11.3982   1
   3   1  -6 196.110 18.5291   1
   3   1  -6 169.525 15.7539   1
   3   1  -6 188.744 15.8548   1
  -3  -1   6 165.837 19.3708   1
  -3  -1   6 199.060 20.0872   1
  -3  -1   6 214.104 22.9322   1
  -3  -1   6 180.861 19.8968   1
   2   1  -6 58.5462 11.8353   1
   2   1  -6 32.9100 8.92654   1
   2   1  -6 48.6366 12.1378   1
   2   1  -6 51.9194 9.86001   1
   2   1  -6 44.6185 4.80454   1
  -2  -1   6 38.9048 11.2833   1
  -2  -1   6 39.4509 10.0730   1
  -2  -1   6 45.8709 12.8922   1
  -2  -1   6 50.2305 13.3658   1
  -1  -1  -6 1691.26 63.4014  -2
   1   1  -6 1691.26 63.4014   1
  -1  -1   6 1588.74 66.5831   1
  -1  -1   6 1499.12 56.7554   1
  -1  -1   6 1436.69 62.3852   1
  -1  -1   6 1375.87 67.9059   1
   0  -1  -6 1482.21 55.6037  -2
   0   1  -6 1482.21 55.6037   1
   0  -1  -6 1454.51 55.8580  -2
   0   1  -6 1454.51 55.8580   1
   0  -1  -6 1432.89 66.0537  -2
   0   1  -6 1432.89 66.0537   1
   0  -1  -6 1478.84 63.3788  -2
   0   1  -6 1478.84 63.3788   1
   0   1   6 1452.84 65.8936  -2
   0  -1   6 1452.84 65.8936   1
   0   1   6 1515.07 57.1391  -2
   0  -1   6 1515.07 57.1391   1
   0   1   6 1393.91 68.3065  -2
   0  -1   6 1393.91 68.3065   1
   0   1   6 1411.48 60.6493  -2
   0  -1   6 1411.48 60.6493   1
   1  -1  -6 568.611 29.7990  -2
  -1   1  -6 568.611 29.7990   1
   1  -1  -6 547.411 29.5597  -2
  -1   1  -6 547.411 29.5597   1
   1  -1  -6 631.260 39.5056  -2
  -1   1  -6 631.260 39.5056   1
  -1   1   6 632.764 39.7422  -2
   1  -1   6 632.764 39.7422   1
  -1   1   6 522.015 38.3299  -2
   1  -1   6 522.015 38.3299   1
  -1   1   6 533.684 30.2716  -2
   1  -1   6 533.684 30.2716   1
  -1   1   6 601.901 34.5902  -2
   1  -1   6 601.901 34.5902   1
   2  -1  -6 68.3017 13.1025  -2
  -2   1  -6 68.3017 13.1025   1
   2  -1  -6 92.3779 19.6040  -2
  -2   1  -6 92.3779 19.6040   1
   2  -1  -6 73.9808 13.2834  -2
  -2   1  -6 73.9808 13.2834   1
   2  -1  -6 79.7357 17.9047  -2
  -2   1  -6 79.7357 17.9047   1
  -2   1   6 70.6336 15.8732  -2
   2  -1   6 70.6336 15.8732   1
  -2   1   6 78.0050 14.4135  -2
   2  -1   6 78.0050 14.4135   1
  -2   1   6 75.7473 17.7132  -2
   2  -1   6 75.7473 17.7132   1
   3  -1  -6 1420.77 56.8569  -2
  -3   1  -6 1420.77 56.8569   1
   3  -1  -6 1241.14 66.3749  -2
  -3   1  -6 1241.14 66.3749   1
   3  -1  -6 1283.01 54.6912  -2
  -3   1  -6 1283.01 54.6912   1
  -3   1   6 1271.35 57.0779  -2
   3  -1   6 1271.35 57.0779   1
  -3   1   6 1284.81 56.2941  -2
   3  -1   6 1284.81 56.2941   1
  -3   1   6 1368.08 68.3210  -2
   3  -1   6 1368.08 68.3210   1
   4  -1  -6 69.0359 13.6072  -2
  -4   1  -6 69.0359 13.6072   1
   4  -1  -6 57.5933 17.4252  -2
  -4   1  -6 57.5933 17.4252   1
  -4   1   6 113.762 15.6190  -2
   4  -1   6 113.762 15.6190   1
  -4   1   6 99.2600 15.8096  -2
   4  -1   6 99.2600 15.8096   1
   5  -1  -6 618.763 36.7071  -2
  -5   1  -6 618.763 36.7071   1
   5  -1  -6 522.550 46.0063  -2
  -5   1  -6 522.550 46.0063   1
  -5   1   6 591.265 37.2340  -2
   5  -1   6 591.265 37.2340   1
  -5   1   6 597.605 38.2964  -2
   5  -1   6 597.605 38.2964   1
   6  -1  -6 287.383 40.2003  -2
  -6   1  -6 287.383 40.2003   1
   6  -1  -6 343.818 30.3516  -2
  -6   1  -6 343.818 30.3516   1
  -6   1   6 346.659 30.6104  -2
   6  -1   6 346.659 30.6104   1
   7  -1  -6 91.3818 23.7656  -2
  -7   1  -6 91.3818 23.7656   1
  -7   0   6 19.2545 14.5497   1
  -7   0   6 50.0844 17.0466   1
  -6   0   6 0.26375 9.13706   1
  -6   0   6 7.99465 11.8227   1
   5   0  -6 154.943 18.7793   1
   5   0  -6 116.477 15.7216   1
  -5   0   6 154.001 22.5731   1
  -5   0   6 147.354 19.1938   1
  -5   0   6 176.709 23.0258   1
  -4   0  -6 351.409 25.0461  -2
   4   0  -6 351.409 25.0461   1
  -4   0   6 73.5586 16.1389   1
  -4   0   6 78.8550 16.5725   1
  -4   0   6 94.3752 14.9443   1
  -3   0  -6 127.156 17.0182  -2
   3   0  -6 127.156 17.0182   1
  -3   0  -6 99.9198 14.8287  -2
   3   0  -6 99.9198 14.8287   1
   3   0   6 100.684 16.4618  -2
  -3   0   6 100.684 16.4618   1
   3   0   6 117.634 18.3742  -2
  -3   0   6 117.634 18.3742   1
   3   0   6 107.213 18.8441  -2
  -3   0   6 107.213 18.8441   1
  -2   0  -6 20.3697 10.7561  -2
   2   0  -6 20.3697 10.7561   1
  -2   0  -6 2.89168 10.4271  -2
   2   0  -6 2.89168 10.4271   1
  -2   0  -6 34.2301 13.6222  -2
   2   0  -6 34.2301 13.6222   1
  -2   0  -6 17.6544 10.0879  -2
   2   0  -6 17.6544 10.0879   1
   2   0   6 20.6472 12.6072  -2
  -2   0   6 20.6472 12.6072   1
   2   0   6 9.48844 13.7126  -2
  -2   0   6 9.48844 13.7126   1
   2   0   6 13.1468 11.0806  -2
  -2   0   6 13.1468 11.0806   1
   2   0   6 20.4927 11.4086  -2
  -2   0   6 20.4927 11.4086   1
   2   0   6 -7.5400 12.9536  -2
  -2   0   6 -7.5400 12.9536   1
  -1   0  -6 671.533 33.1696  -2
   1   0  -6 671.533 33.1696   1
  -1   0  -6 640.140 34.2837  -2
   1   0  -6 640.140 34.2837   1
  -1   0  -6 744.409 33.6374  -2
   1   0  -6 744.409 33.6374   1
  -1   0  -6 748.285 39.9622  -2
   1   0  -6 748.285 39.9622   1
   1   0   6 712.641 37.5792  -2
  -1   0   6 712.641 37.5792   1
   1   0   6 697.957 40.9536  -2
  -1   0   6 697.957 40.9536   1
   1   0   6 705.050 37.6845  -2
  -1   0   6 705.050 37.6845   1
   1   0   6 688.649 34.2713  -2
  -1   0   6 688.649 34.2713   1
   0   0  -6 95.9345 11.6425  -2
   0   0  -6 95.9345 11.6425   1
   0   0  -6 68.1576 13.3577  -2
   0   0  -6 68.1576 13.3577   1
   0   0  -6 76.5024 11.1215  -2
   0   0  -6 76.5024 11.1215   1
   0   0  -6 91.8181 13.7142  -2
   0   0  -6 91.8181 13.7142   1
   0   0   6 73.7628 13.8869  -2
   0   0   6 73.7628 13.8869   1
   0   0   6 87.7274 15.4349  -2
   0   0   6 87.7274 15.4349   1
   0   0   6 82.2153 12.2720  -2
   0   0   6 82.2153 12.2720   1
   0   0   6 84.4305 13.5936  -2
   0   0   6 84.4305 13.5936   1
   1   0  -6 722.617 42.0279  -2
  -1   0  -6 722.617 42.0279   1
   1   0  -6 637.115 32.1339  -2
  -1   0  -6 637.115 32.1339   1
   1   0  -6 656.158 31.8265  -2
  -1   0  -6 656.158 31.8265   1
   1   0  -6 678.542 39.0992  -2
  -1   0  -6 678.542 39.0992   1
  -1   0   6 673.537 26.5468  -2
   1   0   6 673.537 26.5468   1
  -1   0   6 640.267 34.9916  -2
   1   0   6 640.267 34.9916   1
  -1   0   6 633.398 38.7363  -2
   1   0   6 633.398 38.7363   1
  -1   0   6 653.425 33.4555  -2
   1   0   6 653.425 33.4555   1
  -1   0   6 643.823 41.1606  -2
   1   0   6 643.823 41.1606   1
   2   0  -6 8.65490 10.8575  -2
  -2   0  -6 8.65490 10.8575   1
   2   0  -6 3.13070 12.8902  -2
  -2   0  -6 3.13070 12.8902   1
   2   0  -6 -1.2910 9.88540  -2
  -2   0  -6 -1.2910 9.88540   1
   2   0  -6 9.80459 14.5607  -2
  -2   0  -6 9.80459 14.5607   1
  -2   0   6 22.9829 10.8647  -2
   2   0   6 22.9829 10.8647   1
  -2   0   6 -0.5985 14.6495  -2
   2   0   6 -0.5985 14.6495   1
  -2   0   6 24.5795 13.8693  -2
   2   0   6 24.5795 13.8693   1
   3   0  -6 73.9265 15.4693  -2
  -3   0  -6 73.9265 15.4693   1
   3   0  -6 84.6286 21.7990  -2
  -3   0  -6 84.6286 21.7990   1
   3   0  -6 94.6803 16.3494  -2
  -3   0  -6 94.6803 16.3494   1
  -3   0   6 57.8850 16.2078  -2
   3   0   6 57.8850 16.2078   1
  -3   0   6 74.6035 15.7453  -2
   3   0   6 74.6035 15.7453   1
  -3   0   6 96.8209 22.5151  -2
   3   0   6 96.8209 22.5151   1
   4   0  -6 347.504 27.1816  -2
  -4   0  -6 347.504 27.1816   1
  -4   0   6 328.367 28.2109  -2
   4   0   6 328.367 28.2109   1
  -5   0  -6 114.739 17.3526   1
  -5   0  -6 79.4236 22.0195   1
   5   0   6 104.240 16.2443   1
   5   0   6 106.609 16.1985   1
  -6   0  -6 220.276 24.0255   1
  -6   0  -6 237.298 31.6011   1
  -7   0  -6 223.348 27.3415   1
   8   0  -5 256.570 35.5636  -2
  -8   0  -6 256.570 35.5636   1
   7  -1   6 86.6654 27.4527  -2
  -7   1   6 86.6654 27.4527   1
   6  -1   6 398.366 37.3088  -2
  -6   1   6 398.366 37.3088   1
   6  -1   6 350.760 29.1186  -2
  -6   1   6 350.760 29.1186   1
   6  -1   6 380.891 35.3974  -2
  -6   1   6 380.891 35.3974   1
  -5   1  -6 714.251 41.6985  -2
   5  -1  -6 714.251 41.6985   1
  -5   1  -6 639.154 36.2440  -2
   5  -1  -6 639.154 36.2440   1
   5  -1   6 592.495 35.4347  -2
  -5   1   6 592.495 35.4347   1
   5  -1   6 648.984 43.5442  -2
  -5   1   6 648.984 43.5442   1
   5  -1   6 567.681 39.7199  -2
  -5   1   6 567.681 39.7199   1
  -4   1  -6 73.7550 14.4292  -2
   4  -1  -6 73.7550 14.4292   1
  -4   1  -6 76.4547 13.2201  -2
   4  -1  -6 76.4547 13.2201   1
   4  -1   6 68.9878 16.2990  -2
  -4   1   6 68.9878 16.2990   1
   4  -1   6 63.2725 15.0753  -2
  -4   1   6 63.2725 15.0753   1
   4  -1   6 98.1347 13.0178  -2
  -4   1   6 98.1347 13.0178   1
  -3   1  -6 1426.71 57.6685  -2
   3  -1  -6 1426.71 57.6685   1
  -3   1  -6 1360.09 58.7965  -2
   3  -1  -6 1360.09 58.7965   1
   3  -1   6 1451.56 67.3131  -2
  -3   1   6 1451.56 67.3131   1
   3  -1   6 1369.01 57.2516  -2
  -3   1   6 1369.01 57.2516   1
   3  -1   6 1420.14 62.3936  -2
  -3   1   6 1420.14 62.3936   1
  -2   1  -6 84.2876 13.8860  -2
   2  -1  -6 84.2876 13.8860   1
  -2   1  -6 92.3322 12.1421  -2
   2  -1  -6 92.3322 12.1421   1
  -2   1  -6 76.9488 14.5301  -2
   2  -1  -6 76.9488 14.5301   1
  -2   1  -6 78.4355 15.2445  -2
   2  -1  -6 78.4355 15.2445   1
   2  -1   6 85.1510 17.4248  -2
  -2   1   6 85.1510 17.4248   1
   2  -1   6 102.368 17.1958  -2
  -2   1   6 102.368 17.1958   1
   2  -1   6 99.0168 15.0091  -2
  -2   1   6 99.0168 15.0091   1
   2  -1   6 65.8769 11.3934  -2
  -2   1   6 65.8769 11.3934   1
  -1   1  -6 488.362 27.6339  -2
   1  -1  -6 488.362 27.6339   1
  -1   1  -6 522.860 29.8590  -2
   1  -1  -6 522.860 29.8590   1
  -1   1  -6 522.855 27.9489  -2
   1  -1  -6 522.855 27.9489   1
  -1   1  -6 501.634 32.2828  -2
   1  -1  -6 501.634 32.2828   1
   1  -1   6 521.366 32.1139  -2
  -1   1   6 521.366 32.1139   1
   1  -1   6 503.608 30.7797  -2
  -1   1   6 503.608 30.7797   1
   1  -1   6 489.127 30.2755  -2
  -1   1   6 489.127 30.2755   1
   0   1  -6 1536.66 58.1214  -2
   0  -1  -6 1536.66 58.1214   1
   0   1  -6 1487.25 61.1793  -2
   0  -1  -6 1487.25 61.1793   1
   0   1  -6 1416.26 56.5355  -2
   0  -1  -6 1416.26 56.5355   1
   0   1  -6 1384.57 65.2799  -2
   0  -1  -6 1384.57 65.2799   1
   0  -1   6 1418.99 60.3605  -2
   0   1   6 1418.99 60.3605   1
   0  -1   6 1488.20 62.5673  -2
   0   1   6 1488.20 62.5673   1
   0  -1   6 1455.53 68.6652  -2
   0   1   6 1455.53 68.6652   1
   0  -1   6 1404.92 57.6994  -2
   0   1   6 1404.92 57.6994   1
   1   1  -6 1486.74 58.5035  -2
  -1  -1  -6 1486.74 58.5035   1
   1   1   6 140.588 15.7940   1
   1   1   6 149.315 19.0015   1
   1   1   6 108.279 16.0216   1
   1   1   6 131.033 10.2785   1
   1   1   6 153.599 14.9884   1
  -2  -1  -6 56.8176 14.2830   1
  -2  -1  -6 44.7390 10.5160   1
  -2  -1  -6 37.3026 9.86287   1
  -2  -1  -6 53.6186 14.0813   1
   2   1   6 30.1423 9.37302   1
   2   1   6 43.4223 8.46017   1
   2   1   6 32.8319 9.34950   1
   2   1   6 32.4078 11.2828   1
  -3  -1  -6 106.606 18.2408   1
  -3  -1  -6 99.9023 13.8063   1
  -3  -1  -6 124.285 14.9552   1
   3   1   6 109.502 14.2960   1
   3   1   6 117.557 14.2219   1
  -4  -1  -6 215.585 26.9707   1
  -4  -1  -6 227.296 20.6680   1
  -4  -1  -6 244.358 20.6957   1
   4   1   6 250.609 20.5044   1
   4   1   6 255.350 21.4891   1
   5   1  -5 33.8824 16.8483  -2
  -5  -1  -6 33.8824 16.8483   1
  -5  -1   5 43.1295 16.4286  -2
   5   1   6 43.1295 16.4286   1
   6   1  -5 734.933 44.9340  -2
  -6  -1  -6 734.933 44.9340   1
   6   1  -5 930.107 64.1304  -2
  -6  -1  -6 930.107 64.1304   1
  -6  -1   5 829.801 48.3393  -2
   6   1   6 829.801 48.3393   1
   7   1  -5 150.085 25.3002  -2
  -7  -1  -6 150.085 25.3002   1
   8   1  -5 519.887 41.8393  -2
  -8  -1  -6 519.887 41.8393   1
   7  -2   6 83.6444 24.7881  -2
  -7   2   6 83.6444 24.7881   1
   7  -2   6 88.3941 23.0129  -2
  -7   2   6 88.3941 23.0129   1
  -6   2  -6 14.7777 15.0468  -2
   6  -2  -6 14.7777 15.0468   1
   6  -2   6 7.48187 20.1060  -2
  -6   2   6 7.48187 20.1060   1
  -5   2  -6 178.226 22.4639  -2
   5  -2  -6 178.226 22.4639   1
   5  -2   6 215.599 20.7667  -2
  -5   2   6 215.599 20.7667   1
   5  -2   6 271.980 29.2851  -2
  -5   2   6 271.980 29.2851   1
   4  -2  -6 61.9923 14.0480   1
   4  -2  -6 50.9884 11.8842   1
  -4   2   6 72.8462 15.1718   1
  -4   2   6 47.5165 13.3950   1
  -4   2   6 75.7403 11.7468   1
   3  -2  -6 68.8557 12.6289   1
   3  -2  -6 53.8754 11.2066   1
   3  -2  -6 56.4829 12.4305   1
  -3   2   6 57.8573 14.3668   1
  -3   2   6 58.4411 13.6788   1
  -3   2   6 61.0947 9.81378   1
   2  -2  -6 116.599 13.4808   1
   2  -2  -6 107.518 13.4031   1
   2  -2  -6 92.3646 13.7630   1
   2  -2  -6 115.716 10.6635   1
  -2   2   6 135.842 16.9561   1
  -2   2   6 119.023 15.8277   1
  -2   2   6 137.479 13.3430   1
  -2   2   6 134.435 16.8299   1
   1  -2  -6 244.167 18.7898   1
   1  -2  -6 264.354 21.5211   1
   1  -2  -6 228.952 17.2568   1
   1  -2  -6 247.916 16.8513   1
  -1   2   6 273.649 23.5555   1
  -1   2   6 259.697 20.2735   1
  -1   2   6 223.147 20.1159   1
  -1   2   6 253.190 18.0858   1
   0  -2  -6 436.203 25.2008   1
   0  -2  -6 421.272 25.4595   1
   0  -2  -6 428.887 24.0775   1
   0  -2  -6 420.374 20.6817   1
   0  -2  -6 436.817 29.3956   1
   0  -2   5 553.125 36.4609  -2
   0   2   6 553.125 36.4609   1
   0  -2   5 587.453 33.0004  -2
   0   2   6 587.453 33.0004   1
   1   2  -5 614.343 30.7769  -2
  -1  -2  -6 614.343 30.7769   1
   1   2  -5 586.992 31.5359  -2
  -1  -2  -6 586.992 31.5359   1
  -1  -2   5 645.855 36.4148  -2
   1   2   6 645.855 36.4148   1
  -1  -2   5 559.440 32.2426  -2
   1   2   6 559.440 32.2426   1
  -1  -2   5 596.270 32.2680  -2
   1   2   6 596.270 32.2680   1
  -1  -2   5 568.140 38.3847  -2
   1   2   6 568.140 38.3847   1
   2   2  -5 624.607 32.6394  -2
  -2  -2  -6 624.607 32.6394   1
   2   2  -5 678.315 34.6578  -2
  -2  -2  -6 678.315 34.6578   1
  -2  -2   5 639.149 31.9233  -2
   2   2   6 639.149 31.9233   1
  -2  -2   5 683.574 35.4790  -2
   2   2   6 683.574 35.4790   1
  -2  -2   5 652.665 33.1624  -2
   2   2   6 652.665 33.1624   1
   3   2  -5 238.229 20.9499  -2
  -3  -2  -6 238.229 20.9499   1
   3   2  -5 238.661 27.4405  -2
  -3  -2  -6 238.661 27.4405   1
   3   2  -5 255.671 20.9343  -2
  -3  -2  -6 255.671 20.9343   1
  -3  -2   5 203.572 20.3378  -2
   3   2   6 203.572 20.3378   1
  -3  -2   5 259.390 19.8239  -2
   3   2   6 259.390 19.8239   1
  -3  -2   5 259.130 20.5215  -2
   3   2   6 259.130 20.5215   1
   4   2  -5 1017.35 48.3690  -2
  -4  -2  -6 1017.35 48.3690   1
   4   2  -5 1130.31 50.8835  -2
  -4  -2  -6 1130.31 50.8835   1
   4   2  -5 1165.10 63.5991  -2
  -4  -2  -6 1165.10 63.5991   1
  -4  -2   5 1095.99 47.4816  -2
   4   2   6 1095.99 47.4816   1
  -4  -2   5 1131.07 51.7295  -2
   4   2   6 1131.07 51.7295   1
  -4  -2   5 1075.76 51.4434  -2
   4   2   6 1075.76 51.4434   1
   5   2  -5 288.125 32.9495  -2
  -5  -2  -6 288.125 32.9495   1
   5   2  -5 242.684 22.3752  -2
  -5  -2  -6 242.684 22.3752   1
  -5  -2   5 240.631 23.4181  -2
   5   2   6 240.631 23.4181   1
  -5  -2   5 233.097 19.9633  -2
   5   2   6 233.097 19.9633   1
   6   2  -5 534.660 49.0103  -2
  -6  -2  -6 534.660 49.0103   1
   6   2  -5 522.776 35.8288  -2
  -6  -2  -6 522.776 35.8288   1
  -6  -2   5 534.946 37.8722  -2
   6   2   6 534.946 37.8722   1
   7   2  -5 9.10348 16.7704  -2
  -7  -2  -6 9.10348 16.7704   1
   8   2  -5 524.863 43.1377  -2
  -8  -2  -6 524.863 43.1377   1
  -7   3   6 150.500 24.4991   1
   6  -3  -6 85.1245 17.0386   1
  -6   3   6 45.1813 15.2505   1
  -6   3   6 84.8769 18.4084   1
   5  -3  -6 60.6015 14.2972   1
  -5   3   6 78.0822 17.4054   1
  -5   3   6 44.6870 14.2680   1
  -5   3   6 64.3054 11.3757   1
   4  -3  -6 84.2988 14.5918   1
   4  -3  -6 133.280 18.5789   1
  -4   3   6 96.1629 11.3532   1
  -4   3   6 96.2020 17.7643   1
  -4   3   6 50.0033 14.4008   1
   3  -3  -6 68.3969 12.1556   1
   3  -3  -6 110.037 15.6819   1
   3  -3  -6 101.825 13.9083   1
   3  -3   5 226.866 23.1637  -2
  -3   3   6 226.866 23.1637   1
  -2   3  -5 116.108 17.5070  -2
   2  -3  -6 116.108 17.5070   1
  -2   3  -5 119.579 17.2664  -2
   2  -3  -6 119.579 17.2664   1
  -2   3  -5 108.382 15.8317  -2
   2  -3  -6 108.382 15.8317   1
   2  -3   5 114.392 18.2292  -2
  -2   3   6 114.392 18.2292   1
   2  -3   5 117.058 12.3058  -2
  -2   3   6 117.058 12.3058   1
  -1   3  -5 44.9092 11.9277  -2
   1  -3  -6 44.9092 11.9277   1
  -1   3  -5 44.5565 13.1809  -2
   1  -3  -6 44.5565 13.1809   1
  -1   3  -5 49.8988 8.31207  -2
   1  -3  -6 49.8988 8.31207   1
  -1   3  -5 55.8609 11.8178  -2
   1  -3  -6 55.8609 11.8178   1
   1  -3   5 41.7153 9.96841  -2
  -1   3   6 41.7153 9.96841   1
   1  -3   5 91.6798 15.0696  -2
  -1   3   6 91.6798 15.0696   1
   1  -3   5 50.3011 14.1048  -2
  -1   3   6 50.3011 14.1048   1
   1  -3   5 35.3211 12.4979  -2
  -1   3   6 35.3211 12.4979   1
   0   3  -5 629.913 31.0212  -2
   0  -3  -6 629.913 31.0212   1
   0   3  -5 589.167 34.0081  -2
   0  -3  -6 589.167 34.0081   1
   0   3  -5 658.722 36.1793  -2
   0  -3  -6 658.722 36.1793   1
   0   3  -5 598.996 29.8915  -2
   0  -3  -6 598.996 29.8915   1
   0   3  -5 597.164 28.8556  -2
   0  -3  -6 597.164 28.8556   1
   0   3  -5 664.067 33.4559  -2
   0  -3  -6 664.067 33.4559   1
   0  -3   5 698.197 32.1072  -2
   0   3   6 698.197 32.1072   1
   0  -3   5 577.243 32.7186  -2
   0   3   6 577.243 32.7186   1
   0  -3   5 622.486 37.1707  -2
   0   3   6 622.486 37.1707   1
   0  -3   5 599.430 30.7719  -2
   0   3   6 599.430 30.7719   1
   1   3  -5 1269.52 51.6410  -2
  -1  -3  -6 1269.52 51.6410   1
   1   3  -5 1334.21 55.3686  -2
  -1  -3  -6 1334.21 55.3686   1
   1   3  -5 1417.87 62.3615  -2
  -1  -3  -6 1417.87 62.3615   1
   1   3  -5 1198.09 52.2716  -2
  -1  -3  -6 1198.09 52.2716   1
   1   3  -5 1314.93 55.6441  -2
  -1  -3  -6 1314.93 55.6441   1
   1   3  -5 1211.63 50.0199  -2
  -1  -3  -6 1211.63 50.0199   1
  -1  -3   5 1338.96 54.5775  -2
   1   3   6 1338.96 54.5775   1
  -1  -3   5 1328.93 61.7704  -2
   1   3   6 1328.93 61.7704   1
  -1  -3   5 1249.91 53.3616  -2
   1   3   6 1249.91 53.3616   1
   2   3  -5 2757.28 97.4599  -2
  -2  -3  -6 2757.28 97.4599   1
   2   3  -5 2467.86 91.6465  -2
  -2  -3  -6 2467.86 91.6465   1
   2   3  -5 2693.11 102.618  -2
  -2  -3  -6 2693.11 102.618   1
   2   3  -5 2577.60 107.361  -2
  -2  -3  -6 2577.60 107.361   1
   2   3  -5 2415.16 90.5264  -2
  -2  -3  -6 2415.16 90.5264   1
  -2  -3   5 2632.08 93.7542  -2
   2   3   6 2632.08 93.7542   1
  -2  -3   5 2685.49 95.3136  -2
   2   3   6 2685.49 95.3136   1
   3   3  -5 603.272 36.1687  -2
  -3  -3  -6 603.272 36.1687   1
   3   3  -5 556.189 39.8953  -2
  -3  -3  -6 556.189 39.8953   1
   3   3  -5 533.262 30.3962  -2
  -3  -3  -6 533.262 30.3962   1
   3   3  -5 536.672 31.7876  -2
  -3  -3  -6 536.672 31.7876   1
  -3  -3   5 541.948 32.9659  -2
   3   3   6 541.948 32.9659   1
  -3  -3   5 602.326 33.4989  -2
   3   3   6 602.326 33.4989   1
   4   3  -5 3155.38 117.171  -2
  -4  -3  -6 3155.38 117.171   1
   4   3  -5 3414.25 118.059  -2
  -4  -3  -6 3414.25 118.059   1
   4   3  -5 3363.02 135.918  -2
  -4  -3  -6 3363.02 135.918   1
  -4  -3   5 3410.23 125.075  -2
   4   3   6 3410.23 125.075   1
  -4  -3   5 3344.49 118.488  -2
   4   3   6 3344.49 118.488   1
   5   3  -5 294.234 26.6644  -2
  -5  -3  -6 294.234 26.6644   1
  -5  -3   5 261.943 27.3674  -2
   5   3   6 261.943 27.3674   1
  -5  -3   5 259.064 26.8872  -2
   5   3   6 259.064 26.8872   1
  -6  -3  -6 11.2622 9.02762   1
  -6  -3  -6 2.70876 13.8029   1
   6   3   6 17.2500 10.5124   1
  -7  -3  -6 11.1739 10.2550   1
  -8  -3  -6 143.717 25.0445   1
  -7   4   6 37.4343 16.5644   1
  -6   4  -5 48.3924 19.9122  -2
   6  -4  -6 48.3924 19.9122   1
  -6   4   6 18.9467 11.7330   1
  -5   4  -5 412.667 31.1747  -2
   5  -4  -6 412.667 31.1747   1
   5  -4   5 360.430 31.5289  -2
  -5   4   6 360.430 31.5289   1
  -4   4  -5 83.5929 11.3017  -2
   4  -4  -6 83.5929 11.3017   1
  -4   4  -5 94.7598 16.0309  -2
   4  -4  -6 94.7598 16.0309   1
   4  -4   5 64.1756 8.33299  -2
  -4   4   6 64.1756 8.33299   1
   4  -4   5 46.0927 14.3184  -2
  -4   4   6 46.0927 14.3184   1
   4  -4   5 74.4300 16.2071  -2
  -4   4   6 74.4300 16.2071   1
  -3   4  -5 181.880 18.2395  -2
   3  -4  -6 181.880 18.2395   1
  -3   4  -5 168.875 17.3064  -2
   3  -4  -6 168.875 17.3064   1
  -3   4  -5 232.674 23.0467  -2
   3  -4  -6 232.674 23.0467   1
   3  -4   5 199.768 19.6818  -2
  -3   4   6 199.768 19.6818   1
   3  -4   5 226.056 21.0089  -2
  -3   4   6 226.056 21.0089   1
  -2   4  -5 3393.70 119.496  -2
   2  -4  -6 3393.70 119.496   1
  -2   4  -5 3244.62 114.834  -2
   2  -4  -6 3244.62 114.834   1
  -2   4  -5 3324.87 112.860  -2
   2  -4  -6 3324.87 112.860   1
   2  -4   5 2962.40 112.595  -2
  -2   4   6 2962.40 112.595   1
   2  -4   5 3161.26 121.938  -2
  -2   4   6 3161.26 121.938   1
  -1   4  -5 937.923 33.7954  -2
   1  -4  -6 937.923 33.7954   1
  -1   4  -5 985.822 46.9997  -2
   1  -4  -6 985.822 46.9997   1
  -1   4  -5 976.171 45.7505  -2
   1  -4  -6 976.171 45.7505   1
  -1   4  -5 925.383 44.7519  -2
   1  -4  -6 925.383 44.7519   1
  -1   4  -5 950.973 41.7872  -2
   1  -4  -6 950.973 41.7872   1
   1  -4   5 848.592 45.4661  -2
  -1   4   6 848.592 45.4661   1
   1  -4   5 981.214 48.7677  -2
  -1   4   6 981.214 48.7677   1
   0   4  -5 948.666 44.6498  -2
   0  -4  -6 948.666 44.6498   1
   0   4  -5 951.106 41.1581  -2
   0  -4  -6 951.106 41.1581   1
   0   4  -5 941.983 40.3680  -2
   0  -4  -6 941.983 40.3680   1
   0   4  -5 1021.84 47.2581  -2
   0  -4  -6 1021.84 47.2581   1
   0   4  -5 951.410 47.2367  -2
   0  -4  -6 951.410 47.2367   1
   0   4  -5 872.032 41.5823  -2
   0  -4  -6 872.032 41.5823   1
   0  -4   5 899.137 44.8657  -2
   0   4   6 899.137 44.8657   1
   0  -4   5 962.525 49.2978  -2
   0   4   6 962.525 49.2978   1
   1   4  -5 131.316 19.9208  -2
  -1  -4  -6 131.316 19.9208   1
   1   4  -5 171.599 17.2384  -2
  -1  -4  -6 171.599 17.2384   1
   1   4  -5 162.303 16.6540  -2
  -1  -4  -6 162.303 16.6540   1
   1   4  -5 159.667 19.3156  -2
  -1  -4  -6 159.667 19.3156   1
  -1  -4   5 147.457 14.6794  -2
   1   4   6 147.457 14.6794   1
  -1  -4   5 110.773 18.1771  -2
   1   4   6 110.773 18.1771   1
  -1  -4   5 139.628 15.1439  -2
   1   4   6 139.628 15.1439   1
   2   4  -5 796.999 37.3600  -2
  -2  -4  -6 796.999 37.3600   1
   2   4   6 549.499 30.9669   1
   2   4   6 551.125 33.0789   1
   2   4   6 572.380 31.6873   1
   2   4   6 561.182 24.4258   1
  -3  -4  -6 333.221 22.7294   1
  -3  -4  -6 320.975 28.8980   1
  -3  -4  -6 454.193 26.9598   1
  -3  -4  -6 391.989 27.0984   1
   3   4   6 389.999 30.5657   1
   3   4   6 370.095 26.2536   1
   3   4   6 391.132 18.8341   1
   3   4   6 359.308 25.3388   1
  -4  -4  -6 -0.7747 7.98442   1
  -4  -4  -6 4.70706 6.59963   1
  -4  -4  -6 1.43796 5.54172   1
  -4  -4  -6 -0.8240 8.91216   1
   4   4   6 -1.5052 7.28475   1
   4   4   6 14.6219 8.55803   1
   4   4   6 0.33941 4.26180   1
  -5  -4  -6 47.9361 13.2142   1
  -5  -4  -6 65.6977 20.3474   1
  -5  -4  -6 50.0082 12.8297   1
   5   4   6 86.0938 15.2354   1
   6   4  -4 77.4901 20.4854  -2
  -6  -4  -6 77.4901 20.4854   1
  -6  -4   4 65.0642 21.4046  -2
   6   4   6 65.0642 21.4046   1
   7   4  -4 1175.06 60.3253  -2
  -7  -4  -6 1175.06 60.3253   1
   8   4  -4 234.803 30.6142  -2
  -8  -4  -6 234.803 30.6142   1
  -7   5  -5 9.94458 15.6316  -2
   7  -5  -6 9.94458 15.6316   1
  -6   5  -5 238.402 27.4594  -2
   6  -5  -6 238.402 27.4594   1
   6  -5   5 295.421 30.3607  -2
  -6   5   6 295.421 30.3607   1
  -5   5  -5 277.423 27.9614  -2
   5  -5  -6 277.423 27.9614   1
   5  -5   5 304.203 29.6882  -2
  -5   5   6 304.203 29.6882   1
  -4   5  -5 247.314 24.8644  -2
   4  -5  -6 247.314 24.8644   1
  -4   5   6 121.902 17.6069   1
   3  -5  -6 412.913 30.5840   1
   3  -5  -6 404.884 25.8949   1
   3  -5  -6 355.886 25.5742   1
  -3   5   6 378.910 27.5237   1
   2  -5  -6 1071.63 47.8395   1
   2  -5  -6 1074.21 50.6338   1
   2  -5  -6 1048.24 46.6513   1
   2  -5  -6 1047.85 51.1224   1
  -2   5   6 1077.00 51.5931   1
   1  -5  -6 133.922 16.9558   1
   1  -5  -6 117.195 13.7743   1
   1  -5  -6 125.623 13.8829   1
   1  -5  -6 138.423 15.6303   1
  -1   5   6 106.339 16.4704   1
  -1   5   6 128.549 16.0737   1
  -1   5   6 125.228 12.6013   1
   0  -5  -6 116.900 14.5298   1
   0  -5  -6 138.141 11.7559   1
   0  -5  -6 141.808 15.9097   1
   0  -5  -6 130.942 13.0242   1
   0  -5  -6 128.497 16.3899   1
   0  -5  -6 150.077 16.7347   1
   0   5   6 119.242 10.2240   1
   0   5   6 121.680 16.2594   1
   0   5   6 112.252 15.6895   1
  -1  -5  -6 20.6546 8.28117   1
  -1  -5  -6 25.6260 10.4572   1
  -1  -5  -6 18.2668 7.18941   1
  -1  -5  -6 13.8237 6.07936   1
  -1  -5  -6 19.5560 7.74158   1
  -1  -5  -6 16.3025 8.36014   1
   1   5   6 14.4199 7.45543   1
   2   5  -4 328.837 24.5917  -2
  -2  -5  -6 328.837 24.5917   1
   2   5  -4 311.326 25.4956  -2
  -2  -5  -6 311.326 25.4956   1
   2   5  -4 269.156 20.4377  -2
  -2  -5  -6 269.156 20.4377   1
  -2  -5   4 290.237 24.2113  -2
   2   5   6 290.237 24.2113   1
  -2  -5   4 342.738 26.3956  -2
   2   5   6 342.738 26.3956   1
   3   5  -4 91.2674 17.8460  -2
  -3  -5  -6 91.2674 17.8460   1
   3   5  -4 83.7710 15.6723  -2
  -3  -5  -6 83.7710 15.6723   1
   3   5  -4 97.9875 15.1249  -2
  -3  -5  -6 97.9875 15.1249   1
  -3  -5   4 62.9930 15.4270  -2
   3   5   6 62.9930 15.4270   1
  -3  -5   4 71.8946 19.2704  -2
   3   5   6 71.8946 19.2704   1
   4   5  -4 299.894 33.8595  -2
  -4  -5  -6 299.894 33.8595   1
   4   5  -4 238.430 22.2411  -2
  -4  -5  -6 238.430 22.2411   1
   4   5  -4 228.874 20.9404  -2
  -4  -5  -6 228.874 20.9404   1
  -4  -5   4 252.501 25.0084  -2
   4   5   6 252.501 25.0084   1
  -4  -5   4 218.352 23.3603  -2
   4   5   6 218.352 23.3603   1
   5   5  -4 52.9205 12.9092  -2
  -5  -5  -6 52.9205 12.9092   1
   5   5  -4 23.8078 20.0640  -2
  -5  -5  -6 23.8078 20.0640   1
   5   5  -4 31.5952 14.1619  -2
  -5  -5  -6 31.5952 14.1619   1
  -5  -5   4 75.5254 17.1572  -2
   5   5   6 75.5254 17.1572   1
   6   5  -4 1140.15 72.3336  -2
  -6  -5  -6 1140.15 72.3336   1
   6   5  -4 1055.06 53.0420  -2
  -6  -5  -6 1055.06 53.0420   1
  -6  -5   4 1128.09 55.7578  -2
   6   5   6 1128.09 55.7578   1
   7   5  -4 905.258 50.6604  -2
  -7  -5  -6 905.258 50.6604   1
   6  -6  -6 489.631 37.1924   1
   5  -6  -6 -4.5931 6.74222   1
  -5   6   6 19.1853 11.2347   1
   4  -6  -6 659.249 37.8575   1
  -4   6   6 627.574 37.8351   1
   3  -6  -6 225.031 18.6404   1
   3  -6  -6 214.475 20.1250   1
  -3   6   6 231.815 21.5445   1
   2  -6  -6 -8.1159 6.11202   1
   2  -6  -6 3.19657 5.75132   1
   2  -6  -6 -2.8890 4.99736   1
   2  -6   4 71.0540 15.4224  -2
  -2   6   6 71.0540 15.4224   1
  -1   6  -4 127.984 15.8343  -2
   1  -6  -6 127.984 15.8343   1
  -1   6  -4 163.998 16.0141  -2
   1  -6  -6 163.998 16.0141   1
  -1   6  -4 168.004 20.8990  -2
   1  -6  -6 168.004 20.8990   1
  -1   6  -4 160.137 19.9698  -2
   1  -6  -6 160.137 19.9698   1
   1  -6   4 154.741 18.6120  -2
  -1   6   6 154.741 18.6120   1
   0   6  -4 12.0183 10.4760  -2
   0  -6  -6 12.0183 10.4760   1
   0   6  -4 0.71330 9.66784  -2
   0  -6  -6 0.71330 9.66784   1
   0   6  -4 7.57781 13.2067  -2
   0  -6  -6 7.57781 13.2067   1
   0   6  -4 15.6277 13.2405  -2
   0  -6  -6 15.6277 13.2405   1
   0   6  -4 19.2806 7.92858  -2
   0  -6  -6 19.2806 7.92858   1
   0  -6   4 0.30300 12.8492  -2
   0   6   6 0.30300 12.8492   1
   1   6  -4 1256.01 51.4624  -2
  -1  -6  -6 1256.01 51.4624   1
   1   6  -4 1377.16 56.9935  -2
  -1  -6  -6 1377.16 56.9935   1
   1   6  -4 1358.57 60.7469  -2
  -1  -6  -6 1358.57 60.7469   1
   1   6  -4 1475.22 58.4589  -2
  -1  -6  -6 1475.22 58.4589   1
   1   6  -4 1310.76 57.4446  -2
  -1  -6  -6 1310.76 57.4446   1
   1   6  -4 1360.10 61.8761  -2
  -1  -6  -6 1360.10 61.8761   1
  -1  -6   4 1289.07 58.6162  -2
   1   6   6 1289.07 58.6162   1
   2   6  -4 1150.39 57.4999  -2
  -2  -6  -6 1150.39 57.4999   1
   2   6  -4 1043.52 44.1164  -2
  -2  -6  -6 1043.52 44.1164   1
   2   6  -4 1141.70 53.7854  -2
  -2  -6  -6 1141.70 53.7854   1
   2   6  -4 1139.15 54.2312  -2
  -2  -6  -6 1139.15 54.2312   1
   2   6  -4 1045.40 48.6633  -2
  -2  -6  -6 1045.40 48.6633   1
   2   6  -4 1078.88 48.4516  -2
  -2  -6  -6 1078.88 48.4516   1
  -2  -6   4 1034.98 49.6200  -2
   2   6   6 1034.98 49.6200   1
   3   6  -4 669.544 36.9212  -2
  -3  -6  -6 669.544 36.9212   1
   3   6  -4 671.982 44.0849  -2
  -3  -6  -6 671.982 44.0849   1
   3   6  -4 699.916 33.7523  -2
  -3  -6  -6 699.916 33.7523   1
  -3  -6   4 695.254 38.1598  -2
   3   6   6 695.254 38.1598   1
   4   6  -4 220.795 20.4042  -2
  -4  -6  -6 220.795 20.4042   1
   4   6  -4 238.055 22.8508  -2
  -4  -6  -6 238.055 22.8508   1
  -4  -6   4 233.316 23.7211  -2
   4   6   6 233.316 23.7211   1
   5   6  -4 705.458 54.9438  -2
  -5  -6  -6 705.458 54.9438   1
   5   6  -4 774.338 41.4492  -2
  -5  -6  -6 774.338 41.4492   1
  -5  -6   4 739.006 43.3828  -2
   5   6   6 739.006 43.3828   1
   6   6  -4 236.410 26.5116  -2
  -6  -6  -6 236.410 26.5116   1
  -6  -6   4 245.913 29.7384  -2
   6   6   6 245.913 29.7384   1
   7   6  -4 276.091 31.4837  -2
  -7  -6  -6 276.091 31.4837   1
  -6   7  -4 113.752 25.4464  -2
   6  -7  -6 113.752 25.4464   1
  -5   7  -4 104.430 21.4040  -2
   5  -7  -6 104.430 21.4040   1
  -4   7  -4 63.9112 16.9471  -2
   4  -7  -6 63.9112 16.9471   1
  -3   7  -4 -7.4512 10.5754  -2
   3  -7  -6 -7.4512 10.5754   1
   3  -7   4 11.5568 10.0957  -2
  -3   7   6 11.5568 10.0957   1
  -2   7  -4 133.454 16.0529  -2
   2  -7  -6 133.454 16.0529   1
   2  -7   4 151.702 16.3703  -2
  -2   7   6 151.702 16.3703   1
  -1   7  -4 13.0399 10.4190  -2
   1  -7  -6 13.0399 10.4190   1
  -1   7  -4 15.6938 8.29807  -2
   1  -7  -6 15.6938 8.29807   1
  -1   7  -4 28.3130 13.0771  -2
   1  -7  -6 28.3130 13.0771   1
   0   7  -4 1298.47 59.4604  -2
   0  -7  -6 1298.47 59.4604   1
   0   7  -4 1385.80 56.7652  -2
   0  -7  -6 1385.80 56.7652   1
   0   7  -4 1269.23 49.3881  -2
   0  -7  -6 1269.23 49.3881   1
   0   7  -4 1303.72 46.5440  -2
   0  -7  -6 1303.72 46.5440   1
   0   7  -4 1342.30 53.5318  -2
   0  -7  -6 1342.30 53.5318   1
   1   7  -4 1427.69 62.8891  -2
  -1  -7  -6 1427.69 62.8891   1
   1   7  -4 1518.93 69.8260  -2
  -1  -7  -6 1518.93 69.8260   1
   1   7  -4 1464.05 57.6931  -2
  -1  -7  -6 1464.05 57.6931   1
   1   7  -4 1593.71 65.4419  -2
  -1  -7  -6 1593.71 65.4419   1
   1   7  -4 1604.78 68.7052  -2
  -1  -7  -6 1604.78 68.7052   1
  -1  -7   4 1574.69 67.6054  -2
   1   7   6 1574.69 67.6054   1
   2   7  -4 1514.37 70.8074  -2
  -2  -7  -6 1514.37 70.8074   1
   2   7  -4 1506.88 63.8857  -2
  -2  -7  -6 1506.88 63.8857   1
   2   7  -4 1428.04 57.5284  -2
  -2  -7  -6 1428.04 57.5284   1
  -2  -7   4 1594.02 67.3410  -2
   2   7   6 1594.02 67.3410   1
   3   7  -4 281.942 22.3289  -2
  -3  -7  -6 281.942 22.3289   1
   3   7   6 216.706 20.7613   1
  -4  -7  -6 407.742 27.3896   1
  -4  -7  -6 394.697 25.4029   1
   4   7   6 376.013 27.9466   1
  -5  -7  -6 34.9430 11.9980   1
  -5  -7  -6 49.2599 13.0958   1
   5   7   6 47.4194 12.8176   1
  -6  -7  -6 116.053 18.2367   1
  -6  -7   3 166.392 26.1672  -2
   6   7   6 166.392 26.1672   1
   7   7  -3 43.0004 20.4342  -2
  -7  -7  -6 43.0004 20.4342   1
  -5   8  -4 454.335 35.3941  -2
   5  -8  -6 454.335 35.3941   1
  -4   8  -4 678.129 41.3792  -2
   4  -8  -6 678.129 41.3792   1
  -3   8  -4 556.584 35.5198  -2
   3  -8  -6 556.584 35.5198   1
   2  -8  -6 40.7447 11.6324   1
   1  -8  -6 359.259 24.3254   1
   1  -8  -6 340.599 22.8046   1
   0  -8  -6 72.6674 11.3074   1
   0  -8  -6 61.3451 8.93733   1
   0  -8  -6 49.1442 14.1583   1
   0  -8  -6 82.8202 15.2827   1
  -1  -8  -6 152.748 13.9529   1
  -1  -8  -6 139.870 17.5879   1
  -1  -8  -6 130.848 20.0944   1
  -1  -8  -6 130.206 17.3414   1
  -1  -8  -6 114.379 12.5116   1
   1   8   6 145.072 18.8018   1
   2   8  -3 69.8780 13.0102  -2
  -2  -8  -6 69.8780 13.0102   1
   2   8  -3 31.9104 19.4805  -2
  -2  -8  -6 31.9104 19.4805   1
   2   8   6 50.6347 13.6213   1
   3   8  -3 343.902 23.7764  -2
  -3  -8  -6 343.902 23.7764   1
   3   8  -3 417.919 36.5443  -2
  -3  -8  -6 417.919 36.5443   1
   3   8  -3 332.033 28.2989  -2
  -3  -8  -6 332.033 28.2989   1
  -3  -8   3 460.307 33.3513  -2
   3   8   6 460.307 33.3513   1
   4   8  -3 313.072 26.5039  -2
  -4  -8  -6 313.072 26.5039   1
   4   8  -3 308.198 23.6522  -2
  -4  -8  -6 308.198 23.6522   1
  -4  -8   3 308.923 27.8118  -2
   4   8   6 308.923 27.8118   1
   5   8  -3 429.505 29.6609  -2
  -5  -8  -6 429.505 29.6609   1
  -5  -8   3 462.271 32.9322  -2
   5   8   6 462.271 32.9322   1
   6   8  -3 119.412 17.8108  -2
  -6  -8  -6 119.412 17.8108   1
   4  -9  -6 403.228 31.2209   1
   3  -9  -6 309.289 25.1877   1
   2  -9  -6 639.386 35.0421   1
  -1   9  -3 334.532 24.7134  -2
   1  -9  -6 334.532 24.7134   1
   0   9  -3 597.080 31.5779  -2
   0  -9  -6 597.080 31.5779   1
   1   9  -3 8.09777 14.7771  -2
  -1  -9  -6 8.09777 14.7771   1
   1   9  -3 22.7565 11.1951  -2
  -1  -9  -6 22.7565 11.1951   1
   2   9  -3 41.5463 14.4533  -2
  -2  -9  -6 41.5463 14.4533   1
   2   9  -3 35.6060 10.4521  -2
  -2  -9  -6 35.6060 10.4521   1
   3   9  -3 334.544 26.0745  -2
  -3  -9  -6 334.544 26.0745   1
   3   9  -3 341.168 21.3859  -2
  -3  -9  -6 341.168 21.3859   1
  -3  -9   3 333.850 28.2743  -2
   3   9   6 333.850 28.2743   1
   4   9  -3 202.283 18.8733  -2
  -4  -9  -6 202.283 18.8733   1
   5   9  -3 466.725 31.1102  -2
  -5  -9  -6 466.725 31.1102   1
  -3  10  -3 196.886 23.0037  -2
   3 -10  -6 196.886 23.0037   1
  -2  10  -3 105.945 16.5660  -2
   2 -10  -6 105.945 16.5660   1
  -1  10  -3 322.866 23.5779  -2
   1 -10  -6 322.866 23.5779   1
   0  10  -3 188.933 17.9439  -2
   0 -10  -6 188.933 17.9439   1
   1  10  -3 760.855 36.2938  -2
  -1 -10  -6 760.855 36.2938   1
   2  10  -3 222.524 19.0172  -2
  -2 -10  -6 222.524 19.0172   1
   3  10  -3 628.513 33.3945  -2
  -3 -10  -6 628.513 33.3945   1
  -4 -10  -6 9.38175 6.86839   1
  -2  11  -3 22.2034 16.4373  -2
   2 -11  -6 22.2034 16.4373   1
  -1  11  -3 373.527 28.2233  -2
   1 -11  -6 373.527 28.2233   1
   0  11  -3 174.116 19.5121  -2
   0 -11  -6 174.116 19.5121   1
  -1 -11  -6 238.602 18.7465   1
  -2 -11  -6 195.692 16.4344   1
   3  11  -2 182.116 19.3793  -2
  -3 -11  -6 182.116 19.3793   1
   2   9  10 0.90238 23.1866  -2
  -2  -9   7 0.90238 23.1866   1
   2   9  10 4.60793 19.1057  -2
  -2  -9   7 4.60793 19.1057   1
   1   9  10 51.8654 22.5457  -2
  -1  -9   7 51.8654 22.5457   1
   0   9  10 62.0527 24.8706  -2
   0  -9   7 62.0527 24.8706   1
  -1   9  10 88.5793 28.4426  -2
   1  -9   7 88.5793 28.4426   1
   2  -9   7 -1.1839 12.2868   1
  -4  -8   7 326.328 33.4144   1
   3   8  10 0.86148 23.6511  -2
  -3  -8   7 0.86148 23.6511   1
   2   8  10 167.681 29.8514  -2
  -2  -8   7 167.681 29.8514   1
  -1  -8   7 -2.1452 11.6800   1
  -1  -8   7 6.80456 9.78112   1
   0  -8   7 136.237 22.4447   1
   0  -8   7 126.248 24.3260   1
  -1   8   9 16.4607 25.5465  -2
   1  -8   7 16.4607 25.5465   1
  -2   8   9 18.9257 24.0751  -2
   2  -8   7 18.9257 24.0751   1
  -3   8   9 48.1744 26.2424  -2
   3  -8   7 48.1744 26.2424   1
  -5  -7   7 36.1680 23.6806   1
  -5  -7   7 43.4979 17.1455   1
  -4  -7   7 3.83665 14.7133   1
  -4  -7   7 2.19278 15.0802   1
  -4  -7   7 1.86117 10.8701   1
   3   7   9 83.2634 24.5700  -2
  -3  -7   7 83.2634 24.5700   1
   2   7   9 122.884 30.3452  -2
  -2  -7   7 122.884 30.3452   1
   2   7   9 124.773 25.9326  -2
  -2  -7   7 124.773 25.9326   1
   1   7   9 310.686 31.7041  -2
  -1  -7   7 310.686 31.7041   1
   1   7   9 287.835 36.0783  -2
  -1  -7   7 287.835 36.0783   1
   0   7   9 86.6540 21.0587  -2
   0  -7   7 86.6540 21.0587   1
   0   7   9 62.6385 21.6524  -2
   0  -7   7 62.6385 21.6524   1
  -1   7   9 -5.1131 16.3644  -2
   1  -7   7 -5.1131 16.3644   1
  -1   7   9 -3.1624 19.5541  -2
   1  -7   7 -3.1624 19.5541   1
  -2   7   9 576.121 41.1909  -2
   2  -7   7 576.121 41.1909   1
  -2   7   9 607.057 36.4808  -2
   2  -7   7 607.057 36.4808   1
  -3   7   9 280.225 27.3382  -2
   3  -7   7 280.225 27.3382   1
  -3   7   9 258.810 29.4736  -2
   3  -7   7 258.810 29.4736   1
  -4   7   9 94.1192 27.3980  -2
   4  -7   7 94.1192 27.3980   1
   5   6   9 -8.2263 32.9266  -2
  -5  -6   7 -8.2263 32.9266   1
   5   6   9 -14.581 21.5001  -2
  -5  -6   7 -14.581 21.5001   1
   4   6   9 25.5614 19.3356  -2
  -4  -6   7 25.5614 19.3356   1
   4   6   9 36.4791 24.4681  -2
  -4  -6   7 36.4791 24.4681   1
   4   6   9 62.3865 24.7705  -2
  -4  -6   7 62.3865 24.7705   1
   3   6   9 62.3441 19.5139  -2
  -3  -6   7 62.3441 19.5139   1
   3   6   9 81.8417 22.2109  -2
  -3  -6   7 81.8417 22.2109   1
  -2  -6  -9 69.1116 17.3971  -2
   2   6  -7 69.1116 17.3971   1
   2   6   9 61.4729 20.9821  -2
  -2  -6   7 61.4729 20.9821   1
   2   6   9 55.8130 16.2004  -2
  -2  -6   7 55.8130 16.2004   1
  -1  -6  -9 309.573 30.6054  -2
   1   6  -7 309.573 30.6054   1
   1   6   9 238.870 30.1129  -2
  -1  -6   7 238.870 30.1129   1
   1   6   9 250.383 27.1528  -2
  -1  -6   7 250.383 27.1528   1
   0  -6  -9 69.1905 22.4173  -2
   0   6  -7 69.1905 22.4173   1
   0   6   9 73.2156 13.7995  -2
   0  -6   7 73.2156 13.7995   1
   0   6   9 78.1492 21.0266  -2
   0  -6   7 78.1492 21.0266   1
   0   6   9 63.0028 23.1634  -2
   0  -6   7 63.0028 23.1634   1
   1  -6  -9 58.1185 24.5713  -2
  -1   6  -7 58.1185 24.5713   1
  -1   6   9 17.6063 19.4807  -2
   1  -6   7 17.6063 19.4807   1
  -1   6   9 34.9156 14.9654  -2
   1  -6   7 34.9156 14.9654   1
  -1   6   9 57.6775 21.9744  -2
   1  -6   7 57.6775 21.9744   1
   2  -6  -9 413.697 42.3793  -2
  -2   6  -7 413.697 42.3793   1
  -2   6   9 349.704 29.3670  -2
   2  -6   7 349.704 29.3670   1
  -2   6   9 375.823 36.5295  -2
   2  -6   7 375.823 36.5295   1
  -2   6   9 319.281 38.5091  -2
   2  -6   7 319.281 38.5091   1
  -3   6   9 -6.7115 24.2074  -2
   3  -6   7 -6.7115 24.2074   1
   4  -6   7 11.9965 12.6352   1
   5  -6   7 275.666 31.3761   1
   6   5   9 64.8973 25.7888  -2
  -6  -5   7 64.8973 25.7888   1
   6   5   9 57.5101 21.3177  -2
  -6  -5   7 57.5101 21.3177   1
   5   5   9 27.0293 20.0148  -2
  -5  -5   7 27.0293 20.0148   1
   5   5   9 27.4652 22.2833  -2
  -5  -5   7 27.4652 22.2833   1
   5   5   9 13.3837 25.1740  -2
  -5  -5   7 13.3837 25.1740   1
   4   5   9 344.247 42.5232  -2
  -4  -5   7 344.247 42.5232   1
   4   5   9 424.588 41.9835  -2
  -4  -5   7 424.588 41.9835   1
   4   5   9 380.019 35.1808  -2
  -4  -5   7 380.019 35.1808   1
   3   5   9 390.803 35.1084  -2
  -3  -5   7 390.803 35.1084   1
  -2  -5  -9 335.167 33.5351  -2
   2   5  -7 335.167 33.5351   1
  -2  -5  -9 323.132 20.7945  -2
   2   5  -7 323.132 20.7945   1
   2   5   9 311.318 22.9524  -2
  -2  -5   7 311.318 22.9524   1
   2   5   9 291.709 31.6025  -2
  -2  -5   7 291.709 31.6025   1
   1   5  -7 129.813 22.3379   1
   1   5  -7 95.5643 11.8111   1
   1   5   9 137.153 25.3079  -2
  -1  -5   7 137.153 25.3079   1
   0   5  -7 137.552 21.9738   1
   0  -5   7 154.680 20.7833   1
   0  -5   7 130.653 14.2969   1
   0  -5   7 86.0676 20.0146   1
   0  -5   7 130.232 11.2172   1
  -1   5  -7 3.14518 11.3798   1
   1  -5   7 -13.321 6.59191   1
   1  -5   7 1.93590 13.3162   1
   1  -5   7 -0.2955 5.52197   1
   2  -5  -8 403.166 41.7235  -2
  -2   5  -7 403.166 41.7235   1
  -2   5   8 448.120 40.9263  -2
   2  -5   7 448.120 40.9263   1
   3  -5  -8 365.600 41.1419  -2
  -3   5  -7 365.600 41.1419   1
  -3   5   8 245.428 31.5596  -2
   3  -5   7 245.428 31.5596   1
  -4   5   8 413.337 38.5436  -2
   4  -5   7 413.337 38.5436   1
  -5   5   8 -28.183 21.0747  -2
   5  -5   7 -28.183 21.0747   1
  -6   5   8 40.0977 24.0572  -2
   6  -5   7 40.0977 24.0572   1
   6   4   9 67.9222 26.4300  -2
  -6  -4   7 67.9222 26.4300   1
   5   4   9 114.085 36.3203  -2
  -5  -4   7 114.085 36.3203   1
  -4  -4   7 17.4944 10.9472   1
  -4  -4   7 9.45826 13.2918   1
  -4  -4   7 4.08584 13.4257   1
   3   4  -7 2.53211 4.72106   1
   3   4  -7 20.0274 11.2341   1
  -3  -4   7 1.62627 10.1212   1
  -3  -4   7 -2.3564 8.43127   1
  -2  -4  -8 119.009 22.4678  -2
   2   4  -7 119.009 22.4678   1
   2   4   8 74.4402 22.0131  -2
  -2  -4   7 74.4402 22.0131   1
  -1  -4  -8 1004.17 41.1068  -2
   1   4  -7 1004.17 41.1068   1
  -1  -4  -8 861.582 50.7607  -2
   1   4  -7 861.582 50.7607   1
   1   4   8 902.743 41.0628  -2
  -1  -4   7 902.743 41.0628   1
   1   4   8 942.992 50.7815  -2
  -1  -4   7 942.992 50.7815   1
   0  -4  -8 70.8151 13.5951  -2
   0   4  -7 70.8151 13.5951   1
   0  -4  -8 52.1250 17.6514  -2
   0   4  -7 52.1250 17.6514   1
   0   4   8 69.4838 14.6731  -2
   0  -4   7 69.4838 14.6731   1
   0   4   8 42.9969 6.90276  -2
   0  -4   7 42.9969 6.90276   1
   0   4   8 93.3776 22.7499  -2
   0  -4   7 93.3776 22.7499   1
   0   4   8 48.8183 18.8916  -2
   0  -4   7 48.8183 18.8916   1
   1  -4  -8 285.401 22.0679  -2
  -1   4  -7 285.401 22.0679   1
   1  -4  -8 302.437 31.3512  -2
  -1   4  -7 302.437 31.3512   1
  -1   4   8 246.143 22.1055  -2
   1  -4   7 246.143 22.1055   1
  -1   4   8 247.113 26.5505  -2
   1  -4   7 247.113 26.5505   1
  -1   4   8 292.968 31.9788  -2
   1  -4   7 292.968 31.9788   1
   2  -4  -8 1039.00 60.3521  -2
  -2   4  -7 1039.00 60.3521   1
  -2   4   8 936.710 51.4363  -2
   2  -4   7 936.710 51.4363   1
  -2   4   8 982.413 47.3244  -2
   2  -4   7 982.413 47.3244   1
  -2   4   8 910.087 58.3155  -2
   2  -4   7 910.087 58.3155   1
   3  -4  -8 54.9966 19.8130  -2
  -3   4  -7 54.9966 19.8130   1
  -3   4   8 101.847 17.0773  -2
   3  -4   7 101.847 17.0773   1
  -3   4   8 66.5230 16.9533  -2
   3  -4   7 66.5230 16.9533   1
   4  -4  -8 94.0495 27.9539  -2
  -4   4  -7 94.0495 27.9539   1
  -4   4   8 130.592 20.6509  -2
   4  -4   7 130.592 20.6509   1
  -4   4   8 105.874 21.0790  -2
   4  -4   7 105.874 21.0790   1
  -5   4   8 135.473 26.5192  -2
   5  -4   7 135.473 26.5192   1
  -6   4   8 200.983 31.9693  -2
   6  -4   7 200.983 31.9693   1
  -7  -3   7 52.5044 19.0928   1
  -6  -3   7 211.109 28.8702   1
  -6  -3   7 180.238 30.3769   1
   5   3   8 118.842 25.7849  -2
  -5  -3   7 118.842 25.7849   1
  -4  -3  -8 332.722 24.1864  -2
   4   3  -7 332.722 24.1864   1
   4   3   8 342.323 32.5114  -2
  -4  -3   7 342.323 32.5114   1
   4   3   8 364.586 37.7967  -2
  -4  -3   7 364.586 37.7967   1
  -3  -3  -8 213.385 18.7437  -2
   3   3  -7 213.385 18.7437   1
   3   3   8 277.457 30.4505  -2
  -3  -3   7 277.457 30.4505   1
   3   3   8 243.778 28.3411  -2
  -3  -3   7 243.778 28.3411   1
   3   3   8 266.793 27.5149  -2
  -3  -3   7 266.793 27.5149   1
  -2  -3  -8 116.487 18.6680  -2
   2   3  -7 116.487 18.6680   1
  -2  -3  -8 101.794 13.1939  -2
   2   3  -7 101.794 13.1939   1
  -2  -3  -8 96.9903 12.0687  -2
   2   3  -7 96.9903 12.0687   1
   2   3   8 94.4248 13.7453  -2
  -2  -3   7 94.4248 13.7453   1
   2   3   8 121.493 21.1731  -2
  -2  -3   7 121.493 21.1731   1
   2   3   8 106.918 19.1374  -2
  -2  -3   7 106.918 19.1374   1
  -1  -3  -8 8.27363 9.72131  -2
   1   3  -7 8.27363 9.72131   1
  -1  -3  -8 6.62014 6.02504  -2
   1   3  -7 6.62014 6.02504   1
   1   3   8 6.04951 11.7389  -2
  -1  -3   7 6.04951 11.7389   1
   1   3   8 4.54414 10.4297  -2
  -1  -3   7 4.54414 10.4297   1
   1   3   8 17.0916 9.54013  -2
  -1  -3   7 17.0916 9.54013   1
   1   3   8 10.1540 8.57739  -2
  -1  -3   7 10.1540 8.57739   1
   0  -3  -8 194.176 23.7789  -2
   0   3  -7 194.176 23.7789   1
   0  -3  -8 154.984 16.1547  -2
   0   3  -7 154.984 16.1547   1
   0   3   8 166.047 20.7141  -2
   0  -3   7 166.047 20.7141   1
   0   3   8 170.996 26.0998  -2
   0  -3   7 170.996 26.0998   1
   0   3   8 169.436 17.2202  -2
   0  -3   7 169.436 17.2202   1
   0   3   8 135.527 23.8028  -2
   0  -3   7 135.527 23.8028   1
   1  -3  -8 636.433 34.0656  -2
  -1   3  -7 636.433 34.0656   1
   1  -3  -8 581.427 31.0376  -2
  -1   3  -7 581.427 31.0376   1
   1  -3  -8 642.690 43.6391  -2
  -1   3  -7 642.690 43.6391   1
  -1   3   8 656.628 35.1407  -2
   1  -3   7 656.628 35.1407   1
  -1   3   8 589.964 44.6699  -2
   1  -3   7 589.964 44.6699   1
  -1   3   8 619.075 39.2240  -2
   1  -3   7 619.075 39.2240   1
   2  -3  -8 26.4877 14.2779  -2
  -2   3  -7 26.4877 14.2779   1
   2  -3  -8 16.3807 22.3624  -2
  -2   3  -7 16.3807 22.3624   1
   2  -3  -8 34.3789 13.0105  -2
  -2   3  -7 34.3789 13.0105   1
  -2   3   8 10.3006 14.5424  -2
   2  -3   7 10.3006 14.5424   1
  -2   3   8 14.4257 17.7983  -2
   2  -3   7 14.4257 17.7983   1
  -2   3   8 9.16249 18.1428  -2
   2  -3   7 9.16249 18.1428   1
   3  -3  -8 1003.87 47.8235  -2
  -3   3  -7 1003.87 47.8235   1
   3  -3  -8 1031.81 65.7153  -2
  -3   3  -7 1031.81 65.7153   1
  -3   3   8 1066.32 56.0986  -2
   3  -3   7 1066.32 56.0986   1
   4  -3  -8 247.539 39.1296  -2
  -4   3  -7 247.539 39.1296   1
  -4   3   8 214.440 31.7953  -2
   4  -3   7 214.440 31.7953   1
  -5   3  -7 385.398 42.6487   1
   5  -3   7 273.054 28.7615   1
   6  -3   7 23.4957 13.0139   1
   7   2   8 534.940 46.0025  -2
  -7  -2   7 534.940 46.0025   1
   6   2   8 10.0153 17.3756  -2
  -6  -2   7 10.0153 17.3756   1
   6   2   8 14.4688 18.2825  -2
  -6  -2   7 14.4688 18.2825   1
  -5  -2  -8 296.984 24.1835  -2
   5   2  -7 296.984 24.1835   1
   5   2   8 327.864 34.1803  -2
  -5  -2   7 327.864 34.1803   1
   5   2   8 290.470 29.7468  -2
  -5  -2   7 290.470 29.7468   1
   5   2   8 302.026 33.4206  -2
  -5  -2   7 302.026 33.4206   1
  -4  -2  -8 134.072 13.4130  -2
   4   2  -7 134.072 13.4130   1
  -4  -2  -8 151.064 18.1557  -2
   4   2  -7 151.064 18.1557   1
   4   2   8 88.0312 21.2944  -2
  -4  -2   7 88.0312 21.2944   1
   4   2   8 109.068 21.9184  -2
  -4  -2   7 109.068 21.9184   1
   4   2   8 137.303 22.4111  -2
  -4  -2   7 137.303 22.4111   1
  -3  -2  -8 65.5043 7.58424  -2
   3   2  -7 65.5043 7.58424   1
  -3  -2  -8 64.0745 14.0953  -2
   3   2  -7 64.0745 14.0953   1
   3   2   8 57.0652 18.6440  -2
  -3  -2   7 57.0652 18.6440   1
   3   2   8 45.3570 19.2398  -2
  -3  -2   7 45.3570 19.2398   1
   3   2   8 68.8885 20.2996  -2
  -3  -2   7 68.8885 20.2996   1
   3   2   8 101.801 20.6579  -2
  -3  -2   7 101.801 20.6579   1
  -2  -2  -8 190.492 22.8736  -2
   2   2  -7 190.492 22.8736   1
  -2  -2  -8 236.620 19.3293  -2
   2   2  -7 236.620 19.3293   1
  -2  -2  -8 220.809 19.4997  -2
   2   2  -7 220.809 19.4997   1
   2   2   8 211.690 20.1136  -2
  -2  -2   7 211.690 20.1136   1
   2   2   8 247.532 27.3554  -2
  -2  -2   7 247.532 27.3554   1
   2   2   8 296.986 30.3904  -2
  -2  -2   7 296.986 30.3904   1
  -1  -2  -8 3.43429 15.4350  -2
   1   2  -7 3.43429 15.4350   1
  -1  -2  -8 20.0820 13.0191  -2
   1   2  -7 20.0820 13.0191   1
  -1  -2  -8 15.1743 12.4142  -2
   1   2  -7 15.1743 12.4142   1
   1   2   8 49.1243 20.7041  -2
  -1  -2   7 49.1243 20.7041   1
   1   2   8 20.8409 13.2943  -2
  -1  -2   7 20.8409 13.2943   1
   1   2   8 17.9255 18.3539  -2
  -1  -2   7 17.9255 18.3539   1
   0  -2  -8 1197.92 49.5465  -2
   0   2  -7 1197.92 49.5465   1
   0   2   8 1109.89 55.8527  -2
   0  -2   7 1109.89 55.8527   1
  -1   2  -7 334.041 22.2852   1
  -1   2  -7 365.822 30.8087   1
  -1   2  -7 304.399 21.7696   1
   1  -2   7 287.485 25.7134   1
   1  -2   7 334.899 30.4943   1
   1  -2   7 340.855 23.1769   1
   1  -2   7 349.363 32.0820   1
  -2   2  -7 78.8064 20.0768   1
  -2   2  -7 83.9227 12.5568   1
  -2   2  -7 77.5074 13.1208   1
   2  -2   7 63.8375 15.6546   1
   2  -2   7 85.1782 19.0272   1
   2  -2   7 90.0539 20.0559   1
   2  -2   7 89.5835 12.9976   1
  -3   2  -7 42.8709 15.6631   1
  -3   2  -7 20.6283 8.83119   1
   3  -2   7 48.8579 13.3070   1
   3  -2   7 47.6821 13.3965   1
   4  -2  -7 99.5605 31.3621  -2
  -4   2  -7 99.5605 31.3621   1
   4  -2  -7 110.583 19.0108  -2
  -4   2  -7 110.583 19.0108   1
  -4   2   7 127.677 24.8092  -2
   4  -2   7 127.677 24.8092   1
   5  -2  -7 15.9351 28.2423  -2
  -5   2  -7 15.9351 28.2423   1
   5  -2  -7 51.4210 18.7928  -2
  -5   2  -7 51.4210 18.7928   1
  -5   2   7 30.3995 22.6253  -2
   5  -2   7 30.3995 22.6253   1
  -6   2   7 377.645 35.0426  -2
   6  -2   7 377.645 35.0426   1
   6   1   8 -18.353 22.0916  -2
  -6  -1   7 -18.353 22.0916   1
   5   1  -7 11.6049 8.83060   1
   5   1   8 118.651 26.0040  -2
  -5  -1   7 118.651 26.0040   1
   4   1  -7 172.238 17.4485   1
   4   1  -7 170.895 18.5138   1
  -4  -1   7 199.703 26.0174   1
  -4  -1   7 174.345 23.1530   1
  -4  -1   7 188.862 22.6729   1
   3   1  -7 520.756 30.3160   1
   3   1  -7 526.744 29.1915   1
   3   1  -7 525.470 32.9270   1
  -3  -1   7 574.506 37.5008   1
  -3  -1   7 513.602 35.4747   1
  -3  -1   7 512.902 31.6165   1
  -3  -1   7 529.073 35.7718   1
  -3  -1   7 536.693 39.9906   1
   2   1  -7 180.597 19.2292   1
   2   1  -7 187.525 16.5724   1
   2   1  -7 153.992 15.3348   1
  -2  -1   7 149.258 21.1564   1
  -2  -1   7 122.432 19.0353   1
  -2  -1   7 184.416 21.5322   1
  -2  -1   7 156.633 16.8765   1
  -1  -1  -7 688.034 34.5943  -2
   1   1  -7 688.034 34.5943   1
   1   1   7 732.489 41.1687  -2
  -1  -1   7 732.489 41.1687   1
   0  -1  -7 136.249 17.3748  -2
   0   1  -7 136.249 17.3748   1
   0  -1  -7 144.466 17.1070  -2
   0   1  -7 144.466 17.1070   1
   0  -1  -7 168.433 22.3710  -2
   0   1  -7 168.433 22.3710   1
   0   1   7 128.183 21.0680  -2
   0  -1   7 128.183 21.0680   1
   0   1   7 169.722 24.6867  -2
   0  -1   7 169.722 24.6867   1
   0   1   7 173.911 24.1251  -2
   0  -1   7 173.911 24.1251   1
   0   1   7 148.203 18.2279  -2
   0  -1   7 148.203 18.2279   1
   1  -1  -7 243.582 20.4306  -2
  -1   1  -7 243.582 20.4306   1
   1  -1  -7 202.479 26.6764  -2
  -1   1  -7 202.479 26.6764   1
   1  -1  -7 267.065 21.1140  -2
  -1   1  -7 267.065 21.1140   1
  -1   1   7 196.457 11.3207  -2
   1  -1   7 196.457 11.3207   1
  -1   1   7 216.405 24.5701  -2
   1  -1   7 216.405 24.5701   1
  -1   1   7 242.680 21.7666  -2
   1  -1   7 242.680 21.7666   1
  -1   1   7 240.897 28.2599  -2
   1  -1   7 240.897 28.2599   1
  -1   1   7 261.358 28.7070  -2
   1  -1   7 261.358 28.7070   1
   2  -1  -7 18.5338 11.8554  -2
  -2   1  -7 18.5338 11.8554   1
   2  -1  -7 28.3926 12.7414  -2
  -2   1  -7 28.3926 12.7414   1
   2  -1  -7 15.4582 17.0953  -2
  -2   1  -7 15.4582 17.0953   1
  -2   1   7 27.1821 13.1296  -2
   2  -1   7 27.1821 13.1296   1
  -2   1   7 46.2140 17.1536  -2
   2  -1   7 46.2140 17.1536   1
  -2   1   7 29.6218 19.1912  -2
   2  -1   7 29.6218 19.1912   1
  -2   1   7 38.5669 15.8369  -2
   2  -1   7 38.5669 15.8369   1
   3  -1  -7 457.377 29.9583  -2
  -3   1  -7 457.377 29.9583   1
   3  -1  -7 406.953 38.0897  -2
  -3   1  -7 406.953 38.0897   1
   3  -1  -7 417.096 27.5839  -2
  -3   1  -7 417.096 27.5839   1
  -3   1   7 434.258 30.1755  -2
   3  -1   7 434.258 30.1755   1
  -3   1   7 395.898 29.4970  -2
   3  -1   7 395.898 29.4970   1
   4  -1  -7 51.2109 18.1215  -2
  -4   1  -7 51.2109 18.1215   1
   4  -1  -7 29.7629 10.3809  -2
  -4   1  -7 29.7629 10.3809   1
  -4   1   7 49.8504 13.5697  -2
   4  -1   7 49.8504 13.5697   1
  -4   1   7 18.2877 12.6053  -2
   4  -1   7 18.2877 12.6053   1
   5  -1  -7 137.159 18.3852  -2
  -5   1  -7 137.159 18.3852   1
   5  -1  -7 127.958 28.2170  -2
  -5   1  -7 127.958 28.2170   1
  -5   1   7 125.995 20.2047  -2
   5  -1   7 125.995 20.2047   1
   6  -1  -7 130.880 23.7935  -2
  -6   1  -7 130.880 23.7935   1
  -7   0   7 -5.3613 10.8952   1
  -6   0   7 272.415 32.6107   1
  -6   0   7 255.239 31.2084   1
   5   0  -7 19.4438 10.3306   1
  -5   0   7 6.79344 9.30546   1
  -5   0   7 12.2577 13.0894   1
  -5   0   7 18.3848 11.3409   1
  -4   0  -7 467.580 30.4850  -2
   4   0  -7 467.580 30.4850   1
   4   0   7 444.877 36.0793  -2
  -4   0   7 444.877 36.0793   1
  -3   0  -7 105.640 17.2826  -2
   3   0  -7 105.640 17.2826   1
  -3   0  -7 105.349 17.2772  -2
   3   0  -7 105.349 17.2772   1
   3   0   7 86.8746 17.7065  -2
  -3   0   7 86.8746 17.7065   1
   3   0   7 67.9848 20.1591  -2
  -3   0   7 67.9848 20.1591   1
   3   0   7 96.2581 18.7997  -2
  -3   0   7 96.2581 18.7997   1
  -2   0  -7 197.249 18.7861  -2
   2   0  -7 197.249 18.7861   1
  -2   0  -7 222.716 20.2604  -2
   2   0  -7 222.716 20.2604   1
  -2   0  -7 191.158 19.3883  -2
   2   0  -7 191.158 19.3883   1
   2   0   7 247.217 26.3137  -2
  -2   0   7 247.217 26.3137   1
   2   0   7 247.045 22.5893  -2
  -2   0   7 247.045 22.5893   1
   2   0   7 191.679 23.1419  -2
  -2   0   7 191.679 23.1419   1
   2   0   7 186.181 22.5868  -2
  -2   0   7 186.181 22.5868   1
  -1   0  -7 289.960 21.3384  -2
   1   0  -7 289.960 21.3384   1
  -1   0  -7 241.739 21.2654  -2
   1   0  -7 241.739 21.2654   1
  -1   0  -7 319.225 22.3442  -2
   1   0  -7 319.225 22.3442   1
   1   0   7 283.822 22.4114  -2
  -1   0   7 283.822 22.4114   1
   1   0   7 330.942 26.3820  -2
  -1   0   7 330.942 26.3820   1
   1   0   7 299.915 25.8557  -2
  -1   0   7 299.915 25.8557   1
   1   0   7 303.331 28.8450  -2
  -1   0   7 303.331 28.8450   1
   0   0  -7 686.045 38.2881  -2
   0   0  -7 686.045 38.2881   1
   0   0  -7 751.159 35.6339  -2
   0   0  -7 751.159 35.6339   1
   0   0  -7 632.136 33.1908  -2
   0   0  -7 632.136 33.1908   1
   0   0   7 697.213 38.2501  -2
   0   0   7 697.213 38.2501   1
   0   0   7 680.762 40.2900  -2
   0   0   7 680.762 40.2900   1
   0   0   7 726.521 44.6647  -2
   0   0   7 726.521 44.6647   1
   0   0   7 674.851 35.2954  -2
   0   0   7 674.851 35.2954   1
   1   0  -7 285.975 21.9465  -2
  -1   0  -7 285.975 21.9465   1
   1   0  -7 268.062 26.8227  -2
  -1   0  -7 268.062 26.8227   1
   1   0  -7 268.575 20.3843  -2
  -1   0  -7 268.575 20.3843   1
  -1   0   7 251.343 23.1217  -2
   1   0   7 251.343 23.1217   1
  -1   0   7 275.375 13.6808  -2
   1   0   7 275.375 13.6808   1
  -1   0   7 259.378 27.6624  -2
   1   0   7 259.378 27.6624   1
  -1   0   7 281.621 22.5493  -2
   1   0   7 281.621 22.5493   1
  -1   0   7 295.054 27.3742  -2
   1   0   7 295.054 27.3742   1
   2   0  -7 192.803 19.1345  -2
  -2   0  -7 192.803 19.1345   1
   2   0  -7 208.459 20.3483  -2
  -2   0  -7 208.459 20.3483   1
   2   0  -7 163.361 25.5824  -2
  -2   0  -7 163.361 25.5824   1
  -2   0   7 183.626 21.6646  -2
   2   0   7 183.626 21.6646   1
  -2   0   7 192.875 21.0191  -2
   2   0   7 192.875 21.0191   1
  -2   0   7 175.980 25.3875  -2
   2   0   7 175.980 25.3875   1
  -2   0   7 162.350 13.7851  -2
   2   0   7 162.350 13.7851   1
   3   0  -7 68.3677 16.1215  -2
  -3   0  -7 68.3677 16.1215   1
   3   0  -7 103.815 26.3858  -2
  -3   0  -7 103.815 26.3858   1
   3   0  -7 85.7951 17.0664  -2
  -3   0  -7 85.7951 17.0664   1
  -3   0   7 73.3812 17.7401  -2
   3   0   7 73.3812 17.7401   1
  -3   0   7 73.1733 24.4572  -2
   3   0   7 73.1733 24.4572   1
  -3   0   7 78.0266 18.4946  -2
   3   0   7 78.0266 18.4946   1
   4   0  -7 430.246 43.3992  -2
  -4   0  -7 430.246 43.3992   1
   4   0  -7 426.534 31.9911  -2
  -4   0  -7 426.534 31.9911   1
  -4   0   7 427.273 33.2509  -2
   4   0   7 427.273 33.2509   1
  -5   0  -7 330.434 37.0974   1
  -5   0  -7 334.427 28.0647   1
  -5   0   7 396.927 33.6790  -2
   5   0   7 396.927 33.6790   1
  -6   0  -7 162.469 23.4367   1
  -7   0  -7 236.593 28.5744   1
   7  -1   7 184.729 33.5939  -2
  -7   1   7 184.729 33.5939   1
   6  -1   7 106.808 24.2512  -2
  -6   1   7 106.808 24.2512   1
   6  -1   7 134.591 27.1472  -2
  -6   1   7 134.591 27.1472   1
  -5   1  -7 129.753 19.2620  -2
   5  -1  -7 129.753 19.2620   1
   5  -1   7 167.529 20.2265  -2
  -5   1   7 167.529 20.2265   1
   5  -1   7 162.384 24.6103  -2
  -5   1   7 162.384 24.6103   1
   5  -1   7 192.835 26.7415  -2
  -5   1   7 192.835 26.7415   1
  -4   1  -7 26.6930 11.0210  -2
   4  -1  -7 26.6930 11.0210   1
  -4   1  -7 13.5650 11.9863  -2
   4  -1  -7 13.5650 11.9863   1
   4  -1   7 29.1046 13.4905  -2
  -4   1   7 29.1046 13.4905   1
   4  -1   7 66.4236 13.5653  -2
  -4   1   7 66.4236 13.5653   1
   4  -1   7 38.2362 15.8433  -2
  -4   1   7 38.2362 15.8433   1
  -3   1  -7 455.753 30.6013  -2
   3  -1  -7 455.753 30.6013   1
  -3   1  -7 446.405 28.5149  -2
   3  -1  -7 446.405 28.5149   1
   3  -1   7 432.917 34.9262  -2
  -3   1   7 432.917 34.9262   1
   3  -1   7 430.097 32.6049  -2
  -3   1   7 430.097 32.6049   1
   3  -1   7 461.705 29.7266  -2
  -3   1   7 461.705 29.7266   1
  -2   1  -7 25.7488 13.0084  -2
   2  -1  -7 25.7488 13.0084   1
  -2   1  -7 39.8747 13.9348  -2
   2  -1  -7 39.8747 13.9348   1
  -2   1  -7 22.8053 10.9063  -2
   2  -1  -7 22.8053 10.9063   1
   2  -1   7 31.0769 13.9641  -2
  -2   1   7 31.0769 13.9641   1
   2  -1   7 23.2663 10.1848  -2
  -2   1   7 23.2663 10.1848   1
   2  -1   7 6.34588 14.6629  -2
  -2   1   7 6.34588 14.6629   1
   2  -1   7 49.1823 17.3750  -2
  -2   1   7 49.1823 17.3750   1
   2  -1   7 40.9214 15.2306  -2
  -2   1   7 40.9214 15.2306   1
  -1   1  -7 209.859 11.1332  -2
   1  -1  -7 209.859 11.1332   1
  -1   1  -7 264.539 21.4512  -2
   1  -1  -7 264.539 21.4512   1
  -1   1  -7 247.650 20.6082  -2
   1  -1  -7 247.650 20.6082   1
  -1   1  -7 257.155 22.8290  -2
   1  -1  -7 257.155 22.8290   1
   1  -1   7 189.270 22.3579  -2
  -1   1   7 189.270 22.3579   1
   1  -1   7 188.361 25.8037  -2
  -1   1   7 188.361 25.8037   1
   1  -1   7 240.232 23.4259  -2
  -1   1   7 240.232 23.4259   1
   1  -1   7 260.019 23.1374  -2
  -1   1   7 260.019 23.1374   1
   0   1  -7 164.691 19.2670  -2
   0  -1  -7 164.691 19.2670   1
   0   1  -7 147.262 18.2256  -2
   0  -1  -7 147.262 18.2256   1
   0   1  -7 146.383 20.6375  -2
   0  -1  -7 146.383 20.6375   1
   0  -1   7 113.113 18.4572  -2
   0   1   7 113.113 18.4572   1
   0  -1   7 214.217 24.8188  -2
   0   1   7 214.217 24.8188   1
   0  -1   7 178.807 22.6735  -2
   0   1   7 178.807 22.6735   1
   0  -1   7 200.200 26.2109  -2
   0   1   7 200.200 26.2109   1
   1   1  -7 743.473 37.8615  -2
  -1  -1  -7 743.473 37.8615   1
  -1  -1   7 722.603 47.5064  -2
   1   1   7 722.603 47.5064   1
  -2  -1  -7 110.524 14.0111   1
  -2  -1  -7 151.588 20.5796   1
  -2  -1  -7 114.822 14.7976   1
   2   1   7 122.394 15.4490   1
   2   1   7 95.3507 11.1807   1
   2   1   7 106.562 15.4853   1
   2   1   7 126.477 19.2984   1
  -3  -1  -7 507.080 37.9252   1
  -3  -1  -7 450.627 29.2340   1
  -3  -1  -7 405.667 27.9858   1
   3   1   7 456.024 29.2509   1
   3   1   7 515.836 31.0984   1
   3   1   7 480.105 27.6054   1
  -4  -1  -7 30.5153 10.0964   1
  -4  -1  -7 15.7218 12.5728   1
  -4  -1  -7 34.8712 10.9185   1
   4   1   7 54.0070 13.2900   1
   4   1   7 34.3869 11.1451   1
   5   1  -6 128.345 22.3301  -2
  -5  -1  -7 128.345 22.3301   1
  -5  -1   6 150.726 24.6391  -2
   5   1   7 150.726 24.6391   1
   6   1  -6 182.171 25.8360  -2
  -6  -1  -7 182.171 25.8360   1
   7   1  -6 177.952 27.9353  -2
  -7  -1  -7 177.952 27.9353   1
   7  -2   7 255.783 33.9184  -2
  -7   2   7 255.783 33.9184   1
   6  -2   7 424.092 39.7935  -2
  -6   2   7 424.092 39.7935   1
   6  -2   7 430.106 41.0929  -2
  -6   2   7 430.106 41.0929   1
  -5   2  -7 45.5334 17.1605  -2
   5  -2  -7 45.5334 17.1605   1
   5  -2   7 28.6069 20.9392  -2
  -5   2   7 28.6069 20.9392   1
   4  -2  -7 86.3456 16.4644   1
   4  -2  -7 107.520 15.7619   1
   4  -2   7 132.150 26.0191  -2
  -4   2   7 132.150 26.0191   1
   3  -2  -7 4.94201 6.65720   1
   3  -2  -7 1.34626 6.22512   1
  -3   2   7 12.1068 9.87952   1
  -3   2   7 4.99054 6.39251   1
  -3   2   7 10.0654 9.66020   1
   2  -2  -7 52.3982 11.2350   1
   2  -2  -7 53.0554 9.36204   1
   2  -2  -7 44.8510 11.0742   1
  -2   2   7 52.0790 11.7656   1
  -2   2   7 64.8797 14.6150   1
  -2   2   7 61.7875 14.9202   1
  -2   2   7 66.9988 12.7591   1
   1  -2  -7 412.918 24.5104   1
   1  -2  -7 437.951 27.4588   1
   1  -2  -7 399.485 20.0241   1
   1  -2  -7 451.377 30.8356   1
   1  -2  -7 414.692 25.7004   1
  -1   2   7 400.380 26.9952   1
  -1   2   7 404.685 31.8521   1
  -1   2   7 403.891 25.8805   1
  -1   2   7 375.327 27.8123   1
   0   2  -6 82.6440 15.2227  -2
   0  -2  -7 82.6440 15.2227   1
   0  -2   6 114.165 19.4490  -2
   0   2   7 114.165 19.4490   1
   0  -2   6 103.197 21.1222  -2
   0   2   7 103.197 21.1222   1
   1   2  -6 42.5504 14.2751  -2
  -1  -2  -7 42.5504 14.2751   1
   1   2  -6 41.0114 15.0322  -2
  -1  -2  -7 41.0114 15.0322   1
   1   2  -6 34.1777 17.0925  -2
  -1  -2  -7 34.1777 17.0925   1
  -1  -2   6 32.3804 16.0369  -2
   1   2   7 32.3804 16.0369   1
  -1  -2   6 51.5966 15.4018  -2
   1   2   7 51.5966 15.4018   1
  -1  -2   6 53.2447 17.3862  -2
   1   2   7 53.2447 17.3862   1
  -1  -2   6 54.1552 17.1715  -2
   1   2   7 54.1552 17.1715   1
   2   2  -6 743.241 37.9037  -2
  -2  -2  -7 743.241 37.9037   1
   2   2  -6 765.124 45.9252  -2
  -2  -2  -7 765.124 45.9252   1
   2   2  -6 721.852 38.5970  -2
  -2  -2  -7 721.852 38.5970   1
  -2  -2   6 749.393 35.1952  -2
   2   2   7 749.393 35.1952   1
  -2  -2   6 796.632 39.1337  -2
   2   2   7 796.632 39.1337   1
  -2  -2   6 659.653 38.3893  -2
   2   2   7 659.653 38.3893   1
   3   2  -6 727.619 40.4467  -2
  -3  -2  -7 727.619 40.4467   1
   3   2  -6 748.711 39.7836  -2
  -3  -2  -7 748.711 39.7836   1
   3   2  -6 761.658 50.0451  -2
  -3  -2  -7 761.658 50.0451   1
  -3  -2   6 824.830 42.8543  -2
   3   2   7 824.830 42.8543   1
  -3  -2   6 787.442 39.5014  -2
   3   2   7 787.442 39.5014   1
  -3  -2   6 870.384 40.6268  -2
   3   2   7 870.384 40.6268   1
   4   2  -6 820.008 44.0254  -2
  -4  -2  -7 820.008 44.0254   1
   4   2  -6 1003.54 60.6477  -2
  -4  -2  -7 1003.54 60.6477   1
   4   2  -6 937.949 47.5345  -2
  -4  -2  -7 937.949 47.5345   1
  -4  -2   6 997.854 47.8474  -2
   4   2   7 997.854 47.8474   1
  -4  -2   6 923.910 44.2708  -2
   4   2   7 923.910 44.2708   1
  -4  -2   6 932.613 48.1427  -2
   4   2   7 932.613 48.1427   1
   5   2  -6 72.3665 16.2138  -2
  -5  -2  -7 72.3665 16.2138   1
   5   2  -6 100.562 24.4566  -2
  -5  -2  -7 100.562 24.4566   1
  -5  -2   6 94.6776 17.6672  -2
   5   2   7 94.6776 17.6672   1
  -5  -2   6 80.1652 16.3273  -2
   5   2   7 80.1652 16.3273   1
   6   2  -6 241.790 25.1449  -2
  -6  -2  -7 241.790 25.1449   1
   7   2  -6 40.6147 19.2681  -2
  -7  -2  -7 40.6147 19.2681   1
  -7   3   7 5.11498 13.9697   1
   6  -3  -7 8.92672 9.34084   1
  -6   3   7 -5.8974 8.82377   1
   5  -3  -7 176.261 20.6624   1
  -5   3   7 176.257 25.1092   1
  -5   3   7 158.685 23.1725   1
   4  -3  -7 2.25049 6.29174   1
  -4   3   7 5.15320 10.2282   1
  -4   3   7 -4.2452 8.13983   1
  -4   3   7 10.0298 6.55266   1
  -3   3  -6 529.937 33.1728  -2
   3  -3  -7 529.937 33.1728   1
   3  -3   6 514.231 27.4600  -2
  -3   3   7 514.231 27.4600   1
   3  -3   6 543.264 36.4183  -2
  -3   3   7 543.264 36.4183   1
  -2   3  -6 116.588 17.9849  -2
   2  -3  -7 116.588 17.9849   1
  -2   3  -6 102.415 17.1402  -2
   2  -3  -7 102.415 17.1402   1
  -2   3  -6 93.8036 17.5820  -2
   2  -3  -7 93.8036 17.5820   1
   2  -3   6 89.5368 13.0763  -2
  -2   3   7 89.5368 13.0763   1
   2  -3   6 127.895 19.3128  -2
  -2   3   7 127.895 19.3128   1
   2  -3   6 118.557 20.1301  -2
  -2   3   7 118.557 20.1301   1
  -1   3  -6 1662.17 61.4825  -2
   1  -3  -7 1662.17 61.4825   1
  -1   3  -6 1837.14 69.9323  -2
   1  -3  -7 1837.14 69.9323   1
  -1   3  -6 1634.07 65.3065  -2
   1  -3  -7 1634.07 65.3065   1
  -1   3  -6 1729.33 73.4023  -2
   1  -3  -7 1729.33 73.4023   1
   1  -3   6 1512.03 68.1602  -2
  -1   3   7 1512.03 68.1602   1
   1  -3   6 1559.84 74.5623  -2
  -1   3   7 1559.84 74.5623   1
   1  -3   6 1684.05 68.5170  -2
  -1   3   7 1684.05 68.5170   1
   1  -3   6 1709.76 64.8070  -2
  -1   3   7 1709.76 64.8070   1
   0   3  -6 636.776 33.3753  -2
   0  -3  -7 636.776 33.3753   1
   0   3  -6 715.772 37.0849  -2
   0  -3  -7 715.772 37.0849   1
   0   3  -6 643.955 33.8444  -2
   0  -3  -7 643.955 33.8444   1
   0   3  -6 641.848 30.8787  -2
   0  -3  -7 641.848 30.8787   1
   0   3  -6 697.146 39.9847  -2
   0  -3  -7 697.146 39.9847   1
   0  -3   6 641.922 34.2467  -2
   0   3   7 641.922 34.2467   1
   0  -3   6 644.185 36.8407  -2
   0   3   7 644.185 36.8407   1
   0  -3   6 748.950 36.5742  -2
   0   3   7 748.950 36.5742   1
   0  -3   6 608.692 40.3478  -2
   0   3   7 608.692 40.3478   1
   1   3  -6 253.511 19.5288  -2
  -1  -3  -7 253.511 19.5288   1
   1   3  -6 291.568 22.0486  -2
  -1  -3  -7 291.568 22.0486   1
   1   3  -6 259.693 25.1198  -2
  -1  -3  -7 259.693 25.1198   1
   1   3  -6 273.881 22.8858  -2
  -1  -3  -7 273.881 22.8858   1
  -1  -3   6 294.699 26.8461  -2
   1   3   7 294.699 26.8461   1
  -1  -3   6 258.065 21.9041  -2
   1   3   7 258.065 21.9041   1
  -1  -3   6 262.683 20.0322  -2
   1   3   7 262.683 20.0322   1
   2   3  -6 133.338 15.9314  -2
  -2  -3  -7 133.338 15.9314   1
   2   3  -6 144.836 22.0034  -2
  -2  -3  -7 144.836 22.0034   1
   2   3  -6 166.208 18.7214  -2
  -2  -3  -7 166.208 18.7214   1
  -2  -3   6 141.500 15.5173  -2
   2   3   7 141.500 15.5173   1
  -2  -3   6 152.119 17.9548  -2
   2   3   7 152.119 17.9548   1
   3   3  -6 1574.72 65.2343  -2
  -3  -3  -7 1574.72 65.2343   1
   3   3  -6 1471.00 62.9998  -2
  -3  -3  -7 1471.00 62.9998   1
   3   3  -6 1625.14 76.8039  -2
  -3  -3  -7 1625.14 76.8039   1
  -3  -3   6 1581.38 65.1829  -2
   3   3   7 1581.38 65.1829   1
  -3  -3   6 1459.11 65.5808  -2
   3   3   7 1459.11 65.5808   1
   4   3  -6 669.531 40.0319  -2
  -4  -3  -7 669.531 40.0319   1
   4   3  -6 789.494 54.3046  -2
  -4  -3  -7 789.494 54.3046   1
  -4  -3   6 794.495 44.1897  -2
   4   3   7 794.495 44.1897   1
  -4  -3   6 746.464 42.4711  -2
   4   3   7 746.464 42.4711   1
   5   3  -6 1033.30 54.4167  -2
  -5  -3  -7 1033.30 54.4167   1
  -5  -3   6 1222.62 59.5185  -2
   5   3   7 1222.62 59.5185   1
   6   3  -6 266.586 30.2779  -2
  -6  -3  -7 266.586 30.2779   1
  -7  -3  -7 76.0915 19.2142   1
  -7   4   7 58.3243 20.6366   1
  -6   4  -6 17.8472 19.2606  -2
   6  -4  -7 17.8472 19.2606   1
  -6   4   7 0.76858 11.0522   1
  -5   4  -6 281.566 27.4874  -2
   5  -4  -7 281.566 27.4874   1
   5  -4   6 203.796 27.8323  -2
  -5   4   7 203.796 27.8323   1
  -4   4  -6 463.608 32.4418  -2
   4  -4  -7 463.608 32.4418   1
   4  -4   6 482.293 35.9642  -2
  -4   4   7 482.293 35.9642   1
   4  -4   6 503.958 36.4448  -2
  -4   4   7 503.958 36.4448   1
  -3   4  -6 287.022 22.9886  -2
   3  -4  -7 287.022 22.9886   1
   3  -4   6 241.951 23.4003  -2
  -3   4   7 241.951 23.4003   1
   3  -4   6 250.763 13.5406  -2
  -3   4   7 250.763 13.5406   1
   3  -4   6 279.878 25.9749  -2
  -3   4   7 279.878 25.9749   1
  -2   4  -6 476.186 30.5539  -2
   2  -4  -7 476.186 30.5539   1
  -2   4  -6 383.934 29.8959  -2
   2  -4  -7 383.934 29.8959   1
  -2   4  -6 471.968 28.9953  -2
   2  -4  -7 471.968 28.9953   1
   2  -4   6 474.606 30.1670  -2
  -2   4   7 474.606 30.1670   1
   2  -4   6 389.924 31.6224  -2
  -2   4   7 389.924 31.6224   1
   2  -4   6 440.905 20.1002  -2
  -2   4   7 440.905 20.1002   1
  -1   4  -6 678.591 36.6492  -2
   1  -4  -7 678.591 36.6492   1
  -1   4  -6 749.989 29.9140  -2
   1  -4  -7 749.989 29.9140   1
  -1   4  -6 761.452 41.1789  -2
   1  -4  -7 761.452 41.1789   1
  -1   4  -6 716.857 40.8226  -2
   1  -4  -7 716.857 40.8226   1
   1  -4   6 727.821 42.6807  -2
  -1   4   7 727.821 42.6807   1
   1  -4   6 754.441 38.4627  -2
  -1   4   7 754.441 38.4627   1
   1  -4   6 662.247 42.7108  -2
  -1   4   7 662.247 42.7108   1
   0   4  -6 200.026 19.2183  -2
   0  -4  -7 200.026 19.2183   1
   0   4  -6 200.110 18.5468  -2
   0  -4  -7 200.110 18.5468   1
   0   4  -6 211.868 18.2103  -2
   0  -4  -7 211.868 18.2103   1
   0   4  -6 180.556 21.3445  -2
   0  -4  -7 180.556 21.3445   1
   0   4  -6 247.995 24.4135  -2
   0  -4  -7 247.995 24.4135   1
   0  -4   6 225.914 23.5976  -2
   0   4   7 225.914 23.5976   1
   0  -4   6 232.279 26.2541  -2
   0   4   7 232.279 26.2541   1
   1   4  -6 188.926 19.2814  -2
  -1  -4  -7 188.926 19.2814   1
   1   4  -6 226.501 20.3871  -2
  -1  -4  -7 226.501 20.3871   1
   1   4  -6 188.379 21.0581  -2
  -1  -4  -7 188.379 21.0581   1
   1   4  -6 223.010 25.4655  -2
  -1  -4  -7 223.010 25.4655   1
  -1  -4   6 213.965 23.0386  -2
   1   4   7 213.965 23.0386   1
  -1  -4   6 207.817 18.1259  -2
   1   4   7 207.817 18.1259   1
   2   4  -6 645.267 35.5150  -2
  -2  -4  -7 645.267 35.5150   1
   2   4   7 147.287 15.7768   1
   2   4   7 107.602 15.7237   1
   2   4   7 161.258 13.3996   1
   2   4   7 115.161 15.3908   1
  -3  -4  -7 42.4509 13.3047   1
  -3  -4  -7 56.8237 12.3504   1
  -3  -4  -7 78.5956 14.2432   1
  -3  -4  -7 47.7878 15.4392   1
   3   4   7 76.6693 14.9891   1
   3   4   7 52.1892 9.43709   1
   3   4   7 52.7755 15.3995   1
   3   4   7 74.5217 13.9172   1
  -4  -4  -7 596.057 35.2133   1
  -4  -4  -7 646.824 37.4306   1
  -4  -4  -7 634.157 45.9294   1
   4   4   7 604.188 37.1821   1
   4   4   7 647.011 38.5683   1
  -5  -4  -7 23.1841 10.2322   1
  -5  -4  -7 7.99938 13.4493   1
   5   4   7 30.2321 11.3625   1
   6   4  -5 388.253 34.1421  -2
  -6  -4  -7 388.253 34.1421   1
   7   4  -5 242.027 29.5263  -2
  -7  -4  -7 242.027 29.5263   1
  -6   5  -6 93.4407 21.3616  -2
   6  -5  -7 93.4407 21.3616   1
   6  -5   6 105.487 24.6532  -2
  -6   5   7 105.487 24.6532   1
  -5   5  -6 172.499 24.7146  -2
   5  -5  -7 172.499 24.7146   1
   5  -5   6 178.970 26.4923  -2
  -5   5   7 178.970 26.4923   1
  -4   5  -6 -6.3587 15.3285  -2
   4  -5  -7 -6.3587 15.3285   1
   4  -5   6 16.5746 18.5220  -2
  -4   5   7 16.5746 18.5220   1
   3  -5  -7 780.018 42.8811   1
  -3   5   7 915.975 48.6714   1
   2  -5  -7 576.348 33.5129   1
   2  -5  -7 501.454 33.7118   1
   2  -5  -7 586.134 32.5631   1
  -2   5   7 531.638 35.9477   1
   1  -5  -7 273.419 21.3581   1
   1  -5  -7 328.624 26.6313   1
   1  -5  -7 347.705 25.2205   1
   1  -5  -7 308.699 24.6819   1
  -1   5   7 307.963 21.4220   1
  -1   5   7 320.563 26.8934   1
  -1   5   7 334.779 27.4689   1
   0  -5  -7 456.079 29.9228   1
   0  -5  -7 445.507 24.6790   1
   0  -5  -7 466.113 31.1272   1
   0  -5  -7 454.180 27.6930   1
   0  -5  -7 484.538 32.2600   1
   0  -5  -7 425.365 26.0730   1
   0   5   7 454.329 23.9871   1
   0   5   7 431.786 30.8189   1
   0   5   7 453.716 32.8950   1
  -1  -5  -7 46.1900 13.0873   1
  -1  -5  -7 48.5325 11.4898   1
  -1  -5  -7 67.3233 13.0599   1
  -1  -5  -7 48.1066 13.9604   1
  -1  -5  -7 35.5842 10.5564   1
  -1  -5  -7 53.5806 10.8050   1
   1   5   7 64.3844 8.63682   1
   1   5   7 64.1159 12.5626   1
   2   5  -5 844.262 43.2665  -2
  -2  -5  -7 844.262 43.2665   1
   2   5  -5 767.025 42.3470  -2
  -2  -5  -7 767.025 42.3470   1
   2   5  -5 725.983 37.6885  -2
  -2  -5  -7 725.983 37.6885   1
  -2  -5   5 760.523 42.3854  -2
   2   5   7 760.523 42.3854   1
  -2  -5   5 906.279 44.9369  -2
   2   5   7 906.279 44.9369   1
   3   5  -5 539.848 35.3042  -2
  -3  -5  -7 539.848 35.3042   1
   3   5  -5 580.695 33.3467  -2
  -3  -5  -7 580.695 33.3467   1
   3   5  -5 648.932 44.9034  -2
  -3  -5  -7 648.932 44.9034   1
  -3  -5   5 615.147 37.7314  -2
   3   5   7 615.147 37.7314   1
   4   5  -5 176.796 20.8381  -2
  -4  -5  -7 176.796 20.8381   1
   4   5  -5 283.136 34.1083  -2
  -4  -5  -7 283.136 34.1083   1
  -4  -5   5 280.726 25.9429  -2
   4   5   7 280.726 25.9429   1
  -4  -5   5 217.003 24.4254  -2
   4   5   7 217.003 24.4254   1
   5   5  -5 199.540 33.0036  -2
  -5  -5  -7 199.540 33.0036   1
   5   5  -5 205.639 21.6157  -2
  -5  -5  -7 205.639 21.6157   1
  -5  -5   5 173.631 24.3377  -2
   5   5   7 173.631 24.3377   1
   6   5  -5 569.896 37.3474  -2
  -6  -5  -7 569.896 37.3474   1
   7   5  -5 644.420 42.4014  -2
  -7  -5  -7 644.420 42.4014   1
   6  -6  -7 6.35473 9.23792   1
   5  -6  -7 -2.4279 7.65482   1
  -5   6   7 20.2815 12.6284   1
   4  -6  -7 3.17426 7.17462   1
  -4   6   7 12.7310 10.5202   1
   3  -6  -7 0.84291 6.28587   1
   3  -6  -7 12.9648 8.60552   1
   3  -6   5 87.4863 20.0206  -2
  -3   6   7 87.4863 20.0206   1
  -2   6  -5 170.211 18.4282  -2
   2  -6  -7 170.211 18.4282   1
   2  -6   5 195.534 23.5081  -2
  -2   6   7 195.534 23.5081   1
  -1   6  -5 51.2878 13.8138  -2
   1  -6  -7 51.2878 13.8138   1
  -1   6  -5 15.1319 15.7326  -2
   1  -6  -7 15.1319 15.7326   1
  -1   6  -5 51.4339 14.8588  -2
   1  -6  -7 51.4339 14.8588   1
   1  -6   5 60.5331 17.1325  -2
  -1   6   7 60.5331 17.1325   1
   0   6  -5 430.012 27.2068  -2
   0  -6  -7 430.012 27.2068   1
   0   6  -5 425.219 29.6252  -2
   0  -6  -7 425.219 29.6252   1
   0   6  -5 457.547 31.0806  -2
   0  -6  -7 457.547 31.0806   1
   0   6  -5 501.004 33.2890  -2
   0  -6  -7 501.004 33.2890   1
   0   6  -5 446.192 23.8434  -2
   0  -6  -7 446.192 23.8434   1
   0  -6   5 469.787 34.2100  -2
   0   6   7 469.787 34.2100   1
   1   6  -5 204.768 19.7006  -2
  -1  -6  -7 204.768 19.7006   1
   1   6  -5 166.493 16.7313  -2
  -1  -6  -7 166.493 16.7313   1
   1   6  -5 197.685 22.0797  -2
  -1  -6  -7 197.685 22.0797   1
   1   6  -5 170.552 19.9970  -2
  -1  -6  -7 170.552 19.9970   1
   1   6  -5 157.733 18.6761  -2
  -1  -6  -7 157.733 18.6761   1
  -1  -6   5 190.812 21.8258  -2
   1   6   7 190.812 21.8258   1
   2   6  -5 990.101 45.4880  -2
  -2  -6  -7 990.101 45.4880   1
   2   6  -5 1049.89 52.7738  -2
  -2  -6  -7 1049.89 52.7738   1
   2   6  -5 1169.66 56.4499  -2
  -2  -6  -7 1169.66 56.4499   1
   2   6  -5 1117.49 51.7435  -2
  -2  -6  -7 1117.49 51.7435   1
  -2  -6   5 1094.69 52.3758  -2
   2   6   7 1094.69 52.3758   1
   3   6  -5 101.139 15.4154  -2
  -3  -6  -7 101.139 15.4154   1
   3   6  -5 91.5387 20.6152  -2
  -3  -6  -7 91.5387 20.6152   1
   3   6  -5 94.5900 16.5603  -2
  -3  -6  -7 94.5900 16.5603   1
  -3  -6   5 94.6214 18.1172  -2
   3   6   7 94.6214 18.1172   1
   4   6  -5 334.859 36.8168  -2
  -4  -6  -7 334.859 36.8168   1
   4   6  -5 228.318 22.8286  -2
  -4  -6  -7 228.318 22.8286   1
  -4  -6   5 290.132 28.0220  -2
   4   6   7 290.132 28.0220   1
   5   6  -5 133.867 32.5975  -2
  -5  -6  -7 133.867 32.5975   1
   5   6  -5 112.436 20.3333  -2
  -5  -6  -7 112.436 20.3333   1
  -5  -6   5 95.8499 23.5562  -2
   5   6   7 95.8499 23.5562   1
   6   6  -5 195.636 26.9374  -2
  -6  -6  -7 195.636 26.9374   1
  -7  -6  -7 87.4431 19.3681   1
  -5   7  -5 100.540 22.9106  -2
   5  -7  -7 100.540 22.9106   1
  -4   7  -5 1143.10 57.5042  -2
   4  -7  -7 1143.10 57.5042   1
  -3   7  -5 217.521 22.5923  -2
   3  -7  -7 217.521 22.5923   1
   3  -7   5 264.421 23.8698  -2
  -3   7   7 264.421 23.8698   1
  -2   7  -5 187.986 19.4074  -2
   2  -7  -7 187.986 19.4074   1
   2  -7   5 189.058 20.6363  -2
  -2   7   7 189.058 20.6363   1
  -1   7  -5 231.568 21.1166  -2
   1  -7  -7 231.568 21.1166   1
   0   7  -5 273.439 25.9124  -2
   0  -7  -7 273.439 25.9124   1
   0   7  -5 288.185 22.7837  -2
   0  -7  -7 288.185 22.7837   1
   0   7  -5 304.011 17.8101  -2
   0  -7  -7 304.011 17.8101   1
   0   7  -5 291.701 23.8519  -2
   0  -7  -7 291.701 23.8519   1
   1   7  -5 638.076 40.9155  -2
  -1  -7  -7 638.076 40.9155   1
   1   7  -5 639.789 34.6742  -2
  -1  -7  -7 639.789 34.6742   1
   1   7  -5 700.056 37.7921  -2
  -1  -7  -7 700.056 37.7921   1
   1   7  -5 696.392 42.2161  -2
  -1  -7  -7 696.392 42.2161   1
  -1  -7   5 665.196 43.1083  -2
   1   7   7 665.196 43.1083   1
   2   7  -5 659.525 35.4590  -2
  -2  -7  -7 659.525 35.4590   1
   2   7  -5 645.400 42.9996  -2
  -2  -7  -7 645.400 42.9996   1
  -2  -7   5 645.743 40.9297  -2
   2   7   7 645.743 40.9297   1
  -3  -7  -7 13.8090 7.36826   1
  -3  -7  -7 10.8456 8.81106   1
  -3  -7  -7 5.75841 11.4116   1
   3   7   7 16.5279 9.63491   1
  -4  -7  -7 27.4495 9.54601   1
  -4  -7  -7 20.2379 13.7983   1
   4   7   7 17.4527 10.2751   1
  -5  -7  -7 92.8825 24.1673   1
  -5  -7  -7 79.7882 16.4629   1
   5   7   7 84.3433 18.2148   1
   6   7  -4 161.144 25.6212  -2
  -6  -7  -7 161.144 25.6212   1
  -5   8  -5 88.6542 20.4118  -2
   5  -8  -7 88.6542 20.4118   1
  -4   8  -5 666.421 42.6501  -2
   4  -8  -7 666.421 42.6501   1
  -3   8  -5 40.7951 17.8590  -2
   3  -8  -7 40.7951 17.8590   1
  -2   8  -5 411.529 30.3640  -2
   2  -8  -7 411.529 30.3640   1
   1  -8  -7 49.4409 11.9112   1
   0  -8  -7 49.4192 11.8992   1
   0  -8  -7 118.882 19.2873   1
   0   8   7 101.750 19.2469   1
  -1  -8  -7 53.9198 16.1029   1
  -1  -8  -7 35.0501 9.42073   1
  -1  -8  -7 32.1714 11.5059   1
   1   8   7 36.4015 13.3644   1
   2   8  -4 19.6340 20.7986  -2
  -2  -8  -7 19.6340 20.7986   1
  -2  -8   4 16.7008 19.9226  -2
   2   8   7 16.7008 19.9226   1
   3   8  -4 352.040 25.9098  -2
  -3  -8  -7 352.040 25.9098   1
  -3  -8   4 401.141 33.7757  -2
   3   8   7 401.141 33.7757   1
   4   8  -4 491.482 43.3453  -2
  -4  -8  -7 491.482 43.3453   1
   4   8  -4 448.140 30.0127  -2
  -4  -8  -7 448.140 30.0127   1
  -4  -8   4 433.881 35.3036  -2
   4   8   7 433.881 35.3036   1
   5   8  -4 651.190 54.3588  -2
  -5  -8  -7 651.190 54.3588   1
   5   8  -4 545.879 36.2202  -2
  -5  -8  -7 545.879 36.2202   1
  -5  -8   4 633.255 40.9612  -2
   5   8   7 633.255 40.9612   1
   6   8  -4 39.8166 14.4672  -2
  -6  -8  -7 39.8166 14.4672   1
   4  -9  -7 145.476 21.1955   1
   3  -9  -7 0.97902 6.94010   1
   2  -9  -7 -3.3791 6.54922   1
  -1   9  -4 115.458 18.1242  -2
   1  -9  -7 115.458 18.1242   1
   0   9  -4 567.470 32.9621  -2
   0  -9  -7 567.470 32.9621   1
   1   9  -4 5.87943 11.7897  -2
  -1  -9  -7 5.87943 11.7897   1
   2   9  -4 20.4295 11.3264  -2
  -2  -9  -7 20.4295 11.3264   1
  -2  -9   4 36.1546 18.0022  -2
   2   9   7 36.1546 18.0022   1
   3   9  -4 300.647 22.3906  -2
  -3  -9  -7 300.647 22.3906   1
  -3  -9   4 398.843 32.1824  -2
   3   9   7 398.843 32.1824   1
   4   9  -4 150.286 18.8374  -2
  -4  -9  -7 150.286 18.8374   1
   5   9  -4 458.375 32.8826  -2
  -5  -9  -7 458.375 32.8826   1
  -3  10  -4 308.570 28.5907  -2
   3 -10  -7 308.570 28.5907   1
  -2  10  -4 39.4424 14.9177  -2
   2 -10  -7 39.4424 14.9177   1
  -1  10  -4 571.367 33.7732  -2
   1 -10  -7 571.367 33.7732   1
   0  10  -4 116.206 17.3713  -2
   0 -10  -7 116.206 17.3713   1
   1  10  -4 545.328 31.5674  -2
  -1 -10  -7 545.328 31.5674   1
   2  10  -4 128.279 18.0526  -2
  -2 -10  -7 128.279 18.0526   1
   3  10  -4 162.725 21.3782  -2
  -3 -10  -7 162.725 21.3782   1
  -4 -10  -7 -1.6786 6.69470   1
  -1  11  -4 229.333 25.0863  -2
   1 -11  -7 229.333 25.0863   1
   0 -11  -7 25.3761 9.64838   1
  -1 -11  -7 173.673 17.5815   1
  -2 -11  -7 14.6127 7.64532   1
  -2  -8   8 6.12210 13.1436   1
  -2  -8   8 21.2152 19.5802   1
  -1  -8   8 53.0034 20.5198   1
  -1  -8   8 9.25721 12.2133   1
   0  -8   8 16.6673 15.3897   1
   0  -8   8 -1.6992 10.4306   1
  -1   8  10 128.994 34.6395  -2
   1  -8   8 128.994 34.6395   1
  -1   8  10 67.1943 28.9309  -2
   1  -8   8 67.1943 28.9309   1
  -2   8  10 302.811 37.4630  -2
   2  -8   8 302.811 37.4630   1
  -4  -7   8 -2.6036 11.5964   1
  -4  -7   8 -1.4920 16.1958   1
   3   7  10 80.5863 28.7811  -2
  -3  -7   8 80.5863 28.7811   1
   2   7  10 392.809 45.1134  -2
  -2  -7   8 392.809 45.1134   1
   2   7  10 274.519 33.9680  -2
  -2  -7   8 274.519 33.9680   1
   1   7  10 622.365 46.1567  -2
  -1  -7   8 622.365 46.1567   1
   1   7  10 719.053 55.8883  -2
  -1  -7   8 719.053 55.8883   1
   0   7  10 184.642 33.0408  -2
   0  -7   8 184.642 33.0408   1
   0   7  10 145.448 26.9195  -2
   0  -7   8 145.448 26.9195   1
  -1   7  10 279.853 35.0170  -2
   1  -7   8 279.853 35.0170   1
  -1   7  10 325.584 33.5189  -2
   1  -7   8 325.584 33.5189   1
  -2   7  10 194.138 27.2756  -2
   2  -7   8 194.138 27.2756   1
  -3   7  10 256.744 30.9076  -2
   3  -7   8 256.744 30.9076   1
   5   6  10 81.2046 37.9691  -2
  -5  -6   8 81.2046 37.9691   1
   5   6  10 66.2696 27.8903  -2
  -5  -6   8 66.2696 27.8903   1
   4   6  10 292.049 43.5411  -2
  -4  -6   8 292.049 43.5411   1
   4   6  10 225.864 32.2755  -2
  -4  -6   8 225.864 32.2755   1
   3   6  10 423.094 38.5212  -2
  -3  -6   8 423.094 38.5212   1
   3   6  10 450.109 44.0749  -2
  -3  -6   8 450.109 44.0749   1
   2   6  10 823.184 49.7774  -2
  -2  -6   8 823.184 49.7774   1
   2   6  10 806.908 58.2029  -2
  -2  -6   8 806.908 58.2029   1
   1   6  10 636.273 44.0929  -2
  -1  -6   8 636.273 44.0929   1
   1   6  10 713.313 53.9287  -2
  -1  -6   8 713.313 53.9287   1
   0   6  10 234.463 29.1482  -2
   0  -6   8 234.463 29.1482   1
   0   6  10 153.844 30.9984  -2
   0  -6   8 153.844 30.9984   1
  -1   6  10 241.664 24.2377  -2
   1  -6   8 241.664 24.2377   1
  -1   6  10 154.272 33.2209  -2
   1  -6   8 154.272 33.2209   1
  -1   6  10 194.831 30.0335  -2
   1  -6   8 194.831 30.0335   1
  -2   6  10 0.79471 25.5054  -2
   2  -6   8 0.79471 25.5054   1
  -2   6  10 2.35474 16.3931  -2
   2  -6   8 2.35474 16.3931   1
  -2   6  10 4.83610 24.1807  -2
   2  -6   8 4.83610 24.1807   1
   3  -6   8 20.2276 12.5835   1
   4  -6   8 13.4986 13.1131   1
   5   5  10 704.220 60.4635  -2
  -5  -5   8 704.220 60.4635   1
   5   5  10 605.617 47.7212  -2
  -5  -5   8 605.617 47.7212   1
   4   5  10 139.838 30.8936  -2
  -4  -5   8 139.838 30.8936   1
   4   5  10 137.766 29.1803  -2
  -4  -5   8 137.766 29.1803   1
   4   5  10 161.781 33.4051  -2
  -4  -5   8 161.781 33.4051   1
   3   5  10 295.247 35.6835  -2
  -3  -5   8 295.247 35.6835   1
  -2  -5 -10 140.461 28.0322  -2
   2   5  -8 140.461 28.0322   1
   2   5  10 170.874 29.1580  -2
  -2  -5   8 170.874 29.1580   1
   1   5  -8 132.000 23.8238   1
   1   5  -8 112.004 13.8626   1
   1   5  10 496.724 40.4428  -2
  -1  -5   8 496.724 40.4428   1
   0   5  -8 135.273 23.1035   1
   0  -5   8 85.1331 22.4927   1
   0  -5   8 124.120 15.7304   1
   0  -5   8 104.393 20.3784   1
  -1   5  -8 85.4053 21.7948   1
   1  -5   8 85.7403 21.8750   1
   1  -5   8 71.8876 19.3823   1
   1  -5   8 126.664 16.4638   1
   2  -5  -9 56.8746 28.6214  -2
  -2   5  -8 56.8746 28.6214   1
  -2   5   9 56.1382 25.4636  -2
   2  -5   8 56.1382 25.4636   1
  -3   5   9 176.036 30.6990  -2
   3  -5   8 176.036 30.6990   1
  -4   5   9 18.4965 25.8943  -2
   4  -5   8 18.4965 25.8943   1
  -5   5   9 19.3489 24.6542  -2
   5  -5   8 19.3489 24.6542   1
  -6  -4   8 3.86944 14.1452   1
  -6  -4   8 20.3092 19.6033   1
  -5  -4   8 175.441 32.0087   1
  -5  -4   8 163.323 31.2879   1
  -5  -4   8 176.675 28.4103   1
  -4  -4   8 -4.6326 13.1919   1
  -4  -4   8 25.5545 16.1895   1
  -4  -4   8 35.3582 14.9111   1
   3   4  -8 325.086 31.2641   1
  -3  -4   8 339.862 32.6497   1
  -3  -4   8 330.866 36.3790   1
  -2  -4  -9 203.695 27.7900  -2
   2   4  -8 203.695 27.7900   1
  -2  -4   8 1.68679 10.5427   1
  -2  -4   8 5.90402 11.8405   1
  -2  -4   8 2.07569 6.12046   1
  -1  -4  -9 282.577 22.1948  -2
   1   4  -8 282.577 22.1948   1
  -1  -4  -9 211.149 29.1201  -2
   1   4  -8 211.149 29.1201   1
   1   4   9 260.296 23.1212  -2
  -1  -4   8 260.296 23.1212   1
   1   4   9 245.350 30.4012  -2
  -1  -4   8 245.350 30.4012   1
   0  -4  -9 134.928 18.0914  -2
   0   4  -8 134.928 18.0914   1
   0  -4  -9 138.179 25.0451  -2
   0   4  -8 138.179 25.0451   1
   0   4   9 134.589 18.7167  -2
   0  -4   8 134.589 18.7167   1
   0   4   9 140.584 25.0695  -2
   0  -4   8 140.584 25.0695   1
   0   4   9 160.614 28.9205  -2
   0  -4   8 160.614 28.9205   1
   1  -4  -9 4.40427 11.5481  -2
  -1   4  -8 4.40427 11.5481   1
   1  -4  -9 -21.926 18.1807  -2
  -1   4  -8 -21.926 18.1807   1
  -1   4   9 -3.4287 17.6207  -2
   1  -4   8 -3.4287 17.6207   1
  -1   4   9 9.04601 18.3116  -2
   1  -4   8 9.04601 18.3116   1
  -1   4   9 -7.9609 13.4950  -2
   1  -4   8 -7.9609 13.4950   1
   2  -4  -9 1108.90 66.4101  -2
  -2   4  -8 1108.90 66.4101   1
  -2   4   9 1178.05 54.9454  -2
   2  -4   8 1178.05 54.9454   1
  -2   4   9 1150.26 70.2756  -2
   2  -4   8 1150.26 70.2756   1
  -2   4   9 1120.38 60.1723  -2
   2  -4   8 1120.38 60.1723   1
   3  -4  -9 72.4014 23.1279  -2
  -3   4  -8 72.4014 23.1279   1
  -3   4   9 85.6292 20.2532  -2
   3  -4   8 85.6292 20.2532   1
  -3   4   9 67.6258 16.1096  -2
   3  -4   8 67.6258 16.1096   1
  -4   4   9 131.988 23.9778  -2
   4  -4   8 131.988 23.9778   1
  -5   4   9 115.407 26.8508  -2
   5  -4   8 115.407 26.8508   1
  -6   4   9 336.932 40.8735  -2
   6  -4   8 336.932 40.8735   1
  -6  -3   8 151.067 28.2868   1
   5   3   9 86.9090 28.1175  -2
  -5  -3   8 86.9090 28.1175   1
   4   3   9 86.2337 26.5158  -2
  -4  -3   8 86.2337 26.5158   1
   4   3   9 138.450 28.0139  -2
  -4  -3   8 138.450 28.0139   1
  -3  -3  -9 101.419 15.8040  -2
   3   3  -8 101.419 15.8040   1
   3   3   9 139.689 25.2746  -2
  -3  -3   8 139.689 25.2746   1
   3   3   9 121.630 25.8927  -2
  -3  -3   8 121.630 25.8927   1
   3   3   9 110.868 24.6338  -2
  -3  -3   8 110.868 24.6338   1
  -2  -3  -9 52.4928 12.6535  -2
   2   3  -8 52.4928 12.6535   1
  -2  -3  -9 41.2199 16.8249  -2
   2   3  -8 41.2199 16.8249   1
   2   3   9 49.6940 13.7007  -2
  -2  -3   8 49.6940 13.7007   1
   2   3   9 49.3077 18.4801  -2
  -2  -3   8 49.3077 18.4801   1
   2   3   9 58.6899 18.8927  -2
  -2  -3   8 58.6899 18.8927   1
  -1  -3  -9 84.9710 16.6224  -2
   1   3  -8 84.9710 16.6224   1
  -1  -3  -9 78.1949 12.4503  -2
   1   3  -8 78.1949 12.4503   1
   1   3   9 88.4382 18.0926  -2
  -1  -3   8 88.4382 18.0926   1
   1   3   9 68.5312 13.2966  -2
  -1  -3   8 68.5312 13.2966   1
   1   3   9 93.8250 20.2998  -2
  -1  -3   8 93.8250 20.2998   1
   0  -3  -9 110.667 16.0458  -2
   0   3  -8 110.667 16.0458   1
   0  -3  -9 119.655 21.9610  -2
   0   3  -8 119.655 21.9610   1
   0   3   9 87.3662 20.0819  -2
   0  -3   8 87.3662 20.0819   1
   0   3   9 126.165 17.3460  -2
   0  -3   8 126.165 17.3460   1
   0   3   9 115.121 22.3467  -2
   0  -3   8 115.121 22.3467   1
   1  -3  -9 198.527 20.9094  -2
  -1   3  -8 198.527 20.9094   1
   1  -3  -9 209.892 28.5594  -2
  -1   3  -8 209.892 28.5594   1
  -1   3   9 266.152 34.1900  -2
   1  -3   8 266.152 34.1900   1
  -1   3   9 212.405 26.6120  -2
   1  -3   8 212.405 26.6120   1
  -1   3   9 214.388 23.1051  -2
   1  -3   8 214.388 23.1051   1
   2  -3  -9 772.919 53.6567  -2
  -2   3  -8 772.919 53.6567   1
   2  -3  -9 778.299 41.6609  -2
  -2   3  -8 778.299 41.6609   1
  -2   3   9 688.176 41.1091  -2
   2  -3   8 688.176 41.1091   1
  -2   3   9 657.874 51.6362  -2
   2  -3   8 657.874 51.6362   1
  -2   3   9 671.596 46.0143  -2
   2  -3   8 671.596 46.0143   1
   3  -3  -9 367.223 43.4797  -2
  -3   3  -8 367.223 43.4797   1
  -3   3   9 359.398 35.4979  -2
   3  -3   8 359.398 35.4979   1
  -3   3   9 348.265 32.2038  -2
   3  -3   8 348.265 32.2038   1
  -4   3   9 247.219 34.7151  -2
   4  -3   8 247.219 34.7151   1
   5  -3   8 20.2434 13.0749   1
   6  -3   8 4.68336 10.8884   1
   6   2   9 49.0655 22.8536  -2
  -6  -2   8 49.0655 22.8536   1
   5   2   9 69.5940 23.1291  -2
  -5  -2   8 69.5940 23.1291   1
   5   2   9 70.3649 21.7878  -2
  -5  -2   8 70.3649 21.7878   1
   5   2   9 62.5220 20.3306  -2
  -5  -2   8 62.5220 20.3306   1
  -4  -2  -9 986.891 46.9030  -2
   4   2  -8 986.891 46.9030   1
   4   2   9 913.482 60.8145  -2
  -4  -2   8 913.482 60.8145   1
   4   2   9 891.342 56.3943  -2
  -4  -2   8 891.342 56.3943   1
   4   2   9 977.333 56.7586  -2
  -4  -2   8 977.333 56.7586   1
  -3  -2  -9 95.2212 17.0267  -2
   3   2  -8 95.2212 17.0267   1
   3   2   9 77.9394 22.9702  -2
  -3  -2   8 77.9394 22.9702   1
   3   2   9 118.881 24.9084  -2
  -3  -2   8 118.881 24.9084   1
   3   2   9 91.8830 20.9101  -2
  -3  -2   8 91.8830 20.9101   1
  -2  -2  -9 547.376 31.8850  -2
   2   2  -8 547.376 31.8850   1
  -2  -2  -9 533.647 37.5317  -2
   2   2  -8 533.647 37.5317   1
   2   2   9 497.291 39.5318  -2
  -2  -2   8 497.291 39.5318   1
   2   2   9 510.874 32.8182  -2
  -2  -2   8 510.874 32.8182   1
  -1  -2  -9 242.201 23.0522  -2
   1   2  -8 242.201 23.0522   1
  -1  -2  -9 271.016 23.5136  -2
   1   2  -8 271.016 23.5136   1
  -1  -2  -9 225.393 26.9692  -2
   1   2  -8 225.393 26.9692   1
   1   2   9 265.552 24.6028  -2
  -1  -2   8 265.552 24.6028   1
   1   2   9 257.906 30.0374  -2
  -1  -2   8 257.906 30.0374   1
   0  -2  -9 572.688 33.4973  -2
   0   2  -8 572.688 33.4973   1
   0   2   9 595.532 41.7180  -2
   0  -2   8 595.532 41.7180   1
  -1   2  -8 166.037 17.5023   1
  -1   2  -8 141.425 16.5738   1
  -1   2  -8 182.285 25.3011   1
   1  -2   8 145.533 24.0186   1
   1  -2   8 168.850 18.2155   1
   1  -2   8 154.170 21.3314   1
   1  -2   8 154.933 8.05812   1
  -2   2  -8 137.207 17.2479   1
  -2   2  -8 116.106 22.6493   1
  -2   2  -8 167.157 18.4922   1
   2  -2   8 133.509 24.2145   1
   2  -2   8 114.092 19.7262   1
   2  -2   8 129.811 17.5237   1
   3  -2  -8 238.078 25.1960  -2
  -3   2  -8 238.078 25.1960   1
  -3   2   8 223.072 30.4476  -2
   3  -2   8 223.072 30.4476   1
   4  -2  -8 143.573 34.3278  -2
  -4   2  -8 143.573 34.3278   1
   4  -2  -8 97.6354 20.2767  -2
  -4   2  -8 97.6354 20.2767   1
  -4   2   8 86.0131 25.6691  -2
   4  -2   8 86.0131 25.6691   1
  -5   2   8 250.689 32.3372  -2
   5  -2   8 250.689 32.3372   1
   6   1   9 69.7156 26.8418  -2
  -6  -1   8 69.7156 26.8418   1
   5   1   9 60.5087 26.8169  -2
  -5  -1   8 60.5087 26.8169   1
   4   1  -8 575.558 34.7986   1
   4   1   9 623.628 46.0393  -2
  -4  -1   8 623.628 46.0393   1
   3   1  -8 11.2101 3.63977   1
   3   1  -8 10.1413 7.64731   1
   3   1  -8 3.70424 8.83737   1
  -3  -1   8 2.23194 8.50407   1
  -3  -1   8 26.3349 12.8550   1
  -3  -1   8 3.86641 9.55107   1
  -3  -1   8 14.4513 11.2700   1
  -3  -1   8 10.9480 8.12275   1
   2   1  -8 613.654 33.2569   1
   2   1  -8 552.746 36.6137   1
   2   1  -8 606.820 33.4085   1
  -2  -1   8 659.016 42.5333   1
  -2  -1   8 580.874 40.0271   1
  -2  -1   8 596.152 44.2269   1
  -2  -1   8 650.646 36.2862   1
  -1  -1  -8 1604.25 62.7384  -2
   1   1  -8 1604.25 62.7384   1
   1   1   8 1431.97 67.9206  -2
  -1  -1   8 1431.97 67.9206   1
   0  -1  -8 65.8538 20.8283  -2
   0   1  -8 65.8538 20.8283   1
   0  -1  -8 48.3825 15.2250  -2
   0   1  -8 48.3825 15.2250   1
   0  -1  -8 80.0452 16.3027  -2
   0   1  -8 80.0452 16.3027   1
   0   1   8 69.3105 22.3015  -2
   0  -1   8 69.3105 22.3015   1
   0   1   8 45.0276 20.8343  -2
   0  -1   8 45.0276 20.8343   1
   0   1   8 82.6644 21.5608  -2
   0  -1   8 82.6644 21.5608   1
   0   1   8 79.5492 17.2358  -2
   0  -1   8 79.5492 17.2358   1
   1  -1  -8 261.868 23.2664  -2
  -1   1  -8 261.868 23.2664   1
   1  -1  -8 243.061 22.5844  -2
  -1   1  -8 243.061 22.5844   1
   1  -1  -8 353.304 32.4021  -2
  -1   1  -8 353.304 32.4021   1
  -1   1   8 305.740 29.2405  -2
   1  -1   8 305.740 29.2405   1
  -1   1   8 319.497 35.1574  -2
   1  -1   8 319.497 35.1574   1
  -1   1   8 300.369 25.5221  -2
   1  -1   8 300.369 25.5221   1
  -1   1   8 276.436 32.3416  -2
   1  -1   8 276.436 32.3416   1
   2  -1  -8 246.270 32.3749  -2
  -2   1  -8 246.270 32.3749   1
   2  -1  -8 252.573 22.8790  -2
  -2   1  -8 252.573 22.8790   1
   2  -1  -8 296.071 24.3266  -2
  -2   1  -8 296.071 24.3266   1
  -2   1   8 243.523 31.2031  -2
   2  -1   8 243.523 31.2031   1
  -2   1   8 269.936 27.6171  -2
   2  -1   8 269.936 27.6171   1
  -2   1   8 275.783 25.7954  -2
   2  -1   8 275.783 25.7954   1
   3  -1  -8 364.707 27.8431  -2
  -3   1  -8 364.707 27.8431   1
   3  -1  -8 446.407 41.5943  -2
  -3   1  -8 446.407 41.5943   1
  -3   1   8 422.072 31.9502  -2
   3  -1   8 422.072 31.9502   1
  -3   1   8 420.003 31.7445  -2
   3  -1   8 420.003 31.7445   1
   4  -1  -8 28.5954 10.8130  -2
  -4   1  -8 28.5954 10.8130   1
   4  -1  -8 21.3874 19.8420  -2
  -4   1  -8 21.3874 19.8420   1
  -4   1   8 29.6459 13.0885  -2
   4  -1   8 29.6459 13.0885   1
  -4   1   8 -0.3721 8.37653  -2
   4  -1   8 -0.3721 8.37653   1
   5  -1  -8 645.115 40.8345  -2
  -5   1  -8 645.115 40.8345   1
  -5   1   8 804.952 46.6125  -2
   5  -1   8 804.952 46.6125   1
  -7   0   8 -1.0688 12.7876   1
  -6   0   8 463.598 41.7188   1
  -6   0   8 484.761 46.6323   1
  -5   0   8 15.5740 11.6532   1
  -5   0   8 -2.1612 13.0450   1
  -4   0  -8 123.960 21.8767  -2
   4   0  -8 123.960 21.8767   1
   4   0   8 198.165 30.3140  -2
  -4   0   8 198.165 30.3140   1
   4   0   8 122.072 24.3879  -2
  -4   0   8 122.072 24.3879   1
  -3   0  -8 324.626 26.1720  -2
   3   0  -8 324.626 26.1720   1
  -3   0  -8 283.469 26.8156  -2
   3   0  -8 283.469 26.8156   1
   3   0   8 348.433 31.6768  -2
  -3   0   8 348.433 31.6768   1
   3   0   8 328.050 27.9211  -2
  -3   0   8 328.050 27.9211   1
   3   0   8 269.944 31.8188  -2
  -3   0   8 269.944 31.8188   1
  -2   0  -8 41.0200 14.2220  -2
   2   0  -8 41.0200 14.2220   1
  -2   0  -8 31.7239 13.9539  -2
   2   0  -8 31.7239 13.9539   1
  -2   0  -8 35.5364 13.9028  -2
   2   0  -8 35.5364 13.9028   1
   2   0   8 42.1208 18.4072  -2
  -2   0   8 42.1208 18.4072   1
   2   0   8 54.8555 19.7805  -2
  -2   0   8 54.8555 19.7805   1
   2   0   8 43.7096 18.4791  -2
  -2   0   8 43.7096 18.4791   1
   2   0   8 50.9452 15.7806  -2
  -2   0   8 50.9452 15.7806   1
  -1   0  -8 373.031 27.1887  -2
   1   0  -8 373.031 27.1887   1
  -1   0  -8 359.280 26.0058  -2
   1   0  -8 359.280 26.0058   1
  -1   0  -8 370.135 25.7195  -2
   1   0  -8 370.135 25.7195   1
   1   0   8 379.849 30.2134  -2
  -1   0   8 379.849 30.2134   1
   1   0   8 379.573 30.7038  -2
  -1   0   8 379.573 30.7038   1
   1   0   8 325.964 32.1517  -2
  -1   0   8 325.964 32.1517   1
   1   0   8 366.390 27.1916  -2
  -1   0   8 366.390 27.1916   1
   0   0  -8 3.78744 5.75200  -2
   0   0  -8 3.78744 5.75200   1
   0   0  -8 -3.2896 7.45125  -2
   0   0  -8 -3.2896 7.45125   1
   0   0  -8 12.9032 7.80951  -2
   0   0  -8 12.9032 7.80951   1
   0   0   8 10.8995 12.6124  -2
   0   0   8 10.8995 12.6124   1
   0   0   8 11.6921 9.75431  -2
   0   0   8 11.6921 9.75431   1
   0   0   8 9.20873 9.06659  -2
   0   0   8 9.20873 9.06659   1
   0   0   8 6.71695 9.90555  -2
   0   0   8 6.71695 9.90555   1
   1   0  -8 398.549 26.6917  -2
  -1   0  -8 398.549 26.6917   1
   1   0  -8 370.909 27.1382  -2
  -1   0  -8 370.909 27.1382   1
   1   0  -8 397.623 33.1185  -2
  -1   0  -8 397.623 33.1185   1
  -1   0   8 360.593 34.9890  -2
   1   0   8 360.593 34.9890   1
  -1   0   8 417.731 31.4670  -2
   1   0   8 417.731 31.4670   1
  -1   0   8 416.075 29.1710  -2
   1   0   8 416.075 29.1710   1
  -1   0   8 435.891 34.9316  -2
   1   0   8 435.891 34.9316   1
   2   0  -8 38.6737 19.6122  -2
  -2   0  -8 38.6737 19.6122   1
   2   0  -8 51.6902 14.8746  -2
  -2   0  -8 51.6902 14.8746   1
   2   0  -8 35.2672 14.6190  -2
  -2   0  -8 35.2672 14.6190   1
  -2   0   8 55.6504 17.0185  -2
   2   0   8 55.6504 17.0185   1
  -2   0   8 28.1754 18.2643  -2
   2   0   8 28.1754 18.2643   1
  -2   0   8 53.4755 17.8961  -2
   2   0   8 53.4755 17.8961   1
  -2   0   8 20.6482 20.0677  -2
   2   0   8 20.6482 20.0677   1
  -2   0   8 39.0882 9.56680  -2
   2   0   8 39.0882 9.56680   1
   3   0  -8 274.288 25.9577  -2
  -3   0  -8 274.288 25.9577   1
   3   0  -8 319.034 39.0243  -2
  -3   0  -8 319.034 39.0243   1
  -3   0   8 314.639 30.1038  -2
   3   0   8 314.639 30.1038   1
  -3   0   8 276.857 21.3432  -2
   3   0   8 276.857 21.3432   1
  -3   0   8 251.777 27.3918  -2
   3   0   8 251.777 27.3918   1
   4   0  -8 155.363 34.2884  -2
  -4   0  -8 155.363 34.2884   1
   4   0  -8 149.418 23.5533  -2
  -4   0  -8 149.418 23.5533   1
  -4   0   8 115.175 24.7954  -2
   4   0   8 115.175 24.7954   1
  -4   0   8 149.761 24.2212  -2
   4   0   8 149.761 24.2212   1
   5   0  -8 163.145 27.4508  -2
  -5   0  -8 163.145 27.4508   1
  -6   0  -8 26.4674 12.1281   1
  -7   0  -8 -10.596 9.99155   1
   6  -1   8 152.775 30.2744  -2
  -6   1   8 152.775 30.2744   1
   6  -1   8 181.004 30.2695  -2
  -6   1   8 181.004 30.2695   1
   5  -1   8 763.356 50.8062  -2
  -5   1   8 763.356 50.8062   1
   5  -1   8 744.642 52.9056  -2
  -5   1   8 744.642 52.9056   1
  -4   1  -8 28.3321 12.2419  -2
   4  -1  -8 28.3321 12.2419   1
   4  -1   8 28.1838 14.0603  -2
  -4   1   8 28.1838 14.0603   1
   4  -1   8 41.5542 16.9082  -2
  -4   1   8 41.5542 16.9082   1
   4  -1   8 9.43903 14.2216  -2
  -4   1   8 9.43903 14.2216   1
  -3   1  -8 412.900 29.3786  -2
   3  -1  -8 412.900 29.3786   1
  -3   1  -8 427.350 31.5864  -2
   3  -1  -8 427.350 31.5864   1
   3  -1   8 422.182 31.3721  -2
  -3   1   8 422.182 31.3721   1
   3  -1   8 373.029 34.3441  -2
  -3   1   8 373.029 34.3441   1
   3  -1   8 408.946 33.9386  -2
  -3   1   8 408.946 33.9386   1
  -2   1  -8 236.469 23.0912  -2
   2  -1  -8 236.469 23.0912   1
  -2   1  -8 254.823 24.6823  -2
   2  -1  -8 254.823 24.6823   1
  -2   1  -8 258.690 21.9060  -2
   2  -1  -8 258.690 21.9060   1
   2  -1   8 266.278 26.4713  -2
  -2   1   8 266.278 26.4713   1
   2  -1   8 293.208 21.1541  -2
  -2   1   8 293.208 21.1541   1
   2  -1   8 268.469 28.4084  -2
  -2   1   8 268.469 28.4084   1
   2  -1   8 295.183 27.3709  -2
  -2   1   8 295.183 27.3709   1
   2  -1   8 260.932 30.0350  -2
  -2   1   8 260.932 30.0350   1
  -1   1  -8 275.997 24.3512  -2
   1  -1  -8 275.997 24.3512   1
  -1   1  -8 249.701 23.5391  -2
   1  -1  -8 249.701 23.5391   1
  -1   1  -8 287.560 24.6853  -2
   1  -1  -8 287.560 24.6853   1
   1  -1   8 283.057 25.8989  -2
  -1   1   8 283.057 25.8989   1
   1  -1   8 298.425 27.9876  -2
  -1   1   8 298.425 27.9876   1
   1  -1   8 242.474 27.3730  -2
  -1   1   8 242.474 27.3730   1
   1  -1   8 309.767 32.4034  -2
  -1   1   8 309.767 32.4034   1
   0   1  -8 101.854 18.5685  -2
   0  -1  -8 101.854 18.5685   1
   0   1  -8 95.2120 20.1410  -2
   0  -1  -8 95.2120 20.1410   1
   0   1  -8 89.4261 18.3628  -2
   0  -1  -8 89.4261 18.3628   1
   0  -1   8 69.4769 20.8059  -2
   0   1   8 69.4769 20.8059   1
   0  -1   8 93.5843 18.4820  -2
   0   1   8 93.5843 18.4820   1
   0  -1   8 93.4490 23.7268  -2
   0   1   8 93.4490 23.7268   1
   0  -1   8 120.442 23.1432  -2
   0   1   8 120.442 23.1432   1
   1   1  -8 1725.27 70.2739  -2
  -1  -1  -8 1725.27 70.2739   1
  -1  -1   8 1717.87 86.2128  -2
   1   1   8 1717.87 86.2128   1
  -2  -1  -8 199.929 25.4487   1
  -2  -1  -8 188.451 19.6305   1
  -2  -1  -8 204.256 19.5111   1
   2   1   8 169.606 18.8876   1
   2   1   8 185.612 23.9583   1
   2   1   8 180.565 20.3671   1
   2   1   8 168.092 14.1092   1
  -3  -1  -8 459.164 31.0111   1
  -3  -1  -8 452.742 39.2568   1
   3   1   8 486.902 28.2762   1
   3   1   8 453.239 31.2929   1
   3   1   8 444.585 30.7248   1
   4   1  -7 270.463 28.3197  -2
  -4  -1  -8 270.463 28.3197   1
   4   1   8 164.852 19.9692   1
   4   1   8 157.116 19.4440   1
   4   1   8 145.436 17.7211   1
   5   1  -7 76.3979 21.8145  -2
  -5  -1  -8 76.3979 21.8145   1
   6   1  -7 -7.2936 19.4628  -2
  -6  -1  -8 -7.2936 19.4628   1
   7   1  -7 10.5310 19.3245  -2
  -7  -1  -8 10.5310 19.3245   1
   6  -2   8 58.3033 24.5409  -2
  -6   2   8 58.3033 24.5409   1
   5  -2   8 262.666 34.2000  -2
  -5   2   8 262.666 34.2000   1
  -4   2  -8 95.5015 20.8646  -2
   4  -2  -8 95.5015 20.8646   1
   4  -2   8 107.277 26.9188  -2
  -4   2   8 107.277 26.9188   1
   3  -2  -8 179.300 21.0032   1
   3  -2  -8 185.508 19.3482   1
  -3   2   8 225.929 26.1922   1
  -3   2   8 168.024 18.5847   1
  -3   2   8 166.442 23.2065   1
   2  -2  -8 5.70822 7.61524   1
   2  -2  -8 -1.9317 6.74384   1
   2  -2  -8 0.15946 5.14998   1
  -2   2   8 -0.4512 4.03434   1
  -2   2   8 -3.5804 6.60276   1
  -2   2   8 3.67968 7.08443   1
  -2   2   8 5.57728 8.25356   1
  -2   2   8 10.6599 10.7639   1
   1  -2  -8 211.259 18.7622   1
   1  -2  -8 230.794 14.1087   1
   1  -2  -8 212.985 19.6515   1
   1  -2  -8 236.647 21.3787   1
  -1   2   8 246.853 21.9291   1
  -1   2   8 222.142 22.0471   1
  -1   2   8 192.544 24.2293   1
  -1   2   8 238.688 23.6129   1
   0   2  -7 986.032 46.3674  -2
   0  -2  -8 986.032 46.3674   1
   0  -2   7 972.326 56.8984  -2
   0   2   8 972.326 56.8984   1
   1   2  -7 22.3898 18.0410  -2
  -1  -2  -8 22.3898 18.0410   1
   1   2  -7 18.7070 14.9398  -2
  -1  -2  -8 18.7070 14.9398   1
   1   2  -7 37.1565 15.1758  -2
  -1  -2  -8 37.1565 15.1758   1
  -1  -2   7 43.3881 17.7464  -2
   1   2   8 43.3881 17.7464   1
  -1  -2   7 10.7199 16.2099  -2
   1   2   8 10.7199 16.2099   1
  -1  -2   7 24.9047 17.9589  -2
   1   2   8 24.9047 17.9589   1
  -1  -2   7 30.5591 16.3117  -2
   1   2   8 30.5591 16.3117   1
   2   2  -7 180.159 27.1807  -2
  -2  -2  -8 180.159 27.1807   1
   2   2  -7 193.502 21.0089  -2
  -2  -2  -8 193.502 21.0089   1
   2   2  -7 171.888 20.2702  -2
  -2  -2  -8 171.888 20.2702   1
  -2  -2   7 193.550 22.1326  -2
   2   2   8 193.550 22.1326   1
  -2  -2   7 211.156 28.4878  -2
   2   2   8 211.156 28.4878   1
  -2  -2   7 197.913 22.8875  -2
   2   2   8 197.913 22.8875   1
   3   2  -7 58.9621 16.5704  -2
  -3  -2  -8 58.9621 16.5704   1
   3   2  -7 72.6031 24.3540  -2
  -3  -2  -8 72.6031 24.3540   1
  -3  -2   7 80.4714 18.1603  -2
   3   2   8 80.4714 18.1603   1
  -3  -2   7 74.6304 17.4416  -2
   3   2   8 74.6304 17.4416   1
  -3  -2   7 80.8583 15.0615  -2
   3   2   8 80.8583 15.0615   1
   4   2  -7 131.276 29.0617  -2
  -4  -2  -8 131.276 29.0617   1
   4   2  -7 103.493 17.1274  -2
  -4  -2  -8 103.493 17.1274   1
  -4  -2   7 126.471 20.9521  -2
   4   2   8 126.471 20.9521   1
  -4  -2   7 137.024 18.3460  -2
   4   2   8 137.024 18.3460   1
   5   2  -7 283.409 26.7494  -2
  -5  -2  -8 283.409 26.7494   1
   5   2  -7 299.010 37.4068  -2
  -5  -2  -8 299.010 37.4068   1
   6   2  -7 11.8353 14.1842  -2
  -6  -2  -8 11.8353 14.1842   1
   7   2  -7 471.157 39.1747  -2
  -7  -2  -8 471.157 39.1747   1
  -6   3   8 41.2157 18.2505   1
   5  -3  -8 699.578 42.4935   1
  -5   3   8 711.993 50.5975   1
   4  -3  -8 11.4111 8.64966   1
   4  -3   7 258.120 32.0059  -2
  -4   3   8 258.120 32.0059   1
  -3   3  -7 1094.94 53.1119  -2
   3  -3  -8 1094.94 53.1119   1
   3  -3   7 1083.86 47.6429  -2
  -3   3   8 1083.86 47.6429   1
   3  -3   7 1049.90 56.5624  -2
  -3   3   8 1049.90 56.5624   1
  -2   3  -7 39.1514 15.9385  -2
   2  -3  -8 39.1514 15.9385   1
  -2   3  -7 -9.8989 15.3784  -2
   2  -3  -8 -9.8989 15.3784   1
  -2   3  -7 39.6178 9.79063  -2
   2  -3  -8 39.6178 9.79063   1
   2  -3   7 36.5871 19.3313  -2
  -2   3   8 36.5871 19.3313   1
   2  -3   7 4.77450 13.3007  -2
  -2   3   8 4.77450 13.3007   1
   2  -3   7 38.8651 17.7171  -2
  -2   3   8 38.8651 17.7171   1
  -1   3  -7 678.223 39.2714  -2
   1  -3  -8 678.223 39.2714   1
  -1   3  -7 626.619 31.0945  -2
   1  -3  -8 626.619 31.0945   1
  -1   3  -7 720.217 37.8683  -2
   1  -3  -8 720.217 37.8683   1
  -1   3  -7 679.535 33.0198  -2
   1  -3  -8 679.535 33.0198   1
   1  -3   7 736.458 37.3320  -2
  -1   3   8 736.458 37.3320   1
   1  -3   7 629.943 40.1830  -2
  -1   3   8 629.943 40.1830   1
   1  -3   7 666.740 39.4307  -2
  -1   3   8 666.740 39.4307   1
   1  -3   7 666.480 44.8527  -2
  -1   3   8 666.480 44.8527   1
   0   3  -7 175.047 15.0565  -2
   0  -3  -8 175.047 15.0565   1
   0   3  -7 187.371 19.2221  -2
   0  -3  -8 187.371 19.2221   1
   0   3  -7 192.099 19.2116  -2
   0  -3  -8 192.099 19.2116   1
   0   3  -7 209.579 21.0516  -2
   0  -3  -8 209.579 21.0516   1
   0  -3   7 212.990 26.3384  -2
   0   3   8 212.990 26.3384   1
   0  -3   7 209.048 20.6101  -2
   0   3   8 209.048 20.6101   1
   0  -3   7 141.094 17.8414  -2
   0   3   8 141.094 17.8414   1
   0  -3   7 208.927 21.9274  -2
   0   3   8 208.927 21.9274   1
   1   3  -7 8.96589 9.08167  -2
  -1  -3  -8 8.96589 9.08167   1
   1   3  -7 32.6889 10.1577  -2
  -1  -3  -8 32.6889 10.1577   1
   1   3  -7 16.7539 7.89064  -2
  -1  -3  -8 16.7539 7.89064   1
  -1  -3   7 14.6847 7.94598  -2
   1   3   8 14.6847 7.94598   1
  -1  -3   7 20.1163 13.5929  -2
   1   3   8 20.1163 13.5929   1
  -1  -3   7 14.9420 8.85430  -2
   1   3   8 14.9420 8.85430   1
   2   3  -7 75.8906 19.9979  -2
  -2  -3  -8 75.8906 19.9979   1
   2   3  -7 104.074 16.3600  -2
  -2  -3  -8 104.074 16.3600   1
   2   3  -7 105.802 16.4967  -2
  -2  -3  -8 105.802 16.4967   1
  -2  -3   7 102.774 18.1473  -2
   2   3   8 102.774 18.1473   1
  -2  -3   7 87.4821 15.1890  -2
   2   3   8 87.4821 15.1890   1
   3   3  -7 254.236 24.2939  -2
  -3  -3  -8 254.236 24.2939   1
   3   3  -7 245.677 31.8963  -2
  -3  -3  -8 245.677 31.8963   1
  -3  -3   7 274.697 26.8247  -2
   3   3   8 274.697 26.8247   1
  -3  -3   7 218.649 21.1206  -2
   3   3   8 218.649 21.1206   1
   4   3  -7 468.656 44.3509  -2
  -4  -3  -8 468.656 44.3509   1
   4   3  -7 389.978 31.4087  -2
  -4  -3  -8 389.978 31.4087   1
  -4  -3   7 385.462 30.3891  -2
   4   3   8 385.462 30.3891   1
  -4  -3   7 376.533 33.2977  -2
   4   3   8 376.533 33.2977   1
   5   3  -7 209.618 27.2343  -2
  -5  -3  -8 209.618 27.2343   1
  -6  -3  -8 -1.4978 7.85226   1
  -7  -3  -8 46.0254 15.8140   1
  -6   4  -7 263.757 31.0644  -2
   6  -4  -8 263.757 31.0644   1
   6  -4   7 274.227 35.7977  -2
  -6   4   8 274.227 35.7977   1
  -5   4  -7 143.686 23.3349  -2
   5  -4  -8 143.686 23.3349   1
   5  -4   7 107.793 23.9648  -2
  -5   4   8 107.793 23.9648   1
  -4   4  -7 129.725 20.2544  -2
   4  -4  -8 129.725 20.2544   1
   4  -4   7 143.881 23.2187  -2
  -4   4   8 143.881 23.2187   1
  -3   4  -7 64.5378 14.5030  -2
   3  -4  -8 64.5378 14.5030   1
   3  -4   7 68.4478 17.2721  -2
  -3   4   8 68.4478 17.2721   1
  -2   4  -7 960.438 47.2347  -2
   2  -4  -8 960.438 47.2347   1
   2  -4   7 956.663 39.0963  -2
  -2   4   8 956.663 39.0963   1
   2  -4   7 905.970 47.9346  -2
  -2   4   8 905.970 47.9346   1
   2  -4   7 904.116 53.5128  -2
  -2   4   8 904.116 53.5128   1
  -1   4  -7 239.973 17.1707  -2
   1  -4  -8 239.973 17.1707   1
  -1   4  -7 323.218 25.4071  -2
   1  -4  -8 323.218 25.4071   1
   1  -4   7 272.693 24.9911  -2
  -1   4   8 272.693 24.9911   1
   1  -4   7 253.417 28.3706  -2
  -1   4   8 253.417 28.3706   1
   1  -4   7 292.181 28.8316  -2
  -1   4   8 292.181 28.8316   1
   0   4  -7 67.3333 17.6305  -2
   0  -4  -8 67.3333 17.6305   1
   0   4  -7 65.0948 13.8581  -2
   0  -4  -8 65.0948 13.8581   1
   0   4  -7 72.4457 17.0144  -2
   0  -4  -8 72.4457 17.0144   1
   0   4  -7 71.7370 16.4020  -2
   0  -4  -8 71.7370 16.4020   1
   0  -4   7 64.6013 20.4607  -2
   0   4   8 64.6013 20.4607   1
   0  -4   7 72.8332 18.8561  -2
   0   4   8 72.8332 18.8561   1
   1   4  -7 854.771 47.5106  -2
  -1  -4  -8 854.771 47.5106   1
   1   4  -7 878.532 44.4208  -2
  -1  -4  -8 878.532 44.4208   1
   1   4  -7 902.362 43.0030  -2
  -1  -4  -8 902.362 43.0030   1
  -1  -4   7 928.810 50.0492  -2
   1   4   8 928.810 50.0492   1
   2   4  -7 109.275 19.7901  -2
  -2  -4  -8 109.275 19.7901   1
   2   4   8 95.0181 16.3334   1
   2   4   8 74.9727 15.5618   1
  -3  -4  -8 607.211 43.3948   1
  -3  -4  -8 520.682 32.8853   1
   3   4   8 591.181 35.2605   1
   3   4   8 549.013 35.9985   1
  -4  -4  -8 261.694 24.2893   1
  -4  -4  -8 310.601 34.7879   1
   4   4   8 275.756 26.4105   1
   4   4   8 249.854 24.3719   1
  -5  -4  -8 -5.2430 13.2359   1
  -5  -4  -8 7.48905 7.82769   1
   6   4  -6 683.258 46.2031  -2
  -6  -4  -8 683.258 46.2031   1
   7   4  -6 97.3486 25.4877  -2
  -7  -4  -8 97.3486 25.4877   1
  -6   5  -7 17.0217 19.0052  -2
   6  -5  -8 17.0217 19.0052   1
   6  -5   7 89.6798 26.3886  -2
  -6   5   8 89.6798 26.3886   1
  -5   5  -7 15.8813 18.1005  -2
   5  -5  -8 15.8813 18.1005   1
   5  -5   7 -8.9247 20.4523  -2
  -5   5   8 -8.9247 20.4523   1
  -4   5  -7 456.145 35.2409  -2
   4  -5  -8 456.145 35.2409   1
   4  -5   7 471.310 39.7192  -2
  -4   5   8 471.310 39.7192   1
  -3   5  -7 308.012 29.7048  -2
   3  -5  -8 308.012 29.7048   1
   3  -5   7 331.671 34.4407  -2
  -3   5   8 331.671 34.4407   1
   2  -5  -8 92.6370 15.4337   1
  -2   5   8 94.3097 19.9379   1
  -2   5   8 79.6725 16.6267   1
   1  -5  -8 327.871 27.6064   1
   1  -5  -8 320.157 24.5874   1
   1  -5  -8 359.719 24.3354   1
   1  -5  -8 303.218 15.7010   1
  -1   5   8 337.475 28.9714   1
  -1   5   8 332.132 29.8833   1
   0  -5  -8 8.13422 9.37333   1
   0  -5  -8 17.6762 9.17756   1
   0  -5  -8 22.4769 8.44860   1
   0  -5  -8 10.9268 7.51197   1
   0   5   8 6.55902 8.77431   1
   0   5   8 11.9239 11.4773   1
  -1  -5  -8 135.193 16.2458   1
  -1  -5  -8 118.693 15.8095   1
  -1  -5  -8 119.827 16.2241   1
  -1  -5  -8 118.438 16.8200   1
   1   5   8 117.111 12.7590   1
   1   5   8 108.619 17.4761   1
   2   5  -6 519.225 32.9552  -2
  -2  -5  -8 519.225 32.9552   1
  -2  -5   6 593.728 36.1168  -2
   2   5   8 593.728 36.1168   1
  -2  -5   6 546.297 37.8461  -2
   2   5   8 546.297 37.8461   1
   3   5  -6 64.8838 24.3326  -2
  -3  -5  -8 64.8838 24.3326   1
   3   5  -6 46.4237 16.1085  -2
  -3  -5  -8 46.4237 16.1085   1
  -3  -5   6 19.6734 17.1859  -2
   3   5   8 19.6734 17.1859   1
   4   5  -6 80.8927 26.5812  -2
  -4  -5  -8 80.8927 26.5812   1
   4   5  -6 33.9152 16.0848  -2
  -4  -5  -8 33.9152 16.0848   1
  -4  -5   6 92.9548 20.7829  -2
   4   5   8 92.9548 20.7829   1
   5   5  -6 223.919 23.7508  -2
  -5  -5  -8 223.919 23.7508   1
   5   5  -6 229.865 35.4803  -2
  -5  -5  -8 229.865 35.4803   1
   6   5  -6 71.6889 17.6799  -2
  -6  -5  -8 71.6889 17.6799   1
   5  -6  -8 37.0246 13.1618   1
   4  -6  -8 17.4049 10.7927   1
  -4   6   8 34.9954 14.6679   1
   3  -6  -8 425.069 30.7943   1
  -3   6   8 423.410 34.0355   1
  -2   6  -6 500.909 33.9704  -2
   2  -6  -8 500.909 33.9704   1
   2  -6   6 535.438 38.2765  -2
  -2   6   8 535.438 38.2765   1
  -1   6  -6 116.803 18.0847  -2
   1  -6  -8 116.803 18.0847   1
  -1   6  -6 125.054 19.3610  -2
   1  -6  -8 125.054 19.3610   1
   1  -6   6 157.449 23.2026  -2
  -1   6   8 157.449 23.2026   1
   0   6  -6 1292.45 60.1894  -2
   0  -6  -8 1292.45 60.1894   1
   0   6  -6 1255.80 56.5623  -2
   0  -6  -8 1255.80 56.5623   1
   0   6  -6 1357.14 52.2953  -2
   0  -6  -8 1357.14 52.2953   1
   0   6  -6 1362.06 63.7831  -2
   0  -6  -8 1362.06 63.7831   1
   0  -6   6 1346.59 65.5865  -2
   0   6   8 1346.59 65.5865   1
   1   6  -6 159.520 18.7620  -2
  -1  -6  -8 159.520 18.7620   1
   1   6  -6 145.276 18.0964  -2
  -1  -6  -8 145.276 18.0964   1
   1   6  -6 122.550 16.9286  -2
  -1  -6  -8 122.550 16.9286   1
  -1  -6   6 108.919 20.0948  -2
   1   6   8 108.919 20.0948   1
   2   6  -6 625.012 34.9352  -2
  -2  -6  -8 625.012 34.9352   1
   2   6  -6 648.280 41.4133  -2
  -2  -6  -8 648.280 41.4133   1
   2   6  -6 715.164 40.7226  -2
  -2  -6  -8 715.164 40.7226   1
  -2  -6   6 694.103 41.9037  -2
   2   6   8 694.103 41.9037   1
   3   6  -6 278.765 23.9269  -2
  -3  -6  -8 278.765 23.9269   1
   3   6  -6 278.307 30.8578  -2
  -3  -6  -8 278.307 30.8578   1
  -3  -6   6 207.339 24.5062  -2
   3   6   8 207.339 24.5062   1
   4   6  -6 227.382 34.3191  -2
  -4  -6  -8 227.382 34.3191   1
   4   6  -6 235.275 24.8082  -2
  -4  -6  -8 235.275 24.8082   1
  -4  -6   6 244.857 28.8085  -2
   4   6   8 244.857 28.8085   1
   5   6  -6 55.2753 19.5215  -2
  -5  -6  -8 55.2753 19.5215   1
   5   6  -6 34.5004 28.8698  -2
  -5  -6  -8 34.5004 28.8698   1
   6   6  -6 39.0476 22.9162  -2
  -6  -6  -8 39.0476 22.9162   1
  -5   7  -6 181.657 28.1641  -2
   5  -7  -8 181.657 28.1641   1
  -4   7  -6 766.542 47.0851  -2
   4  -7  -8 766.542 47.0851   1
  -3   7  -6 33.7416 15.2037  -2
   3  -7  -8 33.7416 15.2037   1
  -2   7  -6 83.2757 15.2291  -2
   2  -7  -8 83.2757 15.2291   1
   2  -7   6 71.7393 17.0477  -2
  -2   7   8 71.7393 17.0477   1
  -1   7  -6 126.027 18.1089  -2
   1  -7  -8 126.027 18.1089   1
   1  -7   6 159.246 22.4129  -2
  -1   7   8 159.246 22.4129   1
   0   7  -6 -18.147 12.5030  -2
   0  -7  -8 -18.147 12.5030   1
   0   7  -6 21.8321 16.0057  -2
   0  -7  -8 21.8321 16.0057   1
   1   7  -6 259.570 23.3463  -2
  -1  -7  -8 259.570 23.3463   1
   1   7  -6 248.621 27.0006  -2
  -1  -7  -8 248.621 27.0006   1
  -1  -7   6 228.343 28.2230  -2
   1   7   8 228.343 28.2230   1
   2   7  -6 32.0235 19.6338  -2
  -2  -7  -8 32.0235 19.6338   1
   2   7  -6 59.0354 17.2600  -2
  -2  -7  -8 59.0354 17.2600   1
  -2  -7   6 54.2725 21.3538  -2
   2   7   8 54.2725 21.3538   1
   3   7  -6 223.393 24.7827  -2
  -3  -7  -8 223.393 24.7827   1
   3   7   8 23.5756 12.2327   1
  -4  -7  -8 34.1893 11.1286   1
  -4  -7  -8 26.4322 15.5084   1
   4   7   8 63.0673 16.0301   1
  -5  -7  -8 198.471 30.7865   1
  -5  -7  -8 184.062 22.5233   1
   6   7  -5 55.2005 23.2589  -2
  -6  -7  -8 55.2005 23.2589   1
  -4   8  -6 583.225 41.6755  -2
   4  -8  -8 583.225 41.6755   1
  -3   8  -6 85.3800 21.8790  -2
   3  -8  -8 85.3800 21.8790   1
  -2   8  -6 217.021 25.8010  -2
   2  -8  -8 217.021 25.8010   1
   1  -8  -8 56.1802 13.5384   1
   1  -8  -8 57.1962 16.4939   1
   0  -8  -8 20.9048 9.34717   1
   0  -8  -8 23.8731 11.4999   1
   0   8   8 14.9495 12.1713   1
  -1  -8  -8 -0.2973 6.03494   1
  -1  -8  -8 1.89277 9.52013   1
   1   8   8 -7.9219 8.38107   1
   2   8  -5 45.3022 17.0940  -2
  -2  -8  -8 45.3022 17.0940   1
  -2  -8   5 33.9124 22.2949  -2
   2   8   8 33.9124 22.2949   1
   3   8  -5 337.495 28.0175  -2
  -3  -8  -8 337.495 28.0175   1
  -3  -8   5 330.683 32.9759  -2
   3   8   8 330.683 32.9759   1
   4   8  -5 102.418 27.4123  -2
  -4  -8  -8 102.418 27.4123   1
   4   8  -5 67.0256 18.3688  -2
  -4  -8  -8 67.0256 18.3688   1
   5   8  -5 238.394 26.8507  -2
  -5  -8  -8 238.394 26.8507   1
   3  -9  -8 42.2278 13.2713   1
   2  -9  -8 57.0796 15.2864   1
  -1   9  -5 603.359 38.2212  -2
   1  -9  -8 603.359 38.2212   1
   0   9  -5 135.553 19.9391  -2
   0  -9  -8 135.553 19.9391   1
   1   9  -5 116.974 18.1279  -2
  -1  -9  -8 116.974 18.1279   1
   2   9  -5 5.53657 12.6526  -2
  -2  -9  -8 5.53657 12.6526   1
   3   9  -5 318.718 24.9129  -2
  -3  -9  -8 318.718 24.9129   1
   4   9  -5 -1.9183 13.7192  -2
  -4  -9  -8 -1.9183 13.7192   1
  -2  10  -5 146.979 21.5380  -2
   2 -10  -8 146.979 21.5380   1
  -1  10  -5 379.954 29.1929  -2
   1 -10  -8 379.954 29.1929   1
   0  10  -5 59.4828 15.6738  -2
   0 -10  -8 59.4828 15.6738   1
   1  10  -5 96.6065 18.5484  -2
  -1 -10  -8 96.6065 18.5484   1
   2  10  -5 36.6572 17.1199  -2
  -2 -10  -8 36.6572 17.1199   1
   3  10  -5 93.7694 20.6666  -2
  -3 -10  -8 93.7694 20.6666   1
   2   7  11 309.540 39.0241  -2
  -2  -7   9 309.540 39.0241   1
   1   7  11 608.568 47.6565  -2
  -1  -7   9 608.568 47.6565   1
   1   7  11 596.617 56.7077  -2
  -1  -7   9 596.617 56.7077   1
   0   7  11 359.839 37.8182  -2
   0  -7   9 359.839 37.8182   1
   0   7  11 345.272 43.1001  -2
   0  -7   9 345.272 43.1001   1
  -1   7  11 146.363 33.1699  -2
   1  -7   9 146.363 33.1699   1
  -1   7  11 125.860 27.6907  -2
   1  -7   9 125.860 27.6907   1
  -2   7  11 277.798 32.7515  -2
   2  -7   9 277.798 32.7515   1
   4   6  11 157.110 38.7761  -2
  -4  -6   9 157.110 38.7761   1
   3   6  11 364.662 38.6277  -2
  -3  -6   9 364.662 38.6277   1
   2   6  11 426.397 44.1239  -2
  -2  -6   9 426.397 44.1239   1
   2   6  11 388.579 36.7285  -2
  -2  -6   9 388.579 36.7285   1
   1   6  11 77.2057 24.5127  -2
  -1  -6   9 77.2057 24.5127   1
   1   6  11 36.4468 22.1947  -2
  -1  -6   9 36.4468 22.1947   1
   0   6  11 52.0328 23.5033  -2
   0  -6   9 52.0328 23.5033   1
   0   6  11 5.43559 25.2461  -2
   0  -6   9 5.43559 25.2461   1
  -1   6  11 69.7099 30.2574  -2
   1  -6   9 69.7099 30.2574   1
  -1   6  11 42.8424 26.5170  -2
   1  -6   9 42.8424 26.5170   1
  -2   6  11 89.3502 30.6117  -2
   2  -6   9 89.3502 30.6117   1
  -2   6  11 48.3500 27.6216  -2
   2  -6   9 48.3500 27.6216   1
  -3   6  11 175.394 35.4422  -2
   3  -6   9 175.394 35.4422   1
   4   5  11 285.483 42.3786  -2
  -4  -5   9 285.483 42.3786   1
   4   5  11 275.073 38.2627  -2
  -4  -5   9 275.073 38.2627   1
   3   5  11 186.678 33.8080  -2
  -3  -5   9 186.678 33.8080   1
   2   5  11 138.301 32.4773  -2
  -2  -5   9 138.301 32.4773   1
   1   5  11 94.9705 28.4434  -2
  -1  -5   9 94.9705 28.4434   1
   0   5  -9 168.576 18.5313   1
   0  -5   9 177.850 26.3608   1
   0  -5   9 172.614 19.1713   1
   0  -5   9 134.087 27.3624   1
   1  -5   9 236.095 22.4668   1
   1  -5   9 238.325 33.8109   1
   1  -5   9 271.766 30.0095   1
  -2   5  10 272.184 38.3832  -2
   2  -5   9 272.184 38.3832   1
  -2   5  10 355.949 43.9501  -2
   2  -5   9 355.949 43.9501   1
  -3   5  10 551.938 46.7457  -2
   3  -5   9 551.938 46.7457   1
  -4   5  10 828.624 58.2872  -2
   4  -5   9 828.624 58.2872   1
   5   4  11 119.291 36.4147  -2
  -5  -4   9 119.291 36.4147   1
  -4  -4   9 -11.834 12.2383   1
  -4  -4   9 5.26827 11.7251   1
  -4  -4   9 -8.6046 13.5958   1
  -3  -4   9 24.5897 14.8522   1
  -3  -4   9 18.3110 16.4242   1
  -2  -4 -10 255.819 33.9730  -2
   2   4  -9 255.819 33.9730   1
   2   4  10 311.944 37.0453  -2
  -2  -4   9 311.944 37.0453   1
  -1  -4 -10 389.938 28.0238  -2
   1   4  -9 389.938 28.0238   1
  -1  -4 -10 394.380 36.5976  -2
   1   4  -9 394.380 36.5976   1
   1   4  10 343.306 35.8468  -2
  -1  -4   9 343.306 35.8468   1
   1   4  10 391.641 29.4443  -2
  -1  -4   9 391.641 29.4443   1
   1   4  10 289.301 38.6668  -2
  -1  -4   9 289.301 38.6668   1
   0  -4 -10 614.897 49.4390  -2
   0   4  -9 614.897 49.4390   1
   0  -4 -10 674.934 38.5060  -2
   0   4  -9 674.934 38.5060   1
   0   4  10 741.203 40.5303  -2
   0  -4   9 741.203 40.5303   1
   0   4  10 729.167 57.1361  -2
   0  -4   9 729.167 57.1361   1
   0   4  10 646.523 47.3638  -2
   0  -4   9 646.523 47.3638   1
   1  -4 -10 1104.64 65.0036  -2
  -1   4  -9 1104.64 65.0036   1
  -1   4  10 1061.75 60.4545  -2
   1  -4   9 1061.75 60.4545   1
  -1   4  10 1133.04 54.2065  -2
   1  -4   9 1133.04 54.2065   1
  -1   4  10 1078.99 71.2227  -2
   1  -4   9 1078.99 71.2227   1
  -2   4  10 310.067 28.6835  -2
   2  -4   9 310.067 28.6835   1
  -2   4  10 316.088 38.1376  -2
   2  -4   9 316.088 38.1376   1
  -2   4  10 252.777 31.9174  -2
   2  -4   9 252.777 31.9174   1
  -3   4  10 330.092 33.2929  -2
   3  -4   9 330.092 33.2929   1
  -4   4  10 43.1007 21.3868  -2
   4  -4   9 43.1007 21.3868   1
  -5   4  10 26.7902 25.1388  -2
   5  -4   9 26.7902 25.1388   1
   5   3  10 563.577 50.5686  -2
  -5  -3   9 563.577 50.5686   1
   4   3  10 417.511 43.0569  -2
  -4  -3   9 417.511 43.0569   1
   4   3  10 479.213 45.0378  -2
  -4  -3   9 479.213 45.0378   1
   3   3  10 1315.79 71.2452  -2
  -3  -3   9 1315.79 71.2452   1
   3   3  10 1383.94 75.9795  -2
  -3  -3   9 1383.94 75.9795   1
   3   3  10 1431.23 82.2056  -2
  -3  -3   9 1431.23 82.2056   1
  -2  -3 -10 698.172 45.5414  -2
   2   3  -9 698.172 45.5414   1
  -2  -3 -10 706.109 37.5057  -2
   2   3  -9 706.109 37.5057   1
   2   3  10 745.859 55.0191  -2
  -2  -3   9 745.859 55.0191   1
   2   3  10 642.911 46.4830  -2
  -2  -3   9 642.911 46.4830   1
   2   3  10 690.132 39.8429  -2
  -2  -3   9 690.132 39.8429   1
  -1  -3 -10 434.431 34.8945  -2
   1   3  -9 434.431 34.8945   1
  -1  -3 -10 432.571 27.8887  -2
   1   3  -9 432.571 27.8887   1
   1   3  10 416.250 40.0955  -2
  -1  -3   9 416.250 40.0955   1
   1   3  10 404.775 28.8245  -2
  -1  -3   9 404.775 28.8245   1
   1   3  10 373.655 33.2344  -2
  -1  -3   9 373.655 33.2344   1
   0  -3 -10 311.544 24.7695  -2
   0   3  -9 311.544 24.7695   1
   0  -3 -10 278.326 31.1876  -2
   0   3  -9 278.326 31.1876   1
   0   3  10 334.785 27.0991  -2
   0  -3   9 334.785 27.0991   1
   0   3  10 269.949 33.7026  -2
   0  -3   9 269.949 33.7026   1
   0   3  10 303.778 31.4346  -2
   0  -3   9 303.778 31.4346   1
   1  -3 -10 701.122 50.5858  -2
  -1   3  -9 701.122 50.5858   1
  -1   3  10 725.111 42.3974  -2
   1  -3   9 725.111 42.3974   1
  -1   3  10 694.550 47.3912  -2
   1  -3   9 694.550 47.3912   1
  -1   3  10 816.150 59.2126  -2
   1  -3   9 816.150 59.2126   1
   2  -3 -10 612.232 49.8949  -2
  -2   3  -9 612.232 49.8949   1
  -2   3  10 538.287 44.0953  -2
   2  -3   9 538.287 44.0953   1
  -2   3  10 521.773 49.0624  -2
   2  -3   9 521.773 49.0624   1
  -2   3  10 558.021 38.0998  -2
   2  -3   9 558.021 38.0998   1
  -3   3  10 141.646 29.7058  -2
   3  -3   9 141.646 29.7058   1
  -4   3  10 211.525 35.7529  -2
   4  -3   9 211.525 35.7529   1
   5  -3   9 77.7410 21.6604   1
   6   2  10 232.624 35.2869  -2
  -6  -2   9 232.624 35.2869   1
   5   2  10 562.793 46.9784  -2
  -5  -2   9 562.793 46.9784   1
   5   2  10 556.917 46.2437  -2
  -5  -2   9 556.917 46.2437   1
   4   2  10 162.082 29.4074  -2
  -4  -2   9 162.082 29.4074   1
   4   2  10 193.518 30.5710  -2
  -4  -2   9 193.518 30.5710   1
   4   2  10 221.600 28.8613  -2
  -4  -2   9 221.600 28.8613   1
  -3  -2 -10 1130.11 54.2759  -2
   3   2  -9 1130.11 54.2759   1
   3   2  10 1231.56 66.3634  -2
  -3  -2   9 1231.56 66.3634   1
   3   2  10 1229.26 66.9650  -2
  -3  -2   9 1229.26 66.9650   1
   3   2  10 1157.61 72.8701  -2
  -3  -2   9 1157.61 72.8701   1
  -2  -2 -10 173.889 22.2842  -2
   2   2  -9 173.889 22.2842   1
  -2  -2 -10 172.510 25.5993  -2
   2   2  -9 172.510 25.5993   1
   2   2  10 153.626 22.2255  -2
  -2  -2   9 153.626 22.2255   1
   2   2  10 150.820 28.3014  -2
  -2  -2   9 150.820 28.3014   1
  -1  -2 -10 8.44315 19.5983  -2
   1   2  -9 8.44315 19.5983   1
  -1  -2 -10 25.9805 16.5928  -2
   1   2  -9 25.9805 16.5928   1
   1   2  10 17.5210 22.7612  -2
  -1  -2   9 17.5210 22.7612   1
   1   2  10 20.9706 17.2607  -2
  -1  -2   9 20.9706 17.2607   1
   0   2  -9 112.988 15.9882   1
   0   2  -9 144.103 22.9834   1
   0   2  10 197.437 30.3106  -2
   0  -2   9 197.437 30.3106   1
  -1   2  -9 86.6348 15.3605   1
  -1   2  -9 96.1006 22.1121   1
  -1   2  -9 105.489 16.0992   1
   1  -2   9 99.0114 22.8043   1
   1  -2   9 92.1870 16.2427   1
   1  -2   9 102.058 20.1924   1
  -2   2  -9 13.9917 14.2264   1
  -2   2  -9 17.1090 9.23759   1
   2  -2   9 6.54057 8.60344   1
   2  -2   9 -0.9956 12.6873   1
   2  -2   9 -3.3579 8.78946   1
  -3   2  -9 14.8212 15.4167   1
  -3   2   9 104.432 28.3093  -2
   3  -2   9 104.432 28.3093   1
  -4   2   9 682.924 49.2620  -2
   4  -2   9 682.924 49.2620   1
  -5   2   9 244.372 33.6134  -2
   5  -2   9 244.372 33.6134   1
   6   1  10 313.797 42.4775  -2
  -6  -1   9 313.797 42.4775   1
   5   1  10 319.353 41.5813  -2
  -5  -1   9 319.353 41.5813   1
   4   1  10 429.553 40.0909  -2
  -4  -1   9 429.553 40.0909   1
   4   1  10 387.223 42.8579  -2
  -4  -1   9 387.223 42.8579   1
   3   1  -9 336.360 29.3183   1
   3   1  -9 352.875 26.7315   1
  -3  -1   9 319.274 35.3466   1
  -3  -1   9 297.540 26.9158   1
  -3  -1   9 326.870 29.8388   1
  -3  -1   9 348.330 34.2567   1
   2   1  -9 186.169 19.2540   1
   2   1  -9 146.869 21.5376   1
  -2  -1   9 163.631 19.7658   1
  -2  -1   9 179.525 27.6784   1
  -2  -1   9 141.692 23.8332   1
  -1  -1  -9 230.261 23.5301  -2
   1   1  -9 230.261 23.5301   1
   1   1   9 174.306 23.8596  -2
  -1  -1   9 174.306 23.8596   1
   1   1   9 217.768 29.8256  -2
  -1  -1   9 217.768 29.8256   1
   0  -1  -9 242.322 29.3597  -2
   0   1  -9 242.322 29.3597   1
   0  -1  -9 249.838 24.8916  -2
   0   1  -9 249.838 24.8916   1
   0  -1  -9 251.107 25.3778  -2
   0   1  -9 251.107 25.3778   1
   0   1   9 242.038 25.5516  -2
   0  -1   9 242.038 25.5516   1
   0   1   9 238.624 33.2446  -2
   0  -1   9 238.624 33.2446   1
   0   1   9 261.623 30.5504  -2
   0  -1   9 261.623 30.5504   1
   1  -1  -9 288.582 25.8770  -2
  -1   1  -9 288.582 25.8770   1
   1  -1  -9 313.381 33.9769  -2
  -1   1  -9 313.381 33.9769   1
   1  -1  -9 274.326 25.8183  -2
  -1   1  -9 274.326 25.8183   1
  -1   1   9 256.293 33.8231  -2
   1  -1   9 256.293 33.8231   1
  -1   1   9 232.682 29.6078  -2
   1  -1   9 232.682 29.6078   1
  -1   1   9 275.592 27.2874  -2
   1  -1   9 275.592 27.2874   1
   2  -1  -9 133.283 28.0420  -2
  -2   1  -9 133.283 28.0420   1
   2  -1  -9 175.011 21.8887  -2
  -2   1  -9 175.011 21.8887   1
  -2   1   9 178.942 26.6492  -2
   2  -1   9 178.942 26.6492   1
  -2   1   9 168.662 23.4679  -2
   2  -1   9 168.662 23.4679   1
  -2   1   9 240.774 33.0557  -2
   2  -1   9 240.774 33.0557   1
   3  -1  -9 38.9845 14.3630  -2
  -3   1  -9 38.9845 14.3630   1
   3  -1  -9 69.1137 24.8726  -2
  -3   1  -9 69.1137 24.8726   1
  -3   1   9 24.6452 17.4575  -2
   3  -1   9 24.6452 17.4575   1
  -3   1   9 15.6255 15.5021  -2
   3  -1   9 15.6255 15.5021   1
   4  -1  -9 93.4408 27.3842  -2
  -4   1  -9 93.4408 27.3842   1
   4  -1  -9 119.296 19.3974  -2
  -4   1  -9 119.296 19.3974   1
  -4   1   9 71.2433 17.7417  -2
   4  -1   9 71.2433 17.7417   1
  -6   0   9 -4.4028 12.1897   1
   5   0   9 224.267 36.7837  -2
  -5   0   9 224.267 36.7837   1
   4   0   9 112.161 29.6565  -2
  -4   0   9 112.161 29.6565   1
   3   0   9 100.049 26.5169  -2
  -3   0   9 100.049 26.5169   1
   3   0   9 123.915 19.9654  -2
  -3   0   9 123.915 19.9654   1
   3   0   9 135.435 27.2824  -2
  -3   0   9 135.435 27.2824   1
  -2   0  -9 452.176 31.8761  -2
   2   0  -9 452.176 31.8761   1
  -2   0  -9 488.067 33.8823  -2
   2   0  -9 488.067 33.8823   1
  -2   0  -9 505.794 33.8895  -2
   2   0  -9 505.794 33.8895   1
   2   0   9 399.452 40.7664  -2
  -2   0   9 399.452 40.7664   1
   2   0   9 455.626 38.4035  -2
  -2   0   9 455.626 38.4035   1
   2   0   9 547.796 36.4901  -2
  -2   0   9 547.796 36.4901   1
   2   0   9 496.698 39.4049  -2
  -2   0   9 496.698 39.4049   1
  -1   0  -9 378.010 27.7747  -2
   1   0  -9 378.010 27.7747   1
  -1   0  -9 291.902 26.7865  -2
   1   0  -9 291.902 26.7865   1
  -1   0  -9 328.426 26.0690  -2
   1   0  -9 328.426 26.0690   1
   1   0   9 322.448 31.3759  -2
  -1   0   9 322.448 31.3759   1
   1   0   9 280.440 29.0158  -2
  -1   0   9 280.440 29.0158   1
   1   0   9 308.687 26.9933  -2
  -1   0   9 308.687 26.9933   1
   1   0   9 277.036 31.9963  -2
  -1   0   9 277.036 31.9963   1
   0   0  -9 1513.19 65.7843  -2
   0   0  -9 1513.19 65.7843   1
   0   0  -9 1691.92 67.9909  -2
   0   0  -9 1691.92 67.9909   1
   0   0  -9 1654.13 73.0812  -2
   0   0  -9 1654.13 73.0812   1
   0   0   9 1556.79 82.2735  -2
   0   0   9 1556.79 82.2735   1
   0   0   9 1598.33 72.4067  -2
   0   0   9 1598.33 72.4067   1
   0   0   9 1579.79 68.1862  -2
   0   0   9 1579.79 68.1862   1
   0   0   9 1500.26 75.1200  -2
   0   0   9 1500.26 75.1200   1
   1   0  -9 305.395 25.0185  -2
  -1   0  -9 305.395 25.0185   1
   1   0  -9 327.813 31.8607  -2
  -1   0  -9 327.813 31.8607   1
  -1   0   9 289.533 26.6691  -2
   1   0   9 289.533 26.6691   1
  -1   0   9 287.066 33.8051  -2
   1   0   9 287.066 33.8051   1
  -1   0   9 331.145 30.3966  -2
   1   0   9 331.145 30.3966   1
   2   0  -9 489.158 41.7893  -2
  -2   0  -9 489.158 41.7893   1
   2   0  -9 488.776 33.4049  -2
  -2   0  -9 488.776 33.4049   1
  -2   0   9 502.518 37.1164  -2
   2   0   9 502.518 37.1164   1
  -2   0   9 397.070 41.1391  -2
   2   0   9 397.070 41.1391   1
  -2   0   9 451.993 22.9472  -2
   2   0   9 451.993 22.9472   1
  -2   0   9 399.045 33.4828  -2
   2   0   9 399.045 33.4828   1
   3   0  -9 110.189 21.0483  -2
  -3   0  -9 110.189 21.0483   1
   3   0  -9 84.3216 30.4519  -2
  -3   0  -9 84.3216 30.4519   1
  -3   0   9 149.601 24.4203  -2
   3   0   9 149.601 24.4203   1
  -3   0   9 128.332 25.3283  -2
   3   0   9 128.332 25.3283   1
   4   0  -9 162.768 37.3929  -2
  -4   0  -9 162.768 37.3929   1
   4   0  -9 84.2537 22.7403  -2
  -4   0  -9 84.2537 22.7403   1
  -4   0   9 135.959 26.1226  -2
   4   0   9 135.959 26.1226   1
   5   0  -9 204.346 30.2406  -2
  -5   0  -9 204.346 30.2406   1
  -6   0  -9 39.8605 14.6420   1
   6  -1   9 11.4306 25.5264  -2
  -6   1   9 11.4306 25.5264   1
   5  -1   9 116.756 27.5017  -2
  -5   1   9 116.756 27.5017   1
   5  -1   9 149.882 28.8171  -2
  -5   1   9 149.882 28.8171   1
   4  -1   9 93.8499 22.3283  -2
  -4   1   9 93.8499 22.3283   1
   4  -1   9 101.723 23.1083  -2
  -4   1   9 101.723 23.1083   1
  -3   1  -9 43.0010 15.5956  -2
   3  -1  -9 43.0010 15.5956   1
   3  -1   9 14.6699 18.8007  -2
  -3   1   9 14.6699 18.8007   1
   3  -1   9 39.1279 11.8655  -2
  -3   1   9 39.1279 11.8655   1
   3  -1   9 10.8481 19.7052  -2
  -3   1   9 10.8481 19.7052   1
   3  -1   9 52.4906 17.9861  -2
  -3   1   9 52.4906 17.9861   1
  -2   1  -9 185.595 22.3762  -2
   2  -1  -9 185.595 22.3762   1
  -2   1  -9 170.498 19.8342  -2
   2  -1  -9 170.498 19.8342   1
   2  -1   9 187.096 27.0455  -2
  -2   1   9 187.096 27.0455   1
   2  -1   9 156.203 24.8303  -2
  -2   1   9 156.203 24.8303   1
   2  -1   9 142.617 26.8698  -2
  -2   1   9 142.617 26.8698   1
   2  -1   9 112.493 16.3833  -2
  -2   1   9 112.493 16.3833   1
   2  -1   9 189.653 24.8592  -2
  -2   1   9 189.653 24.8592   1
  -1   1  -9 279.137 26.6021  -2
   1  -1  -9 279.137 26.6021   1
  -1   1  -9 298.327 26.6300  -2
   1  -1  -9 298.327 26.6300   1
   1  -1   9 267.391 29.4927  -2
  -1   1   9 267.391 29.4927   1
   1  -1   9 229.214 31.6385  -2
  -1   1   9 229.214 31.6385   1
   1  -1   9 339.317 29.9777  -2
  -1   1   9 339.317 29.9777   1
   1  -1   9 238.128 29.5965  -2
  -1   1   9 238.128 29.5965   1
   0   1  -9 287.140 29.9015  -2
   0  -1  -9 287.140 29.9015   1
   0   1  -9 326.350 27.8710  -2
   0  -1  -9 326.350 27.8710   1
   0  -1   9 287.936 31.6363  -2
   0   1   9 287.936 31.6363   1
   0  -1   9 305.370 32.8025  -2
   0   1   9 305.370 32.8025   1
   0  -1   9 241.134 33.5423  -2
   0   1   9 241.134 33.5423   1
   0  -1   9 290.180 28.5987  -2
   0   1   9 290.180 28.5987   1
   1   1  -9 208.254 30.5655  -2
  -1  -1  -9 208.254 30.5655   1
   1   1  -9 227.471 25.5243  -2
  -1  -1  -9 227.471 25.5243   1
  -1  -1   9 180.781 31.3573  -2
   1   1   9 180.781 31.3573   1
  -1  -1   9 254.268 30.0232  -2
   1   1   9 254.268 30.0232   1
  -1  -1   9 239.588 35.0616  -2
   1   1   9 239.588 35.0616   1
  -2  -1  -9 4.43421 7.49422   1
  -2  -1  -9 23.3248 15.6484   1
   2   1   9 18.0400 10.8942   1
   2   1   9 14.6876 9.85767   1
   2   1   9 29.2066 8.06371   1
  -3  -1  -9 90.8474 24.2195   1
  -3  -1  -9 91.9072 17.5179   1
   3   1   9 119.791 14.3397   1
   3   1   9 90.8265 17.6774   1
   3   1   9 133.615 20.2545   1
   4   1  -8 584.133 39.9785  -2
  -4  -1  -9 584.133 39.9785   1
   4   1   9 28.3301 10.6745   1
   5   1  -8 53.0688 22.4910  -2
  -5  -1  -9 53.0688 22.4910   1
   6   1  -8 18.6594 22.6098  -2
  -6  -1  -9 18.6594 22.6098   1
  -5   2   9 78.4341 23.9598   1
  -4   2  -9 681.700 42.8032  -2
   4  -2  -9 681.700 42.8032   1
   4  -2   9 561.338 47.1068  -2
  -4   2   9 561.338 47.1068   1
   3  -2  -9 197.232 21.9619   1
  -3   2   9 129.250 23.1325   1
  -3   2   9 167.580 25.5245   1
  -3   2   9 176.404 20.9531   1
   2  -2  -9 147.836 11.8530   1
   2  -2  -9 165.114 19.9218   1
   2  -2  -9 166.326 17.1118   1
  -2   2   9 152.155 24.4138   1
  -2   2   9 167.157 12.9994   1
  -2   2   9 128.249 18.4218   1
  -2   2   9 153.371 21.2861   1
  -2   2   9 171.802 23.1723   1
   1  -2  -9 195.865 19.9477   1
   1  -2  -9 251.352 22.3112   1
   1  -2  -9 230.576 13.8388   1
   1  -2   8 306.655 32.3166  -2
  -1   2   9 306.655 32.3166   1
   0   2  -8 501.908 34.0879  -2
   0  -2  -9 501.908 34.0879   1
   0  -2   8 558.965 44.9936  -2
   0   2   9 558.965 44.9936   1
   1   2  -8 281.503 31.3591  -2
  -1  -2  -9 281.503 31.3591   1
   1   2  -8 310.277 27.1065  -2
  -1  -2  -9 310.277 27.1065   1
  -1  -2   8 346.547 34.2892  -2
   1   2   9 346.547 34.2892   1
  -1  -2   8 256.140 28.9477  -2
   1   2   9 256.140 28.9477   1
  -1  -2   8 304.422 34.6938  -2
   1   2   9 304.422 34.6938   1
  -1  -2   8 312.827 29.8624  -2
   1   2   9 312.827 29.8624   1
   2   2  -8 520.950 43.9692  -2
  -2  -2  -9 520.950 43.9692   1
   2   2  -8 532.289 35.2706  -2
  -2  -2  -9 532.289 35.2706   1
  -2  -2   8 543.505 36.3101  -2
   2   2   9 543.505 36.3101   1
  -2  -2   8 552.092 44.3556  -2
   2   2   9 552.092 44.3556   1
  -2  -2   8 597.852 40.0445  -2
   2   2   9 597.852 40.0445   1
   3   2  -8 74.9032 18.6763  -2
  -3  -2  -9 74.9032 18.6763   1
   3   2  -8 87.6221 26.2842  -2
  -3  -2  -9 87.6221 26.2842   1
  -3  -2   8 91.4199 15.2815  -2
   3   2   9 91.4199 15.2815   1
  -3  -2   8 77.3975 19.8837  -2
   3   2   9 77.3975 19.8837   1
   4   2  -8 931.005 63.4280  -2
  -4  -2  -9 931.005 63.4280   1
   4   2  -8 840.008 47.5607  -2
  -4  -2  -9 840.008 47.5607   1
  -4  -2   8 954.660 47.7483  -2
   4   2   9 954.660 47.7483   1
   5   2  -8 35.1601 12.8280  -2
  -5  -2  -9 35.1601 12.8280   1
   6   2  -8 72.9126 19.4644  -2
  -6  -2  -9 72.9126 19.4644   1
  -6   3   9 144.014 29.9380   1
   5  -3  -9 72.9076 18.6141   1
  -5   3   9 114.773 24.5399   1
   4  -3  -9 135.362 19.4230   1
  -4   3   9 129.538 24.0679   1
  -3   3  -8 385.026 32.5512  -2
   3  -3  -9 385.026 32.5512   1
   3  -3   8 418.034 37.1005  -2
  -3   3   9 418.034 37.1005   1
  -2   3  -8 677.623 40.0738  -2
   2  -3  -9 677.623 40.0738   1
  -2   3  -8 597.314 31.2331  -2
   2  -3  -9 597.314 31.2331   1
   2  -3   8 640.795 41.7563  -2
  -2   3   9 640.795 41.7563   1
   2  -3   8 682.811 37.8560  -2
  -2   3   9 682.811 37.8560   1
   2  -3   8 691.992 48.3188  -2
  -2   3   9 691.992 48.3188   1
  -1   3  -8 288.096 18.9114  -2
   1  -3  -9 288.096 18.9114   1
  -1   3  -8 244.828 24.9264  -2
   1  -3  -9 244.828 24.9264   1
  -1   3  -8 260.406 21.6193  -2
   1  -3  -9 260.406 21.6193   1
   1  -3   8 302.768 28.8349  -2
  -1   3   9 302.768 28.8349   1
   1  -3   8 298.731 32.8110  -2
  -1   3   9 298.731 32.8110   1
   1  -3   8 258.939 25.3568  -2
  -1   3   9 258.939 25.3568   1
   1  -3   8 259.189 27.2583  -2
  -1   3   9 259.189 27.2583   1
   0   3  -8 120.056 18.1959  -2
   0  -3  -9 120.056 18.1959   1
   0   3  -8 108.892 17.3772  -2
   0  -3  -9 108.892 17.3772   1
   0  -3   8 96.4442 21.5666  -2
   0   3   9 96.4442 21.5666   1
   0  -3   8 102.737 16.9315  -2
   0   3   9 102.737 16.9315   1
   0  -3   8 112.620 19.5026  -2
   0   3   9 112.620 19.5026   1
   0  -3   8 134.670 20.4669  -2
   0   3   9 134.670 20.4669   1
   1   3  -8 119.460 19.4567  -2
  -1  -3  -9 119.460 19.4567   1
   1   3  -8 88.7907 15.7967  -2
  -1  -3  -9 88.7907 15.7967   1
  -1  -3   8 81.8998 19.9700  -2
   1   3   9 81.8998 19.9700   1
  -1  -3   8 96.7861 16.4418  -2
   1   3   9 96.7861 16.4418   1
  -1  -3   8 89.9502 15.9916  -2
   1   3   9 89.9502 15.9916   1
  -1  -3   8 73.7788 17.2084  -2
   1   3   9 73.7788 17.2084   1
   2   3  -8 34.2597 19.9891  -2
  -2  -3  -9 34.2597 19.9891   1
   2   3  -8 42.9651 15.2964  -2
  -2  -3  -9 42.9651 15.2964   1
  -2  -3   8 70.7342 17.8173  -2
   2   3   9 70.7342 17.8173   1
   3   3  -8 113.114 28.2756  -2
  -3  -3  -9 113.114 28.2756   1
   3   3  -8 87.8882 19.8271  -2
  -3  -3  -9 87.8882 19.8271   1
  -3  -3   8 134.664 22.6113  -2
   3   3   9 134.664 22.6113   1
   4   3  -8 129.093 23.6402  -2
  -4  -3  -9 129.093 23.6402   1
   4   3  -8 107.352 31.6104  -2
  -4  -3  -9 107.352 31.6104   1
  -4  -3   8 111.970 20.6926  -2
   4   3   9 111.970 20.6926   1
   5   3  -8 25.3872 21.4279  -2
  -5  -3  -9 25.3872 21.4279   1
   6   3  -8 526.650 43.3205  -2
  -6  -3  -9 526.650 43.3205   1
   6  -4   8 280.535 39.8270  -2
  -6   4   9 280.535 39.8270   1
  -5   4  -8 100.574 23.4762  -2
   5  -4  -9 100.574 23.4762   1
   5  -4   8 109.607 28.4007  -2
  -5   4   9 109.607 28.4007   1
  -4   4  -8 151.954 22.8462  -2
   4  -4  -9 151.954 22.8462   1
   4  -4   8 195.437 28.6027  -2
  -4   4   9 195.437 28.6027   1
  -3   4  -8 53.1325 15.3192  -2
   3  -4  -9 53.1325 15.3192   1
   3  -4   8 32.0469 18.0721  -2
  -3   4   9 32.0469 18.0721   1
  -2   4  -8 1164.09 54.8280  -2
   2  -4  -9 1164.09 54.8280   1
   2  -4   8 1012.40 60.8625  -2
  -2   4   9 1012.40 60.8625   1
  -1   4  -8 3.71281 15.6951  -2
   1  -4  -9 3.71281 15.6951   1
  -1   4  -8 -4.0570 9.42228  -2
   1  -4  -9 -4.0570 9.42228   1
  -1   4  -8 0.16384 10.2465  -2
   1  -4  -9 0.16384 10.2465   1
   1  -4   8 16.6324 15.5059  -2
  -1   4   9 16.6324 15.5059   1
   1  -4   8 19.3873 14.6877  -2
  -1   4   9 19.3873 14.6877   1
   1  -4   8 0.19281 12.3489  -2
  -1   4   9 0.19281 12.3489   1
   0   4  -8 126.227 20.0288  -2
   0  -4  -9 126.227 20.0288   1
   0   4  -8 157.204 22.1910  -2
   0  -4  -9 157.204 22.1910   1
   0   4  -8 161.237 17.5144  -2
   0  -4  -9 161.237 17.5144   1
   0  -4   8 160.954 24.6252  -2
   0   4   9 160.954 24.6252   1
   0  -4   8 182.846 28.6461  -2
   0   4   9 182.846 28.6461   1
   1   4  -8 242.664 26.1562  -2
  -1  -4  -9 242.664 26.1562   1
   1   4  -8 222.097 27.7006  -2
  -1  -4  -9 222.097 27.7006   1
  -1  -4   8 220.100 28.1566  -2
   1   4   9 220.100 28.1566   1
   2   4  -8 216.401 26.3437  -2
  -2  -4  -9 216.401 26.3437   1
   2   4   9 222.563 23.3939   1
  -3  -4  -9 26.5198 10.4726   1
  -3  -4  -9 19.7170 14.2167   1
   3   4   9 17.1661 9.59889   1
   3   4   9 40.7952 13.2798   1
  -4  -4  -9 101.510 24.9055   1
  -4  -4  -9 87.7579 18.2464   1
   4   4   9 97.3143 17.6602   1
  -5  -4  -9 105.821 26.3616   1
  -5  -4  -9 69.9907 17.7434   1
   6   4  -7 30.9281 23.1308  -2
  -6  -4  -9 30.9281 23.1308   1
  -5   5  -8 7.86485 19.9276  -2
   5  -5  -9 7.86485 19.9276   1
   5  -5   8 12.5437 22.7521  -2
  -5   5   9 12.5437 22.7521   1
  -4   5  -8 10.5847 19.5445  -2
   4  -5  -9 10.5847 19.5445   1
   4  -5   8 26.4584 24.4744  -2
  -4   5   9 26.4584 24.4744   1
  -3   5  -8 211.699 27.2695  -2
   3  -5  -9 211.699 27.2695   1
   3  -5   8 213.750 31.7682  -2
  -3   5   9 213.750 31.7682   1
   2  -5  -9 78.3343 16.0200   1
   2  -5   8 19.5492 23.5096  -2
  -2   5   9 19.5492 23.5096   1
   1  -5  -9 61.7687 14.4515   1
   1  -5  -9 56.4597 12.6138   1
  -1   5   9 43.0280 14.2111   1
  -1   5   9 29.9546 14.2954   1
   0  -5  -9 422.145 27.3691   1
   0  -5  -9 359.461 25.2560   1
   0  -5  -9 396.714 29.1179   1
   0   5   9 441.882 36.5699   1
   0   5   9 416.409 33.4544   1
   1   5  -7 162.232 20.2444  -2
  -1  -5  -9 162.232 20.2444   1
   1   5  -7 166.620 22.1929  -2
  -1  -5  -9 166.620 22.1929   1
   1   5   9 34.1189 11.7503   1
   2   5  -7 350.011 29.4285  -2
  -2  -5  -9 350.011 29.4285   1
  -2  -5   7 366.783 33.3729  -2
   2   5   9 366.783 33.3729   1
   3   5  -7 379.384 31.0719  -2
  -3  -5  -9 379.384 31.0719   1
   3   5  -7 394.520 40.9349  -2
  -3  -5  -9 394.520 40.9349   1
   4   5  -7 403.679 32.9367  -2
  -4  -5  -9 403.679 32.9367   1
   4   5  -7 421.545 43.8432  -2
  -4  -5  -9 421.545 43.8432   1
   5   5  -7 10.8669 14.4627  -2
  -5  -5  -9 10.8669 14.4627   1
   6   5  -7 40.4574 14.7184  -2
  -6  -5  -9 40.4574 14.7184   1
   5  -6  -9 98.3935 21.1036   1
   4  -6  -9 185.339 23.6306   1
  -4   6   9 171.248 26.8161   1
   3  -6  -9 -3.7339 7.12551   1
   3  -6   7 -1.1000 21.7468  -2
  -3   6   9 -1.1000 21.7468   1
  -2   6  -7 345.022 31.4960  -2
   2  -6  -9 345.022 31.4960   1
   2  -6   7 379.403 36.6682  -2
  -2   6   9 379.403 36.6682   1
  -1   6  -7 46.8149 17.7002  -2
   1  -6  -9 46.8149 17.7002   1
   1  -6   7 45.2539 20.2570  -2
  -1   6   9 45.2539 20.2570   1
   0   6  -7 107.223 18.3430  -2
   0  -6  -9 107.223 18.3430   1
   0   6  -7 88.0149 18.1090  -2
   0  -6  -9 88.0149 18.1090   1
   1   6  -7 270.719 24.1185  -2
  -1  -6  -9 270.719 24.1185   1
   1   6  -7 297.060 26.2206  -2
  -1  -6  -9 297.060 26.2206   1
   1   6  -7 291.452 25.8205  -2
  -1  -6  -9 291.452 25.8205   1
  -1  -6   7 338.246 31.6258  -2
   1   6   9 338.246 31.6258   1
   2   6  -7 86.4325 18.1165  -2
  -2  -6  -9 86.4325 18.1165   1
   2   6  -7 85.0306 15.8892  -2
  -2  -6  -9 85.0306 15.8892   1
  -2  -6   7 32.0002 14.0193  -2
   2   6   9 32.0002 14.0193   1
   3   6  -7 112.722 18.8799  -2
  -3  -6  -9 112.722 18.8799   1
   3   6  -7 114.100 25.0928  -2
  -3  -6  -9 114.100 25.0928   1
   4   6  -7 29.3690 25.7561  -2
  -4  -6  -9 29.3690 25.7561   1
   4   6  -7 15.9470 17.4831  -2
  -4  -6  -9 15.9470 17.4831   1
   5   6  -7 6.78939 19.1932  -2
  -5  -6  -9 6.78939 19.1932   1
  -6  -6  -9 183.136 25.5917   1
  -4   7  -7 80.7676 21.5170  -2
   4  -7  -9 80.7676 21.5170   1
  -3   7  -7 302.785 28.8165  -2
   3  -7  -9 302.785 28.8165   1
  -2   7  -7 509.914 35.0646  -2
   2  -7  -9 509.914 35.0646   1
  -2   7  -7 493.062 33.8533  -2
   2  -7  -9 493.062 33.8533   1
   2  -7   7 572.053 41.2434  -2
  -2   7   9 572.053 41.2434   1
  -1   7  -7 9.39687 14.1111  -2
   1  -7  -9 9.39687 14.1111   1
   1  -7   7 6.47667 17.8433  -2
  -1   7   9 6.47667 17.8433   1
   0   7  -7 56.2155 18.1001  -2
   0  -7  -9 56.2155 18.1001   1
   0   7  -7 70.5785 18.0679  -2
   0  -7  -9 70.5785 18.0679   1
   1   7  -7 344.750 30.5362  -2
  -1  -7  -9 344.750 30.5362   1
   1   7  -7 248.470 26.5272  -2
  -1  -7  -9 248.470 26.5272   1
   2   7  -7 151.802 23.2733  -2
  -2  -7  -9 151.802 23.2733   1
   3   7  -7 99.8217 22.7612  -2
  -3  -7  -9 99.8217 22.7612   1
  -4  -7  -9 133.397 19.5405   1
  -4  -7  -9 164.802 28.3364   1
  -5  -7  -9 117.599 20.9446   1
  -3   8  -7 18.9573 19.8090  -2
   3  -8  -9 18.9573 19.8090   1
  -2   8  -7 4.23616 18.1758  -2
   2  -8  -9 4.23616 18.1758   1
   1  -8  -9 7.66931 8.23208   1
   1  -8  -9 -0.6657 10.8964   1
   0  -8  -9 157.832 19.1807   1
   0  -8  -9 131.140 21.3350   1
  -1  -8  -9 31.9880 11.0373   1
  -1  -8  -9 30.9062 14.2526   1
   2   8  -6 179.330 24.3700  -2
  -2  -8  -9 179.330 24.3700   1
   3   8  -6 172.627 24.5648  -2
  -3  -8  -9 172.627 24.5648   1
   4   8  -6 645.939 41.9976  -2
  -4  -8  -9 645.939 41.9976   1
  -2   9  -6 132.465 24.2113  -2
   2  -9  -9 132.465 24.2113   1
  -1   9  -6 435.491 34.2479  -2
   1  -9  -9 435.491 34.2479   1
   0   9  -6 367.147 31.4558  -2
   0  -9  -9 367.147 31.4558   1
   1   9  -6 533.938 35.0754  -2
  -1  -9  -9 533.938 35.0754   1
   2   9  -6 89.8053 17.3321  -2
  -2  -9  -9 89.8053 17.3321   1
   3   9  -6 226.518 23.4943  -2
  -3  -9  -9 226.518 23.4943   1
   1 -10  -9 282.006 26.6324   1
   0  10  -6 144.230 21.8662  -2
   0 -10  -9 144.230 21.8662   1
   1  10  -6 39.8199 17.1936  -2
  -1 -10  -9 39.8199 17.1936   1
  -2 -10  -9 39.2576 12.3261   1
   2   6  12 -3.4980 10.6723  -2
  -2  -6  10 -3.4980 10.6723   1
   1   6  12 471.562 42.8654  -2
  -1  -6  10 471.562 42.8654   1
   0   6  12 46.4074 27.0667  -2
   0  -6  10 46.4074 27.0667   1
  -1   6  12 200.676 35.3101  -2
   1  -6  10 200.676 35.3101   1
   2  -6  10 42.2469 18.4591   1
   3   5  12 61.6262 32.2446  -2
  -3  -5  10 61.6262 32.2446   1
   2   5  12 274.407 39.7530  -2
  -2  -5  10 274.407 39.7530   1
   1   5  12 265.603 38.8752  -2
  -1  -5  10 265.603 38.8752   1
   0  -5  10 124.801 31.4583   1
   0  -5  10 135.312 26.3440   1
   1  -5  10 194.718 23.0433   1
   1  -5  10 283.179 33.0651   1
   1  -5  10 266.571 36.9108   1
  -2   5  11 196.459 39.4061  -2
   2  -5  10 196.459 39.4061   1
  -2   5  11 174.848 35.9117  -2
   2  -5  10 174.848 35.9117   1
  -3   5  11 106.995 34.9596  -2
   3  -5  10 106.995 34.9596   1
  -4  -4  10 -4.5764 15.3603   1
  -4  -4  10 19.8569 15.5458   1
  -3  -4  10 465.088 44.0255   1
  -3  -4  10 523.803 48.2850   1
   2   4  11 19.4955 28.9598  -2
  -2  -4  10 19.4955 28.9598   1
   1   4  11 636.065 50.3345  -2
  -1  -4  10 636.065 50.3345   1
   1   4  11 683.975 58.0738  -2
  -1  -4  10 683.975 58.0738   1
   0   4  11 242.709 39.3807  -2
   0  -4  10 242.709 39.3807   1
   0   4  11 255.279 35.1927  -2
   0  -4  10 255.279 35.1927   1
   0   4  11 240.793 26.5967  -2
   0  -4  10 240.793 26.5967   1
  -1   4  11 1209.18 76.9482  -2
   1  -4  10 1209.18 76.9482   1
  -1   4  11 1009.90 55.1752  -2
   1  -4  10 1009.90 55.1752   1
  -1   4  11 1137.80 64.7534  -2
   1  -4  10 1137.80 64.7534   1
  -2   4  11 259.460 34.2063  -2
   2  -4  10 259.460 34.2063   1
  -2   4  11 228.869 36.5949  -2
   2  -4  10 228.869 36.5949   1
  -3   4  11 802.187 53.9852  -2
   3  -4  10 802.187 53.9852   1
  -4   4  11 48.4910 23.9514  -2
   4  -4  10 48.4910 23.9514   1
   4   3  11 123.796 34.2763  -2
  -4  -3  10 123.796 34.2763   1
   4   3  11 132.386 33.4292  -2
  -4  -3  10 132.386 33.4292   1
   3   3  11 387.227 40.6751  -2
  -3  -3  10 387.227 40.6751   1
   3   3  11 398.651 42.5298  -2
  -3  -3  10 398.651 42.5298   1
   3   3  11 468.130 49.1171  -2
  -3  -3  10 468.130 49.1171   1
  -2  -3 -11 146.314 25.1945  -2
   2   3 -10 146.314 25.1945   1
   2   3  11 143.350 28.4819  -2
  -2  -3  10 143.350 28.4819   1
   2   3  11 154.840 32.3862  -2
  -2  -3  10 154.840 32.3862   1
   2   3  11 173.011 23.0415  -2
  -2  -3  10 173.011 23.0415   1
  -1  -3 -11 270.255 30.4194  -2
   1   3 -10 270.255 30.4194   1
  -1  -3 -11 276.092 25.0791  -2
   1   3 -10 276.092 25.0791   1
   1   3  11 294.251 37.6560  -2
  -1  -3  10 294.251 37.6560   1
   1   3  11 272.995 24.9406  -2
  -1  -3  10 272.995 24.9406   1
   1   3  11 291.411 31.4216  -2
  -1  -3  10 291.411 31.4216   1
   0  -3 -11 205.499 29.3542  -2
   0   3 -10 205.499 29.3542   1
   0   3  11 167.246 22.1216  -2
   0  -3  10 167.246 22.1216   1
   0   3  11 189.122 33.8316  -2
   0  -3  10 189.122 33.8316   1
   0   3  11 148.022 26.7561  -2
   0  -3  10 148.022 26.7561   1
  -1   3  11 73.9439 25.4027  -2
   1  -3  10 73.9439 25.4027   1
  -1   3  11 26.4214 16.8595  -2
   1  -3  10 26.4214 16.8595   1
  -1   3  11 45.1438 27.7158  -2
   1  -3  10 45.1438 27.7158   1
  -2   3  11 106.544 29.0820  -2
   2  -3  10 106.544 29.0820   1
  -2   3  11 26.5792 25.5318  -2
   2  -3  10 26.5792 25.5318   1
  -3   3  11 162.080 34.3845  -2
   3  -3  10 162.080 34.3845   1
  -4   3  11 123.379 33.9402  -2
   4  -3  10 123.379 33.9402   1
   5   2  11 774.232 58.1380  -2
  -5  -2  10 774.232 58.1380   1
   4   2  11 112.558 29.1372  -2
  -4  -2  10 112.558 29.1372   1
   3   2  11 1126.84 65.6680  -2
  -3  -2  10 1126.84 65.6680   1
   3   2  11 1069.62 73.8943  -2
  -3  -2  10 1069.62 73.8943   1
   3   2  11 1188.70 69.1977  -2
  -3  -2  10 1188.70 69.1977   1
  -2  -2 -11 75.7035 22.8089  -2
   2   2 -10 75.7035 22.8089   1
   2   2  11 95.1697 29.3196  -2
  -2  -2  10 95.1697 29.3196   1
   2   2  11 128.093 31.4558  -2
  -2  -2  10 128.093 31.4558   1
   2   2  11 71.7193 20.6362  -2
  -2  -2  10 71.7193 20.6362   1
  -1  -2 -11 329.695 34.1989  -2
   1   2 -10 329.695 34.1989   1
   1   2  11 305.963 30.5935  -2
  -1  -2  10 305.963 30.5935   1
   1   2  11 336.322 38.0998  -2
  -1  -2  10 336.322 38.0998   1
   0  -2 -11 125.799 29.0238  -2
   0   2 -10 125.799 29.0238   1
   0   2  11 171.879 32.5940  -2
   0  -2  10 171.879 32.5940   1
  -1   2 -10 93.2540 22.2886   1
   1  -2  10 90.7098 18.1177   1
   1  -2  10 80.8168 23.6263   1
   1  -2  10 77.3513 21.3635   1
  -2   2 -10 228.839 31.2854   1
   2  -2  10 268.435 30.4803   1
   2  -2  10 251.803 34.9476   1
   2  -2  10 259.195 29.5127   1
  -3   2  10 269.812 36.5105  -2
   3  -2  10 269.812 36.5105   1
  -4   2  10 627.821 50.3290  -2
   4  -2  10 627.821 50.3290   1
   5   1  11 41.8926 35.8894  -2
  -5  -1  10 41.8926 35.8894   1
  -4  -1  10 -16.171 12.9859   1
  -4  -1  10 13.1510 14.9867   1
   3   1 -10 12.4571 11.4792   1
  -3  -1  10 9.80007 13.2483   1
  -3  -1  10 6.26462 13.3769   1
  -3  -1  10 8.43527 10.0929   1
  -3  -1  10 13.6084 11.8422   1
   2   1 -10 114.555 21.0759   1
  -2  -1  10 141.193 25.2155   1
  -2  -1  10 92.0305 24.0083   1
  -2  -1  10 126.586 19.2368   1
   1   1 -10 43.8125 15.3685   1
   1   1  10 94.8795 27.4561  -2
  -1  -1  10 94.8795 27.4561   1
   0  -1 -10 748.128 50.3552  -2
   0   1 -10 748.128 50.3552   1
   0   1  10 658.636 55.4707  -2
   0  -1  10 658.636 55.4707   1
   0   1  10 774.454 45.1663  -2
   0  -1  10 774.454 45.1663   1
   0   1  10 771.201 51.4564  -2
   0  -1  10 771.201 51.4564   1
   1  -1 -10 254.615 33.7667  -2
  -1   1 -10 254.615 33.7667   1
  -1   1  10 291.615 33.9526  -2
   1  -1  10 291.615 33.9526   1
  -1   1  10 243.019 28.4923  -2
   1  -1  10 243.019 28.4923   1
  -1   1  10 158.197 32.1778  -2
   1  -1  10 158.197 32.1778   1
   2  -1 -10 244.323 33.7006  -2
  -2   1 -10 244.323 33.7006   1
  -2   1  10 196.367 33.1577  -2
   2  -1  10 196.367 33.1577   1
  -2   1  10 190.778 29.7291  -2
   2  -1  10 190.778 29.7291   1
   3  -1 -10 160.495 32.4482  -2
  -3   1 -10 160.495 32.4482   1
  -3   1  10 199.623 26.8301  -2
   3  -1  10 199.623 26.8301   1
  -4   1  10 340.833 33.7232  -2
   4  -1  10 340.833 33.7232   1
   5   0  10 26.7338 31.4943  -2
  -5   0  10 26.7338 31.4943   1
   4   0  10 39.9007 29.8877  -2
  -4   0  10 39.9007 29.8877   1
   3   0  10 389.965 41.2085  -2
  -3   0  10 389.965 41.2085   1
   3   0  10 498.692 47.5227  -2
  -3   0  10 498.692 47.5227   1
  -2   0 -10 286.709 28.1994  -2
   2   0 -10 286.709 28.1994   1
   2   0  10 222.003 31.5006  -2
  -2   0  10 222.003 31.5006   1
   2   0  10 201.441 31.7133  -2
  -2   0  10 201.441 31.7133   1
   2   0  10 254.397 28.5054  -2
  -2   0  10 254.397 28.5054   1
  -1   0 -10 563.404 36.3022  -2
   1   0 -10 563.404 36.3022   1
  -1   0 -10 567.970 38.6255  -2
   1   0 -10 567.970 38.6255   1
   1   0  10 576.129 39.0515  -2
  -1   0  10 576.129 39.0515   1
   1   0  10 514.069 40.6354  -2
  -1   0  10 514.069 40.6354   1
   1   0  10 573.749 47.5928  -2
  -1   0  10 573.749 47.5928   1
   0   0 -10 1974.53 86.8722  -2
   0   0 -10 1974.53 86.8722   1
   0   0 -10 1965.47 80.3325  -2
   0   0 -10 1965.47 80.3325   1
   0   0  10 1955.40 86.9818  -2
   0   0  10 1955.40 86.9818   1
   0   0  10 1931.53 99.3368  -2
   0   0  10 1931.53 99.3368   1
   0   0  10 1950.37 82.5512  -2
   0   0  10 1950.37 82.5512   1
   1   0 -10 567.204 42.8619  -2
  -1   0 -10 567.204 42.8619   1
   1   0 -10 545.453 35.5768  -2
  -1   0 -10 545.453 35.5768   1
  -1   0  10 576.412 41.9461  -2
   1   0  10 576.412 41.9461   1
  -1   0  10 547.768 48.1500  -2
   1   0  10 547.768 48.1500   1
  -1   0  10 534.420 38.3178  -2
   1   0  10 534.420 38.3178   1
   2   0 -10 260.349 27.1619  -2
  -2   0 -10 260.349 27.1619   1
   2   0 -10 269.792 36.8053  -2
  -2   0 -10 269.792 36.8053   1
  -2   0  10 227.548 29.5152  -2
   2   0  10 227.548 29.5152   1
  -2   0  10 268.575 36.9461  -2
   2   0  10 268.575 36.9461   1
   3   0 -10 429.463 35.6959  -2
  -3   0 -10 429.463 35.6959   1
   3   0 -10 401.242 45.9980  -2
  -3   0 -10 401.242 45.9980   1
  -3   0  10 434.171 38.1131  -2
   3   0  10 434.171 38.1131   1
   4   0 -10 77.8800 24.5927  -2
  -4   0 -10 77.8800 24.5927   1
   5  -1  10 66.1786 27.0370  -2
  -5   1  10 66.1786 27.0370   1
   4  -1  10 521.456 46.6794  -2
  -4   1  10 521.456 46.6794   1
   4  -1  10 383.067 39.2798  -2
  -4   1  10 383.067 39.2798   1
   3  -1  10 250.223 33.8324  -2
  -3   1  10 250.223 33.8324   1
   3  -1  10 190.795 30.2361  -2
  -3   1  10 190.795 30.2361   1
  -2   1 -10 198.446 23.4234  -2
   2  -1 -10 198.446 23.4234   1
  -2   1 -10 245.756 26.2686  -2
   2  -1 -10 245.756 26.2686   1
   2  -1  10 200.126 29.2317  -2
  -2   1  10 200.126 29.2317   1
   2  -1  10 181.918 26.3606  -2
  -2   1  10 181.918 26.3606   1
   2  -1  10 214.867 29.5486  -2
  -2   1  10 214.867 29.5486   1
   2  -1  10 206.363 34.0117  -2
  -2   1  10 206.363 34.0117   1
  -1   1 -10 295.758 28.7263  -2
   1  -1 -10 295.758 28.7263   1
  -1   1 -10 240.646 27.2984  -2
   1  -1 -10 240.646 27.2984   1
   1  -1  10 282.608 33.6991  -2
  -1   1  10 282.608 33.6991   1
   1  -1  10 220.572 34.2818  -2
  -1   1  10 220.572 34.2818   1
   1  -1  10 247.557 28.6477  -2
  -1   1  10 247.557 28.6477   1
   1  -1  10 254.674 33.1676  -2
  -1   1  10 254.674 33.1676   1
   0   1 -10 704.169 43.3907  -2
   0  -1 -10 704.169 43.3907   1
   0   1 -10 711.517 46.3614  -2
   0  -1 -10 711.517 46.3614   1
   0  -1  10 738.344 48.1991  -2
   0   1  10 738.344 48.1991   1
   0  -1  10 661.320 53.8483  -2
   0   1  10 661.320 53.8483   1
   0  -1  10 643.695 44.8392  -2
   0   1  10 643.695 44.8392   1
  -1  -1 -10 100.233 21.0047   1
  -1  -1 -10 97.0260 16.9456   1
  -1  -1  10 143.692 28.7557  -2
   1   1  10 143.692 28.7557   1
  -1  -1  10 158.776 31.9475  -2
   1   1  10 158.776 31.9475   1
  -2  -1 -10 286.068 33.5581   1
  -2  -1 -10 282.223 26.5646   1
   2   1  10 279.544 27.9774   1
   2   1  10 347.002 30.0496   1
  -3  -1 -10 218.070 32.9165   1
  -3  -1 -10 162.221 22.1174   1
   4   1  -9 334.957 34.0162  -2
  -4  -1 -10 334.957 34.0162   1
   5   1  -9 419.041 38.6265  -2
  -5  -1 -10 419.041 38.6265   1
   6   1  -9 223.519 33.1586  -2
  -6  -1 -10 223.519 33.1586   1
  -5   2  10 204.004 33.0753   1
  -4   2  10 218.521 32.0626   1
   3  -2 -10 100.713 19.4404   1
  -3   2  10 73.7393 21.0243   1
  -3   2  10 66.8470 21.4869   1
   2  -2 -10 65.5627 13.7983   1
   2  -2 -10 90.9555 17.6961   1
  -2   2  10 95.4798 17.2678   1
  -2   2  10 57.3953 20.4540   1
  -2   2  10 87.2131 20.9485   1
  -2   2  10 77.2778 18.4066   1
   1  -2 -10 -4.2105 7.61632   1
   1  -2 -10 -0.1038 7.31712   1
  -1   2  10 1.52653 10.0774   1
  -1   2  10 7.13072 12.4612   1
  -1   2  10 15.0221 10.0202   1
  -1   2  10 8.51173 9.20127   1
   0   2  -9 164.224 24.7686  -2
   0  -2 -10 164.224 24.7686   1
   0  -2   9 119.278 30.1190  -2
   0   2  10 119.278 30.1190   1
   0  -2   9 144.310 28.1858  -2
   0   2  10 144.310 28.1858   1
   1   2  -9 11.5926 22.3486  -2
  -1  -2 -10 11.5926 22.3486   1
   1   2  -9 6.73378 18.8193  -2
  -1  -2 -10 6.73378 18.8193   1
  -1  -2   9 4.23272 18.5774  -2
   1   2  10 4.23272 18.5774   1
  -1  -2   9 -0.6249 24.2687  -2
   1   2  10 -0.6249 24.2687   1
  -1  -2   9 47.1912 25.1501  -2
   1   2  10 47.1912 25.1501   1
  -1  -2   9 -5.1921 21.3801  -2
   1   2  10 -5.1921 21.3801   1
   2   2  -9 205.535 32.4505  -2
  -2  -2 -10 205.535 32.4505   1
   2   2  -9 139.358 23.5099  -2
  -2  -2 -10 139.358 23.5099   1
   3   2  -9 1160.65 71.6191  -2
  -3  -2 -10 1160.65 71.6191   1
   3   2  -9 1049.78 55.8498  -2
  -3  -2 -10 1049.78 55.8498   1
   4   2  -9 150.969 22.1060  -2
  -4  -2 -10 150.969 22.1060   1
   4   2  -9 211.671 35.0626  -2
  -4  -2 -10 211.671 35.0626   1
   5   2  -9 506.141 38.5588  -2
  -5  -2 -10 506.141 38.5588   1
   6   2  -9 211.902 28.2796  -2
  -6  -2 -10 211.902 28.2796   1
  -5   3  10 22.3719 18.2349   1
   4  -3 -10 175.328 23.6809   1
  -4   3  10 274.651 35.6737   1
  -3   3  -9 151.769 26.0186  -2
   3  -3 -10 151.769 26.0186   1
  -3   3  10 21.6838 15.4074   1
  -2   3  -9 517.362 37.9078  -2
   2  -3 -10 517.362 37.9078   1
   2  -3   9 540.056 45.7300  -2
  -2   3  10 540.056 45.7300   1
  -1   3  -9 791.166 42.0544  -2
   1  -3 -10 791.166 42.0544   1
  -1   3  -9 840.881 47.0728  -2
   1  -3 -10 840.881 47.0728   1
   1  -3   9 886.648 59.0978  -2
  -1   3  10 886.648 59.0978   1
   1  -3   9 889.711 48.7222  -2
  -1   3  10 889.711 48.7222   1
   0   3  -9 251.497 26.0875  -2
   0  -3 -10 251.497 26.0875   1
   0   3  -9 295.372 26.4977  -2
   0  -3 -10 295.372 26.4977   1
   0  -3   9 303.368 29.9923  -2
   0   3  10 303.368 29.9923   1
   0  -3   9 345.968 35.8510  -2
   0   3  10 345.968 35.8510   1
   0  -3   9 241.664 27.5603  -2
   0   3  10 241.664 27.5603   1
   1   3  -9 430.442 34.0140  -2
  -1  -3 -10 430.442 34.0140   1
   1   3  -9 427.949 31.0529  -2
  -1  -3 -10 427.949 31.0529   1
  -1  -3   9 413.296 34.8575  -2
   1   3  10 413.296 34.8575   1
  -1  -3   9 379.178 32.6601  -2
   1   3  10 379.178 32.6601   1
  -1  -3   9 333.719 36.7854  -2
   1   3  10 333.719 36.7854   1
   2   3  -9 723.621 50.2668  -2
  -2  -3 -10 723.621 50.2668   1
   2   3  -9 665.373 41.5824  -2
  -2  -3 -10 665.373 41.5824   1
   3   3  -9 1360.30 77.9608  -2
  -3  -3 -10 1360.30 77.9608   1
   3   3  -9 1397.77 66.6854  -2
  -3  -3 -10 1397.77 66.6854   1
   4   3  -9 405.106 48.0146  -2
  -4  -3 -10 405.106 48.0146   1
   4   3  -9 386.354 35.8000  -2
  -4  -3 -10 386.354 35.8000   1
   5   3  -9 527.655 42.8498  -2
  -5  -3 -10 527.655 42.8498   1
  -6  -3 -10 253.444 30.7235   1
   5  -4   9 9.05021 24.2029  -2
  -5   4  10 9.05021 24.2029   1
  -4   4  -9 9.03254 17.5490  -2
   4  -4 -10 9.03254 17.5490   1
   4  -4   9 0.50717 17.2476  -2
  -4   4  10 0.50717 17.2476   1
  -3   4  -9 392.805 31.5589  -2
   3  -4 -10 392.805 31.5589   1
   3  -4   9 353.081 37.0906  -2
  -3   4  10 353.081 37.0906   1
  -2   4  -9 282.235 28.7953  -2
   2  -4 -10 282.235 28.7953   1
   2  -4   9 329.284 36.1975  -2
  -2   4  10 329.284 36.1975   1
  -1   4  -9 1249.31 60.0519  -2
   1  -4 -10 1249.31 60.0519   1
   1  -4   9 1162.22 70.1266  -2
  -1   4  10 1162.22 70.1266   1
   0   4  -9 678.324 42.2051  -2
   0  -4 -10 678.324 42.2051   1
   0   4  -9 642.068 38.9555  -2
   0  -4 -10 642.068 38.9555   1
   0  -4   9 674.963 51.8480  -2
   0   4  10 674.963 51.8480   1
   1   4  -9 457.851 39.1467  -2
  -1  -4 -10 457.851 39.1467   1
   1   4  -9 464.607 35.9796  -2
  -1  -4 -10 464.607 35.9796   1
   2   4  -9 210.571 27.8332  -2
  -2  -4 -10 210.571 27.8332   1
  -3  -4 -10 222.275 30.6281   1
  -3  -4 -10 184.528 22.5678   1
  -4  -4 -10 -12.943 11.7527   1
  -4  -4 -10 13.8198 10.6439   1
   5   4  -8 211.141 30.8128  -2
  -5  -4 -10 211.141 30.8128   1
  -4   5  -9 888.638 55.0437  -2
   4  -5 -10 888.638 55.0437   1
   4  -5   9 903.169 64.0342  -2
  -4   5  10 903.169 64.0342   1
  -3   5  -9 670.514 45.5305  -2
   3  -5 -10 670.514 45.5305   1
  -3   5  10 561.427 45.1622   1
   2  -5 -10 6.98119 9.20500   1
   2  -5   9 262.194 37.5274  -2
  -2   5  10 262.194 37.5274   1
   1  -5 -10 753.050 45.2029   1
   1  -5 -10 808.000 41.3963   1
  -1   5  10 806.527 55.1133   1
   0  -5 -10 189.323 19.8308   1
   0  -5 -10 182.366 22.0584   1
   0   5  10 186.314 28.1313   1
   1   5  -8 500.697 36.7922  -2
  -1  -5 -10 500.697 36.7922   1
   2   5  -8 152.288 24.3926  -2
  -2  -5 -10 152.288 24.3926   1
   2   5  -8 150.446 28.7000  -2
  -2  -5 -10 150.446 28.7000   1
   3   5  -8 263.128 28.7069  -2
  -3  -5 -10 263.128 28.7069   1
   3   5  -8 306.888 38.7609  -2
  -3  -5 -10 306.888 38.7609   1
   4   5  -8 84.1575 22.2266  -2
  -4  -5 -10 84.1575 22.2266   1
   4   5  -8 146.152 32.4359  -2
  -4  -5 -10 146.152 32.4359   1
   5   5  -8 519.479 39.2794  -2
  -5  -5 -10 519.479 39.2794   1
   4  -6 -10 2.04508 10.4273   1
  -3   6  -8 478.995 39.0964  -2
   3  -6 -10 478.995 39.0964   1
   3  -6   8 415.374 44.4588  -2
  -3   6  10 415.374 44.4588   1
  -2   6  -8 -1.0085 19.2967  -2
   2  -6 -10 -1.0085 19.2967   1
   2  -6   8 26.0953 23.5865  -2
  -2   6  10 26.0953 23.5865   1
  -1   6  -8 215.372 24.1633  -2
   1  -6 -10 215.372 24.1633   1
  -1   6  -8 227.302 27.1788  -2
   1  -6 -10 227.302 27.1788   1
   1  -6   8 206.617 30.9598  -2
  -1   6  10 206.617 30.9598   1
   0   6  -8 214.099 23.6009  -2
   0  -6 -10 214.099 23.6009   1
   0   6  -8 238.263 26.4944  -2
   0  -6 -10 238.263 26.4944   1
   1   6  -8 698.536 40.3604  -2
  -1  -6 -10 698.536 40.3604   1
   1   6  -8 598.766 38.7855  -2
  -1  -6 -10 598.766 38.7855   1
   2   6  -8 884.862 47.7551  -2
  -2  -6 -10 884.862 47.7551   1
   3   6  -8 469.317 41.8979  -2
  -3  -6 -10 469.317 41.8979   1
   3   6  -8 385.570 32.3388  -2
  -3  -6 -10 385.570 32.3388   1
   4   6  -8 198.486 38.0883  -2
  -4  -6 -10 198.486 38.0883   1
   4   6  -8 252.701 28.8048  -2
  -4  -6 -10 252.701 28.8048   1
   5   6  -8 118.510 26.6409  -2
  -5  -6 -10 118.510 26.6409   1
  -3   7  -8 252.561 28.8529  -2
   3  -7 -10 252.561 28.8529   1
  -2   7  -8 164.388 22.5997  -2
   2  -7 -10 164.388 22.5997   1
  -1   7  -8 307.501 28.4492  -2
   1  -7 -10 307.501 28.4492   1
  -1   7  -8 308.255 29.5644  -2
   1  -7 -10 308.255 29.5644   1
   1  -7   8 316.399 35.7209  -2
  -1   7  10 316.399 35.7209   1
   0   7  -8 198.164 25.8482  -2
   0  -7 -10 198.164 25.8482   1
   0   7  -8 165.846 23.6085  -2
   0  -7 -10 165.846 23.6085   1
   1   7  -8 680.115 44.1757  -2
  -1  -7 -10 680.115 44.1757   1
   1   7  -8 639.698 42.2154  -2
  -1  -7 -10 639.698 42.2154   1
   2   7  -8 327.498 31.5851  -2
  -2  -7 -10 327.498 31.5851   1
   3   7  -8 98.0286 24.6522  -2
  -3  -7 -10 98.0286 24.6522   1
  -4  -7 -10 48.1677 14.7822   1
  -2   8  -8 323.516 34.0651  -2
   2  -8 -10 323.516 34.0651   1
  -1   8  -8 85.2791 24.6988  -2
   1  -8 -10 85.2791 24.6988   1
   0  -8 -10 360.472 29.8447   1
  -1  -8 -10 29.5731 12.0470   1
   2   8  -7 204.565 27.6114  -2
  -2  -8 -10 204.565 27.6114   1
   3   8  -7 33.3199 21.0144  -2
  -3  -8 -10 33.3199 21.0144   1
  -1   9  -7 72.0900 23.1974  -2
   1  -9 -10 72.0900 23.1974   1
   0   9  -7 17.4809 20.4839  -2
   0  -9 -10 17.4809 20.4839   1
   1   9  -7 72.7549 20.4232  -2
  -1  -9 -10 72.7549 20.4232   1
   2   9  -7 21.8510 16.3377  -2
  -2  -9 -10 21.8510 16.3377   1
  -1  -5  11 122.249 28.3500   1
   0  -5  11 45.6130 17.8441   1
   1  -5  11 77.9469 23.1890   1
   2   4  12 24.9743 31.1840  -2
  -2  -4  11 24.9743 31.1840   1
   1   4  12 319.511 42.0570  -2
  -1  -4  11 319.511 42.0570   1
   0   4  12 8.64707 28.3690  -2
   0  -4  11 8.64707 28.3690   1
  -1   4  12 47.7015 28.1084  -2
   1  -4  11 47.7015 28.1084   1
  -2   4  12 171.301 32.2374  -2
   2  -4  11 171.301 32.2374   1
   3   3  12 49.9426 29.6610  -2
  -3  -3  11 49.9426 29.6610   1
   2   3  12 225.737 34.1244  -2
  -2  -3  11 225.737 34.1244   1
   1   3  12 161.609 27.9962  -2
  -1  -3  11 161.609 27.9962   1
   1   3  12 180.266 22.6336  -2
  -1  -3  11 180.266 22.6336   1
   0   3  12 146.503 29.7882  -2
   0  -3  11 146.503 29.7882   1
  -1   3  12 -3.7682 24.9979  -2
   1  -3  11 -3.7682 24.9979   1
  -2   3  12 1313.19 75.3465  -2
   2  -3  11 1313.19 75.3465   1
  -3   3  12 110.947 35.5477  -2
   3  -3  11 110.947 35.5477   1
   4   2  12 115.621 33.7299  -2
  -4  -2  11 115.621 33.7299   1
   3   2  12 107.868 32.8174  -2
  -3  -2  11 107.868 32.8174   1
   2   2  12 123.575 33.3825  -2
  -2  -2  11 123.575 33.3825   1
   1   2  12 160.197 34.3940  -2
  -1  -2  11 160.197 34.3940   1
   0   2  12 -28.724 28.8950  -2
   0  -2  11 -28.724 28.8950   1
   1  -2  11 84.0960 23.6037   1
   1  -2  11 86.3514 25.3246   1
   2  -2  11 142.035 30.9413   1
   2  -2  11 167.237 28.0829   1
  -3   2  11 37.4202 32.0685  -2
   3  -2  11 37.4202 32.0685   1
  -4  -1  11 277.767 37.6506   1
   3   1 -11 69.9250 19.6936   1
  -3  -1  11 89.8065 24.5240   1
   2   1 -11 245.218 28.6564   1
  -2  -1  11 246.173 35.7700   1
  -2  -1  11 213.352 31.9650   1
  -2  -1  11 222.638 26.1152   1
  -1  -1 -11 95.9851 26.3957  -2
   1   1 -11 95.9851 26.3957   1
   1   1  11 77.2781 30.6412  -2
  -1  -1  11 77.2781 30.6412   1
   0  -1 -11 971.297 62.4709  -2
   0   1 -11 971.297 62.4709   1
   0   1  11 1105.95 65.4582  -2
   0  -1  11 1105.95 65.4582   1
   0   1  11 964.322 71.1195  -2
   0  -1  11 964.322 71.1195   1
   1  -1 -11 97.2301 27.5518  -2
  -1   1 -11 97.2301 27.5518   1
  -1   1  11 79.7125 29.0548  -2
   1  -1  11 79.7125 29.0548   1
  -1   1  11 65.0300 28.1992  -2
   1  -1  11 65.0300 28.1992   1
  -2   1  11 1161.46 65.7752  -2
   2  -1  11 1161.46 65.7752   1
  -2   1  11 1101.24 76.6719  -2
   2  -1  11 1101.24 76.6719   1
  -3   1  11 103.018 24.9976  -2
   3  -1  11 103.018 24.9976   1
   4   0  11 173.414 38.1958  -2
  -4   0  11 173.414 38.1958   1
   3   0  11 -7.4379 25.7722  -2
  -3   0  11 -7.4379 25.7722   1
   3   0  11 22.3165 28.6741  -2
  -3   0  11 22.3165 28.6741   1
  -2   0 -11 110.040 22.5018  -2
   2   0 -11 110.040 22.5018   1
   2   0  11 231.783 33.4750  -2
  -2   0  11 231.783 33.4750   1
   2   0  11 175.352 32.1528  -2
  -2   0  11 175.352 32.1528   1
  -1   0 -11 251.368 29.2730  -2
   1   0 -11 251.368 29.2730   1
   1   0  11 356.902 36.3364  -2
  -1   0  11 356.902 36.3364   1
   1   0  11 275.350 37.4261  -2
  -1   0  11 275.350 37.4261   1
   0   0 -11 1158.27 61.7577  -2
   0   0 -11 1158.27 61.7577   1
   0   0  11 1100.85 72.9548  -2
   0   0  11 1100.85 72.9548   1
   0   0  11 1049.71 60.7312  -2
   0   0  11 1049.71 60.7312   1
   1   0 -11 207.410 30.1794  -2
  -1   0 -11 207.410 30.1794   1
  -1   0  11 243.581 31.8403  -2
   1   0  11 243.581 31.8403   1
  -1   0  11 354.645 41.1558  -2
   1   0  11 354.645 41.1558   1
   2   0 -11 233.982 36.1575  -2
  -2   0 -11 233.982 36.1575   1
   3  -1  11 66.4946 29.7687  -2
  -3   1  11 66.4946 29.7687   1
   3  -1  11 135.170 28.9280  -2
  -3   1  11 135.170 28.9280   1
  -2   1 -11 1050.24 56.1697  -2
   2  -1 -11 1050.24 56.1697   1
   2  -1  11 1145.34 74.9642  -2
  -2   1  11 1145.34 74.9642   1
   2  -1  11 1194.93 67.0405  -2
  -2   1  11 1194.93 67.0405   1
  -1   1 -11 106.276 24.6720  -2
   1  -1 -11 106.276 24.6720   1
   1  -1  11 91.4354 30.2786  -2
  -1   1  11 91.4354 30.2786   1
   1  -1  11 105.788 28.0674  -2
  -1   1  11 105.788 28.0674   1
   0   1 -11 918.989 54.2058  -2
   0  -1 -11 918.989 54.2058   1
   0   1 -11 856.191 50.4928  -2
   0  -1 -11 856.191 50.4928   1
   0  -1  11 707.167 61.9941  -2
   0   1  11 707.167 61.9941   1
   1   1 -11 109.999 29.9819  -2
  -1  -1 -11 109.999 29.9819   1
   1   1 -11 119.481 26.3107  -2
  -1  -1 -11 119.481 26.3107   1
  -1  -1  11 78.9045 29.5969  -2
   1   1  11 78.9045 29.5969   1
  -2  -1 -11 1.10771 8.84624   1
  -2  -1 -11 0.02198 13.2805   1
   3   1 -10 255.004 32.3305  -2
  -3  -1 -11 255.004 32.3305   1
   4   1 -10 -14.686 23.6394  -2
  -4  -1 -11 -14.686 23.6394   1
  -4   2  11 -2.5200 15.8207   1
  -3   2  11 27.0041 19.5539   1
  -2   2  11 0.30274 13.0378   1
  -1   2 -10 182.295 28.1742  -2
   1  -2 -11 182.295 28.1742   1
  -1   2  11 66.6134 22.2206   1
   0   2 -10 133.221 25.9851  -2
   0  -2 -11 133.221 25.9851   1
   0   2  11 48.0241 20.2921   1
   1   2 -10 382.331 38.6113  -2
  -1  -2 -11 382.331 38.6113   1
   1   2 -10 351.178 33.8104  -2
  -1  -2 -11 351.178 33.8104   1
  -1  -2  10 330.076 41.7390  -2
   1   2  11 330.076 41.7390   1
   2   2 -10 24.7908 27.7349  -2
  -2  -2 -11 24.7908 27.7349   1
   2   2 -10 105.159 24.2910  -2
  -2  -2 -11 105.159 24.2910   1
   3   2 -10 1129.21 73.5993  -2
  -3  -2 -11 1129.21 73.5993   1
   3   2 -10 1142.95 60.8281  -2
  -3  -2 -11 1142.95 60.8281   1
   4   2 -10 91.1967 20.7501  -2
  -4  -2 -11 91.1967 20.7501   1
   5   2 -10 753.130 49.6890  -2
  -5  -2 -11 753.130 49.6890   1
  -4   3  11 8.99633 16.3374   1
  -3   3 -10 253.815 31.9296  -2
   3  -3 -11 253.815 31.9296   1
   3  -3  10 168.229 35.3135  -2
  -3   3  11 168.229 35.3135   1
  -2   3 -10 91.6925 24.7391  -2
   2  -3 -11 91.6925 24.7391   1
   2  -3  10 112.237 28.9587  -2
  -2   3  11 112.237 28.9587   1
  -1   3 -10 22.6123 19.6400  -2
   1  -3 -11 22.6123 19.6400   1
   1  -3  10 35.9098 23.7902  -2
  -1   3  11 35.9098 23.7902   1
   0   3 -10 169.030 24.4452  -2
   0  -3 -11 169.030 24.4452   1
   0   3 -10 195.133 23.7889  -2
   0  -3 -11 195.133 23.7889   1
   0  -3  10 130.902 27.8820  -2
   0   3  11 130.902 27.8820   1
   1   3 -10 285.424 29.0065  -2
  -1  -3 -11 285.424 29.0065   1
   1   3 -10 306.260 28.4312  -2
  -1  -3 -11 306.260 28.4312   1
  -1  -3  10 282.563 35.8312  -2
   1   3  11 282.563 35.8312   1
   2   3 -10 175.670 30.2502  -2
  -2  -3 -11 175.670 30.2502   1
   2   3 -10 158.658 23.9609  -2
  -2  -3 -11 158.658 23.9609   1
   3   3 -10 400.399 46.1518  -2
  -3  -3 -11 400.399 46.1518   1
   3   3 -10 330.979 33.9270  -2
  -3  -3 -11 330.979 33.9270   1
   4   3 -10 143.427 28.6332  -2
  -4  -3 -11 143.427 28.6332   1
  -5  -3 -11 7.17338 11.4213   1
   4  -4  10 19.2322 21.5050  -2
  -4   4  11 19.2322 21.5050   1
  -3   4 -10 1028.40 57.2230  -2
   3  -4 -11 1028.40 57.2230   1
   3  -4  10 979.447 65.7854  -2
  -3   4  11 979.447 65.7854   1
  -2   4 -10 246.592 28.9152  -2
   2  -4 -11 246.592 28.9152   1
   2  -4  10 242.465 36.3377  -2
  -2   4  11 242.465 36.3377   1
  -1   4 -10 1160.12 60.2047  -2
   1  -4 -11 1160.12 60.2047   1
   1  -4  10 1104.01 70.9906  -2
  -1   4  11 1104.01 70.9906   1
   0   4 -10 228.963 29.5903  -2
   0  -4 -11 228.963 29.5903   1
   0  -4  10 185.369 32.6531  -2
   0   4  11 185.369 32.6531   1
   1   4 -10 640.878 44.7292  -2
  -1  -4 -11 640.878 44.7292   1
  -2  -4 -11 26.2226 13.2480   1
  -2  -4 -11 35.9268 15.4308   1
  -3  -4 -11 3.61304 9.02347   1
  -3  -4 -11 0.05800 15.0184   1
  -4  -4 -11 15.7520 11.1247   1
  -5  -4 -11 29.5868 13.5989   1
  -3   5 -10 164.299 30.2299  -2
   3  -5 -11 164.299 30.2299   1
   3  -5  10 147.098 35.1580  -2
  -3   5  11 147.098 35.1580   1
   2  -5 -11 72.8308 19.7567   1
   2  -5  10 96.2617 33.8269  -2
  -2   5  11 96.2617 33.8269   1
   1  -5 -11 35.3388 14.5586   1
  -1   5  11 36.4865 17.6045   1
   0  -5 -11 76.7881 18.3145   1
   0  -5   9 189.225 36.1028  -2
   0   5  11 189.225 36.1028   1
   1   5  -9 126.828 25.4147  -2
  -1  -5 -11 126.828 25.4147   1
   2   5  -9 148.002 26.6240  -2
  -2  -5 -11 148.002 26.6240   1
   3   5  -9 231.365 29.6392  -2
  -3  -5 -11 231.365 29.6392   1
   3   5  -9 303.381 40.4655  -2
  -3  -5 -11 303.381 40.4655   1
   4   5  -9 261.576 31.9385  -2
  -4  -5 -11 261.576 31.9385   1
  -3   6  -9 192.654 31.9481  -2
   3  -6 -11 192.654 31.9481   1
  -2   6  -9 50.6461 23.2197  -2
   2  -6 -11 50.6461 23.2197   1
   2  -6   9 32.5265 28.7126  -2
  -2   6  11 32.5265 28.7126   1
  -1   6  -9 63.5298 23.0939  -2
   1  -6 -11 63.5298 23.0939   1
   1  -6   9 90.7630 27.5994  -2
  -1   6  11 90.7630 27.5994   1
   0   6  -9 18.0590 18.2775  -2
   0  -6 -11 18.0590 18.2775   1
   1   6  -9 110.336 22.2975  -2
  -1  -6 -11 110.336 22.2975   1
   2   6  -9 377.828 32.0459  -2
  -2  -6 -11 377.828 32.0459   1
   3   6  -9 306.387 31.5156  -2
  -3  -6 -11 306.387 31.5156   1
  -4  -6 -11 160.331 24.3511   1
  -2   7  -9 244.832 28.3874  -2
   2  -7 -11 244.832 28.3874   1
  -1   7  -9 120.096 24.0748  -2
   1  -7 -11 120.096 24.0748   1
   0   7  -9 365.130 34.3200  -2
   0  -7 -11 365.130 34.3200   1
   1   7  -9 675.071 45.5903  -2
  -1  -7 -11 675.071 45.5903   1
   2   7  -9 504.052 40.9443  -2
  -2  -7 -11 504.052 40.9443   1
  -3  -7 -11 0.77559 9.16777   1
   0  -8 -11 104.866 22.1568   1
  -1  -8 -11 9.99521 10.1864   1
   1   3  13 117.299 29.5422  -2
  -1  -3  12 117.299 29.5422   1
   0   3  13 28.5862 26.3460  -2
   0  -3  12 28.5862 26.3460   1
  -2  -2  12 50.2253 19.5990   1
   1   2  13 31.8093 33.4520  -2
  -1  -2  12 31.8093 33.4520   1
   0   2  13 236.299 40.4963  -2
   0  -2  12 236.299 40.4963   1
   1  -2  12 155.748 29.3380   1
   2  -2  12 124.577 28.4099   1
  -2  -1  12 68.7749 20.8182   1
   1   1  12 31.2775 32.4178  -2
  -1  -1  12 31.2775 32.4178   1
   0   1  12 240.874 39.1528  -2
   0  -1  12 240.874 39.1528   1
  -1   1  12 -0.2911 27.6630  -2
   1  -1  12 -0.2911 27.6630   1
   2   0  12 80.6832 30.2824  -2
  -2   0  12 80.6832 30.2824   1
  -1   0 -12 204.258 28.1425  -2
   1   0 -12 204.258 28.1425   1
   1   0  12 183.253 31.9446  -2
  -1   0  12 183.253 31.9446   1
   0   0 -12 210.025 28.2707  -2
   0   0 -12 210.025 28.2707   1
   0   0  12 168.496 28.3188  -2
   0   0  12 168.496 28.3188   1
   0   1 -12 270.834 35.5081  -2
   0  -1 -12 270.834 35.5081   1
   1   1 -12 -2.1131 27.8913  -2
  -1  -1 -12 -2.1131 27.8913   1
  -2   2  12 16.6437 18.3809   1
  -1   2  12 16.6767 17.0486   1
   0   2 -11 30.3382 24.4266  -2
   0  -2 -12 30.3382 24.4266   1
   0   2  12 18.9594 17.9150   1
   1   2 -11 116.769 30.4342  -2
  -1  -2 -12 116.769 30.4342   1
   1   2 -11 189.470 30.1934  -2
  -1  -2 -12 189.470 30.1934   1
  -1  -2  11 152.035 38.8791  -2
   1   2  12 152.035 38.8791   1
   2   2 -11 74.6260 25.5921  -2
  -2  -2 -12 74.6260 25.5921   1
   2   2 -11 79.9400 31.0000  -2
  -2  -2 -12 79.9400 31.0000   1
   3   2 -11 90.6988 25.0724  -2
  -3  -2 -12 90.6988 25.0724   1
   4   2 -11 151.779 25.4972  -2
  -4  -2 -12 151.779 25.4972   1
   2  -3  11 1193.84 78.9675  -2
  -2   3  12 1193.84 78.9675   1
  -1   3 -11 -4.7165 21.1412  -2
   1  -3 -12 -4.7165 21.1412   1
   1  -3  11 30.0362 25.8663  -2
  -1   3  12 30.0362 25.8663   1
   0   3 -11 170.665 26.0640  -2
   0  -3 -12 170.665 26.0640   1
   0  -3  11 146.683 30.1318  -2
   0   3  12 146.683 30.1318   1
   1   3 -11 238.823 27.8733  -2
  -1  -3 -12 238.823 27.8733   1
  -1  -3  11 206.452 33.9045  -2
   1   3  12 206.452 33.9045   1
   2   3 -11 187.749 32.8074  -2
  -2  -3 -12 187.749 32.8074   1
   2   3 -11 187.430 27.7249  -2
  -2  -3 -12 187.430 27.7249   1
   3   3 -11 26.4741 22.8442  -2
  -3  -3 -12 26.4741 22.8442   1
  -2   4 -11 131.143 26.2920  -2
   2  -4 -12 131.143 26.2920   1
   2  -4  11 139.413 32.9724  -2
  -2   4  12 139.413 32.9724   1
  -1   4 -11 14.0253 21.8189  -2
   1  -4 -12 14.0253 21.8189   1
   1  -4  11 -0.9137 22.0632  -2
  -1   4  12 -0.9137 22.0632   1
   0   4 -11 16.1757 23.2753  -2
   0  -4 -12 16.1757 23.2753   1
   0  -4  11 9.62815 24.9499  -2
   0   4  12 9.62815 24.9499   1
   1   4 -11 350.462 36.8587  -2
  -1  -4 -12 350.462 36.8587   1
  -2  -4 -12 -4.0903 8.88619   1
  -3  -4 -12 201.136 27.2911   1
  -3  -4 -12 242.288 38.0865   1
   2  -5 -12 48.5971 16.7886   1
  -2   5  12 55.7836 20.3518   1
   1  -5 -12 65.6244 18.6821   1
  -1   5  12 38.6327 21.1239   1
   0  -5 -12 208.575 27.4042   1
   0   5  12 191.666 34.3814   1
   1   5 -10 326.121 36.5746  -2
  -1  -5 -12 326.121 36.5746   1
   2   5 -10 242.161 33.0712  -2
  -2  -5 -12 242.161 33.0712   1
   3   5 -10 51.2863 24.2674  -2
  -3  -5 -12 51.2863 24.2674   1
  -1   6 -10 184.685 30.3346  -2
   1  -6 -12 184.685 30.3346   1
   1  -6  10 218.406 36.9821  -2
  -1   6  12 218.406 36.9821   1
   0   6 -10 3.05516 20.9462  -2
   0  -6 -12 3.05516 20.9462   1
   1   6 -10 453.504 38.3734  -2
  -1  -6 -12 453.504 38.3734   1
   2   6 -10 4.88391 10.6000  -2
  -2  -6 -12 4.88391 10.6000   1
   1   3 -12 153.626 25.2608  -2
  -1  -3 -13 153.626 25.2608   1
   0   0   0    0.00    0.00   0
;
_shelx_hkl_checksum              4343
loop_
_space_group_symop_operation_xyz
'x, y, z'
'-x, -y, -z'
loop_
_atom_site_label
_atom_site_type_symbol
_atom_site_fract_x
_atom_site_fract_y
_atom_site_fract_z
_atom_site_U_iso_or_equiv
_atom_site_adp_type
_atom_site_occupancy
_atom_site_site_symmetry_order
_atom_site_calc_flag
_atom_site_refinement_flags_posn
_atom_site_refinement_flags_adp
_atom_site_refinement_flags_occupancy
_atom_site_disorder_assembly
_atom_site_disorder_group
C1 C 0.3668(7) 0.2891(5) 0.2545(5) 0.0092(12) Uiso 1 1 d . . . . .
C2 C 0.0408(7) 0.3492(5) 0.2303(4) 0.0049(11) Uiso 1 1 d . . . . .
C3 C 0.1636(7) 0.8125(5) 0.2390(4) 0.0065(12) Uiso 1 1 d . . . . .
C4 C 0.4954(7) 0.7517(5) 0.2378(5) 0.0073(12) Uiso 1 1 d . . . . .
C5 C 0.1442(8) 0.1840(5) 0.4105(4) 0.0098(12) Uiso 1 1 d . . . . .
H5A H 0.2400 0.1573 0.4682 0.015 Uiso 1 1 calc R U . . .
H5B H 0.1305 0.1154 0.3590 0.015 Uiso 1 1 calc R U . . .
H5C H 0.0340 0.1977 0.4573 0.015 Uiso 1 1 calc R U . . .
C6 C 0.1877(7) 0.3101(5) 0.3282(4) 0.0080(12) Uiso 1 1 d . . . . .
C7 C 0.2179(7) 0.4194(5) 0.4056(4) 0.0076(12) Uiso 1 1 d . . . . .
C8 C 0.2118(7) 0.3996(5) 0.5338(5) 0.0103(13) Uiso 1 1 d . . . . .
H8 H 0.1792 0.3181 0.5784 0.012 Uiso 1 1 calc R U . . .
C9 C 0.2538(8) 0.5002(5) 0.5958(4) 0.0081(11) Uiso 1 1 d . . . . .
H9 H 0.2558 0.4867 0.6837 0.010 Uiso 1 1 calc R U . . .
C10 C 0.2925(7) 0.6194(5) 0.5312(5) 0.0091(12) Uiso 1 1 d . . . . .
H10 H 0.3196 0.6892 0.5737 0.011 Uiso 1 1 calc R U . . .
C11 C 0.2914(7) 0.6369(5) 0.4024(4) 0.0055(11) Uiso 1 1 d . . . . .
C12 C 0.3283(7) 0.7687(5) 0.3226(4) 0.0063(12) Uiso 1 1 d . . . . .
C13 C 0.3587(7) 0.8744(5) 0.4032(5) 0.0082(12) Uiso 1 1 d . . . . .
H13A H 0.2538 0.8863 0.4561 0.012 Uiso 1 1 calc R U . . .
H13B H 0.3810 0.9569 0.3499 0.012 Uiso 1 1 calc R U . . .
H13C H 0.4608 0.8474 0.4553 0.012 Uiso 1 1 calc R U . . .
N1 N 0.2583(6) 0.5365(4) 0.3431(3) 0.0053(9) Uani 1 1 d . . . . .
O1 O 0.3916(5) 0.3726(3) 0.1564(3) 0.0084(8) Uani 1 1 d . . . . .
O2 O 0.0457(5) 0.4588(3) 0.1620(3) 0.0076(8) Uani 1 1 d . . . . .
O3 O 0.1280(5) 0.7439(3) 0.1574(3) 0.0102(9) Uani 1 1 d . . . . .
O4 O 0.4896(5) 0.6705(3) 0.1598(3) 0.0093(8) Uani 1 1 d . . . . .
O5 O 0.4716(5) 0.2003(3) 0.2955(3) 0.0129(9) Uani 1 1 d . . . . .
O6 O -0.0717(5) 0.2691(3) 0.2213(3) 0.0124(9) Uani 1 1 d . . . . .
O7 O 0.0792(5) 0.9158(3) 0.2553(3) 0.0123(9) Uiso 1 1 d . . . . .
O8 O 0.6238(5) 0.8164(3) 0.2466(3) 0.0102(9) Uani 1 1 d . . . . .
O9 O 0.2932(5) 0.5914(3) -0.0486(3) 0.0094(8) Uani 1 1 d . . . . .
H9X H 0.3823 0.6055 -0.0954 0.011 Uiso 1 1 d R U . . .
H9Y H 0.2233 0.6411 -0.1003 0.011 Uiso 1 1 d R U . . .
O10 O 0.6318(8) 1.1032(5) 0.0485(5) 0.0557(15) Uiso 1 1 d . . . . .
O11 O 0.7383(9) 0.9142(6) -0.0656(6) 0.053(3) Uani 0.795(12) 1 d . . P A 1
O11A O 0.887(3) 0.9244(15) -0.0270(14) 0.007(6) Uiso 0.205(12) 1 d . . P A 2
K1 K 0.82270(16) 0.67285(11) 0.05936(11) 0.0104(3) Uani 1 1 d . . . . .
K2 K 0.7617(3) 1.04205(18) 0.2770(4) 0.0109(9) Uani 0.741(11) 1 d . . P B 1
K2A K 0.7654(8) 1.0460(6) 0.1961(16) 0.021(3) Uani 0.259(11) 1 d . . P A 2
Fe01 Fe 0.27200(11) 0.56487(8) 0.14609(6) 0.0060(2) Uani 1 1 d . . . . .
loop_
_atom_site_aniso_label
_atom_site_aniso_U_11
_atom_site_aniso_U_22
_atom_site_aniso_U_33
_atom_site_aniso_U_23
_atom_site_aniso_U_13
_atom_site_aniso_U_12
N1 0.002(2) 0.006(2) 0.008(2) -0.001(2) 0.001(2) -0.0008(18)
O1 0.006(2) 0.0092(19) 0.009(2) -0.0008(16) 0.0005(17) 0.0004(15)
O2 0.006(2) 0.0086(19) 0.0072(19) 0.0025(15) -0.0006(17) -0.0018(15)
O3 0.005(2) 0.013(2) 0.014(2) -0.0047(16) -0.0047(17) 0.0009(16)
O4 0.007(2) 0.011(2) 0.011(2) -0.0067(16) 0.0012(17) -0.0008(16)
O5 0.007(2) 0.012(2) 0.019(2) 0.0020(16) -0.0002(17) 0.0051(16)
O6 0.007(2) 0.010(2) 0.020(2) 0.0009(17) -0.0072(17) -0.0028(16)
O8 0.008(2) 0.0096(19) 0.014(2) -0.0022(16) 0.0002(17) -0.0033(16)
O9 0.006(2) 0.016(2) 0.0044(17) 0.0024(18) 0.0014(17) 0.0001(16)
O11 0.028(5) 0.043(4) 0.075(5) 0.033(4) 0.010(4) 0.007(3)
K1 0.0076(7) 0.0122(6) 0.0112(6) -0.0021(5) -0.0001(6) 0.0018(5)
K2 0.0063(9) 0.0083(9) 0.018(2) -0.0019(10) -0.0002(11) 0.0002(6)
K2A 0.009(3) 0.011(3) 0.045(9) -0.004(3) -0.003(4) -0.002(2)
Fe01 0.0045(4) 0.0065(4) 0.0071(4) -0.0012(3) 0.0005(4) -0.0008(3)
loop_
_atom_type_symbol
_atom_type_description
_atom_type_scat_dispersion_real
_atom_type_scat_dispersion_imag
_atom_type_scat_source
C C 0.0033 0.0016 'International Tables Vol C Tables 4.2.6.8 and 6.1.1.4'
H H 0.0000 0.0000 'International Tables Vol C Tables 4.2.6.8 and 6.1.1.4'
N N 0.0061 0.0033 'International Tables Vol C Tables 4.2.6.8 and 6.1.1.4'
O O 0.0106 0.0060 'International Tables Vol C Tables 4.2.6.8 and 6.1.1.4'
K K 0.2009 0.2494 'International Tables Vol C Tables 4.2.6.8 and 6.1.1.4'
Fe Fe 0.3463 0.8444 'International Tables Vol C Tables 4.2.6.8 and 6.1.1.4'
loop_
_geom_angle_atom_site_label_1
_geom_angle_atom_site_label_2
_geom_angle_atom_site_label_3
_geom_angle
_geom_angle_site_symmetry_1
_geom_angle_site_symmetry_3
O5 C1 O1 125.7(5) . .
O5 C1 C6 119.0(5) . .
O1 C1 C6 115.3(5) . .
O6 C2 O2 123.2(5) . .
O6 C2 C6 118.1(4) . .
O2 C2 C6 118.6(4) . .
O6 C2 K1 89.2(3) . 2_665
O2 C2 K1 66.7(3) . 2_665
C6 C2 K1 113.7(3) . 2_665
O7 C3 O3 123.8(5) . .
O7 C3 C12 117.6(4) . .
O3 C3 C12 118.6(4) . .
O8 C4 O4 123.1(5) . .
O8 C4 C12 119.6(4) . .
O4 C4 C12 117.3(4) . .
O8 C4 K1 68.3(3) . .
O4 C4 K1 55.0(2) . .
C12 C4 K1 171.4(3) . .
C6 C5 H5A 109.5 . .
C6 C5 H5B 109.5 . .
H5A C5 H5B 109.5 . .
C6 C5 H5C 109.5 . .
H5A C5 H5C 109.5 . .
H5B C5 H5C 109.5 . .
C5 C6 C7 111.3(4) . .
C5 C6 C2 109.9(4) . .
C7 C6 C2 112.8(4) . .
C5 C6 C1 109.6(4) . .
C7 C6 C1 105.8(4) . .
C2 C6 C1 107.2(4) . .
N1 C7 C8 120.2(4) . .
N1 C7 C6 117.0(4) . .
C8 C7 C6 122.7(4) . .
C9 C8 C7 118.8(5) . .
C9 C8 H8 120.6 . .
C7 C8 H8 120.6 . .
C10 C9 C8 120.4(4) . .
C10 C9 H9 119.8 . .
C8 C9 H9 119.8 . .
C9 C10 C11 119.0(4) . .
C9 C10 H10 120.5 . .
C11 C10 H10 120.5 . .
N1 C11 C10 120.0(4) . .
N1 C11 C12 117.6(4) . .
C10 C11 C12 122.4(4) . .
C13 C12 C11 111.5(4) . .
C13 C12 C4 109.0(4) . .
C11 C12 C4 109.5(4) . .
C13 C12 C3 109.3(4) . .
C11 C12 C3 108.2(4) . .
C4 C12 C3 109.3(4) . .
C12 C13 H13A 109.5 . .
C12 C13 H13B 109.5 . .
H13A C13 H13B 109.5 . .
C12 C13 H13C 109.5 . .
H13A C13 H13C 109.5 . .
H13B C13 H13C 109.5 . .
C11 N1 C7 121.5(4) . .
C11 N1 Fe01 118.6(3) . .
C7 N1 Fe01 119.9(3) . .
C1 O1 Fe01 119.5(3) . .
C1 O1 K1 113.4(3) . 2_665
Fe01 O1 K1 89.59(12) . 2_665
C2 O2 Fe01 121.0(3) . .
C2 O2 K1 141.4(3) . 1_455
Fe01 O2 K1 94.58(12) . 1_455
C2 O2 K1 91.0(3) . 2_665
Fe01 O2 K1 89.41(12) . 2_665
K1 O2 K1 104.86(11) 1_455 2_665
C3 O3 Fe01 120.0(3) . .
C3 O3 K1 135.6(3) . 1_455
Fe01 O3 K1 95.61(12) . 1_455
C4 O4 Fe01 122.2(3) . .
C4 O4 K1 102.2(3) . .
Fe01 O4 K1 135.33(15) . .
C1 O5 K2 152.8(4) . 1_545
C1 O5 K2A 136.7(4) . 1_545
C2 O6 K2 156.8(4) . 1_445
C2 O6 K2A 163.4(4) . 1_445
C3 O7 K2 147.7(3) . 1_455
C3 O7 K2A 139.8(4) . 1_455
C4 O8 K2A 147.1(4) . .
C4 O8 K2 150.5(4) . .
C4 O8 K1 89.5(3) . .
K2A O8 K1 99.9(3) . .
K2 O8 K1 114.02(14) . .
Fe01 O9 K1 92.19(12) . 2_665
Fe01 O9 H9X 129.6 . .
K1 O9 H9X 109.6 2_665 .
Fe01 O9 H9Y 126.7 . .
K1 O9 H9Y 103.0 2_665 .
H9X O9 H9Y 92.8 . .
K1 O11A K2A 99.0(5) . .
K1 O11A K2A 113.0(6) . 2_775
K2A O11A K2A 131.8(6) . 2_775
O11A K1 O4 107.2(4) . .
O11 K1 O4 88.29(16) . .
O11A K1 O3 69.2(4) . 1_655
O11 K1 O3 95.33(19) . 1_655
O4 K1 O3 128.70(11) . 1_655
O11A K1 O2 131.9(4) . 1_655
O11 K1 O2 156.95(17) . 1_655
O4 K1 O2 113.64(10) . 1_655
O3 K1 O2 65.86(11) 1_655 1_655
O11A K1 O9 156.6(4) . 2_665
O11 K1 O9 134.32(19) . 2_665
O4 K1 O9 74.89(10) . 2_665
O3 K1 O9 128.42(11) 1_655 2_665
O2 K1 O9 62.56(10) 1_655 2_665
O11A K1 O1 96.2(4) . 2_665
O11 K1 O1 74.26(18) . 2_665
O4 K1 O1 78.10(10) . 2_665
O3 K1 O1 151.69(11) 1_655 2_665
O2 K1 O1 115.70(10) 1_655 2_665
O9 K1 O1 60.94(10) 2_665 2_665
O11A K1 O8 78.0(3) . .
O11 K1 O8 75.06(16) . .
O4 K1 O8 44.92(10) . .
O3 K1 O8 86.76(11) 1_655 .
O2 K1 O8 114.91(10) 1_655 .
O9 K1 O8 114.85(9) 2_665 .
O1 K1 O8 114.69(10) 2_665 .
O11A K1 O2 100.4(3) . 2_665
O11 K1 O2 98.14(16) . 2_665
O4 K1 O2 126.20(10) . 2_665
O3 K1 O2 103.94(10) 1_655 2_665
O2 K1 O2 75.14(11) 1_655 2_665
O9 K1 O2 62.74(9) 2_665 2_665
O1 K1 O2 53.40(9) 2_665 2_665
O8 K1 O2 167.97(11) . 2_665
O11A K1 C4 93.4(4) . .
O11 K1 C4 81.97(16) . .
O4 K1 C4 22.77(11) . .
O3 K1 C4 107.29(12) 1_655 .
O2 K1 C4 115.36(12) 1_655 .
O9 K1 C4 94.73(11) 2_665 .
O1 K1 C4 97.41(12) 2_665 .
O8 K1 C4 22.20(11) . .
O2 K1 C4 148.63(12) 2_665 .
O11A K1 C2 78.7(3) . 2_665
O11 K1 C2 76.40(17) . 2_665
O4 K1 C2 129.47(12) . 2_665
O3 K1 C2 100.82(12) 1_655 2_665
O2 K1 C2 93.51(12) 1_655 2_665
O9 K1 C2 82.30(10) 2_665 2_665
O1 K1 C2 51.48(11) 2_665 2_665
O8 K1 C2 151.03(12) . 2_665
O2 K1 C2 22.32(10) 2_665 2_665
C4 K1 C2 145.86(14) . 2_665
O11A K1 Fe01 97.3(4) . 1_655
O11 K1 Fe01 122.81(16) . 1_655
O4 K1 Fe01 139.60(9) . 1_655
O3 K1 Fe01 35.31(7) 1_655 1_655
O2 K1 Fe01 34.67(7) 1_655 1_655
O9 K1 Fe01 94.96(8) 2_665 1_655
O1 K1 Fe01 131.30(8) 2_665 1_655
O8 K1 Fe01 113.84(8) . 1_655
O2 K1 Fe01 78.17(7) 2_665 1_655
C4 K1 Fe01 128.09(10) . 1_655
C2 K1 Fe01 86.02(10) 2_665 1_655
O8 K2 O10 78.76(17) . .
O8 K2 O5 102.23(13) . 1_565
O10 K2 O5 72.80(15) . 1_565
O8 K2 O7 86.07(13) . 1_655
O10 K2 O7 107.7(2) . 1_655
O5 K2 O7 171.53(13) 1_565 1_655
O8 K2 O6 159.6(2) . 1_665
O10 K2 O6 84.82(17) . 1_665
O5 K2 O6 84.13(12) 1_565 1_665
O7 K2 O6 87.48(12) 1_655 1_665
O8 K2 K1 35.18(9) . .
O10 K2 K1 69.51(13) . .
O5 K2 K1 127.04(12) 1_565 .
O7 K2 K1 59.66(9) 1_655 .
O6 K2 K1 126.74(14) 1_665 .
O10 K2A O8 95.1(4) . .
O10 K2A O7 137.5(7) . 1_655
O8 K2A O7 86.4(2) . 1_655
O10 K2A O6 101.2(4) . 1_665
O8 K2A O6 162.1(7) . 1_665
O7 K2A O6 86.6(2) 1_655 1_665
O10 K2A O5 78.9(3) . 1_565
O8 K2A O5 96.9(3) . 1_565
O7 K2A O5 143.3(6) 1_655 1_565
O6 K2A O5 79.2(2) 1_665 1_565
O10 K2A O11A 64.9(6) . .
O8 K2A O11A 79.3(4) . .
O7 K2A O11A 73.8(4) 1_655 .
O6 K2A O11A 114.3(5) 1_665 .
O5 K2A O11A 142.9(6) 1_565 .
O10 K2A O11A 87.8(6) . 2_775
O8 K2A O11A 119.8(4) . 2_775
O7 K2A O11A 56.0(4) 1_655 2_775
O6 K2A O11A 68.7(3) 1_665 2_775
O5 K2A O11A 142.0(4) 1_565 2_775
O11A K2A O11A 48.2(6) . 2_775
O10 K2A K1 85.0(4) . .
O8 K2A K1 43.24(17) . .
O7 K2A K1 67.33(17) 1_655 .
O6 K2A K1 145.2(3) 1_665 .
O5 K2A K1 135.39(19) 1_565 .
O11A K2A K1 38.0(3) . .
O11A K2A K1 77.5(4) 2_775 .
O10 K2A K1 78.0(4) . 2_775
O8 K2A K1 148.4(4) . 2_775
O7 K2A K1 78.9(2) 1_655 2_775
O6 K2A K1 44.8(2) 1_665 2_775
O5 K2A K1 111.54(18) 1_565 2_775
O11A K2A K1 69.8(4) . 2_775
O11A K2A K1 30.5(3) 2_775 2_775
K1 K2A K1 105.2(3) . 2_775
O4 Fe01 O2 170.96(12) . .
O4 Fe01 O9 92.30(13) . .
O2 Fe01 O9 96.62(13) . .
O4 Fe01 O3 84.68(13) . .
O2 Fe01 O3 93.00(14) . .
O9 Fe01 O3 95.48(14) . .
O4 Fe01 N1 86.61(15) . .
O2 Fe01 N1 84.49(15) . .
O9 Fe01 N1 178.37(17) . .
O3 Fe01 N1 85.64(15) . .
O4 Fe01 O1 100.55(15) . .
O2 Fe01 O1 80.80(13) . .
O9 Fe01 O1 91.02(14) . .
O3 Fe01 O1 171.51(13) . .
N1 Fe01 O1 87.98(15) . .
O4 Fe01 K1 130.55(11) . 1_455
O2 Fe01 K1 50.75(10) . 1_455
O9 Fe01 K1 78.09(11) . 1_455
O3 Fe01 K1 49.08(10) . 1_455
N1 Fe01 K1 103.54(13) . 1_455
O1 Fe01 K1 127.66(10) . 1_455
O4 Fe01 K1 131.77(10) . 2_665
O2 Fe01 K1 56.18(9) . 2_665
O9 Fe01 K1 52.97(10) . 2_665
O3 Fe01 K1 125.77(10) . 2_665
N1 Fe01 K1 127.16(12) . 2_665
O1 Fe01 K1 55.02(10) . 2_665
K1 Fe01 K1 79.22(3) 1_455 2_665
loop_
_geom_bond_atom_site_label_1
_geom_bond_atom_site_label_2
_geom_bond_distance
_geom_bond_site_symmetry_2
C1 O5 1.225(6) .
C1 O1 1.288(6) .
C1 C6 1.578(7) .
C2 O6 1.239(6) .
C2 O2 1.264(6) .
C2 C6 1.567(7) .
C2 K1 3.328(5) 2_665
C3 O7 1.249(6) .
C3 O3 1.263(6) .
C3 C12 1.580(7) .
C4 O8 1.227(6) .
C4 O4 1.286(6) .
C4 C12 1.562(7) .
C4 K1 3.247(5) .
C5 C6 1.517(7) .
C5 H5A 0.9800 .
C5 H5B 0.9800 .
C5 H5C 0.9800 .
C6 C7 1.539(7) .
C7 N1 1.345(6) .
C7 C8 1.383(7) .
C8 C9 1.380(7) .
C8 H8 0.9500 .
C9 C10 1.369(7) .
C9 H9 0.9500 .
C10 C11 1.391(7) .
C10 H10 0.9500 .
C11 N1 1.342(6) .
C11 C12 1.540(7) .
C12 C13 1.533(7) .
C13 H13A 0.9800 .
C13 H13B 0.9800 .
C13 H13C 0.9800 .
N1 Fe01 2.127(4) .
O1 Fe01 2.131(4) .
O1 K1 3.015(4) 2_665
O2 Fe01 2.079(4) .
O2 K1 2.831(4) 1_455
O2 K1 3.057(3) 2_665
O3 Fe01 2.116(4) .
O3 K1 2.766(4) 1_455
O4 Fe01 2.052(3) .
O4 K1 2.722(4) .
O5 K2 2.692(4) 1_545
O5 K2A 2.941(10) 1_545
O6 K2 2.711(4) 1_445
O6 K2A 2.733(7) 1_445
O7 K2 2.698(4) 1_455
O7 K2A 2.722(8) 1_455
O8 K2A 2.639(7) .
O8 K2 2.681(4) .
O8 K1 3.017(4) .
O9 Fe01 2.103(3) .
O9 K1 2.940(4) 2_665
O9 H9X 0.8396 .
O9 H9Y 0.8772 .
O10 K2A 1.934(15) .
O10 K2 2.689(7) .
O11 K1 2.718(6) .
O11A K1 2.701(16) .
O11A K2A 3.00(2) .
O11A K2A 3.17(2) 2_775
K1 O3 2.766(4) 1_655
K1 O2 2.831(4) 1_655
K1 O9 2.940(4) 2_665
K1 O1 3.015(4) 2_665
K1 O2 3.057(3) 2_665
K1 C2 3.328(5) 2_665
K1 Fe01 3.6433(15) 1_655
K2 O5 2.691(4) 1_565
K2 O7 2.698(4) 1_655
K2 O6 2.711(4) 1_665
K2A O7 2.722(8) 1_655
K2A O6 2.733(7) 1_665
K2A O5 2.941(10) 1_565
K2A O11A 3.17(2) 2_775
K2A K1 4.903(10) 2_775
Fe01 K1 3.6433(15) 1_455
Fe01 K1 3.6795(14) 2_665
