#------------------------------------------------------------------------------
#$Date: 2019-11-23 10:51:24 +0200 (Sat, 23 Nov 2019) $
#$Revision: 232948 $
#$URL: file:///home/coder/svn-repositories/cod/cif/4/34/84/4348455.cif $
#------------------------------------------------------------------------------
#
# This file is available in the Crystallography Open Database (COD),
# http://www.crystallography.net/
#
# All data on this site have been placed in the public domain by the
# contributors.
#
data_4348455
loop_
_publ_author_name
'Ogura, Satomi'
'Idobata, Yuki'
'Zhou, Biao'
'Kobayashi, Akiko'
'Takagi, Rina'
'Miyagawa, Kazuya'
'Kanoda, Kazushi'
'Kasai, Hidetaka'
'Nishibori, Eiji'
'Satoko, Chikatoshi'
'Delley, Bernard'
_publ_section_title
;
 Antiferromagnetic Ordering in the Single-Component Molecular Conductor
 [Pd(tmdt)2].
;
_journal_issue                   15
_journal_name_full               'Inorganic chemistry'
_journal_page_first              7709
_journal_page_last               7716
_journal_paper_doi               10.1021/acs.inorgchem.6b01166
_journal_volume                  55
_journal_year                    2016
_chemical_formula_sum            'C18 H12 Pd S12'
_chemical_formula_weight         719.40
_space_group_crystal_system      triclinic
_space_group_IT_number           2
_space_group_name_Hall           '-P 1'
_space_group_name_H-M_alt        'P -1'
_atom_sites_solution_hydrogens   geom
_audit_creation_method           SHELXL-2013
_cell_angle_alpha                90.468(6)
_cell_angle_beta                 96.332(7)
_cell_angle_gamma                103.677(7)
_cell_formula_units_Z            1
_cell_length_a                   6.3704(6)
_cell_length_b                   7.3181(7)
_cell_length_c                   12.0808(10)
_cell_measurement_reflns_used    3933
_cell_measurement_temperature    200(2)
_cell_measurement_theta_max      18.551
_cell_measurement_theta_min      0.987
_cell_volume                     543.55(9)
_computing_structure_refinement  'SHELXL-2013 (Sheldrick, 2013)'
_diffrn_ambient_temperature      200(2)
_diffrn_detector_area_resol_mean 10
_diffrn_measured_fraction_theta_full 1.000
_diffrn_measured_fraction_theta_max 0.956
_diffrn_measurement_device_type  cylindrical_IP_camera_at_SPring-8_BL02B1
_diffrn_measurement_method       'phi or omega oscillation scans'
_diffrn_radiation_type           synchrotron
_diffrn_radiation_wavelength     0.4136
_diffrn_reflns_av_unetI/netI     0.1018
_diffrn_reflns_Laue_measured_fraction_full 1.000
_diffrn_reflns_Laue_measured_fraction_max 0.956
_diffrn_reflns_limit_h_max       9
_diffrn_reflns_limit_h_min       -9
_diffrn_reflns_limit_k_max       11
_diffrn_reflns_limit_k_min       -11
_diffrn_reflns_limit_l_max       18
_diffrn_reflns_limit_l_min       -18
_diffrn_reflns_number            14236
_diffrn_reflns_point_group_measured_fraction_full 1.000
_diffrn_reflns_point_group_measured_fraction_max 0.956
_diffrn_reflns_theta_full        14.369
_diffrn_reflns_theta_max         18.551
_diffrn_reflns_theta_min         0.987
_diffrn_source                   'bending magnet'
_exptl_absorpt_coefficient_mu    1.393
_exptl_crystal_colour            black
_exptl_crystal_density_diffrn    2.198
_exptl_crystal_description       block
_exptl_crystal_F_000             358
_exptl_crystal_size_max          0.05
_exptl_crystal_size_mid          0.03
_exptl_crystal_size_min          0.02
_refine_diff_density_max         2.743
_refine_diff_density_min         -1.193
_refine_diff_density_rms         0.290
_refine_ls_extinction_method     none
_refine_ls_goodness_of_fit_ref   1.040
_refine_ls_hydrogen_treatment    constr
_refine_ls_matrix_type           full
_refine_ls_number_parameters     98
_refine_ls_number_reflns         14236
_refine_ls_number_restraints     0
_refine_ls_restrained_S_all      1.040
_refine_ls_R_factor_all          0.1095
_refine_ls_R_factor_gt           0.0690
_refine_ls_shift/su_max          0.000
_refine_ls_shift/su_mean         0.000
_refine_ls_structure_factor_coef Fsqd
_refine_ls_weighting_details
'w=1/[\s^2^(Fo^2^)+(0.1218P)^2^+0.5152P] where P=(Fo^2^+2Fc^2^)/3'
_refine_ls_weighting_scheme      calc
_refine_ls_wR_factor_gt          0.1810
_refine_ls_wR_factor_ref         0.2165
_reflns_Friedel_coverage         0.000
_reflns_number_gt                10067
_reflns_number_total             14236
_reflns_threshold_expression     'I > 2\s(I)'
_cod_data_source_file            ic6b01166_si_007.cif
_cod_data_source_block           shelx
_cod_database_code               4348455
_shelx_space_group_comment
;
The symmetry employed for this shelxl refinement is uniquely defined
by the following loop, which should always be used as a source of
symmetry information in preference to the above space-group names.
They are only intended as comments.
;
_shelxl_version_number           2013-4
_shelx_res_file
;

TITL    shelx in P -1
CELL   0.41360    6.3704    7.3181   12.0808   90.468   96.332  103.677
ZERR     1        0.0006    0.0007    0.0010    0.006    0.007    0.007
LATT  1
SFAC    C   H   S   PD
DISP   C  -0.0001  0.0005  5.17
DISP   H   0.0000  0.0000  0.64
DISP   S   0.0444  0.0408  111.61
DISP   PD -0.5291  2.5715  6133.57
UNIT    18  12  12   1
MERG    0
L.S.    20
TEMP    -73
FMAP    2
ACTA
PLAN    25
SHEL    1000. 0.65
WGHT    0.121800    0.515200
BASF   0.57416
FVAR       0.33172
PD01  4   -0.500000    0.500000    0.000000    10.50000    0.01604    0.02677 =
         0.01068   -0.00386   -0.00537    0.00305
S002  3   -0.239940    0.189273    0.419148    11.00000    0.01739    0.03906 =
         0.01523   -0.00562   -0.00478    0.00772
S003  3   -0.847618    0.443207   -0.090888    11.00000    0.01745    0.03391 =
         0.01311   -0.00581   -0.00449    0.00573
S004  3    0.024077    0.673167    0.328960    11.00000    0.01657    0.03736 =
         0.01395   -0.00648   -0.00498    0.00596
S005  3    0.195042    0.187189    0.358284    11.00000    0.01663    0.04081 =
         0.01371   -0.00613   -0.00415    0.00400
S006  3   -0.629004    0.560440    0.163255    11.00000    0.01609    0.03689 =
         0.01362   -0.00502   -0.00473    0.00375
S007  3   -0.404512    0.676288    0.391630    11.00000    0.01600    0.03924 =
         0.01312   -0.00589   -0.00430    0.00521
C010  1    0.037841    0.225150    0.461360    11.00000    0.02197
C011  1   -0.021362    0.131992    0.254505    11.00000    0.02284
C012  1   -0.128209    0.716505    0.432304    11.00000    0.01863
C013  1   -0.219054    0.132871    0.281437    11.00000    0.02276
C014  1   -0.392693    0.615844    0.253761    11.00000    0.02187
C015  1   -0.264650    0.046594    0.089644    11.00000    0.02707
AFIX  23
H01A  2   -0.282731    0.132488    0.028329    11.00000   -1.20000
H01B  2   -0.320942   -0.084489    0.060047    11.00000   -1.20000
AFIX   0
C016  1   -0.393432    0.083790    0.185738    11.00000    0.02528
AFIX  23
H01C  2   -0.463591    0.189232    0.169441    11.00000   -1.20000
H01D  2   -0.505636   -0.029812    0.199977    11.00000   -1.20000
AFIX   0
C017  1   -0.191696    0.613483    0.224122    11.00000    0.01996
C018  1   -0.021391    0.079361    0.134377    11.00000    0.02623
AFIX  23
H01E  2    0.031373   -0.036374    0.126384    11.00000   -1.20000
H01F  2    0.069277    0.182408    0.095686    11.00000   -1.20000

AFIX   0
HKLF      5

REM     shelx in P -1
REM R1 =  0.0690 for   10067 Fo > 4sig(Fo)  and  0.1095 for all   14236 data
REM     98 parameters refined using      0 restraints

END

WGHT      0.1243      0.3544

REM Highest difference peak  2.743,  deepest hole -1.193,  1-sigma level  0.290
Q1    1  -0.5270  0.3870  0.0184  11.00000  0.05    2.74
Q2    1  -0.5944  0.6621  0.1351  11.00000  0.05    1.58
Q3    1  -0.2020  0.1934  0.2687  11.00000  0.05    1.52
Q4    1  -0.8468  0.5469 -0.1009  11.00000  0.05    1.40
Q5    1  -0.2308  0.0751  0.2890  11.00000  0.05    1.37
Q6    1  -0.3086  0.6192  0.2382  11.00000  0.05    1.24
Q7    1  -0.3876  0.7985  0.3723  11.00000  0.05    1.23
Q8    1   0.0523  0.2741  0.4537  11.00000  0.05    1.18
Q9    1   0.0311  0.1037  0.1207  11.00000  0.05    1.13
Q10   1  -0.0070  0.5610  0.3424  11.00000  0.05    1.06
Q11   1  -0.1956  0.6707  0.2257  11.00000  0.05    1.06
Q12   1  -0.4032  0.5518  0.2664  11.00000  0.05    1.05
Q13   1   0.0263  0.7839  0.3102  11.00000  0.05    1.03
Q14   1  -0.1646  0.2988  0.3864  11.00000  0.05    1.02
Q15   1  -0.3774  0.1405  0.1697  11.00000  0.05    1.00
Q16   1  -0.3770  0.6816  0.2435  11.00000  0.05    0.97
Q17   1  -0.0249  0.0878  0.2594  11.00000  0.05    0.95
Q18   1  -0.3176  0.0516  0.1073  11.00000  0.05    0.94
Q19   1  -0.7933  0.5198  0.1824  11.00000  0.05    0.94
Q20   1  -0.6711  0.4391  0.1896  11.00000  0.05    0.93
Q21   1  -0.0356  0.2112  0.2404  11.00000  0.05    0.93
Q22   1  -0.2391  0.5369  0.2384  11.00000  0.05    0.92
Q23   1  -0.2671  0.0878  0.4441  11.00000  0.05    0.92
Q24   1  -0.3254  0.0978 -0.0224  11.00000  0.05    0.90
Q25   1  -0.0014  0.0405  0.1391  11.00000  0.05    0.90
;
_shelx_res_checksum              45954
_shelx_hkl_file
;
   0   0   1    4.01    0.68   1
   0   0  -1    3.28    0.40   1
   0   0   2    8.74    1.41   1
   0   0  -2    8.02    1.44   1
   0   0   3   91.27    3.55   1
   0   0  -3   86.59    2.57   1
   0   0   4   68.19    3.31   1
   0   0  -4   71.58    3.33   1
   0   0   5  124.13    4.75   1
   0   0  -5  118.25    4.31   1
   0   0   6    5.72    1.12   1
   0   0  -6    7.01    1.70   1
   0   0   7   90.80    4.61  -1
   0  -2  -6   90.80    4.61   2
   0   0  -7   87.68    4.39  -1
   0   2   6   87.68    4.39   2
   0   0   8   20.67    1.58   1
   0   0  -8   24.54    2.34   1
   0   0   9   24.73    2.58   1
   0   0  -9   28.33    2.36   1
   0   0  10   18.38    2.50   1
   0   0 -10   18.81    1.47   1
   0   0  11   51.91    3.53   1
   0   0 -11   46.41    3.12   1
   0   0  12  141.53    6.53   1
   0   0 -12  131.70    4.88   1
   0   0  13   58.14    5.51  -1
   0  -4 -11   58.14    5.51   2
   0   0  14   12.84    3.53  -1
   0  -4 -12   12.84    3.53   2
   0   0  15    3.60    2.65   1
   0   0  16   -4.78    2.54   1
   0   0  16    2.65    2.84   1
   0   0  17    3.69    1.57   1
   0   0  17    1.27    1.84   1
   0   0  18    9.16    3.08   1
   0   0  18    5.18    3.45   1
   0   0  19   10.27    2.00   1
   0   0  19   10.88    3.63   1
   0  -1  19   32.55    3.74   1
   0  -1  19   22.61    4.08   1
   0  -1  18   10.83    2.96   1
   0  -1  18    7.95    3.44   1
   0  -1  17    6.64    3.09   1
   0  -1  17   13.00    3.32   1
   0  -1  16   23.16    3.43   1
   0  -1  16   21.53    3.59   1
   0  -1  15    9.52    5.22  -1
   0  -5 -12    9.52    5.22   2
   0  -1  15    6.17    5.58  -1
   0  -5 -12    6.17    5.58   2
   0  -1  14   34.42    4.98  -1
   0  -5 -11   34.42    4.98   2
   0  -1  14   30.47    6.17  -1
   0  -5 -11   30.47    6.17   2
   0  -1  13  153.32    6.10   1
   0  -1  13  155.59    8.01   1
   0   1 -12    8.77    2.39   1
   0  -1  12   10.40    2.62   1
   0  -1  12   12.90    1.70   1
   0   1 -11   23.64    2.80   1
   0  -1  11   30.42    3.18   1
   0  -1  11   27.96    3.05   1
   0   1 -10   49.23    3.39   1
   0  -1  10   49.99    3.43   1
   0  -1  10   41.91    3.36   1
   0   1  -9    4.26    1.23   1
   0  -1   9    0.89    2.16   1
   0  -1   9    5.27    2.13   1
   0   1  -8   14.36    1.45   1
   0  -1   8   16.56    2.62   1
   0  -1   8   31.72    4.59  -1
   0  -3  -6   31.72    4.59   2
   0   1  -7   25.24    1.65   1
   0  -1   7   83.32    6.42  -1
   0  -3  -5   83.32    6.42   2
   0  -1   7   81.24    5.96  -1
   0  -3  -5   81.24    5.96   2
   0   1  -6   76.66    3.84   1
   0  -1   6   70.34    3.82   1
   0  -1   6   80.61    3.84   1
   0   1  -5   14.63    2.15   1
   0  -1   5   12.42    2.33   1
   0  -1   5   12.95    2.03   1
   0   1  -4   63.47    3.65   1
   0   1  -4   64.80    3.06   1
   0  -1   4   61.53    3.45   1
   0  -1   4   61.00    3.28   1
   0   1  -3   26.34    1.72   1
   0   1  -3   27.86    2.11   1
   0  -1   3   29.78    2.69   1
   0  -1   3   28.08    2.19   1
   0   1  -2   87.38    3.94   1
   0   1  -2   94.55    3.35   1
   0  -1   2   91.34    4.09   1
   0  -1   2   92.13    3.30   1
   0   1  -1  212.87    5.81   1
   0   1  -1  215.92    6.35   1
   0  -1   1  223.78    7.12   1
   0  -1   1  217.85    6.07   1
   0   1   0  210.62    6.07   1
   0   1   0  225.12    6.27   1
   0  -1   0  205.04    5.34   1
   0  -1   0  218.63    5.94   1
   0   1   1  128.71    3.82   1
   0  -1  -1  131.54    4.30   1
   0   1   2   27.09    1.36   1
   0  -1  -2   31.93    2.22   1
   0   1   3   71.52    3.13   1
   0  -1  -3   72.66    3.08   1
   0   1   4    2.10    1.62   1
   0  -1  -4    4.48    1.59   1
   0  -1  -5   95.69    3.77   1
   0   1   6   89.01    5.36  -1
   0  -1  -6   89.01    5.36   2
   0  -1  -6   97.30    5.10  -1
   0   1   6   97.30    5.10   2
   0  -1  -7   21.83    1.32   1
   0   1   7   49.89    4.12  -1
   0  -1  -7   49.89    4.12   2
   0   1   8   29.51    2.56   1
   0  -1  -8   25.41    2.16   1
   0   1   9   54.80    2.35   1
   0  -1  -9   56.29    3.02   1
   0   1  10   29.28    2.82   1
   0  -1 -10   29.38    2.49   1
   0   1  11   13.26    2.50   1
   0  -1 -11   16.09    2.15   1
   0   1  12  210.80    8.98   1
   0  -1 -12  204.56    8.24   1
   0   1  13   42.27    4.23  -1
   0  -3 -12   42.27    4.23   2
   0  -1 -13   34.42    3.66  -1
   0   3  12   34.42    3.66   2
   0   1  14   14.63    3.92  -1
   0  -3 -13   14.63    3.92   2
   0   1  15   33.62    3.57   1
   0   1  16   13.94    3.08   1
   0   1  17   15.81    2.99   1
   0   1  18   48.94    4.56   1
   0   1  19    1.03    1.65   1
   0  -2  19    4.82    2.78   1
   0  -2  19    1.61    1.69   1
   0  -2  18    7.44    2.95   1
   0  -2  18    4.23    2.83   1
   0  -2  17   -1.60    2.77   1
   0  -2  17   -3.51    2.62   1
   0  -2  16    3.86    1.75   1
   0  -2  16    9.89    2.79   1
   0  -2  15   10.09    4.18  -1
   0  -6 -11   10.09    4.18   2
   0  -2  15   11.43    4.07  -1
   0  -6 -11   11.43    4.07   2
   0  -2  14   10.05    3.03   1
   0  -2  14    9.13    2.87   1
   0  -2  13   93.78    5.75   1
   0  -2  13  101.66    5.84   1
   0  -2  12   32.57    3.54   1
   0  -2  12   30.10    3.44   1
   0   2 -11   17.47    2.75   1
   0  -2  11   19.12    2.85   1
   0  -2  11   18.94    2.79   1
   0   2 -10   25.49    2.92   1
   0  -2  10   20.75    3.10   1
   0  -2  10   24.96    2.81   1
   0   2  -9    4.22    2.07   1
   0  -2   9    2.83    1.36   1
   0  -2   9    2.30    1.98   1
   0   2  -8   51.30    3.97  -1
   0   4   5   51.30    3.97   2
   0  -2   8   45.89    4.36  -1
   0  -4  -5   45.89    4.36   2
   0  -2   8   47.01    3.88  -1
   0  -4  -5   47.01    3.88   2
   0   2  -7    2.72    2.23   1
   0   2  -7    6.27    1.56   1
   0  -2   7    4.97    1.36   1
   0  -2   7    4.91    1.87   1
   0   2  -6   63.61    3.79   1
   0   2  -6   60.82    2.90   1
   0  -2   6   55.30    3.76   1
   0  -2   6   66.05    2.53   1
   0   2  -5    2.95    1.97   1
   0   2  -5    7.23    1.62   1
   0  -2   5    5.26    1.42   1
   0  -2   5    3.96    1.70   1
   0   2  -4   60.17    3.49   1
   0   2  -4   57.34    2.81   1
   0  -2   4   51.08    3.74   1
   0  -2   4   57.04    3.00   1
   0   2  -3   18.42    2.57   1
   0   2  -3   17.33    1.23   1
   0  -2   3   15.23    2.76   1
   0  -2   3   13.06    2.06   1
   0   2  -2   -0.36    2.09   1
   0   2  -2    0.69    1.56   1
   0  -2   2    2.63    1.30   1
   0  -2   2    2.07    1.59   1
   0   2  -1 7461.25  846.26  -1
   0   2  -1 7461.25  846.26   2
   0   2  -1 7279.77  836.01  -1
   0   2  -1 7279.77  836.01   2
   0  -2   1 8709.85  953.22  -1
   0  -2   1 8709.85  953.22   2
   0   2   0    8.27    1.24   1
   0   2   0    7.40    1.09   1
   0  -2   0    6.75    2.36   1
   0  -2   0    9.00    1.89   1
   0   2   1    2.00    1.11   1
   0  -2  -1    4.61    1.65   1
   0   2   2  106.52    4.48   1
   0   2   3  117.20    4.53   1
   0  -2  -3  124.95    4.82   1
   0   2   4   98.68    4.24   1
   0  -2  -4  121.59    4.47   1
   0   2   5   10.76    1.21   1
   0  -2  -5   12.54    1.84   1
   0   2   6   83.16    4.22  -1
   0   0  -7   83.16    4.22   2
   0  -2  -6   83.66    4.03  -1
   0   0   7   83.66    4.03   2
   0   2   7   64.47    3.47   1
   0  -2  -7   65.26    3.07   1
   0   2   8   23.44    2.41   1
   0  -2  -8   27.89    2.10   1
   0   2   9   17.82    2.40   1
   0  -2  -9   20.93    2.20   1
   0   2  10   54.78    2.46   1
   0  -2 -10   57.72    3.25   1
   0   2  11  145.19    6.29   1
   0  -2 -11  148.96    6.09   1
   0   2  12   58.71    3.78   1
   0  -2 -12   68.71    5.26  -1
   0   2  12   68.71    5.26   2
   0   2  13   16.88    3.10  -1
   0  -2 -13   16.88    3.10   2
   0  -2 -13   11.81    2.58  -1
   0   2  13   11.81    2.58   2
   0   2  14    7.01    3.98  -1
   0  -2 -14    7.01    3.98   2
   0   2  15    3.63    1.55   1
   0   2  16    0.90    2.46   1
   0   2  17    2.70    2.50   1
   0   2  18   14.88    3.09   1
   0   2  19   12.66    4.14  -1
   0  -4 -18   12.66    4.14   2
   0  -3  19   13.26    3.35   1
   0  -3  19    8.19    2.92   1
   0  -3  18    4.78    3.02   1
   0  -3  18    4.48    2.87   1
   0  -3  17    7.88    3.25   1
   0  -3  17    9.37    2.05   1
   0  -3  16    1.41    1.60   1
   0  -3  16    5.02    4.11  -1
   0  -7 -11    5.02    4.11   2
   0  -3  15   15.95    4.75  -1
   0  -7 -10   15.95    4.75   2
   0  -3  15   16.84    5.51  -1
   0  -7 -10   16.84    5.51   2
   0  -3  14   91.16    4.57   1
   0  -3  14   89.74    5.89   1
   0  -3  13    5.63    1.80   1
   0  -3  13    4.56    2.49   1
   0  -3  12   23.66    3.34   1
   0  -3  12   20.92    3.09   1
   0  -3  11   31.89    3.52   1
   0  -3  11   32.61    3.31   1
   0   3 -10   -2.75    1.98   1
   0  -3  10    0.73    2.50   1
   0   3  -9   12.26    2.60   1
   0   3  -9    5.02    1.89   1
   0  -3   9   10.12    1.76   1
   0  -3   9    9.94    2.22   1
   0   3  -8   48.27    5.13  -1
   0   5   4   48.27    5.13   2
   0   3  -8   45.34    4.18  -1
   0   5   4   45.34    4.18   2
   0  -3   8   50.25    5.65  -1
   0  -5  -4   50.25    5.65   2
   0  -3   8   48.94    5.19  -1
   0  -5  -4   48.94    5.19   2
   0   3  -7   36.18    3.29   1
   0   3  -7   43.70    2.78   1
   0  -3   7   48.17    3.62   1
   0  -3   7   39.87    2.03   1
   0   3  -6   20.89    2.57   1
   0   3  -6   19.37    2.07   1
   0  -3   6   19.75    2.92   1
   0  -3   6   17.75    2.07   1
   0   3  -5   31.51    2.99   1
   0   3  -5   35.26    2.45   1
   0  -3   5   30.40    3.23   1
   0  -3   5   30.13    2.51   1
   0   3  -4   17.22    2.52   1
   0   3  -4   17.76    1.97   1
   0  -3   4   18.23    1.87   1
   0  -3   4   17.78    2.04   1
   0   3  -3   43.55    3.24   1
   0   3  -3   42.57    2.66   1
   0  -3   3   45.62    3.68   1
   0  -3   3   41.47    2.50   1
   0   3  -2  128.54    5.74   1
   0   3  -2  122.83    4.60   1
   0  -3   2  120.38    5.60   1
   0  -3   2  113.61    3.67   1
   0   3  -1  133.77    4.52   1
   0   3  -1  145.78    5.46   1
   0  -3   1  138.59    6.22   1
   0  -3   1  137.34    5.27   1
   0   3   0   88.72    4.28   1
   0   3   0  101.03    4.19   1
   0  -3   0   98.11    3.70   1
   0  -3   0   98.06    3.50   1
   0   3   1   17.33    2.38   1
   0   3   1   11.86    1.35   1
   0   3   1   13.94    2.10   1
   0   3   2   35.58    2.83   1
   0  -3  -2   34.28    2.48   1
   0   3   3    1.94    1.91   1
   0  -3  -3    3.24    1.83   1
   0   3   4   53.59    3.27   1
   0  -3  -4   56.12    3.05   1
   0   3   5   41.28    2.06   1
   0  -3  -5   82.61    5.69  -1
   0  -1   7   82.61    5.69   2
   0   3   6   26.53    4.48  -1
   0   1  -8   26.53    4.48   2
   0  -3  -6   34.34    4.21  -1
   0  -1   8   34.34    4.21   2
   0   3   7   53.21    3.13   1
   0  -3  -7   54.67    3.11   1
   0   3   8   47.74    3.02   1
   0  -3  -8   39.73    2.68   1
   0   3   9   17.08    1.56   1
   0  -3  -9   17.31    2.03   1
   0   3  10   16.29    2.61   1
   0  -3 -10   14.89    2.16   1
   0   3  11  148.31    5.24   1
   0  -3 -11  139.02    6.06   1
   0   3  12   33.17    3.86  -1
   0  -1 -13   33.17    3.86   2
   0  -3 -12   30.02    3.23  -1
   0   1  13   30.02    3.23   2
   0   3  13   12.13    4.32  -1
   0  -1 -14   12.13    4.32   2
   0   3  14   25.88    3.07   1
   0   3  15   20.79    3.14   1
   0   3  16   10.85    2.60   1
   0   3  17   68.66    4.81   1
   0   3  18    1.74    3.88  -1
   0  -3 -18    1.74    3.88   2
   0   3  19   79.31    6.13  -1
   0  -3 -19   79.31    6.13   2
   0  -4  19    0.12    2.92   1
   0  -4  19    2.29    2.58   1
   0  -4  18    2.99    1.88   1
   0  -4  18    2.53    2.67   1
   0  -4  17    6.81    1.91   1
   0  -4  17   -0.77    2.57   1
   0  -4  16    2.82    2.89  -1
   0  -8 -10    2.82    2.89   2
   0  -4  16    8.61    4.08  -1
   0  -8 -10    8.61    4.08   2
   0  -4  15    1.62    1.86   1
   0  -4  15    5.14    1.61   1
   0  -4  14   47.45    3.29   1
   0  -4  14   49.39    4.02   1
   0  -4  13   17.83    3.58   1
   0  -4  13   27.70    5.75  -1
   0  -7  -8   27.70    5.75   2
   0  -4  12    8.17    3.19   1
   0  -4  12   32.00    5.82  -1
   0  -7  -6   32.00    5.82   2
   0   4 -11   11.50    2.24   1
   0  -4  11   19.84    3.12   1
   0  -4  11   12.10    2.59   1
   0   4 -10    0.59    1.74   1
   0  -4  10   -0.21    1.57   1
   0  -4  10   -0.14    1.91   1
   0   4  -9   25.26    3.50  -1
   0   6   4   25.26    3.50   2
   0  -4   9   22.33    4.57  -1
   0  -6  -4   22.33    4.57   2
   0  -4   9   24.47    3.73  -1
   0  -6  -4   24.47    3.73   2
   0   4  -8    2.26    1.37   1
   0   4  -8    1.51    1.79   1
   0  -4   8    2.99    2.63   1
   0  -4   8    5.29    1.92   1
   0   4  -7   23.68    2.90   1
   0  -4   7   27.58    2.41   1
   0  -4   7   23.73    2.61   1
   0   4  -6    4.46    1.98   1
   0   4  -6    1.01    1.03   1
   0  -4   6   -0.32    1.59   1
   0  -4   6    3.32    1.66   1
   0   4  -5   22.77    2.87   1
   0   4  -5   22.33    2.19   1
   0  -4   5   19.44    2.10   1
   0  -4   5   22.39    2.41   1
   0   4  -4   12.83    1.57   1
   0   4  -4   15.82    1.90   1
   0  -4   4   15.17    3.01   1
   0  -4   4   12.43    2.13   1
   0   4  -3    1.61    1.27   1
   0   4  -3    0.64    1.54   1
   0  -4   3    1.54    1.36   1
   0  -4   3   -0.10    1.01   1
   0   4  -2 2008.77  124.23  -1
   0   4  -2 2008.77  124.23   2
   0   4  -2 2037.69  124.07  -1
   0   4  -2 2037.69  124.07   2
   0  -4   2 2057.91  129.11  -1
   0  -4   2 2057.91  129.11   2
   0   4  -1    9.17    1.39   1
   0   4  -1    7.99    1.18   1
   0  -4   1    5.52    2.46   1
   0  -4   1    7.14    1.30   1
   0   4   0    4.51    1.13   1
   0   4   0   -0.24    1.77   1
   0  -4   0   -2.63    1.46   1
   0  -4   0    1.23    1.32   1
   0   4   1   74.34    2.76   1
   0   4   1   69.30    2.77   1
   0   4   1   69.06    2.83   1
   0   4   2   70.24    2.85   1
   0   4   2   68.39    3.92   1
   0   4   2   71.24    3.02   1
   0   4   3   49.97    3.30   1
   0  -4  -3   53.21    3.02   1
   0   4   4   15.29    1.51   1
   0  -4  -4   10.97    1.32   1
   0   4   5   49.59    4.19  -1
   0   2  -8   49.59    4.19   2
   0   4   6   88.03    4.37   1
   0  -4  -6   78.68    3.04   1
   0   4   7   17.14    2.59   1
   0  -4  -7   18.92    2.14   1
   0   4   8   13.74    2.65   1
   0  -4  -8    6.44    1.99   1
   0   4   9   43.77    3.44   1
   0  -4  -9   39.34    2.98   1
   0   4  10  102.93    5.06   1
   0  -4 -10   78.21    4.05   1
   0   4  11   56.92    6.49  -1
   0   0 -13   56.92    6.49   2
   0  -4 -11   52.81    5.54  -1
   0   0  13   52.81    5.54   2
   0   4  12   13.00    3.37  -1
   0   0 -14   13.00    3.37   2
   0   4  14    1.35    2.27   1
   0   4  15    3.14    2.41   1
   0   4  16    5.59    2.52   1
   0   4  17   13.19    3.01   1
   0   4  18   12.70    4.65  -1
   0  -2 -19   12.70    4.65   2
   0  -5  18    8.34    3.33   1
   0  -5  18    9.37    2.89   1
   0  -5  17    3.27    2.91   1
   0  -5  17   -3.62    2.55   1
   0  -5  16   18.71    5.42  -1
   0  -9  -9   18.71    5.42   2
   0  -5  15   48.28    4.89   1
   0  -5  15   36.20    3.92   1
   0  -5  14    5.42    2.10   1
   0  -5  14    6.11    2.56   1
   0  -5  13    9.78    2.15   1
   0  -5  13   12.67    2.98   1
   0  -5  12   24.25    3.73   1
   0  -5  12   14.04    2.73   1
   0   5 -11    0.31    1.96   1
   0  -5  11   -3.24    2.95   1
   0  -5  11    2.69    2.01   1
   0   5 -10    7.00    2.11   1
   0  -5  10    2.31    1.97   1
   0  -5  10    2.80    2.19   1
   0   5  -9    4.07    2.10   1
   0  -5   9   24.21    5.87  -1
   0  -7  -3   24.21    5.87   2
   0  -5   9   25.49    5.03  -1
   0  -7  -3   25.49    5.03   2
   0   5  -8   17.67    2.66   1
   0  -5   8   21.47    3.80   1
   0  -5   8   17.89    2.55   1
   0   5  -7   19.29    1.60   1
   0  -5   7   21.94    2.38   1
   0  -5   7   16.29    2.54   1
   0  -5   6   19.41    2.22   1
   0   5  -6   57.37    5.52  -1
   0   6   1   57.37    5.52   2
   0   5  -5    7.92    2.48   1
   0   5  -5   12.69    1.99   1
   0  -5   5   10.61    1.89   1
   0  -5   5   15.13    2.40   1
   0   5  -4   14.03    1.64   1
   0   5  -4   14.16    2.11   1
   0  -5   4   11.28    1.91   1
   0  -5   4   12.21    2.23   1
   0   5  -3   47.46    3.73   1
   0   5  -3   46.48    2.27   1
   0  -5   3   55.61    4.18   1
   0  -5   3   42.97    3.34   1
   0   5  -2   66.67    4.12   1
   0   5  -2   60.46    3.29   1
   0  -5   2   55.09    2.90   1
   0  -5   2   58.65    3.58   1
   0   5  -1   43.11    2.33   1
   0   5  -1   45.61    3.05   1
   0  -5   1   50.10    3.85   1
   0  -5   1   43.62    3.25   1
   0   5   0   12.13    2.26   1
   0   5   0    8.47    2.52   1
   0   5   0    9.51    1.27   1
   0   5   1   12.12    1.51   1
   0   5   1   13.98    1.63   1
   0   5   1   10.63    1.33   1
   0   5   2   -3.79    1.91   1
   0   5   2   -0.06    1.25   1
   0   5   2    1.69    1.83   1
   0   5   3   18.46    1.88   1
   0   5   3   21.01    1.67   1
   0   5   3   21.13    1.95   1
   0   5   4   54.47    5.11  -1
   0   3  -8   54.47    5.11   2
   0  -5  -4   42.56    5.15  -1
   0  -3   8   42.56    5.15   2
   0   5   5    6.34    1.49   1
   0  -5  -5    7.94    2.03   1
   0   5   6   52.37    3.73   1
   0  -5  -6   49.21    3.41   1
   0   5   7   32.62    3.31   1
   0   5   8    3.55    2.30   1
   0  -5  -8    2.37    1.97   1
   0   5   9   15.10    1.96   1
   0  -5  -9    8.53    2.06   1
   0   5  10   77.64    4.87   1
   0   5  11   21.58    4.34  -1
   0   1 -14   21.58    4.34   2
   0   5  12    3.17    4.31  -1
   0   1 -15    3.17    4.31   2
   0   5  13   16.14    3.12   1
   0   5  14   10.23    2.72   1
   0   5  15   -0.55    2.48   1
   0   5  16   54.59    4.25   1
   0   5  17   -1.03    4.26  -1
   0  -1 -19   -1.03    4.26   2
   0  -6  17    2.46    5.35  -1
   0 -10  -9    2.46    5.35   2
   0  -6  17    4.70    3.93  -1
   0 -10  -9    4.70    3.93   2
   0  -6  16    2.99    3.31   1
   0  -6  16    2.71    2.42   1
   0  -6  15   19.96    4.17   1
   0  -6  15   15.05    3.05   1
   0  -6  14    6.80    3.76   1
   0  -6  14   15.34    4.91  -1
   0  -9  -7   15.34    4.91   2
   0  -6  13    3.67    3.33   1
   0  -6  12   13.74    2.49   1
   0  -6  12    5.73    2.64   1
   0  -6  11    5.08    3.28   1
   0  -6  11    0.99    2.18   1
   0  -6  10   12.27    3.08  -1
   0  -8  -3   12.27    3.08   2
   0  -6  10   11.59    3.69  -1
   0  -8  -3   11.59    3.69   2
   0   6  -9   -0.65    2.16   1
   0  -6   9    4.93    3.06   1
   0  -6   9    1.41    2.08   1
   0   6  -8    6.44    2.47   1
   0  -6   8    8.37    2.09   1
   0  -6   8    9.91    2.44   1
   0   6  -7    7.45    2.30   1
   0  -6   7    3.81    1.98   1
   0  -6   7   10.22    2.34   1
   0   6  -6    9.55    2.27   1
   0  -6   6    7.56    3.18   1
   0  -6   6    5.30    2.26   1
   0   6  -5   11.17    2.27   1
   0  -6   5   12.32    3.11   1
   0  -6   5    7.37    2.15   1
   0   6  -4    4.90    1.85   1
   0  -6   4    1.67    2.52   1
   0  -6   4    1.77    1.96   1
   0   6  -3  670.23   34.12  -1
   0   6  -3  670.23   34.12   2
   0  -6   3  672.39   34.11  -1
   0  -6   3  672.39   34.11   2
   0  -6   3  663.52   32.18  -1
   0  -6   3  663.52   32.18   2
   0   6  -2    8.95    2.17   1
   0  -6   2    5.40    1.81   1
   0  -6   2    6.54    2.33   1
   0   6  -1    2.00    1.82   1
   0  -6   1    2.25    1.72   1
   0  -6   1   -0.84    1.47   1
   0   6   0   30.81    2.23   1
   0   6   0   30.55    2.19   1
   0   6   0   34.12    2.76   1
   0   6   1   31.77    3.19   1
   0   6   1   32.25    3.56   1
   0   6   1   33.58    2.12   1
   0   6   2   19.34    2.53   1
   0   6   2   20.01    2.08   1
   0   6   2   22.69    2.76   1
   0   6   3    3.80    2.33   1
   0   6   3    8.05    2.40   1
   0   6   4   23.86    2.63  -1
   0   4  -9   23.86    2.63   2
   0   6   4   23.97    4.09  -1
   0   4  -9   23.97    4.09   2
   0   6   5   70.11    3.43   1
   0   6   6   11.18    2.69   1
   0   6   7    2.17    2.41   1
   0   6   8   19.23    2.14   1
   0   6   9   39.51    3.95   1
   0   6  10   23.42    2.38   1
   0   6  11   15.84    4.26  -1
   0   2 -15   15.84    4.26   2
   0   6  12    7.74    2.86   1
   0   6  13    0.20    2.59   1
   0   6  14    3.36    2.61   1
   0   6  15    2.47    2.68   1
   0   6  16    4.99    2.83   1
   0  -7  16    9.64    3.97   1
   0  -7  16    7.71    2.77   1
   0  -7  15   -2.56    2.23   1
   0  -7  15   -0.16    2.42   1
   0  -7  14    6.91    2.44   1
   0  -7  14    2.50    4.81  -1
   0 -10  -6    2.50    4.81   2
   0  -7  13    8.47    3.91   1
   0  -7  13    8.81    2.87   1
   0  -7  12    4.70    3.34   1
   0  -7  12    0.60    1.41   1
   0  -7  11    5.08    2.25   1
   0  -7  11   -0.04    2.33   1
   0  -7  10    1.25    6.58  -1
   0  -9  -2    1.25    6.58   2
   0  -7  10   -1.04    4.57  -1
   0  -9  -2   -1.04    4.57   2
   0  -7   9    7.49    2.23   1
   0  -7   9    4.08    2.77   1
   0  -7   8   12.15    3.85   1
   0  -7   8   14.14    2.79   1
   0  -7   7   12.60    3.52   1
   0  -7   7   23.40    5.06  -1
   0  -8   0   23.40    5.06   2
   0  -7   6    1.75    2.05   1
   0  -7   6    8.46    2.23   1
   0  -7   5    9.01    2.11   1
   0  -7   5    6.08    2.43   1
   0  -7   4   13.52    3.28   1
   0  -7   4   14.56    1.76   1
   0  -7   3   28.40    3.81   1
   0  -7   3   17.26    2.92   1
   0  -7   2   23.81    2.78   1
   0  -7   2   21.72    3.34   1
   0   7  -1    7.74    1.86   1
   0   7   0    4.30    2.59   1
   0   7   1    1.53    2.59   1
   0   7   2    6.01    1.82   1
   0   7   3   22.77    6.05  -1
   0   5  -9   22.77    6.05   2
   0   7   4    4.55    1.72   1
   0   7   5   45.62    4.06   1
   0   7   6   18.23    2.15   1
   0   7   7   -2.33    2.68   1
   0   7   8   10.89    1.99   1
   0   7   9   19.77    3.75   1
   0   7  10   23.50    6.00  -1
   0   3 -15   23.50    6.00   2
   0   7  11   -1.95    3.00   1
   0   7  12    9.60    3.20   1
   0   7  13   -2.15    2.55   1
   0   7  14    4.88    2.88   1
   0   7  15   29.26    3.95   1
   0  -8  15    2.35    3.69   1
   0  -8  14   -1.88    3.79   1
   0  -8  14    4.95    2.54   1
   0  -8  13    1.16    3.45   1
   0  -8  13    7.67    2.63   1
   0  -8  12   -1.40    2.23   1
   0  -8  12   -3.33    2.32   1
   0  -8  11    4.77    5.17  -1
   0 -10  -2    4.77    5.17   2
   0  -8  11    3.98    4.13  -1
   0 -10  -2    3.98    4.13   2
   0  -8  10    1.86    2.23   1
   0  -8  10    1.70    1.46   1
   0  -8   9   -2.55    3.25   1
   0  -8   9    1.12    1.41   1
   0  -8   8   10.51    2.20   1
   0  -8   8    4.71    1.54   1
   0  -8   7    5.42    3.36   1
   0  -8   7    0.19    1.47   1
   0  -8   6    8.63    3.54   1
   0  -8   6    4.27    1.63   1
   0  -8   5    2.82    1.88   1
   0  -8   5   -2.41    2.24   1
   0  -8   4  222.72   11.52  -1
   0  -8   4  222.72   11.52   2
   0  -8   4  232.74   12.74  -1
   0  -8   4  232.74   12.74   2
   0  -8   3    3.06    3.64   1
   0  -8   3    3.02    2.82   1
   0   8  -2    1.99    1.81   1
   0  -8   2    0.78    2.11   1
   0  -8   2    2.80    2.02   1
   0   8  -1   17.82    2.24   1
   0   8   0   10.79    2.06   1
   0   8   1    7.30    3.18   1
   0   8   2    8.95    3.35   1
   0   8   3    9.57    4.20  -1
   0   6 -10    9.57    4.20   2
   0   8   4   36.10    2.84   1
   0   8   5   10.93    3.13   1
   0   8   6    1.16    2.82   1
   0   8   7   13.10    2.19   1
   0   8   8   16.14    3.56   1
   0   8   9    8.01    3.25   1
   0   8  10    8.17    2.70  -1
   0   4 -16    8.17    2.70   2
   0   8  11    0.11    2.77   1
   0   8  12   -1.79    2.97   1
   0   8  13   -2.46    2.99   1
   0   8  14    0.04    1.72   1
   0  -9  13    1.50    2.07   1
   0  -9  13   -4.12    2.46   1
   0  -9  12    5.30    3.65   1
   0  -9  12    3.55    2.61   1
   0  -9  11    3.60    3.62   1
   0  -9  11    1.02    2.48   1
   0  -9  10    1.81    2.24   1
   0  -9  10    2.72    1.45   1
   0  -9   9    8.65    3.75   1
   0  -9   9   -0.20    2.58   1
   0  -9   8    3.63    2.31   1
   0  -9   8   10.06    5.07  -1
   0 -10   2   10.06    5.07   2
   0  -9   7    3.32    3.45   1
   0  -9   7    2.71    2.52   1
   0  -9   6   -0.48    3.21   1
   0  -9   6    0.08    2.46   1
   0  -9   5    4.09    2.41   1
   0  -9   5    1.50    2.67   1
   0  -9   4    6.13    2.63   1
   0  -9   4    8.77    3.13   1
   0  -9   3    1.23    2.15   1
   0  -9   3   -1.72    1.94   1
   0   9  -2    4.38    3.24   1
   0   9  -1    4.10    3.08   1
   0   9   0   -0.42    2.94   1
   0   9   1   -1.58    3.26   1
   0   9   2    1.42    6.17  -1
   0   7 -10    1.42    6.17   2
   0   9   3    6.80    3.08   1
   0   9   4   21.72    2.60   1
   0   9   5    9.63    3.33   1
   0   9   6    3.71    3.11   1
   0   9   7    3.76    3.11   1
   0   9   8    5.53    2.03   1
   0   9   9   13.71    5.03  -1
   0   5 -16   13.71    5.03   2
   0   9  10   -0.59    2.88   1
   0   9  11    0.23    2.85   1
   0   9  12    0.86    3.13   1
   0 -10  11   -3.60    2.28   1
   0 -10  11    9.39    2.47   1
   0 -10  10    4.78    3.58   1
   0 -10  10   -2.76    2.54   1
   0 -10   9   -0.81    3.55   1
   0 -10   9    3.48    2.61   1
   0 -10   8    1.21    3.76   1
   0 -10   8    3.63    2.64   1
   0 -10   7    5.51    3.93   1
   0 -10   7    1.02    2.73   1
   0 -10   6   -1.52    3.94   1
   0 -10   6    1.63    1.57   1
   0 -10   5   63.60    5.69  -1
   0 -10   5   63.60    5.69   2
   0 -10   5   58.16    5.12  -1
   0 -10   5   58.16    5.12   2
   0  10  -4    5.09    2.06   1
   0 -10   4    3.88    2.40   1
   0 -10   4   -1.78    2.32   1
   0  10  -3    0.67    3.16   1
   0  10  -2    7.71    3.56   1
   0  10  -1    0.39    3.23   1
   0  10   0    5.94    3.69   1
   0  10   1    9.84    2.29   1
   0  10   2    0.06    4.08  -1
   0   8 -11    0.06    4.08   2
   0  10   3   15.76    2.45   1
   0  10   4    6.48    2.00   1
   0  10   5    1.65    3.02   1
   0  10   6    1.57    3.17   1
   0  10   7   -0.85    3.13   1
   0  10   8    2.26    3.01   1
   0  10   9    6.12    4.42  -1
   0   6 -17    6.12    4.42   2
   0  10  10    1.51    2.04   1
   0 -11   8    2.44    2.62   1
   0 -11   7   -3.99    4.36   1
   0 -11   7   -2.04    3.12   1
   0 -11   6    8.08    2.80   1
   0 -11   6    5.17    2.06   1
   0  11  -5    3.10    2.29   1
   0  11  -4    5.35    3.57   1
   0  11  -3    2.63    3.46   1
   0  11  -2    3.91    2.22   1
   0  11  -1    1.93    2.23   1
   0  11   0    8.27    3.96   1
   0  11   1    9.92    3.73   1
   0  11   2    4.77    3.26   1
   0  11   3   13.96    3.76   1
   0  11   4    4.02    3.38   1
   0  11   5    1.90    3.30   1
   0  11   6    0.31    3.20   1
  -1  12   1    0.91    3.63   1
  -1  12   0    2.25    2.21   1
  -1  12  -1    2.88    2.23   1
  -1  12  -2    8.12    3.55   1
  -1  11   7   -0.60    4.90  -1
   1   7 -16   -0.60    4.90   2
  -1  11   6    4.91    3.12   1
  -1  11   5    4.31    1.95   1
  -1  11   4   -1.03    1.85   1
  -1  11   3   -0.53    1.92   1
  -1  11   2    1.18    2.19   1
  -1  11   1    1.85    2.00   1
  -1  11   0   10.07    5.44  -1
   1   9 -10   10.07    5.44   2
  -1  11  -1    3.14    3.04   1
  -1  11  -2   -0.86    3.21   1
   1 -11   3    4.98    2.47   1
   1 -11   3   -0.77    2.36   1
   1 -11   4    4.73    2.57   1
   1 -11   4    3.21    2.27   1
   1 -11   5    6.62    4.12   1
   1 -11   5    6.24    2.05   1
   1 -11   6   -5.51    3.58   1
   1 -11   6    0.50    3.04   1
   1 -11   7   -2.68    4.22  -1
  -1 -11   4   -2.68    4.22   2
   1 -11   7    1.91    4.36  -1
  -1 -11   4    1.91    4.36   2
   1 -11   8    3.05    3.38   1
   1 -11   8   -2.92    2.80   1
  -1  10  10    1.73    1.81   1
  -1  10   9    5.72    3.02   1
  -1  10   8   27.16    3.91   1
  -1  10   7   12.88    6.02  -1
   1   6 -15   12.88    6.02   2
  -1  10   6    7.04    1.95   1
  -1  10   5    2.51    3.01   1
  -1  10   4   -2.67    2.80   1
  -1  10   3   -0.62    3.00   1
  -1  10   2    1.06    2.88   1
  -1  10   1    6.56    3.42   1
  -1  10   0   55.52    9.51  -1
   1   8  -9   55.52    9.51   2
  -1  10  -1    3.55    3.26   1
   1 -10   2    0.31    2.31   1
   1 -10   2    1.64    2.15   1
   1 -10   3    8.86    4.07   1
   1 -10   3    5.06    3.86   1
   1 -10   4   29.18    3.46   1
   1 -10   4   29.67    3.95   1
   1 -10   5    4.97    3.45   1
   1 -10   5   -0.93    2.97   1
   1 -10   6    4.54    3.61   1
   1 -10   6    1.64    1.83   1
   1 -10   7   -2.35    2.25   1
   1 -10   7   -1.14    1.84   1
   1 -10   8   -1.33    3.72   1
   1 -10   8    4.37    2.91   1
   1 -10   9    0.16    2.22   1
   1 -10   9    2.65    2.83   1
   1 -10  10   -1.55    3.76   1
   1 -10  10    8.06    4.96  -1
  -1 -11   1    8.06    4.96   2
   1 -10  11    2.07    3.96   1
   1 -10  11    2.54    2.86   1
  -1   9  13   -1.35    2.60   1
  -1   9  12   10.23    3.13   1
  -1   9  11   -2.89    2.76   1
  -1   9  10   13.18    3.31   1
  -1   9   9   20.19    3.56   1
  -1   9   8    8.27    4.93  -1
   1   5 -15    8.27    4.93   2
  -1   9   7   12.46    3.31   1
  -1   9   6    2.10    1.78   1
  -1   9   5    0.90    2.59   1
  -1   9   4   -1.92    2.88   1
  -1   9   3    5.18    3.09   1
  -1   9   2   12.63    2.20   1
  -1   9   1   22.83    4.90  -1
   1   7  -9   22.83    4.90   2
  -1   9   0    7.82    3.19   1
   1  -9   1    0.22    1.94   1
   1  -9   1   -2.67    1.94   1
   1  -9   2   12.11    3.74   1
   1  -9   2    6.54    3.01   1
   1  -9   3    1.74    3.41   1
   1  -9   3    4.19    2.90   1
   1  -9   4   21.76    2.81   1
   1  -9   4   22.46    3.64   1
   1  -9   5    1.54    2.04   1
   1  -9   5    3.38    2.85   1
   1  -9   6    2.43    4.50  -1
  -1  -9   3    2.43    4.50   2
   1  -9   6    3.54    4.00  -1
  -1  -9   3    3.54    4.00   2
   1  -9   7   10.39    3.73   1
   1  -9   7    0.41    2.92   1
   1  -9   8    4.49    3.75   1
   1  -9   8    4.07    2.67   1
   1  -9   9    7.05    3.83   1
   1  -9   9    1.38    2.83   1
   1  -9  10   -4.29    3.73   1
   1  -9  10    1.70    1.80   1
   1  -9  11    4.34    2.44   1
   1  -9  11    2.25    3.15   1
   1  -9  12    8.19    4.20   1
   1  -9  12    4.65    3.40   1
   1  -9  13   -1.41    5.42  -1
  -1 -11  -3   -1.41    5.42   2
   1  -9  13    6.10    4.48  -1
  -1 -11  -3    6.10    4.48   2
  -1   8  14    2.51    2.56   1
  -1   8  13    3.63    2.63   1
  -1   8  12   14.98    2.32   1
  -1   8  11    2.68    2.63   1
  -1   8  10    2.76    2.75   1
  -1   8   9   49.76    4.66   1
  -1   8   8   10.42    4.85  -1
   1   4 -14   10.42    4.85   2
  -1   8   7   11.44    3.12   1
  -1   8   6    6.05    1.82   1
  -1   8   5   10.83    3.03   1
  -1   8   4   11.57    1.98   1
  -1   8   3    0.14    2.73   1
  -1   8   2    8.05    2.88   1
  -1   8   1  171.91    9.73  -1
   1   6  -8  171.91    9.73   2
   1  -8   0   -0.84    1.98   1
   1  -8   0   -2.58    2.06   1
  -1   8   0    5.34    1.77   1
   1  -8   1    7.14    3.48   1
   1  -8   1    3.81    3.23   1
   1  -8   2    7.53    3.51   1
   1  -8   2   10.04    3.24   1
   1  -8   3   83.14    5.91   1
   1  -8   3   66.51    3.81   1
   1  -8   4   -0.80    3.03   1
   1  -8   4    3.73    1.58   1
   1  -8   5    1.41    2.13   1
   1  -8   5    3.80    1.64   1
   1  -8   6    4.96    2.09   1
   1  -8   6   -2.73    2.45   1
   1  -8   7    7.83    3.72   1
   1  -8   7    4.22    2.81   1
   1  -8   8   12.00    2.55   1
   1  -8   8    8.77    3.15   1
   1  -8   9   -2.63    3.80   1
   1  -8   9   14.21    8.15  -1
  -1  -9   0   14.21    8.15   2
   1  -8  10    7.62    2.64   1
   1  -8  10    5.23    1.92   1
   1  -8  11    9.43    4.29   1
   1  -8  11    7.32    3.19   1
   1  -8  12    1.85    2.40   1
   1  -8  12   -0.04    2.72   1
   1  -8  13    6.79    2.47   1
   1  -8  13    2.83    1.77   1
   1  -8  14   -0.45    3.99   1
   1  -8  14    6.47    2.99   1
   1  -8  15   -0.00    3.78   1
   1  -8  15    4.35    1.70   1
  -1   7  15   -5.69    4.51  -1
   1   1 -19   -5.69    4.51   2
  -1   7  14    3.76    2.40   1
  -1   7  13   16.62    2.83   1
  -1   7  12   -0.01    2.34   1
  -1   7  11   12.68    3.01   1
  -1   7  10   38.93    3.85   1
  -1   7   9    9.27    4.33  -1
   1   3 -14    9.27    4.33   2
  -1   7   8   16.65    3.04   1
  -1   7   7    4.33    2.51   1
  -1   7   6   -1.31    2.43   1
  -1   7   5    3.52    2.44   1
  -1   7   4    6.27    1.63   1
  -1   7   3   14.41    2.78   1
  -1   7   2   62.06    5.25  -1
   1   5  -8   62.06    5.25   2
  -1   7   1   18.90    3.07   1
   1  -7   0   15.99    2.14   1
   1  -7   0   12.88    2.17   1
   1  -7   1    6.63    2.99   1
   1  -7   1    7.35    2.82   1
   1  -7   2    4.67    3.13   1
   1  -7   2    7.27    1.61   1
   1  -7   3   56.20    5.03   1
   1  -7   3   52.57    4.23   1
   1  -7   4   10.87    3.09   1
   1  -7   4    2.73    2.44   1
   1  -7   5   28.41    4.82  -1
  -1  -7   2   28.41    4.82   2
   1  -7   5   22.89    4.09  -1
  -1  -7   2   22.89    4.09   2
   1  -7   6    7.49    3.71   1
   1  -7   6    8.49    1.86   1
   1  -7   7    5.13    2.23   1
   1  -7   7    2.58    2.90   1
   1  -7   8   24.36    4.73   1
   1  -7   8   18.33    3.48   1
   1  -7   9    6.01    3.85   1
   1  -7   9   14.87    5.72  -1
  -1  -8  -2   14.87    5.72   2
   1  -7  10   -0.22    3.60   1
   1  -7  10    4.62    2.57   1
   1  -7  11   30.69    3.69   1
   1  -7  11   29.17    2.81   1
   1  -7  12    8.12    5.72  -1
  -1  -9  -4    8.12    5.72   2
   1  -7  12   19.00    4.76  -1
  -1  -9  -4   19.00    4.76   2
   1  -7  13    7.79    3.55   1
   1  -7  13    1.94    2.87   1
   1  -7  14    1.44    2.30   1
   1  -7  14    8.24    3.02   1
   1  -7  15    5.01    2.25   1
   1  -7  16    1.15    2.03   1
   1  -7  16    6.68    4.74  -1
  -1 -10  -8    6.68    4.74   2
  -1   6  16    7.81    3.08  -1
   1   0 -19    7.81    3.08   2
  -1   6  15    8.91    2.43   1
  -1   6  14    1.60    2.14   1
  -1   6  13   17.75    2.76   1
  -1   6  12   -0.57    2.17   1
  -1   6  11    7.02    2.46   1
  -1   6  10  103.08    5.46   1
   1  -6  -9    3.29    3.08  -1
  -1  -2  13    3.29    3.08   2
  -1   6   9   11.15    3.11  -1
   1   2 -13   11.15    3.11   2
   1  -6  -8   26.76    2.43   1
  -1   6   8   25.08    2.97   1
   1  -6  -7   20.29    2.34   1
  -1   6   7   18.06    1.79   1
  -1   6   6   45.46    2.51   1
  -1   6   6   46.65    2.59   1
  -1   6   5   32.97    2.78   1
  -1   6   5   33.88    2.05   1
  -1   6   4    3.29    1.84   1
  -1   6   4    1.91    1.26   1
  -1   6   3   19.15    1.68   1
  -1   6   3   21.86    2.96   1
  -1   6   2   81.90    5.62   1
  -1   6   2  403.32   21.23  -1
   1   4  -7  403.32   21.23   2
  -1   6   2  455.55   22.84  -1
   1   4  -7  455.55   22.84   2
   1  -6  -1    8.82    1.86   1
   1  -6  -1    9.50    1.96   1
  -1   6   1   12.99    2.35   1
  -1   6   1   12.77    2.25   1
   1  -6   0   11.13    1.76   1
   1  -6   0   10.52    1.54   1
  -1   6   0    9.70    1.58   1
  -1   6   0   11.27    1.52   1
   1  -6   1   15.76    2.90   1
   1  -6   1   18.58    2.89   1
  -1   6  -1   16.66    2.84   1
  -1   6  -1   13.04    2.59   1
   1  -6   2  162.05    6.23   1
   1  -6   2  164.25    7.87   1
  -1   6  -2  152.58    7.32   1
  -1   6  -2  142.92    6.90   1
   1  -6   3    4.07    2.58   1
   1  -6   3   -1.17    1.25   1
  -1   6  -3   -0.60    1.94   1
   1  -6   4   10.70    3.09   1
   1  -6   4   11.27    2.68   1
  -1   6  -4   11.61    2.29   1
   1  -6   5    2.04    1.63   1
  -1   6  -5    3.06    2.16   1
   1  -6   5   24.03    7.38  -1
  -1  -6   1   24.03    7.38   2
   1  -6   6   14.18    2.33   1
   1  -6   6   11.68    2.71   1
  -1   6  -6   10.75    2.49   1
   1  -6   7   21.92    2.55   1
   1  -6   7   16.00    3.09   1
   1  -6   8    6.66    3.61   1
   1  -6   8   17.24    5.13  -1
  -1  -7  -2   17.24    5.13   2
   1  -6   9   12.80    2.61   1
   1  -6   9   23.07    3.20   1
   1  -6  10   39.76    4.80   1
   1  -6  10   33.46    3.94   1
   1  -6  11   12.41    3.57   1
   1  -6  11    0.07    2.90   1
   1  -6  12    7.74    2.18   1
   1  -6  12    1.52    2.98   1
   1  -6  13    1.37    3.40   1
   1  -6  13    3.98    2.76   1
   1  -6  14    9.62    3.45   1
   1  -6  14    1.46    2.91   1
   1  -6  15    3.33    3.27   1
   1  -6  15    0.14    2.78   1
   1  -6  16    1.99    3.35   1
   1  -6  16    1.18    1.74   1
   1  -6  17    2.73    3.25   1
   1  -6  17   -3.08    2.73   1
  -1   5  16    7.27    3.65  -1
   1  -1 -18    7.27    3.65   2
  -1   5  15   -1.32    2.01   1
  -1   5  14   27.51    2.92   1
  -1   5  13    4.48    2.07   1
   1  -5 -12   12.44    2.06   1
  -1   5  12   11.63    2.35   1
   1  -5 -11   55.57    3.15   1
  -1   5  11   65.55    3.77   1
   1  -5 -10    7.85    2.63  -1
  -1  -1  13    7.85    2.63   2
  -1   5  10    9.30    3.11  -1
   1   1 -13    9.30    3.11   2
  -1   5   9   46.48    3.51   1
   1  -5  -8   13.24    1.98   1
   1  -5  -7    5.04    1.68   1
  -1   5   7    6.36    1.80   1
   1  -5  -6    6.98    1.71   1
  -1   5   6    6.37    1.97   1
  -1   5   5    7.96    1.33   1
  -1   5   5   13.11    2.15   1
  -1   5   5    8.57    1.74   1
  -1   5   4   41.02    2.83   1
  -1   5   4   46.42    3.05   1
  -1   5   4   38.13    2.35   1
  -1   5   3  146.17    5.75  -1
   1   3  -7  146.17    5.75   2
  -1   5   3  158.10    7.58  -1
   1   3  -7  158.10    7.58   2
  -1   5   3  153.89    8.55  -1
   1   3  -7  153.89    8.55   2
  -1   5   2   51.26    3.21   1
  -1   5   2   48.70    3.17   1
  -1   5   2   53.99    2.60   1
   1  -5  -1   22.58    2.99   1
   1  -5  -1   25.33    3.31   1
  -1   5   1   21.76    2.53   1
  -1   5   1   19.80    1.49   1
   1  -5   0   15.53    2.55   1
   1  -5   0   12.01    2.77   1
  -1   5   0   17.49    1.56   1
  -1   5   0   15.48    1.61   1
   1  -5   1    8.49    1.59   1
   1  -5   1    4.06    2.51   1
  -1   5  -1    8.56    2.33   1
  -1   5  -1    8.30    1.32   1
   1  -5   2  110.79    5.86   1
   1  -5   2   94.67    4.92   1
  -1   5  -2  105.90    5.19   1
  -1   5  -2  107.58    5.05   1
   1  -5   3   13.57    1.90   1
   1  -5   3   13.42    1.62   1
  -1   5  -3   10.60    1.57   1
   1  -5   4   37.11    4.70  -1
  -1  -5   1   37.11    4.70   2
   1  -5   4   34.39    3.71  -1
  -1  -5   1   34.39    3.71   2
  -1   5  -4   35.39    4.10  -1
   1   5  -1   35.39    4.10   2
  -1   5  -4   34.59    3.70  -1
   1   5  -1   34.59    3.70   2
   1  -5   5   13.49    3.46   1
   1  -5   5   16.59    2.66   1
  -1   5  -5   21.05    2.93   1
  -1   5  -5   16.56    1.67   1
   1  -5   6   17.94    3.51   1
   1  -5   6   15.91    1.75   1
  -1   5  -6   15.47    1.65   1
   1  -5   7   45.43    2.85   1
   1  -5   7   39.46    3.72   1
  -1   5  -7   42.69    2.49   1
   1  -5   8   11.37    3.37   1
  -1   5  -8   11.42    2.50   1
   1  -5   8   32.08    5.36  -1
  -1  -6  -3   32.08    5.36   2
   1  -5   9    8.19    2.01   1
   1  -5   9    4.73    2.41   1
  -1   5  -9    5.24    2.32   1
   1  -5  10  132.13    7.98   1
   1  -5  10  115.99    6.72   1
   1  -5  11   31.85    5.49  -1
  -1  -7  -5   31.85    5.49   2
   1  -5  11   27.40    4.88  -1
  -1  -7  -5   27.40    4.88   2
   1  -5  12    0.26    1.81   1
   1  -5  12    0.10    2.51   1
   1  -5  13   13.36    2.45   1
   1  -5  13   13.56    3.15   1
   1  -5  14    4.11    3.28   1
   1  -5  14    2.37    2.99   1
   1  -5  15    1.95    3.32   1
   1  -5  15   16.25    4.84  -1
  -1  -8  -9   16.25    4.84   2
   1  -5  16    3.49    3.15   1
   1  -5  16   -2.39    2.85   1
   1  -5  17   -3.84    3.05   1
   1  -5  17    2.58    2.81   1
   1  -5  18   20.81    6.15  -1
  -1  -9 -11   20.81    6.15   2
   1  -5  18   19.12    5.47  -1
  -1  -9 -11   19.12    5.47   2
  -1   4  17    8.11    3.55  -1
   1  -2 -18    8.11    3.55   2
  -1   4  16   26.56    4.64  -1
   1  -2 -17   26.56    4.64   2
  -1   4  15    9.74    2.26   1
  -1   4  14   29.82    2.79   1
   1  -4 -13    4.20    1.60   1
  -1   4  13    3.39    2.00   1
   1  -4 -12    4.69    1.50   1
  -1   4  12    5.53    1.88   1
   1  -4 -11  254.11   12.72  -1
  -1   0  13  254.11   12.72   2
  -1   4  11  265.33   12.85  -1
   1   0 -13  265.33   12.85   2
   1  -4 -10    7.68    2.29  -1
  -1   0  12    7.68    2.29   2
  -1   4  10    6.90    2.59  -1
   1   0 -12    6.90    2.59   2
   1  -4  -9   46.35    2.65   1
  -1   4   9   45.62    2.92   1
   1  -4  -8   43.03    2.50   1
  -1   4   8   47.45    2.20   1
   1  -4  -7  122.76    4.75   1
  -1   4   7  117.12    4.83   1
   1  -4  -6   66.15    3.08   1
  -1   4   6   65.77    2.49   1
   1  -4  -5   -1.13    1.30   1
  -1   4   5    0.70    1.66   1
  -1   4   4   36.95    1.80   1
  -1   4   4   31.71    2.34   1
  -1   4   4   33.38    2.22   1
  -1   4   3 1008.89   49.93  -1
   1   2  -6 1008.89   49.93   2
  -1   4   3 1114.23   55.23  -1
   1   2  -6 1114.23   55.23   2
  -1   4   3 1067.17   56.47  -1
   1   2  -6 1067.17   56.47   2
  -1   4   2   19.72    2.06   1
  -1   4   2   18.51    2.29   1
  -1   4   2   20.68    2.40   1
   1  -4  -1   33.60    2.75   1
   1  -4  -1   28.93    1.83   1
  -1   4   1   31.63    2.48   1
  -1   4   1   27.70    2.56   1
   1  -4   0   30.12    2.03   1
   1  -4   0   32.45    3.13   1
  -1   4   0   32.54    2.81   1
  -1   4   0   33.41    1.87   1
   1  -4   1  305.95   10.33   1
   1  -4   1  276.21    9.32   1
  -1   4  -1  305.71   11.56   1
  -1   4  -1  317.84   11.83   1
   1  -4   2    0.57    1.42   1
   1  -4   2    0.49    2.12   1
  -1   4  -2    1.56    1.90   1
  -1   4  -2   -1.24    1.91   1
   1  -4   3   16.62    3.13   1
   1  -4   3   11.99    2.52   1
  -1   4  -3   20.49    2.74   1
  -1   4  -3   16.21    1.47   1
  -1   4  -4   16.53    1.70   1
  -1   4  -4   17.84    2.37   1
   1  -4   4   55.59    6.13  -1
  -1  -4   0   55.59    6.13   2
   1  -4   4   49.55    5.18  -1
  -1  -4   0   49.55    5.18   2
   1  -4   5   19.50    3.41   1
   1  -4   5   20.91    2.81   1
  -1   4  -5   25.77    2.97   1
  -1   4  -5   23.19    1.67   1
   1  -4   6   42.77    3.95   1
   1  -4   6   38.76    3.37   1
  -1   4  -6   46.70    3.78   1
  -1   4  -6   40.12    3.00   1
   1  -4   7    5.23    3.05   1
  -1   4  -7    9.64    2.70   1
  -1   4  -7    7.31    2.26   1
   1  -4   7   44.58    5.63  -1
  -1  -5  -3   44.58    5.63   2
   1  -4   8   34.14    2.73   1
   1  -4   8   37.11    3.35   1
  -1   4  -8   36.90    2.18   1
   1  -4   9  112.99    6.86   1
   1  -4   9  103.59    5.89   1
  -1   4  -9   91.78    5.30   1
  -1   4 -10    8.95    2.47   1
   1  -4  10   36.37    7.83  -1
  -1  -6  -5   36.37    7.83   2
   1  -4  10   51.59    7.26  -1
  -1  -6  -5   51.59    7.26   2
   1  -4  11    7.49    2.74   1
   1  -4  11   23.17    4.67  -1
  -1  -6  -6   23.17    4.67   2
   1  -4  12    9.49    2.06   1
   1  -4  12    5.82    2.95   1
   1  -4  13    7.56    2.05   1
   1  -4  13    9.35    1.84   1
   1  -4  14    6.56    3.43   1
   1  -4  14    5.86    2.94   1
   1  -4  15    1.07    3.05   1
   1  -4  15    0.71    2.68   1
   1  -4  16   -0.21    1.79   1
   1  -4  16   -3.84    2.75   1
   1  -4  17   18.39    5.43  -1
  -1  -8 -11   18.39    5.43   2
   1  -4  17    7.78    6.07  -1
  -1  -8 -11    7.78    6.07   2
   1  -4  18   -1.93    1.85   1
   1  -4  18    4.48    2.85   1
  -1   3  17    4.48    2.76  -1
   1  -3 -17    4.48    2.76   2
  -1   3  16   10.60    2.30   1
  -1   3  15   30.73    2.82   1
   1  -3 -14    2.98    1.59   1
  -1   3  14    4.58    1.95   1
   1  -3 -13   10.36    1.74   1
  -1   3  13   17.52    2.13   1
   1  -3 -12   76.48    3.67   1
  -1   3  12   83.33    3.92   1
   1  -3 -11    8.50    2.51  -1
  -1   1  12    8.50    2.51   2
  -1   3  11    9.17    2.21  -1
   1  -1 -12    9.17    2.21   2
   1  -3 -10   61.38    2.83   1
  -1   3  10  129.28    6.62  -1
   1  -1 -11  129.28    6.62   2
   1  -3  -9   19.86    1.71   1
  -1   3   9   18.62    1.97   1
   1  -3  -8    4.07    1.35   1
  -1   3   8    5.92    1.59   1
   1  -3  -7   14.43    1.52   1
  -1   3   7   12.45    1.74   1
   1  -3  -6   11.49    1.39   1
  -1   3   6   11.47    1.56   1
   1  -3  -5   77.64    3.00   1
  -1   3   5   72.57    3.01   1
   1  -3  -4  273.21    9.39  -1
  -1  -1   6  273.21    9.39   2
  -1   3   4  268.40    9.77  -1
   1   1  -6  268.40    9.77   2
  -1   3   3  141.11    4.69   1
  -1   3   3  134.16    4.89   1
  -1   3   3  152.83    6.29   1
  -1   3   2   44.07    2.49   1
  -1   3   2   43.29    2.50   1
  -1   3   2   45.54    2.80   1
   1  -3  -1   17.99    2.22   1
   1  -3  -1   19.29    1.65   1
  -1   3   1   24.74    2.22   1
  -1   3   1   22.17    2.46   1
   1  -3   0    6.45    1.26   1
   1  -3   0    8.03    2.30   1
  -1   3   0    4.44    2.10   1
  -1   3   0   10.36    2.34   1
   1  -3   1  207.37    8.24   1
   1  -3   1  217.62    8.41   1
  -1   3  -1  202.04    7.50   1
  -1   3  -1  205.01    6.37   1
   1  -3   2   36.99    2.14   1
   1  -3   2   40.07    3.11   1
  -1   3  -2   39.52    3.24   1
  -1   3  -2   44.27    3.02   1
   1  -3   3   77.64    5.67  -1
  -1  -3   0   77.64    5.67   2
   1  -3   3   66.82    4.84  -1
  -1  -3   0   66.82    4.84   2
  -1   3  -3   75.05    4.76  -1
   1   3   0   75.05    4.76   2
  -1   3  -3   72.05    4.44  -1
   1   3   0   72.05    4.44   2
   1  -3   4   47.26    2.75   1
   1  -3   4   50.15    3.34   1
  -1   3  -4   52.65    3.64   1
  -1   3  -4   48.63    3.22   1
   1  -3   5   31.36    2.27   1
   1  -3   5   27.21    2.89   1
  -1   3  -5   32.54    3.11   1
  -1   3  -5   31.05    1.94   1
   1  -3   6   81.44    5.01   1
   1  -3   6   84.70    4.59   1
  -1   3  -6   85.90    3.66   1
  -1   3  -6   83.79    4.14   1
   1  -3   7   26.69    3.52   1
   1  -3   7   28.91    3.04   1
  -1   3  -7   35.34    3.15   1
  -1   3  -7   29.35    2.81   1
   1  -3   8    6.08    2.77   1
   1  -3   8    7.73    2.33   1
  -1   3  -8    6.71    2.47   1
  -1   3  -8    5.85    1.36   1
   1  -3   9  294.25   11.48   1
   1  -3   9  293.86   13.02   1
  -1   3  -9  301.95   13.58   1
  -1   3  -9  281.08   12.18   1
   1  -3  10   49.31    4.84  -1
  -1  -5  -6   49.31    4.84   2
   1  -3  10   37.74    3.16  -1
  -1  -5  -6   37.74    3.16   2
   1  -3  11    0.68    2.92   1
   1  -3  11    7.12    2.76   1
   1  -3  12   24.50    3.74   1
   1  -3  12   26.52    3.54   1
   1  -3  13   -0.27    2.84   1
   1  -3  13    2.61    1.78   1
   1  -3  14   24.60    3.86   1
   1  -3  14   17.49    2.20   1
   1  -3  15    3.18    2.86   1
   1  -3  15    1.27    2.98   1
   1  -3  16    2.84    1.96   1
   1  -3  16    2.99    3.00   1
   1  -3  17   44.32    6.39  -1
  -1  -7 -12   44.32    6.39   2
   1  -3  17   35.29    5.96  -1
  -1  -7 -12   35.29    5.96   2
   1  -3  18    5.98    3.00   1
   1  -3  18    1.81    1.99   1
   1  -3  19   11.79    3.38   1
   1  -3  19    9.39    2.28   1
  -1   2  18   15.53    3.08  -1
   1  -4 -17   15.53    3.08   2
  -1   2  17   31.36    5.08  -1
   1  -4 -16   31.36    5.08   2
  -1   2  16   10.00    2.31   1
   1  -2 -15   24.46    2.35   1
  -1   2  15   28.49    2.73   1
   1  -2 -14    8.04    1.68   1
  -1   2  14    8.87    2.13   1
   1  -2 -13    1.75    1.47   1
  -1   2  13    2.63    1.84   1
   1  -2 -12  343.00   14.98  -1
  -1   2  12  343.00   14.98   2
  -1   2  12  352.04   15.35  -1
   1  -2 -12  352.04   15.35   2
   1  -2 -11   11.12    2.53  -1
  -1   2  11   11.12    2.53   2
  -1   2  11   15.38    2.30  -1
   1  -2 -11   15.38    2.30   2
   1  -2 -10   61.75    2.86   1
  -1   2  10   59.60    2.94   1
   1  -2  -9   85.05    3.38   1
  -1   2   9   88.41    3.41   1
   1  -2  -8  215.00    6.81   1
  -1   2   8  239.02    8.24   1
   1  -2  -7   93.02    3.07   1
  -1   2   7   99.75    4.08   1
   1  -2  -6    0.09    1.01   1
  -1   2   6    0.93    1.13   1
   1  -2  -5   44.06    2.25   1
  -1   2   5   41.61    1.95   1
  -1   2   4 1375.87   62.74   1
   1  -2  -4 2369.45  144.22  -1
  -1   0   5 2369.45  144.22   2
   1  -2  -3   31.39    1.50   1
  -1   2   3   35.25    2.25   1
  -1   2   2   76.27    2.73   1
  -1   2   2   72.45    2.67   1
  -1   2   2   73.64    2.55   1
   1  -2  -1   56.11    2.72   1
   1  -2  -1   58.74    3.30   1
  -1   2   1   58.44    2.81   1
  -1   2   1   57.05    2.96   1
   1  -2   0  522.79   17.42   1
   1  -2   0  533.14   18.06   1
  -1   2   0  550.83   19.89   1
  -1   2   0  594.51   21.53   1
   1  -2   1   -0.07    2.15   1
   1  -2   1    0.66    2.10   1
  -1   2  -1   -0.26    1.10   1
  -1   2  -1   -0.10    1.15   1
   1  -2   2   20.56    2.87   1
   1  -2   2   17.22    2.75   1
  -1   2  -2   18.25    2.89   1
  -1   2  -2   21.79    2.57   1
   1  -2   3   37.93    3.49   1
  -1   2  -3   95.87    8.34  -1
   1   2   1   95.87    8.34   2
  -1   2  -3   99.14    7.38  -1
   1   2   1   99.14    7.38   2
   1  -2   4   40.06    3.54   1
   1  -2   4   38.74    3.25   1
  -1   2  -4   41.66    2.24   1
  -1   2  -4   39.72    2.97   1
   1  -2   5   72.33    3.29   1
   1  -2   5   76.35    4.29   1
  -1   2  -5   81.79    4.43   1
  -1   2  -5   78.50    3.00   1
   1  -2   6   17.26    3.02   1
   1  -2   6   11.85    2.48   1
  -1   2  -6   21.14    2.78   1
  -1   2  -6   15.83    1.44   1
   1  -2   7   58.92    3.02   1
   1  -2   7   68.31    3.98   1
  -1   2  -7   70.83    4.27   1
  -1   2  -7   62.28    3.60   1
   1  -2   8  233.34    8.49   1
   1  -2   8  232.68    9.72   1
  -1   2  -8  247.42   10.53   1
   1  -2   9   80.74    6.76  -1
  -1  -4  -6   80.74    6.76   2
   1  -2   9   76.10    6.33  -1
  -1  -4  -6   76.10    6.33   2
  -1   2  -9   83.93    6.57  -1
   1   4   6   83.93    6.57   2
   1  -2  10   47.64    5.75  -1
  -1  -4  -7   47.64    5.75   2
   1  -2  10   42.07    6.33  -1
  -1  -4  -7   42.07    6.33   2
  -1   2 -10   49.48    5.49  -1
   1   4   7   49.48    5.49   2
   1  -2  11   18.17    1.96   1
   1  -2  11   13.83    3.15   1
   1  -2  12    5.51    1.86   1
   1  -2  12    9.28    2.88   1
   1  -2  13    8.49    3.16   1
   1  -2  13    6.80    3.08   1
   1  -2  14    6.63    3.18   1
   1  -2  15   -2.14    2.83   1
   1  -2  15    1.33    2.78   1
   1  -2  16    2.39    4.18  -1
  -1  -6 -12    2.39    4.18   2
   1  -2  16    2.75    5.63  -1
  -1  -6 -12    2.75    5.63   2
   1  -2  17    8.80    5.44  -1
  -1  -6 -13    8.80    5.44   2
   1  -2  17   16.25    6.28  -1
  -1  -6 -13   16.25    6.28   2
   1  -2  18   11.40    3.40   1
   1  -2  18    5.34    3.46   1
   1  -2  19   19.32    2.67   1
   1  -2  19   18.98    2.48   1
  -1   1  18    6.51    4.32  -1
   1  -5 -16    6.51    4.32   2
  -1   1  17   13.95    1.78   1
  -1   1  16   27.98    3.01   1
   1  -1 -15    6.93    1.85   1
  -1   1  15   14.51    2.39   1
   1  -1 -14   10.04    2.01   1
  -1   1  14   16.19    2.17   1
   1  -1 -13  153.44    8.62  -1
  -1   3  12  153.44    8.62   2
  -1   1  13  162.50    9.02  -1
   1  -3 -12  162.50    9.02   2
   1  -1 -12    9.91    2.14  -1
  -1   3  11    9.91    2.14   2
  -1   1  12    8.18    2.46  -1
   1  -3 -11    8.18    2.46   2
   1  -1 -11   53.94    2.81   1
  -1   1  11  131.77    7.12  -1
   1  -3 -10  131.77    7.12   2
   1  -1 -10   25.93    1.96   1
  -1   1  10   23.50    2.81   1
   1  -1  -9    6.49    1.45   1
  -1   1   9    6.75    1.61   1
   1  -1  -8   21.97    1.62   1
  -1   1   8   23.01    1.82   1
   1  -1  -7   13.19    1.27   1
  -1   1   7   11.88    1.48   1
   1  -1  -6   82.60    3.19   1
  -1   1   6   76.78    2.68   1
   1  -1  -5  322.38    9.42  -1
  -1   1   5  322.38    9.42   2
  -1   1   5  329.20   10.46  -1
   1  -1  -5  329.20   10.46   2
   1  -1  -4  226.46    6.07   1
  -1   1   4  212.39    5.83   1
   1  -1  -3   79.87    1.65   1
  -1   1   3   72.58    1.91   1
  -1   1   2   22.76    0.92   1
  -1   1   2   22.45    0.86   1
  -1   1   2   23.31    1.92   1
   1  -1  -1    3.66    0.96   1
   1  -1  -1    4.96    1.48   1
  -1   1   1    2.39    1.22   1
  -1   1   1    3.23    1.61   1
   1  -1   0  267.17    8.34   1
   1  -1   0  289.31    9.16   1
  -1   1   0  281.70    8.52   1
  -1   1   0  275.69    7.76   1
   1  -1   1   98.50    4.48   1
   1  -1   1   96.98    4.40   1
  -1   1  -1   88.29    3.02   1
  -1   1  -1   98.77    4.19   1
   1  -1   2  128.18    6.37  -1
  -1  -1  -1  128.18    6.37   2
   1  -1   2  145.43    6.82  -1
  -1  -1  -1  145.43    6.82   2
  -1   1  -2  147.30    7.18  -1
   1   1   1  147.30    7.18   2
  -1   1  -2  146.78    6.59  -1
   1   1   1  146.78    6.59   2
   1  -1   3  103.49    3.81   1
   1  -1   3  112.79    5.26   1
  -1   1  -3  111.20    5.06   1
  -1   1  -3  108.78    3.67   1
   1  -1   4   40.54    3.48   1
   1  -1   4   41.75    2.10   1
  -1   1  -4   41.62    3.36   1
  -1   1  -4   42.53    3.16   1
   1  -1   5  128.75    5.75   1
   1  -1   5  116.98    4.01   1
  -1   1  -5  111.19    4.06   1
   1  -1   6   52.25    3.63   1
   1  -1   6   50.49    3.50   1
  -1   1  -6   46.83    3.56   1
   1  -1   7    6.53    1.38   1
   1  -1   7    2.52    2.55   1
  -1   1  -7    3.83    2.27   1
   1  -1   8  629.65   27.59   1
   1  -1   8  614.86   27.21   1
  -1   1  -8  628.14   24.99   1
   1  -1   9   61.20    5.03  -1
  -1  -3  -7   61.20    5.03   2
   1  -1   9   65.48    5.47  -1
  -1  -3  -7   65.48    5.47   2
  -1   1  -9   66.83    4.68  -1
   1   3   7   66.83    4.68   2
   1  -1  10   12.41    2.86   1
   1  -1  10   11.37    2.91   1
  -1   1 -10   13.66    2.57   1
   1  -1  11   47.98    2.76   1
   1  -1  11   46.98    4.24   1
  -1   1 -11   44.31    3.68   1
   1  -1  12    3.50    2.64   1
   1  -1  12    5.39    2.93   1
   1  -1  13   34.92    4.10   1
   1  -1  13   35.77    4.05   1
   1  -1  14   11.34    3.21   1
   1  -1  14    8.38    3.30   1
   1  -1  15    5.60    2.06   1
   1  -1  15   10.29    6.29  -1
  -1  -5 -12   10.29    6.29   2
   1  -1  16   59.02    4.44  -1
  -1  -5 -13   59.02    4.44   2
   1  -1  16   63.79    6.69  -1
  -1  -5 -13   63.79    6.69   2
   1  -1  17   11.97    3.19   1
   1  -1  17    0.26    3.34   1
   1  -1  18   11.90    3.51   1
   1  -1  18   15.55    3.86   1
   1  -1  19    5.68    3.13   1
   1  -1  19    0.80    2.12   1
  -1   0  20    1.93    1.85   1
  -1   0  19   11.34    3.72  -1
   1  -6 -16   11.34    3.72   2
  -1   0  19   15.58    5.50  -1
   1  -6 -16   15.58    5.50   2
  -1   0  18   11.01    2.56   1
  -1   0  18   11.21    2.02   1
  -1   0  17   16.95    2.88   1
  -1   0  17   12.94    3.26   1
  -1   0  16   24.38    2.06   1
  -1   0  15   10.92    2.55   1
   1   0 -14    2.35    1.76   1
  -1   0  14    3.03    1.86   1
   1   0 -13   81.00    4.52   1
  -1   0  13  266.57   13.77  -1
   1  -4 -11  266.57   13.77   2
   1   0 -12   10.73    3.04  -1
  -1   4  10   10.73    3.04   2
  -1   0  12    2.20    3.41  -1
   1  -4 -10    2.20    3.41   2
   1   0 -11   43.21    2.76   1
  -1   0  11   38.81    2.83   1
   1   0 -10   87.23    3.76   1
  -1   0  10   98.41    4.16   1
   1   0  -9  191.90    6.56   1
  -1   0   9  181.92    6.48   1
   1   0  -8   88.98    3.50   1
  -1   0   8   84.76    3.52   1
   1   0  -7    0.67    1.27   1
  -1   0   7    1.24    1.31   1
   1   0  -6   23.02    1.73   1
   1   0  -5 1223.28   54.26   1
  -1   0   5 2159.74  126.63  -1
   1  -2  -4 2159.74  126.63   2
   1   0  -4   35.87    2.26   1
  -1   0   4   34.39    2.20   1
   1   0  -3  115.65    3.05   1
  -1   0   3  117.17    3.58   1
   1   0  -2   66.74    1.98   1
  -1   0   2   66.22    1.76   1
   1   0  -1  466.67   13.42   1
   1   0  -1  453.22   12.89   1
  -1   0   1  467.43   13.32   1
  -1   0   1  489.18   13.46   1
   1   0   0    1.26    1.36   1
   1   0   0    0.89    1.17   1
  -1   0   0   -0.14    1.40   1
  -1   0   0    0.74    0.64   1
   1   0   1   20.70    2.40   1
   1   0   1   15.54    1.24   1
  -1   0  -1   16.12    1.29   1
   1   0   2   44.96    2.14   1
  -1   0  -2   48.07    2.20   1
   1   0   3   42.70    3.28   1
  -1   0  -3   33.73    2.05   1
   1   0   4   97.77    4.60   1
  -1   0  -4  106.71    4.81   1
   1   0   5   24.66    2.78   1
  -1   0  -5   27.95    2.68   1
   1   0   6   89.20    4.62   1
  -1   0  -6   90.03    4.27   1
   1   0   7  345.67   13.75   1
  -1   0  -7  370.19   13.82   1
   1   0   8   98.32    6.44  -1
  -1  -2  -7   98.32    6.44   2
  -1   0  -8  101.23    6.72  -1
   1   2   7  101.23    6.72   2
   1   0   9   66.07    5.55  -1
  -1  -2  -8   66.07    5.55   2
  -1   0  -9   66.35    4.63  -1
   1   2   8   66.35    4.63   2
   1   0  10   19.47    3.03   1
  -1   0 -10   23.13    2.52   1
   1   0  11    4.74    1.64   1
  -1   0 -11    6.26    1.52   1
   1   0  12   15.59    2.98   1
   1   0  13    7.19    2.82   1
   1   0  14    5.92    2.89   1
   1   0  15    8.50    4.15  -1
  -1  -4 -13    8.50    4.15   2
   1   0  15    3.06    4.79  -1
  -1  -4 -13    3.06    4.79   2
   1   0  16   20.69    5.36  -1
  -1  -4 -14   20.69    5.36   2
   1   0  16   10.62    5.59  -1
  -1  -4 -14   10.62    5.59   2
   1   0  17   14.21    3.29   1
   1   0  17   12.23    3.80   1
   1   0  18   32.40    4.15   1
   1   0  18   28.71    3.24   1
   1   0  19    4.58    3.11   1
   1   0  19    3.32    3.47   1
  -1  -1  20    9.98    2.90  -1
   1  -7 -16    9.98    2.90   2
  -1  -1  19    0.26    2.31   1
  -1  -1  19    0.99    2.60   1
  -1  -1  18   10.35    2.69   1
  -1  -1  18   14.50    3.17   1
  -1  -1  17   18.72    2.81   1
  -1  -1  17   10.99    2.03   1
  -1  -1  16   14.27    2.78   1
  -1  -1  16   18.50    3.04   1
  -1  -1  15    4.86    2.31   1
  -1  -1  15    7.17    2.60   1
  -1  -1  14   29.06    2.96   1
  -1  -1  14   29.64    3.19   1
   1   1 -13    2.35    3.14  -1
  -1   5  10    2.35    3.14   2
  -1  -1  13    6.04    2.78  -1
   1  -5 -10    6.04    2.78   2
  -1  -1  13    4.58    2.99  -1
   1  -5 -10    4.58    2.99   2
   1   1 -12   24.75    2.62   1
  -1  -1  12   25.68    2.69   1
  -1  -1  12   27.01    2.88   1
   1   1 -11   21.86    2.37   1
  -1  -1  11   21.66    2.52   1
  -1  -1  11   23.91    2.36   1
   1   1 -10    2.98    1.74   1
  -1  -1  10    3.68    1.79   1
  -1  -1  10    3.62    1.74   1
   1   1  -9   18.53    2.10   1
  -1  -1   9   18.81    2.11   1
  -1  -1   9   19.88    2.05   1
   1   1  -8    6.95    1.79   1
  -1  -1   8    9.76    1.75   1
  -1  -1   8    7.17    1.57   1
   1   1  -7   58.61    2.98   1
  -1  -1   7   49.36    2.92   1
  -1  -1   7   55.79    2.69   1
   1   1  -6  293.86   11.14  -1
  -1   3   4  293.86   11.14   2
  -1  -1   6  274.87   10.68  -1
   1  -3  -4  274.87   10.68   2
  -1  -1   6  288.81    9.61  -1
   1  -3  -4  288.81    9.61   2
   1   1  -5  189.87    6.36   1
  -1  -1   5  190.10    6.47   1
  -1  -1   5  196.03    5.68   1
   1   1  -4   82.05    3.27   1
  -1  -1   4   78.40    3.38   1
  -1  -1   4   83.43    2.79   1
   1   1  -3   20.12    2.01   1
   1   1  -3   21.98    1.00   1
  -1  -1   3   18.14    1.92   1
  -1  -1   3   20.56    1.17   1
   1   1  -2    4.81    1.59   1
  -1  -1   2    3.68    1.63   1
  -1  -1   2    3.75    0.56   1
   1   1  -1  116.56    4.59   1
  -1  -1   1  122.94    4.49   1
   1   1   0   91.96    4.35   1
  -1  -1   0   94.87    4.28   1
   1   1   1  138.19    4.77  -1
  -1   1  -2  138.19    4.77   2
  -1  -1  -1  130.39    4.34  -1
   1  -1   2  130.39    4.34   2
   1   1   2  112.56    4.93   1
  -1  -1  -2  114.77    3.88   1
   1   1   3   17.24    1.58   1
  -1  -1  -3   17.83    1.59   1
   1   1   4  116.21    5.17   1
  -1  -1  -4  126.73    5.33   1
   1   1   5   51.80    2.40   1
  -1  -1  -5   62.30    3.50   1
   1   1   6    4.53    2.15   1
  -1  -1  -6    5.08    1.98   1
   1   1   7  791.42   31.74   1
  -1  -1  -7  826.80   32.98   1
   1   1   8   86.28    3.80  -1
  -1  -1  -8   86.28    3.80   2
  -1  -1  -8   86.70    4.61  -1
   1   1   8   86.70    4.61   2
   1   1   9   30.04    2.01   1
   1   1  10   61.76    2.91   1
  -1  -1 -10   74.33    3.78   1
   1   1  11   17.95    2.00   1
  -1  -1 -11   14.77    2.46   1
   1   1  12   53.20    4.28   1
   1   1  13   20.13    3.39   1
   1   1  14    1.55    3.44  -1
  -1  -3 -13    1.55    3.44   2
   1   1  15   67.70    4.32  -1
  -1  -3 -14   67.70    4.32   2
   1   1  16   11.22    3.20   1
   1   1  17   18.89    3.48   1
   1   1  18    5.93    3.10   1
   1   1  19   46.46    4.63   1
   1   1  19   45.28    5.41   1
  -1  -2  19    5.42    1.77   1
  -1  -2  19    8.23    2.71   1
  -1  -2  18   15.41    3.09   1
  -1  -2  18   14.67    2.81   1
  -1  -2  17   14.67    2.96   1
  -1  -2  17    6.93    2.60   1
  -1  -2  16   11.18    2.97   1
  -1  -2  16   11.45    2.76   1
  -1  -2  15   -0.53    2.45   1
  -1  -2  15   -1.15    2.15   1
  -1  -2  14   34.65    3.69   1
  -1  -2  14  138.45   10.55  -1
   1  -6 -10  138.45   10.55   2
  -1  -2  13   15.02    3.54  -1
   1  -6  -9   15.02    3.54   2
  -1  -2  13    4.83    4.00  -1
   1  -6  -9    4.83    4.00   2
   1   2 -12   23.30    2.66   1
  -1  -2  12   20.39    2.96   1
  -1  -2  12   21.41    2.54   1
   1   2 -11   70.25    3.10   1
  -1  -2  11   67.01    4.13   1
  -1  -2  11   70.12    3.71   1
   1   2 -10  102.57    4.83   1
  -1  -2  10   98.08    5.06   1
  -1  -2  10  104.93    4.55   1
   1   2  -9   46.58    3.27   1
  -1  -2   9   54.60    3.32   1
  -1  -2   9   53.46    2.87   1
   1   2  -8   -0.33    1.74   1
  -1  -2   8   -0.14    1.08   1
  -1  -2   8    1.25    1.35   1
   1   2  -7   -0.30    1.77   1
  -1  -2   7    4.26    1.12   1
  -1  -2   7    3.47    1.42   1
   1   2  -6 1136.79   61.48  -1
  -1   4   3 1136.79   61.48   2
   1   2  -6 1117.48   56.00  -1
  -1   4   3 1117.48   56.00   2
  -1  -2   6 1141.70   59.72  -1
   1  -4  -3 1141.70   59.72   2
  -1  -2   6 1084.42   52.87  -1
   1  -4  -3 1084.42   52.87   2
   1   2  -5   17.80    1.37   1
   1   2  -5   15.99    1.31   1
  -1  -2   5   19.05    2.50   1
  -1  -2   5   16.20    1.34   1
   1   2  -4   78.68    3.77   1
   1   2  -4   79.90    2.58   1
  -1  -2   4   69.79    3.68   1
  -1  -2   4   74.03    2.86   1
   1   2  -3   51.77    2.22   1
   1   2  -3   55.54    1.93   1
  -1  -2   3   49.02    3.23   1
  -1  -2   3   53.90    2.35   1
   1   2  -2   91.64    4.13   1
   1   2  -2   88.24    2.72   1
  -1  -2   2   98.72    4.67   1
  -1  -2   2   75.94    2.44   1
   1   2  -1    6.38    1.45   1
   1   2  -1    6.63    1.24   1
   1   2  -1    5.01    1.40   1
   1   2   0   17.26    1.60   1
  -1  -2   0   18.49    2.52   1
   1   2   1   90.15    6.44  -1
  -1   2  -3   90.15    6.44   2
  -1  -2  -1  105.85    6.59  -1
   1  -2   3  105.85    6.59   2
   1   2   2    4.82    2.20   1
  -1  -2  -2    2.49    1.27   1
   1   2   3   62.55    2.69   1
  -1  -2  -3   72.09    3.88   1
   1   2   4   15.78    2.61   1
  -1  -2  -4   25.06    2.49   1
   1   2   5   60.44    3.86   1
  -1  -2  -5   66.52    3.56   1
   1   2   6  323.52   12.76   1
  -1  -2  -6  352.80   12.97   1
   1   2   7   48.27    2.46   1
  -1  -2  -7  107.25    6.69  -1
   1   0   8  107.25    6.69   2
   1   2   8   60.09    4.87  -1
  -1   0  -9   60.09    4.87   2
  -1  -2  -8   60.74    4.21  -1
   1   0   9   60.74    4.21   2
   1   2   9   19.09    2.96   1
  -1  -2  -9   22.48    2.52   1
   1   2  10    2.37    2.39   1
  -1  -2 -10    2.86    1.31   1
   1   2  11    8.27    1.76   1
   1   2  12   11.15    1.78   1
   1   2  13   13.23    1.93   1
   1   2  14    8.34    4.58  -1
  -1  -2 -14    8.34    4.58   2
   1   2  15   19.22    4.12  -1
  -1  -2 -15   19.22    4.12   2
   1   2  16   17.46    3.55   1
   1   2  17   32.16    3.93   1
   1   2  18    4.37    1.91   1
   1   2  19   40.20    4.33   1
  -1  -3  19    8.68    2.94   1
  -1  -3  19    4.16    2.84   1
  -1  -3  18    7.56    2.83   1
  -1  -3  18    4.38    2.57   1
  -1  -3  17    7.77    2.90   1
  -1  -3  17    9.81    2.68   1
  -1  -3  16    1.98    2.50   1
  -1  -3  16    4.04    2.29   1
  -1  -3  15    9.24    2.77   1
  -1  -3  15    6.91    2.48   1
  -1  -3  14    1.28    3.91  -1
   1  -7  -9    1.28    3.91   2
  -1  -3  14    0.88    3.10  -1
   1  -7  -9    0.88    3.10   2
  -1  -3  13   13.28    1.76   1
  -1  -3  13    6.42    2.45   1
  -1  -3  12   17.55    2.77   1
  -1  -3  12   13.31    2.17   1
   1   3 -11    2.56    2.12   1
  -1  -3  11    1.95    2.35   1
  -1  -3  11    0.36    1.60   1
   1   3 -10   11.88    1.54   1
  -1  -3  10    9.88    2.61   1
  -1  -3  10    8.99    1.91   1
   1   3  -9    5.92    2.11   1
  -1  -3   9    2.98    2.41   1
  -1  -3   9    3.88    1.62   1
   1   3  -8   24.53    1.82   1
   1   3  -8   27.41    1.99   1
  -1  -3   8   29.85    2.93   1
  -1  -3   8   24.28    2.04   1
   1   3  -7  154.90    7.49  -1
  -1   5   3  154.90    7.49   2
   1   3  -7  161.27    7.67  -1
  -1   5   3  161.27    7.67   2
  -1  -3   7  152.38    8.67  -1
   1  -5  -3  152.38    8.67   2
  -1  -3   7  153.30    6.21  -1
   1  -5  -3  153.30    6.21   2
   1   3  -6  120.99    5.38   1
   1   3  -6  119.61    4.18   1
  -1  -3   6  116.19    4.37   1
  -1  -3   6  114.08    4.04   1
   1   3  -5   52.91    2.30   1
   1   3  -5   54.56    2.86   1
  -1  -3   5   54.82    3.60   1
  -1  -3   5   49.71    2.24   1
   1   3  -4   11.44    2.39   1
   1   3  -4   13.34    1.42   1
  -1  -3   4    9.47    1.49   1
  -1  -3   4   12.74    1.35   1
   1   3  -3    6.27    2.16   1
   1   3  -3    4.30    1.26   1
  -1  -3   3   11.02    1.36   1
  -1  -3   3    5.31    1.78   1
   1   3  -2   21.84    1.65   1
   1   3  -2   23.77    1.69   1
  -1  -3   2   26.24    1.99   1
  -1  -3   2   27.18    1.92   1
   1   3  -1   44.52    3.34   1
   1   3  -1   45.49    3.16   1
   1   3  -1   41.45    2.23   1
   1   3   0   62.70    3.22  -1
  -1   3  -3   62.70    3.22   2
  -1  -3   0   65.41    4.34  -1
   1  -3   3   65.41    4.34   2
   1   3   1   50.77    3.55   1
  -1  -3  -1   61.94    3.50   1
   1   3   2   -0.81    2.14   1
  -1  -3  -2    0.74    1.88   1
   1   3   3   59.49    3.91   1
  -1  -3  -3   69.53    3.57   1
   1   3   4   46.19    3.55   1
  -1  -3  -4   44.93    2.19   1
   1   3   5    0.72    2.13   1
  -1  -3  -5    2.14    1.97   1
   1   3   6  606.70   27.47   1
  -1  -3  -6  625.61   26.87   1
   1   3   7   70.33    4.97  -1
  -1   1  -9   70.33    4.97   2
  -1  -3  -7   67.18    4.26  -1
   1  -1   9   67.18    4.26   2
  -1  -3  -8   32.08    2.78   1
   1   3   8   55.77    6.82  -1
  -1   1 -10   55.77    6.82   2
   1   3   9   67.87    4.56   1
  -1  -3  -9   62.35    3.83   1
   1   3  10   27.03    3.44   1
   1   3  11   44.67    3.81   1
   1   3  12   28.45    3.64   1
   1   3  13    7.78    4.74  -1
  -1  -1 -14    7.78    4.74   2
   1   3  14   75.90    5.88  -1
  -1  -1 -15   75.90    5.88   2
   1   3  15   18.79    5.40  -1
  -1  -1 -16   18.79    5.40   2
   1   3  16   13.10    3.30   1
   1   3  16   48.06    7.04  -1
  -1  -1 -17   48.06    7.04   2
   1   3  17    2.43    2.75   1
   1   3  18   49.04    4.77   1
  -1  -4  19    4.84    2.97   1
  -1  -4  18    9.66    3.14   1
  -1  -4  18    4.15    2.55   1
  -1  -4  17   11.28    3.03   1
  -1  -4  17    4.68    2.37   1
  -1  -4  16    6.42    2.75   1
  -1  -4  16    0.14    2.15   1
  -1  -4  15    7.85    3.15   1
  -1  -4  15   11.94    2.28   1
  -1  -4  14    0.17    5.20  -1
   1  -8  -8    0.17    5.20   2
  -1  -4  14    7.32    3.81  -1
   1  -8  -8    7.32    3.81   2
  -1  -4  13    9.18    1.97   1
  -1  -4  13    9.58    2.31   1
  -1  -4  12   44.67    4.07   1
  -1  -4  12   34.06    2.77   1
  -1  -4  11   45.13    4.40   1
  -1  -4  11   40.58    5.04  -1
   1  -7  -6   40.58    5.04   2
   1   4 -10   19.50    2.19   1
  -1  -4  10   20.20    3.33   1
  -1  -4  10   21.43    2.25   1
   1   4  -9    1.14    1.38   1
  -1  -4   9    1.97    1.62   1
  -1  -4   9   -1.80    1.56   1
   1   4  -8    0.41    1.97   1
   1   4  -8    1.49    1.37   1
  -1  -4   8    1.28    2.51   1
  -1  -4   8   -3.00    1.49   1
   1   4  -7  298.30   13.35   1
   1   4  -7  483.13   23.50  -1
  -1   6   2  483.13   23.50   2
  -1  -4   7  468.52   24.13  -1
   1  -6  -2  468.52   24.13   2
  -1  -4   7  424.46   20.72  -1
   1  -6  -2  424.46   20.72   2
   1   4  -6    7.00    1.41   1
   1   4  -6    9.36    1.60   1
  -1  -4   6   13.89    2.79   1
  -1  -4   6    9.18    2.16   1
   1   4  -5   35.52    2.13   1
   1   4  -5   35.87    2.18   1
  -1  -4   5   36.55    2.25   1
  -1  -4   5   34.29    2.17   1
   1   4  -4   38.66    3.17   1
   1   4  -4   33.28    2.05   1
  -1  -4   4   34.29    3.39   1
  -1  -4   4   30.49    2.12   1
   1   4  -3    9.49    2.25   1
   1   4  -3    7.25    1.44   1
  -1  -4   3    6.91    1.56   1
  -1  -4   3    5.52    1.52   1
   1   4  -2    7.86    2.12   1
   1   4  -2    5.34    1.45   1
  -1  -4   2   -0.28    1.53   1
  -1  -4   2   -0.50    1.09   1
   1   4  -1   11.88    2.23   1
   1   4  -1    7.70    2.25   1
   1   4  -1    8.91    1.68   1
   1   4   0   28.88    3.02   1
   1   4   0   26.46    3.15   1
   1   4   0   24.57    2.20   1
   1   4   1    7.80    2.43   1
  -1  -4  -1    3.39    2.10   1
   1   4   2   30.16    3.17   1
  -1  -4  -2   30.95    1.98   1
   1   4   3   18.62    2.81   1
  -1  -4  -3   13.28    2.61   1
   1   4   4   27.91    3.31   1
  -1  -4  -4   29.08    1.99   1
   1   4   5  187.98    6.86   1
  -1  -4  -5  196.66    8.01   1
   1   4   6   69.88    5.91  -1
  -1   2  -9   69.88    5.91   2
  -1  -4  -6   76.82    5.57  -1
   1  -2   9   76.82    5.57   2
   1   4   7   48.95    6.48  -1
  -1   2 -10   48.95    6.48   2
  -1  -4  -7   52.89    5.89  -1
   1  -2  10   52.89    5.89   2
   1   4   8   13.67    1.99   1
  -1  -4  -8   19.43    2.62   1
   1   4  10    1.57    2.70   1
   1   4  11    9.40    3.04   1
   1   4  12    9.34    3.11   1
   1   4  14   16.93    4.89  -1
  -1   0 -16   16.93    4.89   2
   1   4  15   11.04    3.33   1
   1   4  16   21.59    3.51   1
   1   4  17    7.47    3.03   1
   1   4  18   38.94    4.33   1
  -1  -5  18   11.43    3.14   1
  -1  -5  17    5.84    3.31   1
  -1  -5  16    0.91    1.93   1
  -1  -5  16    2.79    2.17   1
  -1  -5  15    4.53    4.26  -1
   1  -9  -8    4.53    4.26   2
  -1  -5  15    2.59    3.41  -1
   1  -9  -8    2.59    3.41   2
  -1  -5  14    1.88    3.17   1
  -1  -5  14    3.37    1.99   1
  -1  -5  13    6.56    3.07   1
  -1  -5  13    4.63    2.18   1
  -1  -5  12    1.61    1.82   1
  -1  -5  12    3.65    3.31  -1
   1  -8  -6    3.65    3.31   2
  -1  -5  11    8.34    3.26   1
  -1  -5  11    8.71    2.15   1
   1   5 -11   24.99    3.99  -1
  -1   8   4   24.99    3.99   2
   1   5 -10    2.80    1.86   1
  -1  -5  10   -0.54    1.83   1
  -1  -5  10    1.43    1.67   1
   1   5  -9   10.44    2.06   1
  -1  -5   9   13.89    3.30   1
  -1  -5   9   13.56    1.96   1
   1   5  -8   60.65    4.81  -1
  -1   7   2   60.65    4.81   2
  -1  -5   8   57.83    6.66  -1
   1  -7  -2   57.83    6.66   2
  -1  -5   8   58.64    4.31  -1
   1  -7  -2   58.64    4.31   2
   1   5  -7   57.07    4.00   1
  -1  -5   7   54.75    4.31   1
  -1  -5   7   51.73    3.10   1
   1   5  -6   30.27    2.48   1
  -1  -5   6   33.69    3.70   1
  -1  -5   6   26.29    2.29   1
   1   5  -5    7.51    2.36   1
   1   5  -5    6.38    1.72   1
  -1  -5   5    6.98    2.75   1
  -1  -5   5    7.01    1.69   1
   1   5  -4    5.12    1.52   1
   1   5  -4    5.76    1.60   1
  -1  -5   4    5.19    2.56   1
  -1  -5   4    2.76    1.62   1
   1   5  -3    2.79    2.21   1
  -1  -5   3    4.30    2.83   1
  -1  -5   3    2.90    1.52   1
   1   5  -2   15.28    1.70   1
   1   5  -2   16.47    2.87   1
   1   5  -2   16.06    1.92   1
   1   5  -1   33.11    3.61  -1
  -1   5  -4   33.11    3.61   2
   1   5  -1   26.35    2.49  -1
  -1   5  -4   26.35    2.49   2
   1   5  -1   37.20    3.08  -1
  -1   5  -4   37.20    3.08   2
   1   5   0   25.87    2.86   1
   1   5   0   29.87    3.29   1
   1   5   0   23.46    2.32   1
   1   5   1    4.96    2.50   1
   1   5   1    4.42    1.57   1
   1   5   1    7.11    2.02   1
   1   5   2   32.28    3.37   1
  -1  -5  -2   24.94    2.94   1
   1   5   3   22.45    3.24   1
  -1  -5  -3   22.02    2.53   1
   1   5   4   -0.01    1.42   1
  -1  -5  -4    1.09    1.33   1
   1   5   5  275.43   12.46   1
  -1  -5  -5  265.54   10.64   1
   1   5   6   44.27    4.90  -1
  -1   3 -10   44.27    4.90   2
   1   5   7   21.27    3.28   1
   1   5   8   39.68    3.93   1
   1   5   9   16.62    3.45   1
   1   5  10   31.75    2.73   1
   1   5  11   21.49    3.52   1
   1   5  12   10.20    5.97  -1
  -1   1 -15   10.20    5.97   2
   1   5  13   65.89    6.51  -1
  -1   1 -16   65.89    6.51   2
   1   5  14    3.78    1.85   1
   1   5  15    7.72    2.02   1
   1   5  16    6.64    1.87   1
   1   5  17   25.79    2.69   1
  -1  -6  17    5.28    3.30   1
  -1  -6  16   -4.80    3.36   1
  -1  -6  15   -0.02    5.57  -1
   1 -10  -7   -0.02    5.57   2
  -1  -6  14    1.85    3.30   1
  -1  -6  14    1.27    2.04   1
  -1  -6  13   19.22    3.65   1
  -1  -6  13   12.00    2.50   1
  -1  -6  12   14.32    3.70   1
   1   6 -12    6.97    4.07  -1
  -1   9   5    6.97    4.07   2
  -1  -6  12   10.44    3.73  -1
   1  -9  -5   10.44    3.73   2
   1   6 -11    9.36    2.32   1
  -1  -6  11   10.03    2.18   1
  -1  -6  11    5.92    1.98   1
   1   6 -10    0.36    1.99   1
  -1  -6  10    2.55    2.96   1
  -1  -6  10    0.93    1.76   1
   1   6  -9    2.68    1.99   1
  -1  -6   9   -2.45    1.75   1
  -1  -6   9    0.52    1.80   1
   1   6  -8  118.49    6.64   1
  -1  -6   8  202.93   14.00  -1
   1  -8  -1  202.93   14.00   2
  -1  -6   8  177.35   11.13  -1
   1  -8  -1  177.35   11.13   2
   1   6  -7    7.54    1.97   1
  -1  -6   7    6.74    3.14   1
  -1  -6   7    5.35    1.81   1
   1   6  -6   13.54    2.14   1
  -1  -6   6   18.53    3.48   1
  -1  -6   6   14.81    2.08   1
   1   6  -5   17.85    2.23   1
  -1  -6   5   19.31    3.28   1
  -1  -6   5   13.87    2.02   1
   1   6  -4    0.05    1.45   1
  -1  -6   4    3.28    2.73   1
  -1  -6   4   -1.62    1.59   1
   1   6  -3    3.61    1.75   1
  -1  -6   3    1.22    1.82   1
  -1  -6   3    3.59    1.37   1
   1   6  -2    7.76    1.52   1
   1   6  -2    5.68    1.83   1
   1   6  -1   11.27    2.02   1
   1   6  -1   22.98    3.71  -1
  -1   6  -5   22.98    3.71   2
   1   6   0    5.79    3.06   1
   1   6   0    6.61    2.00   1
   1   6   1   13.20    1.92   1
   1   6   1   10.52    2.26   1
   1   6   2    5.34    2.56   1
   1   6   3   13.34    3.13   1
   1   6   4   90.54    6.01   1
   1   6   5   45.56    5.70  -1
  -1   4 -10   45.56    5.70   2
   1   6   6   25.56    5.54  -1
  -1   4 -11   25.56    5.54   2
   1   6   7    7.58    3.10   1
   1   6   8    4.51    1.81   1
   1   6   9    3.11    2.88   1
   1   6  10   -0.20    3.01   1
   1   6  11   11.20    2.14   1
   1   6  12    9.22    4.42  -1
  -1   2 -16    9.22    4.42   2
   1   6  13   10.39    4.84  -1
  -1   2 -17   10.39    4.84   2
   1   6  14    6.56    3.20   1
   1   6  15   11.32    3.47   1
   1   6  16    1.64    2.98   1
  -1  -7  16   -0.38    5.56  -1
   1 -11  -7   -0.38    5.56   2
  -1  -7  15   -0.63    2.04   1
  -1  -7  14    2.42    3.10   1
  -1  -7  14   -0.58    1.91   1
  -1  -7  13    3.23    3.39   1
  -1  -7  13   -4.26    1.98   1
  -1  -7  12    4.48    2.18   1
  -1  -7  12    5.93    2.22   1
  -1  -7  11    2.11    3.29   1
  -1  -7  11    2.40    2.10   1
  -1  -7  10    1.43    3.30   1
  -1  -7  10    0.84    1.90   1
   1   7  -9   22.34    4.24  -1
  -1   9   1   22.34    4.24   2
  -1  -7   9   18.38    5.82  -1
   1  -9  -1   18.38    5.82   2
  -1  -7   9   18.26    3.39  -1
   1  -9  -1   18.26    3.39   2
   1   7  -8   13.36    2.79   1
  -1  -7   8   25.18    2.63   1
  -1  -7   8   18.40    2.53   1
   1   7  -7   11.00    2.38   1
  -1  -7   7   11.04    3.57   1
  -1  -7   7   11.76    2.29   1
   1   7  -6    3.86    2.07   1
  -1  -7   6    3.38    3.24   1
  -1  -7   6    5.80    1.90   1
   1   7  -5    2.46    1.87   1
  -1  -7   5    5.60    3.41   1
  -1  -7   5    3.71    1.97   1
   1   7  -4   -1.47    1.81   1
  -1  -7   4   -2.12    1.90   1
  -1  -7   4   -0.38    1.40   1
   1   7  -3   -3.89    2.77   1
   1   7  -3    2.15    1.84   1
   1   7  -2   19.86    3.81  -1
  -1   7  -5   19.86    3.81   2
   1   7  -2   13.92    2.99  -1
  -1   7  -5   13.92    2.99   2
   1   7  -1   16.79    3.49   1
   1   7   0   11.77    3.08   1
   1   7   1    9.65    1.95   1
   1   7   2    8.95    1.95   1
   1   7   3   -0.14    2.70   1
   1   7   4  108.62    7.10   1
   1   7   5   28.61    4.52  -1
  -1   5 -11   28.61    4.52   2
   1   7   6   11.82    3.31   1
   1   7   7   22.52    3.88   1
   1   7   8   11.99    2.27   1
   1   7   9    9.88    3.43   1
   1   7  10   26.00    4.23   1
   1   7  11    3.66    3.22   1
   1   7  12   45.73    4.52  -1
  -1   3 -17   45.73    4.52   2
   1   7  13    0.99    1.70   1
   1   7  14    3.31    3.01   1
   1   7  15   -0.96    3.08   1
  -1  -8  14   12.12    4.00   1
  -1  -8  13    7.45    3.72   1
  -1  -8  12    4.46    2.30   1
  -1  -8  12    3.08    2.12   1
  -1  -8  11    2.82    3.66   1
  -1  -8  11    3.67    1.92   1
  -1  -8  10   -0.30    2.13   1
  -1  -8  10   -4.31    1.95   1
  -1  -8   9   45.63    5.48   1
  -1  -8   9   51.71    5.77  -1
   1 -10   0   51.71    5.77   2
  -1  -8   8    7.71    2.09   1
  -1  -8   8    0.61    1.99   1
  -1  -8   7    6.60    3.68   1
  -1  -8   7    6.62    2.31   1
  -1  -8   6   13.67    4.09   1
  -1  -8   6   11.25    1.50   1
  -1  -8   5    0.22    2.18   1
  -1  -8   5   -0.75    1.42   1
   1   8  -4    6.74    2.01   1
   1   8  -3    3.46    1.85   1
   1   8  -2    1.07    1.81   1
   1   8  -1    5.47    2.07   1
   1   8   0    3.56    2.03   1
   1   8   1    2.72    2.03   1
   1   8   2    3.01    2.96   1
   1   8   3   25.44    3.92   1
   1   8   4   20.26    7.14  -1
  -1   6 -11   20.26    7.14   2
   1   8   5   11.64    3.26   1
   1   8   6   10.41    2.16   1
   1   8   7    1.95    3.01   1
   1   8   8    4.02    3.25   1
   1   8   9    1.29    3.16   1
   1   8  10    4.82    3.30   1
   1   8  11    9.93    5.39  -1
  -1   4 -17    9.93    5.39   2
   1   8  12    8.44    2.09   1
   1   8  13    6.72    3.14   1
  -1  -9  13    5.80    3.72   1
  -1  -9  12   -2.07    3.57   1
  -1  -9  11    6.62    3.25   1
  -1  -9  11    0.99    2.21   1
  -1  -9  10    1.83    3.39  -1
   1 -11   0    1.83    3.39   2
  -1  -9  10    4.98    3.51  -1
   1 -11   0    4.98    3.51   2
  -1  -9   9    0.59    3.96   1
  -1  -9   9    3.18    2.15   1
  -1  -9   8    6.85    2.64   1
  -1  -9   8    7.54    2.46   1
  -1  -9   7    2.44    3.76   1
  -1  -9   7   -0.66    2.03   1
  -1  -9   6    2.57    2.54   1
  -1  -9   6    3.89    1.68   1
   1   9  -5    0.71    2.05   1
   1   9  -4    1.77    1.88   1
   1   9  -3    9.27    4.12  -1
  -1   9  -6    9.27    4.12   2
   1   9  -2   13.55    3.88   1
   1   9  -1   11.10    3.93   1
   1   9   0    3.50    3.26   1
   1   9   1    9.65    3.64   1
   1   9   2   -1.02    2.97   1
   1   9   3   36.44    4.76   1
   1   9   4   11.68    4.42  -1
  -1   7 -12   11.68    4.42   2
   1   9   5    2.45    3.26   1
   1   9   6    9.53    3.68   1
   1   9   7    1.54    1.96   1
   1   9   8    5.77    2.15   1
   1   9   9   10.61    2.50   1
   1   9  10    0.61    2.93   1
   1   9  11   19.60    6.11  -1
  -1   5 -18   19.60    6.11   2
  -1 -10  10    6.93    2.70   1
  -1 -10   9    3.60    4.06   1
  -1 -10   9    0.27    1.34   1
  -1 -10   8    3.27    2.42   1
  -1 -10   8    2.50    2.70   1
  -1 -10   7    0.24    2.39   1
  -1 -10   7    0.40    1.68   1
   1  10  -6    2.82    3.40   1
   1  10  -5    3.93    2.11   1
   1  10  -4    0.39    3.10   1
   1  10  -3    6.75    3.55   1
   1  10  -2    4.14    2.33   1
   1  10  -1    1.21    2.22   1
   1  10   0    3.14    3.64   1
   1  10   1    6.34    3.34   1
   1  10   2    8.11    3.69   1
   1  10   3    3.63    3.54   1
   1  10   4    3.59    3.54   1
   1  10   5    6.23    3.37   1
   1  10   6   -0.63    3.16   1
   1  10   7    1.20    3.19   1
   1  10   8    4.96    3.53   1
   1  11  -6    4.33    2.16   1
   1  11  -5    2.34    3.40   1
   1  11  -4    5.74    4.48  -1
  -1  11  -7    5.74    4.48   2
   1  11  -3    0.37    2.11   1
   1  11  -2    6.89    3.94   1
   1  11   0    5.98    3.73   1
   1  11   1   -2.19    2.03   1
   1  11   2    9.67    2.29   1
   1  11   3    3.82    2.74  -1
  -1   9 -13    3.82    2.74   2
   1  11   4    4.61    3.49   1
  -2  12   3    2.91    3.36   1
  -2  12   2    3.92    3.33   1
  -2  12   1    5.71    3.46   1
  -2  12   0   13.17    3.84   1
  -2  12  -1    1.19    3.21   1
  -2  12  -2    2.36    3.57  -1
   2  10  -9    2.36    3.57   2
   2 -12   3    1.12    2.38   1
  -2  11   8    6.05    3.10   1
  -2  11   7    3.89    2.97   1
  -2  11   6   -0.18    1.57   1
  -2  11   5    7.47    4.11  -1
   2   7 -14    7.47    4.11   2
  -2  11   4    5.15    3.22   1
  -2  11   3    7.58    3.30   1
  -2  11   2    3.35    3.24   1
  -2  11   1   -0.99    3.06   1
  -2  11   0   10.60    3.51   1
   2 -11   1   -1.84    2.11   1
   2 -11   1    4.04    2.46   1
   2 -11   2    6.25    4.34  -1
  -2  -9   8    6.25    4.34   2
   2 -11   2   -3.96    6.01  -1
  -2  -9   8   -3.96    6.01   2
   2 -11   3    3.42    2.17   1
   2 -11   3   -2.24    1.89   1
   2 -11   4    2.04    3.38   1
   2 -11   4   -2.90    3.16   1
   2 -11   5    6.52    3.77   1
   2 -11   5    7.33    3.49   1
   2 -11   6    1.18    2.26   1
   2 -11   6   -2.48    3.05   1
   2 -11   7   -1.22    3.70   1
   2 -11   7    3.11    1.98   1
   2 -11   8    4.28    2.50   1
   2 -11   8    3.61    3.29   1
  -2  10  11    5.49    2.69   1
  -2  10  10   -1.10    2.54   1
  -2  10   9    1.59    2.74   1
  -2  10   8   -1.25    2.54   1
  -2  10   7    1.52    1.71   1
  -2  10   6    7.23    4.96  -1
   2   6 -14    7.23    4.96   2
  -2  10   5   10.69    3.19   1
  -2  10   4    8.93    3.47   1
  -2  10   3   -3.25    1.86   1
  -2  10   2    9.79    3.21   1
  -2  10   1   34.88    4.46   1
   2 -10   0   -1.15    1.85   1
   2 -10   0    4.13    2.35   1
   2 -10   1   18.04    6.44  -1
  -2  -8   8   18.04    6.44   2
   2 -10   1   13.01    6.02  -1
  -2  -8   8   13.01    6.02   2
   2 -10   2   -2.45    3.13   1
   2 -10   2   -0.50    2.88   1
   2 -10   3    0.95    1.92   1
   2 -10   3   -3.77    2.95   1
   2 -10   4    1.32    3.17   1
   2 -10   4    2.21    1.80   1
   2 -10   5    6.34    3.64   1
   2 -10   5    5.28    2.19   1
   2 -10   6    4.42    2.37   1
   2 -10   6    4.77    3.31   1
   2 -10   7    3.32    3.79   1
   2 -10   7    2.17    2.69   1
   2 -10   8    5.74    3.50  -1
  -2 -10   2    5.74    3.50   2
   2 -10   8   10.67    4.61  -1
  -2 -10   2   10.67    4.61   2
   2 -10   9    9.13    4.02   1
   2 -10   9    6.05    2.09   1
   2 -10  10    1.49    2.46   1
   2 -10  10    3.35    3.20   1
   2 -10  11    4.45    4.03   1
   2 -10  11    4.22    3.35   1
  -2   9  12    4.02    2.36   1
  -2   9  11    7.56    2.67   1
  -2   9  10   -1.56    2.51   1
  -2   9   9    0.86    2.49   1
  -2   9   8    0.28    2.45   1
  -2   9   7    3.50    1.66   1
  -2   9   6   19.80    5.51  -1
   2   5 -13   19.80    5.51   2
  -2   9   5    1.81    1.62   1
  -2   9   4   11.12    3.16   1
  -2   9   3    2.74    2.50   1
  -2   9   2    3.23    1.66   1
   2  -9  -1    1.15    1.84   1
   2  -9  -1   -1.98    2.25   1
  -2   9   1   34.76    2.16   1
   2  -9   0   -1.16    2.87   1
   2  -9   0   -4.02    3.60   1
   2  -9   1   12.94    6.53  -1
  -2  -7   7   12.94    6.53   2
   2  -9   1   19.47    6.75  -1
  -2  -7   7   19.47    6.75   2
   2  -9   2    6.71    3.10   1
   2  -9   2    4.14    3.16   1
   2  -9   3    3.59    3.07   1
   2  -9   3    2.88    3.07   1
   2  -9   4    1.42    2.09   1
   2  -9   4    9.70    3.31   1
   2  -9   5    0.29    3.47   1
   2  -9   5    9.20    3.27   1
   2  -9   6    5.47    3.64   1
   2  -9   6    2.09    2.91   1
   2  -9   7    3.30    2.37   1
   2  -9   7    0.75    3.27   1
   2  -9   8    9.52    4.09   1
   2  -9   8    3.12    2.14   1
   2  -9   9    4.17    2.54   1
   2  -9   9   -0.13    3.37   1
   2  -9  10    4.08    4.05   1
   2  -9  11   22.57    5.28   1
   2  -9  12    7.68    2.59   1
   2  -9  12    0.18    3.13   1
   2  -9  13   -2.56    3.76   1
   2  -9  13   -0.42    2.89   1
  -2   8  13    3.41    2.24   1
  -2   8  12   10.09    2.78   1
  -2   8  11   -1.56    1.28   1
  -2   8  10    1.47    2.22   1
  -2   8   9    8.37    2.54   1
  -2   8   8    9.15    2.52   1
  -2   8   7   15.73    4.57  -1
   2   4 -13   15.73    4.57   2
  -2   8   6    7.87    2.38   1
  -2   8   5   33.66    3.27   1
  -2   8   4   -3.31    2.52   1
  -2   8   3   23.43    2.90   1
  -2   8   2   92.38    5.83   1
   2  -8  -1   -3.33    2.73   1
   2  -8  -1    1.41    1.82   1
   2  -8   0   48.80    6.13  -1
  -2  -6   7   48.80    6.13   2
   2  -8   0   36.22    5.69  -1
  -2  -6   7   36.22    5.69   2
   2  -8   1    2.55    2.83   1
   2  -8   1    4.82    2.92   1
   2  -8   2    7.86    2.90   1
   2  -8   2   -5.81    2.88   1
   2  -8   3    4.92    3.23   1
   2  -8   3    4.92    1.92   1
   2  -8   4    7.91    3.27   1
   2  -8   4    1.66    1.63   1
   2  -8   5   -2.66    3.40   1
   2  -8   5    8.62    2.02   1
   2  -8   6   10.52    2.35   1
   2  -8   6    4.63    2.09   1
   2  -8   7   21.12    6.13  -1
  -2  -8   1   21.12    6.13   2
   2  -8   7   24.07    3.78  -1
  -2  -8   1   24.07    3.78   2
   2  -8   8    1.70    2.31   1
   2  -8   8    1.01    1.92   1
   2  -8   9    2.87    4.10   1
   2  -8   9    3.00    3.05   1
   2  -8  10   10.42    2.80   1
   2  -8  10   13.33    6.93  -1
  -2  -9  -1   13.33    6.93   2
   2  -8  11    4.25    3.88   1
   2  -8  11   12.33    6.39  -1
  -2  -9  -3   12.33    6.39   2
   2  -8  12    5.45    3.98   1
   2  -8  12    5.00    3.25   1
   2  -8  13   -0.35    2.40   1
   2  -8  13   -4.14    2.99   1
   2  -8  14    4.86    3.03  -1
  -2 -10  -5    4.86    3.03   2
   2  -8  14   -1.32    4.68  -1
  -2 -10  -5   -1.32    4.68   2
   2  -8  15   -2.74    2.29   1
   2  -8  15    6.34    2.90   1
  -2   7  13   13.56    2.32   1
  -2   7  12    3.35    2.04   1
  -2   7  11    1.62    1.80   1
  -2   7  10    1.63    1.96   1
  -2   7   9    3.54    1.77   1
  -2   7   9    1.98    2.06   1
  -2   7   8    7.75    1.82   1
  -2   7   8   12.68    2.42   1
  -2   7   7   43.16    4.99  -1
   2   3 -12   43.16    4.99   2
  -2   7   7   61.27    5.62  -1
   2   3 -12   61.27    5.62   2
  -2   7   6    5.06    1.92   1
  -2   7   6   10.36    2.26   1
  -2   7   5   14.09    2.32   1
  -2   7   5   19.42    2.77   1
  -2   7   4    4.81    2.07   1
  -2   7   4    5.44    2.32   1
  -2   7   3    7.31    2.25   1
  -2   7   3    5.67    1.41   1
   2  -7  -2   76.81    3.83   1
   2  -7  -2   80.39    4.51   1
  -2   7   2   81.84    4.85   1
   2  -7  -1    3.03    2.40   1
   2  -7  -1   -0.60    1.58   1
   2  -7   0   30.65    5.95  -1
  -2  -5   6   30.65    5.95   2
   2  -7   0   28.76    6.29  -1
  -2  -5   6   28.76    6.29   2
   2  -7   1    6.00    1.76   1
   2  -7   1    1.55    1.70   1
   2  -7   2    2.65    1.78   1
   2  -7   2    4.91    1.74   1
   2  -7   3   18.55    3.40   1
   2  -7   3   22.87    6.42  -1
  -2  -6   4   22.87    6.42   2
   2  -7   4   15.05    2.28   1
   2  -7   4   10.37    3.28   1
   2  -7   5    6.37    2.23   1
   2  -7   5   11.86    2.18   1
   2  -7   6   21.77    4.33   1
   2  -7   6   17.66    2.51   1
   2  -7   7   20.96    8.22  -1
  -2  -7   0   20.96    8.22   2
   2  -7   7   20.94    5.50  -1
  -2  -7   0   20.94    5.50   2
   2  -7   8    2.78    2.23   1
   2  -7   8    3.90    1.78   1
   2  -7   9   11.93    4.19   1
   2  -7   9   10.24    3.26   1
   2  -7  10   51.01    5.55   1
   2  -7  10   54.33   10.34  -1
  -2  -8  -3   54.33   10.34  -2
  -2  -8  -2   54.33   10.34   2
   2  -7  11    3.43    2.21   1
   2  -7  11    1.70    2.95   1
   2  -7  12   12.87    3.66   1
   2  -7  12   -1.22    1.89   1
   2  -7  13    5.36    3.71   1
   2  -7  13    3.02    3.25   1
   2  -7  14    4.37    3.67   1
   2  -7  14    3.69    3.15   1
   2  -7  15    2.24    3.87   1
   2  -7  15    9.59    3.45   1
   2  -7  16    2.90    3.59   1
   2  -7  16    1.63    3.06   1
  -2   6  14    1.85    3.07  -1
   2   0 -17    1.85    3.07   2
  -2   6  13   29.95    2.60   1
   2  -6 -12    2.45    1.50   1
  -2   6  12    7.99    1.81   1
   2  -6 -11    1.26    1.36   1
  -2   6  11    2.42    1.79   1
   2  -6 -10    5.06    1.58   1
  -2   6  10    5.68    1.72   1
  -2   6   9   11.01    1.25   1
  -2   6   9   10.14    1.96   1
  -2   6   8   30.07    3.92  -1
   2   2 -12   30.07    3.92   2
  -2   6   8   34.98    4.02  -1
   2   2 -12   34.98    4.02   2
  -2   6   7    9.62    1.66   1
  -2   6   7   11.53    2.05   1
  -2   6   6   58.31    3.18   1
  -2   6   6   59.04    2.63   1
  -2   6   5    3.74    1.62   1
  -2   6   5   -0.26    1.82   1
  -2   6   4   21.07    2.20   1
  -2   6   4   25.09    2.54   1
  -2   6   3  198.33    8.51   1
  -2   6   3  195.30    8.08   1
   2  -6  -2    1.86    2.08   1
   2  -6  -2    1.25    2.79   1
  -2   6   2   -1.77    1.11   1
   2  -6  -1   82.50    6.46  -1
  -2  -4   6   82.50    6.46   2
   2  -6  -1   91.69    5.38  -1
  -2  -4   6   91.69    5.38   2
  -2   6   1   94.75    6.52  -1
   2   4  -6   94.75    6.52   2
   2  -6   0    4.91    2.38   1
   2  -6   0   11.78    2.78   1
  -2   6   0    4.65    2.03   1
  -2   6   0    3.64    2.29   1
   2  -6   1    7.69    2.75   1
   2  -6   1    4.80    2.79   1
  -2   6  -1    7.82    1.43   1
  -2   6  -1    7.01    1.47   1
   2  -6   2   15.06    1.99   1
   2  -6   2   12.51    1.82   1
  -2   6  -2    7.58    1.68   1
  -2   6  -2   10.54    2.44   1
   2  -6   3    7.65    1.93   1
   2  -6   3    4.86    2.98   1
  -2   6  -3    6.19    2.48   1
   2  -6   4   19.96    2.35   1
   2  -6   4   16.71    3.30   1
   2  -6   5   27.93    2.67   1
   2  -6   5   27.73    2.42   1
   2  -6   6   52.38    5.96  -1
  -2  -6   0   52.38    5.96   2
   2  -6   6   47.56    5.45  -1
  -2  -6   0   47.56    5.45   2
   2  -6   7   12.27    3.54   1
   2  -6   7    7.13    3.04   1
   2  -6   8   15.93    2.41   1
   2  -6   8   15.21    3.49   1
   2  -6   9   18.65    4.19   1
   2  -6   9   16.03    3.49   1
   2  -6  10   20.51    4.55   1
   2  -6  10   33.03    5.37  -1
  -2  -7  -4   33.03    5.37   2
   2  -6  11    8.58    2.30   1
   2  -6  11    9.16    2.97   1
   2  -6  12    1.95    2.04   1
   2  -6  12    5.03    2.91   1
   2  -6  13    5.17    2.76  -1
  -2  -8  -6    5.17    2.76   2
   2  -6  13    6.41    4.54  -1
  -2  -8  -6    6.41    4.54   2
   2  -6  14    8.23    3.54   1
   2  -6  14   -0.82    1.94   1
   2  -6  15    7.97    3.71   1
   2  -6  15    3.08    3.37   1
   2  -6  16    5.93    3.64   1
   2  -6  16    1.24    3.05   1
   2  -6  17    1.50    3.60   1
   2  -6  17   12.55    5.02  -1
  -2  -9 -10   12.55    5.02   2
  -2   5  15   18.29    2.71  -1
   2  -1 -17   18.29    2.71   2
  -2   5  14   27.12    2.95   1
   2  -5 -13    5.51    1.50   1
  -2   5  13    0.53    1.57   1
   2  -5 -12    1.19    1.26   1
  -2   5  12    2.72    1.55   1
   2  -5 -11   -2.42    1.35   1
  -2   5  11   -0.83    1.35   1
   2  -5 -10    2.82    1.33   1
  -2   5  10    2.81    1.56   1
   2  -5  -9   13.41    1.52   1
  -2   5   9   18.08    1.85   1
  -2   5   8    2.33    0.97   1
  -2   5   8   98.37    5.96  -1
   2   1 -11   98.37    5.96   2
  -2   5   7   16.94    1.79   1
  -2   5   7   15.55    1.88   1
  -2   5   6   31.45    2.07   1
  -2   5   6   32.43    2.32   1
  -2   5   5   14.04    1.58   1
  -2   5   5   13.30    1.85   1
  -2   5   5   14.95    2.62   1
  -2   5   4    8.99    1.64   1
  -2   5   4    8.54    1.69   1
  -2   5   4    6.29    2.23   1
   2  -5  -3   44.27    2.36   1
   2  -5  -3   44.54    2.90   1
  -2   5   3  165.79    4.63   1
  -2   5   3  166.93    5.19   1
   2  -5  -2    4.56    1.86   1
   2  -5  -2    6.92    2.45   1
  -2   5   2    4.12    1.84   1
  -2   5   2    2.28    1.29   1
   2  -5  -1   48.43    4.69  -1
  -2  -3   5   48.43    4.69   2
   2  -5  -1   56.10    5.48  -1
  -2  -3   5   56.10    5.48   2
  -2   5   1   52.96    4.52  -1
   2   3  -5   52.96    4.52   2
  -2   5   1   58.12    6.57  -1
   2   3  -5   58.12    6.57   2
   2  -5   0   14.87    1.62   1
   2  -5   0   10.99    1.74   1
  -2   5   0   16.47    2.23   1
  -2   5   0   17.31    2.34   1
   2  -5   1   20.44    3.04   1
   2  -5   1   18.75    1.92   1
  -2   5  -1   19.51    1.72   1
  -2   5  -1   23.01    2.68   1
   2  -5   2   38.02    3.91   1
  -2   5  -2   41.04    3.26   1
  -2   5  -2   56.19    6.75  -1
   2   4  -2   56.19    6.75   2
   2  -5   3   37.14    3.79   1
   2  -5   3   34.69    3.53   1
  -2   5  -3   28.98    3.18   1
  -2   5  -3   35.24    3.12   1
   2  -5   4   15.32    3.09   1
   2  -5   4   15.60    1.86   1
  -2   5  -4   14.21    2.54   1
  -2   5  -4   12.74    2.59   1
   2  -5   5   77.50    5.58   1
   2  -5   5   73.13    5.16   1
  -2   5  -5   73.99    3.81   1
  -2   5  -5   74.59    4.96   1
  -2   5  -6    8.36    2.67   1
   2  -5   6   40.12    6.20  -1
  -2  -5  -1   40.12    6.20   2
   2  -5   6   39.26    5.82  -1
  -2  -5  -1   39.26    5.82   2
   2  -5   7    4.18    3.05   1
   2  -5   7    4.12    1.71   1
   2  -5   8   10.11    2.14   1
   2  -5   8    9.44    1.81   1
   2  -5   9   84.12    6.50   1
   2  -5   9  106.63   11.40  -1
  -2  -6  -3  106.63   11.40  -2
  -2  -6  -4  106.63   11.40   2
   2  -5  10    4.09    2.99   1
   2  -5  11   -2.00    1.98   1
   2  -5  11   -1.34    1.68   1
   2  -5  12   11.44    3.56   1
   2  -5  12   33.80    7.16  -1
  -2  -7  -6   33.80    7.16   2
   2  -5  13    3.50    5.52  -1
  -2  -7  -7    3.50    5.52   2
   2  -5  13    8.51    5.34  -1
  -2  -7  -7    8.51    5.34   2
   2  -5  14   22.29    3.07   1
   2  -5  14   26.82    4.12   1
   2  -5  15   13.11    2.38   1
   2  -5  15    3.79    3.46   1
   2  -5  16    5.14    2.30   1
   2  -5  16    5.35    3.14   1
   2  -5  17   19.32    3.02   1
   2  -5  17   20.13    2.81   1
  -2   4  15    3.54    2.65  -1
   2  -2 -16    3.54    2.65   2
   2  -4 -14   43.39    2.54   1
  -2   4  14   50.29    2.91   1
   2  -4 -13    6.35    1.41   1
  -2   4  13    7.63    1.59   1
   2  -4 -12   13.59    1.90   1
  -2   4  12   12.55    2.06   1
   2  -4 -11   12.25    1.88   1
  -2   4  11   14.73    1.64   1
   2  -4 -10    6.75    1.25   1
  -2   4  10   11.16    2.00   1
   2  -4  -9   62.79    3.44  -1
  -2   0  11   62.79    3.44   2
  -2   4   9   61.65    3.37  -1
   2   0 -11   61.65    3.37   2
   2  -4  -8    2.70    1.11   1
  -2   4   8    3.93    1.29   1
   2  -4  -7   85.96    2.99   1
  -2   4   7   94.31    3.43   1
  -2   4   6    0.99    1.12   1
  -2   4   6    1.34    1.60   1
  -2   4   6    0.88    2.16   1
  -2   4   5   24.69    1.59   1
  -2   4   5   26.84    1.75   1
  -2   4   5   35.00    2.76   1
  -2   4   4  384.67   13.41   1
  -2   4   4  380.42   12.99   1
  -2   4   4  411.82   15.91   1
   2  -4  -3    0.14    1.52   1
   2  -4  -3    2.44    1.47   1
  -2   4   3    0.24    1.30   1
  -2   4   3    0.43    1.02   1
   2  -4  -2  198.52    8.59  -1
  -2  -2   5  198.52    8.59   2
   2  -4  -2  203.79   10.12  -1
  -2  -2   5  203.79   10.12   2
  -2   4   2  210.81    9.15  -1
   2   2  -5  210.81    9.15   2
  -2   4   2  221.32    8.42  -1
   2   2  -5  221.32    8.42   2
   2  -4  -1   10.65    2.11   1
   2  -4  -1   14.67    2.63   1
  -2   4   1   12.78    1.86   1
  -2   4   1   15.84    2.49   1
   2  -4   0   33.02    3.11   1
   2  -4   0   32.27    2.06   1
  -2   4   0   30.29    1.83   1
  -2   4   0   33.04    2.86   1
   2  -4   1   24.69    2.92   1
   2  -4   1   22.66    3.20   1
  -2   4  -1   27.37    2.65   1
  -2   4  -1   24.49    1.77   1
   2  -4   2    9.53    1.66   1
   2  -4   2    9.05    2.62   1
  -2   4  -2   13.35    2.38   1
  -2   4  -2   10.74    2.49   1
   2  -4   3   46.32    3.92   1
   2  -4   3   42.24    3.66   1
  -2   4  -3   39.18    3.63   1
  -2   4  -3   44.08    3.52   1
   2  -4   4   87.60    5.20   1
   2  -4   4   88.42    3.68   1
  -2   4  -4   86.27    5.02   1
  -2   4  -4   82.86    4.79   1
   2  -4   5   92.24    4.84  -1
  -2  -4  -1   92.24    4.84   2
   2  -4   5   90.48    6.55  -1
  -2  -4  -1   90.48    6.55   2
  -2   4  -5  101.92    6.57  -1
   2   4   1  101.92    6.57   2
  -2   4  -5   90.44    6.17  -1
   2   4   1   90.44    6.17   2
   2  -4   6   24.86    3.62   1
   2  -4   6   25.28    2.16   1
  -2   4  -6   23.97    2.18   1
  -2   4  -6   27.09    3.07   1
   2  -4   7   25.29    3.72   1
   2  -4   7   20.35    2.03   1
  -2   4  -7   19.21    1.89   1
   2  -4   8   32.57    4.06   1
   2  -4   8   29.79    2.49   1
  -2   4  -8   32.23    3.33   1
   2  -4   9   38.56    2.98   1
   2  -4   9   63.09    7.56  -1
  -2  -5  -5   63.09    7.56   2
   2  -4  10   10.16    2.06   1
   2  -4  10   12.42    3.04   1
   2  -4  11   -0.41    2.79   1
   2  -4  12    8.93    2.76  -1
  -2  -6  -7    8.93    2.76   2
   2  -4  12   17.60    4.49  -1
  -2  -6  -7   17.60    4.49   2
   2  -4  13    7.20    2.08   1
   2  -4  13    3.92    3.18   1
   2  -4  14   12.26    2.49   1
   2  -4  14   16.14    3.57   1
   2  -4  15   18.21    2.64   1
   2  -4  15   14.90    2.42   1
   2  -4  16    9.74    3.36   1
   2  -4  16   -1.76    1.89   1
   2  -4  17   42.01    4.87   1
   2  -4  17   26.33    3.12   1
   2  -4  18    1.28    3.26   1
   2  -4  18    0.88    2.01   1
  -2   3  16   19.81    3.25  -1
   2  -3 -16   19.81    3.25   2
  -2   3  15   51.76    3.02   1
   2  -3 -14    6.80    1.34   1
  -2   3  14    6.04    1.67   1
   2  -3 -13    4.36    1.22   1
  -2   3  13    2.85    1.49   1
   2  -3 -12    2.26    1.06   1
  -2   3  12   -1.71    1.29   1
   2  -3 -11    3.45    1.12   1
  -2   3  11    3.02    1.26   1
  -2   3  10   56.06    4.05  -1
   2  -1 -11   56.06    4.05   2
   2  -3  -9  147.12    5.22  -1
  -2   1  10  147.12    5.22   2
  -2   3   9  145.38    5.53  -1
   2  -1 -10  145.38    5.53   2
   2  -3  -8   31.52    1.48   1
  -2   3   8   35.32    2.06   1
   2  -3  -7   52.25    2.17   1
  -2   3   7   50.81    2.32   1
   2  -3  -6   21.75    1.43   1
  -2   3   6   22.24    1.21   1
  -2   3   5    5.14    1.10   1
  -2   3   5    7.20    1.34   1
  -2   3   5    6.31    1.91   1
  -2   3   4  272.32    8.44   1
  -2   3   4  265.20    7.77   1
  -2   3   4  283.96    9.88   1
   2  -3  -3   11.15    1.25   1
   2  -3  -3   10.19    2.61   1
  -2   3   3   10.06    1.29   1
  -2   3   3   10.36    1.98   1
   2  -3  -2  126.95    7.52  -1
  -2  -1   4  126.95    7.52   2
   2  -3  -2  114.78    7.90  -1
  -2  -1   4  114.78    7.90   2
  -2   3   2  125.59    5.83  -1
   2   1  -4  125.59    5.83   2
  -2   3   2  123.09    7.93  -1
   2   1  -4  123.09    7.93   2
   2  -3  -1   52.87    2.84   1
   2  -3  -1   44.38    3.13   1
  -2   3   1   48.64    2.65   1
  -2   3   1   43.99    2.11   1
   2  -3   0   85.76    4.11   1
   2  -3   0   84.47    4.74   1
  -2   3   0   84.84    3.88   1
  -2   3   0   90.53    3.30   1
   2  -3   1   75.36    4.01   1
   2  -3   1   65.35    2.84   1
  -2   3  -1   64.47    2.57   1
  -2   3  -1   72.52    2.92   1
   2  -3   2   81.52    3.32   1
   2  -3   2   78.78    4.64   1
  -2   3  -2   86.00    4.43   1
  -2   3  -2   85.94    4.40   1
   2  -3   3   23.30    3.03   1
   2  -3   3   20.79    2.99   1
  -2   3  -3   27.76    3.08   1
  -2   3  -3   26.93    1.77   1
   2  -3   4  273.93   10.16   1
   2  -3   4  269.33   11.76   1
  -2   3  -4  310.84   13.15   1
  -2   3  -4  287.53   12.45   1
   2  -3   5   64.27    6.43  -1
  -2  -3  -2   64.27    6.43   2
   2  -3   5   72.67    6.17  -1
  -2  -3  -2   72.67    6.17   2
  -2   3  -5   62.25    6.19  -1
   2   3   2   62.25    6.19   2
  -2   3  -5   62.85    6.68  -1
   2   3   2   62.85    6.68   2
   2  -3   6    3.01    1.69   1
   2  -3   6    3.27    2.47   1
  -2   3  -6    2.71    1.25   1
   2  -3   7   25.82    3.61   1
   2  -3   7   20.32    3.22   1
  -2   3  -7   28.85    3.12   1
  -2   3  -7   19.13    2.79   1
   2  -3   8  118.64    6.78   1
   2  -3   8  105.81    4.63   1
  -2   3  -8  117.29    5.02   1
  -2   3  -8  106.00    4.41   1
   2  -3   9    9.94    3.12   1
   2  -3  10    4.70    2.93   1
   2  -3  10   -1.21    2.75   1
   2  -3  11   29.09    4.11   1
   2  -3  12   33.93    6.87  -1
  -2  -5  -8   33.93    6.87   2
   2  -3  12   11.75    5.16  -1
  -2  -5  -8   11.75    5.16   2
   2  -3  13   49.15    5.11   1
   2  -3  13   38.91    3.12   1
   2  -3  14   17.81    2.40   1
   2  -3  14   14.83    2.32   1
   2  -3  15    7.82    2.22   1
   2  -3  15   -2.18    3.40   1
   2  -3  16   67.34    6.17   1
   2  -3  16   55.58    6.10   1
   2  -3  17    1.58    3.33   1
   2  -3  17   -4.63    3.26   1
   2  -3  18   -5.55    5.54  -1
  -2  -7 -13   -5.55    5.54   2
   2  -3  18    3.87    4.83  -1
  -2  -7 -13    3.87    4.83   2
  -2   2  17  157.65    7.74  -1
   2  -4 -16  157.65    7.74   2
  -2   2  16    6.56    2.97  -1
   2  -4 -15    6.56    2.97   2
   2  -2 -15   48.90    2.64   1
  -2   2  15   64.22    3.93   1
   2  -2 -14   12.10    1.56   1
  -2   2  14   12.55    1.69   1
   2  -2 -13   32.41    1.93   1
  -2   2  13   32.02    2.16   1
   2  -2 -12   19.70    1.57   1
  -2   2  12   19.33    2.22   1
  -2   2  11    6.42    1.29   1
   2  -2 -11   14.87    2.92  -1
  -2   2  11   14.87    2.92   2
   2  -2 -10   84.92    3.29  -1
  -2   2  10   84.92    3.29   2
  -2   2  10   89.67    3.91  -1
   2  -2 -10   89.67    3.91   2
   2  -2  -9    1.10    0.78   1
  -2   2   9    3.69    2.34  -1
   2  -2  -9    3.69    2.34   2
   2  -2  -8  126.66    3.72   1
  -2   2   8  126.67    3.89   1
   2  -2  -7   16.92    1.11   1
  -2   2   7   15.45    1.14   1
   2  -2  -6   36.96    1.13   1
  -2   2   6   32.83    1.25   1
  -2   2   4    0.06    0.52   1
  -2   2   4    0.43    0.56   1
  -2   2   4   -0.47    0.88   1
   2  -2  -3  345.01   10.57  -1
  -2   0   4  345.01   10.57   2
   2  -2  -3  345.39   13.87  -1
  -2   0   4  345.39   13.87   2
  -2   2   3  349.20   10.48  -1
   2   0  -4  349.20   10.48   2
  -2   2   3  339.29   11.52  -1
   2   0  -4  339.29   11.52   2
   2  -2  -2   22.85    1.35   1
   2  -2  -2   26.88    2.35   1
  -2   2   2   21.72    1.83   1
  -2   2   2   22.51    2.25   1
   2  -2  -1  105.68    3.72   1
   2  -2  -1  106.53    3.70   1
  -2   2   1  108.88    3.72   1
  -2   2   1  103.17    4.41   1
   2  -2   0   52.31    2.98   1
   2  -2   0   56.18    3.55   1
  -2   2   0   54.96    2.89   1
  -2   2   0   56.46    2.43   1
   2  -2   1   22.30    2.61   1
   2  -2   1   18.98    1.74   1
  -2   2  -1   21.58    1.60   1
  -2   2  -1   21.14    2.54   1
   2  -2   2   67.10    4.22   1
   2  -2   2   69.06    2.74   1
  -2   2  -2   71.00    2.91   1
  -2   2  -2   71.39    4.04   1
   2  -2   3  213.99    7.24   1
   2  -2   3  215.38    6.98   1
  -2   2  -3  232.09    9.31   1
  -2   2  -3  232.14    8.81   1
   2  -2   4  145.95    7.81  -1
  -2  -2  -2  145.95    7.81   2
   2  -2   4  154.22    8.29  -1
  -2  -2  -2  154.22    8.29   2
  -2   2  -4  173.46    8.28  -1
   2   2   2  173.46    8.28   2
  -2   2  -4  154.67    5.93  -1
   2   2   2  154.67    5.93   2
   2  -2   5   51.24    4.00   1
   2  -2   5   47.35    2.71   1
  -2   2  -5   50.53    3.92   1
  -2   2  -5   49.96    3.53   1
   2  -2   6   31.36    3.59   1
   2  -2   6   33.27    2.23   1
  -2   2  -6   30.46    2.18   1
  -2   2  -6   34.60    2.96   1
   2  -2   7   47.39    4.02   1
   2  -2   7   42.82    2.74   1
  -2   2  -7   51.24    3.81   1
  -2   2  -7   43.94    3.36   1
   2  -2   8   50.11    4.33   1
   2  -2   8   54.32    4.32   1
  -2   2  -8   52.96    2.93   1
   2  -2   9   28.62    3.72   1
   2  -2   9   28.14    3.42   1
  -2   2  -9   25.56    3.11   1
   2  -2  10    1.84    2.92   1
   2  -2  10    6.47    1.66   1
   2  -2  11   18.91    2.64  -1
  -2  -4  -8   18.91    2.64   2
   2  -2  11   15.33    4.47  -1
  -2  -4  -8   15.33    4.47   2
   2  -2  12    4.92    3.20   1
   2  -2  12    3.90    3.04   1
   2  -2  13   19.90    3.84   1
   2  -2  13   17.88    3.66   1
   2  -2  14   40.52    4.41   1
   2  -2  14   31.76    4.54   1
   2  -2  15    3.80    1.97   1
   2  -2  15    1.25    3.31   1
   2  -2  16   85.48    6.78   1
   2  -2  16   86.30    6.94   1
   2  -2  17    2.83    3.37   1
   2  -2  17    8.20    3.54   1
   2  -2  18   10.20    3.90  -1
  -2  -6 -14   10.20    3.90   2
   2  -2  18   -0.17    2.84  -1
  -2  -6 -14   -0.17    2.84   2
   2  -2  19    5.44    2.16   1
  -2   1  17   17.65    3.62  -1
   2  -5 -15   17.65    3.62   2
  -2   1  16   33.70    2.74   1
   2  -1 -15    7.19    1.51   1
  -2   1  15    8.10    1.91   1
   2  -1 -14    2.39    1.34   1
  -2   1  14   -0.57    1.50   1
   2  -1 -13    2.10    1.20   1
  -2   1  13   -0.32    1.40   1
   2  -1 -12    0.98    1.51   1
  -2   1  12    0.88    1.20   1
   2  -1 -11   52.63    3.46  -1
  -2   3  10   52.63    3.46   2
  -2   1  11   52.98    3.73  -1
   2  -3 -10   52.98    3.73   2
   2  -1 -10  149.14    5.90  -1
  -2   3   9  149.14    5.90   2
  -2   1  10  153.01    6.27  -1
   2  -3  -9  153.01    6.27   2
   2  -1  -9   50.36    2.30   1
  -2   1   9   43.98    1.82   1
   2  -1  -8   55.05    1.84   1
  -2   1   8   55.85    2.31   1
   2  -1  -7   23.28    1.27   1
  -2   1   7   22.13    1.30   1
   2  -1  -6    4.74    0.40   1
  -2   1   6    1.72    0.70   1
   2  -1  -5  248.52    5.52   1
  -2   1   5  264.65    5.98   1
  -2   1   4   18.66    1.42   1
   2  -1  -3   91.67    1.89   1
   2  -1  -3  199.86    7.63  -1
  -2   1   3  199.86    7.63   2
  -2   1   3  209.20    4.98  -1
   2  -1  -3  209.20    4.98   2
  -2   1   3  200.94    7.17  -1
   2  -1  -3  200.94    7.17   2
   2  -1  -2  110.97    2.82   1
   2  -1  -2  111.28    3.75   1
  -2   1   2  113.53    3.14   1
  -2   1   2  118.54    3.93   1
   2  -1  -1  214.11    6.33   1
   2  -1  -1  227.56    7.28   1
  -2   1   1  214.28    6.11   1
  -2   1   1  233.28    7.61   1
   2  -1   0   76.54    3.51   1
   2  -1   0   78.61    3.84   1
  -2   1   0   84.61    3.59   1
  -2   1   0   79.15    3.72   1
   2  -1   1  170.29    6.73   1
   2  -1   1  166.73    5.12   1
  -2   1  -1  175.67    6.46   1
  -2   1  -1  174.15    5.24   1
   2  -1   2   29.40    3.32   1
   2  -1   2   31.58    3.12   1
  -2   1  -2   35.54    3.10   1
  -2   1  -2   34.63    2.94   1
   2  -1   3  817.43   33.53   1
  -2   1  -3  929.21   41.53   1
   2  -1   3 2341.60  159.55  -1
  -2  -1  -2 2341.60  159.55   2
  -2   1  -3 2430.29  163.37  -1
   2   1   2 2430.29  163.37   2
  -2   1  -4   52.39    3.92   1
   2  -1   4  119.13    8.95  -1
  -2  -1  -3  119.13    8.95   2
   2  -1   4  126.46    7.71  -1
  -2  -1  -3  126.46    7.71   2
  -2   1  -4  127.13    7.21  -1
   2   1   3  127.13    7.21   2
   2  -1   5   -0.11    2.37   1
   2  -1   5    2.81    2.38   1
  -2   1  -5   -2.59    2.02   1
   2  -1   6   41.44    2.53   1
   2  -1   6   39.72    2.42   1
  -2   1  -6   42.01    2.25   1
   2  -1   7  109.14    5.97   1
   2  -1   7   99.26    5.81   1
  -2   1  -7  103.69    4.11   1
   2  -1   8   22.75    2.15   1
   2  -1   8   21.00    3.42   1
  -2   1  -8   26.97    3.16   1
   2  -1   9    3.61    2.58   1
   2  -1   9   -1.18    1.47   1
  -2   1  -9   -0.84    2.20   1
   2  -1  10  116.27    9.42  -1
  -2  -3  -8  116.27    9.42   2
   2  -1  10  117.48    8.99  -1
  -2  -3  -8  117.48    8.99   2
   2  -1  11   34.40    5.07  -1
  -2  -3  -9   34.40    5.07   2
   2  -1  11   34.22    5.68  -1
  -2  -3  -9   34.22    5.68   2
   2  -1  12   60.08    5.08   1
   2  -1  12   62.15    3.50   1
   2  -1  13   33.84    2.87   1
   2  -1  13   35.37    3.04   1
   2  -1  14    2.88    2.99   1
   2  -1  14    6.10    3.13   1
   2  -1  15  118.80    5.86   1
   2  -1  15  120.32    8.37   1
   2  -1  16    3.57    3.21   1
   2  -1  16    1.64    3.55   1
   2  -1  17    4.54    4.43  -1
  -2  -5 -14    4.54    4.43   2
   2  -1  17    6.56    5.27  -1
  -2  -5 -14    6.56    5.27   2
   2  -1  18   15.07    4.71  -1
  -2  -5 -15   15.07    4.71   2
   2  -1  18   12.40    4.53  -1
  -2  -5 -15   12.40    4.53   2
   2  -1  19    3.09    3.23   1
   2  -1  19    0.84    3.52   1
  -2   0  20   -0.21    2.53   1
  -2   0  19    0.92    2.44   1
  -2   0  18  102.59    7.16  -1
   2  -6 -15  102.59    7.16   2
  -2   0  18  111.04    8.48  -1
   2  -6 -15  111.04    8.48   2
  -2   0  17    3.85    3.57  -1
   2  -6 -14    3.85    3.57   2
   2   0 -16   28.02    2.33   1
  -2   0  16   45.33    2.95   1
   2   0 -15   15.54    2.02   1
  -2   0  15   20.14    2.19   1
   2   0 -14   34.90    2.58   1
  -2   0  14   36.71    2.47   1
   2   0 -13   18.79    1.87   1
  -2   0  13   20.86    2.03   1
   2   0 -12    3.97    1.35   1
  -2   0  12    0.67    1.47   1
   2   0 -11   57.31    3.91  -1
  -2   4   9   57.31    3.91   2
  -2   0  11   65.59    3.87  -1
   2  -4  -9   65.59    3.87   2
   2   0 -10    9.82    1.51   1
  -2   0  10    9.70    1.41   1
   2   0  -9   85.32    3.16   1
  -2   0   9   87.40    3.83   1
   2   0  -8   27.17    2.01   1
  -2   0   8   29.63    2.01   1
   2   0  -7   22.12    1.40   1
  -2   0   7   21.68    1.77   1
   2   0  -6  411.21   12.48   1
  -2   0   6  399.41   12.82   1
   2   0  -5    0.95    0.74   1
  -2   0   5   -0.29    1.06   1
   2   0  -4  335.61    9.94  -1
  -2   2   3  335.61    9.94   2
   2   0  -4  332.86   10.26  -1
  -2   2   3  332.86   10.26   2
  -2   0   4  335.31    9.97  -1
   2  -2  -3  335.31    9.97   2
   2   0  -3   35.33    1.82   1
   2   0  -3   32.17    1.10   1
  -2   0   3   35.20    1.32   1
   2   0  -2  135.66    4.05   1
   2   0  -2  133.59    3.77   1
  -2   0   2  127.68    3.85   1
  -2   0   2  140.90    3.83   1
   2   0  -1   77.99    3.48   1
   2   0  -1   80.48    2.65   1
  -2   0   1   74.38    2.99   1
  -2   0   1   79.62    2.58   1
   2   0   0   30.89    2.73   1
   2   0   0   30.06    2.20   1
  -2   0   0   35.20    2.63   1
  -2   0   0   32.35    2.13   1
   2   0   1   68.20    4.02   1
   2   0   1   67.28    3.64   1
  -2   0  -1   59.99    2.30   1
   2   0   2  354.91   13.32   1
   2   0   2  347.34   10.98   1
  -2   0  -2  345.69   12.31   1
   2   0   3  140.89    5.42  -1
  -2   0  -3  140.89    5.42   2
   2   0   3  149.50    5.61  -1
  -2   0  -3  149.50    5.61   2
  -2   0  -3  155.49    6.74  -1
   2   0   3  155.49    6.74   2
   2   0   4   58.83    2.77   1
  -2   0  -4   66.72    2.87   1
   2   0   5   35.53    2.24   1
  -2   0  -5   46.80    3.38   1
   2   0   6   34.08    2.27   1
  -2   0  -6   50.40    3.41   1
   2   0   7   68.31    4.44   1
  -2   0  -7   65.93    2.92   1
   2   0   8   40.85    3.81   1
  -2   0  -8   38.34    2.34   1
  -2   0  -9    6.04    1.46   1
   2   0   9   20.42    5.67  -1
  -2  -2  -8   20.42    5.67   2
   2   0  10   21.26    2.55  -1
  -2  -2  -9   21.26    2.55   2
   2   0  11   23.51    5.96  -1
  -2  -2 -10   23.51    5.96   2
   2   0  12   22.47    2.47   1
   2   0  12   18.31    3.68   1
   2   0  13   53.36    4.87   1
   2   0  13   63.46    3.64   1
   2   0  14    8.04    3.17   1
   2   0  14    4.26    3.47   1
   2   0  15  145.08    6.71   1
   2   0  15  143.44    9.06   1
   2   0  16   20.35    3.79   1
   2   0  16    8.18    4.08   1
   2   0  17    3.44    2.58  -1
  -2  -4 -15    3.44    2.58   2
   2   0  17   10.14    3.14  -1
  -2  -4 -15   10.14    3.14   2
   2   0  18    9.07    3.56   1
   2   0  18    8.92    4.03   1
   2   0  19    1.95    1.93   1
   2   0  19   -1.68    3.62   1
  -2  -1  19   16.17    2.90   1
  -2  -1  18   11.25    3.28  -1
   2  -7 -14   11.25    3.28   2
  -2  -1  18    8.82    4.37  -1
   2  -7 -14    8.82    4.37   2
  -2  -1  17   21.18    2.77   1
  -2  -1  17   23.08    2.99   1
  -2  -1  16    3.21    2.03   1
  -2  -1  16    0.87    2.11   1
   2   1 -15    2.54    1.66   1
  -2  -1  15    3.04    1.86   1
  -2  -1  15    2.98    2.03   1
   2   1 -14   -0.11    1.61   1
  -2  -1  14   -0.26    1.74   1
   2   1 -13    0.17    1.57   1
  -2  -1  13    4.24    1.72   1
  -2  -1  13    0.80    1.72   1
   2   1 -12   14.53    2.03   1
  -2  -1  12   16.45    2.13   1
  -2  -1  12   16.68    1.97   1
   2   1 -11  100.43    5.85  -1
  -2   5   8  100.43    5.85   2
  -2  -1  11  100.41    6.26  -1
   2  -5  -8  100.41    6.26   2
  -2  -1  11  116.41    5.76  -1
   2  -5  -8  116.41    5.76   2
   2   1 -10   49.67    2.66   1
  -2  -1  10   50.46    2.81   1
  -2  -1  10   53.06    2.53   1
   2   1  -9   43.64    2.52   1
  -2  -1   9   47.23    2.67   1
  -2  -1   9   42.64    2.02   1
   2   1  -8   18.46    1.74   1
  -2  -1   8   19.11    1.90   1
  -2  -1   8   18.23    1.37   1
   2   1  -7    1.36    1.22   1
  -2  -1   7    1.15    1.42   1
  -2  -1   7    2.70    1.17   1
   2   1  -6  143.15    4.81   1
  -2  -1   6  135.66    4.83   1
  -2  -1   6  146.57    4.09   1
   2   1  -5   14.18    1.54   1
  -2  -1   5   17.68    1.69   1
  -2  -1   5   17.67    0.82   1
   2   1  -4  121.79    5.86  -1
  -2   3   2  121.79    5.86   2
  -2  -1   4   27.26    3.11  -1
   2  -3  -2   27.26    3.11   2
   2   1  -3   98.81    3.69   1
   2   1  -3   96.92    3.74   1
   2   1  -2  168.53    5.86   1
  -2  -1   2  168.77    5.77   1
   2   1  -1   46.60    2.06   1
  -2  -1   1   51.82    2.76   1
   2   1   0  162.34    5.05   1
  -2  -1   0  169.74    6.12   1
   2   1   1   15.41    2.76   1
  -2  -1  -1   16.09    2.31   1
   2   1   2 1182.02   59.09   1
  -2  -1  -2 1377.13   65.16   1
   2   1   3   95.74    4.42   1
  -2  -1  -3   58.28    2.70   1
   2   1   4   -0.22    2.27   1
  -2  -1  -4    1.26    1.31   1
   2   1   5   48.06    3.56   1
  -2  -1  -5   49.08    2.53   1
   2   1   6   34.31    2.30   1
  -2  -1  -6   45.14    3.24   1
   2   1   7   35.75    2.24   1
  -2  -1  -7   35.49    2.04   1
   2   1   8    1.02    1.55   1
  -2  -1  -8    1.63    2.15   1
   2   1   9   62.25    3.48   1
  -2  -1  -9  122.08    5.36   1
   2   1  10   32.74    3.97  -1
  -2  -1 -10   32.74    3.97   2
   2   1  11  138.49   10.05  -1
  -2  -1 -11  138.49   10.05   2
   2   1  12   52.51    4.64   1
   2   1  13   -2.24    3.09   1
   2   1  14  186.81    7.91   1
   2   1  15    0.21    3.02   1
   2   1  16    4.95    4.18  -1
  -2  -3 -15    4.95    4.18   2
   2   1  17   24.48    4.81  -1
  -2  -3 -16   24.48    4.81   2
   2   1  18    6.65    3.01   1
   2   1  18   -0.25    2.22   1
  -2  -2  18    2.55    2.06   1
  -2  -2  18    3.45    2.16   1
  -2  -2  17   27.00    2.84   1
  -2  -2  17   19.59    2.80   1
  -2  -2  16   16.56    2.59   1
  -2  -2  16   13.15    2.36   1
  -2  -2  15   29.76    3.04   1
  -2  -2  15   30.32    2.81   1
  -2  -2  14   14.99    2.48   1
  -2  -2  14   12.84    2.13   1
   2   2 -13    2.83    1.81   1
  -2  -2  13    2.35    1.87   1
  -2  -2  13   -0.78    1.54   1
   2   2 -12   32.33    4.27  -1
  -2   6   8   32.33    4.27   2
  -2  -2  12   25.22    4.37  -1
   2  -6  -8   25.22    4.37   2
  -2  -2  12   33.43    3.15  -1
   2  -6  -8   33.43    3.15   2
   2   2 -11   16.30    2.22   1
  -2  -2  11   17.20    2.34   1
  -2  -2  11   15.46    1.77   1
   2   2 -10   43.39    2.91   1
  -2  -2  10   48.06    3.27   1
  -2  -2  10   43.05    2.39   1
   2   2  -9   24.32    2.30   1
  -2  -2   9   27.51    2.52   1
  -2  -2   9   27.65    1.69   1
   2   2  -8   12.47    1.81   1
  -2  -2   8   10.54    2.13   1
  -2  -2   8   12.33    1.49   1
   2   2  -7  147.14    5.70   1
  -2  -2   7  150.50    5.97   1
  -2  -2   7  155.68    4.83   1
   2   2  -6    2.24    1.52   1
  -2  -2   6    0.41    1.68   1
  -2  -2   6    1.98    0.83   1
   2   2  -5  212.62    8.72  -1
  -2   4   2  212.62    8.72   2
   2   2  -5    5.09    1.03  -1
  -2   4   2    5.09    1.03   2
  -2  -2   5  201.89    8.54  -1
   2  -4  -2  201.89    8.54   2
  -2  -2   5  175.54    4.91  -1
   2  -4  -2  175.54    4.91   2
   2   2  -4   35.41    1.55   1
  -2  -2   4    7.06    1.54   1
   2   2  -3   48.94    1.93   1
   2   2  -3   45.33    1.98   1
   2   2  -3   50.70    1.47   1
   2   2  -2   41.87    2.96   1
  -2  -2   2   39.65    2.83   1
   2   2  -1   17.30    1.47   1
  -2  -2   1   18.93    1.55   1
   2   2   0   30.67    3.03   1
  -2  -2   0   37.49    2.74   1
   2   2   1  272.44    8.91   1
  -2  -2  -1  276.93    8.97   1
   2   2   2  140.97    5.56  -1
  -2   2  -4  140.97    5.56   2
  -2  -2  -2  138.44    5.24  -1
   2  -2   4  138.44    5.24   2
   2   2   3   54.77    2.65   1
  -2  -2  -3   69.27    4.05   1
   2   2   4   26.40    3.12   1
  -2  -2  -4   29.93    3.01   1
   2   2   5   20.38    3.12   1
  -2  -2  -5   23.47    2.84   1
   2   2   6   38.94    3.74   1
  -2  -2  -6   47.32    3.43   1
   2   2   7   32.53    2.41   1
  -2  -2  -7   39.38    3.02   1
   2   2   8    7.21    1.72   1
  -2  -2  -8   10.85    2.38   1
   2   2   9   20.82    4.01  -1
  -2   0 -10   20.82    4.01   2
   2   2  10    8.78    5.35  -1
  -2   0 -11    8.78    5.35   2
   2   2  11   20.14    3.55   1
   2   2  12   67.24    5.24   1
   2   2  13    1.10    1.69   1
   2   2  14  190.27    8.11   1
   2   2  15   43.95    7.11  -1
  -2  -2 -15   43.95    7.11   2
   2   2  16    8.24    4.02  -1
  -2  -2 -16    8.24    4.02   2
   2   2  17   20.98    6.01  -1
  -2  -2 -17   20.98    6.01   2
   2   2  18   -0.71    1.88   1
  -2  -3  19    2.30    3.70  -1
   2  -9 -13    2.30    3.70   2
  -2  -3  18   10.32    2.73   1
  -2  -3  17    3.07    2.53   1
  -2  -3  17    6.07    2.01   1
  -2  -3  16   -0.33    2.28   1
  -2  -3  16    3.01    1.76   1
  -2  -3  15   -1.40    2.25   1
  -2  -3  15    0.10    1.61   1
  -2  -3  14   -0.43    1.30   1
  -2  -3  14    0.03    1.57   1
  -2  -3  13    5.53    2.41   1
  -2  -3  13    5.45    1.66   1
  -2  -3  12   59.04    5.50  -1
   2  -7  -7   59.04    5.50   2
  -2  -3  12   54.44    4.90  -1
   2  -7  -7   54.44    4.90   2
   2   3 -11   31.18    2.88   1
  -2  -3  11   32.23    3.17   1
  -2  -3  11   31.60    2.14   1
   2   3 -10   24.10    2.60   1
  -2  -3  10   26.52    3.00   1
  -2  -3  10   25.00    1.75   1
   2   3  -9    7.39    2.09   1
  -2  -3   9    9.55    1.56   1
  -2  -3   9   10.90    1.23   1
   2   3  -8   -0.73    1.73   1
   2   3  -8    2.61    1.17   1
  -2  -3   8    1.54    1.21   1
  -2  -3   8    1.81    1.30   1
   2   3  -7   49.39    3.12   1
   2   3  -7   49.65    2.25   1
  -2  -3   7   47.36    3.47   1
  -2  -3   7   47.28    2.13   1
   2   3  -6   13.02    2.16   1
   2   3  -6   12.13    1.08   1
  -2  -3   6   10.36    2.24   1
  -2  -3   6   10.56    1.23   1
   2   3  -5   51.33    5.72  -1
  -2   5   1   51.33    5.72   2
   2   3  -5   56.24    3.52  -1
  -2   5   1   56.24    3.52   2
  -2  -3   5   55.99    5.98  -1
   2  -5  -1   55.99    5.98   2
  -2  -3   5   49.15    3.08  -1
   2  -5  -1   49.15    3.08   2
   2   3  -4   56.85    2.50   1
   2   3  -4   56.24    2.54   1
   2   3  -4   66.75    2.05   1
   2   3  -3   63.85    3.36   1
   2   3  -3   51.99    3.29   1
   2   3  -3   53.80    2.23   1
   2   3  -2   26.58    3.00   1
   2   3  -2   28.88    2.89   1
   2   3  -2   22.88    1.36   1
   2   3  -1   88.02    4.58   1
  -2  -3   1   92.24    3.33   1
   2   3   0    2.02    2.22   1
  -2  -3   0    0.36    1.26   1
  -2  -3  -1  588.98   25.31   1
   2   3   1  882.61   44.67  -1
  -2   3  -4  882.61   44.67   2
   2   3   2   66.70    6.82  -1
  -2   3  -5   66.70    6.82   2
  -2  -3  -2   67.24    5.60  -1
   2  -3   5   67.24    5.60   2
   2   3   3    0.04    2.32   1
  -2  -3  -3    0.76    1.37   1
   2   3   4   39.57    2.36   1
  -2  -3  -4   42.92    3.64   1
   2   3   5    8.19    2.97   1
  -2  -3  -5    4.48    2.18   1
   2   3   6   30.75    2.41   1
  -2  -3  -6   42.36    3.38   1
   2   3   7   -2.66    2.61   1
  -2  -3  -7    0.26    1.28   1
   2   3   8  113.28    9.29  -1
  -2   1 -10  113.28    9.29   2
   2   3   9   31.21    4.96  -1
  -2   1 -11   31.21    4.96   2
   2   3  10   46.96    3.04   1
   2   3  11   49.26    3.20   1
   2   3  12    0.80    1.80   1
   2   3  13  172.87    7.41   1
   2   3  14    3.68    1.95   1
   2   3  15    1.33    3.55  -1
  -2  -1 -16    1.33    3.55   2
   2   3  16   25.68    5.14  -1
  -2  -1 -17   25.68    5.14   2
   2   3  17   -0.71    2.93   1
   2   3  18    5.41    3.31   1
  -2  -4  18   16.42    3.30   1
  -2  -4  17   11.18    2.96   1
  -2  -4  16   12.03    1.92   1
  -2  -4  15   10.20    2.93   1
  -2  -4  15    4.39    1.85   1
  -2  -4  14   -1.98    2.51   1
  -2  -4  14    0.06    1.48   1
  -2  -4  13   15.90    3.09  -1
   2  -8  -7   15.90    3.09   2
  -2  -4  13    9.90    3.59  -1
   2  -8  -7    9.90    3.59   2
  -2  -4  12   18.87    3.15   1
  -2  -4  12   13.34    1.84   1
  -2  -4  11   23.79    2.17   1
  -2  -4  11   17.26    1.84   1
   2   4 -10   15.69    1.55   1
  -2  -4  10   22.12    3.13   1
  -2  -4  10   17.53    2.17   1
   2   4  -9    7.51    1.34   1
  -2  -4   9    7.91    1.71   1
   2   4  -8   38.81    3.11   1
   2   4  -8   41.62    2.64   1
  -2  -4   8   47.94    3.78   1
   2   4  -7    2.28    1.91   1
   2   4  -7    0.50    1.11   1
  -2  -4   7    0.99    2.35   1
  -2  -4   7    2.75    1.33   1
   2   4  -6   96.57    6.14  -1
  -2   6   1   96.57    6.14   2
   2   4  -6   95.11    4.21  -1
  -2   6   1   95.11    4.21   2
  -2  -4   6   94.76    7.11  -1
   2  -6  -1   94.76    7.11   2
  -2  -4   6   76.66    4.08  -1
   2  -6  -1   76.66    4.08   2
   2   4  -5   21.85    1.82   1
   2   4  -5   22.37    2.13   1
  -2  -4   5   30.56    2.33   1
  -2  -4   5   22.26    1.84   1
   2   4  -4   17.19    2.39   1
   2   4  -4    9.54    2.43   1
   2   4  -4   12.79    1.21   1
   2   4  -3   21.14    2.50   1
   2   4  -3   14.97    1.70   1
   2   4  -3   18.55    1.39   1
   2   4  -2    9.85    2.33   1
   2   4  -2   13.42    2.65   1
   2   4  -2   10.54    1.42   1
   2   4  -1   17.15    1.94   1
   2   4  -1   15.97    1.68   1
   2   4  -1   15.99    1.28   1
   2   4   0  147.20    6.90   1
  -2  -4   0  153.03    5.51   1
   2   4   1   90.80    6.28  -1
  -2   4  -5   90.80    6.28   2
  -2  -4  -1   99.10    6.24  -1
   2  -4   5   99.10    6.24   2
   2   4   2   46.18    2.65   1
  -2  -4  -2   44.94    2.71   1
   2   4   3   16.02    3.06   1
  -2  -4  -3   14.42    2.82   1
   2   4   4    6.29    1.68   1
  -2  -4  -4    4.62    2.26   1
   2   4   5   27.36    3.32   1
  -2  -4  -5   18.83    3.04   1
   2   4   6   27.34    2.24   1
   2   4   7    9.98    3.37   1
   2   4   8   17.54    4.10  -1
  -2   2 -11   17.54    4.10   2
   2   4   9    4.95    1.97   1
   2   4  10   12.27    2.13   1
   2   4  11   40.12    4.62   1
   2   4  12    1.96    3.17   1
   2   4  13  136.34    8.64   1
   2   4  14   21.90    5.37  -1
  -2   0 -16   21.90    5.37   2
   2   4  15    8.71    4.13  -1
  -2   0 -17    8.71    4.13   2
   2   4  16   16.86    6.48  -1
  -2   0 -18   16.86    6.48   2
   2   4  17    0.52    1.77   1
  -2  -5  18    1.65    1.74   1
  -2  -5  17    2.56    2.77   1
  -2  -5  16    0.05    2.70   1
  -2  -5  15    7.87    2.92   1
  -2  -5  14    4.76    1.68   1
  -2  -5  14    2.81    1.56   1
  -2  -5  13   33.02    5.96  -1
   2  -9  -6   33.02    5.96   2
  -2  -5  13   19.97    3.51  -1
   2  -9  -6   19.97    3.51   2
  -2  -5  12   20.40    3.24   1
  -2  -5  12   15.03    1.84   1
   2   5 -11    9.30    2.15   1
  -2  -5  11   14.43    3.09   1
  -2  -5  11   11.37    1.68   1
   2   5 -10    7.19    1.70   1
  -2  -5  10    8.33    1.86   1
  -2  -5  10    7.41    3.15  -1
   2  -8  -4    7.41    3.15   2
   2   5  -9   -4.12    1.90   1
  -2  -5   9    0.38    2.68   1
  -2  -5   9   -1.21    1.70   1
   2   5  -8   12.59    1.72   1
  -2  -5   8   13.63    2.92   1
  -2  -5   8    7.49    1.67   1
   2   5  -7    7.53    2.02   1
  -2  -5   7    6.51    2.87   1
  -2  -5   7    4.81    1.21   1
   2   5  -6   12.83    1.68   1
  -2  -5   6   26.27    6.54  -1
   2  -7   0   26.27    6.54   2
  -2  -5   6   23.80    2.89  -1
   2  -7   0   23.80    2.89   2
   2   5  -4   18.97    2.71   1
   2   5  -4   12.49    1.66   1
   2   5  -3    8.23    1.63   1
   2   5  -3    8.55    1.54   1
   2   5  -2   42.87    4.03   1
   2   5  -2   46.42    2.61   1
   2   5  -1    3.09    2.48   1
   2   5  -1    1.14    1.53   1
   2   5   0  226.60    8.34   1
   2   5   0  225.00    8.23   1
   2   5   1   35.65    7.01  -1
  -2   5  -6   35.65    7.01   2
   2   5   2    3.10    1.61   1
   2   5   3   32.20    3.63   1
   2   5   4   -2.38    1.66   1
   2   5   5   26.76    3.72   1
   2   5   6    1.17    2.80   1
   2   5   7   68.62    7.06  -1
  -2   3 -11   68.62    7.06   2
   2   5   8   25.77    4.52  -1
  -2   3 -12   25.77    4.52   2
   2   5   9   17.74    3.67   1
   2   5  10   27.80    4.28   1
   2   5  11   -2.49    3.21   1
   2   5  12  106.35    7.58   1
   2   5  13   13.90    3.75   1
   2   5  14    1.59    5.25  -1
  -2   1 -17    1.59    5.25   2
   2   5  15   19.62    6.20  -1
  -2   1 -18   19.62    6.20   2
   2   5  16   -1.53    3.05   1
  -2  -6  17    1.90    2.73   1
  -2  -6  16    7.23    3.07   1
  -2  -6  15    2.56    1.88   1
  -2  -6  14    6.37    5.56  -1
   2 -10  -6    6.37    5.56   2
  -2  -6  13   11.00    3.32   1
  -2  -6  13    6.68    1.65   1
  -2  -6  12   10.68    2.17   1
  -2  -6  12    9.92    1.87   1
   2   6 -11    7.36    2.08   1
  -2  -6  11   13.36    3.35   1
  -2  -6  11    8.20    2.27   1
  -2  -6  10    4.45    1.97   1
  -2  -6  10    3.56    1.46   1
   2   6  -9   11.92    2.10   1
  -2  -6   9    6.77    3.24   1
  -2  -6   9    9.83    2.12   1
   2   6  -8    0.41    1.60   1
  -2  -6   8    1.16    3.01   1
  -2  -6   8    2.59    1.33   1
   2   6  -7   28.32    4.40  -1
  -2   8   0   28.32    4.40   2
  -2  -6   7   38.81    6.24  -1
   2  -8   0   38.81    6.24   2
  -2  -6   7   28.77    3.31  -1
   2  -8   0   28.77    3.31   2
   2   6  -6   10.39    1.83   1
  -2  -6   6   11.91    2.22   1
  -2  -6   6   15.11    1.99   1
   2   6  -5    1.52    2.67   1
   2   6  -5    1.50    1.36   1
   2   6  -4    4.51    2.62   1
   2   6  -4    8.42    1.66   1
   2   6  -3   10.38    2.83   1
   2   6  -3    5.03    1.60   1
   2   6  -2    6.75    3.01   1
   2   6  -2    6.88    1.71   1
   2   6  -1   62.46    4.62   1
   2   6  -1   54.91    3.33   1
   2   6   0   46.23    3.33  -1
  -2   6  -6   46.23    3.33   2
   2   6   0   37.68    3.57  -1
  -2   6  -6   37.68    3.57   2
   2   6   1   18.69    2.23   1
   2   6   1   19.51    1.89   1
   2   6   2   11.72    3.30   1
   2   6   3    1.08    2.79   1
   2   6   4    8.03    1.89   1
   2   6   5    7.42    3.20   1
   2   6   6    4.68    3.23   1
   2   6   7    8.65    3.69  -1
  -2   4 -12    8.65    3.69   2
   2   6   8   -1.49    1.97   1
   2   6   9    5.19    2.31   1
   2   6  10   24.44    4.15   1
   2   6  11   -0.40    3.35   1
   2   6  12   78.29    6.61   1
   2   6  13   29.40    6.62  -1
  -2   2 -17   29.40    6.62   2
   2   6  14   -0.08    4.17  -1
  -2   2 -18   -0.08    4.17   2
   2   6  15    6.00    3.69   1
  -2  -7  15    2.52    1.87   1
  -2  -7  14   14.97    6.46  -1
   2 -11  -5   14.97    6.46   2
  -2  -7  13    8.23    3.44   1
  -2  -7  12    9.68    3.31   1
  -2  -7  11    1.29    3.06   1
  -2  -7  11    4.02    3.56  -1
   2 -10  -3    4.02    3.56   2
  -2  -7  10   -2.17    3.00   1
  -2  -7  10    1.10    1.51   1
   2   7  -9    2.80    1.88   1
  -2  -7   9    6.25    3.33   1
  -2  -7   9    0.58    1.55   1
   2   7  -8    0.58    1.75   1
  -2  -7   8    1.02    3.06   1
  -2  -7   8    1.29    1.35   1
   2   7  -7    3.05    2.27   1
  -2  -7   7   19.20    4.77  -1
   2  -9   1   19.20    4.77   2
  -2  -7   7   10.28    3.23  -1
   2  -9   1   10.28    3.23   2
   2   7  -6   16.89    2.28   1
   2   7  -6   10.90    2.09   1
   2   7  -5    3.44    1.71   1
   2   7  -5    3.77    1.70   1
   2   7  -4    0.48    2.70   1
   2   7  -4    3.86    1.08   1
   2   7  -3   23.86    3.65   1
   2   7  -3   13.95    2.25   1
   2   7  -2   -3.30    2.79   1
   2   7  -2    0.77    0.88   1
   2   7  -1  106.83    6.81   1
   2   7   0   20.19    4.27  -1
  -2   7  -7   20.19    4.27   2
   2   7   1    7.51    1.86   1
   2   7   2   16.69    2.24   1
   2   7   3    0.91    3.10   1
   2   7   4   12.17    3.50   1
   2   7   5    0.03    2.91   1
   2   7   6   24.66    6.15  -1
  -2   5 -12   24.66    6.15   2
   2   7   7   20.68    4.60  -1
  -2   5 -13   20.68    4.60   2
   2   7   8   10.78    2.25   1
   2   7   9   10.28    3.80   1
   2   7  10   -2.28    3.39   1
   2   7  11   53.76    6.01   1
   2   7  12   -1.79    3.45   1
   2   7  13    3.75    5.49  -1
  -2   3 -18    3.75    5.49   2
   2   7  14   14.79    7.34  -1
  -2   3 -19   14.79    7.34   2
  -2  -8  14    3.63    3.39   1
  -2  -8  13    1.36    3.28   1
  -2  -8  12    6.42    3.25   1
  -2  -8  11    5.86    3.57   1
  -2  -8  10    2.37    2.26   1
  -2  -8  10    0.75    1.64   1
  -2  -8   9    8.82    3.95   1
  -2  -8   9    1.01    2.21   1
  -2  -8   8   16.89    4.28  -1
   2 -10   1   16.89    4.28   2
  -2  -8   8    6.98    2.24  -1
   2 -10   1    6.98    2.24   2
   2   8  -7    2.29    1.85   1
   2   8  -6    2.60    2.92   1
   2   8  -5   -1.32    2.97   1
   2   8  -4    5.92    3.10   1
   2   8  -3   -0.51    3.09   1
   2   8  -2   21.18    2.63   1
   2   8  -1   21.55    3.26  -1
  -2   8  -7   21.55    3.26   2
   2   8   0    6.20    1.98   1
   2   8   1    2.90    1.97   1
   2   8   2   -2.71    1.98   1
   2   8   3    3.36    2.11   1
   2   8   4    1.36    1.99   1
   2   8   5    7.13    3.57   1
   2   8   6   11.47    4.37  -1
  -2   6 -13   11.47    4.37   2
   2   8   7    2.48    3.34   1
   2   8   8    4.52    3.47   1
   2   8   9   11.30    3.77   1
   2   8  10    1.77    3.77   1
   2   8  11   32.11    5.20   1
   2   8  12    3.34    3.83   1
  -2  -9  12    1.23    2.36   1
  -2  -9  11    0.54    3.65   1
  -2  -9  10   -0.80    2.46   1
  -2  -9   9    4.51    2.66   1
   2   9  -8   -0.32    4.98  -1
  -2  11  -2   -0.32    4.98   2
   2   9  -7    6.69    3.22   1
   2   9  -6    1.03    3.12   1
   2   9  -5    0.34    1.82   1
   2   9  -4    8.29    2.44   1
   2   9  -3   -6.75    3.44   1
   2   9  -2   37.97    5.15   1
   2   9  -1   13.00    3.91   1
   2   9   0    2.55    1.95   1
   2   9   1    2.34    2.08   1
   2   9   2   -0.78    2.08   1
   2   9   3    6.69    2.30   1
   2   9   4   -2.70    1.98   1
   2   9   5    6.15    5.74  -1
  -2   7 -13    6.15    5.74   2
   2   9   6    7.00    2.26   1
   2   9   7    5.38    2.24   1
   2   9   8    3.13    2.29   1
   2   9   9    1.98    2.09   1
   2   9  10   13.17    2.79   1
   2  10  -9    4.22    5.65  -1
  -2  12  -2    4.22    5.65   2
   2  10  -8    2.49    2.02   1
   2  10  -7    2.07    3.30   1
   2  10  -6   -1.21    2.02   1
   2  10  -5   -2.29    3.49   1
   2  10  -4    2.52    3.53   1
   2  10  -3    8.18    2.47   1
   2  10  -2   13.59    3.31  -1
  -2  10  -8   13.59    3.31   2
   2  10  -1    6.14    3.42   1
   2  10   0    3.92    3.22   1
   2  10   1    2.53    3.48   1
   2  10   2   -1.15    2.19   1
   2  10   3    4.40    2.25   1
   2  10   4   -1.51    2.13   1
   2  10   5    4.70    2.71  -1
  -2   8 -14    4.70    2.71   2
   2  10   6    3.71    2.15   1
   2  10   7    3.08    3.38   1
   2  11  -1   -1.81    2.03   1
   2  11   0   -0.82    3.53   1
   2  11   1    2.52    3.61   1
  -3  12   3    6.31    3.55  -1
   3   8 -13    6.31    3.55   2
  -3  12   2   -1.68    1.84   1
  -3  12   1    6.78    2.02   1
  -3  12   0   -1.39    2.05   1
   3 -12   1    0.21    2.22   1
   3 -12   1    2.33    2.44   1
   3 -12   2   -0.85    3.41   1
   3 -12   2   -2.44    3.40   1
   3 -12   3    1.85    3.40   1
   3 -12   3   -0.46    3.13   1
  -3  11   8    0.04    2.57   1
  -3  11   7    5.32    1.73   1
  -3  11   6    6.27    2.76   1
  -3  11   4   11.67    5.80  -1
   3   7 -13   11.67    5.80   2
  -3  11   3    2.79    2.84   1
  -3  11   2    0.58    1.66   1
  -3  11   1    3.44    2.01   1
   3 -11   0    0.95    1.98   1
   3 -11   1    1.17    2.03   1
   3 -11   1    0.67    1.94   1
   3 -11   2    0.73    3.18   1
   3 -11   2    2.83    3.14   1
   3 -11   3   12.23    6.15  -1
  -3  -9   7   12.23    6.15   2
   3 -11   3   15.10    6.86  -1
  -3  -9   7   15.10    6.86   2
   3 -11   4    0.17    3.23   1
   3 -11   4   -0.26    3.18   1
   3 -11   5    5.21    3.33   1
   3 -11   5    0.70    2.25   1
   3 -11   6    0.32    3.72   1
   3 -11   6    6.08    3.49   1
   3 -11   7   17.67    3.01   1
   3 -11   7   12.66    6.39  -1
  -3 -10   4   12.66    6.39   2
   3 -11   8   -0.39    3.69   1
   3 -11   8    0.64    1.89   1
  -3  10  10   -0.94    2.33   1
  -3  10   9    7.95    2.65   1
  -3  10   8    0.90    2.48   1
  -3  10   7    5.23    2.53   1
  -3  10   6    8.95    2.94   1
  -3  10   5    9.08    1.84   1
  -3  10   4   27.08    5.80  -1
   3   6 -12   27.08    5.80   2
  -3  10   3   -0.01    2.37   1
  -3  10   2   -0.29    2.64   1
   3 -10  -1    0.53    1.77   1
   3 -10  -1   -1.75    2.36   1
   3 -10   0   12.52    2.13   1
   3 -10   0    4.54    2.19   1
   3 -10   1    2.99    1.73   1
   3 -10   2   -0.66    1.86   1
   3 -10   2    1.16    1.84   1
   3 -10   3    5.74    6.40  -1
  -3  -8   6    5.74    6.40   2
   3 -10   3    7.30    6.88  -1
  -3  -8   6    7.30    6.88   2
   3 -10   4    9.70    3.82   1
   3 -10   5    7.03    2.31   1
   3 -10   5    3.93    3.22   1
   3 -10   6    4.72    3.76   1
   3 -10   6   12.12    6.76  -1
  -3  -9   4   12.12    6.76   2
   3 -10   7    7.83    3.99   1
   3 -10   7    4.30    2.26   1
   3 -10   8   -6.52    3.86   1
   3 -10   8    2.75    3.38   1
   3 -10   9    2.09    2.56   1
   3 -10   9    6.86    3.55   1
   3 -10  10   -0.46    4.15   1
   3 -10  10   -1.93    2.15   1
   3 -10  11    1.22    3.36   1
  -3   9  11    2.55    2.13   1
  -3   9  10   -2.58    2.15   1
  -3   9   9    5.38    2.38   1
  -3   9   8   -0.17    2.25   1
  -3   9   7    6.61    2.56   1
  -3   9   6   17.21    2.07   1
  -3   9   5    8.44    4.80  -1
   3   5 -12    8.44    4.80   2
  -3   9   4    1.35    1.48   1
  -3   9   3    3.96    2.47   1
   3  -9  -2    3.27    1.70   1
   3  -9  -2    1.70    2.24   1
   3  -9  -1   -4.04    2.51   1
   3  -9  -1    0.50    1.83   1
   3  -9   0   13.09    2.97   1
   3  -9   0   16.72    2.50   1
   3  -9   1    4.53    3.11   1
   3  -9   1    5.99    2.12   1
   3  -9   2   26.69    5.63  -1
  -3  -7   6   26.69    5.63   2
   3  -9   2   36.97    4.83  -1
  -3  -7   6   36.97    4.83   2
   3  -9   3   15.29    2.36   1
   3  -9   3    8.08    2.26   1
   3  -9   4    6.29    2.28   1
   3  -9   4    7.50    2.06   1
   3  -9   5    1.23    3.55   1
   3  -9   5    4.32    2.17   1
   3  -9   6   45.52    5.57   1
   3  -9   6   48.19    5.32   1
   3  -9   7    0.63    3.84   1
   3  -9   7    4.03    3.48   1
   3  -9   8   -2.07    3.63   1
   3  -9   8   -3.59    3.54   1
   3  -9   9   14.14    6.40  -1
  -3  -9   0   14.14    6.40   2
   3  -9   9    9.88    3.55  -1
  -3  -9   0    9.88    3.55   2
   3  -9  10    1.37    2.20   1
   3  -9  10   -5.17    2.98   1
   3  -9  11    5.53    3.91   1
   3  -9  11   -1.40    3.26   1
   3  -9  12    2.26    3.95   1
   3  -9  12    9.19    3.43   1
   3  -9  13   -1.59    4.03   1
   3  -9  13    4.53    3.23   1
  -3   8  11   10.52    2.27   1
  -3   8  10   22.39    2.74   1
  -3   8   9    3.32    2.07   1
  -3   8   8   11.53    2.26   1
  -3   8   7   32.60    3.09   1
  -3   8   6   15.83    2.64   1
  -3   8   5   50.52    3.82  -1
   3   4 -11   50.52    3.82   2
  -3   8   4    4.23    2.06   1
   3  -8  -3    0.32    1.52   1
   3  -8  -3    5.41    2.18   1
   3  -8  -2    2.64    1.47   1
   3  -8  -2    4.72    2.91   1
   3  -8  -1    9.46    2.48   1
   3  -8  -1    3.15    2.08   1
   3  -8   0    1.05    2.66   1
   3  -8   0    4.94    1.79   1
   3  -8   1   -1.16    2.72   1
   3  -8   1    6.17    3.02   1
   3  -8   2   41.81    7.43  -1
  -3  -6   5   41.81    7.43   2
   3  -8   2   28.85    7.09  -1
  -3  -6   5   28.85    7.09   2
   3  -8   3    2.72    3.13   1
   3  -8   3   -2.15    2.84   1
   3  -8   4   11.83    3.73   1
   3  -8   4    5.59    3.35   1
   3  -8   5   12.47    3.94   1
   3  -8   5   27.83    9.84  -1
  -3  -7   2   27.83    9.84  -2
  -3  -7   3   27.83    9.84   2
   3  -8   6   15.97    2.72   1
   3  -8   6   26.04    4.24   1
   3  -8   7    3.23    3.57   1
   3  -8   7   -6.80    3.22   1
   3  -8   8    1.45    2.30   1
   3  -8   8    5.14    3.20   1
   3  -8   9   16.01    7.61  -1
  -3  -8  -1   16.01    7.61   2
   3  -8   9    8.15    4.37  -1
  -3  -8  -1    8.15    4.37   2
   3  -8  10    4.95    3.80   1
   3  -8  10    1.75    3.34   1
   3  -8  11   12.21    2.61   1
   3  -8  11    5.36    3.80   1
   3  -8  12   -4.75    3.91   1
   3  -8  12    8.83    5.26  -1
  -3  -9  -3    8.83    5.26   2
   3  -8  13    3.57    3.54   1
   3  -8  13    5.17    3.52   1
   3  -8  14   -0.07    3.85   1
   3  -8  14    4.82    3.38   1
  -3   7  12    3.64    1.69   1
  -3   7  11    3.79    2.04   1
  -3   7  10    9.10    1.54   1
  -3   7  10    9.11    1.85   1
  -3   7   9    3.84    1.52   1
  -3   7   9    6.74    1.87   1
  -3   7   8   13.12    1.84   1
  -3   7   8   17.91    2.18   1
  -3   7   7   39.49    2.80   1
  -3   7   7   53.98    3.24   1
  -3   7   6   12.54    3.64  -1
   3   3 -11   12.54    3.64   2
  -3   7   6   11.10    3.54  -1
   3   3 -11   11.10    3.54   2
  -3   7   5    8.35    1.91   1
  -3   7   5    7.26    2.04   1
  -3   7   4    1.03    1.73   1
  -3   7   4    1.32    1.89   1
   3  -7  -3    2.64    2.05   1
   3  -7  -3    4.04    3.27   1
  -3   7   3    0.41    1.74   1
   3  -7  -2    2.07    2.01   1
   3  -7  -2   -1.49    2.86   1
  -3   7   2    3.90    1.89   1
   3  -7  -1   27.33    3.24   1
   3  -7  -1   27.98    2.49   1
  -3   7   1   22.33    2.71   1
   3  -7   0   15.36    2.80   1
   3  -7   0    9.45    3.29   1
   3  -7   1   69.44    7.05  -1
  -3  -5   5   69.44    7.05   2
   3  -7   1   57.23    6.86  -1
  -3  -5   5   57.23    6.86   2
   3  -7   2   30.48    4.05   1
   3  -7   2   23.58    2.62   1
   3  -7   3   12.35    3.48   1
   3  -7   3   12.78    3.37   1
   3  -7   4   14.34    3.63   1
   3  -7   4    5.36    3.59   1
   3  -7   5  143.92    8.82   1
   3  -7   5  164.71   15.26  -1
  -3  -6   1  164.71   15.26  -2
  -3  -6   2  164.71   15.26   2
   3  -7   6    1.65    1.99   1
   3  -7   6    3.05    2.97   1
   3  -7   7    6.85    3.35   1
   3  -7   7    3.60    3.23   1
   3  -7   8   38.19    6.23  -1
  -3  -7  -1   38.19    6.23   2
   3  -7   8   25.77    5.65  -1
  -3  -7  -1   25.77    5.65   2
   3  -7   9    3.64    2.17   1
   3  -7   9    2.78    2.01   1
   3  -7  10   15.62    4.23   1
   3  -7  10   11.97    3.93   1
   3  -7  11   -2.21    3.63   1
   3  -7  12    7.81    2.62   1
   3  -7  12    8.48    6.17  -1
  -3  -8  -5    8.48    6.17   2
   3  -7  13    2.31    2.32   1
   3  -7  13   -2.14    3.40   1
   3  -7  14    1.23    2.50   1
   3  -7  14    7.23    3.34   1
   3  -7  15   13.34    3.05  -1
  -3  -9  -7   13.34    3.05   2
   3  -7  15   -1.22    4.73  -1
  -3  -9  -7   -1.22    4.73   2
  -3   6  13   14.66    2.59  -1
   3   0 -16   14.66    2.59   2
  -3   6  12   26.17    1.99   1
  -3   6  11   35.65    2.22   1
  -3   6  11   43.70    2.42   1
  -3   6  10    0.58    1.11   1
  -3   6  10    2.52    1.31   1
  -3   6   9   11.77    1.75   1
  -3   6   9   12.68    1.77   1
  -3   6   8   62.18    2.97   1
  -3   6   8   72.20    3.44   1
  -3   6   7   16.16    1.68   1
  -3   6   7   19.49    1.91   1
  -3   6   6  118.07    6.36  -1
   3   2 -10  118.07    6.36   2
  -3   6   6  123.27    7.20  -1
   3   2 -10  123.27    7.20   2
  -3   6   5    7.04    1.60   1
  -3   6   5    3.37    1.55   1
   3  -6  -4    1.17    1.08   1
  -3   6   4    2.72    1.43   1
   3  -6  -3    1.78    1.70   1
   3  -6  -3    3.57    1.52   1
  -3   6   3    1.64    0.98   1
   3  -6  -2   13.10    2.24   1
   3  -6  -2    9.89    2.89   1
  -3   6   2   15.56    2.15   1
   3  -6  -1   10.75    2.37   1
   3  -6  -1   13.75    3.01   1
  -3   6   1   12.84    2.27   1
   3  -6   0    4.55    2.42   1
   3  -6   0    3.49    2.56   1
  -3   6   0    5.89    2.05   1
   3  -6   1   67.93    7.16  -1
  -3  -4   4   67.93    7.16   2
   3  -6   1   65.10    7.63  -1
  -3  -4   4   65.10    7.63   2
  -3   6  -1   53.56    6.53  -1
   3   4  -4   53.56    6.53   2
   3  -6   2   13.43    3.22   1
   3  -6   2   20.50    3.49   1
  -3   6  -2   10.63    2.56   1
   3  -6   3   20.33    3.45   1
   3  -6   3   19.09    2.16   1
   3  -6   4   26.61    3.89   1
   3  -6   4   41.30    7.19  -1
  -3  -5   2   41.30    7.19   2
   3  -6   5   52.88    4.87   1
   3  -6   5   52.89    4.83   1
   3  -6   6   10.49    2.21   1
   3  -6   6    8.05    3.25   1
   3  -6   7    0.14    3.24   1
   3  -6   7    3.05    3.04   1
   3  -6   8   28.51    4.83  -1
  -3  -6  -2   28.51    4.83   2
   3  -6   8   31.71    7.36  -1
  -3  -6  -2   31.71    7.36   2
   3  -6   9   -1.50    2.10   1
   3  -6   9    6.94    3.21   1
   3  -6  10   18.07    4.09   1
   3  -6  10    4.48    3.58   1
   3  -6  11    6.85    3.81   1
   3  -6  11   18.09    7.30  -1
  -3  -7  -4   18.09    7.30   2
   3  -6  12    6.14    3.95   1
   3  -6  12    4.11    2.20   1
   3  -6  13   -1.91    3.50   1
   3  -6  13    2.54    3.32   1
   3  -6  14    1.89    2.33   1
   3  -6  14    3.91    3.21   1
   3  -6  15    4.14    4.64  -1
  -3  -8  -8    4.14    4.64   2
   3  -6  15    9.94    4.16  -1
  -3  -8  -8    9.94    4.16   2
   3  -6  16    4.85    3.80   1
   3  -6  16    4.98    2.15   1
  -3   5  13   30.64    2.99  -1
   3  -1 -15   30.64    2.99   2
   3  -5 -12    0.64    1.24   1
  -3   5  12    2.00    1.04   1
  -3   5  11    8.19    0.90   1
  -3   5  11   21.13    1.45   1
  -3   5  10    9.62    1.44   1
  -3   5  10   10.73    1.66   1
  -3   5   9   18.17    1.39   1
  -3   5   9   21.24    1.84   1
  -3   5   8  104.35    3.71   1
  -3   5   7   27.75    2.59  -1
   3   1 -10   27.75    2.59   2
  -3   5   7   20.18    3.31  -1
   3   1 -10   20.18    3.31   2
  -3   5   6   17.54    1.51   1
  -3   5   6   16.29    1.62   1
  -3   5   5    4.67    1.64   1
  -3   5   5    4.76    1.18   1
  -3   5   5    2.24    2.06   1
   3  -5  -4    3.85    1.46   1
   3  -5  -4    2.07    1.64   1
  -3   5   4    1.95    1.25   1
  -3   5   4    4.21    1.97   1
   3  -5  -3   10.11    1.68   1
   3  -5  -3   10.03    1.62   1
  -3   5   3    7.71    1.64   1
  -3   5   3    7.21    2.21   1
   3  -5  -2   60.35    3.23   1
   3  -5  -2   60.44    4.03   1
  -3   5   2   57.95    3.12   1
  -3   5   2   59.99    2.71   1
   3  -5  -1   28.37    1.87   1
   3  -5  -1   25.94    3.02   1
  -3   5   1   27.81    1.60   1
  -3   5   1   23.68    2.77   1
   3  -5   0   72.88    6.30  -1
  -3  -3   4   72.88    6.30   2
   3  -5   0   78.24    6.99  -1
  -3  -3   4   78.24    6.99   2
  -3   5   0   66.28    4.76  -1
   3   3  -4   66.28    4.76   2
  -3   5   0   71.16    6.58  -1
   3   3  -4   71.16    6.58   2
   3  -5   1   60.93    3.89   1
   3  -5   1   50.75    3.03   1
  -3   5  -1   49.72    3.47   1
  -3   5  -1   50.87    3.83   1
   3  -5   2   31.53    3.36   1
   3  -5   2   39.73    3.84   1
  -3   5  -2   35.91    3.21   1
  -3   5  -2   34.31    2.18   1
   3  -5   3    0.40    2.54   1
   3  -5   3   10.92    2.57   1
  -3   5  -3    4.96    2.47   1
  -3   5  -3    4.16    2.41   1
   3  -5   4  297.24   13.98   1
  -3   5  -4  267.11   10.95   1
  -3   5  -4  349.86   20.36  -1
   3   4   0  349.86   20.36   2
   3  -5   5   -1.38    1.61   1
   3  -5   5    4.09    1.64   1
   3  -5   6    1.74    2.90   1
   3  -5   6    2.36    1.73   1
   3  -5   7   62.13    6.69  -1
  -3  -5  -2   62.13    6.69   2
   3  -5   7   67.51    4.73  -1
  -3  -5  -2   67.51    4.73   2
   3  -5   8   23.11    4.05   1
   3  -5   8   18.38    2.38   1
   3  -5   9   33.46    4.76   1
   3  -5   9   33.47    3.98   1
   3  -5  10   -0.59    3.40   1
   3  -5  10    7.67    3.22   1
   3  -5  11   18.50    4.29   1
   3  -5  11   34.66    7.82  -1
  -3  -6  -6   34.66    7.82   2
   3  -5  12   16.75    4.19   1
   3  -5  12   15.36    2.56   1
   3  -5  13    4.72    3.86   1
   3  -5  13   14.60    3.73   1
   3  -5  14    8.19    4.45  -1
  -3  -7  -8    8.19    4.45   2
   3  -5  14   -1.33    5.01  -1
  -3  -7  -8   -1.33    5.01   2
   3  -5  15    1.97    3.72   1
   3  -5  15    7.56    2.23   1
   3  -5  16   14.63    4.10   1
   3  -5  16    9.53    2.43   1
   3  -5  17    5.37    3.54   1
   3  -5  17    0.19    3.43   1
  -3   4  14   23.70    2.32  -1
   3  -2 -15   23.70    2.32   2
   3  -4 -13   70.81    4.04  -1
  -3   2  14   70.81    4.04   2
  -3   4  13   82.11    5.01  -1
   3  -2 -14   82.11    5.01   2
   3  -4 -12   71.65    2.96   1
  -3   4  12   80.00    3.19   1
   3  -4 -11    1.56    0.75   1
  -3   4  11    1.19    1.14   1
   3  -4 -10   11.79    0.93   1
  -3   4  10   12.02    1.01   1
  -3   4   9  138.40    4.37   1
  -3   4   9  133.50    4.24   1
  -3   4   9  143.48    5.82   1
  -3   4   8   18.72    1.33   1
  -3   4   8   19.14    1.47   1
  -3   4   8   15.73    1.62   1
  -3   4   7  211.40    7.21  -1
   3   0  -9  211.40    7.21   2
  -3   4   7  221.48    8.00  -1
   3   0  -9  221.48    8.00   2
  -3   4   7  223.76   10.46  -1
   3   0  -9  223.76   10.46   2
  -3   4   6   11.01    1.32   1
  -3   4   6   14.50    1.38   1
  -3   4   6    9.48    2.18   1
  -3   4   5    5.19    0.92   1
  -3   4   5   -0.59    1.13   1
  -3   4   5    1.49    1.11   1
   3  -4  -4    6.38    1.08   1
   3  -4  -4    5.92    2.21   1
  -3   4   4    7.12    1.11   1
  -3   4   4    5.57    1.80   1
   3  -4  -3   20.34    1.58   1
   3  -4  -3   18.00    1.68   1
  -3   4   3   19.59    1.57   1
  -3   4   3   21.26    2.51   1
   3  -4  -2   29.49    2.20   1
   3  -4  -2   28.04    1.91   1
  -3   4   2   24.82    2.00   1
  -3   4   2   28.01    2.63   1
   3  -4  -1   23.95    2.35   1
   3  -4  -1   19.66    2.98   1
  -3   4   1   20.38    2.12   1
  -3   4   1   23.55    2.63   1
   3  -4   0  118.35    7.44  -1
  -3  -2   3  118.35    7.44   2
   3  -4   0  130.04    9.51  -1
  -3  -2   3  130.04    9.51   2
  -3   4   0  123.44    7.10  -1
   3   2  -3  123.44    7.10   2
  -3   4   0  116.41    8.56  -1
   3   2  -3  116.41    8.56   2
   3  -4   1   22.13    2.80   1
   3  -4   1   20.97    3.16   1
  -3   4  -1   24.84    2.61   1
  -3   4  -1   23.05    2.74   1
   3  -4   2   34.13    3.23   1
   3  -4   2   32.02    3.43   1
  -3   4  -2   31.70    3.13   1
  -3   4  -2   32.29    3.05   1
   3  -4   3   44.78    4.05   1
   3  -4   3   45.76    2.82   1
  -3   4  -3   50.48    3.67   1
  -3   4  -3   47.13    3.90   1
   3  -4   4  108.67    6.07   1
   3  -4   4  101.98    6.04   1
  -3   4  -4  106.80    5.57   1
  -3   4  -4  112.02    5.87   1
   3  -4   5   25.61    2.26   1
   3  -4   5   25.40    3.65   1
  -3   4  -5   24.64    3.23   1
  -3   4  -5   24.45    2.12   1
   3  -4   6    2.37    2.63   1
  -3   4  -6    0.58    2.31   1
   3  -4   6    6.74    5.95  -1
  -3  -4  -2    6.74    5.95   2
   3  -4   7   47.62    7.72  -1
  -3  -4  -3   47.62    7.72   2
   3  -4   7   47.59    6.44  -1
  -3  -4  -3   47.59    6.44   2
   3  -4   8    8.32    3.58   1
   3  -4   8   11.35    3.36   1
   3  -4   9   20.75    2.63   1
   3  -4   9   19.38    2.35   1
   3  -4  10   16.71    2.65   1
   3  -4  10   20.50    3.70   1
   3  -4  11    8.61    2.26   1
   3  -4  11    6.61    2.21   1
   3  -4  12   24.12    4.58   1
   3  -4  12   17.67    3.97   1
   3  -4  13    8.01    3.59   1
   3  -4  13   20.31    8.02  -1
  -3  -6  -8   20.31    8.02   2
   3  -4  14    5.10    7.25  -1
  -3  -6  -9    5.10    7.25   2
   3  -4  14   10.37    3.92  -1
  -3  -6  -9   10.37    3.92   2
   3  -4  15    1.37    3.58   1
   3  -4  15    4.25    2.09   1
   3  -4  16   43.48    5.45   1
   3  -4  16   39.89    3.74   1
   3  -4  17    5.66    2.34   1
   3  -4  17    0.17    3.33   1
  -3   3  15   16.57    2.27  -1
   3  -3 -15   16.57    2.27   2
  -3   3  14   36.78    3.18  -1
   3  -3 -14   36.78    3.18   2
   3  -3 -13    0.55    0.76   1
  -3   3  13   -0.24    0.83   1
   3  -3 -12   24.40    1.55   1
  -3   3  12   24.76    1.32   1
   3  -3 -11   13.19    1.08   1
  -3   3  11   11.06    1.22   1
   3  -3 -10   18.13    0.96   1
  -3   3  10   20.58    1.22   1
  -3   3   9  150.21    3.88   1
  -3   3   8   32.71    1.51  -1
   3  -1  -9   32.71    1.51   2
  -3   3   8   32.25    1.53  -1
   3  -1  -9   32.25    1.53   2
  -3   3   8   39.27    4.67  -1
   3  -1  -9   39.27    4.67   2
  -3   3   7   27.74    0.90   1
  -3   3   7   27.22    0.83   1
  -3   3   7   28.79    2.49   1
  -3   3   6   11.55    0.62   1
  -3   3   6   10.66    0.71   1
  -3   3   6   11.64    1.83   1
  -3   3   5   26.89    1.18   1
  -3   3   5   26.44    1.12   1
  -3   3   5   28.27    1.55   1
   3  -3  -4   15.78    1.23   1
   3  -3  -4   15.67    2.07   1
  -3   3   4   16.12    1.25   1
  -3   3   4   16.35    1.34   1
   3  -3  -3  111.72    3.44   1
   3  -3  -3  112.55    3.94   1
  -3   3   3  117.40    3.94   1
  -3   3   3  120.06    5.20   1
   3  -3  -2   61.17    2.66   1
   3  -3  -2   58.48    3.53   1
  -3   3   2   53.80    2.91   1
  -3   3   2   60.92    3.25   1
   3  -3  -1   72.61    4.85  -1
  -3  -1   3   72.61    4.85   2
   3  -3  -1   78.50    6.27  -1
  -3  -1   3   78.50    6.27   2
  -3   3   1   67.54    3.70  -1
   3   1  -3   67.54    3.70   2
  -3   3   1   67.81    4.85  -1
   3   1  -3   67.81    4.85   2
   3  -3   0   86.92    4.04   1
   3  -3   0   78.04    3.16   1
  -3   3   0   79.46    3.76   1
  -3   3   0   86.70    4.18   1
   3  -3   1   91.37    4.63   1
   3  -3   1   88.28    4.95   1
  -3   3  -1   92.70    4.30   1
  -3   3  -1   86.88    3.36   1
   3  -3   2    7.78    1.54   1
   3  -3   2    8.87    2.55   1
  -3   3  -2    6.78    2.17   1
  -3   3  -2    6.79    1.35   1
   3  -3   3  536.87   22.83   1
   3  -3   3  533.73   20.58   1
  -3   3  -3  533.64   20.63   1
  -3   3  -3  539.77   21.25   1
   3  -3   4   -0.61    1.52   1
   3  -3   4    0.72    2.40   1
  -3   3  -4   -1.16    2.25   1
  -3   3  -4    2.01    1.21   1
   3  -3   5    3.90    2.67   1
   3  -3   5    1.02    2.52   1
  -3   3  -5    1.90    1.43   1
  -3   3  -5    3.34    2.27   1
   3  -3   6  123.91    8.33  -1
  -3  -3  -3  123.91    8.33   2
   3  -3   6  128.18    8.82  -1
  -3  -3  -3  128.18    8.82   2
  -3   3  -6  146.34    8.29  -1
   3   3   3  146.34    8.29   2
  -3   3  -6  136.46    6.43  -1
   3   3   3  136.46    6.43   2
   3  -3   7   78.02    5.53   1
   3  -3   7   65.07    4.94   1
  -3   3  -7   61.41    4.52   1
   3  -3   8   79.34    5.46   1
   3  -3   8   68.28    5.28   1
   3  -3   9   22.53    3.58   1
   3  -3   9   24.30    7.14  -1
  -3  -4  -5   24.30    7.14   2
   3  -3  10   30.41    4.22   1
   3  -3  10   28.34    4.16   1
   3  -3  11   49.50    3.59   1
   3  -3  11   56.18    5.26   1
   3  -3  12    8.74    2.37   1
   3  -3  12   12.93    3.69   1
   3  -3  13   20.00    4.63  -1
  -3  -5  -9   20.00    4.63   2
   3  -3  13   14.42    3.33  -1
  -3  -5  -9   14.42    3.33   2
   3  -3  14   11.05    3.51   1
   3  -3  14    7.10    2.29   1
   3  -3  15   17.66    4.01   1
   3  -3  15   10.96    2.67   1
   3  -3  16    6.66    2.15   1
   3  -3  16    3.12    2.19   1
   3  -3  17    8.28    3.74   1
   3  -3  17    6.28    2.29   1
   3  -3  18   -0.66    3.53   1
   3  -3  18    1.72    2.14   1
  -3   2  15   20.37    2.36  -1
   3  -4 -14   20.37    2.36   2
   3  -2 -14   24.77    1.93   1
  -3   2  14   31.27    1.68   1
   3  -2 -13   75.98    2.68   1
  -3   2  13   77.91    2.67   1
   3  -2 -12   -0.85    0.86   1
  -3   2  12    0.32    0.74   1
   3  -2 -11    7.65    0.92   1
  -3   2  11    7.71    1.01   1
   3  -2 -10  167.01    4.09   1
  -3   2  10  166.10    4.27   1
   3  -2  -9   15.60    0.60   1
  -3   2   9   35.06    1.53  -1
   3  -2  -9   35.06    1.53   2
  -3   2   8    3.11    1.69  -1
   3  -2  -8    3.11    1.69   2
  -3   2   7   16.11    1.68   1
  -3   2   6   13.26    1.50   1
  -3   2   5   10.84    1.55   1
   3  -2  -4   21.79    0.72   1
   3  -2  -4   25.45    2.06   1
  -3   2   4   22.37    0.76   1
  -3   2   4   22.74    1.27   1
   3  -2  -3   40.85    1.79   1
   3  -2  -3   40.67    2.57   1
  -3   2   3   38.62    1.69   1
  -3   2   3   37.32    1.65   1
   3  -2  -2   55.12    2.31   1
   3  -2  -2   55.87    2.33   1
  -3   2   2   52.54    2.04   1
  -3   2   2   53.16    2.88   1
   3  -2  -1  172.49    7.62  -1
  -3   0   2  172.49    7.62   2
   3  -2  -1  159.53    8.43  -1
  -3   0   2  159.53    8.43   2
  -3   2   1  154.77    6.83  -1
   3   0  -2  154.77    6.83   2
  -3   2   1  167.42    7.50  -1
   3   0  -2  167.42    7.50   2
   3  -2   0   35.83    2.55   1
   3  -2   0   36.90    3.10   1
  -3   2   0   36.06    2.48   1
  -3   2   0   35.69    1.98   1
   3  -2   1   37.83    2.91   1
   3  -2   1   38.80    2.21   1
  -3   2  -1   37.29    2.85   1
  -3   2  -1   38.06    3.03   1
   3  -2   2   62.53    2.80   1
   3  -2   2   60.10    2.88   1
  -3   2  -2   65.74    3.82   1
  -3   2  -2   65.94    3.79   1
   3  -2   3  159.29    5.73   1
   3  -2   3  180.08    7.87   1
  -3   2  -3  173.81    5.87   1
  -3   2  -3  191.31    7.72   1
   3  -2   4   46.27    2.74   1
   3  -2   4   52.63    2.76   1
  -3   2  -4   65.12    4.03   1
  -3   2  -4   60.89    2.79   1
   3  -2   5    2.11    1.64   1
   3  -2   5    4.47    1.64   1
  -3   2  -5    5.96    2.40   1
  -3   2  -5   27.50    5.58  -1
   3   2   3   27.50    5.58   2
   3  -2   6   77.64    4.86  -1
  -3  -2  -4   77.64    4.86   2
   3  -2   6   81.90    6.73  -1
  -3  -2  -4   81.90    6.73   2
  -3   2  -6   84.86    6.14  -1
   3   2   4   84.86    6.14   2
  -3   2  -6   85.93    4.93  -1
   3   2   4   85.93    4.93   2
   3  -2   7   23.96    3.63   1
   3  -2   7   22.98    3.49   1
  -3   2  -7   22.53    2.03   1
  -3   2  -7   27.86    1.98   1
   3  -2   8   36.06    3.89   1
   3  -2   8   31.29    2.64   1
   3  -2   9   43.62    4.49   1
   3  -2   9   37.95    4.30   1
   3  -2  10   15.88    2.27   1
   3  -2  10    9.57    3.51   1
   3  -2  11   58.09    5.38   1
   3  -2  11   59.19    3.77   1
   3  -2  12   39.35    8.02  -1
  -3  -4  -9   39.35    8.02   2
   3  -2  12   40.57    7.07  -1
  -3  -4  -9   40.57    7.07   2
   3  -2  13    6.53    3.33  -1
  -3  -4 -10    6.53    3.33   2
   3  -2  13   11.68    4.89  -1
  -3  -4 -10   11.68    4.89   2
   3  -2  14    5.78    3.39   1
   3  -2  14    6.53    2.25   1
   3  -2  15   68.55    6.18   1
   3  -2  15   59.33    4.15   1
   3  -2  16    0.30    3.36   1
   3  -2  16    2.25    2.15   1
   3  -2  17    0.22    3.49   1
   3  -2  17   -1.76    2.18   1
   3  -2  18    5.62    2.39   1
   3  -2  18    4.06    3.88   1
  -3   1  16    8.95    3.19  -1
   3  -5 -14    8.95    3.19   2
  -3   1  15   33.02    3.79  -1
   3  -5 -13   33.02    3.79   2
   3  -1 -14    2.28    1.02   1
  -3   1  14   -0.50    1.11   1
   3  -1 -13   19.72    1.42   1
  -3   1  13   22.23    1.47   1
   3  -1 -12    9.90    1.38   1
  -3   1  12   12.38    1.47   1
   3  -1 -11    9.14    1.25   1
  -3   1  11   12.50    1.27   1
   3  -1 -10  121.38    3.39   1
  -3   1  10  137.54    4.08   1
   3  -1  -9   29.21    1.50  -1
  -3   3   8   29.21    1.50   2
  -3   1   9   32.90    1.88  -1
   3  -3  -8   32.90    1.88   2
  -3   1   8   33.81    1.16   1
   3  -1  -7   20.57    0.63   1
   3  -1  -7   19.39    0.61   1
  -3   1   7   25.72    1.75   1
   3  -1  -6   62.39    1.32   1
   3  -1  -6   62.11    1.31   1
  -3   1   6   65.66    2.72   1
   3  -1  -5   15.93    0.49   1
   3  -1  -5   16.09    0.64   1
  -3   1   5   16.61    1.21   1
   3  -1  -4  138.26    3.42   1
   3  -1  -4  137.37    4.82   1
  -3   1   4  149.47    3.58   1
  -3   1   4  139.52    4.27   1
   3  -1  -3   70.10    2.15   1
   3  -1  -3   69.28    2.64   1
  -3   1   3   77.87    2.53   1
  -3   1   3   76.05    2.81   1
   3  -1  -2   64.37    3.26  -1
  -3   1   2   64.37    3.26   2
   3  -1  -2   59.22    3.80  -1
  -3   1   2   59.22    3.80   2
  -3   1   2   66.10    3.14  -1
   3  -1  -2   66.10    3.14   2
  -3   1   2   63.63    3.75  -1
   3  -1  -2   63.63    3.75   2
   3  -1  -1  115.14    4.07   1
   3  -1  -1  106.48    4.10   1
  -3   1   1  114.13    3.90   1
  -3   1   1  112.37    4.34   1
   3  -1   0  165.68    6.17   1
   3  -1   0  168.73    5.12   1
  -3   1   0  178.99    6.10   1
  -3   1   0  176.36    6.32   1
   3  -1   1    6.99    1.84   1
   3  -1   1    3.67    2.07   1
  -3   1  -1   -1.88    1.86   1
  -3   1  -1    6.05    1.89   1
   3  -1   2  720.88   29.61   1
   3  -1   2  736.50   30.23   1
  -3   1  -2  672.46   25.73   1
  -3   1  -2  708.64   27.52   1
   3  -1   3    2.68    1.44   1
   3  -1   3    0.63    1.36   1
  -3   1  -3    0.12    1.98   1
  -3   1  -3    1.27    1.93   1
   3  -1   4    1.66    2.55   1
   3  -1   4    1.87    1.39   1
  -3   1  -4    1.09    2.00   1
  -3   1  -4    0.69    1.24   1
   3  -1   5  177.35    9.38  -1
  -3  -1  -4  177.35    9.38   2
   3  -1   5  191.54   10.75  -1
  -3  -1  -4  191.54   10.75   2
  -3   1  -5  203.02    9.20  -1
   3   1   4  203.02    9.20   2
   3  -1   6  158.91    9.48   1
  -3   1  -6  270.15   10.48   1
   3  -1   6  392.83   21.19  -1
  -3  -1  -5  392.83   21.19   2
   3  -1   7  112.58    4.63   1
   3  -1   7  109.35    6.41   1
  -3   1  -7  108.38    5.77   1
   3  -1   8   26.26    3.65   1
   3  -1   8   25.83    2.53   1
   3  -1   9   29.72    2.70   1
   3  -1   9   39.08    2.89   1
   3  -1  10  128.68    7.28   1
   3  -1  10  115.88    7.31   1
   3  -1  11    8.47    2.19   1
   3  -1  11    6.54    3.53   1
   3  -1  12   22.80    4.60  -1
  -3  -3 -10   22.80    4.60   2
   3  -1  12   18.64    5.52  -1
  -3  -3 -10   18.64    5.52   2
   3  -1  13    8.95    3.83   1
   3  -1  13   22.61    6.02  -1
  -3  -3 -11   22.61    6.02   2
   3  -1  14   27.43    3.97   1
   3  -1  14   16.42    2.80   1
   3  -1  15    7.25    3.81   1
   3  -1  15   10.03    2.41   1
   3  -1  16   -0.36    3.33   1
   3  -1  16    2.99    3.57   1
   3  -1  17   -0.24    3.34   1
   3  -1  17   -3.03    3.66   1
   3  -1  18    0.57    3.27   1
   3  -1  18   -1.00    3.62   1
  -3   0  18    3.22    2.05   1
  -3   0  16   13.74    2.25  -1
   3  -6 -13   13.74    2.25   2
   3   0 -15   10.37    2.00   1
  -3   0  15   12.24    1.62   1
   3   0 -14   53.73    3.05   1
  -3   0  14   56.85    2.74   1
   3   0 -13    0.01    1.12   1
  -3   0  13    1.37    1.19   1
   3   0 -12    3.44    1.18   1
  -3   0  12    3.20    1.22   1
   3   0 -11  128.58    4.33   1
  -3   0  11  126.42    4.32   1
   3   0 -10    9.68    1.20   1
  -3   0  10   10.90    1.62   1
   3   0  -9  218.04    8.47  -1
  -3   4   7  218.04    8.47   2
  -3   0   9  211.29    8.46  -1
   3  -4  -7  211.29    8.46   2
   3   0  -8   20.78    1.62   1
  -3   0   8   21.11    1.55   1
   3   0  -7   25.26    1.45   1
  -3   0   7   17.21    0.83   1
  -3   0   7    5.16    0.65   1
   3   0  -6   12.52    1.27   1
   3   0  -6   11.74    1.31   1
  -3   0   6   14.31    1.03   1
   3   0  -5   15.26    1.26   1
   3   0  -5   15.46    1.43   1
  -3   0   5   15.11    0.94   1
   3   0  -4   37.10    1.66   1
   3   0  -4   33.27    1.35   1
  -3   0   4   38.41    1.93   1
  -3   0   4   38.22    1.46   1
   3   0  -3   79.83    3.54   1
   3   0  -3   83.31    2.68   1
  -3   0   3   81.98    3.29   1
  -3   0   3   85.12    2.67   1
   3   0  -2  159.31    6.47  -1
  -3   2   1  159.31    6.47   2
   3   0  -2  174.15    6.68  -1
  -3   2   1  174.15    6.68   2
  -3   0   2  167.48    6.90  -1
   3  -2  -1  167.48    6.90   2
  -3   0   2  168.27    5.85  -1
   3  -2  -1  168.27    5.85   2
   3   0  -1   45.14    2.85   1
   3   0  -1   42.85    2.19   1
  -3   0   1   42.84    2.38   1
  -3   0   1   44.09    2.62   1
   3   0   0   29.90    2.60   1
   3   0   0   25.11    2.24   1
  -3   0   0   25.78    2.33   1
  -3   0   0   28.94    2.01   1
   3   0   1   52.67    2.49   1
   3   0   1   51.39    3.54   1
  -3   0  -1   56.57    3.36   1
   3   0   2  180.28    6.16   1
   3   0   2  186.29    7.48   1
  -3   0  -2  191.24    7.36   1
   3   0   3   85.89    5.16   1
   3   0   3   84.35    4.69   1
  -3   0  -3   86.75    4.37   1
   3   0   4   13.86    1.85   1
   3   0   4   29.03    3.83  -1
  -3   0  -4   29.03    3.83   2
  -3   0  -4   20.99    4.30  -1
   3   0   4   20.99    4.30   2
   3   0   5  120.87    7.39  -1
  -3   0  -5  120.87    7.39   2
   3   0   5  126.40    8.57  -1
  -3   0  -5  126.40    8.57   2
  -3   0  -5  120.39    6.19  -1
   3   0   5  120.39    6.19   2
   3   0   6   47.49    2.73   1
   3   0   6   41.63    4.08   1
  -3   0  -6   44.54    2.62   1
   3   0   7   39.03    3.74   1
   3   0   7   33.76    3.90   1
  -3   0  -7   34.74    3.35   1
   3   0   8   60.76    4.39   1
   3   0   8   68.41    5.20   1
   3   0   9   12.02    2.03   1
   3   0   9    8.38    3.27   1
   3   0  10  122.05    5.53   1
   3   0  10  118.86    7.24   1
   3   0  11   20.90    4.05   1
   3   0  11   47.58    5.94  -1
  -3  -2 -10   47.58    5.94   2
   3   0  12    3.23    2.59  -1
  -3  -2 -11    3.23    2.59   2
   3   0  12    0.10    5.22  -1
  -3  -2 -11    0.10    5.22   2
   3   0  13    6.00    3.70   1
   3   0  13   24.16    7.07  -1
  -3  -2 -12   24.16    7.07   2
   3   0  14   63.06    5.80   1
   3   0  14   62.33    4.39   1
   3   0  15    8.13    2.29   1
   3   0  15    0.35    3.87   1
   3   0  16    3.51    3.39   1
   3   0  16   -0.78    3.57   1
   3   0  17    5.27    2.19   1
   3   0  17    1.78    3.64   1
   3   0  18    1.34    4.04  -1
  -3  -4 -16    1.34    4.04   2
   3   0  18    2.36    5.68  -1
  -3  -4 -16    2.36    5.68   2
  -3  -1  17    6.77    3.33  -1
   3  -7 -13    6.77    3.33   2
  -3  -1  17    7.34    3.24  -1
   3  -7 -13    7.34    3.24   2
  -3  -1  16   15.84    1.94   1
  -3  -1  16   15.62    2.86   1
   3   1 -15    1.16    1.50   1
  -3  -1  15   -1.76    1.61   1
  -3  -1  15    3.39    1.52   1
   3   1 -14   13.69    1.86   1
  -3  -1  14   12.51    1.97   1
  -3  -1  14   15.46    1.91   1
   3   1 -13    9.90    1.65   1
  -3  -1  13    8.28    2.25   1
  -3  -1  13    9.13    1.62   1
   3   1 -12    4.31    1.41   1
  -3  -1  12    3.94    1.52   1
  -3  -1  12    7.13    1.73   1
   3   1 -11   78.93    3.57   1
  -3  -1  11   88.31    3.70   1
  -3  -1  11   87.72    3.24   1
  -3  -1  10   24.96    3.45  -1
   3  -5  -7   24.96    3.45   2
  -3  -1  10   22.47    2.29  -1
   3  -5  -7   22.47    2.29   2
   3   1  -9   22.71    1.75   1
  -3  -1   9   24.41    1.87   1
  -3  -1   9   25.22    1.58   1
   3   1  -8   27.33    1.81   1
  -3  -1   8   27.57    2.27   1
  -3  -1   8   28.49    1.35   1
   3   1  -7   64.90    3.03   1
  -3  -1   7   68.11    2.30   1
  -3  -1   7   64.83    1.59   1
   3   1  -6   14.29    1.45   1
   3   1  -6   14.23    1.45   1
   3   1  -5   92.96    3.38   1
   3   1  -5   99.46    3.54   1
   3   1  -4   42.57    1.71   1
   3   1  -4   35.72    2.25   1
   3   1  -3   62.55    4.17  -1
  -3   3   1   62.55    4.17   2
   3   1  -3   73.30    2.25  -1
  -3   3   1   73.30    2.25   2
  -3  -1   3   74.70    4.17  -1
   3  -3  -1   74.70    4.17   2
   3   1  -2   52.64    3.16   1
   3   1  -2   63.55    2.02   1
  -3  -1   2   55.57    2.86   1
   3   1  -1  137.75    5.70   1
   3   1  -1  152.10    4.72   1
  -3  -1   1  134.13    5.20   1
   3   1   0    6.58    2.14   1
  -3  -1   0    0.58    1.90   1
   3   1   1  501.59   20.61   1
  -3  -1  -1  484.51   18.73   1
   3   1   2    0.07    1.46   1
  -3  -1  -2   -1.83    1.92   1
   3   1   3   -0.79    2.43   1
  -3  -1  -3    1.65    1.79   1
   3   1   4  207.62   10.72  -1
  -3   1  -5  207.62   10.72   2
  -3  -1  -4  198.58    8.72  -1
   3  -1   5  198.58    8.72   2
   3   1   5  294.48   11.11   1
  -3  -1  -5  180.18    7.11   1
   3   1   6  104.87    6.13   1
  -3  -1  -6  122.95    5.93   1
   3   1   7   40.23    3.96   1
  -3  -1  -7   45.55    2.60   1
   3   1   8   30.06    3.87   1
   3   1   9  207.57   10.00   1
   3   1  10   33.82    6.61  -1
  -3  -1 -10   33.82    6.61   2
   3   1  11   18.46    4.30  -1
  -3  -1 -11   18.46    4.30   2
   3   1  12   29.29    4.81  -1
  -3  -1 -12   29.29    4.81   2
   3   1  13   22.60    4.24   1
   3   1  14    4.90    3.70   1
   3   1  15    4.98    2.21   1
   3   1  15    2.11    3.51   1
   3   1  16    4.20    3.46   1
   3   1  16    1.48    2.28   1
   3   1  17    4.38    3.50   1
   3   1  17   -7.84    4.28  -1
  -3  -3 -16   -7.84    4.28   2
   3   1  18   -0.08    2.39  -1
  -3  -3 -17   -0.08    2.39   2
   3   1  18    0.64    4.94  -1
  -3  -3 -17    0.64    4.94   2
  -3  -2  17    7.49    2.85  -1
   3  -8 -12    7.49    2.85   2
  -3  -2  16    6.22    1.90   1
  -3  -2  16    3.30    2.22   1
  -3  -2  15   28.42    2.75   1
  -3  -2  15   27.26    2.26   1
   3   2 -14    1.14    1.58   1
  -3  -2  14    1.31    1.79   1
  -3  -2  14    1.48    1.33   1
   3   2 -13    1.01    1.62   1
  -3  -2  13    2.19    1.66   1
  -3  -2  13   -0.05    1.18   1
   3   2 -12   61.74    3.64   1
  -3  -2  12   68.36    3.69   1
  -3  -2  12   64.83    3.14   1
   3   2 -11    7.67    1.57   1
  -3  -2  11    3.08    1.64   1
  -3  -2  11    3.86    1.40   1
   3   2 -10  107.30    6.46  -1
  -3   6   6  107.30    6.46   2
  -3  -2  10  124.31    6.78  -1
   3  -6  -6  124.31    6.78   2
  -3  -2  10  123.03    4.85  -1
   3  -6  -6  123.03    4.85   2
   3   2  -9   18.28    1.88   1
  -3  -2   9   21.86    2.06   1
  -3  -2   9   19.54    1.23   1
   3   2  -8   18.06    1.81   1
  -3  -2   8   20.03    2.13   1
  -3  -2   8   17.34    0.73   1
   3   2  -7    9.21    1.69   1
  -3  -2   7    7.84    1.28   1
   3   2  -6    7.12    1.65   1
   3   2  -6    5.21    1.61   1
   3   2  -5   19.93    2.02   1
   3   2  -5   19.98    1.47   1
   3   2  -4   88.64    3.83   1
   3   2  -4   84.65    3.83   1
   3   2  -4   66.86    1.47   1
   3   2  -3  119.19    7.00  -1
  -3   4   0  119.19    7.00   2
  -3  -2   3  121.43    6.62  -1
   3  -4   0  121.43    6.62   2
   3   2  -2   39.57    3.10   1
  -3  -2   2   38.85    1.94   1
   3   2  -1   15.67    2.45   1
  -3  -2   1   17.91    2.31   1
   3   2   0   25.61    3.20   1
  -3  -2   0   31.08    2.80   1
   3   2   1  100.52    5.39   1
  -3  -2  -1  105.61    3.89   1
   3   2   2   67.62    4.39   1
  -3  -2  -2   62.77    3.89   1
   3   2   3   11.22    4.95  -1
  -3   2  -5   11.22    4.95   2
  -3  -2  -3   25.02    4.73  -1
   3  -2   5   25.02    4.73   2
   3   2   4   89.29    7.71  -1
  -3   2  -6   89.29    7.71   2
  -3  -2  -4  109.34    7.62  -1
   3  -2   6  109.34    7.62   2
   3   2   5   34.96    2.51   1
  -3  -2  -5   42.94    3.57   1
   3   2   6   21.16    2.18   1
  -3  -2  -6   21.05    3.01   1
   3   2   7   67.62    3.49   1
   3   2   8    8.14    3.36   1
   3   2   9  182.17    9.55   1
   3   2  10   19.59    2.58   1
   3   2  11    0.71    3.75  -1
  -3   0 -12    0.71    3.75   2
   3   2  12   16.04    2.57   1
   3   2  13   40.79    4.89   1
   3   2  14   12.66    3.76   1
   3   2  15    6.47    3.44   1
   3   2  16    6.28    2.30   1
  -3  -3  17    9.04    2.43   1
  -3  -3  16    3.54    2.06   1
  -3  -3  15    8.27    2.36   1
  -3  -3  14    6.87    2.03   1
  -3  -3  14    3.81    1.30   1
  -3  -3  13   -1.44    1.95   1
  -3  -3  13   -0.09    1.09   1
   3   3 -12   28.23    2.01   1
  -3  -3  12   42.77    3.23   1
  -3  -3  12   36.13    1.89   1
   3   3 -11   12.38    3.53  -1
  -3   7   6   12.38    3.53   2
  -3  -3  11   22.92    4.23  -1
   3  -7  -6   22.92    4.23   2
  -3  -3  11   11.28    2.13  -1
   3  -7  -6   11.28    2.13   2
   3   3 -10   12.90    2.09   1
  -3  -3  10   15.30    2.36   1
  -3  -3  10   10.86    1.21   1
   3   3  -9   20.31    2.29   1
  -3  -3   9   26.86    2.59   1
  -3  -3   9   19.25    1.14   1
   3   3  -8   38.88    2.73   1
  -3  -3   8   44.37    3.23   1
  -3  -3   8   34.01    1.21   1
   3   3  -7    9.81    1.91   1
  -3  -3   7    1.92    1.44   1
   3   3  -6   51.49    3.09   1
   3   3  -6   44.56    2.24   1
   3   3  -6   54.44    1.36   1
   3   3  -5   12.13    2.06   1
   3   3  -5   17.48    2.38   1
   3   3  -4   65.75    4.48  -1
  -3   5   0   65.75    4.48   2
   3   3  -4   68.78    5.07  -1
  -3   5   0   68.78    5.07   2
   3   3  -4   71.18    2.96  -1
  -3   5   0   71.18    2.96   2
   3   3  -3   28.55    1.99   1
   3   3  -3   22.45    2.73   1
   3   3  -3   24.12    1.17   1
   3   3  -2   59.21    3.94   1
  -3  -3   2   61.94    2.64   1
   3   3  -1    2.94    1.37   1
  -3  -3   1    1.57    1.26   1
   3   3   0  170.90    7.92   1
  -3  -3   0  181.36    7.86   1
   3   3   1   -0.96    1.45   1
  -3  -3  -1    1.99    1.12   1
   3   3   2    3.03    2.42   1
  -3  -3  -2   -0.11    2.09   1
   3   3   3  125.60    7.41  -1
  -3   3  -6  125.60    7.41   2
  -3  -3  -3  124.59    6.94  -1
   3  -3   6  124.59    6.94   2
   3   3   4  102.23    5.92   1
  -3  -3  -4  101.29    4.35   1
   3   3   5   77.64    5.21   1
   3   3   6   33.86    2.69   1
   3   3   7   17.73    2.32   1
   3   3   8  176.90    7.30   1
   3   3   9   15.71    2.38   1
   3   3  10   16.14    4.50  -1
  -3   1 -12   16.14    4.50   2
   3   3  11   16.33    5.66  -1
  -3   1 -13   16.33    5.66   2
   3   3  12    7.97    2.19   1
   3   3  13   13.30    2.52   1
   3   3  14    7.00    3.52   1
   3   3  15    6.96    6.34  -1
  -3  -1 -16    6.96    6.34   2
   3   3  16   -1.29    4.24  -1
  -3  -1 -17   -1.29    4.24   2
   3   3  17   -2.00    3.90  -1
  -3  -1 -18   -2.00    3.90   2
  -3  -4  18   -0.89    3.23  -1
   3 -10 -11   -0.89    3.23   2
  -3  -4  17    7.87    2.43   1
  -3  -4  16    9.75    1.74   1
  -3  -4  15    1.51    2.28   1
  -3  -4  14    2.54    2.28   1
  -3  -4  13   29.73    3.13   1
  -3  -4  13   21.40    2.01   1
  -3  -4  12    0.65    2.29   1
  -3  -4  12    0.89    0.91   1
  -3  -4  11   51.50    5.94  -1
   3  -8  -5   51.50    5.94   2
  -3  -4  11   42.15    3.10  -1
   3  -8  -5   42.15    3.10   2
  -3  -4  10   12.85    2.68   1
  -3  -4  10    9.86    1.23   1
   3   4  -9   10.84    1.15   1
  -3  -4   9   11.95    1.81   1
   3   4  -8    5.66    1.04   1
  -3  -4   8    5.31    1.75   1
   3   4  -7    3.92    2.16   1
   3   4  -7    5.23    2.19   1
   3   4  -7    3.93    1.07   1
   3   4  -6   11.26    2.31   1
   3   4  -6    8.45    2.34   1
   3   4  -6   11.87    1.31   1
   3   4  -5   51.86    3.63   1
   3   4  -5   48.48    3.53   1
   3   4  -5   49.30    2.17   1
   3   4  -4   58.77    4.18  -1
  -3   6  -1   58.77    4.18   2
   3   4  -4   56.77    6.62  -1
  -3   6  -1   56.77    6.62   2
   3   4  -4   57.20    4.01  -1
  -3   6  -1   57.20    4.01   2
   3   4  -3   24.73    1.95   1
   3   4  -3   24.06    2.06   1
   3   4  -3   20.95    1.46   1
   3   4  -2    1.38    1.52   1
   3   4  -2    5.41    2.28   1
   3   4  -2    2.71    0.88   1
   3   4  -1    9.23    1.72   1
  -3  -4   1    6.86    1.45   1
   3   4   0   38.63    4.02   1
  -3  -4   0   41.94    3.73   1
   3   4   1   31.94    3.54   1
   3   4   2    9.67    1.74   1
   3   4   3   43.41    7.06  -1
  -3   4  -7   43.41    7.06   2
   3   4   4   19.74    3.42   1
   3   4   5   10.36    1.95   1
   3   4   6   49.17    3.52   1
   3   4   7    3.25    3.23   1
   3   4   8  124.50    7.78   1
   3   4   9   45.46    6.36  -1
  -3   2 -12   45.46    6.36   2
   3   4  10   10.28    5.45  -1
  -3   2 -13   10.28    5.45   2
   3   4  11   11.61    3.87   1
   3   4  12   21.55    4.55   1
   3   4  13   11.41    3.79   1
   3   4  14    3.41    3.19   1
   3   4  15    8.34    2.34   1
   3   4  16    8.70    4.79  -1
  -3   0 -18    8.70    4.79   2
  -3  -5  17    0.24    2.30   1
  -3  -5  16    7.00    1.75   1
  -3  -5  15    2.13    2.60   1
  -3  -5  14   -0.06    2.48   1
  -3  -5  13   13.01    3.15   1
  -3  -5  12   14.04    4.87  -1
   3  -9  -5   14.04    4.87   2
  -3  -5  12    7.31    2.62  -1
   3  -9  -5    7.31    2.62   2
  -3  -5  11    8.06    2.75   1
  -3  -5  11    3.87    1.18   1
   3   5 -10   13.18    1.69   1
  -3  -5  10   16.37    2.23   1
  -3  -5  10   12.90    1.49   1
   3   5  -9   17.10    1.94   1
  -3  -5   9   29.49    3.86   1
  -3  -5   9   13.95    1.18   1
   3   5  -8    5.72    1.57   1
  -3  -5   8   -0.42    1.95   1
   3   5  -7   30.01    3.31   1
   3   5  -7   26.56    2.15   1
   3   5  -6    5.13    2.42   1
   3   5  -6    5.43    1.57   1
   3   5  -5   58.58    6.48  -1
  -3   7  -1   58.58    6.48   2
   3   5  -5   58.51    3.98  -1
  -3   7  -1   58.51    3.98   2
   3   5  -4    8.30    3.06   1
   3   5  -4   11.06    1.38   1
   3   5  -3   27.22    2.31   1
   3   5  -3   24.93    1.86   1
   3   5  -2    3.22    1.55   1
   3   5  -2    1.29    1.34   1
   3   5  -1   44.86    3.34   1
   3   5  -1    5.33    1.37   1
   3   5   0   -0.71    2.58   1
   3   5   1   -0.70    2.58   1
   3   5   2   69.83    4.40  -1
  -3   5  -7   69.83    4.40   2
   3   5   3   41.53    4.27   1
   3   5   4   33.37    4.23   1
   3   5   5   23.95    3.58   1
   3   5   6    4.44    3.18   1
   3   5   7  119.18    5.74   1
   3   5   8    7.41    2.24   1
   3   5   9   16.70    4.83  -1
  -3   3 -13   16.70    4.83   2
   3   5  10    3.58    2.14   1
   3   5  11    1.79    2.18   1
   3   5  12    4.57    2.37   1
   3   5  13    2.03    2.24   1
   3   5  14    1.80    2.24   1
   3   5  15    4.47    6.70  -1
  -3   1 -18    4.47    6.70   2
  -3  -6  16    1.55    1.74   1
  -3  -6  15   -0.16    2.37   1
  -3  -6  14    8.07    3.08   1
  -3  -6  13   -0.83    2.60   1
  -3  -6  12   22.03    6.08  -1
   3 -10  -4   22.03    6.08   2
  -3  -6  11   15.90    3.53   1
  -3  -6  10    3.15    3.42   1
  -3  -6  10    3.34    1.33   1
   3   6  -9    3.61    1.43   1
  -3  -6   9    3.47    2.02   1
  -3  -6   9   -0.39    0.75   1
   3   6  -8    3.05    2.53   1
   3   6  -8    0.06    1.39   1
   3   6  -7    2.96    1.64   1
   3   6  -7    8.68    1.92   1
   3   6  -6   21.67    2.23   1
   3   6  -6   22.04    2.42   1
   3   6  -5   27.34    3.85  -1
  -3   8  -2   27.34    3.85   2
   3   6  -5   25.25    3.30  -1
  -3   8  -2   25.25    3.30   2
   3   6  -4   11.90    2.24   1
   3   6  -4   11.88    1.59   1
   3   6  -3    3.46    2.72   1
   3   6  -3    4.21    1.49   1
   3   6  -2    0.02    1.63   1
   3   6  -2    4.20    1.47   1
   3   6  -1   12.30    2.09   1
   3   6  -1   14.11    1.94   1
   3   6   0   19.96    2.18   1
   3   6   0    4.80    1.50   1
   3   6   1    9.46    2.11   1
   3   6   2   25.14    6.95  -1
  -3   6  -8   25.14    6.95   2
   3   6   3   15.14    3.58   1
   3   6   4    4.87    3.20   1
   3   6   5   25.45    4.26   1
   3   6   6    3.39    3.32   1
   3   6   7   68.80    4.02   1
   3   6   8   24.30    7.00  -1
  -3   4 -13   24.30    7.00   2
   3   6   9   15.17    4.58  -1
  -3   4 -14   15.17    4.58   2
   3   6  10    6.36    2.52   1
   3   6  11    2.32    2.31   1
   3   6  12    3.77    2.39   1
   3   6  13    4.10    2.43   1
   3   6  14    4.27    3.74   1
  -3  -7  15    1.40    2.76   1
  -3  -7  14    6.28    3.31   1
  -3  -7  13    0.32    4.41  -1
   3 -11  -4    0.32    4.41   2
  -3  -7  12   -5.18    3.65   1
  -3  -7  11   10.72    2.62   1
  -3  -7  10    5.73    2.47   1
   3   7  -9    2.24    2.92   1
   3   7  -8   11.72    2.09   1
   3   7  -7   -3.93    2.70   1
   3   7  -7    2.70    2.00   1
   3   7  -6   32.65    6.43  -1
  -3   9  -2   32.65    6.43   2
   3   7  -6   30.39    3.77  -1
  -3   9  -2   30.39    3.77   2
   3   7  -5    9.58    3.25   1
   3   7  -5    3.84    1.57   1
   3   7  -4    9.82    2.32   1
   3   7  -4   11.72    1.92   1
   3   7  -3    5.16    1.85   1
   3   7  -3    1.91    1.48   1
   3   7  -2    9.25    1.98   1
   3   7  -2    7.61    1.96   1
   3   7  -1    2.34    1.81   1
   3   7   0    3.74    1.78   1
   3   7   1   36.21    3.68  -1
  -3   7  -8   36.21    3.68   2
   3   7   2   11.14    2.09   1
   3   7   3   11.11    2.21   1
   3   7   4   12.08    2.35   1
   3   7   5    8.42    2.23   1
   3   7   6   44.38    3.67   1
   3   7   7    6.03    2.26   1
   3   7   8   20.27    4.88  -1
  -3   5 -14   20.27    4.88   2
   3   7   9    7.52    2.52   1
   3   7  10    3.33    2.37   1
   3   7  11    6.56    2.26   1
   3   7  12    0.80    2.18   1
  -3  -8  13    8.14    4.11  -1
   3 -12  -3    8.14    4.11   2
  -3  -8  12    9.18    2.56   1
   3   8 -11    1.07    1.75   1
  -3  -8  11   -3.16    2.15   1
   3   8 -10    0.16    2.86   1
   3   8  -9    1.57    1.75   1
   3   8  -8    1.53    2.93   1
   3   8  -7   10.72    3.42   1
   3   8  -6   13.69    4.10  -1
  -3  10  -3   13.69    4.10   2
   3   8  -5    6.56    3.56   1
   3   8  -4    0.75    3.12   1
   3   8  -3    1.23    1.97   1
   3   8  -2    5.69    1.99   1
   3   8  -1    3.35    1.86   1
   3   8   0    8.51    3.37   1
   3   8   1    8.96    7.05  -1
  -3   8  -9    8.96    7.05   2
   3   8   2    4.95    3.36   1
   3   8   3   -3.20    3.30   1
   3   8   4    7.92    3.76   1
   3   8   5   -0.21    3.37   1
   3   8   6   30.67    4.78   1
   3   8   7    8.85    7.14  -1
  -3   6 -14    8.85    7.14   2
   3   8   8    6.70    6.56  -1
  -3   6 -15    6.70    6.56   2
   3   8   9    3.45    3.39   1
   3   8  10    3.72    4.10   1
   3   9 -10    2.29    1.89   1
   3   9  -9    1.87    3.09   1
   3   9  -8   -2.35    1.79   1
   3   9  -7   18.30    6.51  -1
  -3  11  -3   18.30    6.51   2
   3   9  -6    6.09    3.60   1
   3   9  -5    8.56    2.39   1
   3   9  -4   -0.51    3.28   1
   3   9  -3    2.85    3.44   1
   3   9  -2    1.00    3.15   1
   3   9  -1    0.92    1.87   1
   3   9   0   11.03    3.28  -1
  -3   9  -9   11.03    3.28   2
   3   9   1    3.58    3.24   1
   3   9   2   -0.29    3.24   1
   3   9   3    9.31    3.81   1
   3   9   4    4.08    3.56   1
   3   9   5   24.92    4.60   1
   3   9   6    4.82    3.79   1
   3   9   7    8.61    4.36  -1
  -3   7 -15    8.61    4.36   2
   3   9   8   -2.04    1.97   1
   3  10  -7    8.69    7.13  -1
  -3  12  -4    8.69    7.13   2
   3  10  -6   -0.19    2.24   1
   3  10  -4   -0.49    2.05   1
   3  10  -3   -1.82    3.23   1
   3  10  -2    2.81    3.34   1
   3  10  -1    0.75    3.03   1
   3  10   0    2.06    2.29   1
   3  10   1    1.07    3.26   1
   3  10   3    2.21    3.40   1
   3  10   4    2.67    3.53   1
  -4  12   2   -3.09    5.21  -1
   4   8 -12   -3.09    5.21   2
   4 -12  -1   -1.61    1.95   1
   4 -12  -1    1.96    2.52   1
   4 -12   0   -2.61    3.10   1
   4 -12   0    4.78    3.90   1
   4 -12   1    2.32    3.22   1
   4 -12   1    5.98    2.35   1
  -4  11   7    0.60    2.34   1
  -4  11   5    7.47    2.87   1
  -4  11   4    3.65    1.69   1
  -4  11   3    4.29    2.68   1
   4 -11  -2    3.40    3.13  -1
  -4  -7  11    3.40    3.13   2
   4 -11  -2    8.41    4.19  -1
  -4  -7  11    8.41    4.19   2
   4 -11  -1    5.00    3.05   1
   4 -11  -1   11.46    4.28   1
   4 -11   0    0.79    2.80   1
   4 -11   0    4.51    3.47   1
   4 -11   1    2.37    2.89   1
   4 -11   1    3.61    2.28   1
   4 -11   2   17.04    3.53   1
   4 -11   2    5.24    2.46   1
   4 -11   3    1.82    2.03   1
   4 -11   3    1.30    3.55   1
   4 -11   4    3.64    3.48   1
   4 -11   5   10.25    7.07  -1
  -4  -9   5   10.25    7.07   2
   4 -11   5   12.64    7.16  -1
  -4  -9   5   12.64    7.16   2
   4 -11   6    1.94    3.59   1
   4 -11   6   -1.27    1.99   1
   4 -11   7   -1.79    3.57   1
   4 -11   7    3.86    3.47   1
  -4  10   8    2.18    2.20   1
  -4  10   7    1.68    2.21   1
  -4  10   6    2.47    1.62   1
  -4  10   5    2.33    2.46   1
  -4  10   4    3.10    1.43   1
   4 -10  -3   -1.54    2.92  -1
  -4  -6  11   -1.54    2.92   2
   4 -10  -3    4.29    4.33  -1
  -4  -6  11    4.29    4.33   2
   4 -10  -2    0.68    2.60   1
   4 -10  -2   -1.18    3.58   1
   4 -10  -1    2.48    2.56   1
   4 -10  -1    2.78    3.37   1
   4 -10   0    0.41    2.79   1
   4 -10   0    3.96    3.52   1
   4 -10   1    8.81    3.22   1
   4 -10   1    7.68    6.94  -1
  -4  -7   8    7.68    6.94   2
   4 -10   2    8.75    3.33   1
   4 -10   2    6.40    2.35   1
   4 -10   3    8.29    3.13   1
   4 -10   3   -2.28    1.95   1
   4 -10   4    6.25    3.72  -1
  -4  -8   5    6.25    3.72   2
   4 -10   4   16.40    5.20  -1
  -4  -8   5   16.40    5.20   2
   4 -10   5    2.46    3.67   1
   4 -10   5    2.44    3.20   1
   4 -10   6    6.40    3.96   1
   4 -10   6    4.75    3.59   1
   4 -10   7   -0.80    3.72   1
   4 -10   7    4.28    2.36   1
   4 -10   8   -2.10    3.91   1
   4 -10   8    2.61    7.35  -1
  -4  -9   1    2.61    7.35   2
   4 -10   9   -3.37    4.15   1
   4 -10   9   -5.65    3.98   1
   4 -10  10    1.80    2.42   1
   4 -10  10    0.43    2.17   1
  -4   9   9    4.57    2.60   1
  -4   9   8    0.80    1.94   1
  -4   9   7    9.75    2.42   1
  -4   9   6    2.06    2.19   1
  -4   9   5   18.64    2.47   1
  -4   9   4    4.83    2.39   1
   4  -9  -3   24.64    4.89  -1
  -4  -5  10   24.64    4.89   2
   4  -9  -3   22.19    6.18  -1
  -4  -5  10   22.19    6.18   2
   4  -9  -2   13.63    2.75   1
   4  -9  -2   14.17    3.82   1
   4  -9  -1    5.14    1.69   1
   4  -9  -1    1.01    3.44   1
   4  -9   0    7.31    2.79   1
   4  -9   0    0.02    3.42   1
   4  -9   1   26.61    3.99   1
   4  -9   1   26.10    4.27   1
   4  -9   2    0.35    1.83   1
   4  -9   2    0.33    3.18   1
   4  -9   3    9.13    2.19   1
   4  -9   3   14.11    3.52   1
   4  -9   4   17.08    6.78  -1
  -4  -7   4   17.08    6.78   2
   4  -9   4   13.14    7.00  -1
  -4  -7   4   13.14    7.00   2
   4  -9   5    8.28    3.66   1
   4  -9   5    3.73    2.25   1
   4  -9   6    4.24    2.26   1
   4  -9   6    4.98    2.29   1
   4  -9   7   -0.60    3.82   1
   4  -9   7    9.37    3.66   1
   4  -9   8    4.95    2.40   1
   4  -9   8    6.62    3.55   1
   4  -9   9    1.63    3.72   1
   4  -9   9    1.92    2.01   1
   4  -9  10   12.77    4.26   1
   4  -9  10   10.86    3.93   1
   4  -9  11    7.33    6.33  -1
  -4  -9  -2    7.33    6.33   2
   4  -9  11    8.38    6.88  -1
  -4  -9  -2    8.38    6.88   2
   4  -9  12   -0.16    2.31   1
   4  -9  12    1.57    3.50   1
  -4   8  10    4.15    1.66   1
  -4   8   9    3.80    1.72   1
  -4   8   8    4.29    1.56   1
  -4   8   8    9.40    1.78   1
  -4   8   7    1.35    1.43   1
  -4   8   7    0.43    1.67   1
  -4   8   6    6.09    1.74   1
  -4   8   6    9.26    2.12   1
  -4   8   5    1.10    1.71   1
  -4   8   5    3.29    1.84   1
   4  -8  -4   13.53    2.75  -1
  -4  -4  10   13.53    2.75   2
   4  -8  -4    5.00    4.49  -1
  -4  -4  10    5.00    4.49   2
   4  -8  -3    2.65    1.92   1
   4  -8  -3   -0.24    1.80   1
   4  -8  -2    1.18    2.20   1
   4  -8  -2    5.70    2.98   1
   4  -8  -1   12.82    2.81   1
   4  -8  -1   19.80    3.62   1
   4  -8   0   11.96    3.01   1
   4  -8   0   13.08    3.58   1
   4  -8   1   26.37    2.50   1
   4  -8   1   20.90    3.93   1
   4  -8   2    2.16    1.83   1
   4  -8   2    4.77    2.09   1
   4  -8   3    7.85    5.87  -1
  -4  -6   4    7.85    5.87   2
   4  -8   3    6.99    4.95  -1
  -4  -6   4    6.99    4.95   2
   4  -8   4   -4.14    3.34   1
   4  -8   4    5.19    2.26   1
   4  -8   5    4.76    2.25   1
   4  -8   5    4.24    3.28   1
   4  -8   6    3.82    3.31   1
   4  -8   6    4.30    3.51   1
   4  -8   7    5.51    3.74   1
   4  -8   7    9.62    5.71  -1
  -4  -7   1    9.62    5.71   2
   4  -8   8    4.99    3.42   1
   4  -8   8    6.41    3.48   1
   4  -8   9    6.23    2.34   1
   4  -8   9    1.45    2.19   1
   4  -8  10   17.30    5.55  -1
  -4  -8  -2   17.30    5.55   2
   4  -8  11    4.96    3.78   1
   4  -8  11    4.95    2.36   1
   4  -8  12    6.15    4.08   1
   4  -8  12    6.12    3.67   1
   4  -8  13   10.26    4.74   1
   4  -8  13   16.46    2.92   1
  -4   7  10    2.55    1.32   1
  -4   7   9   -0.45    1.04   1
  -4   7   9    1.28    1.20   1
  -4   7   8   10.17    1.45   1
  -4   7   8   15.58    1.78   1
  -4   7   7    1.19    1.13   1
  -4   7   7   -1.71    1.97   1
  -4   7   6   19.43    2.00   1
  -4   7   6   26.60    2.23   1
   4  -7  -5    0.08    1.15   1
   4  -7  -5    4.08    2.23   1
  -4   7   5    7.14    1.62   1
  -4   7   5    6.20    1.72   1
   4  -7  -4   58.91    5.08  -1
  -4  -3   9   58.91    5.08   2
   4  -7  -4   76.70    8.18  -1
  -4  -3   9   76.70    8.18   2
  -4   7   4   58.14    4.97  -1
   4   3  -9   58.14    4.97   2
   4  -7  -3   45.66    3.18   1
   4  -7  -3   45.98    3.21   1
  -4   7   3   35.09    2.97   1
   4  -7  -2    9.70    2.27   1
   4  -7  -2   17.26    3.36   1
  -4   7   2   12.32    2.13   1
   4  -7  -1    7.11    2.37   1
   4  -7  -1    9.77    3.29   1
  -4   7   1    5.26    2.07   1
   4  -7   0   85.92    5.46   1
   4  -7   0   84.53    4.28   1
   4  -7   1    2.50    1.60   1
   4  -7   1   -0.86    2.88   1
   4  -7   2   22.86    2.49   1
   4  -7   2   26.18    3.95   1
   4  -7   3   26.41    4.87  -1
  -4  -5   3   26.41    4.87   2
   4  -7   3   22.18    6.70  -1
  -4  -5   3   22.18    6.70   2
   4  -7   4    0.04    2.89   1
   4  -7   4   -2.39    2.97   1
   4  -7   5    6.97    3.31   1
   4  -7   5    4.62    3.28   1
   4  -7   6    1.20    3.22   1
   4  -7   6   56.02   10.76  -1
  -4  -6   1   56.02   10.76  -2
  -4  -6   0   56.02   10.76   2
   4  -7   7    7.97    2.29   1
   4  -7   7    9.31    3.52   1
   4  -7   8    4.17    3.43   1
   4  -7   8    1.18    2.11   1
   4  -7   9   17.00    4.49   1
   4  -7   9   10.77    4.09   1
   4  -7  10   26.11    5.14  -1
  -4  -7  -3   26.11    5.14   2
   4  -7  10   18.22    7.37  -1
  -4  -7  -3   18.22    7.37   2
   4  -7  11   11.99    2.66   1
   4  -7  11    9.00    2.54   1
   4  -7  12    6.86    4.53   1
   4  -7  12   14.07    4.13   1
   4  -7  13    6.62    4.04   1
   4  -7  13   -0.28    5.21  -1
  -4  -8  -5   -0.28    5.21   2
   4  -7  14    3.19    3.92   1
   4  -7  14   -1.01    1.99   1
   4  -7  15    1.90    4.01   1
   4  -7  15    2.37    3.41   1
  -4   6  11    8.37    1.41   1
  -4   6  10    5.40    1.21   1
  -4   6  10    5.40    1.28   1
  -4   6   9    6.03    1.31   1
  -4   6   9    6.37    1.16   1
  -4   6   8    2.05    0.92   1
  -4   6   8    1.10    1.05   1
  -4   6   7   13.14    1.34   1
  -4   6   7   18.32    1.66   1
  -4   6   6    4.62    1.24   1
  -4   6   6    8.27    1.79   1
   4  -6  -5   21.79    3.40  -1
  -4  -2   9   21.79    3.40   2
   4  -6  -5   17.18    4.11  -1
  -4  -2   9   17.18    4.11   2
  -4   6   5   11.06    2.86  -1
   4   2  -9   11.06    2.86   2
   4  -6  -4    2.08    1.49   1
   4  -6  -4    2.60    2.55   1
  -4   6   4    4.73    1.40   1
   4  -6  -3    3.14    1.69   1
   4  -6  -3    4.37    1.71   1
  -4   6   3    6.01    1.48   1
   4  -6  -2   22.37    2.62   1
   4  -6  -2   29.05    3.70   1
  -4   6   2   23.26    2.35   1
   4  -6  -1   31.20    3.14   1
   4  -6  -1   28.93    2.39   1
  -4   6   1   29.20    2.75   1
   4  -6   0   67.02    4.38   1
   4  -6   0   64.89    5.11   1
   4  -6   1    7.68    2.71   1
   4  -6   1   11.25    2.02   1
  -4   6  -1    8.89    2.41   1
   4  -6   2   12.28    4.14  -1
  -4  -4   3   12.28    4.14   2
   4  -6   2   15.62    3.34  -1
  -4  -4   3   15.62    3.34   2
   4  -6   3    5.58    2.86   1
   4  -6   3    6.50    3.07   1
   4  -6   4    6.01    1.92   1
   4  -6   4    8.14    3.22   1
   4  -6   5    3.76    3.19   1
   4  -6   5   10.54    3.33   1
   4  -6   6    8.37    2.23   1
   4  -6   6   18.59    6.75  -1
  -4  -5  -1   18.59    6.75   2
   4  -6   7   21.20    4.04   1
   4  -6   7   16.77    4.04   1
   4  -6   8   15.82    3.81   1
   4  -6   8    7.30    2.34   1
   4  -6   9   38.31    6.11  -1
  -4  -6  -3   38.31    6.11   2
   4  -6   9   36.20    7.10  -1
  -4  -6  -3   36.20    7.10   2
   4  -6  10    3.99    2.24   1
   4  -6  10    5.80    3.53   1
   4  -6  11    5.99    2.31   1
   4  -6  11    8.62    2.28   1
   4  -6  12   60.38    4.46   1
   4  -6  12   60.72   10.30  -1
  -4  -7  -5   60.72   10.30   2
   4  -6  13   -3.56    2.16   1
   4  -6  13   11.51    6.36  -1
  -4  -7  -7   11.51    6.36   2
   4  -6  14   -0.96    2.11   1
   4  -6  14    1.50    2.11   1
   4  -6  15    6.33    2.45   1
   4  -6  15    1.18    3.50   1
   4  -6  16    4.30    4.10  -1
  -4  -8  -9    4.30    4.10   2
   4  -6  16   -2.45    5.47  -1
  -4  -8  -9   -2.45    5.47   2
  -4   5  12   44.66    2.30  -1
   4  -1 -14   44.66    2.30   2
  -4   5  11    4.77    0.79   1
  -4   5  11    4.77    0.87   1
  -4   5  10    0.90    0.73   1
  -4   5  10    0.87    0.77   1
  -4   5   9    9.47    0.79   1
  -4   5   9   11.35    1.05   1
  -4   5   8   -0.15    0.83   1
  -4   5   8   -0.29    0.91   1
  -4   5   7   40.24    1.93   1
  -4   5   7   43.02    1.66   1
  -4   5   6   20.38    1.69   1
  -4   5   6   24.75    1.77   1
   4  -5  -5  134.75    6.13  -1
  -4  -1   8  134.75    6.13   2
   4  -5  -5  180.67   10.69  -1
  -4  -1   8  180.67   10.69   2
  -4   5   5  136.99    5.61  -1
   4   1  -8  136.99    5.61   2
  -4   5   5  141.41    8.55  -1
   4   1  -8  141.41    8.55   2
   4  -5  -4   75.23    3.09   1
   4  -5  -4   86.70    5.04   1
  -4   5   4   76.88    3.14   1
  -4   5   4   74.52    4.40   1
   4  -5  -3   21.52    2.10   1
   4  -5  -3   30.59    2.10   1
  -4   5   3   27.14    2.07   1
  -4   5   3   23.07    2.90   1
   4  -5  -2    6.12    1.68   1
   4  -5  -2    7.44    2.65   1
  -4   5   2    3.46    1.62   1
  -4   5   2    4.24    2.28   1
   4  -5  -1  222.03    8.79   1
   4  -5  -1  232.52   10.47   1
  -4   5   1  205.36    7.24   1
  -4   5   1  213.86    9.70   1
   4  -5   0    2.67    1.30   1
   4  -5   0    0.82    1.70   1
  -4   5   0    3.53    1.77   1
  -4   5   0    2.65    1.39   1
   4  -5   1   52.83    4.05   1
   4  -5   1   51.87    4.26   1
  -4   5  -1   46.36    3.46   1
   4  -5   2   26.19    5.06  -1
  -4  -3   2   26.19    5.06   2
   4  -5   2   30.68    5.58  -1
  -4  -3   2   30.68    5.58   2
  -4   5  -2   29.69    3.98  -1
   4   3  -2   29.69    3.98   2
   4  -5   3    0.47    1.55   1
   4  -5   3    0.14    2.66   1
  -4   5  -3    5.81    2.17   1
   4  -5   4    7.02    2.78   1
   4  -5   4   -1.41    2.77   1
   4  -5   5   14.60    2.10   1
   4  -5   5   12.52    2.27   1
   4  -5   6   19.56    3.99   1
   4  -5   6   24.23    3.66   1
   4  -5   7   -1.47    2.94   1
   4  -5   7    1.13    2.92   1
   4  -5   8   36.52    2.99   1
   4  -5   8   29.81    4.63   1
   4  -5   9   28.57    4.83  -1
  -4  -5  -4   28.57    4.83   2
   4  -5   9   36.56    4.60  -1
  -4  -5  -4   36.56    4.60   2
   4  -5  10   12.60    2.68   1
   4  -5  10   14.63    4.19   1
   4  -5  11   35.26    3.44   1
   4  -5  11   33.74    3.26   1
   4  -5  12    8.33    2.64   1
   4  -5  12    9.73    4.02   1
   4  -5  13    4.65    2.34   1
   4  -5  13   12.95    6.22  -1
  -4  -6  -8   12.95    6.22   2
   4  -5  14    2.19    2.06   1
   4  -5  14   -0.29    2.12   1
   4  -5  15   -2.55    2.08   1
   4  -5  15    4.39    7.19  -1
  -4  -7  -9    4.39    7.19   2
   4  -5  16   -3.60    7.28  -1
  -4  -7 -10   -3.60    7.28   2
   4  -5  16   -9.68    6.50  -1
  -4  -7 -10   -9.68    6.50   2
  -4   4  12   13.01    0.57   1
  -4   4  12   16.22    0.68   1
  -4   4   9    0.04    1.61   1
  -4   4   8   16.22    0.64   1
  -4   4   8   15.70    0.55   1
  -4   4   8   20.96    2.33   1
  -4   4   7   11.51    0.76   1
  -4   4   7   10.75    0.76   1
  -4   4   7   10.62    1.94   1
  -4   4   6   13.03    1.87  -1
   4   0  -8   13.03    1.87   2
  -4   4   6   14.34    1.68  -1
   4   0  -8   14.34    1.68   2
  -4   4   6    9.82    2.41  -1
   4   0  -8    9.82    2.41   2
   4  -4  -5    9.09    1.15   1
   4  -4  -5    2.06    2.26   1
  -4   4   5    8.70    1.21   1
  -4   4   5    6.25    1.95   1
   4  -4  -4    7.80    1.18   1
   4  -4  -4    8.90    1.37   1
  -4   4   4   11.43    1.46   1
  -4   4   4    9.01    2.00   1
   4  -4  -3   39.78    2.60   1
   4  -4  -3   35.38    2.16   1
  -4   4   3   37.01    1.95   1
  -4   4   3   32.52    2.04   1
   4  -4  -2   48.31    2.66   1
   4  -4  -2   37.59    4.09   1
  -4   4   2   46.33    2.53   1
  -4   4   2   48.36    2.39   1
   4  -4  -1  125.69    5.16   1
   4  -4  -1  131.84    6.78   1
  -4   4   1  127.56    5.07   1
  -4   4   1  126.63    6.21   1
   4  -4   0   12.96    2.37   1
   4  -4   0   19.84    3.02   1
  -4   4   0   16.66    2.11   1
  -4   4   0   18.30    2.52   1
   4  -4   1   28.00    3.66  -1
  -4  -2   2   28.00    3.66   2
   4  -4   1   20.57    4.48  -1
  -4  -2   2   20.57    4.48   2
  -4   4  -1   19.04    3.20  -1
   4   2  -2   19.04    3.20   2
  -4   4  -1   28.78    4.02  -1
   4   2  -2   28.78    4.02   2
   4  -4   2    8.52    2.67   1
   4  -4   2    4.48    2.80   1
  -4   4  -2    7.38    2.21   1
  -4   4  -2    6.31    1.45   1
   4  -4   3    2.84    2.46   1
   4  -4   3    1.26    1.62   1
  -4   4  -3    3.46    2.15   1
  -4   4  -3   -0.64    2.29   1
   4  -4   4   13.68    3.25   1
   4  -4   4   17.11    3.19   1
  -4   4  -4   18.81    2.78   1
   4  -4   5   29.96    2.65   1
   4  -4   5   68.38    7.99  -1
  -4  -3  -2   68.38    7.99   2
   4  -4   6   30.06    2.79   1
   4  -4   6   35.11    4.01   1
   4  -4   7    8.62    3.36   1
   4  -4   7    7.12    2.11   1
   4  -4   8   56.25    6.39  -1
  -4  -4  -4   56.25    6.39   2
   4  -4   8   51.79    7.35  -1
  -4  -4  -4   51.79    7.35   2
   4  -4   9   24.76    4.40   1
   4  -4   9   23.37    3.97   1
   4  -4  10   -1.00    3.73   1
   4  -4  10   10.42    3.54   1
   4  -4  11  121.01    8.74   1
   4  -4  11  140.55   11.76  -1
  -4  -5  -6  140.55   11.76   2
   4  -4  12    3.61    2.17   1
   4  -4  13    3.31    2.11   1
   4  -4  13   -1.62    3.41   1
   4  -4  14   12.98    4.04   1
   4  -4  14    9.94    2.42   1
   4  -4  15   10.84    4.87  -1
  -4  -6 -10   10.84    4.87   2
   4  -4  15    7.71    3.55  -1
  -4  -6 -10    7.71    3.55   2
   4  -4  16   16.46    4.18   1
   4  -4  16    9.87    2.70   1
   4  -4  17   12.14    2.46   1
   4  -4  17    4.86    2.50   1
  -4   3  13   39.75    1.12  -1
   4  -3 -13   39.75    1.12   2
  -4   3  11   -1.24    1.51   1
  -4   3  10    5.05    1.66   1
  -4   3   9    0.58    1.49   1
  -4   3   8   46.37    2.77   1
  -4   3   7   46.22    2.68   1
  -4   3   6  234.43   10.36  -1
   4  -1  -7  234.43   10.36   2
   4  -3  -5  121.07    3.04   1
   4  -3  -5  107.29    5.03   1
  -4   3   5  118.91    3.09   1
  -4   3   5  129.36    5.37   1
   4  -3  -4   48.27    1.74   1
   4  -3  -4   53.44    2.36   1
  -4   3   4   51.82    2.00   1
  -4   3   4   50.03    2.80   1
   4  -3  -3    4.03    1.52   1
   4  -3  -3    1.28    2.11   1
  -4   3   3    4.64    1.03   1
  -4   3   3    4.99    1.65   1
   4  -3  -2  464.45   16.39   1
   4  -3  -2  445.68   16.68   1
  -4   3   2  455.69   15.96   1
  -4   3   2  451.44   18.82   1
   4  -3  -1    3.52    1.67   1
   4  -3  -1    1.19    2.18   1
  -4   3   1    1.18    1.43   1
  -4   3   1    3.98    1.83   1
   4  -3   0   97.25    4.36   1
   4  -3   0   79.60    4.92   1
  -4   3   0   87.85    3.19   1
  -4   3   0   94.38    4.75   1
   4  -3   1   34.96    4.39  -1
  -4  -1   1   34.96    4.39   2
   4  -3   1   31.36    5.25  -1
  -4  -1   1   31.36    5.25   2
  -4   3  -1   31.41    3.53  -1
   4   1  -1   31.41    3.53   2
  -4   3  -1   35.87    4.62  -1
   4   1  -1   35.87    4.62   2
   4  -3   2   22.52    2.81   1
   4  -3   2   14.63    2.65   1
  -4   3  -2   19.15    2.57   1
  -4   3  -2   18.79    2.59   1
   4  -3   3   10.24    1.68   1
   4  -3   3   12.30    2.68   1
  -4   3  -3   16.07    2.56   1
  -4   3  -3    9.68    1.57   1
   4  -3   4   16.96    2.03   1
   4  -3   4   20.80    2.09   1
  -4   3  -4   18.62    2.89   1
  -4   3  -4   15.57    2.86   1
   4  -3   5   40.43    2.78   1
   4  -3   5   41.80    2.72   1
  -4   3  -5   36.39    2.50   1
  -4   3  -5   39.24    3.60   1
   4  -3   6    0.89    1.72   1
   4  -3   6    2.43    1.71   1
   4  -3   7   61.71    3.56   1
   4  -3   7   59.10    5.02   1
   4  -3   8   52.62    4.69  -1
  -4  -3  -5   52.62    4.69   2
   4  -3   8   50.36    6.21  -1
  -4  -3  -5   50.36    6.21   2
   4  -3   9   19.80    2.46   1
   4  -3   9   14.79    4.00   1
   4  -3  10   59.37    5.49   1
   4  -3  10   50.71    3.87   1
   4  -3  11   12.86    3.91   1
   4  -3  11    9.79    3.78   1
   4  -3  12    7.43    3.71   1
   4  -3  12    5.12    6.71  -1
  -4  -4  -9    5.12    6.71   2
   4  -3  13    1.71    2.10   1
   4  -3  13   -3.46    3.30   1
   4  -3  14    1.10    3.47   1
   4  -3  14   13.08    6.89  -1
  -4  -5 -10   13.08    6.89   2
   4  -3  15    1.88    5.76  -1
  -4  -5 -11    1.88    5.76   2
   4  -3  15   -4.63    4.97  -1
  -4  -5 -11   -4.63    4.97   2
   4  -3  16    2.77    2.42   1
   4  -3  16    1.39    3.58   1
   4  -3  17   10.90    4.44   1
   4  -3  17   11.83    4.28   1
   4  -2 -13   22.41    0.90   1
  -4   2  13   20.36    0.90   1
  -4   2  12    4.67    0.31   1
  -4   2  12    1.02    1.06   1
  -4   2  11    0.11    1.43   1
  -4   2  10    3.05    1.29   1
  -4   2   9   18.82    1.73   1
  -4   2   8   19.25    1.65   1
  -4   2   7   13.63    2.44  -1
   4  -2  -7   13.63    2.44   2
  -4   2   6   14.78    1.65   1
   4  -2  -5    9.94    0.62   1
   4  -2  -5    9.33    1.67   1
  -4   2   5   10.59    0.61   1
  -4   2   5   11.20    1.56   1
   4  -2  -4   42.39    1.79   1
   4  -2  -4   40.34    2.53   1
  -4   2   4   46.76    1.73   1
  -4   2   4   40.62    2.38   1
   4  -2  -3   54.70    2.11   1
   4  -2  -3   52.85    3.15   1
  -4   2   3   56.11    2.32   1
  -4   2   3   48.91    3.07   1
   4  -2  -2  191.79    6.17   1
   4  -2  -2  171.60    6.97   1
  -4   2   2  188.72    5.74   1
  -4   2   2  177.38    6.50   1
   4  -2  -1   27.08    2.22   1
   4  -2  -1   25.65    2.68   1
  -4   2   1   29.59    1.92   1
  -4   2   1   28.90    2.41   1
   4  -2   0   40.90    4.35  -1
  -4   0   1   40.90    4.35   2
   4  -2   0   46.56    5.04  -1
  -4   0   1   46.56    5.04   2
  -4   2   0   38.06    3.95  -1
   4   0  -1   38.06    3.95   2
  -4   2   0   49.54    4.10  -1
   4   0  -1   49.54    4.10   2
   4  -2   1   15.89    2.56   1
  -4   2  -1   14.71    2.36   1
   4  -2   1   49.22    5.57  -1
  -4   0   0   49.22    5.57   2
   4  -2   2    1.11    1.39   1
   4  -2   2    0.33    2.23   1
  -4   2  -2    1.45    1.95   1
  -4   2  -2    3.28    2.00   1
   4  -2   3   27.75    2.20   1
   4  -2   3   30.00    2.12   1
  -4   2  -3   28.94    1.92   1
  -4   2  -3   28.30    1.93   1
   4  -2   4   59.87    4.50   1
   4  -2   4   60.16    3.08   1
  -4   2  -4   60.63    2.88   1
  -4   2  -4   61.10    4.10   1
   4  -2   5   62.61    4.81   1
   4  -2   5   64.32    3.40   1
  -4   2  -5   61.23    3.12   1
  -4   2  -5   57.28    4.03   1
   4  -2   6    1.35    3.01   1
   4  -2   6    4.88    2.81   1
   4  -2   7   81.71    6.58  -1
  -4  -2  -5   81.71    6.58   2
   4  -2   7   83.85    7.30  -1
  -4  -2  -5   83.85    7.30   2
   4  -2   8   29.12    4.29   1
   4  -2   8   71.95    9.43  -1
  -4  -2  -6   71.95    9.43   2
   4  -2   9    5.02    3.25   1
   4  -2   9    6.07    2.01   1
   4  -2  10  192.43    8.28   1
   4  -2  10  192.73   10.79   1
   4  -2  11    2.12    3.21   1
   4  -2  11    2.19    3.28   1
   4  -2  12    2.69    3.56   1
   4  -2  13   19.74    2.72   1
   4  -2  13   17.64    4.27   1
   4  -2  14   42.50    5.82  -1
  -4  -4 -11   42.50    5.82   2
   4  -2  14   22.03    7.16  -1
  -4  -4 -11   22.03    7.16   2
   4  -2  15   12.13    4.06   1
   4  -2  15   48.21    9.54  -1
  -4  -4 -12   48.21    9.54   2
   4  -2  16   28.25    4.67   1
   4  -2  16   24.23    4.71   1
   4  -2  17   -0.45    3.58   1
   4  -2  17    4.10    3.39   1
  -4   1  14   41.00    2.26  -1
   4  -5 -12   41.00    2.26   2
   4  -1 -13    7.98    0.96   1
  -4   1  13    8.14    0.99   1
   4  -1 -12    1.81    0.68   1
  -4   1  12    1.18    0.70   1
  -4   1  11    0.65    0.78   1
   4  -1 -10    0.93    0.32   1
   4  -1 -10    0.27    0.53   1
  -4   1  10   -0.25    1.34   1
   4  -1  -9   33.94    0.92   1
   4  -1  -9   34.86    0.93   1
  -4   1   9   39.97    1.75   1
   4  -1  -8   52.47    1.33   1
   4  -1  -8   55.48    1.37   1
  -4   1   8   57.59    2.69   1
   4  -1  -5   66.78    2.15   1
   4  -1  -5   63.17    2.95   1
  -4   1   5   74.36    2.31   1
  -4   1   5   67.02    2.77   1
   4  -1  -4    0.57    1.24   1
   4  -1  -4    1.82    1.04   1
  -4   1   4   -1.12    1.13   1
  -4   1   4    2.80    0.97   1
   4  -1  -3  582.94   21.44   1
   4  -1  -3  582.60   22.89   1
  -4   1   3  580.64   20.17   1
  -4   1   3  590.14   21.49   1
   4  -1  -2    0.63    1.34   1
   4  -1  -2   -0.56    1.36   1
  -4   1   2   -0.15    1.08   1
  -4   1   2    1.88    1.25   1
   4  -1  -1  118.51    4.55   1
   4  -1  -1  108.97    4.80   1
  -4   1   1  123.83    4.43   1
  -4   1   1  113.88    4.49   1
   4  -1   0   25.64    3.82  -1
  -4   1   0   25.64    3.82   2
   4  -1   0   22.34    3.52  -1
  -4   1   0   22.34    3.52   2
  -4   1   0   20.95    2.50  -1
   4  -1   0   20.95    2.50   2
  -4   1   0   26.74    3.22  -1
   4  -1   0   26.74    3.22   2
   4  -1   1   76.84    4.31   1
   4  -1   1   74.50    4.07   1
  -4   1  -1   85.01    3.88   1
  -4   1  -1   67.67    2.74   1
   4  -1   2   24.79    2.98   1
   4  -1   2   21.06    2.97   1
  -4   1  -2   23.75    2.55   1
  -4   1  -2   17.34    2.49   1
   4  -1   3   23.96    2.10   1
   4  -1   3   28.14    3.26   1
  -4   1  -3   27.53    1.90   1
  -4   1  -3   31.03    2.90   1
   4  -1   4   61.41    4.46   1
   4  -1   4   57.84    4.39   1
  -4   1  -4   68.25    4.02   1
   4  -1   5   17.33    2.01   1
   4  -1   5   15.60    1.89   1
  -4   1  -5   10.64    2.53   1
   4  -1   6   68.93    4.96   1
   4  -1   6  173.58   11.96  -1
  -4  -1  -5  173.58   11.96   2
   4  -1   7   72.81    4.83  -1
  -4  -1  -6   72.81    4.83   2
   4  -1   7   73.98    5.18  -1
  -4  -1  -6   73.98    5.18   2
   4  -1   8   18.14    2.55   1
   4  -1   8   37.41    7.53  -1
  -4  -1  -7   37.41    7.53   2
   4  -1   9   74.76    4.14   1
   4  -1   9   68.58    6.15   1
   4  -1  10   21.76    4.08   1
   4  -1  10   22.80    4.54   1
   4  -1  11    3.45    2.10   1
   4  -1  11    2.16    3.61   1
   4  -1  12   -2.84    3.51   1
   4  -1  12    0.38    3.32   1
   4  -1  13    0.78    2.00   1
   4  -1  13    0.06    3.64   1
   4  -1  14   -2.26    4.97  -1
  -4  -3 -12   -2.26    4.97   2
   4  -1  14    1.23    5.67  -1
  -4  -3 -12    1.23    5.67   2
   4  -1  15    4.75    4.06   1
   4  -1  15   23.76    6.78  -1
  -4  -3 -13   23.76    6.78   2
   4  -1  16   22.61    5.23   1
   4  -1  17    2.35    2.28   1
   4  -1  17   -1.38    2.42   1
  -4   0  15   45.17    3.28  -1
   4  -6 -12   45.17    3.28   2
  -4   0  14   23.60    1.46   1
   4   0 -13    7.52    1.13   1
  -4   0  13    7.05    1.03   1
   4   0 -12    0.62    0.88   1
  -4   0  12    0.59    1.09   1
   4   0 -11    1.70    1.11   1
  -4   0  11   -0.05    0.94   1
   4   0 -10    6.92    1.26   1
   4   0 -10    7.65    1.15   1
  -4   0  10    7.43    0.87   1
   4   0  -9   15.65    1.35   1
   4   0  -9   17.02    1.43   1
  -4   0   9   16.50    1.23   1
   4   0  -8   13.78    2.19  -1
  -4   4   6   13.78    2.19   2
   4   0  -8   11.41    1.81  -1
  -4   4   6   11.41    1.81   2
  -4   0   8   16.61    1.90  -1
   4  -4  -6   16.61    1.90   2
   4   0  -7   17.18    1.40   1
   4   0  -7   16.47    1.55   1
  -4   0   7   17.70    1.01   1
   4   0  -6    9.05    1.35   1
   4   0  -6   11.49    1.46   1
  -4   0   6   10.59    0.94   1
   4   0  -5   29.54    1.68   1
   4   0  -5   27.33    1.26   1
  -4   0   5   29.67    1.48   1
  -4   0   5   32.44    1.42   1
   4   0  -4   38.17    2.07   1
   4   0  -4   39.48    1.94   1
  -4   0   4   43.76    2.08   1
  -4   0   4   40.98    1.49   1
   4   0  -3  172.34    5.89   1
   4   0  -3  163.59    5.58   1
  -4   0   3  164.93    5.47   1
  -4   0   3  163.89    5.40   1
   4   0  -2   38.12    2.47   1
   4   0  -2   32.69    2.01   1
  -4   0   2   33.95    1.55   1
  -4   0   2   36.04    1.80   1
   4   0  -1   24.00    1.62   1
   4   0  -1   42.25    3.61  -1
  -4   2   0   42.25    3.61   2
  -4   0   1   42.94    3.34  -1
   4  -2   0   42.94    3.34   2
  -4   0   1   43.93    3.20  -1
   4  -2   0   43.93    3.20   2
   4   0   0   23.48    2.39   1
  -4   0   0   24.90    1.47   1
   4   0   0   47.40    5.49  -1
  -4   2  -1   47.40    5.49   2
   4   0   1   12.62    2.77   1
   4   0   1   10.79    2.31   1
  -4   0  -1   16.28    2.07   1
   4   0   2   29.65    3.32   1
   4   0   2   29.11    2.06   1
  -4   0  -2   33.70    2.95   1
   4   0   3   87.68    5.11   1
   4   0   3   88.74    3.70   1
  -4   0  -3   87.10    4.51   1
   4   0   4   69.98    3.35   1
   4   0   4   75.95    4.83   1
  -4   0  -4   66.76    3.07   1
   4   0   5    2.16    2.80   1
   4   0   5    1.93    1.62   1
  -4   0  -5    0.36    2.27   1
   4   0   6  111.33    7.60  -1
  -4   0  -6  111.33    7.60   2
   4   0   6  106.23    7.96  -1
  -4   0  -6  106.23    7.96   2
   4   0   7   45.02    4.77   1
   4   0   7   94.23    8.59  -1
  -4   0  -7   94.23    8.59   2
   4   0   8    3.96    1.75   1
   4   0   8    5.54    3.46   1
   4   0   9  232.74   11.75   1
   4   0   9  240.55   12.40   1
   4   0  10    1.04    3.15   1
   4   0  10    1.29    3.44   1
   4   0  11    3.01    1.98   1
   4   0  11    1.06    3.63   1
   4   0  12   38.95    5.38   1
   4   0  12   80.97    9.93  -1
  -4  -2 -11   80.97    9.93   2
   4   0  13   53.38    6.54  -1
  -4  -2 -12   53.38    6.54   2
   4   0  13   68.26    8.65  -1
  -4  -2 -12   68.26    8.65   2
   4   0  14   22.34    3.09   1
   4   0  14   53.21    7.93  -1
  -4  -2 -13   53.21    7.93   2
   4   0  15   32.42    3.75   1
   4   0  15  118.02   12.89  -1
  -4  -2 -14  118.02   12.89   2
   4   0  16    0.98    2.14   1
   4   0  17   44.57    5.57   1
   4   0  17   39.93    5.72   1
  -4  -1  15   31.90    3.24  -1
   4  -7 -11   31.90    3.24   2
  -4  -1  14    7.08    1.40   1
  -4  -1  14    6.51    1.29   1
   4   1 -13    1.38    1.22   1
  -4  -1  13    2.93    1.29   1
  -4  -1  13    1.91    1.32   1
   4   1 -12    1.23    1.19   1
  -4  -1  12    0.00    1.25   1
  -4  -1  12    1.55    1.09   1
   4   1 -11    1.06    1.14   1
  -4  -1  11    1.83    1.34   1
  -4  -1  11   -0.09    0.90   1
   4   1 -10   20.65    1.53   1
   4   1 -10   17.15    1.52   1
  -4  -1  10   20.14    0.97   1
  -4  -1  10   19.55    1.08   1
   4   1  -9   41.77    2.51   1
   4   1  -9   39.69    2.01   1
  -4  -1   9   33.97    0.99   1
  -4  -1   9   40.11    1.17   1
   4   1  -8  130.40    5.99  -1
  -4   5   5  130.40    5.99   2
   4   1  -8  141.27    6.10  -1
  -4   5   5  141.27    6.10   2
   4   1  -7   70.41    2.80   1
   4   1  -7   71.26    2.94   1
   4   1  -6   53.05    2.41   1
   4   1  -6   56.10    2.58   1
   4   1  -5   -0.24    0.84   1
   4   1  -5    0.33    1.35   1
   4   1  -4  394.87   14.48   1
   4   1  -4  411.26   11.88   1
  -4  -1   4  396.20   14.33   1
   4   1  -3    2.51    1.68   1
   4   1  -3   -0.09    0.97   1
  -4  -1   3    0.14    1.49   1
   4   1  -2   77.99    4.00   1
   4   1  -2   81.10    3.43   1
  -4  -1   2   84.99    3.97   1
   4   1  -1   31.97    2.56  -1
  -4   3  -1   31.97    2.56   2
   4   1  -1   28.13    2.80  -1
  -4   3  -1   28.13    2.80   2
  -4  -1   1   32.19    3.25  -1
   4  -3   1   32.19    3.25   2
   4   1   0   96.88    5.29   1
   4   1   0   97.19    4.24   1
  -4  -1   0   89.09    3.24   1
   4   1   1   24.09    3.22   1
   4   1   1   22.54    2.68   1
  -4  -1  -1   26.84    2.58   1
   4   1   2   22.36    1.95   1
   4   1   2   25.51    2.94   1
  -4  -1  -2   24.92    2.68   1
   4   1   3   57.66    3.13   1
   4   1   3   52.56    3.96   1
  -4  -1  -3   53.97    3.35   1
   4   1   4   37.30    2.68   1
  -4  -1  -4   36.52    3.08   1
   4   1   5   75.58    3.99   1
   4   1   6   69.42    6.77  -1
  -4   1  -7   69.42    6.77   2
   4   1   7   24.04    3.70   1
   4   1   8   60.25    5.14   1
   4   1   9   22.63    3.79   1
   4   1  10   14.41    2.32   1
   4   1  11    0.53    3.23   1
   4   1  11    2.62    3.37   1
   4   1  12    7.61    4.17  -1
  -4  -1 -12    7.61    4.17   2
   4   1  12    7.00    4.45  -1
  -4  -1 -12    7.00    4.45   2
   4   1  13    1.91    4.18  -1
  -4  -1 -13    1.91    4.18   2
   4   1  13   -6.17    3.49  -1
  -4  -1 -13   -6.17    3.49   2
   4   1  14   10.00    3.96   1
   4   1  15   48.85    5.73   1
   4   1  15   39.73    6.02   1
   4   1  16   11.45    3.81   1
   4   1  16    7.13    4.48   1
   4   1  17   20.05    3.09   1
   4   1  17   24.56    3.24   1
  -4  -2  16   26.04    4.02  -1
   4  -8 -11   26.04    4.02   2
  -4  -2  15   13.54    1.80   1
   4   2 -14    3.98    1.63   1
  -4  -2  14    5.29    1.61   1
   4   2 -13   -0.71    1.33   1
  -4  -2  13    0.96    1.45   1
  -4  -2  13    0.79    0.97   1
   4   2 -12    1.24    1.35   1
  -4  -2  12   -1.26    1.52   1
  -4  -2  12   -0.12    0.76   1
   4   2 -11    2.35    1.38   1
  -4  -2  11    4.28    1.10   1
  -4  -2  11    2.30    0.57   1
   4   2 -10   12.21    1.64   1
   4   2 -10    9.46    1.70   1
   4   2  -9   13.48    3.81  -1
  -4   6   5   13.48    3.81   2
   4   2  -9   16.93    3.08  -1
  -4   6   5   16.93    3.08   2
   4   2  -8   18.08    1.84   1
   4   2  -8   13.09    1.82   1
   4   2  -7    6.34    1.67   1
   4   2  -7   11.04    1.77   1
   4   2  -6   16.73    1.93   1
   4   2  -6   17.67    1.88   1
   4   2  -5   23.01    1.51   1
   4   2  -5   18.97    2.24   1
   4   2  -4   93.60    4.58   1
   4   2  -4   94.11    2.43   1
  -4  -2   4   99.44    4.39   1
   4   2  -3   27.27    2.68   1
   4   2  -3   29.54    1.73   1
  -4  -2   3   25.83    2.50   1
   4   2  -2   24.18    3.51  -1
  -4   4  -1   24.18    3.51   2
  -4  -2   2   25.57    3.26  -1
   4  -4   1   25.57    3.26   2
   4   2  -1   21.53    3.01   1
  -4  -2   1   20.69    2.43   1
   4   2   0   16.41    2.89   1
  -4  -2   0   13.94    1.56   1
   4   2   1   18.20    1.91   1
  -4  -2  -1   15.79    2.59   1
   4   2   2   85.32    5.65   1
  -4  -2  -2   73.32    4.44   1
   4   2   3   61.38    4.72   1
  -4  -2  -3   45.75    3.54   1
   4   2   4   17.19    6.88  -1
  -4   2  -6   17.19    6.88   2
   4   2   5   78.08    6.73  -1
  -4   2  -7   78.08    6.73   2
   4   2   6   35.53    4.47   1
   4   2   7   -0.62    2.91   1
   4   2   8  156.46    8.82   1
   4   2   9    1.59    3.23   1
   4   2  10    0.72    1.96   1
   4   2  11   42.82    3.37   1
   4   2  12   55.42    6.76  -1
  -4   0 -13   55.42    6.76   2
   4   2  13   54.88    7.10  -1
  -4   0 -14   54.88    7.10   2
   4   2  14  131.65   13.37  -1
  -4   0 -15  131.65   13.37   2
   4   2  15   -2.77    2.07   1
   4   2  16   54.50    5.94   1
   4   2  16   54.15    5.97   1
  -4  -3  16   17.06    3.04  -1
   4  -9 -10   17.06    3.04   2
  -4  -3  15    4.54    1.82   1
  -4  -3  14    2.16    1.81   1
  -4  -3  13    1.76    1.91   1
  -4  -3  12    3.28    2.05   1
  -4  -3  12    0.12    0.43   1
   4   3 -11   10.22    2.05   1
  -4  -3  11   10.14    1.58   1
   4   3 -10   20.10    1.52   1
   4   3 -10   20.44    2.19   1
   4   3  -9   52.89    4.52  -1
  -4   7   4   52.89    4.52   2
   4   3  -9   62.26    4.83  -1
  -4   7   4   62.26    4.83   2
   4   3  -8   30.26    1.89   1
   4   3  -8   31.51    2.78   1
   4   3  -7   34.92    2.80   1
   4   3  -7   38.69    3.11   1
   4   3  -6   -0.40    1.03   1
   4   3  -6    2.56    1.90   1
   4   3  -5  181.98    6.38   1
   4   3  -5  180.65    7.41   1
   4   3  -5  159.97    4.04   1
   4   3  -4   -1.21    1.31   1
   4   3  -4    0.70    2.07   1
   4   3  -4    0.51    0.66   1
   4   3  -3   38.70    3.54   1
  -4  -3   3   38.92    2.01   1
   4   3  -2   26.84    4.62  -1
  -4   5  -2   26.84    4.62   2
  -4  -3   2   34.66    4.77  -1
   4  -5   2   34.66    4.77   2
   4   3  -1   69.57    4.47   1
  -4  -3   1   69.34    4.35   1
   4   3   0   14.22    3.09   1
  -4  -3   0   18.53    2.46   1
   4   3   1   14.21    2.10   1
   4   3   2   23.27    3.54   1
   4   3   3   52.87    4.71   1
   4   3   4  142.07   10.44  -1
  -4   3  -7  142.07   10.44   2
   4   3   5   62.60    7.90  -1
  -4   3  -8   62.60    7.90   2
   4   3   6    8.14    3.42   1
   4   3   7   38.57    4.62   1
   4   3   8   20.82    4.01   1
   4   3   9    8.27    3.62   1
   4   3  10    5.95    3.79   1
   4   3  11    2.07    5.27  -1
  -4   1 -13    2.07    5.27   2
   4   3  12    2.30    3.15  -1
  -4   1 -14    2.30    3.15   2
   4   3  13   15.23    6.63  -1
  -4   1 -15   15.23    6.63   2
   4   3  14   46.95    5.68   1
   4   3  15   10.36    4.10   1
   4   3  16   23.84    4.68   1
  -4  -4  16    3.87    2.12   1
  -4  -4  15    3.00    2.20   1
  -4  -4  14   -0.20    1.37   1
  -4  -4  13    1.08    2.46   1
  -4  -4  12    3.36    1.58   1
   4   4 -11    7.04    1.25   1
  -4  -4  11   -0.46    1.58   1
   4   4 -10    4.62    3.44  -1
  -4   8   4    4.62    3.44   2
   4   4  -9   10.63    2.24   1
   4   4  -8    6.06    2.28   1
   4   4  -7    6.71    2.40   1
   4   4  -7    5.41    0.49   1
   4   4  -6    7.83    2.50   1
   4   4  -5   34.56    3.31   1
   4   4  -5   39.88    1.80   1
   4   4  -4   16.95    2.73   1
   4   4  -4   11.43    0.99   1
   4   4  -3   18.87    2.85  -1
  -4   6  -2   18.87    2.85   2
   4   4  -2   14.73    1.94   1
   4   4  -1   12.07    2.85   1
   4   4   0    9.11    2.90   1
   4   4   1   47.49    4.39   1
   4   4   2   23.57    2.55   1
   4   4   3   17.06    2.19   1
   4   4   4   58.86    6.08  -1
  -4   4  -8   58.86    6.08   2
   4   4   5   12.94    2.45   1
   4   4   6    5.27    2.09   1
   4   4   7   58.98    3.86   1
   4   4   8    2.23    2.05   1
   4   4   9   -0.68    2.10   1
   4   4  10   28.01    3.20   1
   4   4  11   26.38    3.59  -1
  -4   2 -14   26.38    3.59   2
   4   4  12   41.31    9.58  -1
  -4   2 -15   41.31    9.58   2
   4   4  13   41.93    5.70   1
   4   4  14    5.07    3.66   1
   4   4  15   50.55    4.20   1
  -4  -5  16    2.64    2.38   1
  -4  -5  15    0.92    2.42   1
  -4  -5  14    7.33    2.78   1
  -4  -5  13    6.26    1.90   1
  -4  -5  12    3.23    1.84   1
   4   5 -11   13.08    2.66   1
   4   5 -10   19.29    4.26  -1
  -4   9   3   19.29    4.26   2
   4   5  -9   12.84    1.77   1
   4   5  -8   22.54    3.21   1
   4   5  -8   -0.72    0.67   1
   4   5  -7    1.09    2.45   1
   4   5  -7    0.51    0.97   1
   4   5  -6   84.89    5.38   1
   4   5  -6   69.31    3.02   1
   4   5  -5   -1.70    2.54   1
   4   5  -5    1.20    1.17   1
   4   5  -4   17.36    2.85   1
   4   5  -4   14.07    1.72   1
   4   5  -3   24.70    5.36  -1
  -4   7  -3   24.70    5.36   2
   4   5  -3   19.64    3.16  -1
  -4   7  -3   19.64    3.16   2
   4   5  -2   34.63    3.27   1
   4   5  -2    6.08    1.17   1
   4   5  -1    9.13    3.02   1
   4   5   0   11.89    3.29   1
   4   5   1    9.86    3.21   1
   4   5   2   38.65    4.39   1
   4   5   3   75.95    8.57  -1
  -4   5  -8   75.95    8.57   2
   4   5   4   32.25    4.45  -1
  -4   5  -9   32.25    4.45   2
   4   5   5    0.66    1.96   1
   4   5   6   11.59    2.59   1
   4   5   7   14.20    2.58   1
   4   5   8    6.96    2.41   1
   4   5   9    2.66    3.44   1
   4   5  10   13.91    5.90  -1
  -4   3 -14   13.91    5.90   2
   4   5  11   -5.40    6.41  -1
  -4   3 -15   -5.40    6.41   2
   4   5  12    1.85    3.80   1
   4   5  13   29.15    5.02   1
   4   5  14   14.90    4.39   1
  -4  -6  15   -2.56    1.86   1
  -4  -6  14    2.45    1.95   1
  -4  -6  13   -2.54    1.85   1
   4   6 -12   -0.51    2.36   1
   4   6 -11    3.34    2.61  -1
  -4  10   3    3.34    2.61   2
   4   6 -10    8.86    2.75   1
   4   6  -9    5.13    2.65   1
   4   6  -8    0.97    1.68   1
   4   6  -7    5.75    2.83   1
   4   6  -6   11.15    1.43   1
   4   6  -5    6.13    2.96   1
   4   6  -5    5.55    1.75   1
   4   6  -4   16.07    4.58  -1
  -4   8  -3   16.07    4.58   2
   4   6  -4    6.95    2.45  -1
  -4   8  -3    6.95    2.45   2
   4   6  -3    9.73    1.95   1
   4   6  -3    6.67    1.53   1
   4   6  -2    4.05    1.93   1
   4   6  -2    3.47    1.42   1
   4   6  -1    4.96    1.81   1
   4   6  -1    0.44    1.16   1
   4   6   0   18.44    2.43   1
   4   6   1    6.03    2.13   1
   4   6   2   12.81    2.18   1
   4   6   3   33.68    5.51  -1
  -4   6  -9   33.68    5.51   2
   4   6   4    3.84    2.17   1
   4   6   5    2.24    1.98   1
   4   6   6   19.34    2.77   1
   4   6   7    5.00    2.52   1
   4   6   8    2.17    2.18   1
   4   6   9   16.87    4.27   1
   4   6  10    8.66    4.73  -1
  -4   4 -15    8.66    4.73   2
   4   6  11    6.38    4.05   1
   4   6  12   23.73    5.04   1
   4   7 -13   -2.22    2.31   1
   4   7 -12    4.87    1.63   1
   4   7 -11    7.05    4.04  -1
  -4  11   2    7.05    4.04   2
   4   7 -10    6.30    1.77   1
   4   7  -9    8.17    3.06   1
   4   7  -8    2.66    2.97   1
   4   7  -7   23.57    2.70   1
   4   7  -6    4.10    3.10   1
   4   7  -5   14.66    3.51   1
   4   7  -4    9.54    5.63  -1
  -4   9  -4    9.54    5.63   2
   4   7  -3   11.32    2.16   1
   4   7  -3    9.58    1.78   1
   4   7  -2    3.13    1.94   1
   4   7  -1    9.10    3.31   1
   4   7   0   10.48    3.37   1
   4   7   1   23.00    4.04   1
   4   7   2   11.17    3.69   1
   4   7   3   22.93    7.65  -1
  -4   7 -10   22.93    7.65   2
   4   7   4    1.92    3.49   1
   4   7   5    6.50    3.76   1
   4   7   6    5.97    3.72   1
   4   7   7    5.41    2.24   1
   4   7   8    1.45    2.48   1
   4   7   9   -1.88    5.53  -1
  -4   5 -15   -1.88    5.53   2
   4   7  10    0.88    4.00  -1
  -4   5 -16    0.88    4.00   2
   4   7  11    5.48    3.89   1
   4   8 -11    0.41    1.69   1
   4   8 -10    0.30    2.80   1
   4   8  -9    0.70    1.88   1
   4   8  -8    6.33    3.35   1
   4   8  -7    5.05    3.48   1
   4   8  -6    3.21    1.99   1
   4   8  -5   -3.74    5.10  -1
  -4  10  -4   -3.74    5.10   2
   4   8  -4    2.36    3.11   1
   4   8  -3    0.81    1.88   1
   4   8  -2   -1.58    1.91   1
   4   8  -1    1.13    3.21   1
   4   8   0    3.94    3.35   1
   4   8   1    2.12    3.03   1
   4   8   2   24.28    5.80  -1
  -4   8 -10   24.28    5.80   2
   4   8   3    6.45    2.17   1
   4   8   4    2.33    2.15   1
   4   8   5    2.47    2.37   1
   4   8   6   -0.22    3.29   1
   4   8   7   -4.70    3.51   1
   4   8   8    6.07    3.78   1
   4   8   9    2.01    5.05  -1
  -4   6 -16    2.01    5.05   2
   4   9  -8    7.76    2.45   1
   4   9  -7    2.88    3.25   1
   4   9  -6   -1.22    3.30   1
   4   9  -5    3.29    3.53  -1
  -4  11  -5    3.29    3.53   2
   4   9  -4   -1.29    3.20   1
   4   9  -3    6.50    3.44   1
   4   9  -2   -2.26    2.03   1
   4   9  -1    2.67    3.31   1
   4   9   0   11.45    3.60   1
   4   9   1    1.32    3.22   1
   4   9   2    4.68    4.31  -1
  -4   9 -11    4.68    4.31   2
   4   9   3    2.26    2.17   1
   4   9   4   -5.01    3.82   1
   4   9   5    0.63    3.44   1
  -5  11   6    1.76    2.45   1
  -5  11   5    5.39    2.46   1
  -5  11   4    3.15    2.57   1
   5 -11  -3    0.99    2.50   1
   5 -11  -2    9.91    1.98   1
   5 -11  -2    8.55    3.75   1
   5 -11  -1    3.93    3.83   1
   5 -11  -1   11.53    4.46  -1
  -5  -7  10   11.53    4.46   2
   5 -11   0    5.29    1.75   1
   5 -11   0   -1.60    3.76   1
   5 -11   1    1.85    2.78   1
   5 -11   1    4.41    3.46   1
   5 -11   2    8.17    2.99   1
   5 -11   2   -0.54    2.18   1
   5 -11   3    5.59    3.46   1
   5 -11   3   13.02    7.07  -1
  -5  -8   7   13.02    7.07   2
   5 -11   4   -3.08    2.00   1
   5 -11   4    1.66    3.42   1
   5 -11   5   -0.54    3.35   1
   5 -11   5   -1.85    3.23   1
   5 -11   6    9.08    4.28  -1
  -5  -9   4    9.08    4.28   2
   5 -11   6    0.23    5.76  -1
  -5  -9   4    0.23    5.76   2
  -5  10   7    1.48    2.08   1
  -5  10   6    1.68    2.11   1
  -5  10   5    1.72    2.13   1
   5 -10  -4    5.79    1.70   1
   5 -10  -4   15.27    2.86   1
   5 -10  -3    3.39    1.50   1
   5 -10  -3    4.52    3.46   1
   5 -10  -2    3.86    2.32   1
   5 -10  -2   -2.28    3.56   1
   5 -10  -1    1.50    3.89  -1
  -5  -6   9    1.50    3.89   2
   5 -10  -1   11.70    5.24  -1
  -5  -6   9   11.70    5.24   2
   5 -10   0    0.64    2.63   1
   5 -10   0    1.56    3.17   1
   5 -10   1   10.88    3.31   1
   5 -10   1   11.45    3.82   1
   5 -10   2    0.05    1.81   1
   5 -10   2    2.18    3.35   1
   5 -10   3   -0.71    2.11   1
   5 -10   3    8.77    2.21   1
   5 -10   4    3.56    3.27   1
   5 -10   4    1.73    2.02   1
   5 -10   5    5.57    2.36   1
   5 -10   5    4.10    3.91   1
   5 -10   6   23.38    7.16  -1
  -5  -8   3   23.38    7.16   2
   5 -10   6    2.78    7.50  -1
  -5  -8   3    2.78    7.50   2
   5 -10   7    7.66    2.49   1
   5 -10   7   10.27    2.70   1
   5 -10   8    3.60    3.68   1
   5 -10   8   -1.33    3.59   1
   5 -10   9    7.78    2.61   1
   5 -10   9    8.25    6.68  -1
  -5  -9   1    8.25    6.68   2
  -5   9   7    3.18    2.08   1
  -5   9   6    0.75    1.86   1
   5  -9  -5    0.03    1.31   1
   5  -9  -5   -1.26    2.39   1
   5  -9  -4    2.14    2.02   1
   5  -9  -4    1.42    3.68   1
   5  -9  -3   20.20    2.63   1
   5  -9  -3   22.12    3.88   1
   5  -9  -2    6.86    3.66   1
   5  -9  -2   22.91    5.41  -1
  -5  -5   9   22.91    5.41   2
   5  -9  -1   -2.11    2.28   1
   5  -9  -1    3.60    3.17   1
   5  -9   0   11.56    1.99   1
   5  -9   0   16.77    4.08   1
   5  -9   1    1.97    1.78   1
   5  -9   1    1.81    3.07   1
   5  -9   2    5.45    3.21   1
   5  -9   2   13.68    5.87  -1
  -5  -6   6   13.68    5.87   2
   5  -9   3    1.40    3.43   1
   5  -9   4   -5.62    3.13   1
   5  -9   4   -3.17    3.57   1
   5  -9   5   17.14    5.74  -1
  -5  -7   3   17.14    5.74   2
   5  -9   5   14.63    4.72  -1
  -5  -7   3   14.63    4.72   2
   5  -9   6   -3.95    3.51   1
   5  -9   6    5.98    2.30   1
   5  -9   7    9.66    2.47   1
   5  -9   7    8.04    3.85   1
   5  -9   8    3.08    3.86   1
   5  -9   8    6.37    3.73   1
   5  -9   9    3.77    3.82   1
   5  -9   9    9.21    7.09  -1
  -5  -8  -1    9.21    7.09   2
   5  -9  10   -4.20    3.67   1
   5  -9  10    0.72    3.59   1
   5  -9  11    1.18    2.17   1
   5  -9  11    1.92    3.61   1
  -5   8   8    2.61    1.37   1
  -5   8   7    1.25    1.61   1
  -5   8   6    5.26    1.49   1
  -5   8   6    9.25    1.78   1
   5  -8  -5   14.52    2.34   1
   5  -8  -5   16.93    2.77   1
  -5   8   5    8.69    1.79   1
   5  -8  -4    7.96    1.90   1
   5  -8  -4    9.81    3.41   1
  -5   8   4    7.29    1.88   1
   5  -8  -3    4.16    2.12   1
   5  -8  -3    8.23    3.43   1
   5  -8  -2   17.08    3.62  -1
  -5  -4   8   17.08    3.62   2
   5  -8  -2    9.37    5.40  -1
  -5  -4   8    9.37    5.40   2
   5  -8  -1   -3.35    2.19   1
   5  -8  -1    2.02    3.02   1
   5  -8   0   26.81    3.50   1
   5  -8   0   19.80    2.52   1
   5  -8   1    0.07    2.66   1
   5  -8   1    0.06    1.84   1
   5  -8   2   16.93    3.31   1
   5  -8   2   11.49    2.60   1
   5  -8   3    5.23    3.23   1
   5  -8   3    9.93    2.47   1
   5  -8   4   16.24    3.56   1
   5  -8   4    9.03    2.44   1
   5  -8   5   27.47    6.79  -1
  -5  -6   2   27.47    6.79   2
   5  -8   5   19.84    7.12  -1
  -5  -6   2   19.84    7.12   2
   5  -8   6    6.58    3.34   1
   5  -8   6   10.25    3.91   1
   5  -8   7    8.17    3.65   1
   5  -8   7    2.53    3.70   1
   5  -8   8   14.81    2.71   1
   5  -8   8   23.43    5.63  -1
  -5  -7   0   23.43    5.63   2
   5  -8   9    4.79    3.65   1
   5  -8   9    0.95    3.72   1
   5  -8  10    5.39    3.76   1
   5  -8  10    0.66    2.28   1
   5  -8  11   -0.78    3.78   1
   5  -8  11   -0.67    3.63   1
   5  -8  12   21.01    6.31  -1
  -5  -8  -4   21.01    6.31   2
   5  -8  12    1.18    4.43  -1
  -5  -8  -4    1.18    4.43   2
  -5   7   9   11.26    1.42   1
  -5   7   8   11.52    1.80   1
  -5   7   7    2.45    1.07   1
  -5   7   7    5.16    1.81   1
   5  -7  -6    0.08    0.98   1
   5  -7  -6    2.87    2.16   1
  -5   7   6    7.03    1.70   1
   5  -7  -5   12.26    1.67   1
   5  -7  -5   13.49    3.24   1
  -5   7   5    9.15    1.63   1
   5  -7  -4   27.56    2.49   1
   5  -7  -4   42.02    2.76   1
  -5   7   4   24.31    2.27   1
  -5   7   3   12.15    2.18   1
   5  -7  -3   49.43    5.24  -1
  -5  -3   8   49.43    5.24   2
   5  -7  -3   55.54    8.22  -1
  -5  -3   8   55.54    8.22   2
   5  -7  -2    3.50    2.08   1
   5  -7  -2   11.14    2.99   1
  -5   7   2    1.07    1.79   1
   5  -7  -1   22.96    3.18   1
   5  -7  -1   26.20    2.49   1
   5  -7   0   -0.38    1.49   1
   5  -7   0    6.09    3.02   1
   5  -7   1   16.22    1.94   1
   5  -7   1   14.76    6.99  -1
  -5  -4   5   14.76    6.99   2
   5  -7   2    2.45    1.63   1
   5  -7   3    1.97    2.92   1
   5  -7   3    6.77    3.24   1
   5  -7   4   38.35    6.12  -1
  -5  -5   2   38.35    6.12   2
   5  -7   4   39.97    7.75  -1
  -5  -5   2   39.97    7.75   2
   5  -7   5    6.65    2.10   1
   5  -7   5    3.96    3.27   1
   5  -7   6   13.86    4.00   1
   5  -7   6   15.26    4.02   1
   5  -7   7   20.19    4.32   1
   5  -7   7   18.57    2.67   1
   5  -7   8   13.30    2.64   1
   5  -7   8   12.74    7.38  -1
  -5  -6  -2   12.74    7.38   2
   5  -7   9    6.59    3.70   1
   5  -7   9    3.03    3.75   1
   5  -7  10   -0.23    3.53   1
   5  -7  10   -2.11    3.60   1
   5  -7  11   -3.84    5.41  -1
  -5  -7  -4   -3.84    5.41   2
   5  -7  11    7.56    5.35  -1
  -5  -7  -4    7.56    5.35   2
   5  -7  12    1.90    3.78   1
   5  -7  12   -3.93    6.81  -1
  -5  -7  -6   -3.93    6.81   2
   5  -7  13   -2.74    3.95   1
   5  -7  13   -1.62    2.22   1
   5  -7  14    7.03    7.34  -1
  -5  -8  -6    7.03    7.34   2
  -5   6   9    0.21    0.77   1
  -5   6   9    1.05    0.84   1
  -5   6   8    2.17    1.10   1
  -5   6   7   13.70    1.44   1
  -5   6   7   15.39    1.34   1
   5  -6  -6   31.53    1.97   1
   5  -6  -6   31.36    2.72   1
  -5   6   6   22.15    1.63   1
   5  -6  -5   21.42    1.70   1
   5  -6  -5   24.92    3.34   1
  -5   6   5   21.38    2.10   1
   5  -6  -4   10.38    1.65   1
   5  -6  -4    9.43    1.85   1
  -5   6   4   10.81    1.51   1
   5  -6  -3   14.78    2.89  -1
  -5  -2   7   14.78    2.89   2
   5  -6  -3   22.25    4.54  -1
  -5  -2   7   22.25    4.54   2
  -5   6   3   12.63    2.81  -1
   5   2  -7   12.63    2.81   2
   5  -6  -2   -0.25    1.69   1
   5  -6  -2    0.72    1.54   1
  -5   6   2    0.18    1.53   1
   5  -6  -1   39.45    3.12   1
   5  -6  -1   47.36    4.36   1
  -5   6   1   31.35    2.77   1
   5  -6   0    1.63    2.06   1
  -5   6   0   -1.30    1.74   1
   5  -6   0   13.59    6.86  -1
  -5  -3   4   13.59    6.86   2
   5  -6   1   32.40    3.39   1
   5  -6   1   23.68    2.57   1
   5  -6   2   18.05    3.10   1
   5  -6   2   10.85    3.48   1
   5  -6   3   44.05    4.19   1
   5  -6   3   38.92    4.59   1
   5  -6   4   60.22    7.15  -1
  -5  -4   1   60.22    7.15   2
   5  -6   4   54.01    7.76  -1
  -5  -4   1   54.01    7.76   2
   5  -6   5   30.40    4.00   1
   5  -6   5   16.52    4.18   1
   5  -6   6    3.69    3.35   1
   5  -6   6    6.79    2.13   1
   5  -6   7   39.94    3.13   1
   5  -6   7   31.87    3.50   1
   5  -6   8    5.07    2.25   1
   5  -6   8   18.79    7.21  -1
  -5  -5  -3   18.79    7.21   2
   5  -6   9   -1.26    3.58   1
   5  -6   9    4.78    2.25   1
   5  -6  10    0.61    3.52   1
   5  -6  10    4.10    3.58   1
   5  -6  11   20.58    7.57  -1
  -5  -6  -5   20.58    7.57   2
   5  -6  11   20.93    6.26  -1
  -5  -6  -5   20.93    6.26   2
   5  -6  12    1.73    3.66   1
   5  -6  12    1.23    3.47   1
   5  -6  13    4.14    3.84   1
   5  -6  13    1.82    2.27   1
   5  -6  14    9.62    4.07   1
   5  -6  14    2.57    2.50   1
   5  -6  15    8.31    3.78   1
  -5   5   8    1.71    0.60   1
  -5   5   8    3.03    0.60   1
  -5   5   7   12.54    1.10   1
  -5   5   7   14.39    1.16   1
   5  -5  -6   29.73    1.68   1
   5  -5  -6   38.72    3.72   1
  -5   5   6   30.06    1.81   1
   5  -5  -5   41.83    1.95   1
   5  -5  -5   42.90    2.70   1
  -5   5   5   38.48    2.26   1
   5  -5  -4  101.90    5.44  -1
  -5  -1   7  101.90    5.44   2
   5  -5  -4  103.01    7.97  -1
  -5  -1   7  103.01    7.97   2
  -5   5   4   98.48    5.75  -1
   5   1  -7   98.48    5.75   2
   5  -5  -3   -0.01    1.30   1
   5  -5  -3   -2.28    2.22   1
  -5   5   3    1.80    1.26   1
   5  -5  -2   38.86    2.71   1
   5  -5  -2   40.46    3.78   1
  -5   5   2   33.75    2.39   1
   5  -5  -1   -1.22    1.76   1
   5  -5  -1    0.50    1.75   1
  -5   5   1    3.19    1.62   1
   5  -5   0   30.32    3.03   1
  -5   5   0   32.04    2.70   1
   5  -5   0   26.16    6.79  -1
  -5  -2   3   26.16    6.79   2
   5  -5   1    4.78    2.37   1
   5  -5   1    6.91    1.76   1
  -5   5  -1    2.92    2.04   1
   5  -5   2   11.03    2.90   1
   5  -5   2   12.36    1.99   1
  -5   5  -2    6.83    2.36   1
   5  -5   3   79.83    6.65  -1
  -5  -3   1   79.83    6.65   2
   5  -5   3   68.13    7.63  -1
  -5  -3   1   68.13    7.63   2
   5  -5   4   11.42    3.19   1
   5  -5   4   11.71    3.41   1
   5  -5   5   30.18    4.23   1
   5  -5   5   30.05    3.98   1
   5  -5   6   47.40    3.38   1
   5  -5   6   41.80    5.02   1
   5  -5   7   25.26    4.44   1
   5  -5   7   37.25    6.45  -1
  -5  -4  -3   37.25    6.45   2
   5  -5   8   10.42    3.65   1
   5  -5   8    4.97    3.55   1
   5  -5   9    2.76    3.51   1
   5  -5   9    1.33    1.98   1
   5  -5  10   -7.92    4.63  -1
  -5  -5  -5   -7.92    4.63   2
   5  -5  10    7.27    5.89  -1
  -5  -5  -5    7.27    5.89   2
   5  -5  11    1.80    3.66   1
   5  -5  11    1.16    2.18   1
   5  -5  12    2.76    3.94   1
   5  -5  12    6.76    3.84   1
   5  -5  13    4.94    2.49   1
   5  -5  13    1.18    3.93   1
   5  -5  14   10.50    2.74   1
   5  -5  14   17.83    6.88  -1
  -5  -6  -9   17.83    6.88   2
   5  -5  15    0.54    3.64   1
   5  -5  15   -0.64    2.18   1
  -5   4   9    2.12    1.77   1
  -5   4   8   15.96    2.28   1
   5  -4  -6   43.11    1.62   1
   5  -4  -6   43.72    3.31   1
  -5   4   6   45.03    1.64   1
  -5   4   6   45.65    3.11   1
   5  -4  -5   13.82    1.38   1
   5  -4  -5   18.82    2.57   1
  -5   4   5   17.51    1.31   1
  -5   4   5   14.39    2.29   1
   5  -4  -4   25.52    2.49  -1
  -5   0   6   25.52    2.49   2
   5  -4  -4   17.92    3.73  -1
  -5   0   6   17.92    3.73   2
  -5   4   4   20.65    2.26  -1
   5   0  -6   20.65    2.26   2
  -5   4   4   19.84    3.52  -1
   5   0  -6   19.84    3.52   2
   5  -4  -3    0.94    1.20   1
   5  -4  -3   -0.21    1.29   1
  -5   4   3    0.70    1.06   1
  -5   4   3    3.34    1.86   1
   5  -4  -2   48.22    2.71   1
   5  -4  -2   48.94    4.12   1
  -5   4   2   50.92    2.64   1
  -5   4   2   43.26    3.37   1
   5  -4  -1    6.26    1.86   1
   5  -4  -1   -2.78    2.34   1
  -5   4   1    4.04    1.53   1
  -5   4   1   -2.59    2.06   1
   5  -4   0   42.71    3.37   1
   5  -4   0   42.62    3.66   1
  -5   4   0   45.19    2.15   1
  -5   4   0   42.68    2.68   1
   5  -4   1   46.10    3.51   1
   5  -4   1   43.67    2.87   1
  -5   4  -1   46.43    3.25   1
  -5   4  -1   37.84    3.63   1
   5  -4   2   74.19    4.73   1
   5  -4   2   75.02    5.16   1
  -5   4  -2   70.23    4.08   1
   5  -4   3  109.11    7.02  -1
  -5  -2   0  109.11    7.02   2
   5  -4   3   95.07    8.03  -1
  -5  -2   0   95.07    8.03   2
  -5   4  -3   92.55    6.92  -1
   5   2   0   92.55    6.92   2
   5  -4   4   60.29    4.79   1
   5  -4   4   53.98    4.93   1
   5  -4   5    7.83    3.21   1
   5  -4   5    5.30    2.90   1
   5  -4   6  101.48    6.78   1
   5  -4   6  187.85   14.47  -1
  -5  -3  -2  187.85   14.47   2
   5  -4   7    5.71    3.24   1
   5  -4   7    1.25    1.98   1
   5  -4   8    6.44    3.23   1
   5  -4   8    6.56    3.31   1
   5  -4   9   10.33    3.76   1
   5  -4   9   61.08    8.30  -1
  -5  -4  -5   61.08    8.30   2
   5  -4  10   54.76    7.73  -1
  -5  -4  -6   54.76    7.73   2
   5  -4  10   42.83    7.84  -1
  -5  -4  -6   42.83    7.84   2
   5  -4  11   12.44    3.81   1
   5  -4  11    8.45    2.46   1
   5  -4  12    4.99    2.52   1
   5  -4  12    3.52    3.83   1
   5  -4  13   10.68    2.80   1
   5  -4  13    9.51    4.19   1
   5  -4  14    4.70    3.91   1
   5  -4  14   -6.98    7.30  -1
  -5  -5 -10   -6.98    7.30   2
   5  -4  15   14.76    4.47   1
   5  -4  15   10.48    4.17   1
   5  -4  16    8.94    2.71   1
   5  -4  16   23.76    6.93  -1
  -5  -6 -11   23.76    6.93   2
  -5   3  12   13.49    1.99   1
  -5   3  11   46.25    3.04   1
  -5   3  10   32.62    2.22   1
  -5   3   9    1.54    0.90   1
  -5   3   8   10.65    1.81   1
  -5   3   7   74.39    3.56   1
   5  -3  -6   41.31    1.26   1
   5  -3  -6   42.71    2.76   1
  -5   3   6   40.87    1.13   1
  -5   3   6   46.58    2.73   1
  -5   3   5   51.82    3.22   1
   5  -3  -5  150.63    5.41  -1
  -5   1   6  150.63    5.41   2
   5  -3  -5  149.22    8.89  -1
  -5   1   6  149.22    8.89   2
  -5   3   5  149.39    5.14  -1
   5  -1  -6  149.39    5.14   2
   5  -3  -4   -0.34    1.04   1
  -5   3   4    1.85    1.57   1
   5  -3  -4   -0.20    2.08  -1
  -5   1   5   -0.20    2.08   2
  -5   3   4    2.49    1.88  -1
   5  -1  -5    2.49    1.88   2
   5  -3  -3   33.14    2.03   1
   5  -3  -3   33.83    3.12   1
  -5   3   3   31.83    1.79   1
  -5   3   3   29.48    2.53   1
   5  -3  -2    2.54    1.48   1
   5  -3  -2    4.42    2.08   1
  -5   3   2    1.61    1.31   1
  -5   3   2    2.12    1.12   1
   5  -3  -1   39.63    2.72   1
  -5   3   1   41.66    2.49   1
   5  -3  -1   48.94    6.16  -1
  -5   0   3   48.94    6.16   2
   5  -3   0   13.24    2.41   1
   5  -3   0   16.31    2.74   1
  -5   3   0   12.53    1.22   1
  -5   3   0   12.68    2.48   1
   5  -3   1    8.45    2.57   1
   5  -3   1   14.69    2.91   1
  -5   3  -1   14.97    2.21   1
  -5   3  -1   12.56    2.58   1
   5  -3   2  117.60    6.84  -1
  -5  -1   0  117.60    6.84   2
   5  -3   2  130.07    9.72  -1
  -5  -1   0  130.07    9.72   2
  -5   3  -2  113.66    6.26  -1
   5   1   0  113.66    6.26   2
  -5   3  -2  108.50    6.18  -1
   5   1   0  108.50    6.18   2
   5  -3   3    8.68    1.90   1
  -5   3  -3   48.84    5.01  -1
   5   1   1   48.84    5.01   2
   5  -3   4   40.40    4.09   1
   5  -3   4   41.35    2.88   1
   5  -3   5  103.92    6.02   1
   5  -3   5   87.09    4.36   1
   5  -3   6   48.19    4.71   1
   5  -3   6   54.20    8.47  -1
  -5  -2  -4   54.20    8.47   2
   5  -3   7   13.85    3.54   1
   5  -3   7   15.19    3.80   1
   5  -3   8   -2.20    1.92   1
   5  -3   8    0.46    1.85   1
   5  -3   9    5.57    4.53  -1
  -5  -3  -6    5.57    4.53   2
   5  -3   9   11.43    5.70  -1
  -5  -3  -6   11.43    5.70   2
   5  -3  10    1.70    3.54   1
   5  -3  10    1.52    5.36  -1
  -5  -3  -7    1.52    5.36   2
   5  -3  11    0.81    3.68   1
   5  -3  11    4.32    2.35   1
   5  -3  12    9.55    2.45   1
   5  -3  12   13.08    2.83   1
   5  -3  13    2.91    3.81   1
   5  -3  13    8.59    3.92   1
   5  -3  14    3.66    3.48   1
   5  -3  14   -3.58    3.83   1
   5  -3  15    3.50    2.34   1
   5  -3  15    3.84    4.08   1
   5  -3  16   48.60    6.66  -1
  -5  -5 -12   48.60    6.66   2
   5  -3  16   36.31    9.45  -1
  -5  -5 -12   36.31    9.45   2
  -5   2  14    8.06    1.54   1
  -5   2  13    5.12    1.43   1
  -5   2  12   -0.12    1.62  -1
   5  -4 -11   -0.12    1.62   2
  -5   2  11    0.77    1.18   1
  -5   2  10    1.17    1.09   1
  -5   2   9   19.44    1.71   1
  -5   2   8   44.58    2.31   1
  -5   2   7   66.13    2.80   1
   5  -2  -6   22.54    1.04   1
   5  -2  -6   16.91    1.75   1
  -5   2   6   20.19    1.78   1
  -5   2   6   50.10    2.07  -1
   5  -2  -6   50.10    2.07   2
   5  -2  -5   25.60    1.76  -1
  -5   2   5   25.60    1.76   2
   5  -2  -5   24.72    2.93  -1
  -5   2   5   24.72    2.93   2
  -5   2   5   29.69    1.61  -1
   5  -2  -5   29.69    1.61   2
  -5   2   5   27.68    3.44  -1
   5  -2  -5   27.68    3.44   2
   5  -2  -4    1.37    1.34   1
   5  -2  -4   -1.19    1.50   1
  -5   2   4   -0.20    1.11   1
  -5   2   4    2.96    1.38   1
   5  -2  -3   40.54    2.10   1
   5  -2  -3   38.00    2.73   1
  -5   2   3   40.49    1.99   1
  -5   2   3   34.95    2.43   1
   5  -2  -2   -1.57    1.53   1
   5  -2  -2    1.03    1.90   1
  -5   2   2    2.25    1.23   1
  -5   2   2    2.71    1.01   1
   5  -2  -1   67.47    3.30   1
   5  -2  -1   63.84    3.89   1
  -5   2   1   61.44    2.31   1
  -5   2   1   58.31    3.64   1
   5  -2   0   86.85    4.42   1
   5  -2   0   83.37    4.30   1
  -5   2   0   86.43    3.88   1
  -5   2   0   81.89    4.36   1
   5  -2   1   85.76    3.61   1
  -5   2  -1   83.25    4.53   1
   5  -2   1  181.04   10.58  -1
  -5   0   0  181.04   10.58   2
  -5   2  -1  191.91   10.00  -1
   5   0   0  191.91   10.00   2
   5  -2   2  151.71    7.81  -1
  -5   0  -1  151.71    7.81   2
   5  -2   2  147.40    8.27  -1
  -5   0  -1  147.40    8.27   2
  -5   2  -2  133.09    5.44  -1
   5   0   1  133.09    5.44   2
  -5   2  -2  143.64    6.17  -1
   5   0   1  143.64    6.17   2
   5  -2   3   83.01    3.79   1
   5  -2   3   84.31    5.39   1
  -5   2  -3   78.15    4.75   1
  -5   2  -3  221.83   12.78  -1
   5   0   2  221.83   12.78   2
   5  -2   4    8.57    3.03   1
   5  -2   4    4.84    2.87   1
   5  -2   5  206.07   10.22   1
   5  -2   5  369.30   23.67  -1
  -5  -1  -3  369.30   23.67   2
   5  -2   6    5.48    1.94   1
   5  -2   6   -6.15    2.95   1
   5  -2   7   -0.51    1.94   1
   5  -2   7    5.49    3.00   1
   5  -2   8   14.94    2.48   1
   5  -2   8   84.02    8.27  -1
  -5  -2  -6   84.02    8.27   2
   5  -2   9   67.05    7.34  -1
  -5  -2  -7   67.05    7.34   2
   5  -2   9   66.92    7.90  -1
  -5  -2  -7   66.92    7.90   2
   5  -2  10   14.09    4.06   1
   5  -2  10   43.37    8.84  -1
  -5  -2  -8   43.37    8.84   2
   5  -2  11   18.98    4.18   1
   5  -2  11   17.41    2.94   1
   5  -2  12   14.67    2.68   1
   5  -2  12   12.65    2.77   1
   5  -2  13    1.84    3.50   1
   5  -2  13   -0.65    2.19   1
   5  -2  14   16.37    4.10   1
   5  -2  14    9.48    2.73   1
   5  -2  15   24.69    3.35   1
   5  -2  15   23.20    3.39   1
   5  -2  16    5.96    5.51  -1
  -5  -4 -13    5.96    5.51   2
   5  -2  16    3.59    3.69  -1
  -5  -4 -13    3.59    3.69   2
  -5   1  13   33.04    3.17  -1
   5  -5 -11   33.04    3.17   2
   5  -1 -12   32.29    0.93   1
   5  -1 -12   33.68    1.08   1
  -5   1  12   38.07    2.01   1
   5  -1 -11   29.86    0.84   1
   5  -1 -11   29.09    0.95   1
  -5   1  11   38.62    1.80   1
   5  -1 -10    1.52    0.43   1
  -5   1  10    2.02    0.96   1
   5  -1  -9    4.06    0.50   1
   5  -1  -9    5.09    0.60   1
  -5   1   9    5.33    0.97   1
   5  -1  -8   99.34    2.70   1
  -5   1   8  109.79    3.87   1
   5  -1  -7   31.14    1.31   1
   5  -1  -7   32.15    1.39   1
  -5   1   7   32.72    2.02   1
  -5   1   6   61.96    2.62   1
   5  -1  -6  150.07    6.02  -1
  -5   3   5  150.07    6.02   2
   5  -1  -6  146.04    6.78  -1
  -5   3   5  146.04    6.78   2
  -5   1   6  158.33    5.43  -1
   5  -3  -5  158.33    5.43   2
   5  -1  -5    2.09    1.22   1
   5  -1  -5   -0.66    1.00   1
  -5   1   5    0.20    1.03   1
  -5   1   5    1.45    1.49  -1
   5  -3  -4    1.45    1.49   2
   5  -1  -4   11.23    1.46   1
   5  -1  -4   11.72    1.57   1
  -5   1   4   13.87    1.60   1
  -5   1   4   11.66    1.41   1
   5  -1  -3    0.08    1.34   1
   5  -1  -3    2.61    2.03   1
  -5   1   3    1.91    1.22   1
  -5   1   3    1.05    1.25   1
   5  -1  -2   38.27    2.47   1
   5  -1  -2   35.34    2.74   1
  -5   1   2   36.54    2.17   1
  -5   1   2   36.69    2.34   1
   5  -1  -1   28.23    2.55   1
   5  -1  -1   26.67    2.40   1
  -5   1   1   32.93    2.40   1
  -5   1   1   30.35    2.35   1
   5  -1   0    8.69    1.37   1
   5  -1   0    7.58    2.04   1
  -5   1   0    7.62    1.94   1
  -5   1   0    5.65    1.86   1
   5  -1   1  143.91    6.87  -1
  -5   1  -1  143.91    6.87   2
   5  -1   1  140.24    7.90  -1
  -5   1  -1  140.24    7.90   2
  -5   1  -1  143.58    7.88  -1
   5  -1   1  143.58    7.88   2
  -5   1  -1  146.33    7.41  -1
   5  -1   1  146.33    7.41   2
  -5   1  -2   36.60    2.90   1
  -5   1  -2   18.91    2.81   1
   5  -1   2   51.63    4.49  -1
  -5   1  -2   51.63    4.49   2
   5  -1   2   58.03    5.55  -1
  -5   1  -2   58.03    5.55   2
   5  -1   3   38.15    3.62   1
   5  -1   3   33.04    3.48   1
  -5   1  -3   36.89    2.17   1
  -5   1  -3   28.72    2.83   1
   5  -1   4  122.78    5.07   1
   5  -1   5   71.71    5.15   1
   5  -1   5   55.59    3.35   1
   5  -1   6   29.57    2.62   1
   5  -1   6   17.25    3.76   1
   5  -1   7   -1.07    1.88   1
   5  -1   7    0.18    5.38  -1
  -5  -1  -6    0.18    5.38   2
   5  -1   8   -1.02    3.97  -1
  -5  -1  -7   -1.02    3.97   2
   5  -1   8    0.27    4.39  -1
  -5  -1  -7    0.27    4.39   2
   5  -1   9    2.32    3.50   1
   5  -1   9    2.29    5.52  -1
  -5  -1  -8    2.29    5.52   2
   5  -1  10    1.94    2.10   1
   5  -1  10    6.75    3.79   1
   5  -1  11   21.70    4.21   1
   5  -1  11   15.58    4.60   1
   5  -1  12   12.67    2.55   1
   5  -1  12   13.56    4.39   1
   5  -1  13    1.33    3.79   1
   5  -1  13   -7.74    3.69   1
   5  -1  14    7.34    2.57   1
   5  -1  14    0.69    4.21   1
   5  -1  15   66.52    7.75  -1
  -5  -3 -13   66.52    7.75   2
   5  -1  15   79.31   10.69  -1
  -5  -3 -13   79.31   10.69   2
   5  -1  16   -3.08    4.04   1
   5  -1  16   11.78    5.68  -1
  -5  -3 -14   11.78    5.68   2
   5   0 -13    3.41    1.49  -1
  -5   6  10    3.41    1.49   2
   5   0 -12   -0.01    0.96   1
   5   0 -12   -0.22    0.94   1
  -5   0  12    0.76    0.89   1
   5   0 -11    0.22    1.07   1
   5   0 -11    3.02    0.79   1
  -5   0  11    2.40    0.88   1
   5   0 -10   11.73    1.00   1
   5   0 -10   13.33    1.09   1
  -5   0  10   12.68    1.04   1
   5   0  -9   29.61    1.44   1
   5   0  -9   32.47    1.90   1
  -5   0   9   31.74    1.42   1
   5   0  -8   58.09    2.65   1
   5   0  -8   62.21    2.72   1
  -5   0   8   66.23    2.03   1
   5   0  -7   17.96    1.57   1
   5   0  -7   17.82    1.41   1
  -5   0   7   18.58    1.07   1
   5   0  -6   21.67    2.04  -1
  -5   4   4   21.67    2.04   2
   5   0  -6   18.77    1.35  -1
  -5   4   4   18.77    1.35   2
  -5   0   6   19.67    1.71  -1
   5  -4  -4   19.67    1.71   2
   5   0  -5   -1.07    1.26   1
   5   0  -5    0.70    0.93   1
  -5   0   5   -0.20    1.15   1
  -5   0   5   -0.93    0.96   1
   5   0  -4   13.24    1.84   1
   5   0  -4   18.98    1.76   1
  -5   0   4   11.61    1.51   1
  -5   0   4   15.02    1.17   1
   5   0  -3    3.07    1.68   1
   5   0  -3   -1.20    1.24   1
  -5   0   3    3.43    1.39   1
  -5   0   3    4.12    1.43   1
   5   0  -2   56.18    3.40   1
   5   0  -2   65.73    3.01   1
  -5   0   2   63.20    2.42   1
  -5   0   2   58.91    3.13   1
   5   0  -1   98.80    4.77   1
   5   0  -1   93.18    4.06   1
  -5   0   1   98.90    4.24   1
   5   0   0   66.73    3.11   1
   5   0   0   70.12    3.94   1
  -5   0   0  117.62    4.51   1
   5   0   1  149.97    7.59  -1
  -5   2  -2  149.97    7.59   2
   5   0   1  145.76    7.57  -1
  -5   2  -2  145.76    7.57   2
  -5   0  -1  141.87    6.96  -1
   5  -2   2  141.87    6.96   2
   5   0   2   94.42    5.25   1
  -5   0  -2   95.21    4.85   1
   5   0   2  238.09   14.71  -1
  -5   2  -3  238.09   14.71   2
   5   0   3   -1.41    2.83   1
   5   0   3    0.74    2.49   1
  -5   0  -3    2.92    1.40   1
   5   0   4  241.22    9.31   1
   5   0   4  259.47   12.19   1
   5   0   5    4.72    3.06   1
   5   0   5    3.82    2.91   1
   5   0   6   -3.83    3.18   1
   5   0   6   -0.39    1.87   1
   5   0   7   38.88    3.27   1
   5   0   7   39.84    4.85   1
   5   0   8   83.64    7.36  -1
  -5   0  -8   83.64    7.36   2
   5   0   8   84.68    8.51  -1
  -5   0  -8   84.68    8.51   2
   5   0   9   18.13    4.48   1
   5   0   9   58.05    8.19  -1
  -5   0  -9   58.05    8.19   2
   5   0  10   28.69    3.00   1
   5   0  10   36.08    5.09   1
   5   0  11   18.84    4.46   1
   5   0  11   14.05    4.61   1
   5   0  12   12.48    2.49   1
   5   0  12    4.06    4.13   1
   5   0  13    6.37    4.28   1
   5   0  13   38.79    8.70  -1
  -5  -2 -12   38.79    8.70   2
   5   0  14   34.05    5.46   1
   5   0  14   69.92    8.25  -1
  -5  -2 -13   69.92    8.25   2
   5   0  15    7.82    4.59  -1
  -5  -2 -14    7.82    4.59   2
   5   0  15   -3.35    5.06  -1
  -5  -2 -14   -3.35    5.06   2
   5   0  16   29.05    3.78   1
   5   0  16   78.26   11.10  -1
  -5  -2 -15   78.26   11.10   2
   5   1 -13   22.44    1.53   1
   5   1 -12   20.97    1.61   1
   5   1 -12   26.36    1.77   1
  -5  -1  12   20.98    0.93   1
   5   1 -11    3.56    1.49   1
   5   1 -11    1.39    1.10   1
   5   1 -10    1.02    1.09   1
   5   1 -10    2.02    1.16   1
   5   1  -9   87.14    3.49   1
   5   1  -9   88.34    3.46   1
   5   1  -8   14.50    1.46   1
   5   1  -8   19.27    1.75   1
   5   1  -7   99.31    6.23  -1
  -5   5   4   99.31    6.23   2
   5   1  -7  108.34    5.72  -1
  -5   5   4  108.34    5.72   2
   5   1  -6    3.13    1.52   1
   5   1  -6    4.04    1.38   1
   5   1  -5    2.56    1.66   1
   5   1  -5    1.10    0.65   1
  -5  -1   5    1.60    1.31   1
   5   1  -4    0.84    1.60   1
   5   1  -4    0.97    1.05   1
  -5  -1   4   -2.03    1.45   1
   5   1  -3   23.80    2.48   1
   5   1  -3   19.21    1.39   1
  -5  -1   3   20.62    1.39   1
   5   1  -2   32.48    3.02   1
   5   1  -2   23.66    1.86   1
  -5  -1   2   25.11    2.45   1
   5   1  -1    1.89    2.16   1
   5   1  -1   -0.57    1.39   1
  -5  -1   1   -1.07    1.75   1
   5   1   0  110.21    6.73  -1
  -5   3  -2  110.21    6.73   2
   5   1   0  129.63    7.33  -1
  -5   3  -2  129.63    7.33   2
  -5  -1   0  110.12    6.11  -1
   5  -3   2  110.12    6.11   2
   5   1   1   21.39    2.64   1
  -5  -1  -1   38.89    5.36  -1
   5  -3   3   38.89    5.36   2
   5   1   2   23.48    2.32   1
   5   1   2   25.37    3.08   1
   5   1   3  112.26    6.79   1
   5   1   3  112.97    6.05   1
   5   1   4   60.93    5.06   1
   5   1   4   62.25    4.87   1
   5   1   5   33.60    4.40   1
   5   1   5   26.99    2.64   1
   5   1   6   -0.49    1.93   1
   5   1   6    3.52    3.11   1
   5   1   7    2.74    2.69  -1
  -5   1  -8    2.74    2.69   2
   5   1   7    2.39    5.23  -1
  -5   1  -8    2.39    5.23   2
   5   1   8   -2.66    3.46   1
   5   1   8   15.69    5.33  -1
  -5   1  -9   15.69    5.33   2
   5   1   9   10.65    4.19   1
   5   1   9   15.85    7.26  -1
  -5   1 -10   15.85    7.26   2
   5   1  10   33.61    3.33   1
   5   1  10   39.19    5.21   1
   5   1  11   19.69    4.22   1
   5   1  11   16.54    4.57   1
   5   1  12    6.49    3.48   1
   5   1  12    1.41    2.40   1
   5   1  13    6.29    2.42   1
   5   1  13    6.32    2.65   1
   5   1  14  101.08    9.29  -1
  -5  -1 -14  101.08    9.29   2
   5   1  14  112.85   12.19  -1
  -5  -1 -14  112.85   12.19   2
   5   1  15   12.66    5.00  -1
  -5  -1 -15   12.66    5.00   2
   5   1  15    9.99    7.12  -1
  -5  -1 -15    9.99    7.12   2
   5   1  16   51.90    4.30   1
   5   2 -14    2.70    2.26  -1
  -5   8   9    2.70    2.26   2
   5   2 -13    0.98    1.26   1
   5   2 -12    2.25    1.41   1
   5   2 -12    3.80    1.44   1
   5   2 -11    4.48    1.49   1
   5   2 -11    6.60    1.59   1
   5   2 -10   13.82    1.80   1
   5   2 -10   19.81    1.99   1
   5   2  -9   37.76    2.64   1
   5   2  -9   38.36    2.35   1
   5   2  -8   13.21    1.81   1
   5   2  -8   12.36    2.56   1
   5   2  -7   12.59    3.01  -1
  -5   6   3   12.59    3.01   2
   5   2  -7   19.91    2.90  -1
  -5   6   3   19.91    2.90   2
   5   2  -6   -1.26    1.65   1
   5   2  -6   -0.67    1.65   1
   5   2  -5   -0.53    1.21   1
   5   2  -5    2.82    1.78   1
   5   2  -5    2.22    0.50   1
  -5  -2   5    3.16    1.11   1
   5   2  -4    2.17    1.22   1
   5   2  -4    2.98    0.96   1
  -5  -2   4    2.36    1.08   1
   5   2  -3   43.46    3.45   1
   5   2  -3   44.81    2.37   1
  -5  -2   3   41.12    3.18   1
   5   2  -2   67.72    4.24   1
   5   2  -2   73.88    3.05   1
  -5  -2   2   67.75    4.14   1
   5   2  -1   30.58    3.04   1
   5   2  -1   30.37    2.51   1
  -5  -2   1   25.46    1.87   1
   5   2   0  116.49    8.43  -1
  -5   4  -3  116.49    8.43   2
   5   2   0  114.41    6.71  -1
  -5   4  -3  114.41    6.71   2
   5   2   1   76.19    4.90   1
   5   2   1   76.88    4.60   1
   5   2   2    0.19    2.89   1
   5   2   3  188.69    9.63   1
   5   2   4    7.53    3.43   1
   5   2   5   -6.01    3.30   1
   5   2   6   48.71    3.55   1
   5   2   7   75.46    5.72  -1
  -5   2  -9   75.46    5.72   2
   5   2   8   24.16    4.36   1
   5   2   9   40.16    4.96   1
   5   2  10   22.77    4.48   1
   5   2  11   13.50    2.61   1
   5   2  12   15.57    4.39   1
   5   2  12   37.15    8.96  -1
  -5   0 -13   37.15    8.96   2
   5   2  13   24.91    4.89   1
   5   2  13   56.11    7.56  -1
  -5   0 -14   56.11    7.56   2
   5   2  14    0.86    2.89  -1
  -5   0 -15    0.86    2.89   2
   5   2  14    0.82    3.24  -1
  -5   0 -15    0.82    3.24   2
   5   2  15   18.82    4.91   1
   5   2  15   71.23    9.77  -1
  -5   0 -16   71.23    9.77   2
   5   3 -14    7.13    1.57   1
   5   3 -13   14.24    1.88   1
   5   3 -12    3.79    1.72   1
   5   3 -11    2.43    1.70   1
   5   3 -10   57.43    3.52   1
   5   3  -9    8.70    2.00   1
   5   3  -9    6.36    2.05   1
   5   3  -8   44.81    5.63  -1
  -5   7   3   44.81    5.63   2
   5   3  -8   56.92    5.04  -1
  -5   7   3   56.92    5.04   2
   5   3  -7    2.75    1.16   1
   5   3  -7    2.56    1.87   1
   5   3  -6    1.94    1.83   1
   5   3  -6    2.48    1.98   1
   5   3  -5   -1.08    2.10   1
   5   3  -5   -0.19    2.12   1
   5   3  -5   -0.01    0.40   1
   5   3  -5    0.13    0.51   1
   5   3  -4   13.67    2.40   1
   5   3  -4   12.32    1.13   1
   5   3  -3   22.02    2.91   1
   5   3  -2    3.11    2.54   1
   5   3  -1   70.33    5.97  -1
  -5   5  -3   70.33    5.97   2
   5   3   0   10.74    3.19   1
   5   3   1   11.33    3.15   1
   5   3   2   73.79    5.82   1
   5   3   3   42.28    4.80   1
   5   3   4   20.36    3.88   1
   5   3   5    5.56    3.39   1
   5   3   6   -1.44    4.70  -1
  -5   3  -9   -1.44    4.70   2
   5   3   7    2.05    5.37  -1
  -5   3 -10    2.05    5.37   2
   5   3   8    3.90    2.24   1
   5   3   9   29.34    3.20   1
   5   3  10   18.44    4.49   1
   5   3  11   14.38    4.25   1
   5   3  12   16.67    6.33  -1
  -5   1 -14   16.67    6.33   2
   5   3  13   74.66    7.89  -1
  -5   1 -15   74.66    7.89   2
   5   3  14   11.59    6.87  -1
  -5   1 -16   11.59    6.87   2
   5   4 -15   -1.64    2.14  -1
  -5  10   8   -1.64    2.14   2
   5   4 -14    2.07    1.58   1
   5   4 -13    0.48    1.62   1
   5   4 -12    1.57    1.97   1
   5   4 -11    4.75    2.21   1
   5   4 -10   20.38    1.82   1
   5   4  -9    3.07    2.22   1
   5   4  -8    9.05    3.30  -1
  -5   8   2    9.05    3.30   2
   5   4  -7   -0.85    2.20   1
   5   4  -6   -1.51    2.15   1
   5   4  -6    0.24    0.42   1
   5   4  -6    0.11    0.47   1
   5   4  -5    0.95    2.36   1
   5   4  -5    1.58    0.75   1
   5   4  -4   21.58    3.14   1
   5   4  -4   19.39    1.35   1
   5   4  -3   35.90    3.59   1
   5   4  -2    3.82    2.74   1
   5   4  -1   57.19    6.78  -1
  -5   6  -4   57.19    6.78   2
   5   4   0   45.80    4.49   1
   5   4   1    0.07    2.90   1
   5   4   2   92.17    6.51   1
   5   4   3    6.13    3.16   1
   5   4   4    1.57    3.49   1
   5   4   5   63.92    8.29  -1
  -5   4  -9   63.92    8.29   2
   5   4   6   40.94    5.06  -1
  -5   4 -10   40.94    5.06   2
   5   4   7    8.87    2.34   1
   5   4   8   43.04    5.13   1
   5   4   9    1.40    3.78   1
   5   4  10   20.47    4.70   1
   5   4  11    8.88    4.18   1
   5   4  12   56.67    8.30  -1
  -5   2 -15   56.67    8.30   2
   5   4  13   -0.07    5.32  -1
  -5   2 -16   -0.07    5.32   2
   5   5 -15    1.03    1.74   1
   5   5 -14    5.81    2.13   1
   5   5 -13    0.58    1.93   1
   5   5 -12   -2.39    2.13   1
   5   5 -11   21.54    3.05   1
   5   5 -10    6.61    1.61   1
   5   5  -9   23.92    5.57  -1
  -5   9   2   23.92    5.57   2
   5   5  -8    5.51    2.43   1
   5   5  -7    2.69    2.31   1
   5   5  -6    0.04    1.42   1
   5   5  -5    1.27    1.57   1
   5   5  -5    1.77    0.82   1
   5   5  -4    5.94    2.87   1
   5   5  -4    5.91    1.26   1
   5   5  -3    4.16    2.76   1
   5   5  -3    1.71    1.30   1
   5   5  -2   41.53    5.34  -1
  -5   7  -4   41.53    5.34   2
   5   5  -1   15.62    3.34   1
   5   5   0   11.81    3.37   1
   5   5   1   23.58    4.00   1
   5   5   2   17.36    3.76   1
   5   5   3   14.11    3.60   1
   5   5   4    4.14    2.03   1
   5   5   5    5.98    4.98  -1
  -5   5 -10    5.98    4.98   2
   5   5   6    1.78    2.20   1
   5   5   7    1.02    2.14   1
   5   5   8   27.89    4.76   1
   5   5   9    6.98    4.19   1
   5   5  10    7.49    4.00   1
   5   5  11    1.99    2.42   1
   5   5  12   37.36    4.55  -1
  -5   3 -16   37.36    4.55   2
   5   6 -14    0.29    1.20   1
   5   6 -13   -3.40    2.24   1
   5   6 -12    2.16    1.57   1
   5   6 -11    4.24    2.73   1
   5   6 -10    3.69    2.58   1
   5   6  -9    5.67    3.91  -1
  -5  10   1    5.67    3.91   2
   5   6  -8   -0.45    2.50   1
   5   6  -7    1.65    1.50   1
   5   6  -6   -0.09    2.62   1
   5   6  -5   15.77    3.44   1
   5   6  -4   11.33    3.36   1
   5   6  -3    0.84    2.88   1
   5   6  -3   -0.20    1.64   1
   5   6  -2   32.31    5.31  -1
  -5   8  -5   32.31    5.31   2
   5   6  -2   19.24    3.19  -1
  -5   8  -5   19.24    3.19   2
   5   6  -1   17.49    2.47   1
   5   6   0    2.40    2.01   1
   5   6   1   32.31    4.72   1
   5   6   2    5.54    3.48   1
   5   6   4   25.52    4.30   1
   5   6   5   27.32    7.66  -1
  -5   6 -11   27.32    7.66   2
   5   6   6    6.05    2.57   1
   5   6   7   24.71    3.12   1
   5   6   8    1.63    3.70   1
   5   6   9   15.58    4.58   1
   5   6  10   -0.05    3.46   1
   5   6  11   18.78    8.44  -1
  -5   4 -16   18.78    8.44   2
   5   7 -12    4.62    2.74   1
   5   7 -11    1.19    2.55   1
   5   7 -10    7.88    5.67  -1
  -5  11   1    7.88    5.67   2
   5   7  -9    2.18    1.84   1
   5   7  -8   -3.88    2.77   1
   5   7  -7   -0.32    1.65   1
   5   7  -6    2.08    2.89   1
   5   7  -5    4.30    2.86   1
   5   7  -4    7.87    3.30   1
   5   7  -3   19.79    5.30  -1
  -5   9  -5   19.79    5.30   2
   5   7  -2    5.45    1.99   1
   5   7  -1    8.08    3.52   1
   5   7   0    8.47    3.44   1
   5   7   1    0.99    3.16   1
   5   7   2    1.65    2.02   1
   5   7   3   -0.25    1.96   1
   5   7   4    5.37    4.65  -1
  -5   7 -11    5.37    4.65   2
   5   7   5   -1.70    3.52   1
   5   7   6    7.06    3.60   1
   5   7   7    9.90    4.60   1
   5   7   8   13.04    2.79   1
   5   7   9    2.86    2.48   1
   5   8  -9    0.11    1.73   1
   5   8  -8    5.38    2.85   1
   5   8  -7   -2.04    2.83   1
   5   8  -6    3.74    1.99   1
   5   8  -5    3.95    3.24   1
   5   8  -4    0.68    3.14   1
   5   8  -3    4.80    3.57  -1
  -5  10  -6    4.80    3.57   2
   5   8  -2    4.85    3.42   1
   5   8  -1    3.35    3.21   1
   5   8   0    5.17    3.42   1
   5   8   1   -2.86    1.94   1
   5   8   3   10.33    3.88   1
   5   8   4   11.35    7.23  -1
  -5   8 -12   11.35    7.23   2
   5   8   5    1.24    2.09   1
   5   9  -4    5.10    5.96  -1
  -5  11  -6    5.10    5.96   2
   5   9  -3    5.49    2.36   1
   5   9  -2    0.95    3.02   1
   5   9  -1   -3.70    3.09   1
   5   9   0    1.00    2.14   1
   6 -11  -4    4.60    1.66   1
   6 -11  -4    9.49    2.79   1
   6 -11  -3   -1.77    2.20   1
   6 -11  -3    1.28    3.29   1
   6 -11  -2    3.66    2.36   1
   6 -11  -2    7.57    3.67   1
   6 -11  -1    0.34    2.37   1
   6 -11  -1   -7.98    3.64   1
   6 -11   0   -0.80    2.48   1
   6 -11   0   -0.73    3.40   1
   6 -11   1    1.88    3.50  -1
  -6  -7   8    1.88    3.50   2
   6 -11   1   -1.84    3.15  -1
  -6  -7   8   -1.84    3.15   2
   6 -11   2    0.42    1.88   1
   6 -11   2    3.49    2.19   1
   6 -11   3   -0.31    3.23   1
   6 -11   3    8.23    3.47   1
   6 -11   4    5.35    3.53   1
   6 -10  -5    3.60    1.38   1
   6 -10  -5    3.81    2.44   1
   6 -10  -4   10.51    2.39   1
   6 -10  -4   10.61    3.66   1
   6 -10  -3   -1.38    1.88   1
   6 -10  -3   -2.55    3.37   1
   6 -10  -2    3.74    2.31   1
   6 -10  -2    7.89    3.47   1
   6 -10  -1   -4.02    2.33   1
   6 -10  -1   -1.60    3.50   1
   6 -10   0    5.04    3.61   1
   6 -10   0   -0.69    4.72  -1
  -6  -6   8   -0.69    4.72   2
   6 -10   1    3.79    2.74   1
   6 -10   1    4.15    3.53   1
   6 -10   2    7.72    3.44   1
   6 -10   2    8.70    2.30   1
   6 -10   3    1.86    2.96   1
   6 -10   3    0.46    2.14   1
   6 -10   4    2.19    1.99   1
   6 -10   4    8.04    6.11  -1
  -6  -7   5    8.04    6.11   2
   6 -10   5    9.82    3.71   1
   6 -10   5    2.85    4.03   1
   6 -10   6   -0.92    2.14   1
   6 -10   6    1.83    2.27   1
   6 -10   7   -6.52    3.72   1
   6 -10   7    9.20    5.88  -1
  -6  -8   2    9.20    5.88   2
   6  -9  -6   -0.67    1.12   1
   6  -9  -6    0.85    2.43   1
   6  -9  -5   14.00    2.28   1
   6  -9  -5   26.27    4.74   1
   6  -9  -4    0.61    1.66   1
   6  -9  -4   -5.57    3.18   1
   6  -9  -3    5.29    2.19   1
   6  -9  -3    8.47    3.49   1
   6  -9  -2    1.03    2.07   1
   6  -9  -2    1.89    3.22   1
   6  -9  -1   -2.55    2.26   1
   6  -9  -1    3.88    3.34   1
   6  -9   0    5.91    3.88  -1
  -6  -5   7    5.91    3.88   2
   6  -9   0   14.27    5.24  -1
  -6  -5   7   14.27    5.24   2
   6  -9   1    1.15    2.65   1
   6  -9   1    6.68    3.24   1
   6  -9   2    8.88    3.20   1
   6  -9   2   14.56    3.74   1
   6  -9   3    0.30    2.07   1
   6  -9   3    8.38    3.61   1
   6  -9   4    4.81    3.21   1
   6  -9   4    3.41    2.50   1
   6  -9   5    3.39    3.19   1
   6  -9   5   -6.19    3.69   1
   6  -9   6   -0.67    3.27   1
   6  -9   6    4.79    3.47   1
   6  -9   7    6.60    3.67  -1
  -6  -7   1    6.60    3.67   2
   6  -9   7   11.87    3.87  -1
  -6  -7   1   11.87    3.87   2
   6  -9   8    9.12    3.78   1
   6  -9   8    1.19    3.80   1
   6  -9   9    6.13    3.55   1
   6  -9   9    3.68    3.75   1
   6  -9  10   -0.02    2.29   1
   6  -9  10   -2.09    4.47  -1
  -6  -8  -1   -2.09    4.47   2
   6  -8  -6    3.76    1.58   1
   6  -8  -6   -1.91    2.14   1
   6  -8  -5   21.10    2.13   1
   6  -8  -5   28.72    2.79   1
   6  -8  -4   -0.01    1.53   1
   6  -8  -4   -0.01    2.96   1
   6  -8  -3    8.37    2.01   1
   6  -8  -3    7.12    3.40   1
   6  -8  -2   -0.79    2.02   1
   6  -8  -2    2.96    3.13   1
   6  -8  -1    9.36    4.51  -1
  -6  -4   7    9.36    4.51   2
   6  -8  -1   12.17    6.50  -1
  -6  -4   7   12.17    6.50   2
   6  -8   0    4.97    2.55   1
   6  -8   0    6.87    3.52   1
   6  -8   1   12.67    2.95   1
   6  -8   1   19.86    3.93   1
   6  -8   2   10.37    2.91   1
   6  -8   2   -0.88    3.84   1
   6  -8   3    2.01    1.78   1
   6  -8   3   29.58    8.26  -1
  -6  -5   3   29.58    8.26   2
   6  -8   4   13.92    3.59   1
   6  -8   4    6.74    3.93   1
   6  -8   5    8.16    3.32   1
   6  -8   5    4.58    3.48   1
   6  -8   6    2.43    5.26  -1
  -6  -6   1    2.43    5.26   2
   6  -8   6   -2.98    3.90  -1
  -6  -6   1   -2.98    3.90   2
   6  -8   7   14.75    2.41   1
   6  -8   7    9.49    4.13   1
   6  -8   8   -2.21    3.59   1
   6  -8   8   -1.67    3.40   1
   6  -8   9    1.68    3.74   1
   6  -8   9   -2.09    2.23   1
   6  -8  10   -4.22    3.48   1
   6  -8  10    3.72    3.64   1
   6  -8  11    2.73    3.82   1
   6  -8  11   -4.74    2.29   1
   6  -7  -7   -0.73    2.08   1
  -6   7   7    4.68    1.17   1
   6  -7  -6   35.42    2.03   1
   6  -7  -6   37.50    4.11   1
  -6   7   6   23.49    1.91   1
   6  -7  -5   -0.80    1.30   1
   6  -7  -5   -0.29    1.76   1
  -6   7   5    0.27    1.25   1
   6  -7  -4   17.86    1.97   1
   6  -7  -4   25.47    3.53   1
  -6   7   4   14.11    1.86   1
   6  -7  -3    1.45    1.73   1
  -6   7   3    2.43    1.56   1
   6  -7  -2    5.29    2.10   1
   6  -7  -2    1.89    2.79   1
  -6   7   2    2.87    1.77   1
   6  -7  -1    6.50    2.01  -1
  -6  -3   6    6.50    2.01   2
   6  -7  -1    8.54    2.74  -1
  -6  -3   6    8.54    2.74   2
   6  -7   0    4.79    1.43   1
   6  -7   0    0.34    1.93   1
   6  -7   1   13.99    2.00   1
   6  -7   1   12.92    3.69   1
   6  -7   2   11.94    3.16   1
   6  -7   2    9.31    3.82   1
   6  -7   3   14.89    3.51   1
   6  -7   3   10.76    3.74   1
   6  -7   4    2.39    2.04   1
   6  -7   4    7.40    2.17   1
   6  -7   5    5.03    3.00   1
   6  -7   5    3.95    2.17   1
   6  -7   6    6.93    5.11  -1
  -6  -5   0    6.93    5.11   2
   6  -7   6    5.74    5.46  -1
  -6  -5   0    5.74    5.46   2
   6  -7   7    8.98    2.32   1
   6  -7   7    9.46    3.90   1
   6  -7   8    5.75    2.09   1
   6  -7   8   -2.66    2.16   1
   6  -7   9   -1.12    3.39   1
   6  -7   9    4.66    3.68   1
   6  -7  10    8.42    3.34   1
   6  -7  10   -4.02    2.25   1
   6  -7  11    4.10    3.58   1
   6  -7  11    1.52    3.70   1
   6  -7  12   14.63    4.17   1
   6  -7  12    2.19    2.45   1
  -6   6   8    1.07    0.85   1
   6  -6  -7    2.15    0.90   1
   6  -6  -7   -2.02    1.81   1
  -6   6   7    0.53    0.82   1
   6  -6  -6   51.11    2.29   1
   6  -6  -6   55.26    3.28   1
  -6   6   6   43.74    2.58   1
   6  -6  -5    2.14    1.25   1
   6  -6  -5   -1.64    2.54   1
  -6   6   5   -0.04    1.08   1
   6  -6  -4   13.56    2.30   1
   6  -6  -4   12.86    3.29   1
  -6   6   4   10.95    1.64   1
   6  -6  -3    6.85    1.68   1
   6  -6  -3    2.45    2.72   1
  -6   6   3    3.53    1.53   1
   6  -6  -2   39.53    4.68  -1
  -6  -2   6   39.53    4.68   2
   6  -6  -2   42.21    4.90  -1
  -6  -2   6   42.21    4.90   2
  -6   6   2   28.37    4.20  -1
   6   2  -6   28.37    4.20   2
   6  -6  -1   12.53    2.51   1
   6  -6  -1   19.72    3.50   1
  -6   6   1   12.38    2.23   1
   6  -6   0   26.80    2.95   1
   6  -6   0   29.56    4.04   1
   6  -6   1    5.87    2.71   1
   6  -6   1    9.78    3.28   1
   6  -6   2    3.44    2.56   1
   6  -6   2   46.83    6.23  -1
  -6  -3   2   46.83    6.23   2
   6  -6   3   17.01    3.15   1
   6  -6   3   15.40    2.32   1
   6  -6   4    8.12    3.34   1
   6  -6   4   10.77    2.39   1
   6  -6   5    4.09    4.72  -1
  -6  -4   0    4.09    4.72   2
   6  -6   5    0.95    6.35  -1
  -6  -4   0    0.95    6.35   2
   6  -6   6   19.40    2.54   1
   6  -6   6   10.77    4.31   1
   6  -6   7   -1.72    2.00   1
   6  -6   7   -3.35    3.28   1
   6  -6   8    3.18    3.43   1
   6  -6   8   -0.47    3.41   1
   6  -6   9   11.18    3.87   1
   6  -6   9   10.35    3.85   1
   6  -6  10   11.80    3.88   1
   6  -6  10    3.30    4.11   1
   6  -6  11   18.46    4.38   1
   6  -6  11   11.28    4.47   1
   6  -6  12   33.04    6.64  -1
  -6  -6  -6   33.04    6.64   2
   6  -6  12   19.32    8.33  -1
  -6  -6  -6   19.32    8.33   2
   6  -6  13    5.76    2.43   1
   6  -6  13   -2.61    2.26   1
  -6   5   8    1.98    0.27   1
   6  -5  -7   52.57    1.99   1
   6  -5  -7   70.90    3.61   1
  -6   5   7   48.10    1.88   1
   6  -5  -6   -0.94    0.74   1
   6  -5  -6   -1.25    2.08   1
  -6   5   6    0.24    0.75   1
   6  -5  -5   24.14    2.15   1
   6  -5  -5   31.87    3.29   1
  -6   5   5   29.14    2.01   1
   6  -5  -4    2.93    1.26   1
   6  -5  -4    0.96    2.46   1
  -6   5   4    1.72    1.13   1
   6  -5  -3    8.25    1.67   1
   6  -5  -3    1.11    2.72   1
  -6   5   3    5.77    1.94   1
   6  -5  -2   13.34    2.58  -1
  -6  -1   5   13.34    2.58   2
   6  -5  -2    9.42    4.07  -1
  -6  -1   5    9.42    4.07   2
  -6   5   2   11.03    2.45  -1
   6   1  -5   11.03    2.45   2
   6  -5  -1    9.72    2.12   1
   6  -5  -1    3.00    1.73   1
  -6   5   1    1.61    1.74   1
   6  -5   0   28.65    1.93   1
   6  -5   0   23.39    3.73   1
  -6   5   0   21.92    2.70   1
   6  -5   1   37.30    3.64   1
   6  -5   1   49.14    8.06  -1
  -6  -2   3   49.14    8.06   2
   6  -5   2   28.96    3.50   1
   6  -5   3   14.97    3.26   1
   6  -5   3   12.13    3.49   1
   6  -5   4   10.33    2.80   1
   6  -5   4   -0.88    3.32   1
   6  -5   5    7.89    2.98  -1
  -6  -3  -1    7.89    2.98   2
   6  -5   5   12.55    4.77  -1
  -6  -3  -1   12.55    4.77   2
   6  -5   6   16.84    3.66   1
   6  -5   6   13.22    3.73   1
   6  -5   7    3.32    3.41   1
   6  -5   7    1.73    2.17   1
   6  -5   8   -1.57    3.21   1
   6  -5   8   -0.96    3.31   1
   6  -5   9   19.29    3.98   1
   6  -5   9    3.41    2.49   1
   6  -5  10   16.19    4.32   1
   6  -5  10   11.98    4.27   1
   6  -5  11    4.47    2.60   1
   6  -5  11   29.31    6.89  -1
  -6  -5  -6   29.31    6.89   2
   6  -5  12   60.54    6.30  -1
  -6  -5  -7   60.54    6.30   2
   6  -5  12   62.34    9.63  -1
  -6  -5  -7   62.34    9.63   2
   6  -5  13   -1.61    2.47   1
   6  -5  13   -4.49    3.69   1
   6  -5  14   22.51    4.79   1
   6  -5  14   15.16    4.32   1
  -6   4   8    0.64    1.64   1
   6  -4  -7   62.93    1.68   1
   6  -4  -7   79.50    4.63   1
  -6   4   7   57.88    1.57   1
  -6   4   7   72.63    3.96   1
   6  -4  -6    0.87    0.83   1
   6  -4  -6   -0.69    2.06   1
  -6   4   6    0.49    0.58   1
  -6   4   6    0.33    1.05   1
   6  -4  -5   20.88    1.71   1
   6  -4  -5   15.54    2.76   1
  -6   4   5   17.83    1.64   1
  -6   4   5   15.97    2.38   1
   6  -4  -4   12.87    1.42   1
   6  -4  -4   13.32    2.58   1
  -6   4   4   11.00    1.35   1
  -6   4   4   13.33    2.23   1
  -6   4   3   25.43    2.90   1
   6  -4  -3   80.93    4.82  -1
  -6   0   5   80.93    4.82   2
   6  -4  -3   91.67    6.90  -1
  -6   0   5   91.67    6.90   2
  -6   4   3   75.32    4.62  -1
   6   0  -5   75.32    4.62   2
   6  -4  -2   26.21    2.17   1
   6  -4  -2   69.25    5.34  -1
  -6   0   4   69.25    5.34   2
  -6   4   2   58.03    5.16  -1
   6   0  -4   58.03    5.16   2
   6  -4  -1   41.04    2.98   1
   6  -4  -1   42.86    3.86   1
  -6   4   1   40.34    2.74   1
   6  -4   0   15.65    2.48   1
   6  -4   0   14.57    2.02   1
  -6   4   0   14.63    2.15   1
   6  -4   1   29.05    2.25   1
  -6   4  -1   27.82    2.98   1
   6  -4   2   19.27    3.23   1
   6  -4   2   18.55    3.57   1
   6  -4   3   21.65    3.30   1
   6  -4   3   15.04    2.27   1
   6  -4   4    9.90    4.38  -1
  -6  -2  -1    9.90    4.38   2
   6  -4   4    0.52    5.76  -1
  -6  -2  -1    0.52    5.76   2
   6  -4   5   25.24    3.93   1
   6  -4   5   32.79    5.84  -1
  -6  -2  -2   32.79    5.84   2
   6  -4   6    5.40    3.01   1
   6  -4   6   -1.29    3.08   1
   6  -4   7    1.09    3.23   1
   6  -4   7    6.83    2.28   1
   6  -4   8   23.85    4.28   1
   6  -4   8   60.99    8.17  -1
  -6  -3  -5   60.99    8.17   2
   6  -4   9   14.90    4.55   1
   6  -4   9   23.21    2.93   1
   6  -4  10   34.30    4.99   1
   6  -4  10   29.97    4.95   1
   6  -4  11   46.37    5.23  -1
  -6  -4  -7   46.37    5.23   2
   6  -4  11   52.28    9.54  -1
  -6  -4  -7   52.28    9.54   2
   6  -4  12    7.17    2.33   1
   6  -4  12   15.99    6.87  -1
  -6  -4  -8   15.99    6.87   2
   6  -4  13   27.56    5.11   1
   6  -4  13   22.69    5.01   1
   6  -4  14    1.84    3.74   1
   6  -4  14   -2.14    3.61   1
  -6   3  12    2.60    1.41   1
  -6   3  11   45.45    2.95   1
  -6   3  10    4.65    1.78  -1
   6  -3 -10    4.65    1.78   2
  -6   3   9    4.87    1.48   1
  -6   3   8   59.01    3.33   1
   6  -3  -7   -0.15    0.38   1
   6  -3  -7   -2.77    1.80   1
  -6   3   7    0.37    0.45   1
  -6   3   7    1.37    1.43   1
   6  -3  -6   38.73    1.71   1
   6  -3  -6   32.99    2.66   1
  -6   3   6   39.14    1.58   1
  -6   3   6   36.00    2.76   1
   6  -3  -5    5.39    1.05   1
   6  -3  -5    7.00    2.07   1
  -6   3   5    5.48    1.11   1
  -6   3   5    5.25    1.64   1
   6  -3  -4    8.93    2.41   1
  -6   3   4   11.66    1.27   1
  -6   3   4    8.00    1.98   1
   6  -3  -4   28.29    3.52  -1
  -6   1   5   28.29    3.52   2
   6  -3  -3   12.28    2.57  -1
  -6   1   4   12.28    2.57   2
   6  -3  -3    5.52    2.98  -1
  -6   1   4    5.52    2.98   2
  -6   3   3    9.65    1.68  -1
   6  -1  -4    9.65    1.68   2
  -6   3   3    7.97    2.83  -1
   6  -1  -4    7.97    2.83   2
   6  -3  -2    1.25    2.32   1
  -6   3   2    4.21    1.47   1
  -6   3   2    1.40    1.94   1
   6  -3  -2    7.59    3.17  -1
  -6   1   3    7.59    3.17   2
   6  -3  -1   38.39    2.85   1
   6  -3  -1   41.23    3.58   1
  -6   3   1   35.62    2.60   1
  -6   3   1   38.64    3.21   1
   6  -3   0   74.21    4.16   1
   6  -3   0   60.12    4.84   1
  -6   3   0   66.28    3.76   1
  -6   3   0   79.93    7.52  -1
   6   0  -2   79.93    7.52   2
   6  -3   1   52.56    3.97   1
  -6   3  -1   47.14    3.38   1
   6  -3   1   78.04    7.63  -1
  -6   0   0   78.04    7.63   2
   6  -3   2   22.22    3.09   1
   6  -3   2   11.55    2.07   1
   6  -3   3    6.78    1.81   1
   6  -3   3    6.32    4.72  -1
  -6  -1  -1    6.32    4.72   2
   6  -3   4    3.08    3.82  -1
  -6  -1  -2    3.08    3.82   2
   6  -3   4    6.61    2.61  -1
  -6  -1  -2    6.61    2.61   2
   6  -3   5   19.80    3.75   1
   6  -3   5   13.42    3.57   1
   6  -3   6   10.05    2.11   1
   6  -3   6   10.56    3.40   1
   6  -3   7    4.65    2.09   1
   6  -3   7   16.62    5.95  -1
  -6  -2  -4   16.62    5.95   2
   6  -3   8   23.66    4.43   1
   6  -3   8   20.59    7.54  -1
  -6  -2  -6   20.59    7.54   2
   6  -3   9   22.47    4.63   1
   6  -3   9   22.27    3.05   1
   6  -3  10    6.78    3.83   1
   6  -3  10   26.95    8.21  -1
  -6  -3  -7   26.95    8.21   2
   6  -3  11  144.58    8.80  -1
  -6  -3  -8  144.58    8.80   2
   6  -3  11  109.96   12.21  -1
  -6  -3  -8  109.96   12.21   2
   6  -3  12    1.77    3.78   1
   6  -3  12    4.44    4.01   1
   6  -3  13   45.43    5.71   1
   6  -3  13   41.99    4.15   1
   6  -3  14   -0.38    2.27   1
   6  -3  14    4.36    2.50   1
   6  -3  15   -2.49    3.57   1
   6  -3  15    3.69    2.51   1
  -6   2  11   17.98    1.72   1
  -6   2  10    1.38    1.14   1
  -6   2   9   -0.56    1.45   1
   6  -2  -8   57.25    1.46   1
   6  -2  -8   60.06    1.43   1
  -6   2   8   67.09    2.85   1
   6  -2  -7    0.15    0.76   1
   6  -2  -7    1.30    1.45   1
  -6   2   7    1.17    0.71   1
  -6   2   7    0.69    1.17   1
   6  -2  -6   21.31    1.55   1
   6  -2  -6   19.94    1.84   1
  -6   2   6   21.52    1.41   1
  -6   2   6   16.36    1.86   1
   6  -2  -5   29.10    2.04   1
   6  -2  -5   27.64    2.24   1
  -6   2   5   32.23    1.87   1
  -6   2   5   25.70    2.21   1
  -6   2   4   40.47    2.76   1
   6  -2  -4  111.20    5.08  -1
  -6   2   4  111.20    5.08   2
   6  -2  -4  111.87    7.94  -1
  -6   2   4  111.87    7.94   2
  -6   2   3   72.94    3.29  -1
   6  -2  -3   72.94    3.29   2
   6  -2  -2   65.80    3.24   1
   6  -2  -2   52.92    3.80   1
  -6   2   2   61.28    3.08   1
  -6   2   2   47.40    3.20   1
   6  -2  -1   15.08    2.29   1
   6  -2  -1   11.91    2.69   1
  -6   2   1   17.40    2.08   1
  -6   2   1   16.62    2.21   1
   6  -2   0   88.48    4.64   1
  -6   2   0   76.49    4.08   1
   6  -2   0  187.75   11.44  -1
  -6   1   0  187.75   11.44   2
  -6   2   0  161.36   10.13  -1
   6  -1   0  161.36   10.13   2
   6  -2   1   20.88    1.98   1
   6  -2   1   21.45    1.94   1
  -6   2  -1   26.09    2.53   1
  -6   2  -1   20.25    2.83   1
   6  -2   2   26.39    3.24   1
   6  -2   2   25.90    3.40   1
   6  -2   3    5.08    3.64  -1
  -6   0  -2    5.08    3.64   2
   6  -2   3    4.08    4.83  -1
  -6   0  -2    4.08    4.83   2
   6  -2   4    7.35    3.23   1
   6  -2   4   16.97    4.74  -1
  -6   0  -3   16.97    4.74   2
   6  -2   5    0.75    1.75   1
   6  -2   5   -0.29    1.61   1
   6  -2   6   13.84    3.44   1
   6  -2   6   26.97    7.74  -1
  -6  -1  -4   26.97    7.74   2
   6  -2   7   50.71    5.03   1
   6  -2   7   40.27    3.44   1
   6  -2   8   28.22    2.98   1
   6  -2   8   27.09    4.76   1
   6  -2   9   44.48    5.51   1
   6  -2   9  122.05   13.58  -1
  -6  -2  -7  122.05   13.58   2
   6  -2  10   71.46    7.98  -1
  -6  -2  -8   71.46    7.98   2
   6  -2  10   76.07    6.81  -1
  -6  -2  -8   76.07    6.81   2
   6  -2  11   10.40    4.04   1
   6  -2  11    5.83    5.97  -1
  -6  -2  -9    5.83    5.97   2
   6  -2  12   41.02    5.81   1
   6  -2  12  126.21   15.16  -1
  -6  -2 -10  126.21   15.16   2
   6  -2  13    4.85    2.49   1
   6  -2  13    6.72    4.22   1
   6  -2  14    2.89    3.75   1
   6  -2  14    1.18    3.84   1
   6  -2  15    0.34    3.66   1
   6  -2  15    0.66    3.89   1
   6  -1 -11    3.28    0.49  -1
  -6   5   9    3.28    0.49   2
  -6   1  11    5.95    1.50  -1
   6  -5  -9    5.95    1.50   2
   6  -1 -10    1.94    0.48   1
   6  -1 -10    1.57    0.60   1
  -6   1  10    1.13    1.16   1
   6  -1  -9   42.59    1.53   1
   6  -1  -9   51.43    1.84   1
  -6   1   9   48.53    2.09   1
   6  -1  -8    2.68    0.89   1
   6  -1  -8   -0.14    0.70   1
  -6   1   8    0.32    0.84   1
   6  -1  -7   30.36    1.90   1
   6  -1  -7   27.31    1.76   1
  -6   1   7   30.38    2.02   1
   6  -1  -6    6.40    1.21   1
   6  -1  -6    8.03    1.67   1
  -6   1   6    8.02    1.52   1
  -6   1   6    9.70    1.61   1
   6  -1  -5   11.27    1.44   1
   6  -1  -5   10.27    1.57   1
  -6   1   5   10.41    1.31   1
  -6   1   5   11.21    1.34   1
   6  -1  -4   10.62    2.06  -1
  -6   3   3   10.62    2.06   2
   6  -1  -4    8.76    2.79  -1
  -6   3   3    8.76    2.79   2
  -6   1   4   11.87    2.17  -1
   6  -3  -3   11.87    2.17   2
  -6   1   4    5.08    1.79  -1
   6  -3  -3    5.08    1.79   2
   6  -1  -3    3.02    1.61   1
   6  -1  -3    3.54    2.30   1
  -6   1   3    1.67    1.38   1
  -6   1   3    4.11    1.39   1
   6  -1  -2   31.90    2.67   1
   6  -1  -2   38.21    2.92   1
  -6   1   2   33.15    2.46   1
  -6   1   2   33.21    2.46   1
   6  -1  -1   99.79    4.73   1
   6  -1  -1   84.11    4.50   1
  -6   1   1   86.61    4.00   1
  -6   1   1   80.78    4.06   1
   6  -1   0   58.77    2.77   1
   6  -1   0   57.16    3.81   1
  -6   1   0   60.85    3.42   1
  -6   1   0   55.93    3.49   1
   6  -1   1   28.23    3.33   1
   6  -1   1   28.56    3.00   1
  -6   1  -1   23.00    2.89   1
  -6   1  -1   20.19    2.58   1
   6  -1   2    4.27    1.68   1
   6  -1   2    4.71    1.44   1
   6  -1   3    9.72    3.52  -1
  -6   1  -3    9.72    3.52   2
   6  -1   3    4.93    3.45  -1
  -6   1  -3    4.93    3.45   2
   6  -1   4   18.14    2.29   1
   6  -1   4   13.44    3.23   1
   6  -1   5   11.84    3.19   1
   6  -1   5    8.50    3.28   1
   6  -1   6    6.96    2.20   1
   6  -1   6    8.44    3.42   1
   6  -1   7   37.21    4.77   1
   6  -1   7   29.74    3.05   1
   6  -1   8   26.80    3.17   1
   6  -1   8   29.81    4.64   1
   6  -1   9   10.06    4.07   1
   6  -1   9   36.14    6.48  -1
  -6  -1  -8   36.14    6.48   2
   6  -1  10  210.57   14.57  -1
  -6  -1  -9  210.57   14.57   2
   6  -1  10  207.24   11.15  -1
  -6  -1  -9  207.24   11.15   2
   6  -1  11   -4.11    2.36   1
   6  -1  11    4.37    6.51  -1
  -6  -1 -10    4.37    6.51   2
   6  -1  12   78.59    5.40   1
   6  -1  12  208.33   18.65  -1
  -6  -1 -11  208.33   18.65   2
   6  -1  13   -0.01    3.63   1
   6  -1  13    0.10    2.25   1
   6  -1  14    5.81    3.78   1
   6  -1  14    3.25    2.46   1
   6  -1  15    8.51    2.67   1
   6   0 -11    2.52    1.18   1
   6   0 -10    2.07    1.03   1
   6   0 -10    0.15    1.19   1
  -6   0  10    0.57    0.47   1
   6   0  -9   36.14    2.28   1
   6   0  -9   38.04    2.27   1
  -6   0   9   30.71    1.18   1
   6   0  -8    0.86    0.96   1
   6   0  -8    1.24    1.38   1
  -6   0   8    0.23    0.60   1
   6   0  -7   19.16    1.67   1
   6   0  -7   16.72    2.16   1
  -6   0   7    9.14    0.97   1
   6   0  -6   35.40    2.74   1
   6   0  -6   29.05    1.70   1
  -6   0   6   39.09    2.58   1
  -6   0   6   30.35    1.56   1
   6   0  -5   37.78    2.07   1
  -6   0   5   35.42    2.04   1
   6   0  -5   89.15    6.00  -1
  -6   4   3   89.15    6.00   2
  -6   0   5   86.74    5.08  -1
   6  -4  -3   86.74    5.08   2
   6   0  -4   25.73    1.94   1
  -6   0   4   21.08    1.90   1
   6   0  -4   67.31    4.95  -1
  -6   4   2   67.31    4.95   2
  -6   0   4   57.92    4.62  -1
   6  -4  -2   57.92    4.62   2
   6   0  -3   49.22    3.20   1
   6   0  -3   54.73    3.49   1
  -6   0   3   46.56    2.85   1
   6   0  -2    6.71    2.13   1
   6   0  -2    5.33    1.76   1
  -6   0   2    2.94    1.70   1
   6   0  -1  108.63    5.40   1
   6   0  -1  110.77    5.02   1
  -6   0   1   99.18    4.78   1
   6   0   0   22.92    2.92   1
   6   0   0   16.89    2.35   1
  -6   0   0   15.08    2.53   1
   6   0   1   19.88    2.75   1
   6   0   2    8.90    3.67  -1
  -6   2  -3    8.90    3.67   2
   6   0   2    5.83    4.35  -1
  -6   2  -3    5.83    4.35   2
   6   0   3   20.17    5.12  -1
  -6   2  -4   20.17    5.12   2
   6   0   3   29.64    6.02  -1
  -6   2  -4   29.64    6.02   2
   6   0   4    2.21    1.72   1
   6   0   5   10.53    2.17   1
   6   0   5    4.78    3.31   1
   6   0   6   66.10    5.86   1
   6   0   6   56.55    5.65   1
   6   0   7   20.34    2.97   1
   6   0   7   23.68    2.85   1
   6   0   8   38.93    5.17   1
   6   0   8  117.71   11.20  -1
  -6   0  -8  117.71   11.20   2
   6   0   9   93.42    8.67  -1
  -6   0  -9   93.42    8.67   2
   6   0   9  115.99   12.28  -1
  -6   0  -9  115.99   12.28   2
   6   0  10    4.01    4.91  -1
  -6   0 -10    4.01    4.91   2
   6   0  10   10.36    7.66  -1
  -6   0 -10   10.36    7.66   2
   6   0  11   74.90    7.26   1
   6   0  11  176.59   14.78  -1
  -6   0 -11  176.59   14.78   2
   6   0  12    0.61    2.38   1
   6   0  12    7.61    4.08   1
   6   0  13    7.82    3.94   1
   6   0  13    2.54    4.30   1
   6   0  14    1.27    2.26   1
   6   0  14   -0.12    3.93   1
   6   1 -12    2.66    1.50  -1
  -6   7   8    2.66    1.50   2
   6   1 -11    0.96    1.19   1
   6   1 -10   23.47    1.89   1
   6   1 -10   22.62    1.90   1
   6   1  -9    0.86    1.20   1
   6   1  -9    1.13    1.33   1
   6   1  -8   14.16    1.65   1
   6   1  -8   13.92    1.82   1
   6   1  -7    8.95    2.20   1
   6   1  -7   14.18    1.85   1
   6   1  -6    3.16    1.64   1
   6   1  -6    2.24    0.55   1
  -6  -1   6    4.26    1.47   1
   6   1  -5   10.44    2.43  -1
  -6   5   2   10.44    2.43   2
   6   1  -5    8.37    1.55  -1
  -6   5   2    8.37    1.55   2
  -6  -1   5   10.77    2.38  -1
   6  -5  -2   10.77    2.38   2
   6   1  -4    0.68    2.05   1
   6   1  -4    2.21    1.44   1
  -6  -1   4    3.61    1.74   1
   6   1  -3   25.84    2.70   1
   6   1  -3   21.21    1.78   1
  -6  -1   3   20.49    2.19   1
   6   1  -2   76.60    4.41   1
   6   1  -2   74.23    3.79   1
  -6  -1   2   64.97    3.07   1
   6   1  -1   58.88    4.23   1
   6   1  -1   51.58    3.17   1
   6   1   0   19.77    3.19   1
   6   1   0   24.15    2.64   1
   6   1   1    2.60    1.68   1
   6   1   1    2.31    2.05   1
   6   1   2    4.98    4.07  -1
  -6   3  -4    4.98    4.07   2
   6   1   2   12.79    3.67  -1
  -6   3  -4   12.79    3.67   2
   6   1   3    7.36    3.02   1
   6   1   3   44.26    8.05  -1
  -6   3  -5   44.26    8.05   2
   6   1   4    0.83    3.23   1
   6   1   4    0.90    2.89   1
   6   1   5    9.62    2.27   1
   6   1   5   15.74    3.76   1
   6   1   6   35.01    4.87   1
   6   1   6   36.44    4.83   1
   6   1   7   24.06    2.81   1
   6   1   7   65.76   10.00  -1
  -6   1  -8   65.76   10.00   2
   6   1   8   10.67    2.73   1
   6   1   8   23.12    5.89  -1
  -6   1  -9   23.12    5.89   2
   6   1   9  236.36   15.05  -1
  -6   1 -10  236.36   15.05   2
   6   1   9  212.06   12.13  -1
  -6   1 -10  212.06   12.13   2
   6   1  10    1.62    2.44   1
   6   1  10   15.41    5.54  -1
  -6   1 -11   15.41    5.54   2
   6   1  11   96.79    6.07   1
   6   1  11  210.45   18.70  -1
  -6   1 -12  210.45   18.70   2
   6   1  12    2.67    3.38   1
   6   1  12    0.03    2.35   1
   6   1  13   -0.94    2.33   1
   6   1  13   -2.80    2.54   1
   6   1  14    4.66    4.26   1
   6   1  14   27.27    8.00  -1
  -6  -1 -14   27.27    8.00   2
   6   2 -12    1.77    1.39   1
   6   2 -11    0.37    1.43   1
   6   2 -10   11.79    2.00   1
   6   2 -10   17.47    1.97   1
   6   2  -9   -0.57    1.46   1
   6   2  -9    1.33    1.53   1
   6   2  -8    6.35    1.79   1
   6   2  -8    4.81    1.88   1
   6   2  -7   24.09    2.36   1
   6   2  -7   27.63    2.58   1
   6   2  -6   25.75    3.23  -1
  -6   6   2   25.75    3.23   2
   6   2  -6   42.32    4.69  -1
  -6   6   2   42.32    4.69   2
   6   2  -5   19.15    2.51   1
   6   2  -5   16.41    1.34   1
  -6  -2   5   11.82    2.10   1
   6   2  -4   34.16    3.14   1
   6   2  -4   34.49    1.77   1
   6   2  -3   -2.42    2.06   1
   6   2  -3    1.59    1.10   1
   6   2  -2   98.50    5.53   1
   6   2  -2   94.01    4.08   1
   6   2  -1   15.08    3.13   1
   6   2  -1    9.76    2.05   1
   6   2   0   18.35    2.21   1
   6   2   0   12.65    2.60   1
   6   2   1    7.98    3.94  -1
  -6   4  -4    7.98    3.94   2
   6   2   1    4.91    4.46  -1
  -6   4  -4    4.91    4.46   2
   6   2   2   23.44    6.73  -1
  -6   4  -5   23.44    6.73   2
   6   2   2   28.65    5.64  -1
  -6   4  -5   28.65    5.64   2
   6   2   3    7.28    3.31   1
   6   2   3    4.61    1.86   1
   6   2   4    7.97    3.55   1
   6   2   4   13.20    3.56   1
   6   2   5   53.03    3.85   1
   6   2   5   54.02    5.23   1
   6   2   6   12.25    4.21   1
   6   2   6   10.69    3.81   1
   6   2   7   28.51    4.81   1
   6   2   7  110.43   13.20  -1
  -6   2  -9  110.43   13.20   2
   6   2   8   76.18    8.61  -1
  -6   2 -10   76.18    8.61   2
   6   2   8   81.83   11.02  -1
  -6   2 -10   81.83   11.02   2
   6   2   9    1.60    5.54  -1
  -6   2 -11    1.60    5.54   2
   6   2   9    8.01    6.16  -1
  -6   2 -11    8.01    6.16   2
   6   2  10   55.73    6.13   1
   6   2  10   58.79    6.01   1
   6   2  11   11.85    3.83   1
   6   2  11    5.44    4.35   1
   6   2  12    2.43    2.48   1
   6   2  12    8.26    4.16   1
   6   2  13    2.44    2.44   1
   6   2  13    0.85    6.66  -1
  -6   0 -14    0.85    6.66   2
   6   3 -13    2.30    1.98  -1
  -6   9   7    2.30    1.98   2
   6   3 -12    1.22    1.42   1
   6   3 -11   10.60    1.96   1
   6   3 -10   -0.53    1.75   1
   6   3  -9   10.09    2.19   1
   6   3  -8    7.41    2.11   1
   6   3  -7   -1.20    1.92   1
   6   3  -6    9.71    3.05  -1
  -6   7   1    9.71    3.05   2
   6   3  -5    1.71    1.40   1
   6   3  -5    1.98    0.88   1
   6   3  -4   15.76    2.69   1
   6   3  -4    9.85    1.16   1
   6   3  -3   49.08    3.98   1
   6   3  -3   44.40    3.11   1
   6   3  -2   29.72    3.63   1
   6   3  -2   33.92    2.78   1
   6   3  -1   15.17    3.12   1
   6   3  -1   19.42    2.49   1
   6   3   0    1.49    2.63   1
   6   3   0   -1.08    2.18   1
   6   3   1   14.27    5.28  -1
  -6   5  -5   14.27    5.28   2
   6   3   2    1.53    1.84   1
   6   3   3    3.71    2.19   1
   6   3   4    8.87    3.64   1
   6   3   5   26.50    4.68   1
   6   3   6   14.07    4.23   1
   6   3   7   10.85    2.71   1
   6   3   8  147.21   13.14  -1
  -6   3 -11  147.21   13.14   2
   6   3   9    3.82    3.86   1
   6   3  10   69.37    6.76   1
   6   3  11    2.18    2.21   1
   6   3  12    3.45    3.64   1
   6   3  12   -2.30    3.59   1
   6   3  13   13.38    4.41   1
   6   3  13   14.31    6.74  -1
  -6   1 -15   14.31    6.74   2
   6   4 -13    0.15    1.05   1
   6   4 -12    2.04    1.72   1
   6   4 -11    4.46    1.95   1
   6   4 -10    1.23    1.18   1
   6   4  -9    6.05    2.27   1
   6   4  -8   16.35    2.64   1
   6   4  -7   10.84    4.71  -1
  -6   8   1   10.84    4.71   2
   6   4  -6    8.63    1.59   1
   6   4  -5   18.98    2.06   1
   6   4  -5   14.68    1.43   1
   6   4  -4   -0.30    2.43   1
   6   4  -4   -0.04    1.55   1
   6   4  -3   55.68    4.86   1
   6   4  -3   62.70    3.39   1
   6   4  -2    4.84    2.86   1
   6   4  -1    3.15    2.95   1
   6   4   0    6.39    4.08  -1
  -6   6  -5    6.39    4.08   2
   6   4   1    3.17    1.91   1
   6   4   2    2.51    3.31   1
   6   4   3   -1.63    3.24   1
   6   4   4   36.71    5.14   1
   6   4   5    2.34    3.63   1
   6   4   6   18.61    2.92   1
   6   4   7   47.66    7.47  -1
  -6   4 -11   47.66    7.47   2
   6   4   8   24.34    8.94  -1
  -6   4 -12   24.34    8.94   2
   6   4   9   39.08    5.59   1
   6   4  10    3.91    2.40   1
   6   4  11    1.57    3.81   1
   6   5 -13    3.59    2.00   1
   6   5 -12    1.22    2.03   1
   6   5 -11    0.63    1.19   1
   6   5 -10    5.80    2.29   1
   6   5  -9    2.99    2.13   1
   6   5  -8   -0.16    1.43   1
   6   5  -7    0.07    3.41  -1
  -6   9   0    0.07    3.41   2
   6   5  -6    0.04    2.37   1
   6   5  -5   -1.66    2.59   1
   6   5  -4   22.76    2.42   1
   6   5  -3   16.56    3.29   1
   6   5  -2    9.72    3.25   1
   6   5  -1   -0.68    3.01   1
   6   5   0   19.44    5.25  -1
  -6   7  -6   19.44    5.25   2
   6   5   1    1.76    1.81   1
   6   5   2    5.57    3.34   1
   6   5   3    6.51    3.81   1
   6   5   4   14.33    4.46   1
   6   5   5   -4.05    3.83   1
   6   5   6   13.92    6.77  -1
  -6   5 -11   13.92    6.77   2
   6   5   7   69.97    9.70  -1
  -6   5 -12   69.97    9.70   2
   6   5   8   -0.19    3.74   1
   6   5   9   40.60    5.51   1
   6   5  10   -1.06    2.31   1
   6   6 -12   -0.36    2.17   1
   6   6 -11   -0.35    1.34   1
   6   6 -10   -1.28    2.29   1
   6   6  -9   10.75    1.85   1
   6   6  -8    0.73    3.76  -1
  -6  10   0    0.73    3.76   2
   6   6  -7    6.90    2.79   1
   6   6  -6    7.89    2.01   1
   6   6  -5   -2.19    2.64   1
   6   6  -4   30.07    4.09   1
   6   6  -3    1.03    2.75   1
   6   6  -2    7.57    2.10   1
   6   6  -1   15.85    5.23  -1
  -6   8  -6   15.85    5.23   2
   6   6   0   -4.33    3.24   1
   6   6   1    2.63    3.21   1
   6   6   2    4.11    2.06   1
   6   6   3    9.73    2.45   1
   6   6   4    5.93    3.76   1
   6   6   5   16.38    4.55   1
   6   6   6   27.59    6.45  -1
  -6   6 -12   27.59    6.45   2
   6   6   7    3.55    2.49   1
   6   6   8   21.34    4.80   1
   6   7  -9    2.94    1.65   1
   6   7  -8   -0.67    3.98  -1
  -6  11  -1   -0.67    3.98   2
   6   7  -7    4.16    2.80   1
   6   7  -6    2.03    1.73   1
   6   7  -5    6.53    3.23   1
   6   7  -4    8.49    3.25   1
   6   7  -3    3.08    1.98   1
   6   7  -2    1.66    3.00   1
   6   7  -1   11.10    5.80  -1
  -6   9  -7   11.10    5.80   2
   6   7   0   -0.09    1.73   1
   6   7   1    7.30    3.52   1
   6   7   2    8.32    3.61   1
   6   7   3    4.67    3.45   1
   6   7   4    2.00    2.09   1
   6   7   5    3.32    3.90   1
   6   8  -4   -2.19    1.78   1
   6   8  -3    1.96    3.28   1
   6   8  -2    9.30    6.17  -1
  -6  10  -7    9.30    6.17   2
   6   8  -1   -0.54    1.99   1
   6   8   0    1.20    3.38   1
   6   8   1    3.35    3.55   1
   7 -10  -6   -1.08    2.38   1
   7 -10  -5    5.53    5.32  -1
  -7  -4  12    5.53    5.32   2
   7 -10  -4    0.84    3.07   1
   7 -10  -3    4.84    2.12   1
   7 -10  -3    4.23    3.71   1
   7 -10  -2    5.11    2.30   1
   7 -10  -2    1.91    3.55   1
   7 -10  -1   -0.45    2.19   1
   7 -10  -1   -0.93    3.39   1
   7 -10   0    8.61    2.97   1
   7 -10   0    9.74    2.58   1
   7 -10   1    0.04    1.61   1
   7 -10   1    1.88    1.97   1
   7 -10   2    4.29    4.10  -1
  -7  -6   6    4.29    4.10   2
   7 -10   2    4.88    5.13  -1
  -7  -6   6    4.88    5.13   2
   7 -10   3    6.96    3.23   1
   7 -10   3    7.44    3.88   1
   7 -10   4   -1.58    1.80   1
   7 -10   4    1.32    3.55   1
   7 -10   5    2.07    3.03   1
   7  -9  -6    3.53    3.77   1
   7  -9  -5   -5.55    3.27   1
   7  -9  -4   -0.23    1.65   1
   7  -9  -4   -4.67    3.26   1
   7  -9  -3    4.28    1.98   1
   7  -9  -3    5.46    3.32   1
   7  -9  -2    1.18    1.36   1
   7  -9  -2   -1.16    6.55  -1
  -7  -4   9   -1.16    6.55   2
   7  -9  -1    2.72    2.31   1
   7  -9  -1    2.45    3.33   1
   7  -9   0    0.13    2.53   1
   7  -9   0    6.53    3.12   1
   7  -9   1    2.73    2.34   1
   7  -9   1    2.33    4.22  -1
  -7  -5   6    2.33    4.22   2
   7  -9   2    3.34    2.87   1
   7  -9   2    5.22    2.32   1
   7  -9   3    5.38    3.21   1
   7  -9   3   10.41    2.79   1
   7  -9   4   -0.66    1.77   1
   7  -9   4    0.40    3.45   1
   7  -9   5   -2.84    2.82   1
   7  -9   5   18.05   10.70  -1
  -7  -6   2   18.05   10.70  -2
  -7  -6   3   18.05   10.70   2
   7  -9   6   -3.10    3.20   1
   7  -9   6    2.84    2.11   1
   7  -9   7    1.67    2.07   1
   7  -9   7    1.39    3.47   1
   7  -9   8   -1.15    5.19  -1
  -7  -7   0   -1.15    5.19   2
   7  -8  -7    4.59    2.25   1
   7  -8  -6    6.16    3.83  -1
  -7  -2  11    6.16    3.83   2
   7  -8  -5    0.66    1.37   1
   7  -8  -5   -0.16    1.83   1
   7  -8  -4    5.73    1.82   1
   7  -8  -4   11.67    3.33   1
   7  -8  -3    1.79    1.91   1
   7  -8  -3    8.86    3.33   1
   7  -8  -2   -2.43    2.01   1
   7  -8  -2    0.46    3.21   1
   7  -8  -1   14.41    2.82   1
   7  -8  -1   12.63    3.74   1
   7  -8   0    3.19    2.23   1
   7  -8   0    8.23    3.42   1
   7  -8   1   -4.27    2.85  -1
  -7  -4   5   -4.27    2.85   2
   7  -8   1    6.66    4.62  -1
  -7  -4   5    6.66    4.62   2
   7  -8   2   22.20    3.59   1
   7  -8   2   22.31    4.92   1
   7  -8   3   -2.71    2.57   1
   7  -8   3    3.37    3.03   1
   7  -8   4    0.06    1.74   1
   7  -8   4   17.94    6.11  -1
  -7  -5   3   17.94    6.11   2
   7  -8   5   -0.78    3.18   1
   7  -8   5   -1.30    3.16   1
   7  -8   6   -2.12    3.24   1
   7  -8   6    4.52    3.38   1
   7  -8   7    2.18    2.09   1
   7  -8   7    2.20    2.37   1
   7  -8   8    8.28    5.88  -1
  -7  -6  -1    8.28    5.88   2
   7  -8   8   14.63    6.47  -1
  -7  -6  -1   14.63    6.47   2
   7  -8   9    3.04    3.73   1
   7  -8   9    4.58    2.54   1
   7  -7  -7   -0.60    2.90   1
   7  -7  -6    2.75    2.88   1
   7  -7  -5    1.78    1.33   1
   7  -7  -5    1.38    2.74   1
   7  -7  -4    7.13    1.70   1
   7  -7  -4    6.97    2.06   1
   7  -7  -3    7.57    1.91   1
  -7   7   3    3.09    1.67   1
   7  -7  -3   15.66    7.06  -1
  -7  -2   8   15.66    7.06   2
   7  -7  -2    1.03    1.93   1
   7  -7  -2    4.56    3.19   1
   7  -7  -1    8.80    2.39   1
   7  -7  -1    9.50    3.57   1
   7  -7   0    7.83    3.58   1
   7  -7   0   20.05    5.04  -1
  -7  -3   5   20.05    5.04   2
   7  -7   1    6.61    2.21   1
   7  -7   1    5.06    4.74  -1
  -7  -3   4    5.06    4.74   2
   7  -7   2   24.89    3.48   1
   7  -7   2   24.46    2.75   1
   7  -7   3    0.40    2.64   1
   7  -7   3   -1.24    3.14   1
   7  -7   4   -1.33    1.76   1
   7  -7   4   30.28    6.79  -1
  -7  -4   1   30.28    6.79  -2
  -7  -4   2   30.28    6.79   2
   7  -7   5    4.61    2.79   1
   7  -7   5   -6.42    3.38   1
   7  -7   6   -1.91    2.87   1
   7  -7   6   -2.68    2.07   1
   7  -7   7    6.84    3.68   1
   7  -7   7   14.61    5.54  -1
  -7  -5  -1   14.61    5.54   2
   7  -7   8    3.45    2.31   1
   7  -7   8   16.98    7.92  -1
  -7  -5  -3   16.98    7.92   2
   7  -7   9   -0.00    3.67   1
   7  -7   9    8.60    4.05   1
   7  -7  10    1.76    3.52   1
   7  -7  10   -2.21    2.37   1
   7  -7  11    3.94    3.86   1
   7  -6  -8    4.02    1.84   1
   7  -6  -7    2.75    3.24  -1
  -7   0  10    2.75    3.24   2
   7  -6  -6    1.28    1.32   1
   7  -6  -6   -0.02    2.54   1
   7  -6  -5    8.56    1.51   1
   7  -6  -5   15.30    3.17   1
  -7   6   5    8.73    1.36   1
   7  -6  -4   13.74    1.78   1
   7  -6  -4   14.80    2.14   1
  -7   6   4    9.58    2.19   1
   7  -6  -3    3.39    1.67   1
   7  -6  -3    1.98    2.76   1
  -7   6   3    0.36    1.43   1
   7  -6  -2   35.80    2.88   1
   7  -6  -2   35.26    4.29   1
  -7   6   2   21.64    2.31   1
   7  -6  -1   11.38    2.13   1
   7  -6  -1    3.33    2.24   1
   7  -6   0    1.87    2.75  -1
  -7  -2   4    1.87    2.75   2
   7  -6   0    5.62    4.01  -1
  -7  -2   4    5.62    4.01   2
   7  -6   1   61.34    4.65   1
   7  -6   1   59.46    5.43   1
   7  -6   2    0.19    2.60   1
   7  -6   2    3.02    3.01   1
   7  -6   3    7.68    1.87   1
   7  -6   3   11.60    6.70  -1
  -7  -3   2   11.60    6.70   2
   7  -6   4    0.89    2.89   1
   7  -6   4    2.94    3.44   1
   7  -6   5   10.36    3.49   1
   7  -6   5    7.72    2.37   1
   7  -6   6   10.82    2.41   1
   7  -6   6   10.15    3.71   1
   7  -6   7   13.71    3.33  -1
  -7  -4  -2   13.71    3.33   2
   7  -6   7   13.30    5.68  -1
  -7  -4  -2   13.30    5.68   2
   7  -6   8   13.05    2.67   1
   7  -6   8   11.72    2.60   1
   7  -6   9    5.25    2.44   1
   7  -6   9    2.05    3.72   1
   7  -6  10    5.36    2.56   1
   7  -6  10   18.40    4.25   1
   7  -6  11    5.91    2.50   1
   7  -6  11    6.71    2.53   1
   7  -6  12    5.74    2.51   1
   7  -5  -8    1.10    1.67   1
   7  -5  -7    0.23    0.57   1
   7  -5  -6    0.02    0.86   1
   7  -5  -6    1.00    2.39   1
  -7   5   6    3.03    0.83   1
   7  -5  -5   12.91    1.40   1
  -7   5   5   11.02    1.70   1
   7  -5  -4   12.11    1.63   1
   7  -5  -4   19.03    2.89   1
  -7   5   4   10.91    1.59   1
   7  -5  -3    8.45    1.77   1
   7  -5  -3    6.23    3.04   1
  -7   5   3    7.81    1.61   1
   7  -5  -2    6.23    1.95   1
   7  -5  -2    4.01    3.21   1
  -7   5   2    5.28    1.71   1
   7  -5  -1    8.87    3.07   1
   7  -5  -1   15.55    3.78  -1
  -7  -1   4   15.55    3.78   2
  -7   5   1   14.17    3.37  -1
   7   1  -4   14.17    3.37   2
   7  -5   0   10.49    3.14   1
   7  -5   0   11.10    4.27  -1
  -7  -1   3   11.10    4.27   2
   7  -5   1   47.07    2.88   1
   7  -5   1   43.35    3.23   1
   7  -5   2    2.81    2.55   1
   7  -5   2    1.33    1.78   1
   7  -5   3    1.63    2.71   1
   7  -5   3   43.55    6.87  -1
  -7  -2   0   43.55    6.87   2
   7  -5   4    8.29    2.07   1
   7  -5   4    6.69    2.24   1
   7  -5   5    6.98    2.21   1
   7  -5   5   13.68    3.69   1
   7  -5   6   14.25    5.22  -1
  -7  -3  -2   14.25    5.22   2
   7  -5   6   23.72    6.16  -1
  -7  -3  -2   23.72    6.16   2
   7  -5   7   11.52    2.82   1
   7  -5   7   50.05    8.02  -1
  -7  -3  -3   50.05    8.02   2
   7  -5   8   12.59    2.42   1
   7  -5   8   12.54    4.11   1
   7  -5   9   -0.26    2.18   1
   7  -5   9    3.38    2.26   1
   7  -5  10    7.64    2.44   1
   7  -5  10   -2.09    3.75   1
   7  -5  11   13.74    4.49   1
   7  -5  11   26.39    8.94  -1
  -7  -4  -7   26.39    8.94   2
   7  -5  12   -3.92    3.35   1
   7  -5  12    2.22    2.21   1
   7  -4  -8    3.43    1.86  -1
  -7   2   9    3.43    1.86   2
   7  -4  -7   -1.86    1.98   1
   7  -4  -7   -0.07    1.32  -1
  -7   2   8   -0.07    1.32   2
   7  -4  -6   12.04    1.37   1
   7  -4  -6    8.85    2.51   1
  -7   4   6    9.71    1.14   1
   7  -4  -5   25.95    2.03   1
   7  -4  -5   25.11    3.05   1
  -7   4   5   23.39    1.51   1
   7  -4  -4    1.19    1.29   1
   7  -4  -4    2.83    2.46   1
  -7   4   4    0.40    1.12   1
   7  -4  -3   47.24    2.91   1
   7  -4  -3   55.11    3.36   1
  -7   4   3   42.34    2.63   1
   7  -4  -2    6.91    2.84   1
  -7   4   2    8.00    1.71   1
   7  -4  -2   25.32    4.24  -1
  -7   0   4   25.32    4.24   2
   7  -4  -1    1.44    2.33  -1
  -7   0   3    1.44    2.33   2
   7  -4  -1    6.25    3.03  -1
  -7   0   3    6.25    3.03   2
  -7   4   1    2.16    2.14  -1
   7   0  -3    2.16    2.14   2
   7  -4   0   94.65    6.44   1
   7  -4   0  220.04   13.17  -1
  -7   0   2  220.04   13.17   2
   7  -4   1    4.95    1.54   1
   7  -4   1    7.80    2.96   1
   7  -4   2    8.89    2.60   1
   7  -4   2   10.69    2.06   1
   7  -4   3    8.87    2.77   1
   7  -4   3    7.44    1.94   1
   7  -4   4   19.66    3.62   1
   7  -4   4   19.67    3.93   1
   7  -4   5   16.29    3.87   1
   7  -4   5   55.77    8.45  -1
  -7  -2  -2   55.77    8.45   2
   7  -4   6   22.73    4.85  -1
  -7  -2  -3   22.73    4.85   2
   7  -4   6   30.50    5.62  -1
  -7  -2  -3   30.50    5.62   2
   7  -4   7   22.43    4.36   1
   7  -4   7   32.14    4.76   1
   7  -4   8   17.98    2.71   1
   7  -4   8   18.55    4.60   1
   7  -4   9   15.67    2.68   1
   7  -4   9    4.60    4.18   1
   7  -4  10    0.74    2.35   1
   7  -4  10    5.63    2.30   1
   7  -4  11   -1.54    3.61   1
   7  -4  11   -3.52    3.73   1
   7  -4  12    1.94    3.85   1
   7  -4  12    6.48    6.15  -1
  -7  -4  -8    6.48    6.15   2
   7  -4  13    8.79    5.61  -1
  -7  -4  -9    8.79    5.61   2
   7  -4  13    5.68    5.55  -1
  -7  -4  -9    5.68    5.55   2
  -7   3  10    0.57    1.78   1
  -7   3   9    1.68    1.38   1
   7  -3  -8    0.01    1.14   1
  -7   3   8    0.42    1.32   1
   7  -3  -8    0.62    0.67  -1
  -7   3   8    0.62    0.67   2
   7  -3  -7    0.18    0.88   1
   7  -3  -7    3.35    1.68   1
  -7   3   7    0.70    0.80   1
  -7   3   7    1.54    1.55   1
   7  -3  -6   18.83    1.29   1
   7  -3  -6   16.15    2.31   1
  -7   3   6   16.61    1.47   1
  -7   3   6   12.27    1.93   1
   7  -3  -5   24.82    1.77   1
  -7   3   5   24.89    1.77   1
   7  -3  -5   55.71    5.80  -1
  -7   2   6   55.71    5.80   2
   7  -3  -4   22.93    1.83   1
   7  -3  -4   21.25    3.06   1
  -7   3   4   15.52    1.55   1
  -7   3   4   13.02    2.31   1
   7  -3  -3   11.41    1.85   1
   7  -3  -3   13.61    2.64   1
  -7   3   3   12.90    1.64   1
  -7   3   3   11.87    2.07   1
   7  -3  -2    3.88    2.41   1
   7  -3  -2   18.37    3.00  -1
  -7   1   3   18.37    3.00   2
  -7   3   2   16.31    2.49  -1
   7  -1  -3   16.31    2.49   2
   7  -3  -1   13.60    2.82  -1
  -7   1   2   13.60    2.82   2
   7  -3  -1    6.92    4.45  -1
  -7   1   2    6.92    4.45   2
  -7   3   1    7.13    2.41  -1
   7  -1  -2    7.13    2.41   2
   7  -3   0   70.24    4.45   1
   7  -3   0   57.58    4.79   1
   7  -3   1    3.71    2.55   1
   7  -3   1    6.78    2.58   1
   7  -3   2    1.67    2.60   1
   7  -3   2    3.82    4.35  -1
  -7   0  -1    3.82    4.35   2
   7  -3   3   16.73    2.16   1
   7  -3   3   12.03    3.34   1
   7  -3   4   29.03    2.59   1
   7  -3   4   25.96    4.02   1
   7  -3   5   45.54    6.09  -1
  -7  -1  -3   45.54    6.09   2
   7  -3   5   39.15    8.49  -1
  -7  -1  -3   39.15    8.49   2
   7  -3   6   91.58    8.37  -1
  -7  -1  -4   91.58    8.37   2
   7  -3   6   85.55    9.22  -1
  -7  -1  -4   85.55    9.22   2
   7  -3   7   15.04    4.00   1
   7  -3   7   10.78    3.75   1
   7  -3   8   11.69    3.83   1
   7  -3   8    6.68    2.42   1
   7  -3   9    6.46    2.61   1
   7  -3   9   16.91    4.07   1
   7  -3  10   18.17    4.33   1
   7  -3  10   13.45    4.43   1
   7  -3  11    3.01    2.32   1
   7  -3  11    1.29    7.14  -1
  -7  -3  -8    1.29    7.14   2
   7  -3  12   18.04    4.20  -1
  -7  -3  -9   18.04    4.20   2
   7  -3  12   27.90    5.43  -1
  -7  -3  -9   27.90    5.43   2
   7  -3  13    4.65    4.06   1
   7  -3  13    0.82    4.10  -1
  -7  -3 -10    0.82    4.10   2
  -7   2   9    0.27    1.93  -1
   7  -4  -8    0.27    1.93   2
   7  -2  -8    0.97    0.64   1
   7  -2  -8    1.83    0.84   1
   7  -2  -8    2.60    0.97   1
  -7   2   8    2.30    1.18   1
   7  -2  -7   10.79    1.33   1
   7  -2  -7   10.35    1.68   1
  -7   2   7    9.31    1.30   1
  -7   2   7    7.76    1.89   1
   7  -2  -6   25.75    2.07   1
   7  -2  -6   26.60    2.39   1
  -7   2   6   26.96    1.49   1
  -7   2   6   21.92    2.00   1
   7  -2  -5    8.41    1.41   1
   7  -2  -5    7.65    2.01   1
  -7   2   5    5.19    1.20   1
  -7   2   5    5.22    1.65   1
   7  -2  -4   50.13    2.76   1
   7  -2  -4   48.38    3.57   1
  -7   2   4   46.08    2.42   1
  -7   2   4   40.12    2.82   1
   7  -2  -3   22.11    2.14   1
   7  -2  -3    7.77    2.52   1
  -7   2   3   13.11    1.73   1
  -7   2   3   10.73    2.00   1
   7  -2  -2    3.46    2.17  -1
  -7   2   2    3.46    2.17   2
   7  -2  -2    6.27    2.61  -1
  -7   2   2    6.27    2.61   2
  -7   2   2    3.05    1.80  -1
   7  -2  -2    3.05    1.80   2
  -7   2   2    3.86    2.06  -1
   7  -2  -2    3.86    2.06   2
   7  -2  -1  120.92    5.44   1
  -7   2   1  101.02    5.67   1
   7  -2  -1  293.91   14.24  -1
  -7   2   1  293.91   14.24   2
  -7   2   1  264.67   12.20  -1
   7  -2  -1  264.67   12.20   2
   7  -2   0    3.91    2.23   1
   7  -2   0    3.52    2.22   1
   7  -2   1   12.28    2.88   1
   7  -2   1   17.56    4.94  -1
  -7   1   0   17.56    4.94   2
   7  -2   2   18.30    2.15   1
   7  -2   2   18.91    2.20   1
   7  -2   3   49.41    4.30   1
   7  -2   3   28.72    2.67   1
   7  -2   4   20.42    3.83   1
   7  -2   4   74.89    8.33  -1
  -7   0  -3   74.89    8.33   2
   7  -2   5   28.97    4.98  -1
  -7   0  -4   28.97    4.98   2
   7  -2   5   21.82    4.79  -1
  -7   0  -4   21.82    4.79   2
   7  -2   6   30.44    3.06   1
   7  -2   6   71.77    7.43  -1
  -7   0  -5   71.77    7.43   2
   7  -2   7   42.44    5.14   1
   7  -2   7   25.92    4.94   1
   7  -2   8   16.24    4.43   1
   7  -2   8   17.94    4.67   1
   7  -2   9    9.08    2.51   1
   7  -2   9    3.74    2.49   1
   7  -2  10    1.91    3.81   1
   7  -2  10    5.37    3.96   1
   7  -2  11    2.18    3.96   1
   7  -2  11    9.75    5.67  -1
  -7  -2  -9    9.75    5.67   2
   7  -2  12   18.73    6.41  -1
  -7  -2 -10   18.73    6.41   2
   7  -2  12   17.84    6.11  -1
  -7  -2 -10   17.84    6.11   2
   7  -2  13    0.28    3.70   1
   7  -2  13   -2.57    3.92   1
   7  -1  -9    1.02    1.00   1
   7  -1  -8    1.13    0.91   1
   7  -1  -8    2.01    1.24   1
  -7   1   8    0.89    1.24   1
   7  -1  -7   13.28    1.81   1
   7  -1  -7    9.47    1.62   1
  -7   1   7   15.00    1.72   1
  -7   1   7   12.36    1.31   1
   7  -1  -6   30.22    2.02   1
   7  -1  -6   27.36    1.86   1
  -7   1   6   31.55    2.30   1
  -7   1   6   59.20    4.82  -1
   7  -4  -5   59.20    4.82  -2
   7  -4  -4   59.20    4.82   2
   7  -1  -5   18.44    2.00   1
   7  -1  -5   21.63    2.83   1
  -7   1   5   20.20    1.70   1
  -7   1   5   17.55    2.14   1
   7  -1  -4   14.74    1.88   1
   7  -1  -4   12.66    2.14   1
  -7   1   4   10.18    1.71   1
  -7   1   4   12.55    2.01   1
   7  -1  -3    8.89    2.17   1
  -7   1   3    6.98    1.61   1
   7  -1  -3   18.69    2.95  -1
  -7   3   2   18.69    2.95   2
  -7   1   3   16.15    2.63  -1
   7  -3  -2   16.15    2.63   2
   7  -1  -2    6.37    2.27   1
   7  -1  -2    5.99    3.13  -1
  -7   3   1    5.99    3.13   2
  -7   1   2    7.21    2.68  -1
   7  -3  -1    7.21    2.68   2
  -7   1   2    3.98    3.24  -1
   7  -3  -1    3.98    3.24   2
   7  -1  -1   61.20    2.80   1
   7  -1  -1   60.56    4.07   1
  -7   1   1   45.20    3.17   1
   7  -1   0   11.01    2.49   1
   7  -1   0    4.56    2.48   1
  -7   1   0    4.65    1.87   1
   7  -1   1   -0.50    2.37   1
   7  -1   1    0.86    1.37   1
   7  -1   2   25.94    3.31   1
   7  -1   2   15.49    3.41   1
   7  -1   3   30.74    2.67   1
   7  -1   3   81.88    7.94  -1
  -7   1  -3   81.88    7.94   2
   7  -1   4   43.30    5.11  -1
  -7   1  -4   43.30    5.11   2
   7  -1   4   52.05    8.04  -1
  -7   1  -4   52.05    8.04   2
   7  -1   5  117.46    7.89  -1
  -7   1  -5  117.46    7.89   2
   7  -1   5  101.56   11.44  -1
  -7   1  -5  101.56   11.44   2
   7  -1   6   14.33    2.39   1
   7  -1   6   17.29    3.81   1
   7  -1   7   26.91    4.58   1
   7  -1   7   22.02    4.46   1
   7  -1   8    7.28    3.92   1
   7  -1   8    3.63    3.90   1
   7  -1   9   26.76    4.89   1
   7  -1   9   13.79    4.53   1
   7  -1  10    4.55    2.57   1
   7  -1  10    8.94    6.91  -1
  -7  -1  -9    8.94    6.91   2
   7  -1  11   31.46    6.18  -1
  -7  -1 -10   31.46    6.18   2
   7  -1  11   19.42    5.85  -1
  -7  -1 -10   19.42    5.85   2
   7  -1  12   -0.23    5.57  -1
  -7  -1 -11   -0.23    5.57   2
   7  -1  12    8.03    6.31  -1
  -7  -1 -11    8.03    6.31   2
   7  -1  13   -6.01    4.28   1
   7  -1  13   17.11    6.51  -1
  -7  -1 -12   17.11    6.51   2
   7   0 -10    2.38    1.69  -1
  -7   6   7    2.38    1.69   2
   7   0  -9   -0.42    1.11   1
   7   0  -8    6.14    1.35   1
   7   0  -8    5.94    1.81   1
   7   0  -7   17.26    1.83   1
   7   0  -7   11.00    0.92   1
  -7   0   7   18.09    1.72   1
   7   0  -6   14.39    1.90   1
   7   0  -6   11.54    1.11   1
  -7   0   6   14.98    2.19   1
   7   0  -5   31.53    2.56   1
   7   0  -5   33.82    2.08   1
  -7   0   5   27.55    2.43   1
   7   0  -4    9.25    2.17   1
   7   0  -4   14.83    2.51   1
  -7   0   4   10.65    1.83   1
   7   0  -3    5.25    2.43  -1
  -7   4   1    5.25    2.43   2
   7   0  -3    1.52    2.11  -1
  -7   4   1    1.52    2.11   2
  -7   0   3    1.18    2.00  -1
   7  -4  -1    1.18    2.00   2
   7   0  -2   90.37    5.06   1
   7   0  -2   67.41    5.12   1
   7   0  -1    5.76    1.53   1
   7   0  -1    2.93    1.90   1
   7   0   0    8.20    2.84   1
   7   0   0    8.39    4.29  -1
  -7   3  -1    8.39    4.29   2
   7   0   1   31.61    3.69   1
   7   0   1   27.56    3.20   1
   7   0   2   38.62    4.23   1
   7   0   2   46.81    4.20   1
   7   0   3   21.87    3.82   1
   7   0   3   65.13    6.28  -1
  -7   2  -4   65.13    6.28   2
   7   0   4   38.73    5.09  -1
  -7   2  -5   38.73    5.09   2
   7   0   4   26.56    4.78  -1
  -7   2  -5   26.56    4.78   2
   7   0   5   25.47    4.27   1
   7   0   5   74.40    9.41  -1
  -7   2  -6   74.40    9.41   2
   7   0   6   62.33    4.11   1
   7   0   6   47.22    5.80   1
   7   0   7   23.94    4.43   1
   7   0   7   17.19    2.90   1
   7   0   8    9.71    2.57   1
   7   0   8   11.86    4.08   1
   7   0   9   -5.41    3.52   1
   7   0   9    5.02    3.65   1
   7   0  10    3.69    3.78   1
   7   0  10    3.16    4.74  -1
  -7   0 -10    3.16    4.74   2
   7   0  11   21.79    5.58  -1
  -7   0 -11   21.79    5.58   2
   7   0  11   12.33    5.76  -1
  -7   0 -11   12.33    5.76   2
   7   0  12    1.68    4.17   1
   7   0  12   16.12    5.52  -1
  -7   0 -12   16.12    5.52   2
   7   0  13    8.79    4.58   1
   7   1 -10    0.49    1.28   1
   7   1  -9    0.89    1.44   1
   7   1  -8   10.52    2.17   1
   7   1  -8    9.27    1.67   1
   7   1  -7   21.76    1.76   1
   7   1  -7   24.77    2.34   1
   7   1  -6   20.56    2.50   1
   7   1  -6   17.06    1.26   1
  -7  -1   6   17.90    2.07   1
   7   1  -5   13.29    2.33   1
   7   1  -5   10.20    1.70   1
  -7  -1   5    7.92    2.06   1
   7   1  -4    1.42    1.42   1
   7   1  -4   22.71    4.63  -1
  -7   5   1   22.71    4.63   2
   7   1  -3    7.56    3.59  -1
  -7   5   0    7.56    3.59   2
   7   1  -3    9.50    3.90  -1
  -7   5   0    9.50    3.90   2
   7   1  -2   32.99    2.45   1
   7   1  -2   37.14    2.59   1
   7   1  -1    6.20    2.66   1
   7   1  -1    5.18    1.83   1
   7   1   0    2.76    2.79   1
   7   1   0    3.43    2.13   1
   7   1   1   31.64    2.64   1
   7   1   1   32.99    3.35   1
   7   1   2   25.03    3.97   1
   7   1   2   20.93    3.53   1
   7   1   3   34.34    6.09  -1
  -7   3  -5   34.34    6.09   2
   7   1   3   38.25    6.02  -1
  -7   3  -5   38.25    6.02   2
   7   1   4   84.38    8.36  -1
  -7   3  -6   84.38    8.36   2
   7   1   4   97.47    9.53  -1
  -7   3  -6   97.47    9.53   2
   7   1   5   12.34    2.51   1
   7   1   5   33.16    8.84  -1
  -7   3  -7   33.16    8.84   2
   7   1   6   37.26    3.36   1
   7   1   6   43.70    5.49   1
   7   1   7    8.49    4.03   1
   7   1   7   10.40    4.17   1
   7   1   8   13.74    4.17   1
   7   1   8   10.63    4.46   1
   7   1   9    4.16    2.51   1
   7   1   9    5.08    2.61   1
   7   1  10   34.26    7.07  -1
  -7   1 -11   34.26    7.07   2
   7   1  10   46.18    8.32  -1
  -7   1 -11   46.18    8.32   2
   7   1  11   -5.21    4.83  -1
  -7   1 -12   -5.21    4.83   2
   7   1  11    2.29    4.55  -1
  -7   1 -12    2.29    4.55   2
   7   1  12    5.25    4.13   1
   7   1  12    5.05    2.67   1
   7   2 -10    0.48    2.05   1
   7   2  -9    4.31    1.83   1
   7   2  -8   10.69    2.03   1
   7   2  -7   20.27    2.52   1
   7   2  -6   15.40    1.63   1
   7   2  -5    8.08    2.29   1
   7   2  -5    8.85    1.55   1
   7   2  -4   -0.60    2.84  -1
  -7   6   0   -0.60    2.84   2
   7   2  -4   -2.70    2.17  -1
  -7   6   0   -2.70    2.17   2
   7   2  -3   44.32    4.16   1
   7   2  -3   37.28    2.42   1
   7   2  -2    2.21    1.55   1
   7   2  -2    0.89    1.57   1
   7   2  -1    7.46    2.77   1
   7   2  -1    4.53    1.86   1
   7   2   0   32.23    3.91   1
   7   2   0   26.40    2.96   1
   7   2   1   24.86    2.39   1
   7   2   1   23.50    3.49   1
   7   2   2   22.85    3.62   1
   7   2   2   53.44    8.75  -1
  -7   4  -5   53.44    8.75   2
   7   2   3   23.60    5.26  -1
  -7   4  -6   23.60    5.26   2
   7   2   3   25.84    5.42  -1
  -7   4  -6   25.84    5.42   2
   7   2   4   16.74    3.93   1
   7   2   4    9.24    3.70   1
   7   2   5   55.80    4.12   1
   7   2   5   62.79    6.04   1
   7   2   6   18.19    4.48   1
   7   2   6   15.00    2.85   1
   7   2   7    3.19    2.49   1
   7   2   7    7.74    3.95   1
   7   2   8    0.12    3.74   1
   7   2   8    0.94    3.82   1
   7   2   9    5.37    4.07   1
   7   2   9   14.60    6.16  -1
  -7   2 -11   14.60    6.16   2
   7   2  10   14.23    3.81  -1
  -7   2 -12   14.23    3.81   2
   7   2  10   10.64    5.83  -1
  -7   2 -12   10.64    5.83   2
   7   2  11   10.37    4.06   1
   7   2  11    8.87    2.89   1
   7   3 -11    0.81    1.60   1
   7   3 -10    1.28    1.79   1
   7   3  -9    3.61    2.07   1
   7   3  -8   13.50    1.68   1
   7   3  -7    8.41    2.49   1
   7   3  -6    6.92    2.58   1
   7   3  -5   10.88    4.83  -1
  -7   7   0   10.88    4.83   2
   7   3  -4    5.12    4.00  -1
  -7   7  -1    5.12    4.00   2
   7   3  -3   10.29    2.90   1
   7   3  -3   12.07    2.01   1
   7   3  -2    2.27    2.61   1
   7   3  -2    1.58    1.73   1
   7   3  -1    1.68    2.98   1
   7   3  -1    4.66    2.20   1
   7   3   0   17.39    2.46   1
   7   3   0   16.87    2.80   1
   7   3   1   14.85    3.81   1
   7   3   1   13.33    3.30   1
   7   3   2   23.87    6.45  -1
  -7   5  -6   23.87    6.45   2
   7   3   2   35.86    7.44  -1
  -7   5  -6   35.86    7.44   2
   7   3   3   50.45    5.76  -1
  -7   5  -7   50.45    5.76   2
   7   3   3   66.30    8.49  -1
  -7   5  -7   66.30    8.49   2
   7   3   4   -1.86    3.18   1
   7   3   4    2.93    3.39   1
   7   3   5   34.58    5.05   1
   7   3   5   33.61    4.92   1
   7   3   6    7.48    2.59   1
   7   3   6    1.35    3.77   1
   7   3   7   -0.22    4.14   1
   7   3   7    7.00    3.84   1
   7   3   8    2.60    4.08   1
   7   3   8    1.75    3.82   1
   7   3   9   27.66    6.75  -1
  -7   3 -12   27.66    6.75   2
   7   3   9   26.60    8.88  -1
  -7   3 -12   26.60    8.88   2
   7   3  10    0.58    3.72   1
   7   3  10    5.04    7.38  -1
  -7   3 -13    5.04    7.38   2
   7   4 -11    1.31    1.95   1
   7   4 -10    3.92    2.08   1
   7   4  -9    3.98    2.20   1
   7   4  -8   13.49    1.72   1
   7   4  -7    9.19    2.63   1
   7   4  -6    3.04    2.36   1
   7   4  -5    2.30    3.30  -1
  -7   8  -1    2.30    3.30   2
   7   4  -4   12.20    2.91   1
   7   4  -3    5.41    2.79   1
   7   4  -2   -0.11    2.63   1
   7   4  -2    2.07    1.93   1
   7   4  -1   19.18    2.45   1
   7   4  -1   19.73    2.95   1
   7   4   0    7.03    3.55   1
   7   4   0    8.94    2.76   1
   7   4   1   15.22    3.91   1
   7   4   1   15.63    3.19   1
   7   4   2   25.80    5.31  -1
  -7   6  -7   25.80    5.31   2
   7   4   2   16.64    5.53  -1
  -7   6  -7   16.64    5.53   2
   7   4   3   -0.65    2.06   1
   7   4   4   36.22    5.02   1
   7   4   5   13.17    4.10   1
   7   4   6    0.60    2.31   1
   7   4   7   -2.71    3.98   1
   7   4   8    3.04    7.42  -1
  -7   4 -12    3.04    7.42   2
   7   4   9   10.92    4.09  -1
  -7   4 -13   10.92    4.09   2
   7   5 -11   -1.22    2.03   1
   7   5 -10    1.00    2.07   1
   7   5  -9    7.58    2.58   1
   7   5  -8    3.63    2.39   1
   7   5  -7    1.84    1.66   1
   7   5  -6   10.16    4.23  -1
  -7   9  -1   10.16    4.23   2
   7   5  -5   -3.29    2.36   1
   7   5  -4    9.89    1.98   1
   7   5  -3    1.83    2.80   1
   7   5  -2    3.16    3.04   1
   7   5  -1   11.91    2.27   1
   7   5   0   -0.78    2.90   1
   7   5   1   17.87    5.96  -1
  -7   7  -7   17.87    5.96   2
   7   5   2   14.50    4.28   1
   7   5   3   -1.08    2.28   1
   7   5   4   18.10    4.47   1
   7   5   5    7.59    3.85   1
   7   5   6    0.86    2.26   1
   7   5   7    6.90    4.17   1
   7   6  -8    1.59    1.60   1
   7   6  -7    6.77    2.63   1
   7   6  -6    1.56    3.86  -1
  -7  10  -2    1.56    3.86   2
   7   6  -5    2.16    2.88   1
   7   6  -4    0.55    2.70   1
   7   6  -3    0.09    1.64   1
   7   6  -2    7.61    3.29   1
   7   6  -1    0.33    3.09   1
   7   6   0    5.32    2.11   1
   7   6   1   16.75    5.00  -1
  -7   8  -8   16.75    5.00   2
   7   6   2    4.03    3.32   1
   7   6   3   18.86    2.91   1
   7   6   4    1.91    2.40   1
   7   7  -2    0.74    3.17   1
   8  -9  -7    1.15    2.17   1
   8  -9  -6   -1.02    1.99   1
   8  -9  -5    2.93    2.11   1
   8  -9  -4   11.50    3.21  -1
  -8  -3  10   11.50    3.21   2
   8  -9  -3    6.42    2.31   1
   8  -9  -2    8.85    2.42   1
   8  -9  -2   13.77    2.67   1
   8  -9  -1    0.63    2.09   1
   8  -9  -1   -0.82    1.92   1
   8  -9   0   -0.56    2.16   1
   8  -9   0   -4.45    3.31   1
   8  -9   1    7.59    2.47   1
   8  -9   1   -2.71    3.51   1
   8  -9   2    5.09    1.73   1
   8  -9   2    7.77    3.90   1
   8  -9   3    3.45    3.62  -1
  -8  -5   4    3.45    3.62   2
   8  -9   3   -0.79    5.04  -1
  -8  -5   4   -0.79    5.04   2
   8  -9   4    0.39    1.87   1
   8  -9   4    0.53    2.07   1
   8  -9   5    1.79    3.02   1
   8  -8  -8    1.98    2.39   1
   8  -8  -7   -1.01    3.53   1
   8  -8  -6    6.36    3.55   1
   8  -8  -5    5.20    3.10   1
   8  -8  -4    3.43    5.21  -1
  -8  -2   9    3.43    5.21   2
   8  -8  -3   16.27    2.25   1
   8  -8  -3   14.18    2.72   1
   8  -8  -2   -0.35    1.87   1
   8  -8  -2    3.01    1.84   1
   8  -8  -1   -0.54    2.04   1
   8  -8  -1    3.53    2.01   1
   8  -8   0   -3.29    2.32   1
   8  -8   0   -2.54    2.14   1
   8  -8   1    2.30    2.41   1
   8  -8   1    7.33    2.35   1
   8  -8   2   -0.44    3.18   1
   8  -8   2    4.81    4.08  -1
  -8  -4   4    4.81    4.08   2
   8  -8   3    6.44    3.62   1
   8  -8   3    3.33    5.62  -1
  -8  -4   3    3.33    5.62   2
   8  -8   4    6.65    2.01   1
   8  -8   4    9.22    3.84   1
   8  -8   5    0.02    2.93   1
   8  -8   5    0.53    2.10   1
   8  -8   6    0.84    3.12   1
   8  -8   6    9.61    6.08  -1
  -8  -5   1    9.61    6.08   2
   8  -8   7   -3.88    1.96   1
   8  -8   7    2.89    3.64   1
   8  -7  -8    1.83    1.93   1
   8  -7  -7   -1.19    1.65   1
   8  -7  -6    8.41    3.33   1
   8  -7  -5    7.95    4.59  -1
  -8  -1   9    7.95    4.59   2
   8  -7  -4    1.79    1.52   1
   8  -7  -4    2.47    3.13   1
   8  -7  -3   22.24    2.40   1
   8  -7  -3   19.48    2.59   1
   8  -7  -2    1.47    1.88   1
   8  -7  -2    1.37    1.93   1
   8  -7  -1    2.31    2.03   1
   8  -7  -1   -4.61    3.09   1
   8  -7   0    0.53    1.34   1
   8  -7   0   -3.97    3.34   1
   8  -7   1    5.67    2.49   1
   8  -7   1    3.34    3.09   1
   8  -7   2   11.06    3.36  -1
  -8  -3   3   11.06    3.36   2
   8  -7   2   -0.29    2.83  -1
  -8  -3   3   -0.29    2.83   2
   8  -7   3    0.86    2.84   1
   8  -7   3    4.77    2.13   1
   8  -7   4    8.37    1.93   1
   8  -7   4    6.43    3.68   1
   8  -7   5    3.59    3.11   1
   8  -7   5   19.70    7.67  -1
  -8  -4   1   19.70    7.67   2
   8  -7   6    7.77    3.66   1
   8  -7   7   -0.08    3.46   1
   8  -7   7    8.51    3.85   1
   8  -7   8    1.37    2.00   1
   8  -7   8   -0.15    3.61   1
   8  -6  -8   -0.01    1.82   1
   8  -6  -7   11.10    3.21   1
   8  -6  -6   -1.43    1.51   1
   8  -6  -5    4.63    5.72  -1
  -8   0   8    4.63    5.72   2
   8  -6  -4   44.53    2.82   1
   8  -6  -4   49.00    4.65   1
   8  -6  -3    1.92    1.68   1
   8  -6  -3    3.44    1.95   1
   8  -6  -2    3.26    1.87   1
   8  -6  -2   12.44    6.41  -1
  -8  -1   6   12.44    6.41   2
   8  -6  -1   -1.25    1.19   1
   8  -6  -1   -3.47    3.06   1
   8  -6   0    6.08    2.38   1
   8  -6   0    6.03    3.30   1
   8  -6   1   -6.61    3.22   1
   8  -6   1   -0.70    4.10  -1
  -8  -2   3   -0.70    4.10   2
   8  -6   2    4.06    3.99  -1
  -8  -2   2    4.06    3.99   2
   8  -6   2    3.38    6.23  -1
  -8  -2   2    3.38    6.23   2
   8  -6   3   16.44    2.22   1
   8  -6   3   17.07    4.01   1
   8  -6   4    2.84    2.94   1
   8  -6   4    4.80    3.41   1
   8  -6   5    9.16    3.44   1
   8  -6   5   21.89    6.55  -1
  -8  -3  -1   21.89    6.55   2
   8  -6   6   -0.41    3.35   1
   8  -6   6    6.95    3.48   1
   8  -6   7    3.99    3.42   1
   8  -6   7    4.48    3.80   1
   8  -6   8    8.64    5.83  -1
  -8  -4  -3    8.64    5.83   2
   8  -6   8   11.59    7.75  -1
  -8  -4  -3   11.59    7.75   2
   8  -6   9    4.14    3.63   1
   8  -6   9   12.52    5.79  -1
  -8  -4  -4   12.52    5.79   2
   8  -6  10   -0.73    3.57   1
   8  -5  -8   -2.09    2.56   1
   8  -5  -7    4.87    1.61   1
   8  -5  -6   19.07    4.22  -1
  -8   1   8   19.07    4.22   2
   8  -5  -5    4.37    1.25   1
   8  -5  -5    9.68    2.84   1
   8  -5  -4   39.52    2.55   1
   8  -5  -4   43.16    4.46   1
   8  -5  -3    0.68    1.60   1
   8  -5  -3    3.60    2.80   1
  -8   5   3    1.95    1.96   1
   8  -5  -2    1.34    1.84   1
   8  -5  -2    5.42    5.32  -1
  -8   0   4    5.42    5.32   2
   8  -5  -1    0.92    1.22   1
   8  -5  -1    0.35    1.68   1
   8  -5   0    3.40    2.25   1
   8  -5   0    1.71    1.93   1
   8  -5   1    3.53    2.98  -1
  -8  -1   2    3.53    2.98   2
   8  -5   1    4.51    3.87  -1
  -8  -1   2    4.51    3.87   2
   8  -5   2    1.05    2.83   1
   8  -5   2   13.31    3.43   1
   8  -5   3   22.48    3.76   1
   8  -5   3   23.15    2.83   1
   8  -5   4    1.92    3.24   1
   8  -5   4    4.52    1.99   1
   8  -5   5   21.38    3.98   1
   8  -5   5   28.84    6.78  -1
  -8  -2  -2   28.84    6.78   2
   8  -5   6    4.10    3.32   1
   8  -5   6    2.52    3.23   1
   8  -5   7   -4.44    3.45   1
   8  -5   7    0.07    3.54   1
   8  -5   8   72.56    8.09  -1
  -8  -3  -4   72.56    8.09   2
   8  -5   8   64.61    8.49  -1
  -8  -3  -4   64.61    8.49   2
   8  -5   9   -4.96    3.45   1
   8  -5   9    4.16    3.45   1
   8  -5  10    0.08    3.61   1
   8  -5  10   -1.87    2.18   1
   8  -4  -8   23.66    2.76   1
   8  -4  -7   -1.68    2.05   1
   8  -4  -6    7.32    4.70  -1
  -8   2   7    7.32    4.70   2
   8  -4  -5   78.00    3.50   1
   8  -4  -5   73.66    5.14   1
   8  -4  -4    2.62    1.38   1
   8  -4  -4    2.07    2.59   1
  -8   4   4    1.12    1.30   1
   8  -4  -3   10.43    1.91   1
  -8   4   3    8.74    1.71   1
   8  -4  -3    7.58    5.64  -1
  -8   1   5    7.58    5.64  -2
  -8   1   4    7.58    5.64   2
   8  -4  -2    0.87    1.78   1
   8  -4  -2    2.62    1.71   1
  -8   4   2    1.64    1.51   1
   8  -4  -1    1.74    1.88   1
   8  -4  -1    0.10    2.67   1
   8  -4   0    1.45    2.80   1
   8  -4   0    2.81    2.77  -1
  -8   0   2    2.81    2.77   2
   8  -4   1    7.51    3.41  -1
  -8   0   1    7.51    3.41   2
   8  -4   1    5.75    4.60  -1
  -8   0   1    5.75    4.60   2
   8  -4   2   22.43    3.52   1
   8  -4   2   29.17    3.87   1
   8  -4   3    4.95    1.88   1
   8  -4   3    0.20    3.11   1
   8  -4   4   17.32    2.38   1
   8  -4   4   23.15    6.09  -1
  -8  -1  -1   23.15    6.09   2
   8  -4   5    6.67    2.05   1
   8  -4   5    3.57    5.06  -1
  -8  -1  -3    3.57    5.06   2
   8  -4   6    5.17    3.33   1
   8  -4   6    4.16    2.22   1
   8  -4   7   20.49    6.08  -1
  -8  -2  -4   20.49    6.08   2
   8  -4   7   23.55    7.84  -1
  -8  -2  -4   23.55    7.84   2
   8  -4   8    9.66    5.62  -1
  -8  -2  -5    9.66    5.62   2
   8  -4   8   19.25    5.07  -1
  -8  -2  -5   19.25    5.07   2
   8  -4   9   -4.99    3.32   1
   8  -4   9    3.56    3.80   1
   8  -4  10    4.18    3.63   1
   8  -4  10    1.77    3.62   1
   8  -4  11    0.94    2.23   1
   8  -4  11    5.47    2.45   1
   8  -3  -8    6.28    1.75   1
   8  -3  -7   21.16    3.17  -1
  -8   3   7   21.16    3.17   2
  -8   3   7    9.95    2.68  -1
   8  -3  -7    9.95    2.68   2
   8  -3  -6   10.59    1.65   1
   8  -3  -6    7.56    2.29   1
  -8   3   6    2.47    1.79   1
   8  -3  -5   56.77    3.47   1
   8  -3  -5   50.78    4.03   1
  -8   3   5   41.31    2.30   1
   8  -3  -4    3.94    1.53   1
   8  -3  -4    3.70    2.41   1
  -8   3   4    3.03    1.30   1
   8  -3  -3    1.10    1.64   1
   8  -3  -3    3.28    2.46   1
  -8   3   3    1.10    1.39   1
   8  -3  -2    1.52    1.84   1
   8  -3  -2   -1.82    2.37   1
   8  -3  -1    0.04    1.53   1
   8  -3  -1    6.64    3.67  -1
  -8   1   2    6.64    3.67   2
   8  -3   0    8.84    2.98  -1
  -8   1   1    8.84    2.98   2
   8  -3   0    8.49    3.77  -1
  -8   1   1    8.49    3.77   2
   8  -3   1    7.74    2.91   1
   8  -3   1   19.97    4.96  -1
  -8   1   0   19.97    4.96   2
   8  -3   2   37.98    3.95   1
   8  -3   2   35.61    4.23   1
   8  -3   3    2.49    2.89   1
   8  -3   3   27.06    6.43  -1
  -8   0  -1   27.06    6.43   2
   8  -3   4   33.53    4.17   1
   8  -3   4   31.19    4.20   1
   8  -3   5    5.89    2.05   1
   8  -3   5    4.47    2.21   1
   8  -3   6    0.50    1.96   1
   8  -3   6    1.32    3.10   1
   8  -3   7  130.23   10.11  -1
  -8  -1  -5  130.23   10.11   2
   8  -3   7  124.02    7.59  -1
  -8  -1  -5  124.02    7.59   2
   8  -3   8   -0.71    3.37   1
   8  -3   8   -4.38    3.59   1
   8  -3   9   -1.64    3.40   1
   8  -3   9    2.90    2.26   1
   8  -3  10    2.13    2.57   1
   8  -3  10   12.95    2.75   1
   8  -3  11    2.75    3.59   1
   8  -3  11    1.23    4.02   1
   8  -2  -8    1.52    1.21   1
   8  -2  -7   -1.64    1.43   1
   8  -2  -7    1.72    1.87  -1
  -8   4   6    1.72    1.87   2
   8  -2  -6   93.40    3.69   1
   8  -2  -6   77.95    4.24   1
  -8   2   6   58.37    3.80   1
   8  -2  -5    2.70    1.37   1
   8  -2  -5   -0.28    2.00   1
  -8   2   5   -0.51    1.16   1
  -8   2   5    0.78    1.41   1
   8  -2  -4   12.95    1.79   1
   8  -2  -4   13.64    2.47   1
  -8   2   4    9.18    1.62   1
  -8   2   4   11.52    3.60  -1
   8  -3  -4   11.52    3.60  -2
   8  -3  -3   11.52    3.60   2
   8  -2  -3    1.69    1.76   1
   8  -2  -3    2.51    2.37   1
  -8   2   3   -0.17    1.48   1
  -8   2   3    2.14    1.72   1
   8  -2  -2    3.07    1.96   1
   8  -2  -2    2.45    2.43   1
   8  -2  -1    3.05    2.13   1
   8  -2  -1   -2.66    2.39   1
   8  -2   0    9.44    3.29  -1
  -8   2   0    9.44    3.29   2
   8  -2   0   13.29    4.90  -1
  -8   2   0   13.29    4.90   2
   8  -2   1   70.32    4.60   1
   8  -2   1   36.84    4.39   1
   8  -2   2   17.03    2.16   1
   8  -2   2   13.98    2.97   1
   8  -2   3   25.28    3.65   1
   8  -2   3   16.82    3.84   1
   8  -2   4    8.28    3.26   1
   8  -2   4    3.24    1.96   1
   8  -2   5   -1.20    3.07   1
   8  -2   5   11.78    5.92  -1
  -8   0  -4   11.78    5.92   2
   8  -2   6   22.22    5.41  -1
  -8   0  -5   22.22    5.41   2
   8  -2   6   27.70    6.41  -1
  -8   0  -5   27.70    6.41   2
   8  -2   7   34.62    5.85  -1
  -8   0  -6   34.62    5.85   2
   8  -2   7   27.76    6.90  -1
  -8   0  -6   27.76    6.90   2
   8  -2   8    8.52    3.48   1
   8  -2   8    1.16    2.39   1
   8  -2   9   -3.55    2.31   1
   8  -2   9    3.33    3.67   1
   8  -2  10    3.89    3.52   1
   8  -2  10   -5.66    3.81   1
   8  -2  11    2.63    4.06   1
   8  -2  11    4.83    4.18   1
   8  -1  -7    1.51    1.37   1
   8  -1  -7    3.96    1.25   1
   8  -1  -6   43.92    2.60   1
   8  -1  -6   44.94    2.69   1
   8  -1  -5    3.34    1.64   1
   8  -1  -5   -1.90    1.61   1
  -8   1   5    2.08    1.30   1
  -8   1   5    1.97    1.30   1
   8  -1  -4    1.23    1.76   1
  -8   1   4    1.07    1.49   1
  -8   1   4    1.08    1.37   1
   8  -1  -4   -0.23    2.90  -1
  -8   4   2   -0.23    2.90   2
   8  -1  -3    1.60    2.00   1
   8  -1  -3    2.53    2.22   1
  -8   1   3    2.79    1.45   1
   8  -1  -2    4.65    2.38   1
   8  -1  -2    2.16    3.57  -1
  -8   3   1    2.16    3.57   2
   8  -1  -1   11.25    3.03  -1
  -8   3   0   11.25    3.03   2
   8  -1  -1    8.36    3.31  -1
  -8   3   0    8.36    3.31   2
   8  -1   0    5.45    2.50   1
   8  -1   0   22.20    5.00  -1
  -8   3  -1   22.20    5.00   2
   8  -1   1   40.84    4.05   1
   8  -1   1   31.19    3.77   1
   8  -1   2    2.60    2.74   1
   8  -1   2   11.18    5.15  -1
  -8   2  -2   11.18    5.15   2
   8  -1   3   33.81    2.82   1
   8  -1   3   28.03    4.09   1
   8  -1   4   16.67    3.50   1
   8  -1   4    7.59    3.50   1
   8  -1   5    4.35    3.24   1
   8  -1   5   -4.19    5.20  -1
  -8   1  -5   -4.19    5.20   2
   8  -1   6  159.47    8.23  -1
  -8   1  -6  159.47    8.23   2
   8  -1   6  157.67    9.28  -1
  -8   1  -6  157.67    9.28   2
   8  -1   7    0.21    3.56   1
   8  -1   7   -5.28    3.74   1
   8  -1   7   -0.31    3.83  -1
  -8   1  -7   -0.31    3.83   2
   8  -1   8    3.32    2.45   1
   8  -1   8    7.20    3.74   1
   8  -1   9   11.94    4.66   1
   8  -1   9   14.23    2.97   1
   8  -1  10   21.83    4.62   1
   8  -1  10   12.32    2.89   1
   8  -1  11   12.44    2.84   1
   8  -1  11   -1.92    4.36   1
   8   0  -8    5.09    3.29  -1
  -8   6   5    5.09    3.29   2
   8   0  -7   70.49    3.73   1
   8   0  -6    0.71    1.65   1
  -8   0   6   -0.87    1.47   1
   8   0  -5   11.29    2.08   1
   8   0  -5    9.00    3.57  -1
  -8   5   3    9.00    3.57   2
   8   0  -4    0.51    1.99   1
   8   0  -4    3.49    2.43   1
   8   0  -3    4.93    2.14   1
   8   0  -3    1.07    2.07   1
   8   0  -2   -1.04    1.97   1
   8   0  -2    0.64    2.95  -1
  -8   4   0    0.64    2.95   2
   8   0  -1    8.31    3.62  -1
  -8   4  -1    8.31    3.62   2
   8   0  -1    8.59    4.36  -1
  -8   4  -1    8.59    4.36   2
   8   0   0   34.99    3.76   1
   8   0   0   30.02    3.18   1
   8   0   1   19.69    2.13   1
   8   0   1   14.83    3.13   1
   8   0   2   17.75    3.70   1
   8   0   2   23.24    3.51   1
   8   0   3    7.40    2.07   1
   8   0   3    6.18    2.01   1
   8   0   4    3.86    3.07   1
   8   0   4    7.02    5.75  -1
  -8   2  -5    7.02    5.75   2
   8   0   5   29.36    5.49  -1
  -8   2  -6   29.36    5.49   2
   8   0   5   29.63    5.26  -1
  -8   2  -6   29.63    5.26   2
   8   0   6   30.37    6.02  -1
  -8   2  -7   30.37    6.02   2
   8   0   6   36.82    8.10  -1
  -8   2  -7   36.82    8.10   2
   8   0   7    3.93    3.50   1
   8   0   7    2.29    3.60   1
   8   0   8    1.59    3.55   1
   8   0   8    2.62    2.47   1
   8   0   9   -1.78    3.77   1
   8   0   9   -1.64    3.49   1
   8   0  10   -1.29    2.28   1
   8   0  10    6.40    3.94   1
   8   1  -8    0.74    1.66   1
   8   1  -7   34.87    3.04   1
   8   1  -6    0.90    1.94   1
   8   1  -5   -0.58    1.91   1
   8   1  -4    4.97    2.31   1
   8   1  -4    5.91    2.37   1
   8   1  -3   -1.36    2.22   1
   8   1  -3   -0.22    1.61   1
   8   1  -2   11.89    3.28  -1
  -8   5  -1   11.89    3.28   2
   8   1  -2    6.37    2.62  -1
  -8   5  -1    6.37    2.62   2
   8   1  -1    5.90    2.94   1
   8   1  -1    6.96    2.11   1
   8   1   0   23.13    3.75   1
   8   1   0   24.54    2.94   1
   8   1   1    4.85    1.83   1
   8   1   1    1.22    2.44   1
   8   1   2   21.69    3.94   1
   8   1   2   24.48    3.67   1
   8   1   3   11.57    2.40   1
   8   1   3    5.42    3.17   1
   8   1   4    2.71    3.17   1
   8   1   4   12.83    6.06  -1
  -8   3  -6   12.83    6.06   2
   8   1   5  119.96    7.47  -1
  -8   3  -7  119.96    7.47   2
   8   1   5  147.51   11.07  -1
  -8   3  -7  147.51   11.07   2
   8   1   6   -1.67    2.18   1
   8   1   6    3.01    5.91  -1
  -8   3  -8    3.01    5.91   2
   8   1   7    0.69    2.11   1
   8   1   7   -1.29    3.46   1
   8   1   8   19.94    4.77   1
   8   1   8   20.13    5.01   1
   8   1   9   15.94    4.65   1
   8   1   9    0.92    4.56   1
   8   1  10    1.68    4.06   1
   8   1  10   20.52    8.67  -1
  -8   1 -11   20.52    8.67   2
   8   2  -9    0.78    3.38  -1
  -8   8   4    0.78    3.38   2
   8   2  -8   35.66    3.06   1
   8   2  -7    4.02    2.29   1
   8   2  -6    6.52    2.47   1
   8   2  -5    7.65    2.31   1
   8   2  -4    0.29    2.29   1
   8   2  -3    0.07    4.69  -1
  -8   6  -1    0.07    4.69   2
   8   2  -2    8.67    5.12  -1
  -8   6  -2    8.67    5.12   2
   8   2  -2    6.24    3.79  -1
  -8   6  -2    6.24    3.79   2
   8   2  -1   18.68    2.14   1
   8   2  -1   21.41    2.60   1
   8   2   0   23.75    3.87   1
   8   2   0   19.18    2.89   1
   8   2   1   19.62    3.79   1
   8   2   1   17.38    3.44   1
   8   2   2    3.80    2.05   1
   8   2   2    8.50    1.89   1
   8   2   3    3.08    3.16   1
   8   2   3    3.00    3.39   1
   8   2   4   20.20    5.59  -1
  -8   4  -7   20.20    5.59   2
   8   2   4   29.45    6.73  -1
  -8   4  -7   29.45    6.73   2
   8   2   5   26.64    7.82  -1
  -8   4  -8   26.64    7.82   2
   8   2   5   22.43    8.56  -1
  -8   4  -8   22.43    8.56   2
   8   2   6    2.86    3.74   1
   8   2   6    4.01    3.80   1
   8   2   7    0.19    3.85   1
   8   2   7    2.88    3.84   1
   8   2   8    1.47    3.71   1
   8   2   8    4.33    4.00   1
   8   2   9    3.58    2.39   1
   8   2   9    5.40    2.55   1
   8   3  -9   -0.45    1.88   1
   8   3  -8   14.20    2.59   1
   8   3  -7   -0.80    1.31   1
   8   3  -6   -0.39    2.17   1
   8   3  -5    0.81    2.27   1
   8   3  -4    5.15    2.65   1
   8   3  -3    9.01    3.72  -1
  -8   7  -2    9.01    3.72   2
   8   3  -2    2.75    1.77   1
   8   3  -1   10.54    3.25   1
   8   3  -1    5.30    2.33   1
   8   3   0    4.57    3.25   1
   8   3   0    6.21    2.54   1
   8   3   1   14.27    2.42   1
   8   3   1   15.84    3.70   1
   8   3   2    0.83    3.23   1
   8   3   2    2.18    2.92   1
   8   3   3    0.54    2.01   1
   8   3   3    3.55    3.27   1
   8   3   4   87.80    9.11  -1
  -8   5  -8   87.80    9.11   2
   8   3   4   83.21    9.08  -1
  -8   5  -8   83.21    9.08   2
   8   3   5    0.17    3.60   1
   8   3   5    2.48    3.61   1
   8   3   6    3.54    2.38   1
   8   3   6   -2.58    3.63   1
   8   3   7   18.75    4.71   1
   8   3   7   18.09    3.19   1
   8   4  -9   16.06    2.79   1
   8   4  -8   -3.69    2.32   1
   8   4  -7    3.02    2.42   1
   8   4  -6    2.73    2.45   1
   8   4  -5    7.03    1.73   1
   8   4  -4   -2.37    3.94  -1
  -8   8  -2   -2.37    3.94   2
   8   4  -3    1.66    5.25  -1
  -8   8  -3    1.66    5.25   2
   8   4  -2    8.21    2.24   1
   8   4  -1   17.60    3.80   1
   8   4   0   11.92    2.38   1
   8   4   1    1.91    3.17   1
   8   4   1   -1.27    2.63   1
   8   4   2   -2.22    3.26   1
   8   4   2    2.94    2.99   1
   8   4   3   -1.85    3.35   1
   8   4   3   14.95    5.40  -1
  -8   6  -8   14.95    5.40   2
   8   4   4    3.04    3.50   1
   8   4   4    6.04    7.18  -1
  -8   6  -9    6.04    7.18   2
   8   4   5    2.04    3.59   1
   8   4   5    0.60    2.28   1
   8   5  -7   -1.15    1.49   1
   8   5  -6    2.50    2.52   1
   8   5  -5    1.65    2.70   1
   8   5  -4    6.72    3.53  -1
  -8   9  -3    6.72    3.53   2
   8   5  -3    0.86    2.74   1
   8   5  -2    8.70    2.07   1
   8   5  -1    5.85    3.51   1
   8   5   0    7.96    3.81   1
   8   5   1    2.08    2.09   1
   8   5   2   -3.60    3.48   1
   8   5   3   23.23    5.97  -1
  -8   7  -9   23.23    5.97   2
   8   5   3   22.57    6.45  -1
  -8   7  -9   22.57    6.45   2
   9  -8  -6   -3.87    3.33   1
   9  -8  -5   -2.02    3.23   1
   9  -8  -4    6.74    3.61   1
   9  -8  -3    7.15    5.18  -1
  -9  -2   8    7.15    5.18   2
   9  -8  -2    2.79    3.20   1
   9  -8  -1    2.47    2.06   1
   9  -8  -1    2.23    3.34   1
   9  -8   0    0.01    2.13   1
   9  -8   0   -2.91    3.26   1
   9  -8   1    0.80    2.39   1
   9  -8   1    5.59    3.52   1
   9  -8   2   -0.18    1.65   1
   9  -8   2    3.60    2.05   1
   9  -8   3    8.97    2.88   1
   9  -8   3    6.49    3.65   1
   9  -7  -8    3.26    3.35   1
   9  -7  -7    1.82    3.08   1
   9  -7  -6   -0.91    2.84   1
   9  -7  -5   -0.06    1.90   1
   9  -7  -4   19.77    4.09   1
   9  -7  -3    7.18    5.70  -1
  -9  -1   7    7.18    5.70   2
   9  -7  -2    0.47    1.77   1
   9  -7  -2    0.50    3.29   1
   9  -7  -1    7.38    2.27   1
   9  -7  -1    8.98    3.81   1
   9  -7   0   -0.06    2.09   1
   9  -7   0    1.48    5.19  -1
  -9  -2   4    1.48    5.19   2
   9  -7   1    8.33    2.69   1
   9  -7   1   10.64    3.68   1
   9  -7   2   -1.95    2.39   1
   9  -7   2    1.66    3.24   1
   9  -7   3    5.03    2.17   1
   9  -7   3    8.06    4.27  -1
  -9  -3   2    8.06    4.27   2
   9  -7   4   49.16    6.55  -1
  -9  -3   1   49.16    6.55   2
   9  -7   4   50.96    8.31  -1
  -9  -3   1   50.96    8.31   2
   9  -7   5    4.43    1.97   1
   9  -7   5    0.75    3.59   1
   9  -6  -9   -1.06    1.83   1
   9  -6  -8    9.98    2.88   1
   9  -6  -7    4.67    2.90   1
   9  -6  -6    2.02    2.60   1
   9  -6  -5    7.19    3.17   1
   9  -6  -4    4.36    4.25  -1
  -9   0   7    4.36    4.25   2
   9  -6  -3    5.94    3.43   1
   9  -6  -2    4.09    1.97   1
   9  -6  -2    6.81    3.50   1
   9  -6  -1    1.08    1.19   1
   9  -6  -1    2.20    3.16   1
   9  -6   0    3.51    2.26   1
   9  -6   0   21.48    7.06  -1
  -9  -1   3   21.48    7.06   2
   9  -6   1    3.96    1.60   1
   9  -6   1    6.22    3.29   1
   9  -6   2   10.08    2.90   1
   9  -6   2   10.76    3.59   1
   9  -6   3   14.21    3.88  -1
  -9  -2   1   14.21    3.88   2
   9  -6   3   18.69    5.71  -1
  -9  -2   1   18.69    5.71   2
   9  -6   4    7.52    3.13   1
   9  -6   4    9.97    3.83   1
   9  -6   5    3.10    1.87   1
   9  -6   5    3.74    2.26   1
   9  -6   6    1.33    1.90   1
   9  -6   6    0.18    5.77  -1
  -9  -3  -1    0.18    5.77   2
   9  -6   7   -1.39    1.98   1
   9  -6   7   -4.48    4.31  -1
  -9  -3  -3   -4.48    4.31   2
   9  -5  -9   -0.76    1.57   1
   9  -5  -8    7.13    1.58   1
   9  -5  -7    0.54    2.25   1
   9  -5  -6    0.76    2.67   1
   9  -5  -5   16.09    3.17   1
   9  -5  -4   -0.50    4.90  -1
  -9   1   6   -0.50    4.90   2
   9  -5  -3   -0.15    1.64   1
   9  -5  -3    4.98    3.17   1
   9  -5  -2   12.69    2.24   1
   9  -5  -2   11.35    3.70   1
   9  -5  -1    2.82    2.09   1
   9  -5  -1    4.95    2.00   1
   9  -5   0   16.10    2.80   1
   9  -5   0   17.13    3.70   1
   9  -5   1    1.78    2.31   1
   9  -5   1   -4.21    2.90   1
   9  -5   2    3.18    1.89   1
   9  -5   2    7.77    4.22  -1
  -9  -1   1    7.77    4.22   2
   9  -5   3  108.94    8.37  -1
  -9  -1   0  108.94    8.37   2
   9  -5   3  109.50    8.60  -1
  -9  -1   0  109.50    8.60   2
   9  -5   4    0.64    1.91   1
   9  -5   4    6.24    3.32   1
   9  -5   5   -0.28    1.81   1
   9  -5   5   -1.58    3.02   1
   9  -5   6   -3.42    1.83   1
   9  -5   6    3.17    1.99   1
   9  -5   7    0.13    2.04   1
   9  -5   7    1.28    6.20  -1
  -9  -2  -4    1.28    6.20   2
   9  -4  -8    1.65    1.94   1
   9  -4  -7   -2.45    2.13   1
   9  -4  -6    3.91    2.59   1
   9  -4  -5    9.51    4.12  -1
  -9   2   6    9.51    4.12   2
   9  -4  -4    3.33    2.91   1
   9  -4  -4   14.95    3.20  -1
  -9   2   5   14.95    3.20   2
   9  -4  -3    6.64    1.91   1
   9  -4  -3    6.07    3.09   1
   9  -4  -2   -0.33    1.82   1
   9  -4  -2   -3.17    2.86   1
   9  -4  -1    4.83    2.23   1
   9  -4  -1   24.63    5.96  -1
  -9   1   2   24.63    5.96   2
   9  -4   0    1.68    2.36   1
   9  -4   0    5.04    2.99   1
   9  -4   1   14.55    1.98   1
   9  -4   1    6.75    3.47   1
   9  -4   2   39.45    4.38  -1
  -9   0   0   39.45    4.38   2
   9  -4   2   41.34    6.47  -1
  -9   0   0   41.34    6.47   2
   9  -4   3   13.68    3.62   1
   9  -4   3   42.69    6.66  -1
  -9   0  -1   42.69    6.66   2
   9  -4   4    2.19    2.88   1
   9  -4   4   -0.27    3.06   1
   9  -4   5    1.02    1.85   1
   9  -4   5    0.60    3.24   1
   9  -4   6    1.52    1.95   1
   9  -4   6   -0.95    3.37   1
   9  -4   7    2.02    1.96   1
   9  -4   7    1.74    1.93   1
   9  -4   8    7.31    3.80   1
   9  -4   8   16.40    6.99  -1
  -9  -2  -5   16.40    6.99   2
   9  -3  -6   17.78    2.69   1
   9  -3  -5    4.26    4.42  -1
  -9   3   5    4.26    4.42   2
   9  -3  -4    3.15    1.59   1
   9  -3  -4   -0.96    2.82   1
   9  -3  -3   27.40    2.66   1
   9  -3  -3   22.87    2.62   1
   9  -3  -2    2.70    2.04   1
   9  -3  -2   -1.77    4.52  -1
  -9   2   3   -1.77    4.52   2
   9  -3  -1   23.38    2.74   1
   9  -3   0   -0.15    2.24   1
   9  -3   0    0.50    1.71   1
   9  -3   1   -2.17    2.79   1
   9  -3   1    2.62    3.20  -1
  -9   1   0    2.62    3.20   2
   9  -3   2  157.63   10.04  -1
  -9   1  -1  157.63   10.04   2
   9  -3   2  165.18   11.48  -1
  -9   1  -1  165.18   11.48   2
   9  -3   3    1.02    1.73   1
   9  -3   3   12.03    5.35  -1
  -9   1  -2   12.03    5.35   2
   9  -3   4   -2.76    2.89   1
   9  -3   4    3.31    2.79   1
   9  -3   5    2.03    1.93   1
   9  -3   5   -6.42    3.11   1
   9  -3   6    0.54    2.01   1
   9  -3   6    1.43    2.18   1
   9  -3   7   -0.24    3.57   1
   9  -3   7   11.72    5.54  -1
  -9  -1  -5   11.72    5.54   2
   9  -3   8    9.80    5.15  -1
  -9  -1  -6    9.80    5.15   2
   9  -3   8   13.11    7.65  -1
  -9  -1  -6   13.11    7.65   2
   9  -2  -5    0.83    2.22   1
   9  -2  -5   13.72    3.09  -1
  -9   4   4   13.72    3.09   2
   9  -2  -4   10.38    2.02   1
   9  -2  -4    6.63    2.68   1
   9  -2  -3   -0.34    1.81   1
   9  -2  -3   31.23    5.84  -1
  -9   3   3   31.23    5.84   2
   9  -2  -2    9.52    2.35   1
   9  -2  -2   25.87    3.54   1
   9  -2  -1    2.72    2.47   1
   9  -2  -1    3.56    2.57   1
   9  -2   0   12.37    3.07   1
   9  -2   0   30.13    5.12  -1
  -9   2   0   30.13    5.12   2
   9  -2   1   42.30    4.80  -1
  -9   2  -1   42.30    4.80   2
   9  -2   1   34.87    5.59  -1
  -9   2  -1   34.87    5.59   2
   9  -2   2   20.60    3.69   1
   9  -2   2   43.97    6.68  -1
  -9   2  -2   43.97    6.68   2
   9  -2   3    7.58    3.20   1
   9  -2   4    0.70    3.08   1
   9  -2   4   10.56    5.90  -1
  -9   1  -3   10.56    5.90   2
   9  -2   5   -0.03    1.88   1
   9  -2   5   -0.56    1.86   1
   9  -2   6   -1.03    3.12   1
   9  -2   6   -0.17    5.60  -1
  -9   0  -5   -0.17    5.60   2
   9  -2   7    5.70    2.34   1
   9  -2   7   16.55    5.17  -1
  -9   0  -6   16.55    5.17   2
   9  -2   8   26.12    4.91  -1
  -9   0  -7   26.12    4.91   2
   9  -2   8   26.98    6.52  -1
  -9   0  -7   26.98    6.52   2
   9  -1  -5    0.79    1.77   1
   9  -1  -4   28.43    2.75   1
   9  -1  -4   17.11    3.72   1
   9  -1  -3   -1.16    2.06   1
   9  -1  -3    7.96    5.77  -1
  -9   4   2    7.96    5.77   2
   9  -1  -2   29.30    3.17   1
   9  -1  -2   32.18    6.01  -1
  -9   4   0   32.18    6.01   2
   9  -1  -1    5.17    2.56   1
   9  -1  -1   10.29    4.78  -1
  -9   3   0   10.29    4.78   2
   9  -1   0   -3.37    2.55   1
   9  -1   0    5.62    3.36  -1
  -9   3  -1    5.62    3.36   2
   9  -1   1  170.43   10.50  -1
  -9   3  -2  170.43   10.50   2
   9  -1   1  147.53   11.47  -1
  -9   3  -2  147.53   11.47   2
   9  -1   2   -0.88    2.69   1
   9  -1   2    0.34    3.88  -1
  -9   3  -3    0.34    3.88   2
   9  -1   3    1.12    2.54   1
   9  -1   3   -1.11    2.66   1
   9  -1   4    3.16    3.08   1
   9  -1   4    0.81    3.10   1
   9  -1   5   -0.64    1.95   1
   9  -1   5   -4.08    3.35   1
   9  -1   6    6.92    3.41   1
   9  -1   6   -1.22    2.04   1
   9  -1   7   11.59    4.59  -1
  -9   1  -7   11.59    4.59   2
   9  -1   7    5.81    6.16  -1
  -9   1  -7    5.81    6.16   2
   9  -1   8   48.94    6.92  -1
  -9   1  -8   48.94    6.92   2
   9  -1   8   44.31    9.84  -1
  -9   1  -8   44.31    9.84   2
   9   0  -6    0.62    1.77   1
   9   0  -5    9.13    2.16   1
   9   0  -4   -0.13    1.99   1
   9   0  -3   11.35    2.62   1
   9   0  -2    0.37    2.42   1
   9   0  -2    1.31    2.13   1
   9   0  -1    5.93    1.85   1
   9   0  -1    6.66    2.27   1
   9   0   0   27.97    4.45  -1
  -9   4  -2   27.97    4.45   2
   9   0   0   35.57    4.92  -1
  -9   4  -2   35.57    4.92   2
   9   0   1   11.63    2.82   1
   9   0   1   43.52    7.11  -1
  -9   4  -3   43.52    7.11   2
   9   0   2    4.29    1.79   1
   9   0   2    4.46    2.72   1
   9   0   3    0.26    2.89   1
   9   0   3    0.98    2.79   1
   9   0   4    1.85    2.02   1
   9   0   4    4.27    2.96   1
   9   0   5    0.12    2.13   1
   9   0   5    0.48    5.49  -1
  -9   2  -6    0.48    5.49   2
   9   0   6    5.37    3.92   1
   9   0   6   11.60    6.28  -1
  -9   2  -7   11.60    6.28   2
   9   0   7   25.43    4.89  -1
  -9   2  -8   25.43    4.89   2
   9   0   7   12.75    6.29  -1
  -9   2  -8   12.75    6.29   2
   9   1  -6    3.46    2.05   1
   9   1  -5   19.92    2.83   1
   9   1  -4   -0.85    2.23   1
   9   1  -3   18.30    3.05   1
   9   1  -2    2.62    2.56   1
   9   1  -1    0.42    1.95   1
   9   1  -1   -4.53    3.89  -1
  -9   5  -2   -4.53    3.89   2
   9   1   0  117.89   10.10  -1
  -9   5  -3  117.89   10.10   2
   9   1   0   87.39    8.84  -1
  -9   5  -3   87.39    8.84   2
   9   1   1    2.81    1.92   1
   9   1   1    1.85    2.43   1
   9   1   2   -0.29    3.13   1
   9   1   2   -3.17    2.91   1
   9   1   3    7.80    3.40   1
   9   1   3    3.37    3.37   1
   9   1   4   -0.55    3.13   1
   9   1   4    2.83    2.03   1
   9   1   5    6.84    3.81   1
   9   1   5   12.29    6.76  -1
  -9   3  -7   12.29    6.76   2
   9   1   6    8.45    5.25  -1
  -9   3  -8    8.45    5.25   2
   9   1   6    6.37    7.84  -1
  -9   3  -8    6.37    7.84   2
   9   2  -7    4.11    2.31   1
   9   2  -6    2.56    1.59   1
   9   2  -5    6.56    2.59   1
   9   2  -4    3.23    1.64   1
   9   2  -3    4.43    2.70   1
   9   2  -2    4.05    1.79   1
   9   2  -1   21.30    4.36  -1
  -9   6  -3   21.30    4.36   2
   9   2   0    8.50    2.09   1
   9   2   1    5.13    3.17   1
   9   2   1    6.35    2.71   1
   9   2   2    0.34    1.76   1
   9   2   2   -1.26    2.72   1
   9   2   3   -1.97    3.25   1
   9   2   3   -0.82    2.03   1
   9   2   4    2.08    2.09   1
   9   2   4   -0.07    3.31   1
   9   2   5    5.94    3.90   1
   9   2   5    7.97    3.87   1
   9   3  -7    2.04    1.51   1
   9   3  -6    9.65    2.88   1
   9   3  -5    1.85    1.59   1
   9   3  -4    7.71    2.81   1
   9   3  -3    0.78    1.64   1
   9   3  -2    6.51    4.22  -1
  -9   7  -3    6.51    4.22   2
   9   3  -1   56.82    5.66  -1
  -9   7  -4   56.82    5.66   2
   9   3   0   10.53    3.42   1
   9   3   1    1.22    1.98   1
   9   3   2    9.81    3.76   1
   9   3   3    8.69    3.54   1
   9   3   3   -0.34    3.15   1
  10  -6  -5    5.66    3.05   1
  10  -6  -4    1.90    3.05   1
  10  -6  -3    7.70    3.67   1
  10  -6  -2   28.46    7.74  -1
 -10   0   5   28.46    7.74   2
  10  -6  -1    7.33    3.63   1
  10  -6   0   -0.86    2.19   1
  10  -6   0   -2.32    3.16   1
  10  -6   1    3.21    2.25   1
  10  -6   1    0.38    3.85  -1
 -10  -1   3    0.38    3.85   2
  10  -5  -6   -2.09    2.66   1
  10  -5  -5    4.48    1.76   1
  10  -5  -4    1.68    2.75   1
  10  -5  -3   10.02    5.59  -1
 -10   1   5   10.02    5.59   2
  10  -5  -2   13.72    3.86   1
  10  -5  -1    4.85    2.38   1
  10  -5  -1    7.81    2.30   1
  10  -5   0    2.29    2.18   1
  10  -5   0   -0.55    1.84   1
  10  -5   1   -1.15    2.31   1
  10  -5   1   -3.92    3.85  -1
 -10   0   1   -3.92    3.85   2
  10  -5   2    8.91    2.01   1
  10  -5   2   12.11    3.52   1
  10  -5   3   -3.01    3.12   1
  10  -5   3    0.81    4.96  -1
 -10  -1   0    0.81    4.96   2
  10  -4  -4   10.93    3.43   1
  10  -4  -3   36.34    6.84  -1
 -10   2   4   36.34    6.84   2
  10  -4  -2   11.52    2.35   1
  10  -4  -1    3.20    2.00   1
  10  -4  -1    1.59    3.01   1
  10  -4   0    1.88    1.32   1
  10  -4   0   -0.53    4.67  -1
 -10   1   2   -0.53    4.67   2
  10  -4   1   -1.14    2.42   1
  10  -4   1   -5.79    3.05   1
  10  -4   2   10.35    3.33   1
  10  -4   2   14.56    5.56  -1
 -10   0   0   14.56    5.56   2
  10  -4   3   -2.67    2.02   1
  10  -4   3    3.29    4.63  -1
 -10   0  -1    3.29    4.63   2
  10  -4   4    3.48    4.04  -1
 -10   0  -2    3.48    4.04   2
  10  -4   4    1.98    5.17  -1
 -10   0  -2    1.98    5.17   2
  10  -3  -3   13.33    3.41   1
  10  -3  -2    9.47    2.48   1
  10  -3  -2   11.71    3.33   1
  10  -3  -1    5.75    2.30   1
  10  -3  -1    6.30    5.17  -1
 -10   2   2    6.30    5.17   2
  10  -3   0    2.91    2.36   1
  10  -3   0    2.03    4.73  -1
 -10   2   0    2.03    4.73   2
  10  -3   1   10.96    2.87   1
  10  -3   1    8.81    3.39   1
  10  -3   2    1.80    2.73   1
  10  -3   2    2.17    4.48  -1
 -10   1  -1    2.17    4.48   2
  10  -3   3    0.89    3.31  -1
 -10   1  -2    0.89    3.31   2
  10  -3   3    6.55    4.49  -1
 -10   1  -2    6.55    4.49   2
  10  -3   4    6.81    2.46   1
  10  -3   4   28.77    5.62  -1
 -10   1  -3   28.77    5.62   2
  10  -2  -2    6.16    2.41   1
  10  -2  -2    8.99    3.03   1
  10  -2  -1    0.30    2.28   1
  10  -2   0    7.20    2.71   1
  10  -2   0   17.63    4.62  -1
 -10   3  -1   17.63    4.62   2
  10  -2   1    8.22    2.88   1
  10  -2   1   18.20    5.10  -1
 -10   2  -1   18.20    5.10   2
  10  -2   2    1.27    1.65   1
  10  -2   2    7.38    3.46  -1
 -10   2  -2    7.38    3.46   2
  10  -2   3   -2.63    3.27  -1
 -10   2  -3   -2.63    3.27   2
  10  -2   3    4.42    3.80  -1
 -10   2  -3    4.42    3.80   2
  10  -2   4    8.21    3.52   1
  10  -2   4   34.54    5.32  -1
 -10   2  -4   34.54    5.32   2
  10  -1  -3    6.90    2.40   1
  10  -1  -2    0.93    2.14   1
  10  -1  -1   -1.18    2.30   1
  10  -1   0    7.76    1.79   1
  10  -1   0   12.22    2.89   1
  10  -1   1   -1.06    2.39   1
  10  -1   1    4.08    3.66  -1
 -10   3  -2    4.08    3.66   2
  10  -1   2    2.01    3.35  -1
 -10   3  -3    2.01    3.35   2
  10  -1   2    5.56    4.01  -1
 -10   3  -3    5.56    4.01   2
  10  -1   3   17.77    3.82   1
  10  -1   3   43.14    6.27  -1
 -10   3  -4   43.14    6.27   2
  10   0  -4    7.02    1.58   1
  10   0  -3    5.02    2.40   1
  10   0  -2    2.29    2.34   1
  10   0  -1   -1.85    2.61   1
  10   0   0    0.52    2.42   1
  10   0   1    1.03    2.36   1
  10   0   1    4.78    3.70  -1
 -10   4  -3    4.78    3.70   2
  10   0   2    6.82    4.53  -1
 -10   4  -4    6.82    4.53   2
  10   0   2    3.86    3.75  -1
 -10   4  -4    3.86    3.75   2
  10   1  -4    1.80    1.55   1
  10   1  -3    1.53    2.38   1
  10   1  -2    0.41    2.52   1
  10   1  -1    3.24    1.78   1
  10   1   0    1.82    2.73   1
   0   0   1    6.09    0.99   2
   0   0  -1    6.10    0.88   2
   0   0   2   12.51    1.99   2
   0   0  -2   13.67    1.96   2
   0   0   3  120.35    3.80   2
   0   0  -3  135.34    5.75   2
   0   0   4   99.40    4.58   2
   0   0  -4   93.20    4.70   2
   0   0   5  163.13    6.49   2
   0   0  -5  165.19    6.89   2
   0   0   6    9.94    2.28   2
   0   0  -6   11.20    1.59   2
   0   0   8   28.31    2.95   2
   0   0  -8   35.78    3.44   2
   0   0   9   42.01    3.23   2
   0   0  -9   32.39    3.72   2
   0   0  10   25.34    2.89   2
   0   0 -10   32.18    3.64   2
   0   0  11   65.52    4.06   2
   0   0 -11   65.26    4.83   2
   0   0  12  175.76    8.20   2
   0   0 -12  183.27    9.05   2
   0   0 -15   11.50    3.52   2
   0   0 -16   -1.82    3.03   2
   0   0 -17    4.56    3.23   2
   0   0 -18    4.33    3.28   2
   0   0 -19    9.58    2.30   2
   0   1 -19   35.64    4.97   2
   0   1 -18   12.07    3.97   2
   0   1 -17   14.09    3.96   2
   0   1 -16   29.06    4.50   2
   0   1 -13  205.85   10.77   2
   0   1 -12    6.35    3.09   2
   0  -1  12   10.80    2.47   2
   0   1 -11   42.70    4.25   2
   0  -1  11   37.68    3.50   2
   0   1 -10   66.60    4.79   2
   0  -1  10   52.04    3.92   2
   0   1  -9    5.98    2.92   2
   0  -1   9    7.33    2.40   2
   0   1  -7   54.25    4.15   2
   0   1  -6   98.85    5.33   2
   0  -1   6  106.32    5.09   2
   0   1  -5   20.72    2.82   2
   0  -1   5   19.34    2.77   2
   0   1  -4   75.36    4.41   2
   0  -1   4   77.84    4.06   2
   0   1  -3   33.85    2.07   2
   0  -1   3   40.29    3.45   2
   0   1  -2  116.81    5.30   2
   0  -1   2  122.35    5.21   2
   0   1  -1  283.46    9.96   2
   0   1  -1  261.61    7.53   2
   0  -1   1  285.11   10.26   2
   0  -1   1  294.72    9.77   2
   0   1   0  321.19   11.11   2
   0   1   0  323.81    9.77   2
   0  -1   0  286.09    8.33   2
   0  -1   0  293.15    7.66   2
   0   1   1  188.06    7.29   2
   0   1   1  192.08    6.34   2
   0  -1  -1  174.99    6.74   2
   0  -1  -1  186.91    5.83   2
   0   1   2   38.77    3.43   2
   0  -1  -2   36.61    3.20   2
   0   1   3   94.40    4.39   2
   0  -1  -3   86.97    3.09   2
   0   1   4    5.21    2.30   2
   0  -1  -4    6.81    2.40   2
   0   1   5  126.07    5.42   2
   0  -1  -5  120.98    5.29   2
   0   1   7   55.10    3.45   2
   0   1   8   32.36    2.04   2
   0  -1  -8   33.29    3.25   2
   0   1   9   72.40    4.20   2
   0  -1  -9   72.29    4.68   2
   0   1  10   39.38    2.40   2
   0  -1 -10   41.76    3.89   2
   0   1  11   20.97    2.79   2
   0  -1 -11   19.51    3.32   2
   0   1  12  250.04   11.50   2
   0  -1 -12  291.32   13.10   2
   0  -1 -15   44.69    4.87   2
   0  -1 -16   25.29    4.18   2
   0  -1 -17   19.34    3.84   2
   0  -1 -18   65.41    5.61   2
   0   2 -19    0.32    3.63   2
   0   2 -18   -0.36    3.48   2
   0   2 -17    1.15    2.00   2
   0   2 -16    7.46    3.77   2
   0   2 -14   11.77    4.02   2
   0   2 -13  151.15    9.34   2
   0   2 -12   42.93    3.14   2
   0  -2  12   55.10    4.28   2
   0   2 -11   17.06    2.12   2
   0  -2  11   20.75    2.97   2
   0   2 -10   32.84    2.62   2
   0  -2  10   28.92    3.28   2
   0   2  -9    1.21    2.86   2
   0  -2   9    2.28    1.46   2
   0   2  -7    6.45    1.69   2
   0  -2   7    5.15    1.58   2
   0   2  -6   80.67    5.10   2
   0  -2   6   87.66    3.65   2
   0   2  -5    5.66    2.58   2
   0  -2   5    5.62    1.46   2
   0   2  -4   62.88    3.22   2
   0  -2   4   79.45    4.69   2
   0   2  -3   23.26    3.41   2
   0   2  -3   19.44    3.08   2
   0   2  -3   20.45    3.03   2
   0   2  -2    2.17    2.78   2
   0   2  -2    6.11    2.52   2
   0  -2   2    2.45    2.80   2
   0  -2   2   -0.23    1.31   2
   0   2   0   14.20    2.02   2
   0   2   0   13.97    2.44   2
   0  -2   0   13.27    3.61   2
   0  -2   0   14.02    2.45   2
   0   2   1    1.92    2.91   2
   0   2   1    4.97    2.08   2
   0  -2  -1    3.40    3.19   2
   0  -2  -1    4.90    2.18   2
   0   2   2  146.09    7.05   2
   0   2   2  140.68    5.94   2
   0  -2  -2  141.72    7.25   2
   0  -2  -2  145.10    6.13   2
   0   2   3  162.61    7.30   2
   0  -2  -3  154.98    7.48   2
   0  -2  -3  159.64    6.85   2
   0   2   4  153.91    7.00   2
   0  -2  -4  154.05    7.15   2
   0   2   5   10.90    2.69   2
   0  -2  -5   11.13    2.74   2
   0   2   7   86.73    4.60   2
   0  -2  -7   88.64    4.97   2
   0   2   8   31.66    3.14   2
   0  -2  -8   30.88    3.43   2
   0   2   9   25.56    3.06   2
   0  -2  -9   22.02    2.09   2
   0   2  10   72.56    4.46   2
   0  -2 -10   76.65    5.04   2
   0   2  11  188.83    8.68   2
   0  -2 -11  195.76    9.61   2
   0  -2 -15   -2.76    3.13   2
   0  -2 -16    3.71    3.22   2
   0  -2 -17   10.13    3.59   2
   0  -2 -18   16.36    4.05   2
   0   3 -19    6.16    3.91   2
   0   3 -18    5.90    4.04   2
   0   3 -17   15.80    4.40   2
   0   3 -16    4.58    2.54   2
   0   3 -14  137.53    8.90   2
   0   3 -13    5.63    3.66   2
   0   3 -12   26.78    4.46   2
   0   3 -11   41.67    3.13   2
   0   3 -10    0.81    1.67   2
   0  -3  10   -1.98    2.38   2
   0   3  -9    8.46    3.40   2
   0  -3   9   15.91    2.90   2
   0   3  -7   67.64    4.65   2
   0  -3   7   58.62    4.56   2
   0   3  -6   16.78    2.21   2
   0   3  -6   20.82    2.13   2
   0   3  -6   15.44    2.42   2
   0   3  -5   41.25    4.13   2
   0   3  -5   46.42    4.31   2
   0   3  -5   39.05    4.08   2
   0   3  -4   25.47    3.26   2
   0   3  -4   23.18    2.17   2
   0   3  -4   25.18    3.45   2
   0   3  -3   56.46    2.99   2
   0   3  -3   58.80    4.29   2
   0  -3   3   52.69    3.25   2
   0  -3   3   54.25    4.85   2
   0   3  -2  156.90    5.97   2
   0   3  -2  172.71    7.67   2
   0  -3   2  162.29    8.44   2
   0  -3   2  154.12    7.32   2
   0   3  -1  216.73   10.21   2
   0   3  -1  213.26    8.74   2
   0  -3   1  203.56   10.11   2
   0  -3   1  197.35    6.90   2
   0   3   0  138.85    6.79   2
   0   3   0  131.64    4.48   2
   0  -3   0  125.02    5.52   2
   0  -3   0  128.68    5.60   2
   0   3   1   20.81    3.83   2
   0   3   1   26.78    2.77   2
   0  -3  -1   17.30    4.00   2
   0  -3  -1   25.96    2.80   2
   0   3   2   44.61    4.23   2
   0   3   2   46.12    2.25   2
   0  -3  -2   48.74    4.60   2
   0  -3  -2   44.22    3.55   2
   0   3   3   -1.09    2.67   2
   0   3   3   -0.82    2.08   2
   0  -3  -3    7.64    2.87   2
   0  -3  -3   -0.04    2.25   2
   0   3   4   74.56    3.57   2
   0  -3  -4   78.29    5.12   2
   0  -3  -4   69.38    4.61   2
   0   3   5   74.25    4.92   2
   0   3   6   17.15    3.19   2
   0  -3  -6   13.89    2.12   2
   0   3   7   71.04    4.44   2
   0  -3  -7   65.90    4.88   2
   0   3   8   61.46    4.26   2
   0  -3  -8   55.20    4.33   2
   0   3   9   21.29    3.10   2
   0  -3  -9   20.55    2.15   2
   0   3  10   18.46    3.24   2
   0  -3 -10   23.59    3.44   2
   0   3  11  192.94    9.52   2
   0  -3 -11  192.15    7.74   2
   0  -3 -14   33.91    4.56   2
   0  -3 -15   24.58    4.10   2
   0  -3 -16    9.68    3.72   2
   0  -3 -17   96.53    6.88   2
   0   4 -19    3.98    4.20   2
   0   4 -18   12.95    4.80   2
   0   4 -17    2.99    2.34   2
   0   4 -15    7.32    2.71   2
   0   4 -14   61.02    4.57   2
   0   4 -13   25.75    3.02   2
   0   4 -12    9.81    2.42   2
   0   4 -11   21.61    2.72   2
   0   4 -10    3.64    3.41   2
   0   4  -8    4.47    3.10   2
   0   4  -8    9.37    2.01   2
   0   4  -8    4.52    3.65   2
   0   4  -7   32.82    3.98   2
   0   4  -7   32.75    4.24   2
   0   4  -7   34.40    4.01   2
   0   4  -6    2.82    2.71   2
   0   4  -6    0.96    1.87   2
   0   4  -6    2.22    2.64   2
   0   4  -5   34.90    3.97   2
   0   4  -5   24.57    4.04   2
   0   4  -5   34.68    3.77   2
   0   4  -4   21.90    3.32   2
   0   4  -4   18.68    3.14   2
   0  -4   4    8.41    2.36   2
   0  -4   4    9.75    2.06   2
   0   4  -3    0.80    2.95   2
   0   4  -3    5.57    2.57   2
   0  -4   3    8.19    3.51   2
   0  -4   3    5.52    2.61   2
   0   4  -1   15.31    2.19   2
   0   4  -1   14.06    2.75   2
   0  -4   1   13.71    3.97   2
   0  -4   1   13.03    2.94   2
   0   4   0    6.28    1.82   2
   0   4   0    4.17    2.26   2
   0  -4   0    1.45    3.53   2
   0  -4   0    5.38    2.42   2
   0   4   1   99.98    6.35   2
   0   4   1   99.58    5.02   2
   0  -4  -1  107.75    7.19   2
   0  -4  -1   92.10    5.03   2
   0   4   2   95.02    5.94   2
   0   4   2   94.31    5.03   2
   0  -4  -2   95.59    6.42   2
   0  -4  -2   94.73    5.23   2
   0   4   3   73.72    5.32   2
   0   4   3   75.05    3.17   2
   0  -4  -3   76.38    5.82   2
   0  -4  -3   73.48    4.60   2
   0   4   4   11.78    2.12   2
   0   4   4   19.20    2.64   2
   0  -4  -4   18.20    2.25   2
   0  -4  -4   10.57    2.72   2
   0   4   6  118.39    5.00   2
   0  -4  -6  112.38    7.00   2
   0  -4  -6  114.74    5.00   2
   0   4   7   22.68    2.34   2
   0  -4  -7   15.15    2.30   2
   0  -4  -7   27.27    3.56   2
   0   4   8   14.66    3.11   2
   0  -4  -8   11.93    2.24   2
   0  -4  -8    9.64    3.51   2
   0   4   9   49.18    4.27   2
   0  -4  -9   57.37    4.89   2
   0  -4  -9   46.93    4.74   2
   0   4  10  104.17    6.65   2
   0  -4 -10  110.10    6.94   2
   0  -4 -10  116.01    7.38   2
   0  -4 -13    5.75    3.34   2
   0  -4 -14    2.36    2.02   2
   0  -4 -15   -2.19    3.24   2
   0  -4 -16    5.60    3.58   2
   0  -4 -17   22.51    4.23   2
   0   5 -18    9.00    4.29   2
   0   5 -17    0.68    3.96   2
   0   5 -15   65.86    6.79   2
   0   5 -14    3.52    4.14   2
   0   5 -13   12.49    4.52   2
   0   5 -12   19.83    4.58   2
   0   5 -11   -0.82    2.04   2
   0   5 -10    7.80    2.30   2
   0   5  -8   23.15    4.70   2
   0   5  -7   17.36    2.63   2
   0   5  -6   19.60    3.98   2
   0   5  -6   24.26    4.27   2
   0   5  -6   23.12    3.72   2
   0   5  -5   14.17    3.57   2
   0   5  -5   14.96    2.38   2
   0   5  -5   14.48    1.97   2
   0   5  -4   17.48    3.94   2
   0   5  -4   24.19    3.41   2
   0  -5   4   22.36    4.64   2
   0  -5   4   17.40    4.06   2
   0   5  -3   69.17    5.66   2
   0   5  -3   67.62    4.98   2
   0  -5   3   63.62    3.96   2
   0  -5   3   66.29    5.08   2
   0   5  -2   83.90    6.09   2
   0   5  -2   78.81    3.82   2
   0  -5   2   89.14    6.74   2
   0  -5   2   79.31    5.55   2
   0   5  -1   62.49    3.67   2
   0   5  -1   66.04    4.52   2
   0  -5   1   67.99    6.20   2
   0  -5   1   64.33    4.39   2
   0   5   0   18.85    3.41   2
   0   5   0    9.59    2.60   2
   0  -5   0   15.01    2.65   2
   0  -5   0   14.35    1.81   2
   0   5   1   21.56    3.72   2
   0   5   1   16.15    2.84   2
   0  -5  -1   24.13    4.64   2
   0  -5  -1   18.30    3.20   2
   0   5   2    0.16    1.66   2
   0   5   2    1.38    2.20   2
   0  -5  -2   -0.03    2.14   2
   0  -5  -2    2.26    2.53   2
   0   5   3   27.83    2.66   2
   0   5   3   26.98    2.97   2
   0  -5  -3   22.78    4.32   2
   0  -5  -3   28.33    3.56   2
   0   5   5    7.29    3.23   2
   0   5   5    6.09    2.49   2
   0  -5  -5   17.03    3.86   2
   0  -5  -5    5.64    1.83   2
   0   5   6   75.32    5.56   2
   0  -5  -6   81.08    6.07   2
   0  -5  -6   70.91    5.29   2
   0   5   7   36.42    4.35   2
   0  -5  -7   40.76    4.83   2
   0  -5  -7   37.19    4.20   2
   0   5   8    8.63    2.89   2
   0  -5  -8    6.58    3.66   2
   0  -5  -8    6.22    3.19   2
   0  -5  -9   19.72    2.57   2
   0  -5  -9   17.48    3.96   2
   0  -5 -10   98.49    7.43   2
   0  -5 -10   97.45    7.07   2
   0  -5 -13   19.45    4.47   2
   0  -5 -13   27.50    4.97   2
   0  -5 -14   13.34    3.98   2
   0  -5 -14    9.95    4.42   2
   0  -5 -15    6.91    3.61   2
   0  -5 -15    9.77    2.77   2
   0  -5 -16   75.42    4.83   2
   0  -5 -16   76.95    5.68   2
   0  -5 -17    1.40    2.20   2
   0  -5 -17    0.75    4.07   2
   0   6 -16    3.74    2.70   2
   0   6 -15   26.75    3.67   2
   0   6 -14    8.38    2.82   2
   0   6 -13    6.06    2.76   2
   0   6 -12   19.69    3.11   2
   0   6 -11    1.38    2.10   2
   0   6  -9    1.86    3.65   2
   0   6  -8   15.78    4.45   2
   0   6  -7    6.68    2.34   2
   0   6  -6    9.80    2.40   2
   0   6  -5   11.08    2.05   2
   0  -6   5    8.26    2.74   2
   0  -6   5    6.20    2.49   2
   0   6  -4    0.01    2.71   2
   0  -6   4   -2.09    2.32   2
   0  -6   4    2.39    1.75   2
   0   6  -2   10.68    2.89   2
   0  -6   2    9.99    4.40   2
   0  -6   2   16.26    3.30   2
   0   6  -1    2.62    2.61   2
   0  -6   1    0.88    2.39   2
   0  -6   1    5.95    1.68   2
   0   6   0   48.97    4.47   2
   0  -6   0   63.64    6.38   2
   0  -6   0   59.31    5.05   2
   0   6   1   40.01    4.79   2
   0  -6  -1   44.06    5.90   2
   0  -6  -1   37.28    3.91   2
   0   6   2   28.12    2.67   2
   0   6   2   26.70    3.58   2
   0  -6  -2   28.23    3.30   2
   0  -6  -2   25.25    3.62   2
   0   6   3    9.23    2.48   2
   0  -6  -3   14.65    4.05   2
   0  -6  -3    8.22    3.06   2
   0   6   5   81.89    4.28   2
   0  -6  -5   96.99    7.22   2
   0  -6  -5   89.01    5.75   2
   0  -6  -6   12.01    4.48   2
   0  -6  -6   18.44    2.28   2
   0  -6  -7    5.72    3.92   2
   0  -6  -7    1.29    3.16   2
   0  -6  -8   29.75    4.95   2
   0  -6  -8   37.46    4.35   2
   0  -6  -9   52.13    3.99   2
   0  -6  -9   45.97    3.57   2
   0  -6 -10   24.96    4.71   2
   0  -6 -10   20.19    2.70   2
   0  -6 -12   11.79    3.91   2
   0  -6 -12   10.92    4.25   2
   0  -6 -13    0.06    2.26   2
   0  -6 -13    2.63    2.21   2
   0  -6 -14   -1.33    3.63   2
   0  -6 -14   -3.48    3.95   2
   0  -6 -15   -0.10    3.94   2
   0  -6 -15    8.59    4.20   2
   0  -6 -16   15.73    4.45   2
   0  -6 -16   17.72    3.28   2
   0   7 -16   13.51    5.14   2
   0   7 -15    2.81    2.51   2
   0   7 -14    4.38    2.78   2
   0   7 -13   15.81    3.28   2
   0   7 -12   -3.58    2.56   2
   0   7 -11    1.79    2.34   2
   0   7  -9    6.87    4.50   2
   0   7  -8   16.06    4.90   2
   0   7  -7   10.36    4.18   2
   0   7  -6   15.53    4.49   2
   0  -7   5    7.31    3.13   2
   0  -7   5   10.03    2.61   2
   0  -7   4   18.65    3.50   2
   0  -7   4   23.53    3.90   2
   0   7  -3   25.52    2.73   2
   0  -7   3   30.51    5.06   2
   0  -7   3   24.64    2.67   2
   0   7  -2   26.46    3.78   2
   0  -7   2   34.80    5.37   2
   0  -7   2   23.43    4.14   2
   0   7  -1    5.99    2.85   2
   0  -7   1    4.78    4.36   2
   0  -7   1   10.43    3.04   2
   0   7   0    7.15    1.80   2
   0  -7   0    9.87    4.47   2
   0  -7   0    4.77    3.18   2
   0   7   1    3.53    2.50   2
   0  -7  -1    4.17    2.73   2
   0  -7  -1   -1.63    2.79   2
   0   7   2    6.73    3.02   2
   0  -7  -2    8.13    3.01   2
   0  -7  -2    5.11    3.02   2
   0   7   3   18.01    3.30   2
   0   7   4    7.08    2.92   2
   0  -7  -4    6.45    2.69   2
   0  -7  -4    4.40    3.22   2
   0   7   5   39.22    4.53   2
   0  -7  -5   52.70    4.29   2
   0  -7  -5   53.02    3.60   2
   0   7   6   16.22    3.66   2
   0  -7  -6   29.63    3.14   2
   0  -7  -7    3.45    4.08   2
   0  -7  -7    3.26    3.15   2
   0  -7  -8   16.64    4.66   2
   0  -7  -9   35.83    3.87   2
   0  -7  -9   30.80    4.93   2
   0  -7 -11    3.60    4.00   2
   0  -7 -12    5.13    4.08   2
   0  -7 -12   12.22    4.08   2
   0  -7 -13   -0.05    2.27   2
   0  -7 -13    6.57    3.71   2
   0  -7 -14    6.64    3.98   2
   0  -7 -14    2.59    3.89   2
   0  -7 -15   45.41    5.81   2
   0  -7 -15   40.95    6.17   2
   0   8 -15    6.44    3.07   2
   0   8 -14    5.07    2.94   2
   0   8 -13    4.70    2.74   2
   0   8 -12   -1.23    3.91   2
   0   8 -10    2.59    4.32   2
   0   8  -9    2.10    4.25   2
   0   8  -8   10.46    2.81   2
   0   8  -7    7.83    2.74   2
   0   8  -6    7.88    2.85   2
   0  -8   5    1.48    2.92   2
   0  -8   5    3.12    2.59   2
   0  -8   3   15.99    3.09   2
   0  -8   3    9.82    3.99   2
   0  -8   2    1.14    2.63   2
   0  -8   2    0.02    3.16   2
   0  -8   1   24.81    3.74   2
   0  -8   0   16.78    3.44   2
   0  -8  -1    7.29    3.21   2
   0  -8  -1    8.89    3.69   2
   0  -8  -2    9.78    3.24   2
   0  -8  -2    8.01    2.13   2
   0  -8  -4   55.48    4.72   2
   0  -8  -4   48.21    5.38   2
   0  -8  -5    3.87    4.97   2
   0  -8  -5    8.80    2.18   2
   0  -8  -6    4.46    4.74   2
   0  -8  -6    7.73    3.38   2
   0  -8  -7   13.07    4.84   2
   0  -8  -7   10.44    3.80   2
   0  -8  -8   15.51    2.90   2
   0  -8  -8   15.18    4.17   2
   0  -8  -9   16.35    4.77   2
   0  -8  -9   14.78    3.67   2
   0  -8 -11    0.34    4.15   2
   0  -8 -11   -2.00    3.44   2
   0  -8 -12   -2.87    2.47   2
   0  -8 -12    1.89    2.21   2
   0  -8 -13    7.46    4.22   2
   0  -8 -13    0.50    3.70   2
   0  -8 -14   -2.21    3.48   2
   0  -8 -14    6.06    3.57   2
   0   9 -13    1.24    4.40   2
   0   9 -12   -3.12    4.15   2
   0   9 -11   -5.83    4.58   2
   0   9 -10   10.73    5.02   2
   0   9  -9    6.29    3.04   2
   0   9  -8    2.14    2.80   2
   0   9  -7    3.59    2.80   2
   0   9  -6    2.42    2.97   2
   0  -9   5    2.78    3.41   2
   0  -9   5   10.05    2.90   2
   0  -9   4    4.74    3.03   2
   0  -9   4    2.22    3.75   2
   0  -9   3   18.78    3.30   2
   0  -9   3    9.98    4.17   2
   0  -9   2   -2.62    4.54   2
   0  -9   2    0.87    2.11   2
   0  -9   1   12.32    5.29   2
   0  -9   1    0.82    3.64   2
   0  -9   0    0.97    4.68   2
   0  -9   0    0.92    3.22   2
   0  -9  -1    1.27    4.92   2
   0  -9  -1    1.65    3.09   2
   0  -9  -3    4.90    2.91   2
   0  -9  -3    1.31    3.07   2
   0  -9  -4   41.74    6.84   2
   0  -9  -4   26.62    4.63   2
   0  -9  -5   14.01    5.80   2
   0  -9  -5   11.30    4.05   2
   0  -9  -6    5.40    4.27   2
   0  -9  -6   -0.95    3.37   2
   0  -9  -7    4.02    3.24   2
   0  -9  -8    5.81    4.78   2
   0  -9  -8    9.48    2.48   2
   0  -9 -10    2.63    3.99   2
   0  -9 -10    0.30    3.46   2
   0  -9 -11    8.36    2.71   2
   0  -9 -11    0.16    2.29   2
   0  -9 -12   -0.99    4.20   2
   0  -9 -12   -1.78    3.55   2
   0  10 -11   -2.38    4.60   2
   0  10 -10   -2.29    4.45   2
   0  10  -9    5.31    4.90   2
   0  10  -8   11.07    5.06   2
   0  10  -7    1.48    2.78   2
   0  10  -6    4.04    2.95   2
   0 -10   4    0.03    5.01   2
   0 -10   4    0.98    2.29   2
   0 -10   3    2.08    4.56   2
   0 -10   3   -1.34    3.41   2
   0 -10   2    9.73    5.45   2
   0 -10   1    5.37    5.19   2
   0 -10   1    2.76    3.77   2
   0 -10   0   11.33    3.48   2
   0 -10   0    2.56    2.12   2
   0 -10  -1    0.82    5.23   2
   0 -10  -1    3.54    3.60   2
   0 -10  -3   18.97    5.91   2
   0 -10  -3   18.33    2.86   2
   0 -10  -4    4.50    3.49   2
   0 -10  -4    8.19    3.68   2
   0 -10  -5    6.00    5.03   2
   0 -10  -5   -4.30    3.30   2
   0 -10  -6    2.83    3.30   2
   0 -10  -7    4.00    5.11   2
   0 -10  -7    1.57    2.26   2
   0 -10  -8   -1.74    4.79   2
   0 -10  -8    3.57    3.50   2
   0 -10 -10    9.36    4.65   2
   0 -10 -10    0.17    3.62   2
   0  11  -7   -3.08    2.66   2
   0  11  -6   -0.15    3.11   2
   0 -11   5    1.06    3.65   2
   0 -11   5    6.36    2.92   2
   0 -11   4    7.32    6.30   2
   0 -11   4    7.39    4.08   2
   0 -11   3    2.88    3.48   2
   0 -11   3    3.51    3.77   2
   0 -11   2    2.21    2.78   2
   0 -11   2   -1.15    3.47   2
   0 -11   1    1.62    5.02   2
   0 -11   1   -1.22    2.20   2
   0 -11   0    7.20    5.07   2
   0 -11   0   -0.88    3.70   2
   0 -11  -1    4.50    3.23   2
   0 -11  -1    1.15    3.36   2
   0 -11  -2    0.03    4.60   2
   0 -11  -2    1.60    3.52   2
   0 -11  -3   16.35    5.81   2
   0 -11  -3    7.99    4.26   2
   0 -11  -4    6.85    3.43   2
   0 -11  -4    0.29    2.22   2
   0 -11  -5    6.98    5.06   2
   0 -11  -5   -0.38    3.44   2
   0 -11  -6    5.44    3.34   2
   1 -12  -1    0.38    2.89   2
   1 -12   0    8.18    5.34   2
   1 -12   1   -1.80    5.31   2
   1 -12   2    6.53    3.58   2
   1 -11  -6    0.79    4.49   2
   1 -11  -5   -2.52    2.82   2
   1 -11  -4    5.89    5.26   2
   1 -11  -3    5.05    3.12   2
   1 -11  -2   13.30    4.83   2
   1 -11  -2   -2.90    2.65   2
   1 -11  -1    9.18    4.88   2
   1 -11  -1    1.14    3.07   2
   1 -11   1   -2.33    3.14   2
   1 -11   1    2.71    3.12   2
   1 -11   2    4.23    5.84   2
   1 -11   2    5.10    3.25   2
   1 -11   3   11.35    3.54   2
   1 -11   3    3.15    2.52   2
  -1  11  -4    1.61    3.04   2
  -1  11  -5   18.01    3.42   2
  -1  11  -6    5.09    4.69   2
  -1  11  -8   -1.30    4.86   2
   1 -10 -10    2.86    4.00   2
   1 -10  -9    1.84    4.37   2
   1 -10  -8   30.43    6.04   2
   1 -10  -6    7.80    4.83   2
   1 -10  -6    2.51    2.95   2
   1 -10  -5    4.63    2.90   2
   1 -10  -5    4.31    2.73   2
   1 -10  -4    1.39    4.76   2
   1 -10  -4    2.84    2.76   2
   1 -10  -3    2.80    4.90   2
   1 -10  -2   -3.14    2.76   2
   1 -10  -2    4.23    2.66   2
   1 -10  -1    7.56    2.98   2
   1 -10  -1    4.40    3.14   2
   1 -10   0   -1.96    5.06   2
   1 -10   1   -2.51    4.63   2
   1 -10   1    5.29    2.97   2
   1 -10   2    2.03    4.83   2
   1 -10   2    4.57    2.97   2
   1 -10   3   21.60    3.83   2
   1 -10   3    9.14    2.49   2
  -1  10  -4   51.56    5.13   2
  -1  10  -5   -4.95    4.42   2
  -1  10  -6   12.21    4.99   2
  -1  10  -7    2.43    4.57   2
  -1  10  -8    2.17    4.68   2
  -1  10  -9    5.11    3.00   2
  -1  10 -10    0.17    2.66   2
  -1  10 -11    9.46    2.96   2
   1  -9 -13    0.69    3.72   2
   1  -9 -12    6.87    2.58   2
   1  -9 -11    2.88    3.97   2
   1  -9 -11    1.43    2.86   2
   1  -9 -10    9.58    2.98   2
   1  -9 -10    5.75    3.47   2
   1  -9  -9   33.12    5.57   2
   1  -9  -9   19.24    3.76   2
   1  -9  -7   23.89    5.18   2
   1  -9  -7   13.89    3.46   2
   1  -9  -6    7.46    4.29   2
   1  -9  -6   -1.85    2.63   2
   1  -9  -5    1.12    4.33   2
   1  -9  -4    3.23    2.83   2
   1  -9  -4    5.21    2.71   2
  -1   9   4    1.22    2.75   2
   1  -9  -3    8.90    4.64   2
   1  -9  -3    6.99    2.82   2
  -1   9   3    2.78    2.68   2
   1  -9  -2   12.30    4.69   2
   1  -9  -2    2.65    2.95   2
  -1   9   2    7.62    3.13   2
   1  -9   0    4.71    4.80   2
   1  -9   0    9.02    2.90   2
  -1   9   0    6.72    3.15   2
   1  -9   1    6.68    4.59   2
   1  -9   1    5.58    3.04   2
   1  -9   2    7.84    3.24   2
   1  -9   2    3.95    3.20   2
   1  -9   3    4.42    3.10   2
   1  -9   3    6.61    3.57   2
  -1   9  -4   44.30    4.50   2
  -1   9  -5    2.45    2.44   2
  -1   9  -7   -5.19    4.46   2
  -1   9  -8    8.45    4.77   2
  -1   9  -9    5.58    4.99   2
  -1   9 -10    0.91    4.44   2
  -1   9 -11    4.23    4.18   2
  -1   9 -12   12.90    3.26   2
   1  -8 -14    1.50    3.26   2
   1  -8 -14    3.68    3.49   2
   1  -8 -13    2.16    2.24   2
   1  -8 -13   -2.13    3.27   2
   1  -8 -12    8.10    4.13   2
   1  -8 -12   15.56    3.72   2
   1  -8 -11    2.53    2.26   2
   1  -8 -11    3.61    3.18   2
   1  -8 -10   16.29    4.17   2
   1  -8 -10    6.01    3.22   2
   1  -8  -9   57.83    6.55   2
   1  -8  -9   61.96    5.55   2
   1  -8  -7   22.10    5.12   2
   1  -8  -7   20.39    3.38   2
   1  -8  -6   15.17    4.87   2
   1  -8  -5   10.65    4.81   2
   1  -8  -5   16.47    3.01   2
  -1   8   5    9.90    2.73   2
   1  -8  -4   16.88    4.90   2
   1  -8  -4   17.63    3.24   2
   1  -8  -3   -0.59    2.54   2
   1  -8  -3   -1.22    2.31   2
  -1   8   3   -1.15    2.20   2
   1  -8  -2   18.61    3.19   2
   1  -8  -2   12.98    3.22   2
  -1   8   2   15.62    3.13   2
  -1   8   1   15.01    3.80   2
   1  -8   0   11.81    3.10   2
   1  -8   0   11.32    2.92   2
  -1   8   0    8.78    2.78   2
   1  -8   1    5.55    2.62   2
   1  -8   1    9.20    2.72   2
  -1   8  -1    5.75    2.72   2
   1  -8   2   15.17    3.28   2
   1  -8   2   17.10    3.35   2
  -1   8  -2    9.21    3.00   2
   1  -8   3  106.64    6.86   2
   1  -8   3  115.82    7.60   2
  -1   8  -3   84.87    6.39   2
  -1   8  -4    1.96    2.53   2
  -1   8  -5    9.47    2.52   2
  -1   8  -6    6.11    2.58   2
  -1   8  -7    3.69    2.62   2
  -1   8  -8    5.21    2.90   2
  -1   8  -9   -1.50    2.70   2
  -1   8 -10   10.88    2.89   2
  -1   8 -11    8.70    3.05   2
  -1   8 -12   -3.55    4.42   2
  -1   8 -13    9.59    5.02   2
  -1   8 -14    3.09    4.18   2
  -1   8 -15   12.98    5.19   2
   1  -7 -15    2.50    3.32   2
   1  -7 -15    3.10    3.75   2
   1  -7 -14   -0.56    2.02   2
   1  -7 -14   -1.65    3.48   2
   1  -7 -13   18.05    4.15   2
   1  -7 -13   11.19    4.12   2
   1  -7 -12    0.48    3.47   2
   1  -7 -12    3.71    3.10   2
   1  -7 -11   11.33    4.04   2
   1  -7 -11   15.27    3.64   2
   1  -7 -10   64.95    4.34   2
   1  -7 -10   56.31    5.22   2
   1  -7  -8   31.59    4.69   2
   1  -7  -8   27.12    3.60   2
   1  -7  -7    3.77    3.64   2
   1  -7  -7    2.37    2.53   2
   1  -7  -6    2.88    3.81   2
   1  -7  -5   -1.34    3.99   2
   1  -7  -5    6.77    2.44   2
  -1   7   5    7.22    2.20   2
   1  -7  -4    7.63    4.22   2
   1  -7  -4    5.77    2.55   2
  -1   7   4    9.36    2.39   2
   1  -7  -3   23.41    5.15   2
   1  -7  -3   22.37    3.04   2
  -1   7   3   22.89    2.90   2
   1  -7  -1   26.93    4.73   2
   1  -7  -1   24.77    4.19   2
  -1   7   1   23.42    3.07   2
   1  -7   0   16.10    4.42   2
   1  -7   0   11.25    2.50   2
  -1   7   0   13.77    2.71   2
   1  -7   1   11.58    2.67   2
   1  -7   1   12.14    2.78   2
  -1   7  -1    7.95    2.72   2
   1  -7   2    8.87    2.80   2
   1  -7   2    5.09    2.72   2
  -1   7  -2    4.25    2.50   2
   1  -7   3   71.26    5.03   2
   1  -7   3   76.95    4.10   2
  -1   7  -3   58.96    4.72   2
  -1   7  -4    3.98    3.70   2
  -1   7  -4    4.99    2.88   2
  -1   7  -6    7.79    3.82   2
  -1   7  -7    4.82    4.19   2
  -1   7  -8   25.04    5.35   2
  -1   7  -9    8.27    4.20   2
  -1   7 -10    1.62    4.12   2
  -1   7 -11   49.03    6.69   2
  -1   7 -13    9.13    4.65   2
  -1   7 -14   10.01    4.96   2
  -1   7 -15    2.93    4.55   2
  -1   7 -16    5.97    4.52   2
   1  -6 -17   -1.53    3.65   2
   1  -6 -15    9.32    3.53   2
   1  -6 -15   13.56    2.79   2
   1  -6 -14    6.20    2.13   2
   1  -6 -14    5.81    3.80   2
   1  -6 -13   17.57    3.88   2
   1  -6 -13   25.50    4.51   2
   1  -6 -12    4.34    1.85   2
   1  -6 -12    2.63    3.02   2
   1  -6 -11    7.09    3.13   2
   1  -6 -11    6.18    2.07   2
   1  -6 -10  140.20    8.62   2
   1  -6  -8   39.99    4.53   2
   1  -6  -8   32.25    3.78   2
  -1   6   8   37.04    4.05   2
   1  -6  -7   18.77    4.12   2
   1  -6  -7   31.02    3.57   2
  -1   6   7   30.56    4.00   2
   1  -6  -6   62.12    3.79   2
   1  -6  -6   58.20    4.37   2
  -1   6   6   63.51    5.12   2
   1  -6  -5   45.56    3.37   2
   1  -6  -5   38.57    3.57   2
  -1   6   5   47.51    4.68   2
   1  -6  -4    0.55    3.41   2
   1  -6  -4    0.60    1.94   2
  -1   6   4    0.28    1.62   2
  -1   6   4    0.29    2.32   2
   1  -6  -3   33.94    4.71   2
   1  -6  -3   25.85    2.98   2
  -1   6   3   24.54    3.75   2
  -1   6   3   31.47    2.78   2
  -1   6   2  102.79    7.69   2
   1  -6  -1   35.38    4.87   2
   1  -6  -1   29.80    3.18   2
  -1   6   1   32.23    3.95   2
  -1   6   1   35.93    3.14   2
   1  -6   0   12.80    4.14   2
   1  -6   0   10.13    2.18   2
  -1   6   0   19.79    3.74   2
  -1   6   0   15.32    2.30   2
   1  -6   1   25.00    2.81   2
   1  -6   1   17.20    2.83   2
  -1   6  -1   30.15    4.14   2
  -1   6  -1   23.48    2.88   2
   1  -6   2  236.30   12.54   2
   1  -6   2  198.14    8.96   2
  -1   6  -2  208.29   11.46   2
  -1   6  -2  199.31    7.81   2
   1  -6   3    3.23    2.33   2
   1  -6   3    1.12    1.62   2
  -1   6  -3   -1.02    2.46   2
  -1   6  -4   11.75    2.21   2
  -1   6  -4   10.74    2.82   2
  -1   6  -5    3.12    2.67   2
  -1   6  -6    6.95    4.01   2
  -1   6  -6    9.45    2.05   2
  -1   6  -7   33.54    5.09   2
  -1   6  -8    8.12    3.79   2
  -1   6  -9   29.04    4.91   2
  -1   6 -10   56.56    6.31   2
  -1   6 -12    9.29    4.45   2
  -1   6 -13    5.48    4.54   2
  -1   6 -14   10.39    4.79   2
  -1   6 -15    1.05    4.27   2
  -1   6 -16    7.55    4.91   2
  -1   6 -17   -0.47    4.30   2
   1  -5 -15   -0.36    2.84   2
   1  -5 -14   29.32    4.14   2
   1  -5 -13    7.10    3.21   2
   1  -5 -12   18.87    3.34   2
   1  -5 -11   81.82    5.61   2
   1  -5 -11   83.33    4.73   2
  -1   5  11   76.50    4.92   2
   1  -5  -9   48.85    4.39   2
   1  -5  -9   58.66    4.39   2
  -1   5   9   57.37    4.55   2
   1  -5  -8    8.34    3.03   2
   1  -5  -8   10.42    2.86   2
  -1   5   8    3.13    2.70   2
   1  -5  -7    2.01    1.75   2
   1  -5  -7   -2.64    2.38   2
  -1   5   7    4.36    2.53   2
   1  -5  -6    8.58    3.03   2
   1  -5  -6    9.61    2.45   2
  -1   5   6    8.22    2.88   2
   1  -5  -5   13.53    3.29   2
   1  -5  -5   12.79    2.51   2
  -1   5   5   14.75    3.12   2
   1  -5  -4   63.77    5.06   2
   1  -5  -4   54.99    3.53   2
  -1   5   4   56.93    4.38   2
  -1   5   4   55.30    3.27   2
   1  -5  -2   81.01    6.29   2
   1  -5  -2   74.44    3.90   2
  -1   5   2   72.51    3.72   2
  -1   5   2   79.23    4.75   2
   1  -5  -1   24.82    2.65   2
   1  -5  -1   30.85    2.58   2
  -1   5   1   26.88    2.28   2
  -1   5   1   31.70    2.54   2
   1  -5   0   27.56    4.09   2
   1  -5   0   16.88    2.19   2
  -1   5   0   17.24    2.32   2
  -1   5   0   22.40    2.32   2
   1  -5   1    7.86    3.37   2
   1  -5   1    7.95    2.00   2
  -1   5  -1   11.59    3.41   2
  -1   5  -1    9.13    2.11   2
   1  -5   2  142.71    6.59   2
   1  -5   2  163.31    7.43   2
  -1   5  -2  145.90    8.18   2
  -1   5  -2  160.35    7.26   2
  -1   5  -3   18.06    3.69   2
  -1   5  -3   15.19    3.60   2
  -1   5  -3   17.73    2.38   2
  -1   5  -5   20.70    2.43   2
  -1   5  -5   29.09    4.42   2
  -1   5  -5   24.69    3.11   2
  -1   5  -6   17.50    4.16   2
  -1   5  -6   18.60    3.22   2
  -1   5  -7   43.64    3.37   2
  -1   5  -7   54.06    4.59   2
  -1   5  -8   15.58    2.60   2
  -1   5  -9    8.67    2.50   2
  -1   5 -10  168.15   11.10   2
  -1   5 -12   -0.63    3.89   2
  -1   5 -13   15.95    3.18   2
  -1   5 -14    6.94    2.68   2
  -1   5 -15   14.01    3.21   2
  -1   5 -16   -1.50    3.85   2
  -1   5 -17    3.63    4.33   2
   1  -4 -15    9.62    3.26   2
   1  -4 -14   38.54    4.20   2
   1  -4 -13    2.76    2.81   2
  -1   4  13    3.47    2.35   2
   1  -4 -12    4.74    2.81   2
  -1   4  12    6.34    2.34   2
  -1   4  11  179.64    8.37   2
   1  -4  -9   60.95    4.46   2
  -1   4   9   64.28    4.12   2
   1  -4  -8   68.55    4.46   2
  -1   4   8   57.88    4.08   2
   1  -4  -7  158.29    7.22   2
   1  -4  -7  162.06    7.38   2
  -1   4   7  166.35    7.54   2
   1  -4  -6   89.81    5.22   2
   1  -4  -6   90.45    4.67   2
  -1   4   6   90.09    4.91   2
   1  -4  -5    2.58    2.44   2
   1  -4  -5    0.75    1.87   2
  -1   4   5    1.95    2.30   2
   1  -4  -4   40.90    3.90   2
   1  -4  -4   42.86    2.81   2
  -1   4   4   43.09    2.55   2
   1  -4  -2   22.21    2.45   2
   1  -4  -2   30.56    2.92   2
  -1   4   2   25.19    3.24   2
  -1   4   2   27.48    2.12   2
   1  -4  -1   37.62    2.69   2
   1  -4  -1   38.21    2.45   2
  -1   4   1   43.36    2.64   2
  -1   4   1   42.25    2.27   2
   1  -4   0   43.77    2.99   2
   1  -4   0   41.43    2.45   2
  -1   4   0   42.28    4.41   2
  -1   4   0   43.23    2.60   2
   1  -4   1  406.16   15.74   2
   1  -4   1  390.54   14.50   2
  -1   4  -1  424.43   18.71   2
  -1   4  -1  438.00   16.40   2
  -1   4  -2   -3.26    2.74   2
  -1   4  -2   -0.29    1.69   2
  -1   4  -2    0.03    1.87   2
  -1   4  -3   19.91    2.12   2
  -1   4  -3   19.90    3.41   2
  -1   4  -3   20.09    2.55   2
  -1   4  -4   20.62    3.71   2
  -1   4  -4   18.49    3.96   2
  -1   4  -4   21.50    1.93   2
  -1   4  -5   27.76    2.65   2
  -1   4  -5   25.74    2.37   2
  -1   4  -5   25.18    2.33   2
   1  -4   6   52.29    4.70   2
  -1   4  -6   50.44    4.78   2
   1  -4   7   10.12    1.92   2
  -1   4  -7   16.63    3.67   2
   1  -4   8   47.95    4.60   2
  -1   4  -8   44.42    3.47   2
  -1   4  -9  136.97    6.61   2
  -1   4 -12    8.48    2.57   2
  -1   4 -13   11.20    2.72   2
  -1   4 -14   11.10    4.43   2
  -1   4 -15    8.55    4.21   2
  -1   4 -16    9.58    4.42   2
  -1   4 -18   -3.01    2.48   2
   1  -3 -16   12.15    3.09   2
   1  -3 -15   45.15    4.11   2
   1  -3 -14    3.26    2.49   2
  -1   3  14    2.19    2.21   2
   1  -3 -13   17.15    2.92   2
  -1   3  13   18.59    2.60   2
  -1   3  10   91.39    4.71   2
   1  -3  -9   24.29    2.82   2
  -1   3   9   23.97    2.53   2
   1  -3  -8    8.13    2.32   2
  -1   3   8    8.90    2.06   2
   1  -3  -7   17.58    2.59   2
  -1   3   7   15.27    3.15   2
   1  -3  -6   13.70    2.45   2
  -1   3   6   15.31    2.28   2
   1  -3  -5   95.47    4.75   2
  -1   3   5   97.83    4.71   2
   1  -3  -3  185.37    7.81   2
   1  -3  -3  193.24    6.27   2
  -1   3   3  186.19    7.65   2
   1  -3  -2   67.64    4.40   2
   1  -3  -2   67.53    3.43   2
  -1   3   2   61.43    4.04   2
  -1   3   2   63.97    2.49   2
   1  -3  -1   25.02    3.34   2
   1  -3  -1   26.54    1.61   2
  -1   3   1   32.95    3.45   2
  -1   3   1   27.39    2.33   2
   1  -3   0    8.54    2.86   2
   1  -3   0   13.87    2.18   2
  -1   3   0   13.60    3.11   2
  -1   3   0   13.76    2.12   2
  -1   3  -2   53.37    4.60   2
  -1   3  -2   47.66    2.68   2
  -1   3  -2   48.13    3.07   2
   1  -3   4   71.91    4.53   2
  -1   3  -4   56.68    3.02   2
   1  -3   5   47.04    4.34   2
  -1   3  -5   44.88    4.37   2
   1  -3   6  110.47    6.42   2
  -1   3  -6  105.30    4.80   2
   1  -3   7   39.03    2.78   2
  -1   3  -7   43.35    2.97   2
   1  -3   8    5.96    2.89   2
  -1   3  -8    6.93    3.52   2
   1  -3   9  378.79   16.57   2
  -1   3  -9  419.62   20.21   2
  -1   3 -11    8.38    3.97   2
  -1   3 -12   33.40    4.97   2
  -1   3 -13    1.14    2.12   2
  -1   3 -14   32.83    5.47   2
  -1   3 -15    4.87    4.25   2
  -1   3 -16    9.53    4.45   2
  -1   3 -18    7.48    4.07   2
  -1   3 -19   13.47    4.61   2
   1  -2 -16   21.12    3.36   2
   1  -2 -15   44.27    3.97   2
  -1   2  15   31.01    3.21   2
   1  -2 -14   12.78    2.88   2
  -1   2  14   10.83    2.29   2
   1  -2 -13    1.02    2.42   2
  -1   2  13    4.23    1.76   2
   1  -2 -10   75.68    4.10   2
  -1   2  10   76.48    3.93   2
   1  -2  -9  117.37    4.96   2
  -1   2   9  113.59    4.74   2
   1  -2  -8  297.50   10.85   2
  -1   2   8  298.20   10.54   2
   1  -2  -7  137.02    6.21   2
  -1   2   7  128.50    4.88   2
   1  -2  -6    2.27    1.67   2
  -1   2   6    4.50    1.61   2
   1  -2  -5   53.36    3.05   2
  -1   2   5   57.63    2.94   2
   1  -2  -3   41.64    2.77   2
  -1   2   3   47.85    2.92   2
   1  -2  -2  104.82    4.67   2
   1  -2  -2  107.17    3.67   2
  -1   2   2  106.17    4.42   2
   1  -2  -1   73.80    2.83   2
   1  -2  -1   74.95    2.14   2
  -1   2   1   79.46    4.16   2
  -1   2   0  732.30   29.66   2
  -1   2   0  679.98   25.33   2
  -1   2   0  741.68   25.74   2
   1  -2   1    1.12    2.36   2
  -1   2  -1    0.12    2.63   2
   1  -2   2   24.69    3.42   2
  -1   2  -2   18.08    1.94   2
   1  -2   4   47.11    2.80   2
  -1   2  -4   57.94    4.61   2
   1  -2   5  103.64    4.28   2
  -1   2  -5  101.64    4.49   2
   1  -2   6   20.11    3.18   2
  -1   2  -6   18.22    3.66   2
   1  -2   7   98.75    5.60   2
  -1   2  -7   91.70    6.12   2
   1  -2   8  296.14   11.55   2
  -1   2  -8  302.00   14.36   2
  -1   2 -11   20.58    2.88   2
  -1   2 -12   12.23    4.20   2
  -1   2 -13   14.80    4.37   2
  -1   2 -14    6.99    3.95   2
  -1   2 -15    5.71    3.98   2
  -1   2 -18   12.36    4.69   2
  -1   2 -19   24.08    5.18   2
   1  -1 -17   18.17    3.25   2
   1  -1 -16   43.34    4.09   2
   1  -1 -15    9.12    2.95   2
  -1   1  15   12.86    2.47   2
   1  -1 -14   14.47    2.90   2
  -1   1  14   12.06    2.39   2
   1  -1 -13   72.13    4.53   2
  -1   1  13   75.94    4.37   2
  -1   1  11   75.50    3.71   2
   1  -1 -10   35.64    2.85   2
  -1   1  10   29.84    2.33   2
   1  -1  -9    7.73    1.97   2
  -1   1   9    7.53    1.75   2
   1  -1  -8   30.61    2.43   2
  -1   1   8   30.91    2.81   2
   1  -1  -7   15.62    1.91   2
  -1   1   7   17.77    2.48   2
   1  -1  -6  116.52    4.88   2
  -1   1   6  106.43    3.81   2
   1  -1  -4  289.36    8.07   2
  -1   1   4  292.72    8.23   2
   1  -1  -3  109.28    3.54   2
  -1   1   3  103.89    2.94   2
   1  -1  -2   31.30    1.79   2
  -1   1   2   35.79    1.28   2
   1  -1  -1    3.81    0.69   2
  -1   1   1    2.31    1.31   2
  -1   1   1    3.03    0.73   2
   1  -1   0  353.89   11.69   2
  -1   1   0  360.90   12.07   2
   1  -1   1  131.80    6.21   2
  -1   1  -1  130.92    6.08   2
   1  -1   3  160.10    7.65   2
  -1   1  -3  146.99    8.03   2
   1  -1   4   49.84    2.93   2
  -1   1  -4   51.18    4.44   2
   1  -1   5  176.59    8.08   2
  -1   1  -5  169.24    7.92   2
   1  -1   6   65.96    4.66   2
  -1   1  -6   75.25    3.70   2
   1  -1   7    8.85    2.82   2
  -1   1  -7    5.45    3.35   2
   1  -1   8  831.89   37.71   2
  -1   1  -8  874.18   42.68   2
   1  -1  10   18.55    3.26   2
   1  -1  11   57.21    4.67   2
  -1   1 -11   65.77    3.76   2
  -1   1 -12   -4.97    3.61   2
  -1   1 -13   44.97    5.45   2
  -1   1 -14   18.75    4.22   2
  -1   1 -17    5.62    3.90   2
  -1   1 -18   24.47    4.80   2
  -1   1 -19    7.00    4.05   2
   1   0 -18   11.38    3.24   2
   1   0 -17   21.69    3.28   2
   1   0 -16   23.74    2.39   2
   1   0 -15   11.06    3.10   2
  -1   0  15   11.59    1.57   2
   1   0 -14    4.63    2.51   2
  -1   0  14    1.91    2.00   2
   1   0 -11   54.59    3.83   2
  -1   0  11   57.89    3.43   2
   1   0 -10  125.68    5.51   2
  -1   0  10  121.27    5.21   2
   1   0  -9  247.53    9.46   2
  -1   0   9  250.88    9.06   2
   1   0  -8  112.51    4.85   2
  -1   0   8  112.92    4.41   2
   1   0  -7    0.78    1.69   2
  -1   0   7    2.77    2.03   2
   1   0  -6   32.64    2.22   2
   1   0  -4   44.62    2.01   2
  -1   0   4   44.30    2.56   2
   1   0  -3   56.85    1.49   2
   1   0  -3  145.48    3.27   2
   1   0  -3   26.53    2.37   2
   1   0  -2   93.86    2.95   2
   1   0  -2   97.40    3.32   2
  -1   0   2   97.72    3.18   2
  -1   0   2   98.95    4.65   2
   1   0  -1  599.89   19.29   2
   1   0  -1  611.09   19.90   2
  -1   0   1  591.15   19.32   2
  -1   0   1  618.28   21.99   2
   1   0   0   -1.12    1.97   2
   1   0   0    1.53    1.13   2
  -1   0   0    1.25    1.79   2
  -1   0   0    3.56    1.94   2
   1   0   1   21.75    3.41   2
   1   0   1   25.34    3.03   2
  -1   0  -1   23.68    2.05   2
  -1   0  -1   21.40    1.80   2
   1   0   2   88.07    5.73   2
  -1   0  -2   79.98    5.84   2
   1   0   3   55.60    4.57   2
  -1   0  -3   50.05    3.01   2
   1   0   4  149.55    7.47   2
  -1   0  -4  150.90    8.12   2
   1   0   5   40.43    3.86   2
  -1   0  -5   37.05    4.46   2
   1   0   6  120.25    6.15   2
  -1   0  -6  130.85    7.01   2
   1   0   7  512.96   19.82   2
  -1   0  -7  486.65   22.25   2
  -1   0  -8  116.19    7.05   2
   1   0  10   18.30    2.11   2
  -1   0 -10   28.38    4.08   2
   1   0  11    6.35    2.57   2
  -1   0 -11    7.61    3.72   2
  -1   0 -12    9.53    3.90   2
  -1   0 -13   13.64    4.12   2
  -1   0 -17   20.61    4.25   2
  -1   0 -18   35.78    3.70   2
  -1   0 -19   13.88    4.43   2
   1   1 -18   17.08    3.56   2
   1   1 -17   15.92    3.61   2
   1   1 -16   14.64    3.22   2
   1   1 -15    9.76    3.00   2
   1   1 -14   33.58    4.02   2
  -1  -1  14   27.79    3.21   2
   1   1 -12   40.57    3.97   2
  -1  -1  12   38.03    3.15   2
   1   1 -11   27.70    3.06   2
  -1  -1  11   27.23    2.87   2
   1   1 -10    2.11    2.19   2
  -1  -1  10    3.74    1.99   2
   1   1  -9   20.97    2.81   2
  -1  -1   9   23.98    2.50   2
   1   1  -8   11.64    2.21   2
  -1  -1   8   10.31    2.10   2
   1   1  -7   65.46    3.63   2
  -1  -1   7   74.96    3.58   2
   1   1  -5   70.18    2.74   2
   1   1  -5  258.26    6.02   2
   1   1  -5   55.73    3.46   2
   1   1  -4  101.64    4.36   2
   1   1  -4  104.42    4.29   2
   1   1  -4  105.00    5.73   2
   1   1  -3   25.93    2.72   2
   1   1  -3   24.04    2.25   2
  -1  -1   3   23.26    2.59   2
  -1  -1   3   31.05    3.65   2
   1   1  -2    6.29    1.32   2
   1   1  -2    5.53    1.73   2
  -1  -1   2    5.45    1.44   2
  -1  -1   2    2.72    2.85   2
   1   1  -1  170.88    7.44   2
   1   1  -1  180.03    7.71   2
  -1  -1   1  157.87    5.58   2
  -1  -1   1  165.64    7.78   2
   1   1   0  130.93    7.23   2
   1   1   0  135.39    6.91   2
  -1  -1   0  128.52    7.08   2
  -1  -1   0  133.10    6.91   2
   1   1   2  166.39    8.43   2
   1   1   2  169.44    7.92   2
  -1  -1  -2  143.39    5.66   2
  -1  -1  -2  157.28    7.97   2
   1   1   3   21.05    3.41   2
  -1  -1  -3   21.70    2.43   2
  -1  -1  -3   31.90    3.77   2
   1   1   4  158.46    7.49   2
  -1  -1  -4  157.29    7.87   2
   1   1   5   78.88    3.55   2
  -1  -1  -5   76.47    5.08   2
   1   1   6    8.75    2.79   2
  -1  -1  -6    6.24    3.08   2
   1   1   7 1304.14   68.08   2
  -1  -1  -7 1257.37   66.71   2
   1   1   9   68.46    4.38   2
  -1  -1  -9   40.82    3.17   2
   1   1  10   97.12    5.49   2
  -1  -1 -10   89.97    4.57   2
   1   1  11   23.70    3.44   2
  -1  -1 -11   19.08    2.62   2
  -1  -1 -12   71.00    4.23   2
  -1  -1 -13   24.97    4.52   2
  -1  -1 -18    9.39    3.90   2
  -1  -1 -19   57.41    6.06   2
   1   2 -19    3.21    3.34   2
   1   2 -18   14.32    3.75   2
   1   2 -17   14.11    2.40   2
   1   2 -16   14.89    3.72   2
   1   2 -15    0.90    2.94   2
   1   2 -14   41.16    4.62   2
   1   2 -12   29.75    3.67   2
  -1  -2  12   31.24    3.13   2
   1   2 -11   96.63    5.59   2
  -1  -2  11   81.44    4.74   2
   1   2 -10  134.87    6.71   2
  -1  -2  10  138.81    6.33   2
   1   2  -9   73.50    4.52   2
  -1  -2   9   65.63    4.10   2
   1   2  -8   -0.91    1.47   2
   1   2  -8   -0.14    2.26   2
   1   2  -7    5.22    2.39   2
   1   2  -7    3.46    2.13   2
   1   2  -7    4.41    2.10   2
   1   2  -5   19.87    2.83   2
   1   2  -5   17.10    1.69   2
   1   2  -5   22.98    3.36   2
   1   2  -4  100.04    5.25   2
   1   2  -4   99.05    5.71   2
  -1  -2   4   88.39    3.69   2
  -1  -2   4   93.35    5.79   2
   1   2  -3   77.17    4.78   2
   1   2  -3   76.82    3.47   2
  -1  -2   3   69.24    4.76   2
  -1  -2   3   72.96    5.31   2
   1   2  -2  121.54    6.24   2
   1   2  -2  130.28    6.75   2
  -1  -2   2  118.51    4.94   2
  -1  -2   2  124.71    4.92   2
   1   2  -1   14.76    3.33   2
   1   2  -1    4.19    3.14   2
  -1  -2   1    9.63    3.45   2
  -1  -2   1   13.42    3.05   2
   1   2   0   21.62    3.74   2
   1   2   0   17.49    3.45   2
  -1  -2   0   20.78    2.51   2
  -1  -2   0   18.98    3.55   2
  -1  -2  -1   62.52    3.87   2
   1   2   2    7.49    3.27   2
   1   2   2    7.13    2.76   2
  -1  -2  -2   -0.12    3.63   2
  -1  -2  -2    2.81    1.82   2
   1   2   3   90.19    4.26   2
   1   2   3  100.84    4.19   2
  -1  -2  -3   89.74    6.29   2
  -1  -2  -3   88.97    3.96   2
   1   2   4   30.34    3.90   2
  -1  -2  -4   28.06    2.48   2
  -1  -2  -4   32.27    4.01   2
   1   2   5   86.23    5.45   2
  -1  -2  -5   81.15    5.74   2
  -1  -2  -5   90.20    6.05   2
   1   2   6  472.46   18.02   2
  -1  -2  -6  440.22   20.06   2
   1   2   9   30.84    3.73   2
  -1  -2  -9   22.40    4.16   2
   1   2  10    3.79    2.58   2
  -1  -2 -10    4.32    3.30   2
  -1  -2 -11   14.85    4.02   2
  -1  -2 -12   14.61    3.78   2
  -1  -2 -13   15.12    4.32   2
  -1  -2 -16   31.64    5.28   2
  -1  -2 -17   37.56    5.47   2
  -1  -2 -18    4.80    3.94   2
  -1  -2 -19   47.15    4.07   2
   1   3 -19   10.58    4.02   2
   1   3 -18   24.33    4.50   2
   1   3 -17    8.19    3.95   2
   1   3 -16    7.40    3.40   2
   1   3 -15    9.05    3.60   2
   1   3 -13   16.28    3.48   2
   1   3 -12   17.37    2.26   2
   1   3 -11    0.16    1.74   2
   1   3 -11    2.57    2.52   2
   1   3 -10   21.78    3.65   2
   1   3 -10   21.81    3.53   2
   1   3  -9    6.69    1.82   2
   1   3  -9    5.25    2.87   2
   1   3  -8   34.25    2.40   2
   1   3  -8   36.00    2.45   2
   1   3  -8   34.21    4.19   2
   1   3  -6  150.01    7.64   2
   1   3  -6  146.13    5.57   2
   1   3  -6  169.13    8.19   2
   1   3  -5   73.56    5.00   2
   1   3  -5   73.24    3.72   2
  -1  -3   5   79.48    5.48   2
  -1  -3   5   79.32    4.29   2
   1   3  -4   11.49    3.20   2
   1   3  -4   14.75    2.00   2
  -1  -3   4   17.88    3.31   2
  -1  -3   4   14.94    3.47   2
   1   3  -3    8.10    2.92   2
   1   3  -3    3.88    2.00   2
  -1  -3   3    5.62    2.01   2
  -1  -3   3    6.70    3.13   2
   1   3  -2   37.82    3.70   2
   1   3  -2   33.67    2.41   2
  -1  -3   2   42.90    4.68   2
  -1  -3   2   30.71    3.97   2
   1   3  -1   64.54    3.38   2
   1   3  -1   59.08    3.17   2
  -1  -3   1   58.59    3.74   2
  -1  -3   1   55.58    3.11   2
   1   3   1   88.90    6.10   2
   1   3   1   82.60    3.71   2
  -1  -3  -1   91.23    6.54   2
  -1  -3  -1   75.49    5.34   2
   1   3   2    3.44    1.84   2
   1   3   2   -4.25    2.59   2
  -1  -3  -2   -3.02    1.83   2
  -1  -3  -2   -2.14    2.78   2
   1   3   3   95.57    6.21   2
   1   3   3   83.34    5.53   2
  -1  -3  -3   98.42    6.79   2
  -1  -3  -3   96.16    6.23   2
   1   3   4   58.74    5.09   2
   1   3   4   59.65    4.53   2
  -1  -3  -4   64.93    5.64   2
  -1  -3  -4   55.05    3.27   2
   1   3   5    6.23    3.22   2
  -1  -3  -5    9.06    3.44   2
  -1  -3  -5    3.36    2.91   2
   1   3   6  782.43   35.76   2
  -1  -3  -6  781.80   38.86   2
  -1  -3  -6  762.27   39.54   2
   1   3   8   43.00    3.11   2
  -1  -3  -8   38.99    4.41   2
  -1  -3  -8   50.09    4.99   2
   1   3   9   79.21    5.56   2
  -1  -3  -9   82.96    6.21   2
  -1  -3  -9   85.87    6.65   2
  -1  -3 -10   38.43    4.86   2
  -1  -3 -11   55.39    5.67   2
  -1  -3 -12   40.64    5.14   2
  -1  -3 -15    2.15    2.32   2
  -1  -3 -16   25.11    3.27   2
  -1  -3 -17    7.36    2.57   2
  -1  -3 -18   56.43    4.46   2
   1   4 -19   13.86    4.53   2
   1   4 -18    7.19    4.03   2
   1   4 -17   11.82    4.15   2
   1   4 -16   -2.44    3.67   2
   1   4 -15   12.06    4.19   2
   1   4 -13   19.77    4.04   2
   1   4 -12   51.09    3.65   2
   1   4 -11   56.46    5.33   2
   1   4 -10   31.67    4.11   2
   1   4  -9    0.31    2.71   2
   1   4  -9   -0.50    2.92   2
   1   4  -8   -1.61    1.64   2
   1   4  -8    0.01    1.83   2
   1   4  -7  394.01   20.56   2
   1   4  -6   17.36    2.98   2
   1   4  -6   10.15    2.99   2
  -1  -4   6   -3.00    2.07   2
  -1  -4   6    3.38    2.58   2
   1   4  -5   43.53    4.57   2
   1   4  -5   47.59    3.13   2
  -1  -4   5   50.20    4.82   2
  -1  -4   5   44.05    3.18   2
   1   4  -4   48.06    3.01   2
   1   4  -4   47.79    3.04   2
  -1  -4   4   45.61    3.25   2
  -1  -4   4   37.56    3.13   2
   1   4  -3    9.34    3.36   2
   1   4  -3   10.66    1.91   2
  -1  -4   3    9.14    2.16   2
  -1  -4   3   14.48    3.48   2
   1   4  -2   11.52    3.10   2
   1   4  -2   11.29    3.18   2
  -1  -4   2   16.15    2.41   2
  -1  -4   2    6.07    3.49   2
   1   4  -1   11.69    2.20   2
   1   4  -1   13.15    3.13   2
  -1  -4   1   17.91    2.72   2
  -1  -4   1   12.14    3.52   2
   1   4   0   39.74    2.88   2
   1   4   0   34.14    3.76   2
   1   4   1    9.01    3.22   2
   1   4   1   -0.26    2.67   2
  -1  -4  -1    2.64    3.63   2
  -1  -4  -1    3.56    3.04   2
   1   4   2   39.90    4.93   2
  -1  -4  -2   52.84    5.87   2
  -1  -4  -2   52.22    4.76   2
   1   4   3   19.72    3.91   2
   1   4   3   17.98    3.20   2
  -1  -4  -3   22.23    2.61   2
  -1  -4  -3   22.40    2.23   2
   1   4   4   41.05    4.50   2
   1   4   4   34.25    3.82   2
  -1  -4  -4   35.55    4.97   2
  -1  -4  -4   40.10    2.90   2
   1   4   5  277.45   11.26   2
   1   4   5  250.61   10.40   2
  -1  -4  -5  275.09   14.14   2
  -1  -4  -5  266.39   10.69   2
  -1  -4  -8   23.47    4.41   2
  -1  -4  -8   19.64    2.73   2
  -1  -4  -9   -0.67    2.03   2
  -1  -4  -9   -0.49    3.37   2
  -1  -4 -10    6.19    3.80   2
  -1  -4 -10    4.84    3.83   2
  -1  -4 -11    8.89    4.08   2
  -1  -4 -11    9.18    2.73   2
  -1  -4 -12   22.55    4.23   2
  -1  -4 -12   16.05    4.77   2
  -1  -4 -15   16.02    4.27   2
  -1  -4 -15   21.87    5.20   2
  -1  -4 -16   30.52    5.14   2
  -1  -4 -17    7.44    4.07   2
  -1  -4 -18   39.23    5.54   2
   1   5 -18   10.82    2.67   2
   1   5 -17    3.54    2.45   2
   1   5 -16    5.88    2.60   2
   1   5 -14    3.94    3.62   2
   1   5 -13   11.26    4.04   2
   1   5 -12    6.83    3.83   2
   1   5 -11    8.51    2.17   2
   1   5 -10   -0.30    3.17   2
   1   5  -9   14.88    4.10   2
   1   5  -7   68.09    5.91   2
   1   5  -6   38.58    4.64   2
  -1  -5   6   41.24    3.38   2
  -1  -5   6   39.97    3.70   2
   1   5  -5    8.20    3.10   2
   1   5  -5    8.95    2.22   2
  -1  -5   5    7.67    3.65   2
  -1  -5   5   13.09    3.79   2
   1   5  -4    6.94    2.12   2
   1   5  -4    9.84    3.11   2
  -1  -5   4    8.83    3.72   2
  -1  -5   4    3.11    3.72   2
   1   5  -3    8.28    2.98   2
   1   5  -3    5.93    2.93   2
  -1  -5   3    2.35    2.28   2
  -1  -5   3    4.37    3.42   2
   1   5  -2   22.36    3.86   2
   1   5  -2   24.63    3.74   2
  -1  -5   2   23.54    4.89   2
  -1  -5   2   25.49    4.04   2
   1   5   0   27.78    4.00   2
   1   5   0   28.46    2.51   2
  -1  -5   0   35.51    5.59   2
  -1  -5   0   30.30    2.65   2
   1   5   1    5.30    3.32   2
   1   5   1    5.25    2.81   2
  -1  -5  -1   14.28    4.03   2
  -1  -5  -1    9.34    3.31   2
   1   5   2   35.05    3.05   2
   1   5   2   39.01    2.78   2
  -1  -5  -2   44.29    5.70   2
   1   5   3   32.17    4.61   2
   1   5   3   32.68    3.71   2
  -1  -5  -3   25.10    3.26   2
   1   5   4   -0.50    1.87   2
   1   5   4    4.80    2.64   2
  -1  -5  -4   -3.41    2.38   2
  -1  -5  -4    3.81    3.03   2
   1   5   5  342.76   17.44   2
  -1  -5  -5  354.24   15.61   2
  -1  -5  -5  361.17   18.39   2
  -1  -5  -7   25.73    3.26   2
  -1  -5  -7   33.11    4.45   2
  -1  -5  -8   46.88    5.79   2
  -1  -5  -8   55.48    5.81   2
  -1  -5  -9   32.73    5.27   2
  -1  -5  -9   31.57    4.95   2
  -1  -5 -10   30.20    3.39   2
  -1  -5 -10   27.31    3.26   2
  -1  -5 -11   32.91    5.62   2
  -1  -5 -11   36.07    5.74   2
  -1  -5 -12    1.06    3.94   2
  -1  -5 -14    0.25    3.57   2
  -1  -5 -14    5.12    4.29   2
  -1  -5 -15   10.41    4.29   2
  -1  -5 -15    6.09    4.96   2
  -1  -5 -16    5.60    3.75   2
  -1  -5 -16    4.67    4.68   2
  -1  -5 -17   38.10    5.77   2
  -1  -5 -17   38.56    4.67   2
   1   6 -17    5.34    4.04   2
   1   6 -16   -2.70    4.04   2
   1   6 -14    2.78    4.00   2
   1   6 -13   24.72    4.96   2
   1   6 -12    9.79    2.63   2
   1   6 -11   11.62    2.59   2
   1   6 -10    6.07    4.10   2
   1   6  -9    2.21    3.66   2
  -1  -6   7   -1.09    2.53   2
  -1  -6   7   -5.40    2.60   2
  -1  -6   6   17.95    4.74   2
  -1  -6   6   18.03    4.38   2
  -1  -6   5   20.70    2.92   2
  -1  -6   5   30.62    3.09   2
  -1  -6   4   -2.33    3.69   2
  -1  -6   4    0.41    3.49   2
   1   6  -3    7.88    3.11   2
  -1  -6   3    0.73    4.19   2
  -1  -6   3    2.75    3.59   2
   1   6  -2    5.88    3.13   2
  -1  -6   2    8.60    2.72   2
  -1  -6   2    1.20    3.58   2
   1   6  -1   10.06    3.41   2
  -1  -6   1   13.70    2.70   2
   1   6   0    7.31    3.33   2
  -1  -6   0   15.30    4.65   2
  -1  -6   0    8.70    2.10   2
   1   6   1   15.97    3.68   2
  -1  -6  -1   26.13    3.39   2
  -1  -6  -1   15.79    2.47   2
   1   6   2   12.97    3.38   2
  -1  -6  -2    7.24    2.86   2
  -1  -6  -2   13.17    2.45   2
   1   6   3   17.98    2.34   2
  -1  -6  -3   22.65    4.82   2
   1   6   4   93.46    5.38   2
  -1  -6  -4  126.27    9.30   2
  -1  -6  -4  114.44    7.66   2
  -1  -6  -6   17.23    4.30   2
  -1  -6  -7   15.79    3.02   2
  -1  -6  -7   14.46    4.11   2
  -1  -6  -8   -7.90    4.12   2
  -1  -6  -8   -1.75    2.28   2
  -1  -6  -9   -1.08    4.12   2
  -1  -6  -9    2.98    2.26   2
  -1  -6 -10    3.02    4.31   2
  -1  -6 -10    4.16    3.89   2
  -1  -6 -11   11.90    4.54   2
  -1  -6 -11   10.88    4.28   2
  -1  -6 -14   12.38    4.97   2
  -1  -6 -14   17.33    5.18   2
  -1  -6 -15   11.19    4.50   2
  -1  -6 -15   11.55    4.89   2
  -1  -6 -16   14.00    4.49   2
  -1  -6 -16    4.11    4.98   2
   1   7 -15   -1.22    3.69   2
   1   7 -14    0.88    3.79   2
   1   7 -13    4.40    3.75   2
   1   7 -12   11.84    4.63   2
   1   7 -11    8.00    2.81   2
   1   7 -10    6.49    2.67   2
   1   7  -8   32.22    5.17   2
  -1  -7   7   14.01    3.24   2
  -1  -7   7   12.47    3.23   2
  -1  -7   6    4.53    4.42   2
  -1  -7   6    7.60    4.05   2
  -1  -7   5    5.78    2.60   2
  -1  -7   5    0.32    4.21   2
  -1  -7   4    1.06    2.51   2
  -1  -7   4    3.67    3.67   2
  -1  -7   3    7.99    4.72   2
  -1  -7   3    7.72    4.00   2
  -1  -7   1   22.17    5.72   2
  -1  -7   1   14.72    4.32   2
  -1  -7   0    9.84    4.90   2
  -1  -7   0    6.58    2.32   2
  -1  -7  -1   20.96    3.59   2
  -1  -7  -2    8.13    3.13   2
  -1  -7  -3    7.36    2.74   2
  -1  -7  -3    5.92    2.28   2
  -1  -7  -4  153.24   11.09   2
  -1  -7  -4  134.14    9.52   2
  -1  -7  -6   17.73    5.09   2
  -1  -7  -6    7.10    4.39   2
  -1  -7  -7   29.87    5.81   2
  -1  -7  -7   26.82    4.72   2
  -1  -7  -8   16.93    4.91   2
  -1  -7  -8    8.79    4.50   2
  -1  -7  -9   13.83    4.88   2
  -1  -7  -9    9.78    4.38   2
  -1  -7 -10   29.37    3.68   2
  -1  -7 -10   30.47    5.36   2
  -1  -7 -11   -2.07    4.00   2
  -1  -7 -11    7.62    4.02   2
  -1  -7 -13    1.34    2.70   2
  -1  -7 -13   10.16    4.22   2
  -1  -7 -14    9.71    4.54   2
  -1  -7 -14    9.02    4.55   2
  -1  -7 -15    5.24    4.08   2
  -1  -7 -15    3.52    4.46   2
   1   8 -14    7.59    4.52   2
   1   8 -13    7.15    4.22   2
   1   8 -12    3.41    4.43   2
   1   8 -11   -2.07    4.27   2
   1   8 -10    4.40    4.43   2
   1   8  -8    9.98    4.68   2
  -1  -8   7   17.85    3.38   2
  -1  -8   7   12.73    3.13   2
  -1  -8   6    7.15    5.36   2
  -1  -8   6   12.05    4.51   2
  -1  -8   5   -1.07    4.29   2
  -1  -8   5    0.03    2.33   2
  -1  -8   4    3.56    2.99   2
  -1  -8   4    8.37    3.92   2
  -1  -8   3    3.31    2.99   2
  -1  -8   3    8.74    4.09   2
  -1  -8   2    5.97    3.04   2
  -1  -8   2    3.37    3.76   2
  -1  -8   1    7.50    3.12   2
  -1  -8   1   13.90    4.37   2
  -1  -8   0   16.22    3.67   2
  -1  -8   0    5.98    4.37   2
  -1  -8  -1   -1.00    3.18   2
  -1  -8  -1    6.37    3.58   2
  -1  -8  -2    5.81    5.33   2
  -1  -8  -3   44.48    7.07   2
  -1  -8  -3   38.19    5.43   2
  -1  -8  -4    9.26    5.76   2
  -1  -8  -4   15.61    2.81   2
  -1  -8  -5    3.20    4.67   2
  -1  -8  -5    4.21    3.93   2
  -1  -8  -6    5.94    3.14   2
  -1  -8  -6   11.06    4.08   2
  -1  -8  -7   -3.61    4.71   2
  -1  -8  -8    2.29    4.31   2
  -1  -8  -8    1.28    2.42   2
  -1  -8  -9   -2.50    4.64   2
  -1  -8 -10    8.02    5.12   2
  -1  -8 -10    5.67    4.20   2
  -1  -8 -12   12.86    3.13   2
  -1  -8 -12    5.11    4.57   2
  -1  -8 -13    6.33    4.41   2
  -1  -8 -13    4.21    4.59   2
   1   9 -13    2.97    4.48   2
   1   9 -12    3.01    4.70   2
   1   9 -11   -0.26    4.34   2
   1   9  -9   13.94    4.70   2
   1   9  -8    2.58    4.81   2
  -1  -9   7    3.23    3.26   2
  -1  -9   7   10.21    3.14   2
  -1  -9   6    9.80    5.07   2
  -1  -9   6    3.53    4.49   2
  -1  -9   5   -3.89    4.74   2
  -1  -9   5    7.12    2.63   2
  -1  -9   4    3.16    5.12   2
  -1  -9   4    6.32    2.65   2
  -1  -9   2    4.96    5.15   2
  -1  -9   2    4.13    3.55   2
  -1  -9   1   13.25    5.88   2
  -1  -9   1   12.46    2.64   2
  -1  -9   0    7.46    3.63   2
  -1  -9  -1   10.33    3.46   2
  -1  -9  -1    2.86    4.23   2
  -1  -9  -2    8.41    5.52   2
  -1  -9  -2    4.10    2.38   2
  -1  -9  -3   50.08    7.84   2
  -1  -9  -3   37.02    6.03   2
  -1  -9  -5    2.77    3.29   2
  -1  -9  -5    0.94    4.01   2
  -1  -9  -6   19.59    5.35   2
  -1  -9  -6    9.14    2.87   2
  -1  -9  -7    0.91    4.39   2
  -1  -9  -7   -0.23    2.28   2
  -1  -9  -8    6.58    4.83   2
  -1  -9  -8    3.38    2.55   2
  -1  -9  -9   24.32    5.50   2
  -1  -9  -9   14.05    3.00   2
  -1  -9 -10    2.05    4.87   2
  -1  -9 -10    3.61    4.14   2
   1  10 -10   13.71    5.40   2
   1  10  -9   -1.54    4.39   2
   1  10  -8   -0.56    4.69   2
  -1 -10   7    5.94    3.59   2
  -1 -10   7    7.84    3.38   2
  -1 -10   6   -3.85    5.49   2
  -1 -10   6    7.33    4.04   2
  -1 -10   5    1.40    5.33   2
  -1 -10   5    8.47    4.42   2
  -1 -10   4   -1.44    2.89   2
  -1 -10   4    0.31    3.99   2
  -1 -10   3    9.51    3.63   2
  -1 -10   3    7.32    4.49   2
  -1 -10   2    7.80    3.50   2
  -1 -10   2    4.45    2.73   2
  -1 -10   1   10.78    5.62   2
  -1 -10   1    4.14    3.94   2
  -1 -10   0    6.21    5.67   2
  -1 -10   0    5.90    4.25   2
  -1 -10  -1    4.94    3.73   2
  -1 -10  -1    4.48    4.51   2
  -1 -10  -2   13.72    4.03   2
  -1 -10  -2   10.49    4.58   2
  -1 -10  -3   25.62    6.21   2
  -1 -10  -3    9.61    2.70   2
  -1 -10  -4    4.72    5.17   2
  -1 -10  -4   -1.66    3.49   2
  -1 -10  -5    8.03    3.45   2
  -1 -10  -5    2.55    4.16   2
  -1 -10  -6   14.20    5.43   2
  -1 -10  -6   -1.14    3.94   2
  -1 -10  -7    2.36    2.97   2
  -1 -10  -7   -1.86    3.84   2
  -1 -10  -8    3.25    4.84   2
  -1 -11   6   -5.48    3.66   2
  -1 -11   6    0.29    4.57   2
  -1 -11   5   -1.04    3.28   2
  -1 -11   5    4.41    4.17   2
  -1 -11   3   -3.82    5.27   2
  -1 -11   3   -0.99    4.18   2
  -1 -11   2    7.05    5.64   2
  -1 -11   2    3.44    4.44   2
  -1 -11   1   -2.55    3.56   2
  -1 -11   0    9.75    5.81   2
  -1 -11   0    5.22    4.41   2
  -1 -11  -1    4.24    5.15   2
  -1 -11  -1   -0.61    3.59   2
  -1 -11  -2   18.29    4.19   2
  -1 -11  -2   15.14    5.11   2
  -1 -11  -4   -0.21    5.78   2
  -1 -11  -4    8.51    4.02   2
   2 -12  -3   12.81    5.18   2
   2 -12  -2    4.40    3.17   2
   2 -12  -1   18.82    6.42   2
   2 -12   0   12.80    4.08   2
   2 -12   1    2.37    3.30   2
  -2  12  -3   -5.41    2.82   2
   2 -11  -8    2.18    2.49   2
   2 -11  -7    9.92    4.55   2
   2 -11  -6   -2.08    2.56   2
   2 -11  -4    2.90    4.36   2
   2 -11  -3   15.59    4.87   2
   2 -11  -2    4.90    4.47   2
   2 -11  -1   -0.18    3.01   2
   2 -11   0   22.22    4.05   2
   2 -11   1   -3.78    2.90   2
  -2  11  -3   -3.69    2.65   2
  -2  11  -4   -0.38    4.18   2
  -2  11  -5    2.17    4.49   2
  -2  11  -6    3.66    4.26   2
  -2  11  -7   -2.01    3.09   2
  -2  11  -8   -1.31    4.64   2
   2 -10 -11    6.72    4.09   2
   2 -10 -10    3.88    2.34   2
   2 -10  -9   -0.18    3.81   2
   2 -10  -8   -2.04    2.53   2
   2 -10  -7    4.04    4.13   2
   2 -10  -5   10.37    3.01   2
   2 -10  -4   18.04    4.91   2
   2 -10  -4    5.67    2.57   2
   2 -10  -3   -4.38    4.48   2
   2 -10  -2    6.95    2.84   2
   2 -10  -2    6.71    2.48   2
   2 -10  -1   40.84    6.86   2
   2 -10  -1   31.56    3.52   2
   2 -10   0   -2.85    5.07   2
   2 -10   0   -2.20    2.13   2
  -2  10  -2    7.25    2.94   2
  -2  10  -3   -0.40    2.33   2
  -2  10  -4    2.48    4.19   2
  -2  10  -5    2.78    4.50   2
  -2  10  -6   -0.23    4.30   2
  -2  10  -7    2.14    2.91   2
  -2  10  -9    1.30    4.17   2
  -2  10 -10    4.97    4.58   2
  -2  10 -11   -2.57    4.45   2
   2  -9 -12    7.79    3.82   2
   2  -9 -11    2.97    3.49   2
   2  -9 -10   -3.21    2.41   2
   2  -9  -9    7.28    4.00   2
   2  -9  -9    2.21    2.21   2
   2  -9  -8    0.97    3.66   2
   2  -9  -8    1.63    2.84   2
   2  -9  -7    8.00    4.00   2
   2  -9  -7    4.71    2.12   2
   2  -9  -5    0.76    3.90   2
   2  -9  -5    3.22    2.00   2
  -2   9   5    1.60    1.97   2
   2  -9  -4    9.90    2.91   2
   2  -9  -4   10.52    2.54   2
  -2   9   4   11.01    2.31   2
   2  -9  -3    8.12    2.71   2
   2  -9  -3    7.25    2.15   2
  -2   9   3    0.77    2.19   2
   2  -9  -2   10.39    4.29   2
   2  -9  -2    7.72    2.25   2
  -2   9   2    3.62    2.30   2
   2  -9  -1   48.13    6.43   2
   2  -9  -1   32.32    3.26   2
  -2   9   1   33.52    3.51   2
   2  -9   0    2.21    4.47   2
   2  -9   0    4.30    2.10   2
  -2   9   0   -0.57    2.40   2
  -2   9  -1    3.83    2.32   2
  -2   9  -2   -0.05    3.77   2
  -2   9  -2    0.10    2.40   2
  -2   9  -3    2.04    2.29   2
  -2   9  -3    1.16    2.43   2
  -2   9  -4   12.00    2.89   2
  -2   9  -5    6.33    2.89   2
  -2   9  -6    9.93    4.91   2
  -2   9  -7    4.19    4.62   2
  -2   9  -8    6.64    4.60   2
  -2   9  -9    1.58    4.12   2
  -2   9 -10    6.90    2.85   2
  -2   9 -11   18.74    3.88   2
  -2   9 -12   -0.23    4.45   2
  -2   9 -13   -4.12    4.82   2
   2  -8 -13    3.95    1.91   2
   2  -8 -13    0.59    2.92   2
   2  -8 -12   19.18    3.88   2
   2  -8 -12   18.72    3.51   2
   2  -8 -11    3.67    3.38   2
   2  -8 -11    3.73    2.51   2
   2  -8 -10   -0.94    3.11   2
   2  -8 -10    2.81    3.13   2
   2  -8  -9    1.75    3.57   2
   2  -8  -9    2.40    2.26   2
   2  -8  -8    8.77    3.90   2
   2  -8  -8    9.75    2.52   2
   2  -8  -6   10.77    4.08   2
   2  -8  -6    9.39    2.43   2
   2  -8  -5   43.30    5.56   2
   2  -8  -5   38.52    3.08   2
   2  -8  -4   -0.51    3.62   2
  -2   8   4    0.19    1.75   2
   2  -8  -3   19.11    4.45   2
   2  -8  -3   15.42    2.27   2
  -2   8   3   14.67    2.38   2
   2  -8  -2  142.48    9.42   2
   2  -8  -2   99.84    6.02   2
  -2   8   2  118.71    7.27   2
   2  -8  -1    3.40    3.66   2
   2  -8  -1    1.64    1.80   2
  -2   8   1   -0.78    2.59   2
   2  -8   1    3.00    2.49   2
   2  -8   1    2.41    1.39   2
  -2   8  -1   -1.79    2.06   2
  -2   8  -2    1.13    3.73   2
  -2   8  -2    1.42    2.11   2
  -2   8  -3   -4.16    3.72   2
  -2   8  -3    6.23    2.29   2
  -2   8  -4    2.11    3.95   2
  -2   8  -4    5.97    2.69   2
  -2   8  -5    2.89    4.16   2
  -2   8  -6    9.68    2.89   2
  -2   8  -8   11.86    2.82   2
  -2   8  -9    6.74    2.83   2
  -2   8 -10   15.07    4.99   2
  -2   8 -11   13.13    5.10   2
  -2   8 -12   -0.24    4.35   2
  -2   8 -13   -5.13    4.57   2
  -2   8 -15   -3.01    4.65   2
   2  -7 -16   -7.32    3.60   2
   2  -7 -15   18.44    4.34   2
   2  -7 -13   23.81    3.46   2
   2  -7 -13   17.78    3.84   2
   2  -7 -12    4.20    1.86   2
   2  -7 -12    4.74    2.89   2
   2  -7 -11   -0.51    2.78   2
   2  -7 -11   -3.56    2.46   2
   2  -7 -10    3.86    2.88   2
   2  -7 -10    3.61    2.17   2
   2  -7  -9    3.15    3.28   2
   2  -7  -9    6.51    2.37   2
   2  -7  -8    6.88    3.41   2
   2  -7  -8    9.26    2.32   2
   2  -7  -6    9.00    2.18   2
   2  -7  -6    6.44    2.03   2
   2  -7  -5   25.47    2.76   2
   2  -7  -4   11.47    3.60   2
   2  -7  -4    4.08    2.48   2
  -2   7   4    9.97    2.35   2
   2  -7  -3   17.36    3.91   2
   2  -7  -3   10.53    1.84   2
  -2   7   3    8.90    1.86   2
   2  -7  -2  122.38    7.83   2
   2  -7  -2  108.80    4.60   2
  -2   7   2  113.10    6.06   2
   2  -7  -1    9.29    3.48   2
   2  -7  -1   -0.81    1.65   2
  -2   7   1    3.76    2.31   2
  -2   7   0   13.68    2.24   2
   2  -7   1   -0.39    2.48   2
   2  -7   1   -1.10    1.12   2
  -2   7  -1    7.51    1.95   2
  -2   7  -2    4.29    3.43   2
  -2   7  -2    7.14    2.10   2
  -2   7  -3   23.67    2.81   2
  -2   7  -3   20.74    2.91   2
  -2   7  -4   18.08    2.63   2
  -2   7  -4   13.68    2.68   2
  -2   7  -5   12.32    2.73   2
  -2   7  -5    7.36    1.73   2
  -2   7  -6   25.15    3.47   2
  -2   7  -8    0.46    2.33   2
  -2   7  -9   13.50    4.56   2
  -2   7 -10   58.21    7.28   2
  -2   7 -11    2.67    4.04   2
  -2   7 -12    6.69    4.51   2
  -2   7 -14    1.93    2.93   2
  -2   7 -15   17.01    5.64   2
  -2   7 -16    2.33    4.78   2
   2  -6 -14    7.48    3.45   2
   2  -6 -13   39.24    4.08   2
   2  -6 -13   39.64    4.70   2
   2  -6 -12    2.55    2.61   2
   2  -6 -12    6.79    2.97   2
  -2   6  12    3.83    2.37   2
   2  -6 -11    0.82    2.62   2
   2  -6 -11    5.07    2.61   2
  -2   6  11    2.73    2.37   2
   2  -6 -10   13.49    2.81   2
   2  -6 -10   11.98    2.78   2
  -2   6  10    5.30    2.66   2
   2  -6  -9   15.96    3.12   2
   2  -6  -9   15.77    2.75   2
  -2   6   9   12.69    2.64   2
   2  -6  -7   12.87    1.96   2
   2  -6  -7   10.16    2.14   2
  -2   6   7   13.07    2.89   2
   2  -6  -6   77.77    5.67   2
   2  -6  -6   78.45    3.98   2
  -2   6   6   74.65    4.98   2
   2  -6  -5    1.91    2.92   2
   2  -6  -5    2.56    1.43   2
  -2   6   5    1.38    2.36   2
   2  -6  -4   31.38    3.88   2
   2  -6  -4   29.38    2.14   2
  -2   6   4   24.94    3.66   2
   2  -6  -3  265.72   11.01   2
   2  -6  -3  257.47    9.29   2
  -2   6   3  269.00   12.83   2
  -2   6   3  280.75   10.90   2
   2  -6  -2    0.50    3.19   2
   2  -6  -2    2.71    1.26   2
  -2   6   2    1.07    2.73   2
  -2   6   2    1.26    1.81   2
   2  -6   0    4.28    2.36   2
   2  -6   0    5.54    1.82   2
  -2   6   0    7.72    2.05   2
  -2   6   0    6.89    1.67   2
  -2   6  -1   11.45    3.46   2
  -2   6  -1   15.89    3.73   2
  -2   6  -1   13.85    2.60   2
  -2   6  -2    5.16    3.65   2
  -2   6  -2   13.24    3.69   2
  -2   6  -2   16.44    2.20   2
  -2   6  -3   10.34    3.77   2
  -2   6  -3   10.01    2.24   2
  -2   6  -4   27.73    2.81   2
  -2   6  -4   26.70    3.04   2
  -2   6  -5   33.44    3.16   2
  -2   6  -5   35.86    3.53   2
  -2   6  -7   15.97    2.61   2
  -2   6  -8   19.07    2.99   2
  -2   6  -9   32.11    3.71   2
  -2   6 -10   31.53    3.54   2
  -2   6 -11    3.62    4.33   2
  -2   6 -12    5.81    4.34   2
  -2   6 -14    4.09    4.68   2
  -2   6 -15   10.91    3.42   2
  -2   6 -16    6.83    4.86   2
  -2   6 -17    5.06    4.86   2
   2  -5 -14   34.86    3.63   2
   2  -5 -13    7.39    2.45   2
  -2   5  13    4.22    2.07   2
   2  -5 -12   -0.07    2.82   2
  -2   5  12    4.72    1.95   2
   2  -5 -11    2.79    2.24   2
  -2   5  11   -1.12    2.60   2
   2  -5 -10    6.38    2.47   2
  -2   5  10    7.12    2.15   2
   2  -5  -9   24.10    3.01   2
   2  -5  -9   22.37    2.80   2
  -2   5   9   22.19    2.76   2
   2  -5  -7   14.87    2.73   2
   2  -5  -7   14.21    2.18   2
  -2   5   7   15.28    2.69   2
   2  -5  -6   41.90    3.87   2
   2  -5  -6   45.94    2.66   2
  -2   5   6   44.95    3.56   2
   2  -5  -5   27.33    3.15   2
   2  -5  -5   20.83    2.60   2
  -2   5   5   21.64    2.75   2
   2  -5  -4   12.57    2.95   2
   2  -5  -4   14.20    1.51   2
  -2   5   4   11.69    2.58   2
   2  -5  -3  232.26    8.72   2
   2  -5  -3  225.15    7.76   2
  -2   5   3  218.43    9.58   2
  -2   5   3  229.81    7.69   2
   2  -5  -2    2.77    2.61   2
   2  -5  -2    3.93    1.46   2
  -2   5   2    6.03    2.65   2
  -2   5   2    7.81    1.52   2
  -2   5  -1   26.64    3.92   2
  -2   5  -1   32.34    3.84   2
  -2   5  -1   30.62    2.22   2
  -2   5  -2   50.61    4.48   2
  -2   5  -2   50.34    4.73   2
  -2   5  -2   49.55    2.94   2
  -2   5  -3   42.38    3.11   2
  -2   5  -3   41.22    3.21   2
  -2   5  -3   41.48    3.08   2
  -2   5  -4   23.98    2.80   2
  -2   5  -4   17.75    3.98   2
  -2   5  -4   20.65    3.08   2
   2  -5   5  109.92    5.69   2
  -2   5  -5   91.68    6.72   2
  -2   5  -7    5.72    3.67   2
  -2   5  -8   11.80    4.06   2
  -2   5  -9  104.61    8.20   2
  -2   5 -10   -2.73    3.84   2
  -2   5 -11    0.94    3.89   2
  -2   5 -14   36.32    6.36   2
  -2   5 -15   14.57    5.09   2
  -2   5 -16    5.86    4.78   2
  -2   5 -17   34.73    4.83   2
   2  -4 -14   70.39    4.38   2
  -2   4  14   53.86    3.67   2
   2  -4 -13   14.24    2.37   2
  -2   4  13    8.47    2.14   2
   2  -4 -12   21.79    2.76   2
  -2   4  12   18.73    2.32   2
   2  -4 -11   15.15    3.09   2
  -2   4  11   15.34    2.05   2
   2  -4 -10   15.91    2.23   2
  -2   4  10   14.85    2.15   2
   2  -4  -8    4.91    2.66   2
  -2   4   8    9.14    2.55   2
   2  -4  -7  120.95    5.12   2
  -2   4   7  124.35    6.23   2
   2  -4  -6   -0.11    1.91   2
  -2   4   6    6.40    1.88   2
   2  -4  -5   44.79    4.06   2
   2  -4  -5   39.38    2.16   2
  -2   4   5   39.88    2.84   2
   2  -4  -4  541.67   22.07   2
   2  -4  -4  537.48   19.23   2
  -2   4   4  520.71   21.23   2
   2  -4  -3   -1.37    2.12   2
   2  -4  -3    1.23    1.05   2
  -2   4   3    2.17    1.88   2
  -2   4   0   42.12    2.55   2
  -2   4   0   37.24    3.73   2
  -2   4   0   41.85    2.20   2
  -2   4  -1   36.53    2.59   2
  -2   4  -1   34.55    2.55   2
  -2   4  -1   30.31    1.91   2
  -2   4  -2    0.88    1.90   2
  -2   4  -2    9.09    3.01   2
  -2   4  -2    2.49    1.12   2
   2  -4   3   52.95    2.99   2
  -2   4  -3   51.78    3.10   2
   2  -4   4  116.52    5.17   2
  -2   4  -4  112.20    6.95   2
   2  -4   6   36.41    4.49   2
  -2   4  -6   35.89    4.47   2
   2  -4   7   28.15    2.80   2
  -2   4  -7   30.51    4.67   2
  -2   4  -8   51.22    5.72   2
  -2   4  -9   45.28    5.51   2
  -2   4 -10   14.76    4.60   2
  -2   4 -13   -3.77    4.19   2
  -2   4 -14   19.49    5.39   2
  -2   4 -15   23.09    3.93   2
  -2   4 -16    0.33    4.44   2
  -2   4 -17   49.64    7.06   2
  -2   4 -18   -1.00    2.70   2
   2  -3 -15   60.01    4.02   2
  -2   3  15   58.93    4.36   2
   2  -3 -14    9.93    2.25   2
  -2   3  14    5.46    1.78   2
   2  -3 -13    1.13    1.88   2
  -2   3  13    3.84    1.75   2
   2  -3 -12   -0.60    1.69   2
  -2   3  12    3.56    1.57   2
   2  -3 -11    2.24    1.69   2
  -2   3  11    3.71    1.42   2
   2  -3  -8   42.46    2.41   2
  -2   3   8   44.86    2.41   2
   2  -3  -7   64.86    3.57   2
  -2   3   7   66.93    2.88   2
   2  -3  -6   27.98    2.56   2
  -2   3   6   25.62    1.91   2
   2  -3  -5    8.63    2.26   2
  -2   3   5    9.68    1.61   2
   2  -3  -4  362.26   12.51   2
   2  -3  -3   11.99    1.90   2
   2  -3  -3   14.19    0.91   2
  -2   3   3   15.95    1.99   2
  -2   3   1   55.92    2.41   2
  -2   3   1   59.46    2.33   2
  -2   3   1   53.82    1.21   2
   2  -3   1   95.66    5.04   2
  -2   3  -1   85.86    3.55   2
   2  -3   2  120.07    6.40   2
  -2   3  -2  107.97    6.19   2
   2  -3   3   37.27    3.71   2
  -2   3  -3   27.96    2.59   2
   2  -3   4  410.05   19.26   2
   2  -3   6    8.54    3.10   2
  -2   3  -6   -0.59    3.34   2
   2  -3   7   33.35    2.71   2
  -2   3  -7   28.28    2.89   2
   2  -3   8  152.63    8.47   2
  -2   3  -8  141.84    6.76   2
  -2   3  -9   11.51    4.22   2
  -2   3 -10    7.17    3.85   2
  -2   3 -13   60.16    6.88   2
  -2   3 -14   27.33    5.63   2
  -2   3 -15    7.23    2.95   2
  -2   3 -16   86.45    8.53   2
  -2   3 -17    3.06    4.40   2
   2  -2 -15   75.72    4.30   2
  -2   2  15   67.76    3.82   2
   2  -2 -14   14.43    2.30   2
  -2   2  14   14.90    1.93   2
   2  -2 -13   42.51    2.79   2
  -2   2  13   45.77    3.46   2
   2  -2 -12   29.48    2.51   2
  -2   2  12   30.40    2.67   2
   2  -2 -11   11.91    2.31   2
  -2   2   9    0.56    1.09   2
   2  -2  -8  167.30    5.69   2
  -2   2   8  164.35    4.93   2
   2  -2  -7   22.09    1.80   2
  -2   2   7   20.39    1.64   2
   2  -2  -6   46.24    1.95   2
  -2   2   6   42.27    1.76   2
   2  -2  -5  734.51   26.11   2
  -2   2   5  775.97   27.36   2
   2  -2  -4    1.68    1.15   2
  -2   2   4    0.44    1.05   2
   2  -2  -2   31.95    1.16   2
  -2   2   2   29.48    1.98   2
  -2   2   2   29.62    2.72   2
   2  -2  -1  135.36    5.08   2
  -2   2   1  137.69    5.28   2
  -2   2   1  138.53    3.28   2
   2  -2   0   68.68    3.60   2
  -2   2   0   67.51    4.07   2
   2  -2   1   29.19    3.11   2
  -2   2  -1   23.31    2.12   2
   2  -2   2  100.90    5.74   2
  -2   2  -2   92.52    5.85   2
   2  -2   3  304.20   13.01   2
  -2   2  -3  314.92   14.38   2
   2  -2   5   71.81    5.16   2
  -2   2  -5   61.30    3.67   2
   2  -2   6   51.61    4.19   2
  -2   2  -6   41.67    5.00   2
   2  -2   7   61.82    4.97   2
  -2   2  -7   56.79    5.47   2
   2  -2   8   79.34    5.46   2
  -2   2  -8   80.36    4.89   2
   2  -2   9   38.23    4.28   2
  -2   2  -9   45.59    5.41   2
  -2   2 -10    6.25    4.04   2
  -2   2 -12    2.57    4.01   2
  -2   2 -13   17.45    3.09   2
  -2   2 -14   43.91    6.10   2
  -2   2 -15    2.61    2.65   2
  -2   2 -16  123.04    9.84   2
  -2   2 -19    6.03    4.75   2
   2  -1 -16   54.68    3.88   2
   2  -1 -15    6.06    2.85   2
  -2   1  15    8.22    1.83   2
   2  -1 -14    6.38    2.02   2
  -2   1  14    4.23    1.75   2
   2  -1 -13    1.95    1.73   2
  -2   1  13    2.81    1.46   2
   2  -1 -12    2.83    2.22   2
  -2   1  12    0.52    1.86   2
  -2   1  11   43.97    3.01   2
   2  -1  -9   64.16    2.60   2
  -2   1   9   65.57    2.56   2
   2  -1  -8   73.91    2.95   2
  -2   1   8   67.58    2.76   2
   2  -1  -7   31.50    1.69   2
  -2   1   7   33.42    1.57   2
   2  -1  -6    2.51    0.68   2
   2  -1  -4   22.69    2.44   2
  -2   1   3  116.53    2.64   2
   2  -1  -2  163.33    4.91   2
   2  -1  -2  153.75    5.00   2
  -2   1   2  155.08    4.91   2
  -2   1   2  145.81    5.10   2
   2  -1  -1  286.21    9.40   2
   2  -1  -1  324.82   10.27   2
  -2   1   1  313.43   10.22   2
  -2   1   1  307.14    9.89   2
   2  -1   0  106.48    4.89   2
   2  -1   0  106.03    4.30   2
  -2   1   0  103.36    5.34   2
  -2   1   0  110.65    4.56   2
   2  -1   1  232.67    9.51   2
  -2   1  -1  237.36   10.15   2
  -2   1  -1  236.25    8.89   2
   2  -1   2   39.14    4.04   2
  -2   1  -2   43.69    4.87   2
   2  -1   3 1306.00   68.74   2
  -2   1  -3 1193.18   59.45   2
   2  -1   4  139.37    6.96   2
  -2   1  -4   80.43    4.50   2
   2  -1   5    0.67    1.75   2
  -2   1  -5    0.63    3.38   2
   2  -1   6   57.32    4.43   2
  -2   1  -6   47.95    4.94   2
   2  -1   7  150.86    7.73   2
  -2   1  -7  126.48    6.01   2
   2  -1   8   31.50    2.65   2
  -2   1  -8   27.78    4.68   2
   2  -1   9   -3.41    2.73   2
  -2   1  -9    7.55    3.64   2
  -2   1 -12   87.25    5.32   2
  -2   1 -13   48.01    6.40   2
  -2   1 -14    8.51    2.81   2
  -2   1 -15  182.56   12.29   2
  -2   1 -16   -6.37    4.21   2
  -2   1 -19    5.37    2.82   2
   2   0 -16   59.59    4.01   2
  -2   0  16   42.22    3.65   2
   2   0 -15   18.31    2.75   2
   2   0 -14   46.74    4.23   2
  -2   0  14   47.45    3.24   2
   2   0 -13   21.67    2.50   2
  -2   0  13   27.25    2.27   2
   2   0 -12    3.74    1.82   2
  -2   0  12    4.69    1.72   2
   2   0 -10   11.77    1.75   2
  -2   0  10   15.72    1.79   2
   2   0  -9  122.64    5.30   2
  -2   0   9  118.97    4.18   2
   2   0  -8   33.31    2.25   2
  -2   0   8   34.29    1.79   2
   2   0  -7   20.97    1.07   2
   2   0  -7   28.43    1.99   2
   2   0  -7   13.49    2.23   2
   2   0  -6  522.24   18.03   2
   2   0  -6  515.46   17.42   2
   2   0  -6  563.51   23.50   2
   2   0  -5    2.99    1.27   2
   2   0  -5    2.22    1.16   2
   2   0  -5    5.04    2.39   2
   2   0  -3   48.14    2.05   2
   2   0  -3   45.04    3.69   2
  -2   0   3   44.97    2.73   2
  -2   0   3   46.86    3.92   2
   2   0  -2  183.31    6.75   2
   2   0  -2  171.64    5.75   2
  -2   0   2  174.28    5.98   2
  -2   0   2  181.77    7.64   2
   2   0  -1   98.49    4.33   2
   2   0  -1  101.85    5.25   2
  -2   0   1   97.59    4.46   2
  -2   0   1   98.30    5.46   2
   2   0   0   34.54    2.12   2
   2   0   0   51.30    4.01   2
  -2   0   0   43.25    3.61   2
  -2   0   0   38.95    2.49   2
   2   0   1   95.47    5.51   2
   2   0   1  101.46    5.53   2
  -2   0  -1   99.15    5.95   2
  -2   0  -1   90.42    5.68   2
   2   0   2  450.12   16.25   2
   2   0   2  469.06   18.44   2
  -2   0  -2  429.03   15.96   2
  -2   0  -2  454.18   18.72   2
   2   0   4  103.47    6.56   2
  -2   0  -4  109.14    7.10   2
   2   0   5   54.97    4.74   2
  -2   0  -5   59.42    5.36   2
   2   0   6   58.85    3.36   2
  -2   0  -6   55.51    3.78   2
   2   0   7   92.84    5.93   2
  -2   0  -7   87.96    4.75   2
   2   0   8   57.72    4.82   2
  -2   0  -8   55.03    3.73   2
   2   0   9    6.58    2.12   2
  -2   0  -9    7.66    3.96   2
  -2   0 -12   28.22    5.07   2
  -2   0 -13   71.97    4.81   2
  -2   0 -14   -0.18    3.51   2
  -2   0 -15  196.83   13.16   2
  -2   0 -19    2.46    2.68   2
   2   1 -17   26.84    3.46   2
   2   1 -16    9.49    2.51   2
  -2  -1  16    6.29    2.26   2
   2   1 -15    4.02    2.25   2
  -2  -1  15   -0.80    1.84   2
   2   1 -14    4.32    2.22   2
  -2  -1  14    1.36    1.90   2
   2   1 -13    0.49    2.15   2
  -2  -1  13   -0.71    1.67   2
   2   1 -12   23.00    2.56   2
  -2  -1  12   17.68    2.32   2
   2   1 -10   30.43    2.06   2
   2   1 -10   69.87    3.23   2
   2   1  -9   67.72    3.53   2
   2   1  -9   63.20    3.20   2
   2   1  -9   61.75    4.16   2
   2   1  -8   25.85    2.77   2
   2   1  -8   24.89    2.94   2
   2   1  -8   27.02    2.30   2
   2   1  -7   17.94    2.13   2
   2   1  -7   22.26    2.17   2
   2   1  -7   26.75    2.24   2
   2   1  -6  194.72    6.71   2
   2   1  -6  189.50    6.49   2
   2   1  -6  190.73    8.99   2
   2   1  -5   24.58    2.18   2
   2   1  -5   25.02    2.09   2
  -2  -1   5   22.19    2.21   2
  -2  -1   5   18.16    3.66   2
   2   1  -3  143.18    5.56   2
   2   1  -3  139.59    5.32   2
  -2  -1   3  138.23    5.87   2
  -2  -1   3  145.47    7.23   2
   2   1  -2  230.46    8.89   2
   2   1  -2  235.09   10.03   2
  -2  -1   2  225.31    9.08   2
  -2  -1   2  216.99   10.05   2
   2   1  -1   74.25    4.56   2
   2   1  -1   81.13    5.21   2
  -2  -1   1   76.85    5.16   2
  -2  -1   1   74.50    5.41   2
   2   1   0  230.45    8.16   2
   2   1   0  255.06   10.90   2
  -2  -1   0  236.56   10.41   2
  -2  -1   0  244.46   11.29   2
   2   1   1   24.36    3.79   2
   2   1   1   27.31    3.67   2
  -2  -1  -1   17.03    2.27   2
  -2  -1  -1   19.39    3.71   2
   2   1   2 1412.77   73.56   2
  -2  -1  -2 1330.11   67.31   2
   2   1   3   86.35    4.07   2
   2   1   4   -0.12    2.71   2
  -2  -1  -4    1.72    3.40   2
  -2  -1  -4    2.15    1.88   2
   2   1   5   65.10    3.45   2
  -2  -1  -5   69.74    3.96   2
  -2  -1  -5   66.36    5.51   2
   2   1   6   55.20    3.30   2
  -2  -1  -6   60.84    5.48   2
   2   1   7   51.86    3.21   2
  -2  -1  -7   46.65    3.39   2
   2   1   8    1.64    1.77   2
  -2  -1  -8    1.71    3.30   2
   2   1   9  107.66    5.01   2
  -2  -1  -9  150.83    8.42   2
  -2  -1 -12   72.71    6.81   2
  -2  -1 -13   -1.34    3.85   2
  -2  -1 -14  243.43   11.13   2
  -2  -1 -15    4.20    2.41   2
   2   2 -18    0.89    2.76   2
   2   2 -17   31.15    3.99   2
   2   2 -16   21.72    3.59   2
   2   2 -15   37.58    3.77   2
   2   2 -14   15.25    3.14   2
   2   2 -14   20.36    3.06   2
   2   2 -13   -1.24    2.32   2
   2   2 -13    0.55    2.34   2
   2   2 -11   20.57    2.72   2
   2   2 -11   28.83    2.98   2
   2   2 -10   59.60    3.88   2
   2   2 -10   65.38    4.05   2
   2   2  -9   30.00    3.01   2
   2   2  -9   35.05    2.84   2
   2   2  -8   17.56    2.62   2
   2   2  -8   14.27    2.65   2
   2   2  -8   17.37    2.18   2
   2   2  -7  212.62    8.82   2
   2   2  -7  205.46    8.29   2
   2   2  -7  212.55    8.73   2
   2   2  -6    1.97    1.26   2
   2   2  -6    2.67    2.69   2
  -2  -2   6   -1.53    2.34   2
  -2  -2   6    0.28    2.16   2
   2   2  -4   53.01    3.62   2
   2   2  -4   55.72    3.33   2
  -2  -2   4   50.98    3.96   2
  -2  -2   4   51.66    4.98   2
   2   2  -3   72.60    4.47   2
   2   2  -3   75.32    4.95   2
  -2  -2   3   70.55    4.87   2
  -2  -2   3   71.93    5.55   2
   2   2  -2   51.98    4.05   2
   2   2  -2   60.62    4.87   2
  -2  -2   2   58.00    4.58   2
  -2  -2   2   51.49    4.96   2
   2   2  -1   24.83    2.38   2
   2   2  -1   33.12    3.85   2
  -2  -2   1   24.81    4.04   2
  -2  -2   1   30.27    4.07   2
   2   2   0   55.67    4.79   2
   2   2   0   50.99    4.67   2
  -2  -2   0   47.83    5.08   2
  -2  -2   0   50.31    4.92   2
   2   2   1  430.71   19.30   2
   2   2   1  418.84   16.24   2
  -2  -2  -1  411.96   18.81   2
  -2  -2  -1  412.21   16.02   2
   2   2   3   80.11    4.00   2
   2   2   3   87.78    5.73   2
  -2  -2  -3   83.47    6.35   2
  -2  -2  -3   81.37    4.22   2
   2   2   4   32.70    2.93   2
   2   2   4   31.26    2.60   2
  -2  -2  -4   35.71    2.95   2
  -2  -2  -4   37.42    2.85   2
   2   2   5   40.99    4.15   2
  -2  -2  -5   33.12    3.04   2
  -2  -2  -5   31.41    4.37   2
   2   2   6   64.94    5.08   2
  -2  -2  -6   53.21    5.56   2
  -2  -2  -6   56.15    3.85   2
   2   2   7   47.33    3.23   2
  -2  -2  -7   58.26    5.52   2
  -2  -2  -7   55.29    3.96   2
   2   2   8   13.02    2.20   2
  -2  -2  -8    7.32    2.51   2
  -2  -2 -11   23.50    4.78   2
  -2  -2 -12   87.83    7.62   2
  -2  -2 -13    9.77    4.57   2
  -2  -2 -14  253.36   14.85   2
  -2  -2 -18   -0.41    2.47   2
   2   3 -18   14.30    3.71   2
   2   3 -17    4.40    3.08   2
   2   3 -16    0.96    2.98   2
   2   3 -15   -0.89    1.75   2
   2   3 -14    2.61    2.83   2
   2   3 -13   15.50    3.24   2
   2   3 -11   41.20    4.23   2
   2   3 -11   49.36    4.29   2
   2   3 -10   33.48    3.42   2
   2   3  -9   16.75    2.92   2
   2   3  -9   21.17    3.17   2
   2   3  -8   -0.97    2.24   2
   2   3  -8    0.94    2.32   2
   2   3  -6   14.00    2.98   2
   2   3  -6   10.75    2.15   2
  -2  -3   6   15.86    3.06   2
  -2  -3   6   14.59    3.82   2
   2   3  -4   85.66    5.26   2
   2   3  -4   90.35    5.78   2
  -2  -3   4   88.95    5.89   2
  -2  -3   4   89.16    6.10   2
   2   3  -3   83.02    5.46   2
   2   3  -3   84.78    5.78   2
  -2  -3   3   86.50    6.12   2
  -2  -3   3   81.86    5.99   2
   2   3  -2   31.52    3.59   2
   2   3  -2   42.87    2.81   2
  -2  -3   2   33.63    4.57   2
  -2  -3   2   34.20    2.86   2
   2   3  -1  135.02    7.22   2
   2   3  -1  140.24    7.55   2
  -2  -3   1  152.17    8.06   2
  -2  -3   1  133.12    7.89   2
   2   3   0   -2.03    3.08   2
   2   3   0    3.07    2.96   2
  -2  -3   0    6.86    3.65   2
  -2  -3   0    2.12    3.29   2
   2   3   1  802.06   36.64   2
   2   3   1  756.20   35.66   2
  -2  -3  -1  810.45   41.40   2
  -2  -3  -1  758.92   35.32   2
   2   3   3    0.24    3.30   2
   2   3   3   -2.28    1.77   2
  -2  -3  -3   -2.24    3.58   2
  -2  -3  -3   -2.68    3.27   2
   2   3   4   62.15    3.85   2
   2   3   4   59.82    5.19   2
  -2  -3  -4   70.01    6.20   2
  -2  -3  -4   56.47    5.77   2
   2   3   5    8.73    3.63   2
   2   3   5   -0.75    3.03   2
  -2  -3  -5   15.25    3.96   2
  -2  -3  -5   10.39    2.35   2
   2   3   6   42.12    3.24   2
  -2  -3  -6   47.03    5.23   2
  -2  -3  -6   39.03    5.05   2
   2   3   7    3.69    3.05   2
  -2  -3  -7   -2.19    2.04   2
  -2  -3 -10   58.50    6.23   2
  -2  -3 -10   50.14    4.49   2
  -2  -3 -11   64.07    6.47   2
  -2  -3 -11   54.86    6.98   2
  -2  -3 -12    2.80    2.61   2
  -2  -3 -12   11.89    2.94   2
  -2  -3 -13  216.10   10.75   2
  -2  -3 -13  213.82   14.29   2
  -2  -3 -14    1.42    2.48   2
  -2  -3 -14   -5.06    4.37   2
  -2  -3 -17    3.28    2.61   2
  -2  -3 -18    7.43    2.85   2
   2   4 -18   15.16    4.11   2
   2   4 -17   16.52    3.79   2
   2   4 -16   15.57    3.94   2
   2   4 -15    7.25    3.61   2
   2   4 -14   -0.67    2.95   2
   2   4 -12   22.05    3.88   2
   2   4 -11   27.43    4.03   2
   2   4 -10   18.51    3.71   2
   2   4 -10   21.08    3.87   2
   2   4  -9    7.74    2.11   2
   2   4  -9   13.28    1.95   2
   2   4  -8   53.77    3.72   2
   2   4  -8   65.81    4.92   2
   2   4  -7    1.94    1.66   2
  -2  -4   7   -2.83    2.98   2
  -2  -4   7   10.49    4.18   2
   2   4  -5   37.44    3.98   2
   2   4  -5   30.35    2.84   2
  -2  -4   5   32.81    4.39   2
  -2  -4   5   36.39    4.84   2
   2   4  -4   20.41    2.21   2
   2   4  -4   18.25    3.63   2
  -2  -4   4   18.11    4.08   2
  -2  -4   4   16.72    3.76   2
   2   4  -3   22.28    3.96   2
   2   4  -3   26.39    4.00   2
  -2  -4   3   29.85    2.80   2
  -2  -4   3   30.38    4.46   2
   2   4  -2   15.65    2.20   2
  -2  -4   2   13.90    2.78   2
  -2  -4   2   20.92    4.16   2
   2   4  -1   19.71    3.80   2
   2   4  -1   20.52    2.42   2
  -2  -4   1   27.76    4.53   2
  -2  -4   1   25.45    2.81   2
   2   4   0  210.73    9.11   2
   2   4   0  215.22   11.14   2
  -2  -4   0  223.00   12.50   2
  -2  -4   0  215.69   11.56   2
   2   4   2   53.97    5.51   2
   2   4   2   54.24    4.79   2
  -2  -4  -2   48.84    5.97   2
  -2  -4  -2   53.00    5.70   2
   2   4   3   20.38    2.73   2
   2   4   3   21.50    2.31   2
  -2  -4  -3   13.96    4.77   2
  -2  -4  -3   18.78    4.29   2
   2   4   4   14.20    3.88   2
   2   4   4    9.50    2.08   2
  -2  -4  -4   12.05    4.59   2
  -2  -4  -4    5.96    4.16   2
   2   4   5   21.33    2.57   2
  -2  -4  -5   23.72    4.85   2
  -2  -4  -5   14.59    4.69   2
  -2  -4  -6   24.51    5.08   2
  -2  -4  -6   23.40    3.01   2
  -2  -4  -7    6.65    4.47   2
  -2  -4  -7   11.46    4.10   2
  -2  -4  -9   -0.29    3.99   2
  -2  -4  -9    3.31    2.53   2
  -2  -4 -10   17.54    2.94   2
  -2  -4 -10    8.14    5.04   2
  -2  -4 -11   70.35    6.54   2
  -2  -4 -11   55.23    7.17   2
  -2  -4 -12    5.86    4.36   2
  -2  -4 -12    1.46    2.86   2
  -2  -4 -13  174.87   12.13   2
  -2  -4 -13  185.60   13.25   2
  -2  -4 -14   26.06    3.46   2
  -2  -4 -14   24.01    6.04   2
  -2  -4 -16   14.33    3.05   2
  -2  -4 -16   13.87    3.53   2
  -2  -4 -17   -0.58    2.52   2
  -2  -4 -17   -5.19    4.87   2
   2   5 -18   -1.75    3.66   2
   2   5 -17    0.09    3.50   2
   2   5 -16    1.64    3.08   2
   2   5 -15    2.40    3.57   2
   2   5 -14    2.79    2.21   2
   2   5 -12   21.76    4.35   2
   2   5 -11   16.87    2.67   2
   2   5 -10    3.94    3.51   2
   2   5  -9    2.21    1.88   2
  -2  -5   8   10.14    2.41   2
  -2  -5   8   11.24    3.22   2
  -2  -5   7    7.01    2.32   2
  -2  -5   7    4.41    2.43   2
  -2  -5   5   42.62    5.64   2
  -2  -5   5   56.83    4.02   2
  -2  -5   4   26.75    4.83   2
  -2  -5   4   23.16    4.32   2
   2   5  -3   13.95    3.52   2
   2   5  -3   12.50    3.70   2
  -2  -5   3   13.71    4.48   2
  -2  -5   3   10.16    4.08   2
   2   5  -2   57.78    3.78   2
   2   5  -2   69.12    5.73   2
  -2  -5   2   75.14    4.84   2
  -2  -5   2   76.45    6.84   2
   2   5  -1    2.50    3.19   2
   2   5  -1    0.07    3.24   2
  -2  -5   1    0.84    4.05   2
  -2  -5   1    6.12    3.49   2
   2   5   0  373.64   19.56   2
  -2  -5   0  374.39   17.12   2
  -2  -5   0  353.08   16.03   2
   2   5   1   22.01    3.82   2
   2   5   2    1.01    3.12   2
  -2  -5  -2    6.90    4.31   2
  -2  -5  -2   -0.13    3.54   2
   2   5   3   41.99    4.63   2
  -2  -5  -3   39.66    5.92   2
  -2  -5  -3   43.39    5.41   2
  -2  -5  -4    2.34    4.07   2
  -2  -5  -4    5.19    3.93   2
  -2  -5  -5   22.48    5.16   2
  -2  -5  -6   -0.52    3.92   2
  -2  -5  -6    0.15    2.10   2
  -2  -5  -7   41.19    3.79   2
  -2  -5  -7   27.51    3.82   2
  -2  -5  -9   30.89    5.63   2
  -2  -5  -9   27.81    3.47   2
  -2  -5 -10   36.08    5.88   2
  -2  -5 -10   36.60    5.73   2
  -2  -5 -11    2.04    2.72   2
  -2  -5 -11    8.35    4.45   2
  -2  -5 -12  148.90   10.90   2
  -2  -5 -12  123.85    8.43   2
  -2  -5 -13    0.20    4.38   2
  -2  -5 -13    8.72    4.79   2
  -2  -5 -16   -0.52    2.53   2
  -2  -5 -16   -0.93    4.57   2
   2   6 -17   10.76    4.25   2
   2   6 -16    3.81    3.75   2
   2   6 -15    4.25    2.34   2
   2   6 -13    6.89    3.93   2
   2   6 -12   19.42    4.44   2
   2   6 -11   16.34    2.85   2
   2   6 -10    7.91    3.84   2
   2   6  -9   15.26    4.37   2
  -2  -6   8    0.74    2.27   2
  -2  -6   8    0.08    2.94   2
  -2  -6   6   26.13    4.95   2
  -2  -6   6   24.78    5.07   2
  -2  -6   5    2.85    2.19   2
  -2  -6   5   -2.96    2.30   2
  -2  -6   4   12.44    4.65   2
  -2  -6   3    9.36    4.76   2
  -2  -6   3   11.89    2.80   2
  -2  -6   2   11.45    3.03   2
  -2  -6   2    3.81    4.34   2
  -2  -6   1  116.72    8.85   2
  -2  -6   1   93.94    7.66   2
  -2  -6  -1   32.08    5.94   2
  -2  -6  -1   29.02    5.15   2
  -2  -6  -2   10.27    5.37   2
  -2  -6  -2   22.24    4.53   2
  -2  -6  -3   -4.62    4.81   2
  -2  -6  -4   -2.08    4.43   2
  -2  -6  -5   19.58    5.02   2
  -2  -6  -5   11.43    4.95   2
  -2  -6  -6   23.39    4.93   2
  -2  -6  -6    7.00    2.62   2
  -2  -6  -8    8.54    4.77   2
  -2  -6  -8    2.27    4.27   2
  -2  -6  -9    9.59    3.02   2
  -2  -6  -9    8.82    2.94   2
  -2  -6 -10   19.83    5.89   2
  -2  -6 -10   31.21    5.62   2
  -2  -6 -11    1.57    2.88   2
  -2  -6 -11    2.87    4.41   2
  -2  -6 -12   98.18    9.37   2
  -2  -6 -12   94.81    6.99   2
  -2  -6 -13   16.59    5.21   2
  -2  -6 -13   17.77    5.42   2
  -2  -6 -15    3.51    2.86   2
  -2  -6 -15    0.62    4.63   2
   2   7 -15   -0.40    2.37   2
   2   7 -13   18.03    4.70   2
   2   7 -12    9.42    4.62   2
   2   7 -11    9.73    4.35   2
   2   7 -10   -5.06    3.94   2
   2   7  -9    3.88    2.56   2
  -2  -7   8    4.84    2.70   2
  -2  -7   8    1.35    3.24   2
  -2  -7   6   16.26    4.82   2
  -2  -7   6   19.24    5.07   2
  -2  -7   5    0.82    4.50   2
  -2  -7   5    6.99    2.77   2
  -2  -7   4    4.83    2.83   2
  -2  -7   4    1.86    4.29   2
  -2  -7   3   27.31    3.94   2
  -2  -7   3   36.36    5.41   2
  -2  -7   2   -1.81    4.78   2
  -2  -7   2   -1.99    4.19   2
  -2  -7   1  178.18   13.63   2
  -2  -7   1  159.37   11.41   2
  -2  -7  -1   -6.01    4.94   2
  -2  -7  -1    1.09    4.01   2
  -2  -7  -2   22.19    5.75   2
  -2  -7  -2   17.65    3.13   2
  -2  -7  -3    2.08    4.43   2
  -2  -7  -3   -0.50    3.97   2
  -2  -7  -4   18.54    3.71   2
  -2  -7  -5    1.60    2.69   2
  -2  -7  -5   -0.36    2.37   2
  -2  -7  -6    9.07    4.53   2
  -2  -7  -8    4.68    5.25   2
  -2  -7  -8   18.81    4.71   2
  -2  -7  -9   23.90    5.47   2
  -2  -7  -9   14.86    5.15   2
  -2  -7 -10    5.00    4.92   2
  -2  -7 -10    4.42    2.67   2
  -2  -7 -11   64.95    7.83   2
  -2  -7 -11   55.03    7.81   2
  -2  -7 -12    2.68    4.35   2
  -2  -7 -12   -2.39    4.57   2
   2   8 -14    5.89    4.42   2
   2   8 -13    6.88    4.59   2
   2   8 -12    4.07    4.56   2
   2   8 -11   -2.82    2.53   2
   2   8 -10   -0.36    2.47   2
   2   8  -9    0.60    2.61   2
  -2  -8   7    6.84    4.67   2
  -2  -8   7    6.95    4.49   2
  -2  -8   6    1.33    4.15   2
  -2  -8   6    2.22    4.51   2
  -2  -8   5   14.61    5.19   2
  -2  -8   5   10.41    4.96   2
  -2  -8   4   11.31    5.00   2
  -2  -8   4    6.13    2.86   2
  -2  -8   3   14.88    5.09   2
  -2  -8   3    2.76    4.18   2
  -2  -8   2   31.44    7.05   2
  -2  -8   2   40.82    5.99   2
  -2  -8   0    1.39    5.56   2
  -2  -8   0    7.46    4.54   2
  -2  -8  -1   10.03    5.49   2
  -2  -8  -1    1.42    4.20   2
  -2  -8  -2    5.17    5.48   2
  -2  -8  -3   11.64    3.47   2
  -2  -8  -4   -2.34    5.01   2
  -2  -8  -4   10.92    4.28   2
  -2  -8  -5    3.77    5.25   2
  -2  -8  -5    8.14    4.47   2
  -2  -8  -7    5.32    4.68   2
  -2  -8  -7   -4.88    4.07   2
  -2  -8  -8    5.96    5.17   2
  -2  -8  -8    1.21    4.15   2
  -2  -8  -9   15.67    5.23   2
  -2  -8  -9    3.45    4.62   2
  -2  -8 -10    1.24    2.95   2
  -2  -8 -10    3.99    4.15   2
  -2  -8 -11   43.39    6.79   2
  -2  -8 -11   32.46    4.49   2
  -2  -8 -12    7.30    3.30   2
  -2  -8 -12   14.39    4.72   2
   2   9 -12    2.14    2.69   2
   2   9 -11    0.57    2.56   2
   2   9 -10   -0.79    2.39   2
   2   9  -9   -2.69    2.99   2
  -2  -9   7   11.62    3.23   2
  -2  -9   7   -0.60    2.97   2
  -2  -9   6   -0.58    2.78   2
  -2  -9   6   -0.85    4.32   2
  -2  -9   5   -1.96    3.08   2
  -2  -9   5    8.67    4.50   2
  -2  -9   4    9.51    3.76   2
  -2  -9   4   20.86    5.22   2
  -2  -9   3   -2.28    3.10   2
  -2  -9   3   -3.05    3.98   2
  -2  -9   2   54.91    8.47   2
  -2  -9   2   49.57    4.60   2
  -2  -9   1    0.89    6.16   2
  -2  -9   1    6.70    3.13   2
  -2  -9   0    6.62    5.17   2
  -2  -9   0   -3.82    4.65   2
  -2  -9  -1   10.13    6.27   2
  -2  -9  -2    2.65    3.42   2
  -2  -9  -2    4.68    4.32   2
  -2  -9  -3   -3.71    5.59   2
  -2  -9  -4   -0.70    5.57   2
  -2  -9  -4   -2.70    2.52   2
  -2  -9  -5    8.87    3.41   2
  -2  -9  -5    5.92    2.88   2
  -2  -9  -6    8.08    5.13   2
  -2  -9  -6    2.89    2.97   2
  -2  -9  -7    9.69    5.18   2
  -2  -9  -7   10.23    2.83   2
  -2  -9  -8    5.03    5.25   2
  -2  -9  -8    3.40    2.81   2
  -2  -9  -9    6.97    4.65   2
  -2  -9  -9   -4.99    3.93   2
  -2  -9 -10   16.07    5.54   2
  -2 -10   8    5.16    3.32   2
  -2 -10   8    4.11    3.21   2
  -2 -10   7   10.94    5.31   2
  -2 -10   7    3.54    2.97   2
  -2 -10   6    0.68    5.02   2
  -2 -10   6    3.43    2.87   2
  -2 -10   5   -0.98    5.04   2
  -2 -10   5    6.04    2.95   2
  -2 -10   4   15.44    4.71   2
  -2 -10   4   -3.93    2.74   2
  -2 -10   3    9.01    5.60   2
  -2 -10   3    2.83    3.06   2
  -2 -10   1    3.55    3.58   2
  -2 -10   1    6.96    4.70   2
  -2 -10   0   -6.23    5.65   2
  -2 -10   0    1.65    4.47   2
  -2 -10  -1    0.76    6.26   2
  -2 -10  -1   10.80    5.25   2
  -2 -10  -2    1.09    3.57   2
  -2 -10  -2   -2.86    4.25   2
  -2 -10  -3    0.47    5.38   2
  -2 -10  -3    0.07    4.05   2
  -2 -10  -4    3.44    5.62   2
  -2 -10  -4    2.75    4.27   2
  -2 -10  -6    1.79    5.31   2
  -2 -10  -6    6.97    4.34   2
  -2 -10  -7    3.60    3.25   2
  -2 -11   3    0.16    4.54   2
  -2 -11   2    2.98    4.69   2
  -2 -11   1    2.22    3.57   2
  -2 -11   1    0.43    4.00   2
  -2 -11   0   -0.10    3.88   2
  -2 -11  -1   -1.53    4.44   2
   3 -12  -2   -4.04    3.13   2
  -3  12   1    5.68    4.25   2
  -3  12  -1    4.15    4.22   2
  -3  12  -2   -4.25    2.63   2
  -3  12  -3    3.02    4.11   2
   3 -11  -8    8.30    3.68   2
   3 -11  -7    4.67    3.91   2
   3 -11  -6    3.25    2.25   2
   3 -11  -5    3.10    4.33   2
   3 -11  -3    7.82    4.72   2
   3 -11  -2   -0.75    2.94   2
  -3  11   1    6.18    2.53   2
  -3  11   0    1.72    3.69   2
  -3  11  -1    9.35    4.32   2
  -3  11  -2    4.16    2.51   2
  -3  11  -4    5.94    4.29   2
  -3  11  -5    6.37    3.15   2
  -3  11  -6    0.12    2.74   2
  -3  11  -7   11.35    5.14   2
  -3  11  -8   -1.74    4.21   2
   3 -10 -10    8.27    3.49   2
   3 -10  -9   11.23    3.94   2
   3 -10  -8    4.65    3.49   2
   3 -10  -7    8.00    4.03   2
   3 -10  -6   12.46    4.37   2
   3 -10  -5    4.23    3.85   2
   3 -10  -3   -0.18    4.05   2
   3 -10  -2    5.02    2.91   2
  -3  10   1   -4.65    2.39   2
  -3  10   0    8.69    4.02   2
  -3  10  -1   -3.95    3.78   2
  -3  10  -2    2.09    3.74   2
  -3  10  -4    0.10    4.16   2
  -3  10  -5   -1.95    4.27   2
  -3  10  -6    3.04    4.57   2
  -3  10  -7    6.65    2.87   2
  -3  10  -8   -3.22    4.24   2
  -3  10  -9    4.02    4.55   2
  -3  10 -10    1.92    2.89   2
   3  -9 -11    2.66    3.03   2
   3  -9 -10   -0.16    2.87   2
   3  -9  -9   10.94    2.18   2
   3  -9  -8    2.23    3.12   2
   3  -9  -7   14.33    4.11   2
   3  -9  -6   26.90    3.09   2
   3  -9  -4    4.45    3.97   2
   3  -9  -4    4.27    1.80   2
   3  -9  -3   -2.55    3.60   2
   3  -9  -3    2.07    1.26   2
   3  -9  -2    3.88    2.65   2
   3  -9  -2    2.24    1.47   2
  -3   9   2    2.80    1.60   2
  -3   9   1    2.27    2.11   2
  -3   9   1   -1.25    2.28   2
  -3   9   0   15.91    4.17   2
  -3   9   0   17.27    2.46   2
  -3   9  -1    4.54    3.99   2
  -3   9  -1    8.48    2.30   2
  -3   9  -3   22.55    4.76   2
  -3   9  -3   16.93    3.53   2
  -3   9  -4    6.40    2.84   2
  -3   9  -4    3.99    2.55   2
  -3   9  -5   12.17    3.07   2
  -3   9  -6   44.10    5.87   2
  -3   9  -7    0.62    3.73   2
  -3   9  -8   -0.41    4.08   2
  -3   9 -10   -0.17    4.39   2
  -3   9 -11    5.48    4.63   2
  -3   9 -12    1.42    4.37   2
  -3   9 -13    7.29    3.32   2
   3  -8 -11   12.86    3.30   2
   3  -8 -10   30.03    3.78   2
   3  -8 -10   20.70    3.35   2
   3  -8  -9    3.75    2.73   2
   3  -8  -9    0.55    1.69   2
   3  -8  -8   11.17    3.42   2
   3  -8  -8   11.39    2.29   2
   3  -8  -7   42.28    4.34   2
   3  -8  -7   32.50    3.06   2
   3  -8  -6   21.06    3.69   2
   3  -8  -6    9.62    2.08   2
   3  -8  -4    6.29    3.38   2
   3  -8  -4    5.12    1.37   2
   3  -8  -3    4.34    3.32   2
   3  -8  -3    1.18    1.26   2
  -3   8   3   -0.24    1.58   2
   3  -8  -2    2.55    2.31   2
   3  -8  -2    0.86    1.30   2
  -3   8   2    3.04    1.76   2
  -3   8   1   15.49    3.92   2
  -3   8   1    8.26    2.23   2
  -3   8   0    0.43    1.97   2
  -3   8   0    7.39    2.07   2
  -3   8  -1    4.75    2.20   2
  -3   8  -1    1.13    1.60   2
  -3   8  -3   13.32    3.99   2
  -3   8  -3    4.10    2.09   2
  -3   8  -4   10.97    4.30   2
  -3   8  -4    8.12    2.37   2
  -3   8  -5    7.93    4.02   2
  -3   8  -5   10.74    2.57   2
  -3   8  -6   25.23    4.74   2
  -3   8  -7    4.74    4.23   2
  -3   8  -8    1.12    2.47   2
  -3   8 -10   -1.19    4.19   2
  -3   8 -11    7.23    4.96   2
  -3   8 -12    5.06    3.00   2
  -3   8 -13   -4.27    4.75   2
  -3   8 -14   11.91    5.23   2
   3  -7 -12    3.47    3.14   2
   3  -7 -12    6.24    2.45   2
   3  -7 -11    0.63    2.28   2
   3  -7 -11    1.26    1.99   2
  -3   7  11    1.16    2.01   2
   3  -7 -10   14.43    3.12   2
   3  -7 -10   18.11    2.35   2
   3  -7  -9    9.37    2.74   2
   3  -7  -9    8.20    1.92   2
  -3   7   9    8.73    2.52   2
   3  -7  -8   18.66    3.20   2
   3  -7  -8   25.60    2.65   2
  -3   7   8   12.06    2.96   2
   3  -7  -7   65.54    4.79   2
   3  -7  -7   60.70    3.64   2
  -3   7   7   56.04    4.53   2
   3  -7  -5   15.55    3.09   2
   3  -7  -5    8.07    1.50   2
  -3   7   5    8.65    3.00   2
   3  -7  -4    5.88    3.01   2
   3  -7  -4    2.39    1.20   2
  -3   7   4    2.61    2.58   2
   3  -7  -3   -3.01    3.14   2
   3  -7  -3    1.29    1.05   2
  -3   7   3    4.48    2.74   2
  -3   7   3    0.31    1.03   2
   3  -7  -2    0.78    2.03   2
  -3   7   2    5.18    1.32   2
  -3   7   1   39.75    4.37   2
  -3   7   1   36.17    2.62   2
  -3   7   0   17.56    3.65   2
  -3   7   0   17.44    1.81   2
  -3   7  -2   43.47    5.22   2
  -3   7  -2   34.21    2.65   2
  -3   7  -3   15.32    4.40   2
  -3   7  -3   16.11    2.27   2
  -3   7  -4    8.22    3.66   2
  -3   7  -4    6.73    2.20   2
  -3   7  -5  150.29    9.74   2
  -3   7  -5  144.67    7.42   2
  -3   7  -6   -0.40    3.74   2
  -3   7  -6   -4.85    2.43   2
  -3   7  -7   -2.13    3.91   2
  -3   7  -9    5.44    2.70   2
  -3   7 -10   13.54    5.04   2
  -3   7 -11   13.91    5.29   2
  -3   7 -12   17.72    3.47   2
  -3   7 -13    8.48    3.42   2
  -3   7 -14    9.07    5.13   2
   3  -6 -12   33.04    2.95   2
  -3   6  12   20.19    2.67   2
   3  -6 -11   64.43    3.75   2
   3  -6 -11   65.56    4.29   2
  -3   6  11   45.31    3.54   2
   3  -6 -10    0.92    2.00   2
   3  -6 -10   -0.47    1.85   2
  -3   6  10    2.02    2.51   2
   3  -6  -9   14.71    2.66   2
   3  -6  -9   14.39    2.12   2
  -3   6   9   16.34    2.25   2
   3  -6  -8  102.63    5.28   2
   3  -6  -8   96.74    5.08   2
  -3   6   8   85.54    4.88   2
   3  -6  -7   21.84    2.80   2
   3  -6  -7   21.66    1.78   2
  -3   6   7   25.95    2.86   2
   3  -6  -5    7.93    2.59   2
   3  -6  -5    6.71    1.10   2
  -3   6   5    4.55    2.23   2
   3  -6  -4   -1.76    2.38   2
   3  -6  -4    0.34    0.69   2
  -3   6   4   -0.47    2.17   2
   3  -6  -3    7.11    1.83   2
   3  -6  -3    2.49    0.57   2
  -3   6   3    0.11    2.47   2
  -3   6   2   13.03    3.27   2
  -3   6   2   15.21    3.17   2
  -3   6   1   20.34    3.39   2
  -3   6   1   17.23    3.13   2
  -3   6   1   15.26    1.34   2
  -3   6   0    7.47    3.16   2
  -3   6   0    3.76    3.24   2
  -3   6   0    6.09    1.22   2
  -3   6  -2   10.71    2.26   2
  -3   6  -2   12.15    1.80   2
  -3   6  -3   29.43    2.73   2
  -3   6  -3   23.86    2.51   2
  -3   6  -4   34.49    4.82   2
  -3   6  -4   33.82    3.31   2
  -3   6  -5   80.68    6.93   2
  -3   6  -6   17.75    4.73   2
  -3   6  -7   -3.74    3.95   2
  -3   6  -9    7.12    2.68   2
  -3   6 -10   15.80    3.15   2
  -3   6 -11    8.43    4.98   2
  -3   6 -12    8.42    5.27   2
  -3   6 -13   10.91    3.20   2
  -3   6 -16    5.12    5.00   2
   3  -5 -12   -1.26    1.45   2
  -3   5  12   -1.18    1.30   2
   3  -5 -11   25.96    2.83   2
  -3   5  11   22.77    2.10   2
   3  -5 -10   16.71    2.07   2
  -3   5  10   15.16    1.98   2
   3  -5  -9   22.04    2.44   2
  -3   5   9   27.45    2.31   2
   3  -5  -8  139.70    5.77   2
  -3   5   8  120.98    5.37   2
   3  -5  -6   21.04    2.47   2
   3  -5  -6   21.84    1.79   2
  -3   5   6   18.02    2.20   2
   3  -5  -5    7.92    2.13   2
   3  -5  -5    4.83    1.11   2
  -3   5   5    5.24    1.87   2
   3  -5  -4    7.38    2.56   2
   3  -5  -4    2.17    0.43   2
  -3   5   4    5.36    1.99   2
  -3   5   3   11.56    2.47   2
  -3   5   3    9.94    2.54   2
  -3   5   2   78.92    4.69   2
  -3   5   2   77.48    4.62   2
  -3   5   1   36.96    3.74   2
  -3   5   1   40.17    2.64   2
  -3   5   1   39.70    1.16   2
  -3   5  -1   73.55    5.46   2
  -3   5  -1   74.94    5.44   2
  -3   5  -1   65.77    2.70   2
   3  -5   2   48.66    3.16   2
  -3   5  -2   48.43    4.69   2
   3  -5   3    8.52    1.86   2
  -3   5  -3   10.87    3.55   2
   3  -5   4  361.57   18.52   2
  -3   5  -4  398.18   19.31   2
  -3   5  -5    6.18    3.77   2
  -3   5  -6   13.66    3.97   2
  -3   5  -8   38.99    3.78   2
  -3   5  -9   45.81    6.28   2
  -3   5 -10    8.54    4.74   2
  -3   5 -11   28.32    5.77   2
  -3   5 -12   22.18    3.60   2
  -3   5 -13    5.05    4.91   2
  -3   5 -15    2.70    3.26   2
  -3   5 -16   23.10    5.96   2
  -3   5 -17    9.89    5.41   2
   3  -4 -13   53.74    3.29   2
  -3   4  13   42.44    2.95   2
   3  -4 -12   86.54    3.59   2
  -3   4  12   83.89    4.21   2
   3  -4 -11    3.08    1.30   2
  -3   4  11    2.89    1.61   2
   3  -4 -10   17.03    1.57   2
  -3   4  10   12.99    1.79   2
   3  -4  -9  171.31    5.79   2
  -3   4   9  166.90    6.47   2
   3  -4  -8   26.67    1.97   2
  -3   4   8   26.68    2.28   2
   3  -4  -6   15.35    1.77   2
  -3   4   6   15.15    1.67   2
   3  -4  -5    8.64    1.73   2
  -3   4   5    4.46    1.55   2
   3  -4  -4    5.96    0.50   2
   3  -4  -4    6.52    0.52   2
  -3   4   4    7.19    1.75   2
  -3   4   4    9.69    1.77   2
  -3   4   3   26.87    2.45   2
  -3   4   3   27.95    2.46   2
  -3   4   2   33.66    2.81   2
  -3   4   2   31.81    3.06   2
  -3   4   1   30.13    3.06   2
  -3   4   1   34.26    3.10   2
  -3   4   1   22.51    0.72   2
  -3   4   1   27.14    0.78   2
   3  -4   1   28.48    3.19   2
  -3   4  -1   24.42    2.36   2
   3  -4   2   45.37    2.86   2
  -3   4  -2   45.91    3.02   2
   3  -4   3   63.05    3.64   2
  -3   4  -3   61.40    3.60   2
   3  -4   4  152.86    8.13   2
  -3   4  -4  145.62    6.40   2
   3  -4   5   35.45    4.34   2
  -3   4  -5   34.61    4.36   2
  -3   4  -6    5.33    3.78   2
  -3   4  -8   15.32    2.96   2
  -3   4  -9   35.34    5.69   2
  -3   4 -10   17.79    4.52   2
  -3   4 -11   13.91    3.12   2
  -3   4 -12   28.40    6.34   2
  -3   4 -15    0.70    4.79   2
  -3   4 -16   61.19    5.73   2
  -3   4 -17    6.39    4.84   2
   3  -3 -13   -0.97    1.64   2
  -3   3  13    1.34    1.08   2
   3  -3 -12   34.52    2.42   2
  -3   3  12   31.46    2.01   2
   3  -3 -11   16.54    1.70   2
  -3   3  11   15.43    1.17   2
   3  -3 -10   22.32    1.70   2
  -3   3  10   23.66    1.53   2
   3  -3  -9  190.93    5.80   2
  -3   3   9  187.15    5.58   2
   3  -3  -7   40.79    1.90   2
  -3   3   7   39.88    1.55   2
   3  -3  -6   16.64    1.17   2
  -3   3   6   13.53    1.26   2
   3  -3  -5   37.88    2.29   2
  -3   3   5   33.78    1.89   2
  -3   3   5   34.95    1.93   2
   3  -3  -4   23.26    1.49   2
  -3   3   4   23.95    2.22   2
  -3   3   4   20.87    2.09   2
   3  -3  -3  148.42    3.61   2
  -3   3   3  140.76    4.88   2
  -3   3   3  148.12    5.01   2
   3  -3  -2   82.59    3.53   2
  -3   3   2   70.97    3.46   2
  -3   3   2   69.05    1.81   2
   3  -3   0  108.54    5.27   2
  -3   3   0  110.36    5.57   2
  -3   3   0  116.29    3.63   2
   3  -3   1  117.66    5.55   2
  -3   3  -1  114.02    6.14   2
   3  -3   2    4.81    1.59   2
  -3   3  -2    9.81    2.95   2
   3  -3   3  701.52   30.16   2
  -3   3  -3  674.32   29.40   2
   3  -3   4    0.78    2.75   2
  -3   3  -4    0.16    1.97   2
   3  -3   5    0.26    3.11   2
  -3   3  -5    5.29    3.44   2
  -3   3  -7   87.43    5.23   2
  -3   3  -8  100.54    7.77   2
  -3   3  -9   15.90    3.23   2
  -3   3 -10   32.86    5.89   2
  -3   3 -11   76.60    5.65   2
  -3   3 -12   15.60    5.41   2
  -3   3 -14    0.13    4.52   2
  -3   3 -15   20.40    5.87   2
  -3   3 -16   -9.08    4.93   2
  -3   3 -17    9.77    5.34   2
  -3   3 -18    2.31    3.03   2
   3  -2 -13  101.62    3.86   2
  -3   2  13  104.60    3.71   2
   3  -2 -12   -0.12    1.29   2
  -3   2  12    0.71    1.12   2
   3  -2 -11    9.71    1.18   2
  -3   2  11   10.86    1.16   2
  -3   2   9   22.03    0.78   2
   3  -2  -7   28.00    3.05   2
   3  -2  -6   21.05    2.88   2
   3  -2  -5   15.76    1.72   2
  -3   2   5   13.44    0.56   2
  -3   2   5   13.97    0.58   2
   3  -2  -4   30.88    1.89   2
  -3   2   4   12.91    0.63   2
  -3   2   4   30.85    1.35   2
   3  -2  -3   53.11    2.46   2
   3  -2  -3   49.87    2.77   2
  -3   2   3   51.00    2.52   2
  -3   2   3   50.21    2.30   2
   3  -2  -2   70.89    2.91   2
   3  -2  -2   70.59    2.65   2
  -3   2   2   73.15    3.63   2
  -3   2   2   66.52    3.11   2
   3  -2   0   47.31    3.25   2
  -3   2   0   49.02    3.74   2
  -3   2   0   47.59    2.77   2
   3  -2   1   52.34    3.61   2
  -3   2  -1   51.95    4.58   2
  -3   2  -1   52.66    4.15   2
   3  -2   2   81.88    3.50   2
  -3   2  -2   86.07    4.28   2
   3  -2   3  255.73   11.51   2
  -3   2  -3  264.18   13.23   2
   3  -2   4   88.16    5.89   2
  -3   2  -4   87.15    6.51   2
   3  -2   7   43.41    4.60   2
  -3   2  -7   43.24    5.83   2
  -3   2  -8   55.91    6.60   2
  -3   2  -9   61.44    6.61   2
  -3   2 -10    9.76    2.84   2
  -3   2 -11   79.22    7.88   2
  -3   2 -14    8.40    4.98   2
  -3   2 -15   96.62    8.77   2
  -3   2 -16   12.16    5.18   2
  -3   2 -17   -3.88    2.86   2
  -3   2 -18    2.79    4.59   2
   3  -1 -14    2.68    1.75   2
  -3   1  14    1.17    1.25   2
   3  -1 -13   27.69    1.89   2
  -3   1  13   31.34    1.84   2
   3  -1 -12   15.44    1.77   2
  -3   1  12   17.17    1.68   2
   3  -1 -11   13.45    1.57   2
  -3   1  11   15.13    1.50   2
   3  -1 -10  182.80    5.41   2
   3  -1 -10  182.97    5.53   2
   3  -1 -10  158.45    7.46   2
   3  -1  -8   43.83    1.19   2
   3  -1  -8   43.76    1.28   2
   3  -1  -8   51.04    3.72   2
   3  -1  -7   30.50    2.94   2
   3  -1  -6   94.17    4.44   2
   3  -1  -5   24.16    2.58   2
  -3   1   5   26.04    2.06   2
   3  -1  -4  182.91    4.60   2
   3  -1  -4  183.92    7.03   2
  -3   1   4  188.16    4.85   2
  -3   1   4  178.02    5.84   2
   3  -1  -3   98.55    3.02   2
   3  -1  -3   93.63    4.15   2
  -3   1   3   97.87    3.68   2
  -3   1   3   95.40    4.57   2
   3  -1  -1  150.35    5.75   2
   3  -1  -1  142.43    5.95   2
  -3   1   1  152.27    5.84   2
  -3   1   1  130.96    5.98   2
   3  -1   0  230.41    9.00   2
   3  -1   0  228.34    8.92   2
  -3   1   0  220.39    9.25   2
  -3   1   0  229.31    9.32   2
   3  -1   1    7.34    1.59   2
   3  -1   1    5.53    2.34   2
  -3   1  -1    5.72    3.07   2
  -3   1  -1    7.38    2.61   2
   3  -1   2 1045.71   49.25   2
  -3   1  -2  949.46   43.11   2
  -3   1  -2  971.43   46.46   2
   3  -1   3    1.14    2.97   2
  -3   1  -3    3.06    2.09   2
  -3   1  -3   -0.43    2.78   2
   3  -1   4    0.09    1.78   2
  -3   1  -4   -2.70    3.64   2
   3  -1   6  222.86    9.35   2
  -3   1  -6  238.97   10.43   2
   3  -1   7  155.59    8.39   2
  -3   1  -7  157.73    7.67   2
  -3   1  -8   45.85    5.72   2
  -3   1  -9   57.53    6.48   2
  -3   1 -10  191.19   12.31   2
  -3   1 -11   15.00    3.17   2
  -3   1 -14   32.81    3.93   2
  -3   1 -15   11.80    5.36   2
  -3   1 -16    0.54    4.36   2
  -3   1 -17    2.78    2.87   2
   3   0 -15   19.53    2.91   2
   3   0 -14   79.51    4.12   2
   3   0 -14   80.46    4.50   2
   3   0 -13    0.75    1.52   2
   3   0 -13   -1.74    1.81   2
   3   0 -12    5.71    1.47   2
   3   0 -12    0.70    1.87   2
   3   0 -11  167.07    5.96   2
   3   0 -11  177.94    6.70   2
   3   0 -10   11.09    1.81   2
   3   0 -10   14.76    1.29   2
   3   0 -10   10.85    3.28   2
   3   0  -8   29.20    1.91   2
   3   0  -8   31.87    2.39   2
   3   0  -7   30.04    1.77   2
   3   0  -7   30.21    1.74   2
   3   0  -7   33.67    3.61   2
   3   0  -6   19.25    1.55   2
   3   0  -6   19.29    1.77   2
  -3   0   6   16.75    1.27   2
  -3   0   6   18.35    2.32   2
   3   0  -5   21.89    1.80   2
   3   0  -5   22.41    1.84   2
  -3   0   5   20.04    1.42   2
  -3   0   5   21.73    3.45   2
   3   0  -4   49.54    2.19   2
   3   0  -4   50.74    3.72   2
  -3   0   4   50.11    2.36   2
  -3   0   4   42.94    4.01   2
   3   0  -3  109.75    4.00   2
   3   0  -3  109.34    5.51   2
  -3   0   3  118.53    5.33   2
  -3   0   3  115.15    6.42   2
   3   0  -1   64.12    3.52   2
   3   0  -1   53.65    2.80   2
  -3   0   1   55.49    3.71   2
  -3   0   1   58.05    4.51   2
   3   0   0   40.26    3.31   2
   3   0   0   41.82    3.81   2
  -3   0   0   36.95    2.41   2
  -3   0   0   36.76    4.25   2
   3   0   1   65.35    3.13   2
   3   0   1   72.25    3.35   2
  -3   0  -1   69.18    4.89   2
  -3   0  -1   69.84    5.18   2
   3   0   2  231.00    8.46   2
   3   0   2  242.35   10.69   2
  -3   0  -2  247.59   11.58   2
  -3   0  -2  243.36   11.07   2
   3   0   3  114.69    4.95   2
  -3   0  -3  127.96    7.85   2
  -3   0  -3  118.34    7.13   2
  -3   0  -4   17.36    4.24   2
   3   0   6   64.75    5.29   2
  -3   0  -6   59.37    6.39   2
   3   0   7   45.21    3.35   2
  -3   0  -7   58.17    6.12   2
  -3   0  -8   95.72    7.82   2
  -3   0  -9   20.38    4.87   2
  -3   0 -10  186.83   12.04   2
  -3   0 -11   57.10    6.94   2
  -3   0 -13   10.80    3.18   2
  -3   0 -14   94.25    8.88   2
  -3   0 -15    7.57    4.79   2
  -3   0 -16   -4.27    4.59   2
  -3   0 -17    8.39    3.25   2
   3   1 -16   17.52    3.13   2
   3   1 -15    3.90    2.60   2
   3   1 -15    2.75    1.95   2
   3   1 -14   20.37    2.49   2
   3   1 -14   22.03    2.42   2
   3   1 -13    9.24    2.69   2
   3   1 -13   12.75    2.01   2
   3   1 -12    3.44    2.33   2
   3   1 -12    5.58    2.41   2
   3   1 -11  104.93    5.72   2
   3   1 -11  117.91    5.60   2
   3   1  -9   28.19    2.97   2
   3   1  -9   31.26    2.72   2
   3   1  -9   36.56    4.29   2
   3   1  -8   36.06    2.84   2
   3   1  -8   38.77    2.88   2
   3   1  -8   40.10    4.18   2
   3   1  -7   89.00    3.39   2
   3   1  -7   85.48    3.84   2
  -3  -1   7   85.96    2.89   2
  -3  -1   7   83.67    4.76   2
   3   1  -6   20.33    2.54   2
   3   1  -6   15.03    3.25   2
  -3  -1   6   22.63    2.03   2
  -3  -1   6   15.54    3.87   2
   3   1  -5  128.93    4.84   2
   3   1  -5  137.95    7.34   2
  -3  -1   5  126.09    5.23   2
  -3  -1   5  127.25    5.56   2
   3   1  -4   53.09    3.04   2
   3   1  -4   48.85    4.02   2
  -3  -1   4   53.15    4.13   2
  -3  -1   4   44.76    4.47   2
   3   1  -2   78.21    4.55   2
   3   1  -2   80.29    3.72   2
  -3  -1   2   74.49    4.87   2
  -3  -1   2   70.69    5.35   2
   3   1  -1  184.92    8.27   2
   3   1  -1  191.75    7.21   2
  -3  -1   1  184.65    8.61   2
  -3  -1   1  193.32    9.65   2
   3   1   0   -0.40    2.84   2
   3   1   0    6.03    1.74   2
  -3  -1   0    4.92    2.82   2
  -3  -1   0    7.58    3.51   2
   3   1   1  623.68   28.08   2
   3   1   1  659.79   29.70   2
  -3  -1  -1  628.99   28.78   2
  -3  -1  -1  628.02   29.24   2
   3   1   2    2.72    2.88   2
   3   1   2   -0.77    2.89   2
  -3  -1  -2    2.58    3.29   2
  -3  -1  -2   -0.53    3.35   2
   3   1   3   -0.37    1.77   2
   3   1   3    1.42    2.86   2
  -3  -1  -3    0.70    1.99   2
  -3  -1  -3    2.86    1.94   2
  -3  -1  -5  229.56   10.09   2
   3   1   6  147.78    6.50   2
  -3  -1  -6  148.24    6.90   2
  -3  -1  -6  160.74    9.63   2
   3   1   7   55.48    3.51   2
  -3  -1  -7   51.94    6.27   2
  -3  -1  -7   58.68    6.30   2
  -3  -1  -8   43.68    5.94   2
  -3  -1  -8   54.56    3.88   2
  -3  -1  -9  269.63   14.73   2
  -3  -1 -13   37.11    6.10   2
  -3  -1 -14   11.69    4.82   2
  -3  -1 -15    1.19    4.57   2
   3   2 -16    7.46    2.52   2
   3   2 -15   28.05    3.58   2
   3   2 -15   40.89    3.40   2
   3   2 -14    1.05    2.16   2
   3   2 -14    2.95    2.23   2
   3   2 -13    7.05    2.88   2
   3   2 -13    4.62    2.29   2
   3   2 -12   84.92    5.08   2
   3   2 -12   90.59    5.07   2
   3   2 -11    4.70    2.20   2
   3   2 -11    4.57    2.08   2
   3   2  -9   25.28    2.75   2
   3   2  -9   24.12    2.49   2
   3   2  -7   10.65    2.12   2
   3   2  -7   12.07    3.20   2
  -3  -2   7   11.24    2.25   2
  -3  -2   7    8.62    2.35   2
   3   2  -6    7.67    2.26   2
   3   2  -6    8.76    2.10   2
  -3  -2   6    4.37    2.29   2
  -3  -2   6    8.65    3.59   2
   3   2  -5   29.22    1.88   2
   3   2  -5   30.88    3.93   2
  -3  -2   5   31.88    3.32   2
  -3  -2   5   27.80    2.82   2
   3   2  -4  107.15    4.23   2
   3   2  -4  124.28    6.45   2
  -3  -2   4  115.22    5.63   2
  -3  -2   4  103.67    5.17   2
   3   2  -2   57.92    4.25   2
   3   2  -2   53.71    3.05   2
  -3  -2   2   52.00    4.29   2
  -3  -2   2   43.14    3.31   2
   3   2  -1   29.48    3.58   2
   3   2  -1   27.14    3.80   2
  -3  -2   1   19.69    2.44   2
  -3  -2   1   11.21    4.36   2
   3   2   0   40.65    4.35   2
   3   2   0   36.51    2.95   2
  -3  -2   0   33.64    3.14   2
  -3  -2   0   32.90    3.11   2
   3   2   1  143.07    6.10   2
   3   2   1  155.97    8.57   2
  -3  -2  -1  141.08    8.77   2
  -3  -2  -1  149.34    8.78   2
   3   2   2   80.92    5.77   2
   3   2   2   89.04    4.03   2
  -3  -2  -2   76.46    4.19   2
  -3  -2  -2   75.00    6.54   2
   3   2   3   14.22    2.26   2
  -3  -2  -3   17.45    4.05   2
  -3  -2  -3   11.36    4.34   2
   3   2   5   61.37    5.58   2
  -3  -2  -5   46.10    3.93   2
  -3  -2  -5   52.35    5.72   2
   3   2   6   27.52    4.12   2
  -3  -2  -6   41.04    5.12   2
  -3  -2  -6   24.72    3.36   2
  -3  -2  -7   91.20    5.24   2
  -3  -2  -7   95.93    5.65   2
  -3  -2  -8   14.25    4.94   2
  -3  -2  -8   18.55    3.04   2
  -3  -2  -9  215.82   13.32   2
  -3  -2  -9  209.99   13.51   2
  -3  -2 -10   37.97    4.21   2
  -3  -2 -12   13.59    3.30   2
  -3  -2 -13   65.39    7.33   2
  -3  -2 -13   54.25    7.42   2
  -3  -2 -14    1.19    4.35   2
  -3  -2 -15   -0.87    2.73   2
  -3  -2 -16    8.75    3.14   2
   3   3 -17    4.14    2.82   2
   3   3 -16    4.06    2.82   2
   3   3 -15   13.06    3.05   2
   3   3 -14    8.75    2.92   2
   3   3 -13    0.57    2.32   2
   3   3 -13    1.52    2.54   2
   3   3 -12   49.64    4.43   2
   3   3 -12   53.09    4.12   2
   3   3 -10   16.47    3.07   2
   3   3 -10   22.50    3.15   2
   3   3  -9   27.21    2.28   2
   3   3  -9   37.79    3.33   2
   3   3  -8   61.89    4.23   2
  -3  -3   8   57.72    4.16   2
  -3  -3   8   76.98    5.09   2
   3   3  -7   13.08    2.53   2
  -3  -3   7   11.19    2.93   2
  -3  -3   7   15.43    4.17   2
   3   3  -6   73.83    4.75   2
   3   3  -6   63.42    3.88   2
  -3  -3   6   66.19    3.29   2
  -3  -3   6   72.20    5.94   2
   3   3  -5   16.34    2.92   2
   3   3  -5   17.56    3.52   2
  -3  -3   5   23.23    3.69   2
  -3  -3   5   20.62    4.29   2
   3   3  -3   39.28    4.07   2
   3   3  -3   41.83    4.69   2
  -3  -3   3   34.12    4.49   2
  -3  -3   3   44.45    4.96   2
   3   3  -2   81.20    4.08   2
   3   3  -2   94.81    6.29   2
  -3  -3   2   95.57    6.52   2
  -3  -3   2   94.00    6.85   2
   3   3  -1   -1.35    3.23   2
   3   3  -1   11.29    3.10   2
  -3  -3   1    8.52    3.40   2
  -3  -3   1   -4.47    3.61   2
   3   3   0  237.37   11.74   2
   3   3   0  238.92   12.77   2
  -3  -3   0  237.56   12.59   2
  -3  -3   0  228.94    9.95   2
   3   3   1    5.98    3.01   2
   3   3   1    6.17    3.36   2
  -3  -3  -1   -5.68    3.73   2
  -3  -3  -1    1.39    2.26   2
   3   3   2    2.72    2.06   2
   3   3   2    2.29    1.94   2
  -3  -3  -2    0.15    2.26   2
  -3  -3  -2    3.71    2.25   2
   3   3   4  136.12    8.65   2
   3   3   4  121.84    7.92   2
  -3  -3  -4  128.60    6.68   2
  -3  -3  -4  130.14    8.43   2
  -3  -3  -5   95.41    5.37   2
  -3  -3  -5   87.90    7.59   2
  -3  -3  -6   53.48    5.95   2
  -3  -3  -6   46.86    3.97   2
  -3  -3  -7   25.66    5.13   2
  -3  -3  -7   18.67    3.02   2
  -3  -3  -8  239.76   14.05   2
  -3  -3  -8  236.94   14.54   2
  -3  -3  -9   17.87    3.28   2
  -3  -3  -9   26.85    5.29   2
  -3  -3 -11    7.96    4.91   2
  -3  -3 -12    6.33    3.15   2
  -3  -3 -12   13.37    5.38   2
  -3  -3 -13    7.56    3.14   2
  -3  -3 -13   12.85    5.29   2
  -3  -3 -14    8.24    2.97   2
  -3  -3 -14    8.53    3.35   2
  -3  -3 -15    4.36    2.97   2
  -3  -3 -15    6.43    3.31   2
  -3  -3 -16   -4.22    5.24   2
   3   4 -17    1.60    3.02   2
   3   4 -16   18.34    3.54   2
   3   4 -15   15.24    3.50   2
   3   4 -14   -0.74    2.88   2
   3   4 -13   37.31    4.29   2
   3   4 -12    6.12    3.22   2
   3   4 -10   17.51    3.16   2
   3   4  -9   12.27    2.78   2
  -3  -4   9    4.45    1.95   2
  -3  -4   9   -2.68    2.99   2
   3   4  -8    6.95    2.79   2
  -3  -4   8    6.93    3.18   2
  -3  -4   8    7.53    2.63   2
   3   4  -7    3.66    2.69   2
  -3  -4   7    2.22    2.91   2
  -3  -4   7    8.27    4.11   2
   3   4  -6   10.83    2.07   2
  -3  -4   6   17.68    2.32   2
  -3  -4   6   11.95    2.81   2
   3   4  -5   61.12    4.92   2
  -3  -4   5   76.81    6.09   2
  -3  -4   5   69.65    6.13   2
   3   4  -3   32.74    4.20   2
  -3  -4   3   37.38    5.12   2
  -3  -4   3   37.13    3.53   2
   3   4  -2    7.93    3.41   2
   3   4  -2    6.51    3.41   2
  -3  -4   2   14.27    2.52   2
  -3  -4   2    9.91    2.43   2
   3   4  -1   17.39    3.83   2
   3   4  -1    8.93    4.15   2
  -3  -4   1   16.38    4.56   2
  -3  -4   1   12.74    2.94   2
   3   4   0   56.21    3.87   2
  -3  -4   0   58.10    4.46   2
  -3  -4   0  238.41    9.19   2
   3   4   1   45.13    4.90   2
   3   4   1   43.17    4.71   2
  -3  -4  -1   41.08    5.55   2
  -3  -4  -1   39.96    5.23   2
  -3  -4  -2    9.33    4.39   2
  -3  -4  -4   23.16    5.21   2
  -3  -4  -4   20.02    4.85   2
  -3  -4  -5   18.01    5.10   2
  -3  -4  -6   69.78    7.57   2
  -3  -4  -6   74.75    5.02   2
  -3  -4  -7   10.03    2.93   2
  -3  -4  -7    8.02    2.87   2
  -3  -4  -8  172.54   11.88   2
  -3  -4  -8  153.41    8.64   2
  -3  -4 -11   20.82    5.06   2
  -3  -4 -11   12.42    3.55   2
  -3  -4 -12   26.70    5.79   2
  -3  -4 -12   25.22    6.41   2
  -3  -4 -13   12.65    3.33   2
  -3  -4 -13    8.89    3.41   2
  -3  -4 -14    6.77    3.08   2
  -3  -4 -14    4.86    4.98   2
  -3  -4 -15    9.80    3.01   2
  -3  -4 -15    1.28    5.04   2
   3   5 -17    1.91    3.10   2
   3   5 -16    2.42    2.26   2
   3   5 -15    3.32    3.28   2
   3   5 -14    5.22    3.25   2
   3   5 -13   18.89    2.61   2
   3   5 -11    8.71    2.29   2
   3   5 -10   25.98    4.39   2
  -3  -5   9   29.16    3.10   2
  -3  -5   9   29.45    4.22   2
  -3  -5   8    4.79    3.18   2
  -3  -5   8   -2.31    4.27   2
  -3  -5   7   32.16    4.96   2
  -3  -5   7   38.99    5.64   2
  -3  -5   6    3.35    3.75   2
  -3  -5   6    5.71    2.74   2
  -3  -5   4   13.11    3.06   2
  -3  -5   4   22.58    3.16   2
  -3  -5   3   46.46    6.01   2
  -3  -5   3   52.32    6.40   2
  -3  -5   2    4.00    4.19   2
  -3  -5   1   55.32    4.58   2
  -3  -5   1   56.95    4.22   2
  -3  -5   0   13.14    4.70   2
  -3  -5   0    3.37    4.33   2
  -3  -5  -1   -5.30    4.20   2
  -3  -5  -1   -7.25    4.11   2
  -3  -5  -3   64.57    6.85   2
  -3  -5  -3   44.42    6.67   2
  -3  -5  -4   50.30    6.83   2
  -3  -5  -4   41.99    6.29   2
  -3  -5  -5   32.36    5.94   2
  -3  -5  -5   30.03    3.45   2
  -3  -5  -6    9.98    3.24   2
  -3  -5  -6   17.58    3.03   2
  -3  -5  -7  142.93   10.90   2
  -3  -5  -7  142.82    8.07   2
  -3  -5  -8   10.60    3.39   2
  -3  -5  -8   13.49    3.42   2
  -3  -5 -10   12.22    3.27   2
  -3  -5 -10    7.83    5.12   2
  -3  -5 -11   -3.17    4.78   2
  -3  -5 -11   -0.64    2.73   2
  -3  -5 -12   18.33    5.28   2
  -3  -5 -12    7.85    5.23   2
  -3  -5 -13    2.71    2.99   2
  -3  -5 -13    3.16    3.03   2
  -3  -5 -14    3.06    3.03   2
  -3  -5 -14    4.02    4.89   2
  -3  -5 -15    0.45    2.85   2
  -3  -5 -15   -2.48    2.84   2
   3   6 -16   -5.32    3.85   2
   3   6 -15   -0.51    3.40   2
   3   6 -14   10.41    4.04   2
   3   6 -13    3.47    2.44   2
   3   6 -11   10.01    3.72   2
   3   6 -10    5.76    2.45   2
  -3  -6   9    2.93    4.05   2
  -3  -6   9    3.44    5.25   2
  -3  -6   8    0.44    3.44   2
  -3  -6   8    1.79    4.26   2
  -3  -6   7    1.30    3.75   2
  -3  -6   7    5.04    4.47   2
  -3  -6   6   41.73    4.29   2
  -3  -6   4   23.22    3.44   2
  -3  -6   4   17.97    3.18   2
  -3  -6   3   -1.08    4.60   2
  -3  -6   3    8.42    4.28   2
  -3  -6   2   12.05    5.41   2
  -3  -6   1   13.88    3.38   2
  -3  -6   0   16.54    3.54   2
  -3  -6   0   21.09    4.76   2
  -3  -6  -1   13.16    3.29   2
  -3  -6  -1   11.88    2.93   2
  -3  -6  -3    9.77    3.41   2
  -3  -6  -3   12.62    2.88   2
  -3  -6  -4    9.40    4.72   2
  -3  -6  -4   -0.03    2.70   2
  -3  -6  -5   38.77    6.18   2
  -3  -6  -5   30.51    5.87   2
  -3  -6  -6    0.89    2.90   2
  -3  -6  -7   91.90    9.15   2
  -3  -6  -7   89.45    8.59   2
  -3  -6  -8   22.27    5.76   2
  -3  -6 -10    9.62    3.03   2
  -3  -6 -10   12.51    3.44   2
  -3  -6 -11    4.72    5.02   2
  -3  -6 -11    3.09    5.00   2
  -3  -6 -12    8.03    5.10   2
  -3  -6 -12    9.29    3.22   2
  -3  -6 -13    7.24    3.25   2
  -3  -6 -13    0.36    5.10   2
  -3  -6 -14   11.64    4.76   2
  -3  -6 -14   -2.86    2.98   2
   3   7 -15    2.63    3.61   2
   3   7 -14   -2.48    3.53   2
   3   7 -12    2.32    3.80   2
   3   7 -11    9.71    2.46   2
  -3  -7  10    3.16    2.36   2
  -3  -7  10    2.03    3.44   2
  -3  -7   9    9.06    4.16   2
  -3  -7   9   -5.42    5.49   2
  -3  -7   8   17.28    4.44   2
  -3  -7   8   17.71    5.27   2
  -3  -7   7   -0.11    2.35   2
  -3  -7   7    0.42    4.33   2
  -3  -7   5    2.64    4.57   2
  -3  -7   5    5.67    2.87   2
  -3  -7   4   25.43    5.45   2
  -3  -7   4   18.67    5.29   2
  -3  -7   3    1.71    5.05   2
  -3  -7   2   12.92    5.85   2
  -3  -7   1    4.39    4.90   2
  -3  -7   1    2.67    4.53   2
  -3  -7   0    2.53    4.92   2
  -3  -7   0    1.84    4.39   2
  -3  -7  -2    4.70    5.42   2
  -3  -7  -2   10.16    4.86   2
  -3  -7  -3   15.94    6.03   2
  -3  -7  -3   21.62    5.65   2
  -3  -7  -4   20.32    3.98   2
  -3  -7  -5   10.90    5.09   2
  -3  -7  -5    0.41    4.72   2
  -3  -7  -6   79.01    8.26   2
  -3  -7  -6   70.92    7.76   2
  -3  -7  -7    8.06    3.40   2
  -3  -7  -7   14.97    5.28   2
  -3  -7  -9    8.16    3.08   2
  -3  -7  -9    2.08    4.35   2
  -3  -7 -10    2.19    5.16   2
  -3  -7 -10    3.51    4.78   2
  -3  -7 -11    8.31    5.01   2
  -3  -7 -11   -1.51    4.83   2
  -3  -7 -12   10.58    3.33   2
  -3  -7 -12    1.42    4.65   2
   3   8 -12    7.17    2.74   2
   3   8 -11   -0.39    3.78   2
  -3  -8  10    0.52    2.59   2
  -3  -8  10    0.83    3.24   2
  -3  -8   9    2.41    4.65   2
  -3  -8   9   14.63    5.73   2
  -3  -8   8    8.99    4.12   2
  -3  -8   8   -2.22    4.85   2
  -3  -8   7   21.40    5.20   2
  -3  -8   7   10.05    5.38   2
  -3  -8   5    3.89    5.32   2
  -3  -8   5   17.86    5.19   2
  -3  -8   4   -5.87    5.18   2
  -3  -8   4    8.28    2.86   2
  -3  -8   3   -7.11    5.20   2
  -3  -8   2   -4.24    5.58   2
  -3  -8   2   12.54    5.24   2
  -3  -8   1   10.43    5.93   2
  -3  -8   1   14.98    5.12   2
  -3  -8   0    9.63    5.97   2
  -3  -8   0   11.98    5.10   2
  -3  -8  -2    1.26    5.36   2
  -3  -8  -2    2.65    4.47   2
  -3  -8  -3   -0.94    3.25   2
  -3  -8  -3   12.65    4.84   2
  -3  -8  -4   14.74    5.88   2
  -3  -8  -4    6.29    5.17   2
  -3  -8  -5   -1.64    4.91   2
  -3  -8  -6   45.58    5.44   2
  -3  -8  -6   35.04    6.68   2
  -3  -8  -7   11.67    5.90   2
  -3  -8  -7    8.84    4.91   2
  -3  -8  -9    0.53    4.93   2
  -3  -8  -9    0.68    2.93   2
  -3  -8 -10   -1.84    4.93   2
  -3  -8 -10    1.13    4.07   2
  -3  -9  10    1.66    2.79   2
  -3  -9  10    0.77    3.36   2
  -3  -9   9   10.69    5.30   2
  -3  -9   9    6.65    6.04   2
  -3  -9   8    1.03    4.28   2
  -3  -9   8   -0.57    4.52   2
  -3  -9   6    0.67    4.51   2
  -3  -9   6    5.49    4.79   2
  -3  -9   5    7.34    5.20   2
  -3  -9   5    0.26    4.91   2
  -3  -9   4    3.93    3.33   2
  -3  -9   3   -5.12    3.28   2
  -3  -9   3   -4.01    4.80   2
  -3  -9   2   -0.64    3.39   2
  -3  -9   2   10.48    4.93   2
  -3  -9   1    6.26    5.76   2
  -3  -9   1    6.35    5.08   2
  -3  -9  -1   -8.28    5.40   2
  -3  -9  -1    0.21    2.79   2
  -3  -9  -2   12.35    3.81   2
  -3  -9  -2    0.99    3.13   2
  -3  -9  -3   16.42    6.48   2
  -3  -9  -4    8.28    5.62   2
  -3  -9  -4    4.49    3.01   2
  -3  -9  -5   28.24    4.32   2
  -3  -9  -5   22.36    4.01   2
  -3  -9  -6    4.72    5.57   2
  -3  -9  -6    6.01    2.99   2
  -3  -9  -8   -3.67    5.22   2
  -3  -9  -8    8.22    4.53   2
  -3 -10   6   -0.54    5.01   2
  -3 -10   6    7.85    3.04   2
  -3 -10   5    8.16    5.07   2
  -3 -10   5   -1.83    3.08   2
  -3 -10   3    8.77    5.43   2
  -3 -10   3    2.58    2.59   2
  -3 -10   2    0.15    3.37   2
  -3 -10   2   -0.49    2.89   2
  -3 -10   1    6.07    3.65   2
  -3 -10   1    2.15    3.13   2
  -3 -10   0    6.10    5.74   2
  -3 -10   0    5.34    3.36   2
  -3 -10  -1   -4.11    5.30   2
  -3 -10  -1    4.89    3.00   2
  -3 -10  -2   -0.40    3.50   2
  -3 -10  -2    1.63    2.75   2
  -3 -10  -3    7.54    5.97   2
  -3 -10  -3    7.26    3.20   2
  -3 -10  -4   -1.75    5.55   2
  -3 -10  -4   -0.87    2.83   2
  -4  12   1    0.78    2.15   2
  -4  12   0    1.25    3.87   2
  -4  12  -1    2.81    3.98   2
   4 -11  -8   -0.78    3.19   2
   4 -11  -7    2.52    3.59   2
   4 -11  -6    7.22    2.68   2
   4 -11  -5   -2.13    2.46   2
  -4  11   4    3.46    3.35   2
  -4  11   3    3.06    1.89   2
  -4  11   1   12.32    3.98   2
  -4  11   0    4.03    3.92   2
  -4  11  -1   11.76    4.39   2
  -4  11  -2   11.45    2.91   2
  -4  11  -3   10.38    4.63   2
  -4  11  -4    7.73    4.35   2
  -4  11  -6   -0.52    3.96   2
  -4  11  -7    2.92    4.39   2
   4 -10  -9    2.27    2.81   2
   4 -10  -8    2.85    3.20   2
   4 -10  -7    3.16    3.59   2
   4 -10  -6    3.70    2.37   2
   4 -10  -5   -0.48    2.24   2
  -4  10   4   -0.59    3.14   2
  -4  10   2    6.92    3.56   2
  -4  10   1   10.00    3.90   2
  -4  10   0   11.77    2.56   2
  -4  10  -1    5.54    4.16   2
  -4  10  -2    7.99    4.29   2
  -4  10  -3    2.27    2.59   2
  -4  10  -5    1.11    3.89   2
  -4  10  -6    4.04    2.68   2
  -4  10  -7    3.30    4.39   2
  -4  10  -8    3.71    4.67   2
  -4  10  -9    3.28    2.93   2
  -4  10 -10   -1.64    4.29   2
   4  -9  -9    2.18    1.56   2
   4  -9  -8    2.07    2.61   2
   4  -9  -7    4.74    3.31   2
   4  -9  -6   -3.22    2.00   2
   4  -9  -5   -1.27    2.13   2
  -4   9   4   -0.22    2.95   2
  -4   9   2   28.30    2.93   2
  -4   9   1   10.63    4.00   2
  -4   9   0    1.45    3.74   2
  -4   9  -1   40.92    3.93   2
  -4   9  -2    2.12    2.23   2
  -4   9  -3   13.29    4.16   2
  -4   9  -5    5.43    2.56   2
  -4   9  -5    1.87    1.93   2
  -4   9  -6   -3.50    4.26   2
  -4   9  -7    4.53    4.33   2
  -4   9  -8   -1.47    2.79   2
  -4   9  -9    0.64    2.61   2
  -4   9 -10    4.54    4.79   2
  -4   9 -12    5.73    3.16   2
   4  -8 -10    5.65    2.44   2
   4  -8  -9    2.78    2.24   2
   4  -8  -8   11.49    2.89   2
   4  -8  -7    3.58    2.84   2
   4  -8  -6   23.43    2.54   2
  -4   8   5    4.02    1.67   2
  -4   8   3    2.24    2.75   2
  -4   8   2    7.92    3.12   2
  -4   8   2    3.87    0.71   2
  -4   8   1   19.08    4.03   2
  -4   8   0   21.56    2.86   2
  -4   8   0   17.42    2.21   2
  -4   8  -1   26.26    4.89   2
  -4   8  -1   29.22    2.24   2
  -4   8  -2    2.42    3.52   2
  -4   8  -2    2.60    2.13   2
  -4   8  -4    6.13    2.29   2
  -4   8  -4    2.42    2.00   2
  -4   8  -5    6.86    2.60   2
  -4   8  -5    2.69    2.16   2
  -4   8  -6   12.30    4.84   2
  -4   8  -7   -1.43    4.26   2
  -4   8  -8   10.85    2.95   2
  -4   8  -9    4.62    4.78   2
  -4   8 -11   -2.36    2.88   2
  -4   8 -12    8.93    5.00   2
  -4   8 -13   24.41    6.68   2
   4  -7 -10    2.39    1.96   2
   4  -7 -10    4.94    1.44   2
  -4   7  10    0.28    1.88   2
   4  -7  -9    0.20    1.81   2
   4  -7  -9    0.37    1.11   2
  -4   7   9   -1.90    2.51   2
   4  -7  -8   18.87    2.66   2
   4  -7  -8   12.52    1.61   2
  -4   7   8   17.36    2.47   2
   4  -7  -7    2.93    2.43   2
   4  -7  -7    0.24    0.77   2
  -4   7   7   -1.99    1.78   2
   4  -7  -6    3.86    1.90   2
  -4   7   6   32.00    2.92   2
  -4   7   5   15.97    2.74   2
  -4   7   5   10.04    2.57   2
  -4   7   3   51.43    4.81   2
  -4   7   3   61.86    4.64   2
  -4   7   2   18.63    3.59   2
  -4   7   2   17.16    3.60   2
  -4   7   1   18.61    3.49   2
  -4   7   1    8.73    0.93   2
  -4   7   0  104.46    5.32   2
  -4   7   0  109.44    4.15   2
  -4   7  -1    2.25    2.06   2
  -4   7  -1    5.28    1.56   2
  -4   7  -2   30.04    4.62   2
  -4   7  -2   25.75    2.67   2
  -4   7  -4    3.09    3.71   2
  -4   7  -4    1.03    2.01   2
  -4   7  -5    2.99    2.34   2
  -4   7  -5   -0.02    1.36   2
  -4   7  -6   13.15    4.36   2
  -4   7  -7    9.49    4.30   2
  -4   7  -8   -2.21    2.58   2
  -4   7  -9   12.63    3.21   2
  -4   7 -11    7.54    3.17   2
  -4   7 -12   22.49    4.09   2
  -4   7 -13    3.12    4.87   2
  -4   7 -14    3.63    2.91   2
  -4   7 -15   -4.64    4.88   2
   4  -6 -11    9.45    1.86   2
   4  -6 -10   11.82    2.32   2
  -4   6  10    2.86    1.62   2
   4  -6  -9   12.10    2.30   2
   4  -6  -9   11.58    1.51   2
  -4   6   9    9.90    1.87   2
   4  -6  -8    2.61    1.77   2
   4  -6  -8    1.60    1.03   2
  -4   6   8    1.03    1.64   2
   4  -6  -7   22.91    1.91   2
   4  -6  -7   20.03    1.39   2
  -4   6   7   20.04    2.19   2
  -4   6   6    8.68    2.10   2
  -4   6   6    6.81    2.05   2
  -4   6   4    8.31    2.43   2
  -4   6   4    1.86    2.23   2
  -4   6   3   11.87    2.68   2
  -4   6   3   12.77    2.68   2
  -4   6   2   30.42    3.56   2
  -4   6   1   31.02    2.60   2
  -4   6   1   44.99    4.03   2
  -4   6   0   77.69    5.32   2
  -4   6   0   74.71    5.24   2
  -4   6   0   70.45    2.40   2
  -4   6  -1    9.76    3.52   2
  -4   6  -1   11.94    3.30   2
  -4   6  -1    8.41    1.20   2
  -4   6  -3    2.94    2.20   2
  -4   6  -4   -1.22    3.43   2
  -4   6  -5   12.47    4.28   2
  -4   6  -6   14.92    2.88   2
  -4   6  -7   24.13    3.29   2
  -4   6  -8    6.59    4.44   2
  -4   6 -10   13.63    3.42   2
  -4   6 -11   -2.42    4.64   2
  -4   6 -12   75.83    6.07   2
  -4   6 -13    3.30    4.83   2
  -4   6 -14   -4.04    4.87   2
  -4   6 -15    5.25    3.62   2
   4  -5 -11    7.09    1.52   2
  -4   5  11    6.77    1.19   2
   4  -5 -10    1.55    1.10   2
  -4   5  10    1.40    1.42   2
   4  -5  -9   17.81    2.16   2
  -4   5   9   15.04    1.95   2
   4  -5  -8   -0.86    0.81   2
   4  -5  -8    0.74    0.75   2
  -4   5   8    0.38    1.59   2
   4  -5  -7   53.16    2.46   2
  -4   5   7   52.41    3.24   2
  -4   5   7   54.74    3.25   2
   4  -5  -6   28.73    1.23   2
  -4   5   6   33.95    2.81   2
  -4   5   6   30.95    2.16   2
  -4   5   4  115.23    5.35   2
  -4   5   4  107.97    5.13   2
  -4   5   3   35.08    3.07   2
  -4   5   3   35.48    2.94   2
  -4   5   2    5.13    1.45   2
  -4   5   2   10.10    2.28   2
  -4   5   1  320.14   14.13   2
  -4   5   1  294.10   12.83   2
  -4   5   1  194.68    5.41   2
  -4   5   1  266.23    7.11   2
   4  -5   0    4.81    2.55   2
  -4   5   0    3.68    2.86   2
   4  -5   1   64.29    4.62   2
  -4   5  -1   65.93    5.30   2
   4  -5   3   -0.48    2.78   2
  -4   5  -3    2.65    1.97   2
  -4   5  -4    6.24    3.41   2
  -4   5  -5   12.54    4.19   2
  -4   5  -6   26.65    3.29   2
  -4   5  -7   -7.90    3.95   2
  -4   5 -10   17.84    5.03   2
  -4   5 -11   33.51    4.26   2
  -4   5 -12   16.60    5.87   2
  -4   5 -13   -4.87    5.35   2
  -4   5 -14    4.68    5.06   2
   4  -4 -12   23.64    1.35   2
  -4   4  12   17.67    0.82   2
   4  -4 -11    7.22    0.94   2
  -4   4  11    9.01    0.70   2
   4  -4 -10    6.95    0.92   2
   4  -4 -10   -0.35    1.27   2
  -4   4  10    6.72    0.50   2
   4  -4  -9    0.81    1.81   2
  -4   4   9    1.31    0.80   2
   4  -4  -8   30.75    2.06   2
  -4   4   8   24.33    1.30   2
  -4   4   8   29.50    1.57   2
   4  -4  -7   15.29    1.40   2
  -4   4   7   14.68    1.47   2
  -4   4   7   14.36    1.45   2
   4  -4  -5    8.79    0.91   2
  -4   4   5    7.89    1.83   2
  -4   4   5    8.41    1.42   2
   4  -4  -4   11.38    0.63   2
  -4   4   4   11.21    2.27   2
  -4   4   4   12.43    1.76   2
  -4   4   3   46.52    3.03   2
  -4   4   3   51.04    3.10   2
   4  -4  -2   65.68    3.54   2
  -4   4   2   60.28    3.65   2
  -4   4   2   54.61    1.44   2
   4  -4  -1  166.56    7.11   2
  -4   4   1  163.39    7.59   2
  -4   4   1  169.03    5.22   2
   4  -4   0   25.02    3.02   2
  -4   4   0   19.63    3.23   2
  -4   4   0   22.09    2.02   2
   4  -4   2    6.83    2.71   2
  -4   4  -2   12.92    3.41   2
   4  -4   3   -0.24    2.34   2
  -4   4  -3    1.21    3.10   2
   4  -4   4   23.03    2.43   2
  -4   4  -4   22.13    2.81   2
  -4   4  -5   45.58    5.31   2
  -4   4  -6   54.11    3.95   2
  -4   4  -7   18.63    4.73   2
  -4   4  -9   31.77    6.32   2
  -4   4 -10   10.69    5.44   2
  -4   4 -11  170.89    9.74   2
  -4   4 -12    2.96    4.69   2
  -4   4 -13   -4.63    3.21   2
  -4   4 -14   12.06    5.65   2
  -4   4 -16   15.53    6.03   2
  -4   4 -17    9.22    3.60   2
   4  -3 -12    2.89    1.83   2
   4  -3 -11    1.36    1.58   2
   4  -3 -10    6.34    2.19   2
   4  -3  -9   -2.38    1.88   2
   4  -3  -8   73.61    3.72   2
   4  -3  -7   66.22    3.98   2
   4  -3  -5  162.85    5.40   2
  -4   3   5  145.61    4.61   2
  -4   3   5  153.84    4.81   2
   4  -3  -4   69.36    3.01   2
  -4   3   4   69.58    3.14   2
  -4   3   4   65.00    2.65   2
   4  -3  -3    4.90    1.42   2
   4  -3  -3    7.23    1.33   2
  -4   3   3    5.83    2.02   2
  -4   3   3    6.37    1.12   2
   4  -3  -2  559.29   21.82   2
   4  -3  -2  596.72   21.80   2
  -4   3   2  558.67   21.89   2
  -4   3   2  569.34   21.23   2
   4  -3  -1    0.43    1.70   2
  -4   3   1    4.41    2.07   2
  -4   3   1    1.40    1.28   2
   4  -3   0  115.16    5.45   2
  -4   3   0  125.67    6.03   2
  -4   3   0  120.38    5.62   2
   4  -3   2   22.67    2.92   2
  -4   3  -2   21.64    3.92   2
  -4   3  -2   25.05    2.84   2
   4  -3   3   14.09    2.06   2
  -4   3  -3   24.23    3.98   2
   4  -3   4   24.69    3.61   2
  -4   3  -4   27.22    3.08   2
   4  -3   5   59.08    5.18   2
  -4   3  -5   63.33    6.62   2
  -4   3  -6    2.16    4.01   2
  -4   3  -9   22.14    3.56   2
  -4   3 -10   87.86    8.89   2
  -4   3 -11   17.77    5.73   2
  -4   3 -12    6.57    5.12   2
  -4   3 -13    3.17    4.83   2
  -4   3 -16    3.65    3.41   2
  -4   3 -17   14.76    6.00   2
   4  -2 -13   29.01    0.97   2
   4  -2 -11   -0.76    2.38   2
   4  -2 -10    1.83    2.24   2
   4  -2  -9   20.75    2.84   2
   4  -2  -8   24.83    2.75   2
   4  -2  -6   20.97    2.33   2
   4  -2  -5   13.99    0.87   2
   4  -2  -5   14.10    1.89   2
  -4   2   5   13.82    1.06   2
  -4   2   5   14.49    2.03   2
   4  -2  -4   56.90    1.94   2
   4  -2  -4   55.89    3.05   2
  -4   2   4   52.71    2.40   2
  -4   2   4   54.65    3.06   2
   4  -2  -3   82.14    3.47   2
   4  -2  -3   73.58    3.41   2
  -4   2   3   72.85    3.97   2
  -4   2   3   67.32    3.75   2
   4  -2  -2  236.54    7.94   2
   4  -2  -2  246.13    8.79   2
  -4   2   2  245.23    8.70   2
  -4   2   2  235.43    8.78   2
   4  -2  -1   36.72    2.80   2
   4  -2  -1   41.36    2.68   2
  -4   2   1   43.98    3.29   2
  -4   2   1   37.70    2.85   2
  -4   2   0   50.87    3.91   2
   4  -2   1   20.22    1.89   2
  -4   2  -1   27.84    2.85   2
   4  -2   2    3.27    1.59   2
  -4   2  -2    4.38    3.14   2
  -4   2  -2   -2.35    2.51   2
   4  -2   3   38.00    2.71   2
  -4   2  -3   43.70    4.76   2
  -4   2  -3   45.33    4.19   2
   4  -2   4   82.34    4.14   2
  -4   2  -4   86.40    6.66   2
  -4   2  -4   96.72    6.38   2
   4  -2   5   83.72    4.35   2
  -4   2  -5   94.60    7.57   2
  -4   2  -8   55.58    4.74   2
  -4   2  -9    7.31    5.01   2
  -4   2 -10  300.66   18.55   2
  -4   2 -11   -0.52    2.85   2
  -4   2 -12   -1.43    4.69   2
  -4   2 -13   31.42    6.85   2
  -4   2 -16   25.86    6.37   2
  -4   2 -17   -4.92    3.27   2
   4  -1 -13   12.43    0.97   2
   4  -1 -13   12.47    0.97   2
   4  -1 -12    1.55    0.59   2
   4  -1 -12    1.36    0.57   2
   4  -1 -11    0.36    0.34   2
   4  -1 -11   -0.03    0.33   2
   4  -1 -10    1.65    2.58   2
   4  -1  -9   60.69    4.53   2
   4  -1  -8   71.49    4.38   2
   4  -1  -6  138.65    3.44   2
   4  -1  -6  172.05    7.55   2
  -4   1   6  146.14    3.64   2
  -4   1   6  155.39    7.20   2
   4  -1  -5   85.19    2.82   2
   4  -1  -5   85.46    4.52   2
  -4   1   5   93.50    3.05   2
  -4   1   5   84.69    4.92   2
   4  -1  -4    1.77    1.00   2
   4  -1  -4    0.19    1.99   2
  -4   1   4    1.45    1.52   2
  -4   1   4    1.50    2.19   2
   4  -1  -3  752.85   29.43   2
   4  -1  -3  782.09   35.92   2
  -4   1   3  757.61   30.00   2
  -4   1   3  733.41   33.67   2
   4  -1  -2    0.11    2.14   2
   4  -1  -2    1.01    1.95   2
  -4   1   2   -0.12    1.74   2
  -4   1   2   -3.02    2.26   2
   4  -1  -1  160.09    6.20   2
   4  -1  -1  148.26    6.82   2
  -4   1   1  138.10    5.04   2
  -4   1   1  138.72    6.42   2
   4  -1   1   92.10    3.83   2
   4  -1   1   87.63    4.93   2
  -4   1  -1   93.67    4.04   2
  -4   1  -1   82.06    5.92   2
   4  -1   2   28.41    3.76   2
  -4   1  -2   40.39    4.44   2
  -4   1  -2   31.73    3.78   2
   4  -1   3   33.98    4.10   2
  -4   1  -3   37.05    3.06   2
  -4   1  -3   38.96    4.46   2
   4  -1   4   85.51    6.03   2
  -4   1  -4   85.11    4.94   2
  -4   1  -4   86.50    4.53   2
   4  -1   5   19.11    4.05   2
  -4   1  -5   24.62    4.85   2
  -4   1  -5   16.88    4.79   2
  -4   1  -6  208.04   11.10   2
  -4   1  -6  111.89    9.15   2
  -4   1  -9  106.62    6.56   2
  -4   1 -10   27.63    3.90   2
  -4   1 -11   13.28    5.72   2
  -4   1 -12    0.07    4.21   2
  -4   1 -16   48.99    7.48   2
  -4   1 -17    6.18    3.38   2
   4   0 -14   28.60    1.73   2
   4   0 -13   10.09    1.29   2
   4   0 -13   10.72    1.55   2
   4   0 -12    0.68    1.18   2
   4   0 -12   -1.31    1.22   2
   4   0 -11    1.01    1.04   2
   4   0 -11    2.50    1.14   2
   4   0 -10    9.61    1.24   2
   4   0 -10   11.51    1.26   2
   4   0  -9   21.58    1.51   2
   4   0  -9   24.11    1.54   2
   4   0  -9   25.92    3.27   2
   4   0  -7   24.39    1.83   2
   4   0  -7   27.83    3.52   2
  -4   0   7   21.89    1.79   2
  -4   0   7   21.98    3.69   2
   4   0  -6   15.75    1.85   2
   4   0  -6   17.88    2.69   2
  -4   0   6   13.39    1.85   2
  -4   0   6   14.01    3.16   2
   4   0  -5   41.71    2.65   2
   4   0  -5   35.64    3.56   2
  -4   0   5   39.15    2.86   2
  -4   0   5   34.62    4.03   2
   4   0  -4   57.08    2.88   2
   4   0  -4   72.31    4.71   2
  -4   0   4   54.76    2.95   2
  -4   0   4   70.86    5.02   2
   4   0  -3  220.22    7.88   2
   4   0  -3  223.72    9.65   2
  -4   0   3  221.93    8.51   2
  -4   0   3  209.58   10.19   2
   4   0  -2   50.85    3.21   2
   4   0  -2   49.27    2.88   2
  -4   0   2   42.71    3.34   2
  -4   0   2   46.53    4.30   2
   4   0   0   48.46    3.83   2
   4   0   0   39.50    3.91   2
  -4   0   0   27.75    4.34   2
   4   0   1   17.90    3.22   2
   4   0   1   18.04    1.95   2
  -4   0  -1   19.54    3.45   2
  -4   0  -1   17.29    2.43   2
   4   0   2   41.51    3.97   2
   4   0   2   37.80    3.88   2
  -4   0  -2   34.40    4.57   2
  -4   0  -2   36.12    3.03   2
   4   0   3  104.54    4.74   2
   4   0   3  111.57    6.00   2
  -4   0  -3  104.06    5.23   2
  -4   0  -3  109.54    5.28   2
   4   0   4  107.74    6.74   2
  -4   0  -4  104.83    7.22   2
  -4   0  -4  112.87    7.57   2
   4   0   5    2.25    3.04   2
  -4   0  -5    1.07    2.32   2
  -4   0  -5   -1.74    2.26   2
  -4   0  -7   57.58    4.64   2
  -4   0  -8   -1.13    4.75   2
  -4   0  -8   13.09    4.83   2
  -4   0  -9  339.15   19.27   2
  -4   0  -9  348.35   19.77   2
  -4   0 -10    6.27    4.93   2
  -4   0 -11    4.06    5.15   2
  -4   0 -12  105.40    9.97   2
  -4   0 -16    0.08    4.71   2
  -4   0 -17   47.80    7.29   2
   4   1 -14    9.79    1.81   2
   4   1 -13    1.93    1.40   2
   4   1 -13    6.15    1.58   2
   4   1 -12    2.19    1.23   2
   4   1 -12   -1.37    1.30   2
   4   1 -11   -0.59    1.58   2
   4   1 -11   -0.27    1.39   2
   4   1 -10   24.89    2.03   2
   4   1 -10   34.68    2.78   2
   4   1  -9   51.04    2.66   2
   4   1  -9   60.82    2.79   2
   4   1  -7   93.35    3.92   2
   4   1  -7   90.05    6.16   2
  -4  -1   7   94.95    4.08   2
  -4  -1   7   96.38    5.13   2
   4   1  -6   80.27    3.62   2
   4   1  -6   67.89    3.74   2
  -4  -1   6   77.76    3.73   2
  -4  -1   6   75.32    4.26   2
   4   1  -5   -2.04    1.66   2
   4   1  -5   -0.86    1.56   2
  -4  -1   5    1.39    1.73   2
  -4  -1   5   -0.56    1.74   2
   4   1  -4  545.87   22.46   2
   4   1  -4  526.61   25.75   2
  -4  -1   4  548.26   22.74   2
  -4  -1   4  551.27   26.21   2
   4   1  -3   -1.99    2.00   2
   4   1  -3    1.74    1.59   2
  -4  -1   3    1.97    2.14   2
  -4  -1   3   -0.04    2.88   2
   4   1  -2  105.41    4.29   2
   4   1  -2  102.66    6.47   2
  -4  -1   2  113.08    6.36   2
  -4  -1   2  109.50    6.95   2
   4   1   0  122.91    6.42   2
   4   1   0  124.18    5.52   2
  -4  -1   0  118.30    5.09   2
  -4  -1   0  126.02    5.77   2
   4   1   1   36.96    4.09   2
   4   1   1   32.83    4.25   2
  -4  -1  -1   34.40    4.35   2
  -4  -1  -1   34.56    4.90   2
   4   1   2   37.57    4.01   2
   4   1   2   26.08    4.17   2
  -4  -1  -2   35.03    4.66   2
  -4  -1  -2   28.90    4.73   2
   4   1   3   70.29    5.58   2
   4   1   3   65.04    5.33   2
  -4  -1  -3   80.49    6.24   2
  -4  -1  -3   69.32    4.31   2
   4   1   4   51.53    5.01   2
   4   1   4   42.89    3.16   2
  -4  -1  -4   54.35    3.90   2
  -4  -1  -4   50.73    5.46   2
  -4  -1  -5   95.38    5.32   2
  -4  -1  -7   20.23    3.34   2
  -4  -1  -8   82.27    8.37   2
  -4  -1  -8   85.96    5.90   2
  -4  -1  -9   37.02    3.92   2
  -4  -1  -9   37.64    6.63   2
  -4  -1 -10   16.38    3.40   2
  -4  -1 -10   20.19    3.61   2
  -4  -1 -11    0.60    2.94   2
  -4  -1 -11   17.27    5.23   2
  -4  -1 -14    9.96    3.39   2
  -4  -1 -14   20.67    5.88   2
  -4  -1 -15   77.70    8.57   2
  -4  -1 -15   57.49    8.13   2
  -4  -1 -16    7.14    5.00   2
  -4  -1 -17   38.93    7.21   2
   4   2 -15   21.24    2.79   2
   4   2 -14   12.77    2.33   2
   4   2 -13   -0.26    1.74   2
   4   2 -13    1.94    1.93   2
   4   2 -12    1.59    2.11   2
   4   2 -12   -0.46    1.84   2
   4   2 -11    3.70    1.67   2
   4   2 -11    2.88    2.06   2
   4   2 -10   11.05    2.15   2
   4   2 -10   20.69    2.29   2
   4   2  -8   21.75    2.37   2
  -4  -2   8   18.00    2.55   2
  -4  -2   8   28.32    4.56   2
   4   2  -7   15.83    2.24   2
  -4  -2   7   11.58    2.49   2
  -4  -2   7   10.02    2.38   2
   4   2  -6   24.19    2.73   2
  -4  -2   6   21.18    2.97   2
  -4  -2   6   31.87    4.53   2
   4   2  -5   25.06    3.16   2
   4   2  -5   32.29    4.51   2
  -4  -2   5   26.79    3.30   2
  -4  -2   5   42.16    5.04   2
   4   2  -4  130.88    6.58   2
   4   2  -4  130.64    7.94   2
  -4  -2   4  126.72    6.84   2
  -4  -2   4  146.04    9.04   2
   4   2  -3   28.69    3.40   2
   4   2  -3   33.95    2.73   2
  -4  -2   3   36.26    4.07   2
  -4  -2   3   33.32    4.88   2
   4   2  -1   25.89    3.69   2
   4   2  -1   32.81    2.79   2
  -4  -2   1   35.39    4.44   2
  -4  -2   1   36.05    3.28   2
   4   2   0   24.87    3.68   2
   4   2   0   20.77    2.57   2
  -4  -2   0   20.53    2.80   2
  -4  -2   0   24.19    2.73   2
   4   2   1   32.61    3.90   2
   4   2   1   24.49    2.62   2
  -4  -2  -1   24.95    4.53   2
  -4  -2  -1   18.12    2.80   2
   4   2   2   91.82    4.76   2
   4   2   2   92.72    4.70   2
  -4  -2  -2   97.30    6.93   2
  -4  -2  -2   93.37    7.25   2
   4   2   3   65.73    3.84   2
   4   2   3   62.90    3.91   2
  -4  -2  -3   80.80    6.36   2
  -4  -2  -3   57.05    6.42   2
  -4  -2  -4    5.93    2.60   2
  -4  -2  -4    4.77    4.10   2
  -4  -2  -6   30.78    5.62   2
  -4  -2  -7   12.14    4.79   2
  -4  -2  -7    7.45    2.71   2
  -4  -2  -8  202.13    9.98   2
  -4  -2  -8  197.75   10.21   2
  -4  -2  -9   15.39    5.06   2
  -4  -2  -9    9.87    5.30   2
  -4  -2 -10    8.52    5.09   2
  -4  -2 -10    3.00    4.96   2
  -4  -2 -11   43.50    6.81   2
  -4  -2 -13   26.37    6.24   2
  -4  -2 -14   60.16    5.93   2
  -4  -2 -15   -2.52    4.63   2
  -4  -2 -15   -0.24    3.29   2
  -4  -2 -16   73.48    8.60   2
  -4  -2 -16   77.25    9.22   2
   4   3 -15   12.72    2.75   2
   4   3 -14    2.14    2.50   2
   4   3 -13   -0.76    1.94   2
   4   3 -13   -0.97    1.95   2
   4   3 -12   -1.76    2.01   2
   4   3 -12   -1.66    2.46   2
   4   3 -11   17.30    2.53   2
   4   3 -11   13.31    2.62   2
   4   3 -10   28.12    3.12   2
   4   3 -10   34.28    3.39   2
   4   3  -8   41.44    3.56   2
  -4  -3   8   44.49    3.75   2
  -4  -3   8   48.10    4.12   2
   4   3  -7   46.50    3.83   2
  -4  -3   7   49.14    4.26   2
  -4  -3   7   55.44    5.97   2
   4   3  -6   -2.45    1.39   2
  -4  -3   6    4.75    2.83   2
  -4  -3   6    5.88    2.27   2
   4   3  -5  262.09   12.85   2
  -4  -3   5  277.62   13.81   2
  -4  -3   5  286.96   15.07   2
   4   3  -4   -2.82    2.63   2
  -4  -3   4   -2.14    2.90   2
  -4  -3   4   -0.25    4.01   2
   4   3  -3   47.04    3.08   2
  -4  -3   3   53.65    5.32   2
  -4  -3   3   55.56    5.88   2
   4   3  -1   88.53    5.94   2
  -4  -3   1   96.39    4.91   2
  -4  -3   1   95.73    5.43   2
   4   3   0   16.50    3.86   2
  -4  -3   0   19.06    4.33   2
  -4  -3   0   15.59    2.94   2
  -4  -3  -1   22.46    4.58   2
  -4  -3  -1   16.41    4.96   2
  -4  -3  -2   44.98    5.93   2
  -4  -3  -3   71.58    6.84   2
  -4  -3  -3   65.31    6.65   2
  -4  -3  -4   76.58    7.19   2
  -4  -3  -4   59.27    4.72   2
  -4  -3  -6   12.88    4.93   2
  -4  -3  -6    0.44    4.38   2
  -4  -3  -7   36.71    6.08   2
  -4  -3  -7   19.67    6.32   2
  -4  -3  -8   18.12    5.34   2
  -4  -3  -8   15.29    5.24   2
  -4  -3  -9   10.23    3.14   2
  -4  -3  -9    7.83    3.19   2
  -4  -3 -10    5.56    4.62   2
  -4  -3 -10   -0.68    4.80   2
  -4  -3 -11   -3.72    4.93   2
  -4  -3 -11   -4.99    3.08   2
  -4  -3 -13    6.97    3.43   2
  -4  -3 -14   59.90    7.53   2
  -4  -3 -14   47.22    7.93   2
  -4  -3 -15    6.05    5.44   2
  -4  -3 -15   12.10    5.73   2
  -4  -3 -16   29.00    6.61   2
  -4  -3 -16   33.12    7.32   2
   4   4 -15    4.10    3.01   2
   4   4 -14    2.32    2.53   2
   4   4 -13    0.91    2.89   2
   4   4 -12    0.63    2.73   2
   4   4 -11   10.92    2.79   2
  -4  -4   9    9.06    3.05   2
  -4  -4   9   15.58    3.00   2
  -4  -4   8    5.10    3.16   2
  -4  -4   8    9.93    4.65   2
  -4  -4   7   16.63    3.30   2
  -4  -4   7    9.54    4.67   2
  -4  -4   6   14.86    2.47   2
  -4  -4   6   -0.67    4.90   2
  -4  -4   5   66.50    5.97   2
  -4  -4   5   57.10    6.90   2
  -4  -4   4   19.90    4.32   2
  -4  -4   4   26.88    5.18   2
  -4  -4   2   26.05    5.06   2
  -4  -4   2   23.25    4.96   2
  -4  -4   1   12.31    2.92   2
  -4  -4   1   15.91    4.67   2
  -4  -4   0   12.14    4.33   2
  -4  -4   0   10.14    2.95   2
  -4  -4  -1   70.45    6.90   2
  -4  -4  -1   62.14    7.11   2
  -4  -4  -2   40.88    5.83   2
  -4  -4  -2   35.72    3.92   2
  -4  -4  -3   18.13    5.38   2
  -4  -4  -3   19.67    4.95   2
  -4  -4  -5   14.63    3.18   2
  -4  -4  -5   11.91    4.81   2
  -4  -4  -6    7.74    5.46   2
  -4  -4  -6   20.96    5.21   2
  -4  -4  -7   96.30    6.29   2
  -4  -4  -7   79.14    9.33   2
  -4  -4  -8    7.67    5.36   2
  -4  -4  -8    8.19    5.14   2
  -4  -4  -9    0.72    2.84   2
  -4  -4 -10   38.43    4.22   2
  -4  -4 -10   40.57    4.72   2
  -4  -4 -12   14.26    3.60   2
  -4  -4 -13   69.39    8.27   2
  -4  -4 -13   56.64    8.44   2
  -4  -4 -14    0.38    2.97   2
  -4  -4 -14    2.26    2.99   2
  -4  -4 -15   67.04    6.01   2
  -4  -4 -15   68.38    6.52   2
   4   5 -15    3.78    3.00   2
   4   5 -14    0.89    2.94   2
   4   5 -13    1.47    3.21   2
   4   5 -12   10.62    3.46   2
   4   5 -11   15.72    3.66   2
  -4  -5   9   26.38    2.67   2
  -4  -5   9   23.11    5.67   2
  -4  -5   8   28.49    4.70   2
  -4  -5   8   34.73    5.87   2
  -4  -5   7    3.49    2.15   2
  -4  -5   6  109.74    8.88   2
  -4  -5   6  120.27    9.39   2
  -4  -5   5    7.75    2.57   2
  -4  -5   5   11.86    4.49   2
  -4  -5   4   20.73    4.89   2
  -4  -5   4   21.77    3.53   2
  -4  -5   2   56.90    6.26   2
  -4  -5   2   52.35    4.32   2
  -4  -5   1   11.68    4.69   2
  -4  -5   1   11.21    4.77   2
  -4  -5   0   16.53    4.80   2
  -4  -5   0   11.23    3.09   2
  -4  -5  -1   13.01    4.88   2
  -4  -5  -2   51.30    6.72   2
  -4  -5  -2   41.98    6.49   2
  -4  -5  -3   37.67    6.66   2
  -4  -5  -3   37.14    4.31   2
  -4  -5  -5   13.63    3.16   2
  -4  -5  -5    5.75    5.17   2
  -4  -5  -6   13.42    5.96   2
  -4  -5  -7   15.13    3.74   2
  -4  -5  -7   19.44    3.57   2
  -4  -5  -8   12.89    5.47   2
  -4  -5  -8    8.24    3.24   2
  -4  -5  -9    5.98    3.18   2
  -4  -5  -9    7.71    5.10   2
  -4  -5 -10   -0.90    4.95   2
  -4  -5 -12   -0.90    5.04   2
  -4  -5 -12   10.39    5.38   2
  -4  -5 -13   35.08    4.61   2
  -4  -5 -13   32.83    4.69   2
  -4  -5 -14    8.08    3.41   2
  -4  -5 -14    9.72    5.68   2
   4   6 -15    0.71    3.18   2
   4   6 -14    4.49    3.72   2
   4   6 -13    3.30    3.30   2
   4   6 -12    5.44    3.50   2
  -4  -6  10    2.15    3.63   2
  -4  -6  10    8.89    5.66   2
  -4  -6   9    2.24    2.20   2
  -4  -6   9    9.85    4.61   2
  -4  -6   8    6.82    3.66   2
  -4  -6   8    5.97    4.47   2
  -4  -6   7    3.45    3.93   2
  -4  -6   7    3.91    3.01   2
  -4  -6   6   20.14    3.28   2
  -4  -6   6   19.88    3.76   2
  -4  -6   5   12.18    4.70   2
  -4  -6   5    7.23    4.67   2
  -4  -6   3   13.72    5.30   2
  -4  -6   3   23.67    3.75   2
  -4  -6   2   14.40    3.09   2
  -4  -6   2   -1.93    4.84   2
  -4  -6   1    3.12    2.54   2
  -4  -6   0   33.80    4.14   2
  -4  -6  -1   29.52    3.95   2
  -4  -6  -1    9.75    5.67   2
  -4  -6  -2    5.82    3.10   2
  -4  -6  -2   19.71    5.08   2
  -4  -6  -4    2.73    5.23   2
  -4  -6  -4   13.13    5.39   2
  -4  -6  -5    3.93    3.34   2
  -4  -6  -5   10.48    4.85   2
  -4  -6  -6   41.32    6.35   2
  -4  -6  -6   22.48    6.35   2
  -4  -6  -7    3.26    3.03   2
  -4  -6  -7   -5.85    4.35   2
  -4  -6  -8   -5.38    5.46   2
  -4  -6  -9   24.15    4.19   2
  -4  -6  -9   23.18    6.15   2
  -4  -6 -11    7.03    5.31   2
  -4  -6 -11    2.23    5.21   2
  -4  -6 -12   36.38    4.51   2
  -4  -6 -12   32.43    4.99   2
   4   7 -13    7.66    2.41   2
   4   7 -12   12.42    3.90   2
  -4  -7  10   14.87    4.21   2
  -4  -7  10    4.17    5.99   2
  -4  -7   9    7.96    2.57   2
  -4  -7   9   13.92    5.16   2
  -4  -7   8   -1.13    2.38   2
  -4  -7   7   35.70    6.02   2
  -4  -7   7   45.55    6.94   2
  -4  -7   6    5.89    4.06   2
  -4  -7   6   -1.03    2.90   2
  -4  -7   5    8.47    4.94   2
  -4  -7   5    6.93    2.93   2
  -4  -7   3    6.18    5.48   2
  -4  -7   3   24.50    5.69   2
  -4  -7   2    9.39    5.03   2
  -4  -7   2   -2.30    4.84   2
  -4  -7   1    6.24    5.00   2
  -4  -7   0   12.85    5.31   2
  -4  -7   0    5.28    3.07   2
  -4  -7  -1   36.63    6.58   2
  -4  -7  -1   20.57    6.20   2
  -4  -7  -2   22.30    6.25   2
  -4  -7  -2   23.10    5.96   2
  -4  -7  -4   -3.14    5.09   2
  -4  -7  -4    5.02    4.81   2
  -4  -7  -5   11.11    5.78   2
  -4  -7  -6    6.71    3.47   2
  -4  -7  -6   14.67    5.27   2
  -4  -7  -7    2.04    4.93   2
  -4  -7  -8    2.95    2.90   2
  -4  -7  -8   -1.59    2.89   2
  -4  -7  -9   -2.02    4.42   2
  -4  -7 -11    1.08    3.01   2
  -4  -7 -11    4.44    3.09   2
  -4  -8  11    2.01    2.74   2
  -4  -8  11    4.78    3.54   2
  -4  -8  10   -3.52    3.83   2
  -4  -8  10    6.46    5.28   2
  -4  -8   9    5.19    4.14   2
  -4  -8   9    5.90    4.97   2
  -4  -8   8    4.44    4.29   2
  -4  -8   8    1.70    5.20   2
  -4  -8   7    4.98    2.97   2
  -4  -8   7    4.99    4.87   2
  -4  -8   6    6.42    2.99   2
  -4  -8   6    3.65    4.83   2
  -4  -8   4    8.09    3.35   2
  -4  -8   4   11.74    5.25   2
  -4  -8   3    0.48    3.04   2
  -4  -8   3   -0.59    2.91   2
  -4  -8   2   19.07    6.22   2
  -4  -8   1   13.01    6.08   2
  -4  -8   1   19.70    3.72   2
  -4  -8   0    6.83    5.59   2
  -4  -8   0    9.59    5.15   2
  -4  -8  -1   18.04    5.65   2
  -4  -8  -3   -7.24    5.22   2
  -4  -8  -3   11.89    5.00   2
  -4  -8  -4    1.98    5.86   2
  -4  -8  -4   12.44    5.21   2
  -4  -8  -5    8.19    3.82   2
  -4  -8  -6   16.87    5.63   2
  -4  -8  -6   -0.02    2.96   2
  -4  -8  -7   -1.29    3.15   2
  -4  -8  -7    2.64    4.65   2
  -4  -8  -8    6.28    5.78   2
  -4  -8  -8   13.46    5.24   2
  -4  -9   8   10.82    4.69   2
  -4  -9   8   12.18    5.89   2
  -4  -9   7   -2.14    4.51   2
  -4  -9   7    2.77    2.97   2
  -4  -9   6   11.80    4.94   2
  -4  -9   6   -8.23    5.26   2
  -4  -9   4    7.10    3.35   2
  -4  -9   4    1.59    4.83   2
  -4  -9   3    5.11    3.52   2
  -4  -9   3   15.78    5.22   2
  -4  -9   2    4.34    5.75   2
  -4  -9   2   10.55    5.39   2
  -4  -9   1    2.21    5.62   2
  -4  -9   0   14.68    6.05   2
  -4  -9   0   12.01    5.81   2
  -4  -9  -1   11.81    4.01   2
  -4  -9  -1    7.92    5.27   2
  -4  -9  -3   -2.54    5.08   2
  -4  -9  -3    1.18    4.80   2
  -4  -9  -4   -1.88    3.30   2
  -4  -9  -4    5.84    2.97   2
  -4  -9  -5   -2.12    5.58   2
  -4  -9  -5    7.59    3.30   2
  -5  11   7   -1.85    2.42   2
  -5  11   6    5.78    2.77   2
  -5  11   5    2.43    2.83   2
  -5  11   4   -0.23    2.98   2
  -5  11   3   -0.01    3.13   2
  -5  11   2   12.68    4.18   2
  -5  11   0    3.23    2.12   2
  -5  11  -1   11.16    4.01   2
  -5  11  -3    1.59    3.87   2
  -5  11  -4    3.30    4.05   2
  -5  11  -5    0.06    2.55   2
  -5  10   7    0.82    2.29   2
  -5  10   6    0.97    2.42   2
  -5  10   5    6.59    2.99   2
  -5  10   4    2.37    2.02   2
  -5  10   3    4.76    3.28   2
  -5  10   2    9.22    3.68   2
  -5  10   0    6.24    3.63   2
  -5  10  -1   10.29    2.69   2
  -5  10  -2    1.36    3.61   2
  -5  10  -3   12.27    4.39   2
  -5  10  -4    3.78    2.67   2
  -5  10  -5    7.71    4.54   2
  -5  10  -7   10.13    4.79   2
  -5  10  -8   11.19    4.90   2
  -5  10  -9    0.47    2.72   2
  -5   9   8    8.23    2.39   2
  -5   9   7    3.82    2.27   2
  -5   9   6    3.51    2.60   2
  -5   9   5    0.67    2.57   2
  -5   9   4    4.98    3.05   2
  -5   9   3   24.20    4.07   2
  -5   9   1    2.92    3.31   2
  -5   9   0   20.11    2.76   2
  -5   9  -1   -5.08    3.73   2
  -5   9  -2    2.65    3.73   2
  -5   9  -3    3.15    2.51   2
  -5   9  -4   -8.70    4.45   2
  -5   9  -6    2.73    2.63   2
  -5   9  -7   13.09    4.68   2
  -5   9  -8    9.91    3.26   2
  -5   9  -9   13.90    5.11   2
  -5   9 -10    2.03    4.20   2
  -5   9 -11    3.70    2.94   2
  -5   8   8   -3.96    1.92   2
  -5   8   7    1.04    2.03   2
  -5   8   7    1.55    2.09   2
  -5   8   6   10.55    2.68   2
  -5   8   5   20.74    3.42   2
  -5   8   4   14.08    3.14   2
  -5   8   3   10.81    2.06   2
  -5   8   1    3.76    2.85   2
  -5   8   0   37.14    3.03   2
  -5   8   0   28.66    1.34   2
  -5   8  -1   -3.12    3.28   2
  -5   8  -1   -2.65    1.39   2
  -5   8  -2   21.12    4.25   2
  -5   8  -2   10.93    2.03   2
  -5   8  -3    7.79    2.58   2
  -5   8  -3    5.76    1.56   2
  -5   8  -4   19.85    4.56   2
  -5   8  -4   11.12    2.06   2
  -5   8  -6   17.62    4.98   2
  -5   8  -7   -2.36    4.38   2
  -5   8  -8   14.18    3.32   2
  -5   8  -9    3.42    4.61   2
  -5   8 -10   -2.52    4.73   2
  -5   8 -11    3.27    4.74   2
  -5   7   9   23.42    2.96   2
  -5   7   8   13.01    2.12   2
  -5   7   8   17.00    2.28   2
  -5   7   7    3.68    1.87   2
  -5   7   7    3.85    1.95   2
  -5   7   6   13.22    2.30   2
  -5   7   6    7.32    2.47   2
  -5   7   5    9.20    2.48   2
  -5   7   5   10.71    2.55   2
  -5   7   4   35.78    3.95   2
  -5   7   4   39.44    3.61   2
  -5   7   2   -3.20    1.56   2
  -5   7   1   36.46    4.25   2
  -5   7   0    2.11    2.95   2
  -5   7   0    1.65    1.04   2
  -5   7  -1   27.31    2.73   2
  -5   7  -1   17.63    1.40   2
  -5   7  -2    0.72    3.42   2
  -5   7  -2    1.27    1.37   2
  -5   7  -3    0.09    3.44   2
  -5   7  -5    7.12    4.40   2
  -5   7  -6   26.33    3.47   2
  -5   7  -7   29.01    5.35   2
  -5   7  -8   15.28    5.22   2
  -5   7  -9   13.30    5.00   2
  -5   7 -10   -4.04    4.53   2
  -5   7 -12    5.90    4.95   2
  -5   7 -13    5.21    3.09   2
  -5   7 -14    8.46    5.57   2
   5  -6  -9   -0.05    1.14   2
  -5   6   9   -0.86    1.56   2
  -5   6   9    2.17    1.66   2
   5  -6  -8    2.38    0.93   2
   5  -6  -8    3.69    0.87   2
  -5   6   8    2.34    1.77   2
  -5   6   8    3.06    1.92   2
  -5   6   7   16.44    2.00   2
  -5   6   7   17.79    2.00   2
  -5   6   6   29.43    2.70   2
  -5   6   6   36.73    2.65   2
  -5   6   5   27.85    2.90   2
  -5   6   5   33.32    3.75   2
  -5   6   4   13.20    2.56   2
  -5   6   4   19.88    2.65   2
  -5   6   2    2.49    2.18   2
  -5   6   2   -0.99    2.39   2
  -5   6   1   52.04    4.72   2
  -5   6   1   54.41    4.58   2
  -5   6   0    0.45    1.69   2
  -5   6   0    0.74    2.75   2
  -5   6   0   -0.21    1.14   2
  -5   6  -1   41.32    4.61   2
  -5   6  -1   41.24    2.55   2
  -5   6  -2   28.92    4.63   2
  -5   6  -3   47.33    3.79   2
  -5   6  -5   32.27    3.54   2
  -5   6  -6   11.51    4.46   2
  -5   6  -7   43.76    4.40   2
  -5   6  -8    6.89    4.42   2
  -5   6  -9    8.79    4.56   2
  -5   6 -10    5.88    5.02   2
  -5   6 -12    7.05    5.62   2
  -5   6 -13   -6.10    5.71   2
  -5   6 -14    6.73    3.65   2
  -5   6 -15    8.80    5.63   2
   5  -5 -10   40.80    3.33   2
  -5   5  10   32.84    1.43   2
  -5   5  10   41.19    1.70   2
   5  -5  -9   32.64    1.91   2
  -5   5   9   30.54    1.30   2
  -5   5   9   32.62    1.80   2
   5  -5  -8    4.42    1.38   2
  -5   5   8    1.46    1.26   2
  -5   5   8    4.66    1.40   2
   5  -5  -7   16.97    1.42   2
  -5   5   7   13.54    1.85   2
  -5   5   7   15.31    2.01   2
   5  -5  -6   40.04    1.48   2
  -5   5   6   47.02    3.13   2
  -5   5   6   39.65    2.40   2
  -5   5   5   48.62    3.08   2
  -5   5   5   57.23    3.02   2
  -5   5   3    1.76    1.94   2
  -5   5   3   -0.50    2.00   2
   5  -5  -2   51.88    3.46   2
  -5   5   2   47.99    3.65   2
  -5   5   2   39.08    1.15   2
   5  -5  -1    3.95    2.03   2
  -5   5   1    0.67    1.53   2
  -5   5   1    0.39    1.07   2
   5  -5   0   40.89    3.67   2
  -5   5   0   38.63    4.12   2
  -5   5   0   36.61    2.54   2
   5  -5   1    3.37    2.78   2
  -5   5  -1    7.09    1.96   2
  -5   5  -1    6.68    1.61   2
  -5   5  -2   15.31    3.76   2
  -5   5  -2   16.48    2.57   2
  -5   5  -4    8.18    4.09   2
  -5   5  -5   39.30    3.67   2
  -5   5  -6   65.10    6.49   2
  -5   5  -7   32.01    3.67   2
  -5   5  -8    6.39    4.54   2
  -5   5  -9   -0.23    3.01   2
  -5   5 -11    1.54    5.02   2
  -5   5 -12    5.05    5.33   2
  -5   5 -13    9.98    6.13   2
  -5   5 -14   -2.48    5.37   2
  -5   5 -15   -9.97    5.56   2
   5  -4 -12    8.12    2.22   2
   5  -4 -10    0.95    1.69   2
   5  -4  -9    3.31    1.36   2
   5  -4  -8   29.86    1.98   2
  -5   4   8   19.19    0.80   2
  -5   4   8   20.50    0.82   2
   5  -4  -7   57.86    2.63   2
  -5   4   7   11.95    0.96   2
  -5   4   7   57.41    2.30   2
   5  -4  -6   68.28    3.27   2
  -5   4   6   61.63    2.83   2
  -5   4   6   58.64    2.77   2
   5  -4  -5   23.80    1.90   2
  -5   4   5   18.75    1.58   2
  -5   4   5   22.96    1.67   2
   5  -4  -3   -0.32    1.42   2
   5  -4  -3   -0.22    1.02   2
  -5   4   3   -0.24    1.66   2
  -5   4   3   -0.36    1.07   2
   5  -4  -2   57.53    3.59   2
  -5   4   2   54.74    3.65   2
  -5   4   2   63.38    3.00   2
   5  -4  -1    2.10    2.03   2
  -5   4   1    0.42    2.21   2
  -5   4   1    1.03    1.64   2
   5  -4   0   57.82    3.58   2
  -5   4   0   55.14    4.23   2
  -5   4   0   61.45    3.91   2
   5  -4   1   63.90    4.26   2
  -5   4  -1   62.41    4.86   2
  -5   4  -1   55.64    3.22   2
   5  -4   2   93.45    6.07   2
  -5   4  -2  106.85    6.82   2
  -5   4  -2  115.31    5.69   2
  -5   4  -4   82.76    7.05   2
  -5   4  -5    8.13    2.86   2
  -5   4  -6  158.42   10.89   2
  -5   4  -7    0.97    2.79   2
  -5   4  -8    3.94    4.80   2
  -5   4 -11   11.98    5.83   2
  -5   4 -12   14.89    3.58   2
  -5   4 -13   20.68    6.11   2
  -5   4 -14    5.77    5.45   2
  -5   4 -15   15.15    4.10   2
   5  -3 -12   23.43    3.34   2
   5  -3 -11   60.78    4.52   2
   5  -3 -10   51.20    3.43   2
   5  -3  -9    0.47    2.34   2
   5  -3  -8   20.80    2.39   2
   5  -3  -7  102.74    5.22   2
   5  -3  -6   63.34    3.83   2
  -5   3   6    2.81    0.73   2
  -5   3   6   57.66    2.12   2
   5  -3  -5   83.68    3.63   2
   5  -3  -4   -0.86    1.64   2
  -5   3   4   -0.98    1.32   2
  -5   3   4    4.09    1.95   2
   5  -3  -3   38.96    2.39   2
   5  -3  -3   39.38    3.03   2
  -5   3   3   42.11    2.67   2
  -5   3   3   41.93    2.58   2
   5  -3  -2    3.72    1.70   2
   5  -3  -2    1.91    1.42   2
  -5   3   2    2.51    1.92   2
  -5   3   2    0.58    2.09   2
   5  -3  -1   47.27    3.14   2
   5  -3  -1   47.92    2.73   2
  -5   3   1   60.34    3.88   2
  -5   3   1   54.83    3.25   2
   5  -3   0   19.99    2.69   2
  -5   3   0   19.09    3.21   2
  -5   3   0   19.32    2.41   2
   5  -3   1   13.90    1.82   2
  -5   3  -1   11.42    3.34   2
  -5   3  -1   14.27    2.60   2
  -5   3  -3   32.71    4.82   2
  -5   3  -3   29.83    3.93   2
  -5   3  -4   53.69    5.77   2
  -5   3  -4   60.80    5.19   2
  -5   3  -5  124.89    9.04   2
  -5   3  -5  130.36    9.08   2
  -5   3  -6   54.93    4.27   2
  -5   3  -7   23.53    3.52   2
  -5   3  -8    6.07    4.84   2
  -5   3 -11   17.28    5.88   2
  -5   3 -12   29.38    6.78   2
  -5   3 -13   10.79    3.67   2
  -5   3 -14   -1.58    5.27   2
  -5   3 -15    8.57    5.92   2
   5  -2 -11    2.07    2.38   2
   5  -2 -10    4.35    2.15   2
   5  -2  -9   26.24    2.93   2
   5  -2  -8   55.22    4.00   2
   5  -2  -7   87.70    4.51   2
  -5   2   7   -0.08    2.28   2
   5  -2  -6   25.58    2.55   2
  -5   2   6   27.95    1.28   2
  -5   2   6   18.17    3.00   2
   5  -2  -4    1.49    1.74   2
  -5   2   4   -1.90    1.28   2
  -5   2   4    2.15    1.95   2
   5  -2  -3   46.40    2.49   2
   5  -2  -3   49.34    3.28   2
  -5   2   3   50.57    2.79   2
  -5   2   3   49.43    3.39   2
   5  -2  -2    4.15    1.62   2
   5  -2  -2    2.63    1.85   2
  -5   2   2    2.52    1.96   2
  -5   2   2    5.49    2.11   2
   5  -2  -1   81.74    4.10   2
   5  -2  -1   81.78    4.38   2
  -5   2   1   87.40    4.96   2
  -5   2   1   88.05    4.93   2
   5  -2   0  115.73    5.58   2
   5  -2   0  105.39    5.36   2
  -5   2   0  115.47    6.00   2
  -5   2   0  115.97    5.92   2
  -5   2  -1  118.89    5.39   2
  -5   2  -1  127.97    7.00   2
   5  -2   3  105.27    4.64   2
  -5   2  -3  108.38    7.09   2
  -5   2  -4    6.46    4.22   2
  -5   2  -4    9.71    3.56   2
  -5   2  -5  308.24   17.38   2
  -5   2  -5  309.79   16.76   2
  -5   2  -6    4.35    4.27   2
  -5   2  -6    1.53    4.09   2
  -5   2  -7    8.47    5.03   2
  -5   2  -7    8.18    4.59   2
  -5   2  -8   77.37    8.75   2
  -5   2 -10   25.06    3.99   2
  -5   2 -11   23.42    6.30   2
  -5   2 -12   32.41    7.11   2
  -5   2 -13    0.90    3.27   2
  -5   2 -14   19.99    4.15   2
   5  -1  -9    6.18    2.74   2
   5  -1  -8  122.94    2.86   2
   5  -1  -8  135.11    7.19   2
  -5   1   8    2.29    3.59   2
   5  -1  -7   40.59    1.63   2
   5  -1  -7   38.23    3.34   2
  -5   1   7   41.99    1.82   2
  -5   1   7   41.08    3.89   2
   5  -1  -6   91.90    5.45   2
   5  -1  -5    1.21    2.32   2
  -5   1   5    1.17    1.43   2
   5  -1  -4   14.56    1.75   2
   5  -1  -4   19.60    2.94   2
  -5   1   4   16.33    1.96   2
  -5   1   4   19.30    3.22   2
   5  -1  -3    0.89    1.55   2
   5  -1  -3   -0.42    2.26   2
  -5   1   3    0.88    1.80   2
  -5   1   3    5.30    2.55   2
   5  -1  -2   48.49    3.11   2
   5  -1  -2   47.97    2.63   2
  -5   1   2   51.64    3.65   2
  -5   1   2   45.08    4.01   2
   5  -1  -1   35.66    2.97   2
   5  -1  -1   34.98    3.45   2
  -5   1   1   34.03    3.53   2
  -5   1   1   31.64    3.84   2
   5  -1   0   11.90    2.64   2
   5  -1   0   11.24    2.91   2
  -5   1   0   12.56    3.09   2
  -5   1   0   11.18    3.33   2
   5  -1   2   29.62    2.43   2
   5  -1   3   51.18    4.64   2
  -5   1  -3   43.98    3.67   2
  -5   1  -3   53.33    5.11   2
  -5   1  -4  188.49   10.95   2
  -5   1  -4  166.30   10.18   2
  -5   1  -5   83.60    7.45   2
  -5   1  -5   80.58    7.20   2
  -5   1  -6   28.88    5.49   2
  -5   1  -6   36.69    5.79   2
  -5   1  -7    4.16    4.59   2
  -5   1  -9    0.29    4.53   2
  -5   1 -10   12.98    5.88   2
  -5   1 -11   47.15    7.17   2
  -5   1 -12   23.57    6.72   2
  -5   1 -13   -3.33    5.41   2
   5   0 -12    0.95    0.94   2
   5   0 -12    1.75    0.87   2
   5   0 -11    2.74    0.98   2
   5   0 -11    3.21    0.89   2
   5   0 -10   18.14    1.42   2
   5   0 -10   19.34    1.37   2
   5   0  -9   34.25    1.91   2
  -5   0   9    1.82    2.69   2
   5   0  -8   82.43    3.44   2
   5   0  -8   82.88    5.57   2
  -5   0   8   77.76    3.41   2
  -5   0   8   89.78    4.55   2
   5   0  -7   21.22    2.08   2
   5   0  -7   21.20    2.21   2
  -5   0   7   23.61    2.20   2
  -5   0   7   20.95    3.71   2
   5   0  -5    0.59    1.41   2
   5   0  -5    2.46    2.50   2
  -5   0   5    0.83    2.23   2
  -5   0   5    1.24    1.73   2
   5   0  -4   20.38    2.15   2
   5   0  -4   16.77    3.29   2
  -5   0   4   21.13    3.27   2
  -5   0   4   26.02    3.92   2
   5   0  -3    4.71    1.92   2
  -5   0   3    3.04    2.15   2
   5   0  -2   78.49    4.41   2
  -5   0   2   78.22    4.07   2
   5   0  -1  131.69    6.08   2
   5   0  -1  120.90    5.58   2
  -5   0   1  114.97    4.83   2
  -5   0   1  113.99    7.41   2
   5   0   0   86.74    4.38   2
  -5   0   0   80.06    6.10   2
   5   0   2  120.36    5.86   2
  -5   0  -2  136.65    8.39   2
  -5   0  -2  138.02    8.26   2
   5   0   3    1.77    3.18   2
   5   0   3    4.71    3.01   2
  -5   0  -3    1.90    2.29   2
  -5   0  -3    3.99    3.88   2
  -5   0  -4  345.19   18.03   2
  -5   0  -4  339.95   17.38   2
  -5   0  -5   15.46    4.43   2
  -5   0  -5    2.44    2.38   2
  -5   0  -6    4.63    2.54   2
  -5   0  -6   -2.84    2.55   2
  -5   0  -7  103.56    8.32   2
  -5   0  -7   59.97    7.95   2
  -5   0  -9   32.79    4.24   2
  -5   0 -10   49.07    7.07   2
  -5   0 -10   37.47    7.82   2
  -5   0 -11   39.03    6.81   2
  -5   0 -11   33.03    4.34   2
  -5   0 -12    7.14    5.44   2
  -5   0 -12    6.39    5.84   2
  -5   0 -13   24.01    6.43   2
  -5   0 -14   46.24    5.38   2
  -5   0 -16   39.27    7.48   2
   5   1 -13   34.25    2.69   2
   5   1 -12   26.92    1.96   2
   5   1 -12   38.68    2.73   2
   5   1 -11    0.94    1.66   2
   5   1 -11    1.72    1.88   2
   5   1 -10    0.82    1.61   2
   5   1 -10    5.40    1.85   2
   5   1  -9  110.09    4.59   2
  -5  -1   9  117.75    4.81   2
  -5  -1   9  143.06    9.71   2
   5   1  -8   25.59    2.58   2
  -5  -1   8   24.04    2.93   2
  -5  -1   8   22.48    2.97   2
   5   1  -6    3.38    1.64   2
  -5  -1   6    5.99    2.01   2
  -5  -1   6    0.83    3.05   2
   5   1  -5    5.06    1.88   2
   5   1  -5    0.52    3.10   2
  -5  -1   5    2.38    2.01   2
  -5  -1   5    6.07    3.33   2
   5   1  -4    1.43    1.97   2
   5   1  -4    1.57    2.72   2
  -5  -1   4   -0.02    2.23   2
  -5  -1   4    1.29    3.35   2
   5   1  -3   32.57    3.22   2
   5   1  -3   23.91    4.07   2
  -5  -1   3   27.00    3.54   2
  -5  -1   3   27.08    4.25   2
   5   1  -2   41.13    3.62   2
   5   1  -2   34.12    2.78   2
  -5  -1   2   33.59    3.79   2
  -5  -1   2   40.44    4.98   2
   5   1  -1    0.10    2.52   2
   5   1  -1    3.67    1.86   2
  -5  -1   1    4.57    3.02   2
  -5  -1   1    0.95    3.70   2
   5   1   1   26.79    4.19   2
  -5  -1  -1   29.25    2.82   2
  -5  -1  -1   29.13    4.80   2
   5   1   2   33.55    4.07   2
  -5  -1  -2   27.09    3.16   2
  -5  -1  -2   35.98    3.20   2
  -5  -1  -3  139.86    9.05   2
  -5  -1  -4   80.69    7.20   2
  -5  -1  -4   71.69    5.05   2
  -5  -1  -5   32.33    3.48   2
  -5  -1  -6   -0.55    4.15   2
  -5  -1  -8    4.36    3.15   2
  -5  -1  -9    8.37    3.58   2
  -5  -1  -9   14.95    5.72   2
  -5  -1 -10   40.35    5.05   2
  -5  -1 -10   46.66    5.09   2
  -5  -1 -11   32.34    6.74   2
  -5  -1 -11   27.89    7.01   2
  -5  -1 -12    9.79    5.43   2
  -5  -1 -12    4.60    3.58   2
  -5  -1 -13   16.70    6.39   2
  -5  -1 -13   14.75    6.47   2
  -5  -1 -16   76.02    6.59   2
   5   2 -13    2.37    1.74   2
   5   2 -12    0.91    1.47   2
   5   2 -12   11.04    2.67   2
   5   2 -11    9.63    1.91   2
   5   2 -11   16.94    2.16   2
   5   2 -10   21.54    2.36   2
  -5  -2  10   22.80    2.71   2
  -5  -2  10   31.87    3.99   2
   5   2  -9   47.03    3.41   2
  -5  -2   9   54.13    3.57   2
  -5  -2   9   70.26    6.35   2
   5   2  -8   17.30    2.39   2
  -5  -2   8   14.00    2.58   2
  -5  -2   8   15.49    4.11   2
   5   2  -6    1.11    1.91   2
  -5  -2   6   -3.57    2.27   2
  -5  -2   6    3.40    2.00   2
   5   2  -5    6.37    2.31   2
  -5  -2   5   -0.48    2.64   2
  -5  -2   5    7.39    3.88   2
   5   2  -4    6.52    2.51   2
  -5  -2   4    3.14    2.78   2
   5   2  -3   49.21    4.10   2
  -5  -2   3   57.53    4.88   2
   5   2  -2   88.05    5.86   2
  -5  -2   2   88.12    6.17   2
  -5  -2   2   93.16    5.28   2
   5   2  -1   37.99    4.32   2
  -5  -2   1   31.96    3.07   2
  -5  -2   1   36.20    3.55   2
  -5  -2  -1   91.35    7.43   2
  -5  -2  -1   98.62    8.09   2
  -5  -2  -2    9.27    3.86   2
  -5  -2  -2    1.72    2.75   2
  -5  -2  -3  233.13   10.70   2
  -5  -2  -3  236.22   13.73   2
  -5  -2  -4   14.40    4.62   2
  -5  -2  -5   -4.88    4.10   2
  -5  -2  -5    4.10    4.43   2
  -5  -2  -6   59.17    7.44   2
  -5  -2  -8   25.61    6.11   2
  -5  -2  -9   48.16    5.05   2
  -5  -2  -9   64.05    5.24   2
  -5  -2 -10   29.87    4.17   2
  -5  -2 -10   29.75    6.92   2
  -5  -2 -11   19.99    3.88   2
  -5  -2 -11   23.47    4.07   2
  -5  -2 -12   12.42    6.24   2
  -5  -2 -13   28.06    4.78   2
  -5  -2 -15   49.45    8.12   2
   5   3 -13   29.80    3.20   2
   5   3 -12    0.61    1.85   2
   5   3 -12    3.42    2.89   2
   5   3 -11   -0.51    1.84   2
  -5  -3  11    1.79    1.47   2
  -5  -3  11   -2.13    2.98   2
   5   3 -10   57.97    4.19   2
  -5  -3  10   71.92    4.79   2
  -5  -3  10   87.94    7.85   2
   5   3  -9    8.08    2.36   2
  -5  -3   9   11.11    2.66   2
  -5  -3   9   16.10    3.04   2
   5   3  -8   35.53    3.63   2
   5   3  -7    5.10    2.52   2
  -5  -3   7    9.53    2.99   2
  -5  -3   7    4.01    4.41   2
   5   3  -6    3.67    2.39   2
  -5  -3   6    2.68    2.86   2
  -5  -3   6   -3.23    3.69   2
   5   3  -5    4.91    2.39   2
  -5  -3   5   -0.58    2.77   2
  -5  -3   5    0.50    3.90   2
   5   3  -4   11.88    3.21   2
  -5  -3   4   12.34    3.60   2
  -5  -3   3   25.40    4.38   2
  -5  -3   3   21.53    3.21   2
  -5  -3   2    1.29    3.47   2
  -5  -3   2    8.21    3.98   2
  -5  -3   0   23.60    3.09   2
  -5  -3   0   13.82    5.40   2
  -5  -3  -1   16.81    2.89   2
  -5  -3  -1   20.10    3.21   2
  -5  -3  -2   77.52    5.48   2
  -5  -3  -3   55.42    6.21   2
  -5  -3  -3   47.52    4.42   2
  -5  -3  -4   18.59    5.55   2
  -5  -3  -4   28.63    3.59   2
  -5  -3  -5    0.57    2.56   2
  -5  -3  -5   -2.86    4.41   2
  -5  -3  -7    4.04    2.94   2
  -5  -3  -8    6.01    5.40   2
  -5  -3  -8   13.90    3.42   2
  -5  -3  -9   45.38    6.95   2
  -5  -3  -9   43.11    7.10   2
  -5  -3 -10   27.07    4.19   2
  -5  -3 -10   19.74    4.33   2
  -5  -3 -11   10.58    3.50   2
  -5  -3 -11   13.17    5.60   2
  -5  -3 -12    5.81    5.31   2
  -5  -3 -12    0.04    3.34   2
  -5  -3 -14    7.29    3.78   2
   5   4 -14    6.03    2.69   2
   5   4 -13    1.94    2.70   2
   5   4 -12    8.12    2.89   2
  -5  -4  11    9.44    1.96   2
  -5  -4  11    7.13    3.73   2
  -5  -4  10   25.69    3.66   2
  -5  -4  10   36.48    4.05   2
  -5  -4   9    8.46    3.10   2
  -5  -4   9   11.45    4.72   2
  -5  -4   7    3.24    1.82   2
  -5  -4   7   -0.86    2.61   2
  -5  -4   6    1.02    3.44   2
  -5  -4   6    4.12    3.89   2
  -5  -4   5    1.96    3.45   2
  -5  -4   4   27.99    4.90   2
  -5  -4   4   36.08    4.08   2
  -5  -4   3   48.68    5.57   2
  -5  -4   3   59.00    6.84   2
  -5  -4   2    5.19    4.27   2
  -5  -4   2   10.24    2.93   2
  -5  -4   0   54.62    4.40   2
  -5  -4   0   63.97    7.24   2
  -5  -4  -1    1.00    2.56   2
  -5  -4  -1   -2.38    2.66   2
  -5  -4  -2  112.73    6.96   2
  -5  -4  -2  117.84    9.51   2
  -5  -4  -3   10.38    4.66   2
  -5  -4  -4    4.24    4.25   2
  -5  -4  -4   -0.81    4.63   2
  -5  -4  -5   49.25    4.61   2
  -5  -4  -7   18.11    3.79   2
  -5  -4  -7   16.32    5.91   2
  -5  -4  -8   44.84    7.29   2
  -5  -4  -8   39.83    7.28   2
  -5  -4  -9   17.89    5.60   2
  -5  -4  -9    8.20    3.70   2
  -5  -4 -10   26.19    4.24   2
  -5  -4 -10   24.14    6.77   2
  -5  -4 -11   17.17    6.00   2
  -5  -4 -11   11.02    6.17   2
  -5  -4 -12   36.96    6.70   2
  -5  -4 -12   13.73    6.94   2
   5   5 -14    9.45    3.43   2
   5   5 -13    0.28    2.70   2
   5   5 -12   -6.68    3.23   2
  -5  -5  11   40.97    4.59   2
  -5  -5  11   42.55    5.40   2
  -5  -5  10    4.34    1.87   2
  -5  -5  10    0.85    4.69   2
  -5  -5   9   23.62    6.03   2
  -5  -5   8    6.94    2.20   2
  -5  -5   8   -4.90    4.74   2
  -5  -5   7   -1.11    3.22   2
  -5  -5   7    0.34    2.45   2
  -5  -5   6   -3.72    2.29   2
  -5  -5   6    2.17    2.54   2
  -5  -5   5   13.41    4.23   2
  -5  -5   5    3.72    4.95   2
  -5  -5   4    4.81    4.32   2
  -5  -5   4   15.31    5.44   2
  -5  -5   3    5.23    2.65   2
  -5  -5   3    8.67    2.95   2
  -5  -5   1    5.87    4.71   2
  -5  -5   1   13.46    5.43   2
  -5  -5   0   -0.05    4.41   2
  -5  -5   0    7.28    3.13   2
  -5  -5  -1   31.96    3.88   2
  -5  -5  -1   28.17    4.07   2
  -5  -5  -2   29.83    3.93   2
  -5  -5  -2   33.37    6.35   2
  -5  -5  -3   19.21    5.53   2
  -5  -5  -4    2.35    4.63   2
  -5  -5  -4    2.93    4.96   2
  -5  -5  -6   -4.79    4.83   2
  -5  -5  -6    0.72    4.82   2
  -5  -5  -7    2.43    3.06   2
  -5  -5  -7    2.57    4.81   2
  -5  -5  -8   26.00    6.83   2
  -5  -5  -8   30.43    4.27   2
  -5  -5  -9   18.37    3.90   2
  -5  -5  -9   11.57    5.92   2
  -5  -5 -10    7.80    5.81   2
  -5  -5 -11   -0.76    4.89   2
  -5  -5 -11   -0.21    3.29   2
   5   6 -14    2.74    3.13   2
   5   6 -13   -0.56    2.87   2
  -5  -6  12    0.39    2.08   2
  -5  -6  12    2.77    3.28   2
  -5  -6  11   14.73    4.00   2
  -5  -6  11   15.53    6.36   2
  -5  -6  10    5.14    2.10   2
  -5  -6  10    4.55    4.81   2
  -5  -6   8   -2.46    3.55   2
  -5  -6   8    2.57    4.69   2
  -5  -6   7   -3.39    2.37   2
  -5  -6   7    1.72    4.79   2
  -5  -6   6    4.78    4.42   2
  -5  -6   5   16.59    5.30   2
  -5  -6   5   19.66    3.65   2
  -5  -6   4   24.05    5.55   2
  -5  -6   4   21.27    5.92   2
  -5  -6   3    9.69    4.76   2
  -5  -6   1   17.29    5.70   2
  -5  -6   1   19.97    3.80   2
  -5  -6   0    4.83    4.90   2
  -5  -6   0    3.26    2.98   2
  -5  -6  -1   48.86    7.29   2
  -5  -6  -1   40.24    7.41   2
  -5  -6  -2   10.68    5.16   2
  -5  -6  -3    6.44    2.97   2
  -5  -6  -3   -6.40    4.84   2
  -5  -6  -4   39.39    6.63   2
  -5  -6  -4   23.58    5.88   2
  -5  -6  -6    5.94    3.10   2
  -5  -6  -6    1.57    3.11   2
  -5  -6  -7   16.52    6.87   2
  -5  -6  -7   32.89    4.68   2
  -5  -6  -8    7.10    5.54   2
  -5  -6  -8    4.19    5.30   2
  -5  -6  -9   21.71    6.64   2
  -5  -6 -10   10.82    3.42   2
  -5  -6 -11    8.85    5.71   2
  -5  -7  12    2.63    2.32   2
  -5  -7  11    3.05    3.53   2
  -5  -7  11   -0.61    5.71   2
  -5  -7  10    5.00    5.22   2
  -5  -7   9    3.58    2.43   2
  -5  -7   9    2.29    5.02   2
  -5  -7   8   -4.28    3.91   2
  -5  -7   7    7.88    5.31   2
  -5  -7   6    6.87    4.59   2
  -5  -7   6    3.95    4.74   2
  -5  -7   5    1.07    4.76   2
  -5  -7   5    7.52    5.15   2
  -5  -7   4   12.25    5.03   2
  -5  -7   4    0.15    5.18   2
  -5  -7   2    7.39    5.12   2
  -5  -7   2   13.66    3.34   2
  -5  -7   1    0.00    4.85   2
  -5  -7   1    5.06    3.06   2
  -5  -7   0    7.01    5.08   2
  -5  -7  -1    7.49    5.16   2
  -5  -7  -1    6.30    5.60   2
  -5  -7  -2    3.62    3.24   2
  -5  -7  -2    8.97    5.30   2
  -5  -7  -3    5.35    5.09   2
  -5  -7  -3   -1.33    4.92   2
  -5  -7  -5    0.75    4.95   2
  -5  -7  -5    0.46    2.95   2
  -5  -7  -6  -10.95    5.70   2
  -5  -7  -7    8.59    5.88   2
  -5  -7  -7    8.37    5.50   2
  -5  -7  -8    6.33    5.19   2
  -5  -7  -8   11.27    5.41   2
  -5  -8   9    0.89    3.92   2
  -5  -8   9   -0.38    4.55   2
  -5  -8   8    6.59    4.27   2
  -5  -8   8   -1.24    4.93   2
  -5  -8   7   -2.57    4.36   2
  -5  -8   6    5.88    5.11   2
  -5  -8   6   11.88    5.52   2
  -5  -8   5   13.69    5.22   2
  -5  -8   5    5.58    5.04   2
  -5  -8   4    2.92    5.03   2
  -5  -8   4  -10.70    5.10   2
  -5  -8   2   11.68    5.44   2
  -5  -8   2    0.89    5.69   2
  -5  -8   1   -6.23    5.26   2
  -5  -8   1   -0.68    5.30   2
  -5  -8   0   11.15    5.53   2
  -5  -8   0    3.85    5.46   2
  -5  -8  -1    1.64    3.11   2
  -5  -8  -2   -1.91    5.24   2
  -5  -8  -2   -0.63    4.78   2
  -5  -8  -3   13.08    5.74   2
  -5  -8  -3    6.02    3.50   2
  -5  -8  -5    6.34    5.85   2
  -5  -8  -5    5.16    5.28   2
  -5  -9   3   10.24    5.37   2
  -5  -9   3    3.82    5.46   2
  -5  -9   2    6.41    5.54   2
  -5  -9   2    6.46    5.73   2
  -5  -9   1   -5.76    5.75   2
  -5  -9   0    4.35    3.67   2
  -5  -9   0   -0.57    5.17   2
  -6  11   5    6.07    1.92   2
  -6  11   4    4.52    3.22   2
  -6  11   3    1.62    2.76   2
  -6  11   2    3.62    3.18   2
  -6  11   1   -2.11    3.31   2
  -6  11   0    4.16    3.30   2
  -6  11  -2   -3.07    3.99   2
  -6  11  -3    1.81    4.12   2
  -6  11  -4    6.04    4.39   2
  -6  10   6   -2.55    2.44   2
  -6  10   5    2.60    2.47   2
  -6  10   4   17.85    2.20   2
  -6  10   3   -0.59    2.82   2
  -6  10   2    7.35    2.18   2
  -6  10   1    0.68    3.34   2
  -6  10  -1    6.12    3.83   2
  -6  10  -2    7.41    2.64   2
  -6  10  -3    5.78    3.94   2
  -6  10  -4    0.64    2.45   2
  -6  10  -5    9.11    4.68   2
  -6  10  -6    4.24    2.81   2
  -6   9   6   11.13    2.63   2
  -6   9   5   21.19    3.22   2
  -6   9   4    0.88    2.65   2
  -6   9   3   16.04    3.46   2
  -6   9   2   -0.65    3.06   2
  -6   9   1   -0.81    3.18   2
  -6   9  -1    0.53    3.47   2
  -6   9  -2    3.85    3.83   2
  -6   9  -3    8.56    4.08   2
  -6   9  -4    6.24    2.83   2
  -6   9  -5    8.74    4.57   2
  -6   9  -6    2.99    2.71   2
  -6   9  -8    6.91    2.89   2
  -6   9  -9    1.97    4.73   2
  -6   8   7   -0.85    1.93   2
  -6   8   6    0.64    2.12   2
  -6   8   5   38.20    3.88   2
  -6   8   4    1.21    2.59   2
  -6   8   3   -1.01    2.84   2
  -6   8   2    2.26    1.78   2
  -6   8   0    8.54    2.41   2
  -6   8  -1   12.33    3.87   2
  -6   8  -2   10.20    2.57   2
  -6   8  -3    2.50    3.89   2
  -6   8  -4   15.80    3.18   2
  -6   8  -5    4.61    4.30   2
  -6   8  -7    9.45    5.00   2
  -6   8  -8   -3.16    2.94   2
  -6   8  -9    2.72    4.44   2
  -6   8 -10    1.01    2.95   2
  -6   8 -11   -8.87    4.85   2
  -6   7   7    9.03    2.05   2
  -6   7   6   35.12    3.47   2
  -6   7   6   51.25    3.60   2
  -6   7   5    2.07    2.20   2
  -6   7   5    1.99    2.10   2
  -6   7   4   21.03    3.14   2
  -6   7   4   26.53    3.12   2
  -6   7   3    0.55    2.34   2
  -6   7   3   -1.67    2.43   2
  -6   7   2    1.54    2.62   2
  -6   7   0    7.50    2.95   2
  -6   7   0    3.25    1.17   2
  -6   7  -1   18.01    2.66   2
  -6   7  -1   16.87    2.11   2
  -6   7  -2   25.35    4.56   2
  -6   7  -2   24.84    2.86   2
  -6   7  -3   16.13    2.68   2
  -6   7  -4    7.82    4.36   2
  -6   7  -5    3.26    4.16   2
  -6   7  -7   16.64    5.19   2
  -6   7  -8   -5.76    4.32   2
  -6   7  -9   -6.25    4.90   2
  -6   7 -10    7.22    3.20   2
  -6   7 -11   10.64    5.85   2
  -6   7 -12   10.42    3.79   2
  -6   6   8    0.95    1.61   2
  -6   6   7    1.05    1.19   2
  -6   6   7   -2.13    1.78   2
  -6   6   6   61.87    3.73   2
  -6   6   6   68.02    4.43   2
  -6   6   5   -0.54    2.49   2
  -6   6   5   -3.94    1.84   2
  -6   6   4   16.12    2.52   2
  -6   6   4   18.30    2.56   2
  -6   6   3    3.63    2.39   2
  -6   6   3    5.03    2.50   2
  -6   6   1   16.52    3.42   2
  -6   6   1   16.18    1.48   2
  -6   6   0   37.77    4.32   2
  -6   6   0   32.41    2.40   2
  -6   6  -1   16.87    3.88   2
  -6   6  -1   15.57    2.19   2
  -6   6  -2   12.26    3.92   2
  -6   6  -2   10.99    2.16   2
  -6   6  -3   19.59    4.84   2
  -6   6  -3   36.24    3.96   2
  -6   6  -4   18.29    2.87   2
  -6   6  -6   25.36    3.45   2
  -6   6  -7    6.61    4.61   2
  -6   6  -8   13.45    5.61   2
  -6   6  -9   11.55    3.51   2
  -6   6 -10   10.16    5.59   2
  -6   6 -11   20.83    4.38   2
  -6   6 -13    4.61    3.43   2
   6  -5  -8    6.55    1.22   2
  -6   5   8    5.06    1.18   2
   6  -5  -7   74.26    3.19   2
  -6   5   7   69.23    3.37   2
  -6   5   7   84.88    3.80   2
   6  -5  -6    2.01    0.91   2
  -6   5   6   -0.22    1.78   2
  -6   5   6   -1.45    1.28   2
   6  -5  -5   29.86    1.46   2
  -6   5   5   38.15    3.14   2
  -6   5   5   35.52    3.19   2
  -6   5   4    0.49    1.10   2
  -6   5   4    2.02    1.74   2
   6  -5  -3    7.62    1.92   2
  -6   5   3   12.79    2.27   2
  -6   5   3    7.91    1.21   2
   6  -5  -1    7.02    2.27   2
  -6   5   1    5.56    2.46   2
  -6   5   1    3.78    1.90   2
   6  -5   0   34.50    3.56   2
  -6   5   0   37.73    2.74   2
  -6   5   0   38.68    3.28   2
  -6   5  -1   55.40    4.81   2
  -6   5  -1   45.37    3.23   2
  -6   5  -2   36.77    4.71   2
  -6   5  -2   36.59    4.24   2
  -6   5  -3   11.71    4.21   2
  -6   5  -3   17.48    3.24   2
  -6   5  -4    2.80    2.62   2
  -6   5  -4   11.13    3.45   2
  -6   5  -6   20.14    5.07   2
  -6   5  -7    3.85    2.95   2
  -6   5  -8    0.44    4.67   2
  -6   5  -9   20.49    6.01   2
  -6   5 -10   13.40    3.67   2
  -6   5 -13    7.88    3.51   2
  -6   5 -14   41.99    7.88   2
   6  -4 -11    4.11    1.95   2
   6  -4 -10   24.13    2.48   2
   6  -4  -9    1.32    1.52   2
   6  -4  -8   -0.89    1.89   2
   6  -4  -7   93.28    4.06   2
  -6   4   7   89.89    2.73   2
  -6   4   7   91.87    3.14   2
   6  -4  -6   -0.00    1.77   2
  -6   4   6   -1.19    1.32   2
  -6   4   6    2.12    1.10   2
   6  -4  -5   25.30    2.15   2
   6  -4  -5   25.12    1.88   2
  -6   4   5   25.63    2.57   2
  -6   4   5   19.19    2.24   2
   6  -4  -4   21.12    1.97   2
   6  -4  -4   14.17    1.91   2
  -6   4   4   18.58    2.08   2
  -6   4   4   20.19    2.22   2
   6  -4  -3   38.43    2.40   2
  -6   4   3   45.54    2.71   2
  -6   4   2   31.08    3.17   2
   6  -4  -1   53.33    3.62   2
  -6   4   1   53.80    4.45   2
  -6   4   1   60.91    3.42   2
   6  -4   0   14.66    2.85   2
  -6   4   0   19.26    2.06   2
  -6   4   0   20.45    2.48   2
   6  -4   1   38.76    3.88   2
  -6   4  -1   43.73    3.20   2
  -6   4  -1   38.34    3.62   2
  -6   4  -2   34.03    3.14   2
  -6   4  -2   25.66    3.24   2
  -6   4  -3   21.81    3.01   2
  -6   4  -3   21.66    3.49   2
  -6   4  -6    8.67    4.20   2
  -6   4  -6    0.36    2.75   2
  -6   4  -7   14.51    3.38   2
  -6   4  -8   31.91    3.83   2
  -6   4  -9   27.04    6.45   2
  -6   4 -10   52.53    8.08   2
  -6   4 -13   44.86    8.04   2
  -6   4 -14   -4.31    3.61   2
   6  -3 -11   60.12    4.54   2
   6  -3  -9    3.07    1.87   2
   6  -3  -8   88.75    4.54   2
   6  -3  -7   -1.08    1.66   2
  -6   3   7    1.19    0.64   2
  -6   3   7   -0.30    0.78   2
  -6   3   7   -0.91    1.22   2
   6  -3  -6   50.77    2.45   2
   6  -3  -6   52.10    4.02   2
  -6   3   6   52.81    2.52   2
  -6   3   6   47.17    3.22   2
   6  -3  -5    5.92    1.22   2
   6  -3  -5    6.19    1.77   2
  -6   3   5    4.61    1.94   2
  -6   3   5    4.85    1.99   2
   6  -3  -4   14.36    1.66   2
   6  -3  -4   16.42    2.22   2
  -6   3   4   14.81    1.87   2
  -6   3   4   17.69    2.38   2
   6  -3  -2    4.98    1.89   2
   6  -3  -2    6.63    1.85   2
  -6   3   2    4.61    2.17   2
  -6   3   2    3.83    2.22   2
   6  -3  -1   47.68    3.51   2
   6  -3  -1   44.73    3.25   2
  -6   3   1   53.06    4.01   2
  -6   3   1   45.03    3.82   2
   6  -3   0   80.61    3.78   2
  -6   3   0   97.96    6.11   2
  -6   3   0   99.58    5.73   2
   6  -3   1   68.46    4.75   2
  -6   3  -1   66.47    3.84   2
  -6   3  -1   63.06    4.76   2
  -6   3  -2   25.91    4.33   2
  -6   3  -2   19.07    2.12   2
  -6   3  -3    3.49    4.09   2
  -6   3  -3    8.72    2.97   2
  -6   3  -5   29.74    5.29   2
  -6   3  -6   10.20    2.91   2
  -6   3  -6   13.44    4.61   2
  -6   3  -7    4.48    3.16   2
  -6   3  -7    6.19    5.05   2
  -6   3  -8   31.48    4.03   2
  -6   3  -8   29.59    4.22   2
  -6   3  -9   34.35    7.41   2
  -6   3  -9   52.30    7.19   2
  -6   3 -10   27.19    7.08   2
  -6   3 -12   11.77    3.93   2
  -6   3 -13   68.24    9.70   2
  -6   3 -14   -5.63    5.87   2
  -6   3 -15    6.64    3.71   2
   6  -2 -10    2.36    2.22   2
   6  -2  -9    1.19    2.09   2
   6  -2  -8   87.02    4.78   2
  -6   2   8   51.68    3.53   2
   6  -2  -7    0.53    0.82   2
   6  -2  -7    0.33    2.10   2
  -6   2   7    0.20    0.90   2
  -6   2   7   -2.13    2.41   2
   6  -2  -6   24.65    1.71   2
   6  -2  -6   20.80    2.82   2
  -6   2   6   27.17    1.66   2
  -6   2   6   27.06    3.38   2
   6  -2  -5   35.74    1.92   2
   6  -2  -5   38.34    3.24   2
  -6   2   5   45.68    2.93   2
  -6   2   5   37.67    3.39   2
   6  -2  -4  108.39    4.04   2
   6  -2  -4   61.27    4.76   2
   6  -2  -3   48.39    3.87   2
  -6   2   3   42.24    3.84   2
   6  -2  -2   75.62    3.93   2
   6  -2  -2   68.02    4.42   2
  -6   2   2   76.60    4.39   2
  -6   2   2   68.22    4.96   2
   6  -2  -1   16.17    2.51   2
   6  -2  -1   13.88    2.88   2
  -6   2   1   19.86    3.13   2
  -6   2   1   26.42    3.20   2
   6  -2   0  106.98    5.43   2
   6  -2   0   91.31    5.60   2
  -6   2   0  110.59    6.19   2
  -6   2   0  111.48    6.69   2
   6  -2   1   33.54    3.47   2
   6  -2   1   26.38    3.37   2
  -6   2  -1   33.12    4.25   2
  -6   2  -1   37.02    4.03   2
  -6   2  -2   44.06    5.04   2
  -6   2  -2   39.14    4.50   2
  -6   2  -5    1.51    4.12   2
  -6   2  -5   -3.42    2.43   2
  -6   2  -6   13.07    5.06   2
  -6   2  -6   16.17    3.27   2
  -6   2  -7   54.23    7.79   2
  -6   2  -7   75.32    7.69   2
  -6   2  -8   38.74    7.03   2
  -6   2  -8   37.99    7.11   2
  -6   2  -9   83.16    6.55   2
  -6   2 -12   70.56    6.55   2
  -6   2 -12   77.23    9.88   2
  -6   2 -13   -2.35    3.35   2
  -6   2 -13   -6.09    5.43   2
  -6   2 -14   17.29    6.36   2
   6  -1  -9   55.27    1.68   2
  -6   1   9   60.85    1.76   2
  -6   1   9   55.34    4.14   2
   6  -1  -8   -0.05    0.91   2
   6  -1  -8    1.91    2.40   2
  -6   1   8    0.24    0.95   2
  -6   1   8    0.49    2.79   2
   6  -1  -7   35.07    2.10   2
   6  -1  -7   39.99    3.95   2
  -6   1   7   38.77    2.41   2
  -6   1   7   44.49    4.45   2
   6  -1  -6    9.22    1.78   2
   6  -1  -6   11.68    2.91   2
  -6   1   6   10.86    2.07   2
  -6   1   6   11.24    3.29   2
   6  -1  -5   10.17    1.59   2
   6  -1  -5   17.36    3.14   2
  -6   1   5    8.37    3.36   2
   6  -1  -3    3.56    1.90   2
   6  -1  -3    6.20    2.66   2
  -6   1   3    1.76    1.81   2
   6  -1  -2   39.60    2.26   2
   6  -1  -2   51.51    4.22   2
  -6   1   2   46.24    3.66   2
  -6   1   2   38.46    4.43   2
   6  -1  -1  115.61    5.87   2
   6  -1  -1   99.22    7.03   2
  -6   1   1  123.15    6.55   2
   6  -1   0   82.48    5.11   2
  -6   1   0   78.72    5.73   2
   6  -1   1   33.62    3.87   2
   6  -1   1   26.94    3.89   2
  -6   1  -1   39.23    4.25   2
  -6   1  -1   31.45    4.46   2
   6  -1   2    2.38    2.84   2
  -6   1  -2    4.55    2.09   2
  -6   1  -2   -0.88    3.41   2
  -6   1  -4   24.13    3.31   2
  -6   1  -4   18.56    4.65   2
  -6   1  -5   20.66    4.99   2
  -6   1  -5   15.02    4.81   2
  -6   1  -6    9.58    5.22   2
  -6   1  -6   15.41    4.87   2
  -6   1  -7   40.22    6.97   2
  -6   1  -7   44.52    6.96   2
  -6   1  -8   45.16    4.68   2
  -6   1  -9   11.69    6.23   2
  -6   1 -11   10.91    6.16   2
  -6   1 -12  127.22    9.00   2
  -6   1 -13    7.11    3.59   2
  -6   1 -13   -0.16    6.05   2
  -6   1 -14    1.81    3.67   2
  -6   1 -14    7.36    5.80   2
  -6   1 -15   15.74    6.00   2
   6   0 -11    2.32    1.00   2
   6   0 -10    0.67    0.84   2
  -6   0  10    3.70    2.41   2
   6   0  -9   52.34    2.74   2
  -6   0   9   55.32    2.94   2
  -6   0   9   65.49    5.65   2
   6   0  -8   -1.54    1.15   2
  -6   0   8   -0.13    1.70   2
  -6   0   8    3.92    3.24   2
   6   0  -7   19.45    1.90   2
  -6   0   7   20.23    2.54   2
  -6   0   7   20.71    4.13   2
   6   0  -6   45.39    2.59   2
  -6   0   6   40.60    2.91   2
  -6   0   6   44.29    4.42   2
   6   0  -4   31.85    4.57   2
  -6   0   4   42.69    3.32   2
   6   0  -3   57.71    3.79   2
   6   0  -3   58.36    5.10   2
  -6   0   3   64.86    4.35   2
  -6   0   3   55.65    3.58   2
   6   0  -2    2.56    2.56   2
  -6   0   2    9.29    2.67   2
  -6   0   2    5.50    2.22   2
   6   0  -1  152.51    7.51   2
  -6   0   1  146.76    7.70   2
  -6   0   1  137.18    6.92   2
   6   0   0   20.34    3.44   2
  -6   0   0   28.58    3.94   2
  -6   0  -1   22.78    4.31   2
  -6   0  -1   29.10    4.79   2
  -6   0  -3    6.27    4.23   2
  -6   0  -4   10.87    4.36   2
  -6   0  -4    4.28    2.68   2
  -6   0  -5   13.81    4.81   2
  -6   0  -5   13.01    3.03   2
  -6   0  -6   85.03    5.79   2
  -6   0  -6   79.68    5.70   2
  -6   0  -7   39.58    4.25   2
  -6   0  -7   31.69    3.92   2
  -6   0  -8   75.09    8.43   2
  -6   0 -11   83.46   10.18   2
  -6   0 -12    8.92    5.93   2
  -6   0 -12    6.13    6.23   2
  -6   0 -13   -4.02    5.43   2
  -6   0 -13    8.41    3.74   2
  -6   0 -14    6.76    5.86   2
   6   1 -11    4.60    1.84   2
   6   1 -10   27.76    2.19   2
  -6  -1  10   30.35    2.32   2
  -6  -1  10   36.85    5.55   2
   6   1  -9    2.26    1.90   2
  -6  -1   9   -3.44    1.96   2
  -6  -1   9    5.45    3.73   2
   6   1  -8   21.33    2.86   2
  -6  -1   8   23.69    3.16   2
  -6  -1   8   25.62    4.81   2
   6   1  -7   13.88    2.74   2
  -6  -1   7   13.49    2.93   2
  -6  -1   7   12.65    2.80   2
   6   1  -6    6.50    2.09   2
  -6  -1   6    3.20    2.29   2
  -6  -1   6   10.27    3.85   2
   6   1  -4    1.86    2.12   2
  -6  -1   4    3.40    2.40   2
  -6  -1   4    1.86    2.11   2
   6   1  -3   30.41    3.31   2
  -6  -1   3   26.89    3.76   2
  -6  -1   3   23.04    2.92   2
   6   1  -2   91.54    4.58   2
  -6  -1   2  105.90    6.62   2
  -6  -1   2  177.20   15.41  -2
  -6  -1   1  177.20   15.41   2
   6   1  -1   62.72    5.11   2
  -6  -1   1   75.33    5.73   2
  -6  -1   0   33.67    4.34   2
  -6  -1   0   29.21    3.45   2
  -6  -1  -1    1.82    3.91   2
  -6  -1  -3   18.89    4.75   2
  -6  -1  -3   13.82    4.71   2
  -6  -1  -4   14.60    4.58   2
  -6  -1  -5   23.05    5.24   2
  -6  -1  -5   11.92    5.34   2
  -6  -1  -6   41.33    6.66   2
  -6  -1  -6   50.43    6.86   2
  -6  -1  -7   31.04    4.15   2
  -6  -1  -7   27.50    6.36   2
  -6  -1  -8   19.18    6.15   2
  -6  -1 -10    4.67    5.71   2
  -6  -1 -11  104.10    8.50   2
  -6  -1 -12   -0.45    5.38   2
  -6  -1 -12   -8.68    5.62   2
  -6  -1 -13    5.25    5.02   2
  -6  -1 -13   -1.67    5.69   2
  -6  -1 -14   13.69    4.31   2
  -6  -2  11    0.18    1.92   2
   6   2 -10   17.39    2.31   2
  -6  -2  10   18.89    2.53   2
  -6  -2  10   33.68    3.50   2
   6   2  -9    1.21    1.61   2
  -6  -2   9   -1.83    1.89   2
  -6  -2   9   -3.62    4.09   2
   6   2  -8    9.38    2.25   2
  -6  -2   8    5.33    2.60   2
  -6  -2   8    8.03    2.72   2
   6   2  -7   29.36    3.22   2
  -6  -2   7   37.67    3.66   2
  -6  -2   7   38.86    5.25   2
   6   2  -5   19.55    2.08   2
  -6  -2   5   25.77    3.71   2
  -6  -2   5   28.60    5.06   2
   6   2  -4   37.21    3.78   2
  -6  -2   4   42.36    4.20   2
  -6  -2   4   45.26    3.93   2
  -6  -2   3   -5.33    3.19   2
  -6  -2   2  118.99    5.89   2
  -6  -2   2  126.62    9.77   2
  -6  -2   1   22.23    4.32   2
  -6  -2   1   20.03    5.35   2
  -6  -2   0   23.28    4.32   2
  -6  -2   0   16.24    5.17   2
  -6  -2  -2   -5.55    2.66   2
  -6  -2  -3    6.79    4.24   2
  -6  -2  -3    1.76    4.69   2
  -6  -2  -4    3.88    4.37   2
  -6  -2  -5   65.10    5.09   2
  -6  -2  -5   83.14    8.11   2
  -6  -2  -6   17.05    5.48   2
  -6  -2  -7   55.58    5.25   2
  -6  -2  -9  -10.09    5.61   2
  -6  -2 -10   80.60    6.98   2
  -6  -2 -11   14.52    6.38   2
  -6  -2 -11   21.55    6.37   2
  -6  -2 -12   18.23    6.26   2
  -6  -2 -12   11.94    3.76   2
  -6  -2 -13   12.04    5.61   2
  -6  -2 -13   -3.70    5.53   2
   6   3 -12   -0.28    2.18   2
  -6  -3  12    0.62    3.10   2
  -6  -3  11   11.00    2.68   2
  -6  -3  11   19.40    5.84   2
   6   3 -10    0.23    1.92   2
  -6  -3  10    0.42    2.24   2
  -6  -3  10   -0.69    4.37   2
  -6  -3   9    8.56    2.71   2
  -6  -3   9   15.73    3.04   2
  -6  -3   8   10.69    3.02   2
  -6  -3   8   12.79    3.07   2
  -6  -3   7   -3.54    2.89   2
  -6  -3   7    2.22    4.02   2
  -6  -3   5    6.83    3.32   2
  -6  -3   5   12.42    4.66   2
  -6  -3   4   19.16    3.96   2
  -6  -3   4    5.57    4.82   2
  -6  -3   3   64.51    5.95   2
  -6  -3   3   66.56    6.93   2
  -6  -3   2   37.90    3.60   2
  -6  -3   1   24.50    3.10   2
  -6  -3   1   16.66    3.44   2
  -6  -3   0   -2.16    3.86   2
  -6  -3   0   -1.70    4.44   2
  -6  -3  -2    2.05    2.55   2
  -6  -3  -2   -2.18    2.69   2
  -6  -3  -3   14.92    4.45   2
  -6  -3  -3    4.16    3.12   2
  -6  -3  -4   20.73    5.44   2
  -6  -3  -4   19.10    3.64   2
  -6  -3  -5   35.05    3.99   2
  -6  -3  -6    9.80    5.46   2
  -6  -3  -6   13.48    3.49   2
  -6  -3  -7   -0.96    2.98   2
  -6  -3  -9   -2.31    5.31   2
  -6  -3  -9    7.09    5.73   2
  -6  -3 -10   95.25   10.57   2
  -6  -3 -10   81.73    7.02   2
  -6  -3 -11    9.14    5.83   2
  -6  -3 -11    7.56    5.86   2
  -6  -3 -12    1.01    3.26   2
  -6  -3 -12    4.43    5.45   2
  -6  -4  12   -0.37    1.52   2
  -6  -4  12   -1.15    3.06   2
  -6  -4  11    8.73    2.90   2
  -6  -4  11   20.10    5.13   2
  -6  -4  10    5.36    2.58   2
  -6  -4  10   -0.90    2.79   2
  -6  -4   9    6.78    1.92   2
  -6  -4   9    3.68    2.87   2
  -6  -4   8   29.27    4.23   2
  -6  -4   8   23.98    5.96   2
  -6  -4   6    5.74    2.24   2
  -6  -4   6    6.36    3.05   2
  -6  -4   5   23.25    4.35   2
  -6  -4   5   26.36    3.79   2
  -6  -4   4    8.27    3.95   2
  -6  -4   4    6.03    4.90   2
  -6  -4   3   77.87    5.33   2
  -6  -4   3   76.45    8.23   2
  -6  -4   2   12.56    4.34   2
  -6  -4   2    8.25    3.06   2
  -6  -4   1    7.48    4.21   2
  -6  -4   1    8.03    5.07   2
  -6  -4  -1   -4.26    4.43   2
  -6  -4  -1   15.03    5.25   2
  -6  -4  -2   -0.52    2.75   2
  -6  -4  -2    7.09    2.74   2
  -6  -4  -3    5.13    5.01   2
  -6  -4  -3    7.98    3.17   2
  -6  -4  -4   30.68    6.56   2
  -6  -4  -4   32.35    4.38   2
  -6  -4  -5    3.98    3.02   2
  -6  -4  -5    3.34    3.12   2
  -6  -4  -6   34.63    6.61   2
  -6  -4  -6   17.93    6.21   2
  -6  -4  -8   -5.49    5.28   2
  -6  -4  -9   53.41    7.93   2
  -6  -4  -9   41.83    5.41   2
  -6  -4 -10    7.52    5.63   2
  -6  -4 -10    9.44    6.18   2
  -6  -4 -11   -0.26    3.53   2
  -6  -4 -11   12.32    3.95   2
  -6  -5  12    0.69    2.93   2
  -6  -5  12    3.59    3.45   2
  -6  -5  11   -0.52    2.58   2
  -6  -5  11    0.78    2.72   2
  -6  -5  10    1.23    2.89   2
  -6  -5  10    5.62    3.14   2
  -6  -5   9    4.50    3.24   2
  -6  -5   9    5.09    2.85   2
  -6  -5   8   -5.95    3.23   2
  -6  -5   8    1.94    4.56   2
  -6  -5   6   -3.28    2.40   2
  -6  -5   6   -0.40    4.72   2
  -6  -5   5    7.63    3.88   2
  -6  -5   5    0.40    3.08   2
  -6  -5   4   21.76    4.67   2
  -6  -5   3   25.57    5.41   2
  -6  -5   2   15.69    4.66   2
  -6  -5   2    8.85    5.43   2
  -6  -5   1    3.90    4.10   2
  -6  -5   1   -0.91    4.66   2
  -6  -5  -1    3.33    4.29   2
  -6  -5  -1   -1.38    2.89   2
  -6  -5  -2    1.20    4.64   2
  -6  -5  -2    6.03    2.99   2
  -6  -5  -3   12.29    3.36   2
  -6  -5  -3    8.07    3.37   2
  -6  -5  -4   23.31    6.32   2
  -6  -5  -4   22.79    4.14   2
  -6  -5  -5    3.87    3.09   2
  -6  -5  -5    6.22    5.10   2
  -6  -5  -6   -1.05    5.34   2
  -6  -5  -8    2.85    5.72   2
  -6  -5  -8    5.09    3.16   2
  -6  -5  -9   50.72    8.21   2
  -6  -5  -9   46.57    8.01   2
  -6  -5 -10   -4.08    3.51   2
  -6  -5 -10   -4.44    5.33   2
  -6  -6  12    7.51    3.46   2
  -6  -6  11    0.79    2.86   2
  -6  -6  11    2.16    2.90   2
  -6  -6  10   -0.20    1.93   2
  -6  -6  10   -0.04    2.96   2
  -6  -6   9   13.95    4.09   2
  -6  -6   9   12.80    3.49   2
  -6  -6   8   -4.30    4.90   2
  -6  -6   7    1.46    2.51   2
  -6  -6   7   15.17    4.73   2
  -6  -6   6    9.67    2.81   2
  -6  -6   6   15.94    5.08   2
  -6  -6   5    5.39    4.39   2
  -6  -6   5    8.24    5.15   2
  -6  -6   4   27.26    5.98   2
  -6  -6   4   33.46    6.90   2
  -6  -6   3    0.93    4.58   2
  -6  -6   3   11.78    5.19   2
  -6  -6   2    3.41    4.48   2
  -6  -6   2    1.43    4.64   2
  -6  -6   0    7.17    5.01   2
  -6  -6   0    0.54    3.08   2
  -6  -6  -1    0.24    2.77   2
  -6  -6  -1   -1.66    2.89   2
  -6  -6  -2    4.30    4.84   2
  -6  -6  -2    2.83    3.24   2
  -6  -6  -3   18.15    5.87   2
  -6  -6  -3   22.66    4.25   2
  -6  -6  -4   -0.67    2.96   2
  -6  -6  -4    3.53    4.79   2
  -6  -6  -5   11.94    5.77   2
  -6  -6  -5    9.60    5.71   2
  -6  -6  -7   -3.22    4.98   2
  -6  -6  -7    3.72    2.96   2
  -6  -6  -8   23.79    4.26   2
  -6  -6  -8   18.70    4.42   2
  -6  -7   9    1.04    2.19   2
  -6  -7   9   -1.77    2.74   2
  -6  -7   7   -1.87    3.80   2
  -6  -7   7    1.44    3.02   2
  -6  -7   6   -4.28    4.35   2
  -6  -7   6   -4.29    2.99   2
  -6  -7   5   10.29    4.99   2
  -6  -7   4   -8.32    4.84   2
  -6  -7   3   -0.24    4.77   2
  -6  -7   3    5.50    3.56   2
  -6  -7   2   17.29    4.80   2
  -6  -7   2    0.42    3.29   2
  -6  -7   0   -1.12    2.89   2
  -6  -7   0    3.29    2.87   2
  -6  -7  -1    6.75    5.17   2
  -6  -7  -1    6.29    3.17   2
  -6  -7  -2    0.61    5.23   2
  -6  -7  -2    4.96    3.19   2
  -6  -7  -3    5.54    3.25   2
  -6  -7  -3    8.85    3.65   2
  -6  -7  -4    1.12    4.91   2
  -6  -7  -5    1.30    3.20   2
  -6  -7  -5   -5.81    4.90   2
  -6  -8   4   -2.82    4.89   2
  -6  -8   4   10.73    5.45   2
  -6  -8   3    8.05    5.04   2
  -6  -8   3    6.10    6.04   2
  -6  -8   1   -2.05    3.01   2
  -6  -8   1    3.56    5.09   2
  -6  -8   0    5.46    4.73   2
  -6  -8   0    1.29    5.16   2
  -6  -8  -1    5.31    5.36   2
  -7  10   4   -2.02    1.77   2
  -7  10   3    7.75    3.32   2
  -7  10   2   -0.08    2.90   2
  -7  10   1   -2.18    2.03   2
  -7  10   0    6.86    3.66   2
  -7  10  -1    5.06    3.94   2
  -7  10  -3   13.54    4.72   2
  -7  10  -4   -1.26    2.52   2
  -7  10  -5    4.86    4.50   2
  -7   9   5    1.23    2.47   2
  -7   9   4    4.35    2.77   2
  -7   9   3   -2.44    2.84   2
  -7   9   2   -1.25    3.01   2
  -7   9   1    3.27    3.14   2
  -7   9   0    3.64    3.48   2
  -7   9  -2    1.76    3.54   2
  -7   9  -3   20.47    4.71   2
  -7   9  -4    0.81    2.46   2
  -7   9  -5    8.72    4.69   2
  -7   9  -6   -0.35    2.64   2
  -7   9  -7   -3.34    4.57   2
  -7   8   5    0.71    2.26   2
  -7   8   4    8.37    2.80   2
  -7   8   3   11.94    2.15   2
  -7   8   2   -1.84    2.88   2
  -7   8   1   26.28    4.28   2
  -7   8   0    3.73    3.26   2
  -7   8  -2   38.23    5.46   2
  -7   8  -3   -3.30    2.45   2
  -7   8  -4    3.28    4.18   2
  -7   8  -5   -5.51    4.13   2
  -7   8  -6    4.38    2.69   2
  -7   8  -7    3.35    4.56   2
  -7   8  -9   12.01    5.05   2
  -7   7   6   -2.00    1.89   2
  -7   7   5    4.20    2.02   2
  -7   7   4    7.99    2.50   2
  -7   7   4   11.91    2.47   2
  -7   7   3    8.25    2.86   2
  -7   7   2    8.55    2.99   2
  -7   7   1    3.70    3.02   2
  -7   7  -2   26.91    3.36   2
  -7   7  -2   31.02    3.25   2
  -7   7  -3    8.01    3.74   2
  -7   7  -3    1.93    3.27   2
  -7   7  -4    1.49    4.01   2
  -7   7  -4   10.14    3.48   2
  -7   7  -5   -2.36    2.48   2
  -7   7  -5    6.00    3.68   2
  -7   7  -6    2.31    4.46   2
  -7   7  -8   12.98    3.69   2
  -7   7  -9   20.75    6.21   2
  -7   7 -10    0.59    3.02   2
  -7   7 -11    8.91    5.41   2
  -7   6   6   -2.16    1.81   2
  -7   6   5   13.53    2.11   2
  -7   6   5   15.57    2.42   2
  -7   6   4   16.47    2.67   2
  -7   6   4   21.12    3.06   2
   7  -6  -3   -0.04    1.90   2
  -7   6   3    1.81    2.23   2
  -7   6   3    0.05    0.68   2
  -7   6   2   46.55    4.18   2
  -7   6   2   37.23    2.32   2
  -7   6   1    3.10    2.78   2
  -7   6   1    9.45    2.01   2
  -7   6  -1   97.67    6.99   2
  -7   6  -1   70.35    4.39   2
  -7   6  -2   -0.69    2.27   2
  -7   6  -2    3.65    2.53   2
  -7   6  -3   18.46    4.79   2
  -7   6  -3   16.44    3.82   2
  -7   6  -4   -3.33    4.20   2
  -7   6  -4   -0.68    3.17   2
  -7   6  -5   10.92    4.92   2
  -7   6  -5   12.82    4.55   2
  -7   6  -6    5.36    3.14   2
  -7   6  -6   14.75    4.79   2
  -7   6  -8   23.27    6.17   2
  -7   6  -9   14.01    3.55   2
  -7   6 -10   16.73    6.17   2
  -7   6 -11    3.02    5.06   2
  -7   5   7    0.71    1.48   2
  -7   5   6    1.82    1.33   2
  -7   5   6    1.18    1.52   2
   7  -5  -5   12.77    1.65   2
  -7   5   5   16.44    2.16   2
  -7   5   5   11.00    1.49   2
   7  -5  -4   16.04    2.05   2
  -7   5   4   24.06    3.24   2
  -7   5   4   14.15    2.03   2
   7  -5  -3   13.56    2.23   2
  -7   5   3   12.15    2.67   2
  -7   5   3   14.41    1.75   2
   7  -5  -2    9.77    2.31   2
  -7   5   2    8.86    2.76   2
  -7   5   2    8.61    2.42   2
  -7   5   1   12.99    2.01   2
  -7   5  -1   55.62    4.00   2
  -7   5  -1   56.25    3.92   2
  -7   5  -2   10.24    2.37   2
  -7   5  -2    0.00    3.26   2
  -7   5  -3   -6.03    3.82   2
  -7   5  -3   -2.57    2.40   2
  -7   5  -4    5.87    4.34   2
  -7   5  -4    7.52    3.78   2
  -7   5  -5   14.45    4.60   2
  -7   5  -5   12.68    4.74   2
  -7   5  -8   18.50    3.66   2
  -7   5  -8   10.90    6.05   2
  -7   5  -9   -4.14    4.65   2
  -7   5  -9    3.10    4.70   2
  -7   5 -10    3.60    5.31   2
  -7   5 -11   10.51    3.85   2
  -7   5 -12   -8.59    5.90   2
   7  -4  -7    2.65    1.60   2
  -7   4   7    0.85    1.18   2
  -7   4   7   -0.53    1.22   2
   7  -4  -6   13.92    1.44   2
   7  -4  -6   15.33    2.48   2
  -7   4   6   14.86    2.12   2
  -7   4   6   14.61    2.09   2
   7  -4  -5   33.11    2.87   2
  -7   4   5   32.26    3.11   2
  -7   4   5   30.56    3.43   2
   7  -4  -4    0.55    1.43   2
  -7   4   4   -0.17    1.90   2
  -7   4   4    1.41    1.75   2
   7  -4  -3   54.10    3.43   2
   7  -4  -3   49.48    3.06   2
  -7   4   3   59.36    4.05   2
  -7   4   3   56.62    3.66   2
   7  -4  -2   12.63    2.34   2
  -7   4   2   14.99    2.85   2
  -7   4   2   11.38    2.37   2
  -7   4   0  130.18    8.51   2
  -7   4   0  134.86    7.25   2
  -7   4  -1   -0.93    3.17   2
  -7   4  -1    2.20    2.46   2
  -7   4  -2   13.17    4.17   2
  -7   4  -2   21.68    3.38   2
  -7   4  -3    7.67    4.14   2
  -7   4  -3   14.72    3.24   2
  -7   4  -4   24.49    5.10   2
  -7   4  -4   30.33    3.08   2
  -7   4  -5   24.00    5.39   2
  -7   4  -7   38.57    6.22   2
  -7   4  -7   29.85    4.57   2
  -7   4  -8   21.03    3.69   2
  -7   4  -8   35.57    6.66   2
  -7   4  -9   14.12    3.73   2
  -7   4  -9   24.40    6.61   2
  -7   4 -10    4.51    5.44   2
  -7   4 -10    8.14    5.59   2
  -7   4 -11   -0.17    5.30   2
  -7   4 -11    6.43    3.50   2
  -7   4 -12    9.65    5.84   2
   7  -3 -10    1.12    1.98   2
   7  -3  -9    2.99    1.96   2
   7  -3  -8    2.84    1.90   2
  -7   3   8   -1.18    1.49   2
   7  -3  -7    1.52    1.13   2
   7  -3  -7    0.13    1.82   2
  -7   3   7    1.21    1.16   2
  -7   3   7    6.12    2.11   2
   7  -3  -6   20.07    1.88   2
   7  -3  -6   17.74    2.67   2
  -7   3   6   24.58    2.22   2
  -7   3   6   20.95    2.95   2
   7  -3  -5   32.50    2.70   2
   7  -3  -5   24.41    3.73   2
  -7   3   5   33.04    3.08   2
  -7   3   5   31.78    3.23   2
   7  -3  -4   21.68    2.00   2
   7  -3  -4   20.45    2.75   2
  -7   3   4   23.84    3.13   2
  -7   3   4   26.96    3.34   2
   7  -3  -3   12.34    2.04   2
   7  -3  -3    9.32    2.27   2
  -7   3   3   13.23    2.70   2
  -7   3   3   13.61    2.82   2
   7  -3  -2    7.65    2.33   2
  -7   3   2   11.68    2.74   2
  -7   3   1    1.10    2.59   2
  -7   3   0   83.20    6.01   2
  -7   3   0   81.39    5.83   2
  -7   3  -1    2.89    3.25   2
  -7   3  -2    1.37    2.05   2
  -7   3  -2   -2.98    2.83   2
  -7   3  -3   21.06    4.48   2
  -7   3  -3   11.38    3.89   2
  -7   3  -4   26.91    5.41   2
  -7   3  -4   28.75    4.84   2
  -7   3  -7   28.49    6.28   2
  -7   3  -8   12.70    5.86   2
  -7   3  -8   18.63    6.02   2
  -7   3  -9    9.76    3.49   2
  -7   3  -9    7.78    3.99   2
  -7   3 -10   16.98    4.22   2
  -7   3 -10   23.35    6.96   2
  -7   3 -11    3.78    3.52   2
  -7   3 -11    2.44    3.67   2
  -7   3 -13   -4.03    5.74   2
   7  -2  -8    2.10    0.78   2
   7  -2  -8    1.44    2.40   2
  -7   2   8    0.05    2.63   2
   7  -2  -7   12.81    1.50   2
   7  -2  -7   11.42    2.89   2
  -7   2   7   15.89    1.87   2
  -7   2   7   16.34    3.21   2
   7  -2  -6   31.44    1.90   2
   7  -2  -6   33.13    3.80   2
  -7   2   6   35.94    2.35   2
   7  -2  -5    7.43    1.49   2
  -7   2   5    8.20    2.52   2
  -7   2   5    7.89    3.06   2
   7  -2  -4   59.27    2.98   2
   7  -2  -4   50.09    4.34   2
  -7   2   4   65.65    3.77   2
  -7   2   4   63.49    5.00   2
   7  -2  -3   19.83    2.25   2
   7  -2  -3   15.92    2.98   2
  -7   2   3   19.02    2.77   2
  -7   2   3   14.32    3.21   2
   7  -2  -1  120.15    6.15   2
  -7   2   1  151.71    8.82   2
   7  -2   0    1.89    2.56   2
  -7   2   0   -2.07    2.84   2
  -7   2   0   -1.09    2.96   2
  -7   2  -1   15.88    2.45   2
  -7   2  -1   19.11    4.04   2
  -7   2  -2   25.05    4.60   2
  -7   2  -2   27.08    2.88   2
  -7   2  -3   49.16    5.85   2
  -7   2  -3   63.42    5.64   2
  -7   2  -4   28.70    5.13   2
  -7   2  -6   43.02    6.54   2
  -7   2  -7   59.34    7.62   2
  -7   2  -7   60.06    8.01   2
  -7   2  -8   14.74    5.83   2
  -7   2  -8   21.81    6.62   2
  -7   2  -9    9.37    5.17   2
  -7   2  -9    8.40    3.69   2
  -7   2 -10    8.43    5.44   2
  -7   2 -10   -1.56    5.86   2
  -7   2 -11    7.54    3.86   2
  -7   2 -13   -2.04    3.43   2
  -7   2 -13   12.54    6.00   2
  -7   1  10    0.34    2.25   2
  -7   1   9    1.32    1.04   2
  -7   1   9    2.92    1.81   2
   7  -1  -8    1.30    0.87   2
  -7   1   8    1.15    1.40   2
  -7   1   8   -2.97    2.97   2
   7  -1  -7   20.08    2.15   2
  -7   1   7   22.11    2.44   2
  -7   1   7   17.21    4.00   2
   7  -1  -6   36.60    2.30   2
  -7   1   6   40.79    3.48   2
  -7   1   6   39.60    4.36   2
   7  -1  -5   23.38    2.26   2
  -7   1   5   24.77    2.56   2
  -7   1   5   25.45    4.09   2
   7  -1  -4   14.51    2.19   2
  -7   1   4   17.28    2.54   2
  -7   1   4   18.71    3.70   2
  -7   1   3    6.93    3.44   2
   7  -1  -1   66.36    5.19   2
  -7   1   1   86.17    5.68   2
  -7   1   1   72.15    4.69   2
  -7   1   0    6.92    3.36   2
  -7   1  -1   -1.72    3.36   2
  -7   1  -1    6.03    3.38   2
  -7   1  -2   35.52    5.04   2
  -7   1  -2   30.56    3.34   2
  -7   1  -3   42.44    5.60   2
  -7   1  -6   28.77    3.85   2
  -7   1  -6   25.91    5.89   2
  -7   1  -7   40.24    6.59   2
  -7   1  -7   33.74    6.88   2
  -7   1  -8   22.02    5.74   2
  -7   1  -8   14.99    3.80   2
  -7   1  -9   28.39    6.30   2
  -7   1  -9   18.59    6.97   2
  -7   1 -10    5.96    5.04   2
  -7   1 -10   -7.44    5.77   2
  -7   1 -13    6.93    3.74   2
  -7   1 -13    2.12    6.30   2
  -7   0  11   -2.71    2.62   2
  -7   0   9    1.11    1.78   2
  -7   0   9    4.31    2.24   2
   7   0  -8    6.65    1.52   2
  -7   0   8    7.47    1.69   2
  -7   0   8    9.33    4.05   2
   7   0  -7   18.49    2.04   2
  -7   0   7   22.84    2.38   2
  -7   0   7   18.12    4.60   2
   7   0  -6   17.94    2.34   2
  -7   0   6   21.42    2.61   2
  -7   0   6   16.64    2.70   2
   7   0  -5   36.00    3.18   2
  -7   0   5   50.58    3.76   2
  -7   0   5   44.24    5.57   2
   7   0  -4   13.79    2.53   2
  -7   0   4    9.59    3.86   2
   7   0  -2   96.82    6.33   2
  -7   0   2  109.81    8.28   2
  -7   0   1    5.29    3.02   2
  -7   0   1   -2.45    3.72   2
  -7   0   0   13.30    3.64   2
  -7   0  -1   37.10    4.92   2
  -7   0  -2   62.25    5.82   2
  -7   0  -2   50.09    4.43   2
  -7   0  -3   29.88    5.35   2
  -7   0  -5   28.61    5.79   2
  -7   0  -6   79.76    5.94   2
  -7   0  -6   83.65    8.89   2
  -7   0  -7   19.26    4.06   2
  -7   0  -7   26.25    6.25   2
  -7   0  -8    8.29    5.59   2
  -7   0  -8    9.50    3.44   2
  -7   0  -9    4.94    5.03   2
  -7   0  -9   -4.00    4.85   2
  -7   0 -10   -2.22    3.43   2
  -7   0 -12   10.58    4.13   2
  -7   0 -13   11.99    7.03   2
  -7  -1  11    3.12    2.85   2
  -7  -1  10   -2.00    3.79   2
  -7  -1   9    0.33    1.69   2
  -7  -1   9    3.38    3.69   2
   7   1  -8    9.79    2.03   2
  -7  -1   8   14.01    3.00   2
  -7  -1   8    7.99    4.49   2
   7   1  -7   25.41    2.81   2
  -7  -1   7   31.80    2.94   2
  -7  -1   7   32.85    4.96   2
   7   1  -6   17.77    2.65   2
  -7  -1   6   25.07    3.07   2
  -7  -1   6   26.00    4.96   2
   7   1  -5   13.69    2.77   2
  -7  -1   5   15.97    3.08   2
  -7  -1   5   14.19    4.80   2
  -7  -1   4    3.56    3.83   2
  -7  -1   3    4.48    2.49   2
  -7  -1   2   45.87    4.71   2
  -7  -1   2   33.11    5.45   2
  -7  -1   1    9.87    3.59   2
  -7  -1   1    9.92    2.89   2
  -7  -1   0   -6.04    3.25   2
  -7  -1   0    6.62    3.72   2
  -7  -1  -1   42.13    5.38   2
  -7  -1  -1   44.70    6.30   2
  -7  -1  -2   33.27    5.25   2
  -7  -1  -2   31.85    3.81   2
  -7  -1  -5   14.67    5.44   2
  -7  -1  -5   18.21    5.55   2
  -7  -1  -6   48.83    7.05   2
  -7  -1  -6   42.38    6.96   2
  -7  -1  -7   13.72    3.42   2
  -7  -1  -7    9.83    3.59   2
  -7  -1  -8    2.32    5.47   2
  -7  -1  -8    6.40    5.36   2
  -7  -1  -9    2.89    5.54   2
  -7  -1 -12   12.81    4.06   2
  -7  -2  12   11.48    3.45   2
  -7  -2  10    0.53    1.92   2
  -7  -2  10    2.43    2.53   2
  -7  -2   9    2.80    2.30   2
  -7  -2   9    7.74    4.09   2
   7   2  -8    6.72    2.30   2
  -7  -2   8    9.02    2.52   2
   7   2  -7   13.27    2.85   2
  -7  -2   7   18.51    2.96   2
  -7  -2   7   22.65    3.05   2
  -7  -2   6   23.82    3.22   2
  -7  -2   6   23.97    5.44   2
  -7  -2   5   12.48    3.28   2
  -7  -2   5   13.43    4.90   2
  -7  -2   3   58.24    5.60   2
  -7  -2   3   54.12    6.85   2
  -7  -2   2    3.28    2.20   2
  -7  -2   2    1.53    2.68   2
  -7  -2   1   -0.33    3.55   2
  -7  -2   1    2.56    4.25   2
  -7  -2   0   36.46    3.53   2
  -7  -2  -1   24.23    3.40   2
  -7  -2  -1   32.47    3.91   2
  -7  -2  -2   33.84    4.11   2
  -7  -2  -4   17.06    3.51   2
  -7  -2  -4   18.20    5.47   2
  -7  -2  -5   85.05    8.29   2
  -7  -2  -5   70.60    8.02   2
  -7  -2  -6   21.89    5.33   2
  -7  -2  -6    8.68    3.66   2
  -7  -2  -7    2.59    3.27   2
  -7  -2  -7    6.64    3.33   2
  -7  -2  -8   -6.41    4.85   2
  -7  -2  -8    6.13    5.36   2
  -7  -2  -9    2.40    5.72   2
  -7  -2 -11    6.51    3.50   2
  -7  -2 -11    2.60    6.02   2
  -7  -3  12    1.77    3.29   2
  -7  -3  11    0.36    3.92   2
  -7  -3  10   -0.15    2.21   2
  -7  -3  10   -3.36    4.41   2
  -7  -3   9    9.18    2.86   2
  -7  -3   9   15.06    4.88   2
  -7  -3   8   22.81    3.60   2
  -7  -3   8   14.15    5.67   2
  -7  -3   7   14.87    3.64   2
  -7  -3   7   24.06    3.32   2
  -7  -3   6    7.52    3.32   2
  -7  -3   6    9.05    4.69   2
  -7  -3   5   -0.74    4.63   2
  -7  -3   4   -2.26    2.77   2
  -7  -3   3   16.51    2.66   2
  -7  -3   3   23.66    5.34   2
  -7  -3   2    9.72    3.86   2
  -7  -3   1    2.75    3.81   2
  -7  -3   1   -2.29    4.22   2
  -7  -3   0   23.91    4.91   2
  -7  -3   0   26.92    4.07   2
  -7  -3  -1   19.87    3.09   2
  -7  -3  -1   18.89    3.77   2
  -7  -3  -3   36.31    7.01   2
  -7  -3  -4    9.55    3.05   2
  -7  -3  -4    4.75    3.33   2
  -7  -3  -5   41.47    6.62   2
  -7  -3  -5   36.78    4.88   2
  -7  -3  -6   12.88    3.31   2
  -7  -3  -6    5.08    3.31   2
  -7  -3  -7    6.20    5.27   2
  -7  -3  -7    4.45    5.59   2
  -7  -3  -8    3.19    5.48   2
  -7  -3 -10   -0.77    5.62   2
  -7  -4  13    1.44    3.07   2
  -7  -4  11   -0.76    4.25   2
  -7  -4  10    3.47    2.70   2
  -7  -4  10    9.49    4.76   2
  -7  -4   9    4.84    2.88   2
  -7  -4   8   18.58    3.67   2
  -7  -4   8   19.66    3.76   2
  -7  -4   7    8.94    3.66   2
  -7  -4   7   17.09    3.12   2
  -7  -4   6    5.22    3.59   2
  -7  -4   6   12.49    4.82   2
  -7  -4   4   11.85    4.58   2
  -7  -4   4   21.61    5.63   2
  -7  -4   3   -2.22    4.57   2
  -7  -4   2   -1.72    3.44   2
  -7  -4   1   31.40    5.28   2
  -7  -4   0   13.89    4.78   2
  -7  -4   0   12.17    5.48   2
  -7  -4  -1   12.37    5.04   2
  -7  -4  -1   12.70    5.85   2
  -7  -4  -3    7.71    4.81   2
  -7  -4  -3   -2.76    4.92   2
  -7  -4  -4   44.19    6.68   2
  -7  -4  -4   36.20    4.98   2
  -7  -4  -5   17.86    5.72   2
  -7  -4  -5   10.59    3.54   2
  -7  -4  -6    5.82    3.22   2
  -7  -4  -6   -0.02    3.30   2
  -7  -4  -7    2.34    5.21   2
  -7  -4  -8   -6.53    5.69   2
  -7  -5  11   -1.09    4.73   2
  -7  -5  10    2.30    2.84   2
  -7  -5  10   -2.48    4.71   2
  -7  -5   9    9.09    3.79   2
  -7  -5   9   16.68    5.51   2
  -7  -5   8    3.90    2.28   2
  -7  -5   8   10.01    5.17   2
  -7  -5   7    2.65    3.61   2
  -7  -5   7   -1.15    2.71   2
  -7  -5   6    1.87    3.03   2
  -7  -5   5    1.59    2.32   2
  -7  -5   5    3.55    3.07   2
  -7  -5   4    4.99    2.49   2
  -7  -5   4   -0.20    5.49   2
  -7  -5   3    4.41    4.16   2
  -7  -5   2    0.26    2.51   2
  -7  -5   2   -3.41    4.61   2
  -7  -5   1    9.16    3.12   2
  -7  -5   1   13.57    5.30   2
  -7  -5   0    8.34    2.85   2
  -7  -5   0   10.77    5.69   2
  -7  -5  -1    7.47    5.35   2
  -7  -5  -2   24.47    5.84   2
  -7  -5  -2   19.89    6.59   2
  -7  -5  -3    6.21    3.26   2
  -7  -5  -4   26.51    6.66   2
  -7  -5  -4   24.33    4.24   2
  -7  -5  -5    7.59    3.39   2
  -7  -5  -5    5.59    3.19   2
  -7  -5  -6   11.05    5.70   2
  -7  -5  -6   17.00    5.70   2
  -7  -5  -7   10.18    3.57   2
  -7  -5  -7    1.23    5.48   2
  -7  -6   8    7.48    3.66   2
  -7  -6   8    3.41    5.33   2
  -7  -6   7    5.54    4.11   2
  -7  -6   7    3.19    4.60   2
  -7  -6   5    6.16    2.67   2
  -7  -6   5    4.64    5.20   2
  -7  -6   4   -3.78    2.29   2
  -7  -6   4    0.38    5.02   2
  -7  -6   3    0.91    2.56   2
  -7  -6   2   14.47    5.23   2
  -7  -6   1    5.51    4.57   2
  -7  -6   1    1.01    4.90   2
  -7  -6   0    7.74    5.35   2
  -7  -6   0   11.68    5.78   2
  -7  -6  -2    3.16    3.01   2
  -7  -6  -3   20.08    6.07   2
  -7  -6  -3   27.69    6.76   2
  -7  -6  -4    3.92    3.28   2
  -7  -6  -4    6.97    3.50   2
  -7  -6  -5   11.70    5.83   2
  -7  -7   2    2.27    4.62   2
  -8   9   3    7.50    3.23   2
  -8   9   2    9.48    3.65   2
  -8   9   1    1.10    3.15   2
  -8   9   0    3.13    3.45   2
  -8   9  -1    0.43    3.52   2
  -8   9  -2    4.18    3.86   2
  -8   9  -4    8.50    4.41   2
  -8   9  -5    6.89    4.51   2
  -8   8   3   26.70    3.87   2
  -8   8   2   -0.14    2.75   2
  -8   8   1    3.94    3.20   2
  -8   8   0    0.25    3.00   2
  -8   8  -1    4.40    3.45   2
  -8   8  -4   -2.23    4.06   2
  -8   8  -5    4.78    4.70   2
  -8   8  -6    9.90    3.31   2
  -8   8  -7   -2.58    4.75   2
  -8   7   4    7.78    2.83   2
  -8   7   3   34.80    4.36   2
  -8   7   2    0.73    3.07   2
  -8   7   1    2.93    3.27   2
  -8   7   0    5.42    3.50   2
  -8   7  -1    1.38    3.60   2
  -8   7  -3    3.05    4.03   2
  -8   7  -4   16.84    3.28   2
  -8   7  -5    7.95    2.97   2
  -8   7  -6   20.38    5.50   2
  -8   7  -7   12.63    5.26   2
  -8   7  -8    0.91    2.91   2
  -8   6   4   56.44    4.36   2
  -8   6   3    1.26    2.30   2
  -8   6   2    7.39    2.78   2
  -8   6   1    4.43    2.85   2
  -8   6   0    1.38    2.83   2
  -8   6  -3   18.11    4.68   2
  -8   6  -3   11.68    3.81   2
  -8   6  -4    4.20    3.81   2
  -8   6  -4    0.46    2.90   2
  -8   6  -5   13.00    4.61   2
  -8   6  -5   10.73    4.55   2
  -8   6  -6    7.74    2.90   2
  -8   6  -6    4.45    4.87   2
  -8   6  -7    9.26    3.12   2
  -8   6  -7   11.99    5.52   2
  -8   6  -8   14.01    6.09   2
  -8   6  -9    4.58    3.86   2
  -8   6 -10    4.62    4.90   2
  -8   6 -10   -7.35    5.51   2
  -8   5   5    5.99    2.00   2
  -8   5   4   51.67    3.79   2
  -8   5   4   42.44    3.11   2
   8  -5  -3    2.77    1.91   2
  -8   5   3   -0.88    2.18   2
  -8   5   2    8.61    2.73   2
  -8   5   2    0.29    2.07   2
  -8   5   1   -1.18    2.71   2
  -8   5   1   -1.14    2.23   2
  -8   5   0    8.52    3.43   2
  -8   5   0    6.62    2.53   2
  -8   5  -2    4.96    3.47   2
  -8   5  -2    2.28    2.54   2
  -8   5  -3   34.00    5.18   2
  -8   5  -3   26.15    3.95   2
  -8   5  -4    8.74    4.33   2
  -8   5  -4    4.23    3.52   2
  -8   5  -5   25.20    5.77   2
  -8   5  -5   34.59    5.35   2
  -8   5  -6    0.69    4.49   2
  -8   5  -6    9.26    4.59   2
  -8   5  -7   -5.15    4.37   2
  -8   5  -7    5.01    4.68   2
  -8   5  -9   -1.76    3.13   2
  -8   5  -9   -4.72    3.48   2
  -8   5 -10   -1.29    5.12   2
  -8   5 -10    4.03    5.47   2
  -8   4   7    1.12    1.85   2
  -8   4   6    7.11    2.18   2
  -8   4   5   91.74    5.74   2
  -8   4   5   87.32    5.14   2
   8  -4  -4    1.04    1.54   2
   8  -4  -4    3.21    2.23   2
  -8   4   4   -0.29    1.94   2
  -8   4   4    0.46    2.23   2
   8  -4  -3   10.76    2.06   2
   8  -4  -3    9.39    2.74   2
  -8   4   3   14.62    2.56   2
  -8   4   3   14.64    3.76   2
  -8   4   2    0.00    1.49   2
  -8   4   1    0.18    2.71   2
  -8   4   1    0.00    2.35   2
  -8   4   0   -1.07    2.62   2
  -8   4  -2   35.38    5.00   2
  -8   4  -2   28.34    4.18   2
  -8   4  -3    7.53    3.97   2
  -8   4  -3    5.40    3.21   2
  -8   4  -4   24.18    4.76   2
  -8   4  -4   20.75    4.39   2
  -8   4  -5    0.01    4.42   2
  -8   4  -5    5.89    4.05   2
  -8   4  -6    5.97    4.85   2
  -8   4  -6    8.56    2.96   2
  -8   4  -9    5.98    5.35   2
  -8   4  -9    5.22    3.78   2
  -8   4 -10   -1.68    4.84   2
  -8   4 -10   -3.52    5.78   2
  -8   4 -11    0.26    3.67   2
  -8   4 -11    5.47    3.80   2
  -8   3   9    0.65    1.70   2
  -8   3   8    6.60    3.41   2
   8  -3  -6    6.44    2.44   2
  -8   3   6    2.01    3.65   2
   8  -3  -5   56.01    3.25   2
   8  -3  -5   44.19    4.36   2
  -8   3   5   70.94    3.84   2
  -8   3   5   63.16    5.32   2
   8  -3  -4    1.53    1.65   2
  -8   3   4    3.08    2.09   2
  -8   3   4    4.99    3.06   2
   8  -3  -3    0.93    2.18   2
  -8   3   3    0.09    2.20   2
  -8   3   3   -2.69    2.73   2
   8  -3  -2    0.72    2.20   2
  -8   3   2    4.11    2.39   2
  -8   3   2   -1.85    2.69   2
  -8   3   1    3.05    3.00   2
  -8   3  -1    8.32    3.70   2
  -8   3  -2   40.91    5.09   2
  -8   3  -2   31.87    4.74   2
  -8   3  -3   -2.23    3.86   2
  -8   3  -4   40.93    5.31   2
  -8   3  -4   42.74    5.30   2
  -8   3  -5   10.79    4.50   2
  -8   3  -5    4.79    2.65   2
  -8   3  -6    1.51    2.77   2
  -8   3  -8   -6.24    5.41   2
  -8   3  -9   -0.82    4.97   2
  -8   3  -9   -0.31    3.61   2
  -8   3 -10   17.02    5.92   2
  -8   3 -10   12.24    7.01   2
  -8   3 -11   11.94    5.89   2
  -8   3 -11   18.99    4.59   2
  -8   2  10    0.12    1.95   2
  -8   2   9   42.03    4.69   2
  -8   2   8   -3.58    2.81   2
  -8   2   6  125.72    5.95   2
  -8   2   6  124.10    8.21   2
   8  -2  -5    0.75    1.96   2
  -8   2   5    2.19    2.24   2
  -8   2   5   -3.51    3.17   2
   8  -2  -4   13.70    2.02   2
  -8   2   4   13.97    2.53   2
  -8   2   4   15.99    3.57   2
   8  -2  -3    2.30    1.73   2
  -8   2   3   -0.33    1.46   2
  -8   2   3    2.71    1.86   2
  -8   2   2    2.94    2.61   2
  -8   2   2   -0.53    2.96   2
  -8   2   1    1.34    3.31   2
  -8   2  -1   38.17    3.64   2
  -8   2  -2   21.89    4.39   2
  -8   2  -3   37.80    5.11   2
  -8   2  -3   29.89    5.32   2
  -8   2  -4   21.80    4.24   2
  -8   2  -4    5.21    2.58   2
  -8   2  -5    1.12    2.57   2
  -8   2  -8   10.14    3.44   2
  -8   2  -8    4.86    5.56   2
  -8   2  -9   -0.94    3.25   2
  -8   2  -9   -2.76    3.37   2
  -8   2 -10   -4.88    3.12   2
  -8   2 -10   16.56    5.90   2
  -8   2 -11    6.27    3.37   2
  -8   2 -11   -5.28    3.83   2
  -8   1  11   -1.37    2.39   2
  -8   1  10    6.09    3.64   2
  -8   1   9   10.66    2.58   2
  -8   1   7    0.13    1.54   2
  -8   1   7    3.25    3.48   2
  -8   1   6   67.12    4.92   2
  -8   1   6   68.89    4.79   2
   8  -1  -5   -0.30    2.31   2
  -8   1   5    3.08    2.14   2
   8  -1  -4   -0.14    2.03   2
  -8   1   4   -3.82    2.20   2
  -8   1   3   -1.59    2.61   2
  -8   1   3    8.98    2.26   2
  -8   1   2    2.59    3.42   2
  -8   1   0   18.36    4.44   2
  -8   1  -1   48.42    3.57   2
  -8   1  -1   32.76    5.80   2
  -8   1  -2   -6.85    3.93   2
  -8   1  -2   -5.97    4.28   2
  -8   1  -3   40.01    3.98   2
  -8   1  -3   39.25    3.73   2
  -8   1  -4   22.36    5.00   2
  -8   1  -4   11.75    3.05   2
  -8   1  -5    1.47    2.56   2
  -8   1  -7    1.77    4.98   2
  -8   1  -8    2.19    4.62   2
  -8   1  -8    9.95    5.45   2
  -8   1  -9   29.73    6.29   2
  -8   1  -9   18.44    4.68   2
  -8   1 -10   18.15    6.55   2
  -8   1 -10   19.88    6.83   2
  -8   1 -11    9.58    4.14   2
  -8   0  11    0.99    4.29   2
  -8   0  10   30.67    5.42   2
  -8   0   9    6.18    2.48   2
  -8   0   7   90.37    4.87   2
  -8   0   7   90.18    7.39   2
  -8   0   6    1.10    1.99   2
  -8   0   6   -0.98    3.69   2
   8   0  -5    4.37    2.29   2
  -8   0   5   11.00    2.51   2
  -8   0   5   11.02    2.80   2
  -8   0   4    2.74    2.50   2
  -8   0   3    4.28    2.80   2
  -8   0   3    0.61    2.35   2
  -8   0   2    0.60    3.75   2
  -8   0   0   35.97    5.22   2
  -8   0   0   46.92    6.23   2
  -8   0  -1   33.67    4.90   2
  -8   0  -2   32.67    5.01   2
  -8   0  -2   14.16    4.95   2
  -8   0  -3    8.85    4.57   2
  -8   0  -4    1.12    2.46   2
  -8   0  -7    6.13    3.21   2
  -8   0  -8   -8.42    5.20   2
  -8   0  -8   -5.28    5.78   2
  -8   0  -9    4.62    5.71   2
  -8   0  -9    7.45    3.79   2
  -8   0 -10   -2.99    5.99   2
  -8  -1  12    5.13    3.25   2
  -8  -1  11    3.30    2.55   2
  -8  -1  10   10.33    4.72   2
  -8  -1   8   -1.64    1.95   2
  -8  -1   8    2.66    4.09   2
  -8  -1   7   38.34    3.38   2
  -8  -1   7   41.68    5.67   2
  -8  -1   6    0.57    2.25   2
  -8  -1   5    2.43    2.53   2
  -8  -1   5   -2.27    2.47   2
  -8  -1   4   11.85    3.12   2
  -8  -1   4    5.20    4.30   2
  -8  -1   3    6.62    3.17   2
  -8  -1   3    1.46    3.87   2
  -8  -1   1   14.39    4.00   2
  -8  -1   1   10.53    4.94   2
  -8  -1   0   36.75    5.01   2
  -8  -1   0   30.93    6.16   2
  -8  -1  -1   -0.51    3.75   2
  -8  -1  -2   25.42    5.09   2
  -8  -1  -3    9.54    4.70   2
  -8  -1  -4    2.96    3.84   2
  -8  -1  -4   -1.30    2.85   2
  -8  -1  -6    0.41    2.89   2
  -8  -1  -6    1.30    2.90   2
  -8  -1  -7   -2.08    5.15   2
  -8  -1  -7    7.13    5.01   2
  -8  -1  -8   31.97    6.56   2
  -8  -1  -8   21.15    6.83   2
  -8  -1  -9   20.81    6.37   2
  -8  -1  -9   16.37    4.48   2
  -8  -1 -10    1.37    5.37   2
  -8  -1 -10    0.95    5.84   2
  -8  -2  13    5.66    3.25   2
  -8  -2  12   10.06    5.30   2
  -8  -2  11   19.17    5.20   2
  -8  -2  10    4.51    4.30   2
  -8  -2   8   50.60    4.51   2
  -8  -2   8   59.27    5.20   2
  -8  -2   7    1.86    2.55   2
  -8  -2   7    0.26    3.90   2
  -8  -2   6    7.32    3.04   2
  -8  -2   6    6.01    4.48   2
  -8  -2   5   11.29    3.24   2
  -8  -2   5    5.18    2.96   2
  -8  -2   4   10.85    3.05   2
  -8  -2   4    5.21    4.44   2
  -8  -2   3    4.53    4.52   2
  -8  -2   1   24.54    3.29   2
  -8  -2   1   30.02    3.96   2
  -8  -2   0   25.82    4.90   2
  -8  -2   0   27.58    3.73   2
  -8  -2  -1   22.21    5.19   2
  -8  -2  -1   24.53    6.12   2
  -8  -2  -2    7.13    4.60   2
  -8  -2  -3   -2.09    2.51   2
  -8  -2  -3    7.87    4.70   2
  -8  -2  -6    8.03    5.06   2
  -8  -2  -6    6.21    3.37   2
  -8  -2  -7    7.76    5.67   2
  -8  -2  -8    5.20    5.23   2
  -8  -2  -8    1.33    5.30   2
  -8  -2  -9   -5.19    3.13   2
  -8  -2  -9    3.76    3.31   2
  -8  -3  11   -2.11    4.51   2
  -8  -3   9    5.85    3.02   2
  -8  -3   8   18.02    3.46   2
  -8  -3   8   21.97    5.70   2
  -8  -3   7    3.49    2.83   2
  -8  -3   7   -3.12    3.90   2
  -8  -3   6    1.11    2.92   2
  -8  -3   6   -0.24    4.36   2
  -8  -3   5    1.89    3.12   2
  -8  -3   5    1.52    4.90   2
  -8  -3   4    0.33    1.88   2
  -8  -3   4   -1.11    2.66   2
  -8  -3   2   18.03    4.24   2
  -8  -3   2    4.12    5.27   2
  -8  -3   1   11.83    4.14   2
  -8  -3   1    7.75    4.94   2
  -8  -3   0   11.84    2.66   2
  -8  -3   0    5.54    5.52   2
  -8  -3  -1   16.99    4.98   2
  -8  -3  -2    2.90    4.46   2
  -8  -3  -2    9.89    5.21   2
  -8  -3  -3    0.84    2.90   2
  -8  -3  -3    0.09    4.74   2
  -8  -3  -5    2.90    3.07   2
  -8  -3  -5    2.68    2.96   2
  -8  -3  -6   12.87    5.10   2
  -8  -3  -6    2.25    3.29   2
  -8  -3  -7   15.36    3.83   2
  -8  -3  -7   21.53    6.35   2
  -8  -4  10    3.35    2.98   2
  -8  -4   9   18.60    3.93   2
  -8  -4   8    2.26    2.74   2
  -8  -4   8    2.29    4.85   2
  -8  -4   7    4.66    2.11   2
  -8  -4   7    7.30    4.39   2
  -8  -4   6    3.95    3.46   2
  -8  -4   6    9.97    5.03   2
  -8  -4   5    1.73    3.36   2
  -8  -4   5    4.57    5.29   2
  -8  -4   4    3.00    4.95   2
  -8  -4   3    3.98    4.63   2
  -8  -4   2   13.26    4.30   2
  -8  -4   2    4.65    5.44   2
  -8  -4   1   21.18    5.25   2
  -8  -4   0    5.68    4.40   2
  -8  -4   0    8.46    5.48   2
  -8  -4  -1    2.92    2.90   2
  -8  -4  -1    7.46    5.53   2
  -8  -4  -2   -6.11    4.29   2
  -8  -4  -2    0.68    5.07   2
  -8  -4  -4    3.81    5.26   2
  -8  -4  -5    3.41    4.78   2
  -8  -4  -5    2.57    3.36   2
  -8  -5   7    3.01    2.08   2
  -8  -5   7   -4.24    2.77   2
  -8  -5   6    1.99    3.55   2
  -8  -5   6    2.87    3.06   2
  -8  -5   5    6.46    3.57   2
  -8  -5   5   -0.95    3.09   2
  -8  -5   3    6.42    4.07   2
  -8  -5   3    2.10    5.27   2
  -8  -5   2    5.72    4.44   2
  -8  -5   2    3.22    5.03   2
  -8  -5   1    8.42    3.03   2
  -8  -5   0    6.84    2.90   2
  -8  -5  -1    6.92    4.67   2
  -8  -5  -1    6.06    3.28   2
  -8  -5  -2   -1.35    4.47   2
  -8  -5  -2    4.74    3.35   2
  -9   8   2    7.03    3.26   2
  -9   8   1    6.87    3.43   2
  -9   8   0    2.65    3.41   2
  -9   8  -1   -0.72    3.46   2
  -9   8  -2   -0.43    3.70   2
  -9   8  -3    5.50    4.11   2
  -9   7   2    5.12    2.98   2
  -9   7   1    5.55    2.08   2
  -9   7   0    0.35    3.11   2
  -9   7  -1   11.23    3.81   2
  -9   7  -2   -0.56    3.47   2
  -9   7  -5    1.62    2.60   2
  -9   6   3    4.65    2.81   2
  -9   6   2    3.19    2.94   2
  -9   6   1    0.83    1.74   2
  -9   6   0    1.01    3.14   2
  -9   6  -1    0.24    3.39   2
  -9   6  -2   12.98    4.41   2
  -9   6  -4   10.50    4.65   2
  -9   6  -5   10.45    4.58   2
  -9   6  -6    5.71    4.48   2
  -9   6  -7    7.41    4.98   2
  -9   5   3    1.75    2.50   2
  -9   5   2   13.50    3.35   2
  -9   5   1    4.67    3.13   2
  -9   5   0   22.73    3.96   2
  -9   5  -1    5.24    3.53   2
  -9   5  -2    7.23    2.88   2
  -9   5  -4    2.13    4.13   2
  -9   5  -4    4.23    3.20   2
  -9   5  -5    0.28    4.34   2
  -9   5  -5    5.68    3.62   2
  -9   5  -6   -0.17    4.64   2
  -9   5  -6   -5.87    4.44   2
  -9   5  -7   -4.83    4.18   2
  -9   5  -7    0.26    4.79   2
  -9   4   4    7.33    3.26   2
  -9   4   3   10.81    2.69   2
  -9   4   3   11.80    3.26   2
  -9   4   2    3.83    2.69   2
  -9   4   1    8.48    3.30   2
  -9   4   1    7.13    3.19   2
  -9   4   0   11.37    3.51   2
  -9   4  -1   17.45    4.25   2
  -9   4  -1   14.96    3.64   2
  -9   4  -3   10.48    3.81   2
  -9   4  -4    5.27    2.44   2
  -9   4  -4    5.65    3.49   2
  -9   4  -5    7.27    2.78   2
  -9   4  -5   -1.54    4.08   2
  -9   4  -6   -2.25    2.55   2
  -9   4  -6    0.10    4.38   2
  -9   4  -7    0.97    2.77   2
  -9   4  -7    6.01    4.92   2
  -9   4  -8    5.23    5.34   2
  -9   3   8    0.06    2.73   2
  -9   3   7    1.84    2.91   2
  -9   3   6   25.58    3.82   2
  -9   3   4    5.42    2.16   2
  -9   3   4    2.67    3.36   2
  -9   3   3   32.26    3.54   2
  -9   3   2    0.91    2.83   2
  -9   3   2    3.50    3.14   2
  -9   3   1   28.75    2.76   2
  -9   3   1   26.43    2.93   2
  -9   3   0    3.23    3.18   2
  -9   3  -1    3.94    3.62   2
  -9   3  -3   10.02    2.37   2
  -9   3  -4   -0.40    2.34   2
  -9   3  -4    0.52    3.45   2
  -9   3  -5    5.19    4.28   2
  -9   3  -5   -1.28    4.00   2
  -9   3  -6   -5.16    4.11   2
  -9   3  -6    1.61    2.78   2
  -9   3  -7    0.03    4.57   2
  -9   2  10    6.18    4.07   2
  -9   2   9    4.43    3.64   2
  -9   2   8    0.33    3.06   2
  -9   2   7    3.16    2.25   2
  -9   2   5    4.18    3.77   2
  -9   2   4   13.57    2.67   2
  -9   2   3    1.62    2.60   2
  -9   2   2    5.82    3.15   2
  -9   2   2   14.80    3.90   2
  -9   2   1   -1.53    3.09   2
  -9   2   1    6.07    3.78   2
  -9   2   0   22.05    4.63   2
  -9   2  -2   22.31    3.34   2
  -9   2  -3   12.03    4.25   2
  -9   2  -3    0.33    4.14   2
  -9   2  -4   -3.06    2.44   2
  -9   2  -4    3.24    3.66   2
  -9   2  -5    4.31    4.13   2
  -9   2  -5    0.94    4.06   2
  -9   2  -6    0.76    4.39   2
  -9   2  -7    1.65    3.07   2
  -9   1  11   14.33    3.38   2
  -9   1  10    7.48    3.58   2
  -9   1   9   -1.11    3.53   2
  -9   1   8    1.83    3.63   2
  -9   1   7   20.08    4.43   2
  -9   1   5   -0.01    2.18   2
  -9   1   5   -3.06    3.92   2
  -9   1   4   31.38    3.71   2
  -9   1   4   33.46    4.99   2
  -9   1   3    3.18    2.83   2
  -9   1   3    5.95    3.67   2
  -9   1   2   33.92    4.22   2
  -9   1   1    7.58    3.40   2
  -9   1   1    6.25    4.20   2
  -9   1   0   -1.86    2.44   2
  -9   1  -2   -0.47    3.89   2
  -9   1  -3   -2.33    3.89   2
  -9   1  -4   12.59    2.99   2
  -9   1  -4    6.81    4.47   2
  -9   1  -5    1.84    4.36   2
  -9   1  -5    2.56    4.40   2
  -9   1  -6   -3.23    4.60   2
  -9   0  11    1.04    4.06   2
  -9   0  10    3.30    4.24   2
  -9   0   9   -3.65    3.91   2
  -9   0   8   -0.27    3.85   2
  -9   0   6   -6.07    4.00   2
  -9   0   5   15.98    2.95   2
  -9   0   5   13.87    3.16   2
  -9   0   4    1.07    1.67   2
  -9   0   4    1.02    3.80   2
  -9   0   3    5.22    3.15   2
  -9   0   3    7.74    4.28   2
  -9   0   2    4.47    3.11   2
  -9   0   2    2.97    2.64   2
  -9   0   1   11.26    3.86   2
  -9   0   1    9.15    4.62   2
  -9   0  -1   20.22    5.09   2
  -9   0  -2    4.77    3.83   2
  -9   0  -2    2.91    4.47   2
  -9   0  -3    5.18    4.22   2
  -9   0  -3    4.26    4.07   2
  -9   0  -4   -3.53    4.26   2
  -9   0  -4   -8.79    4.72   2
  -9   0  -5    2.31    4.33   2
  -9   0  -6    6.62    5.35   2
  -9  -1  10   -0.42    4.06   2
  -9  -1   9    0.04    2.64   2
  -9  -1   8    7.53    4.71   2
  -9  -1   6    3.04    2.46   2
  -9  -1   6   -5.92    4.06   2
  -9  -1   5   23.08    3.48   2
  -9  -1   5   27.31    3.84   2
  -9  -1   4    2.29    2.62   2
  -9  -1   4   -4.62    3.93   2
  -9  -1   3   16.76    3.78   2
  -9  -1   2    2.68    3.47   2
  -9  -1   2    6.32    4.47   2
  -9  -1   1    3.04    2.82   2
  -9  -1  -1    3.87    3.79   2
  -9  -1  -1    1.65    2.89   2
  -9  -1  -2   -1.27    3.61   2
  -9  -1  -2    0.65    2.53   2
  -9  -1  -3    6.56    2.82   2
  -9  -1  -3    6.69    3.18   2
  -9  -1  -4    4.03    4.19   2
  -9  -1  -4    0.37    2.86   2
  -9  -1  -5    4.43    3.33   2
  -9  -2   9    3.90    4.30   2
  -9  -2   7    5.31    4.40   2
  -9  -2   6    5.82    2.81   2
  -9  -2   6    8.27    4.71   2
  -9  -2   5    5.21    3.03   2
  -9  -2   4   13.07    3.35   2
  -9  -2   3    6.30    3.54   2
  -9  -2   3    7.47    4.66   2
  -9  -2   2   -2.28    3.49   2
  -9  -2   2    1.12    4.31   2
  -9  -2   0   12.88    4.43   2
  -9  -2   0   12.94    5.53   2
  -9  -2  -1    9.54    2.80   2
  -9  -2  -2    6.19    4.23   2
  -9  -2  -2    0.58    4.76   2
  -9  -2  -3   -3.82    4.40   2
  -9  -2  -3   -3.51    4.51   2
  -9  -2  -4   -0.95    4.18   2
  -9  -2  -5    6.61    3.29   2
  -9  -3   7    5.74    4.68   2
  -9  -3   6   12.66    3.59   2
  -9  -3   6   13.45    5.38   2
  -9  -3   5   -1.72    3.15   2
  -9  -3   5   -6.70    4.91   2
  -9  -3   4    8.85    2.51   2
  -9  -3   4   11.98    5.20   2
  -9  -3   3   -1.06    3.45   2
  -9  -3   3    3.38    2.87   2
  -9  -3   2   -2.65    2.98   2
  -9  -3   0    0.80    3.92   2
  -9  -3   0   -2.69    2.96   2
  -9  -3  -1    6.90    4.30   2
  -9  -3  -2    7.32    3.00   2
  -9  -3  -2   10.92    5.69   2
  -9  -3  -3    0.42    4.40   2
 -10   6   1   11.38    3.45   2
 -10   6   0    9.38    2.22   2
 -10   6  -1   -0.58    3.27   2
 -10   5   1    8.46    3.32   2
 -10   5   0    0.88    3.09   2
 -10   5  -1    4.72    3.48   2
 -10   5  -2   13.71    4.02   2
 -10   5  -3    1.96    3.65   2
 -10   4   2   15.55    3.52   2
 -10   4   1    6.22    3.05   2
 -10   4   0   -2.82    1.92   2
 -10   4  -1   -1.53    3.22   2
 -10   4  -2   16.25    4.22   2
 -10   4  -2    6.96    3.66   2
 -10   4  -3   -7.50    3.59   2
 -10   3   3   22.62    4.44   2
 -10   3   2   13.03    3.15   2
 -10   3   2    6.02    4.00   2
 -10   3   1   -0.75    2.95   2
 -10   3   1   -2.48    3.31   2
 -10   3   0   -0.59    1.96   2
 -10   3   0   -3.44    3.16   2
 -10   3  -1    6.04    3.70   2
 -10   3  -2    0.51    3.47   2
 -10   3  -4   14.31    4.28   2
 -10   2   7   -0.58    3.59   2
 -10   2   6    2.10    3.72   2
 -10   2   5    8.88    4.32   2
 -10   2   3   26.45    3.64   2
 -10   2   3   16.69    4.52   2
 -10   2   2    8.01    2.90   2
 -10   2   1    0.72    3.05   2
 -10   2   1    1.66    3.61   2
 -10   2   0   -2.55    2.15   2
 -10   2  -1    4.83    3.81   2
 -10   2  -2    5.15    4.15   2
 -10   2  -4   17.68    3.43   2
 -10   1   8   -4.15    4.07   2
 -10   1   7    2.30    3.63   2
 -10   1   6    5.49    3.70   2
 -10   1   4   30.13    3.80   2
 -10   1   3    7.98    3.17   2
 -10   1   3   11.18    4.23   2
 -10   1   2   -0.38    2.70   2
 -10   1   1    2.54    3.09   2
 -10   1   1    2.17    2.42   2
 -10   1   0    3.31    2.19   2
 -10   1  -1    2.76    4.15   2
 -10   1  -3   27.42    5.91   2
 -10   0   7    0.20    3.53   2
 -10   0   6    1.28    4.25   2
 -10   0   4   15.05    3.14   2
 -10   0   3    5.46    3.15   2
 -10   0   3   11.22    4.39   2
 -10   0   2    0.89    2.98   2
 -10   0   2   -0.22    3.89   2
 -10   0   1    0.36    3.20   2
 -10   0   0    3.35    4.58   2
 -10   0  -1    0.13    4.15   2
 -10  -1   4    7.98    2.99   2
 -10  -1   3    1.01    2.93   2
 -10  -1   2   -5.47    3.15   2
 -10  -1   2   -0.23    4.12   2
 -10  -1   1    6.02    3.72   2
 -10  -1   1    2.90    4.67   2
 -10  -1   0    2.99    4.35   2
   0   0   0    0.00    0.00   0
;
_shelx_hkl_checksum              11977
loop_
_space_group_symop_operation_xyz
'x, y, z'
'-x, -y, -z'
loop_
_atom_site_label
_atom_site_type_symbol
_atom_site_fract_x
_atom_site_fract_y
_atom_site_fract_z
_atom_site_U_iso_or_equiv
_atom_site_adp_type
_atom_site_occupancy
_atom_site_site_symmetry_order
_atom_site_calc_flag
_atom_site_refinement_flags_posn
_atom_site_refinement_flags_adp
_atom_site_refinement_flags_occupancy
Pd01 Pd -0.5000 0.5000 0.0000 0.0187(2) Uani 1 2 d S . P
S002 S -0.2399(3) 0.1893(3) 0.41915(16) 0.0243(4) Uani 1 1 d . . .
S003 S -0.8476(3) 0.4432(3) -0.09089(15) 0.0221(4) Uani 1 1 d . . .
S004 S 0.0241(3) 0.6732(3) 0.32896(15) 0.0233(4) Uani 1 1 d . . .
S005 S 0.1950(3) 0.1872(3) 0.35828(15) 0.0247(4) Uani 1 1 d . . .
S006 S -0.6290(3) 0.5604(3) 0.16325(15) 0.0232(4) Uani 1 1 d . . .
S007 S -0.4045(3) 0.6763(3) 0.39163(15) 0.0235(4) Uani 1 1 d . . .
C010 C 0.0378(12) 0.2252(11) 0.4614(6) 0.0220(14) Uiso 1 1 d . . .
C011 C -0.0214(12) 0.1320(11) 0.2545(7) 0.0228(14) Uiso 1 1 d . . .
C012 C -0.1282(11) 0.7165(10) 0.4323(6) 0.0186(13) Uiso 1 1 d . . .
C013 C -0.2191(12) 0.1329(11) 0.2814(6) 0.0228(14) Uiso 1 1 d . . .
C014 C -0.3927(12) 0.6158(11) 0.2538(6) 0.0219(14) Uiso 1 1 d . . .
C015 C -0.2646(13) 0.0466(12) 0.0896(7) 0.0271(15) Uiso 1 1 d . . .
H01A H -0.2827 0.1325 0.0283 0.032 Uiso 1 1 calc R U .
H01B H -0.3209 -0.0845 0.0600 0.032 Uiso 1 1 calc R U .
C016 C -0.3934(12) 0.0838(11) 0.1857(7) 0.0253(15) Uiso 1 1 d . . .
H01C H -0.4636 0.1892 0.1694 0.030 Uiso 1 1 calc R U .
H01D H -0.5056 -0.0298 0.2000 0.030 Uiso 1 1 calc R U .
C017 C -0.1917(11) 0.6135(10) 0.2241(6) 0.0200(13) Uiso 1 1 d . . .
C018 C -0.0214(13) 0.0794(12) 0.1344(7) 0.0262(15) Uiso 1 1 d . . .
H01E H 0.0314 -0.0364 0.1264 0.031 Uiso 1 1 calc R U .
H01F H 0.0693 0.1824 0.0957 0.031 Uiso 1 1 calc R U .
loop_
_atom_site_aniso_label
_atom_site_aniso_U_11
_atom_site_aniso_U_22
_atom_site_aniso_U_33
_atom_site_aniso_U_23
_atom_site_aniso_U_13
_atom_site_aniso_U_12
Pd01 0.0160(3) 0.0268(4) 0.0107(3) -0.0039(3) -0.0054(2) 0.0031(3)
S002 0.0174(8) 0.0391(11) 0.0152(8) -0.0056(8) -0.0048(6) 0.0077(8)
S003 0.0175(7) 0.0339(10) 0.0131(8) -0.0058(7) -0.0045(6) 0.0057(7)
S004 0.0166(7) 0.0374(11) 0.0140(8) -0.0065(7) -0.0050(6) 0.0060(8)
S005 0.0166(8) 0.0408(11) 0.0137(8) -0.0061(8) -0.0041(6) 0.0040(8)
S006 0.0161(7) 0.0369(11) 0.0136(8) -0.0050(7) -0.0047(6) 0.0038(7)
S007 0.0160(7) 0.0392(11) 0.0131(8) -0.0059(7) -0.0043(6) 0.0052(8)
loop_
_atom_type_symbol
_atom_type_description
_atom_type_scat_dispersion_real
_atom_type_scat_dispersion_imag
_atom_type_scat_source
C C -0.0001 0.0005 'International Tables Vol C Tables 4.2.6.8 and 6.1.1.4'
H H 0.0000 0.0000 'International Tables Vol C Tables 4.2.6.8 and 6.1.1.4'
S S 0.0444 0.0408 'International Tables Vol C Tables 4.2.6.8 and 6.1.1.4'
Pd Pd -0.5291 2.5715 'International Tables Vol C Tables 4.2.6.8 and 6.1.1.4'
loop_
_geom_angle_atom_site_label_1
_geom_angle_atom_site_label_2
_geom_angle_atom_site_label_3
_geom_angle
_geom_angle_site_symmetry_1
_geom_angle_site_symmetry_3
S003 Pd01 S003 180.0 2_465 .
S003 Pd01 S006 89.85(6) 2_465 2_465
S003 Pd01 S006 90.15(6) . 2_465
S003 Pd01 S006 90.15(6) 2_465 .
S003 Pd01 S006 89.85(6) . .
S006 Pd01 S006 180.0 2_465 .
C010 S002 C013 94.4(4) . .
C017 S003 Pd01 102.0(3) 2_465 .
C012 S004 C017 96.1(3) . .
C011 S005 C010 94.6(4) . .
C014 S006 Pd01 101.4(2) . .
C012 S007 C014 96.0(3) . .
C012 C010 S002 122.5(5) 2_566 .
C012 C010 S005 121.9(6) 2_566 .
S002 C010 S005 115.5(4) . .
C013 C011 C018 113.2(7) . .
C013 C011 S005 118.0(6) . .
C018 C011 S005 128.8(6) . .
C010 C012 S007 122.4(5) 2_566 .
C010 C012 S004 122.8(6) 2_566 .
S007 C012 S004 114.8(4) . .
C011 C013 C016 113.5(7) . .
C011 C013 S002 117.4(6) . .
C016 C013 S002 129.0(5) . .
C017 C014 S006 123.9(6) . .
C017 C014 S007 116.8(6) . .
S006 C014 S007 119.3(4) . .
C016 C015 C018 109.1(7) . .
C013 C016 C015 102.1(6) . .
C014 C017 S003 122.5(6) . 2_465
C014 C017 S004 116.2(6) . .
S003 C017 S004 121.3(4) 2_465 .
C011 C018 C015 102.0(6) . .
loop_
_geom_bond_atom_site_label_1
_geom_bond_atom_site_label_2
_geom_bond_distance
_geom_bond_site_symmetry_2
Pd01 S003 2.3028(18) 2_465
Pd01 S003 2.3029(18) .
Pd01 S006 2.2969(17) 2_465
Pd01 S006 2.2969(17) .
S002 C010 1.743(8) .
S002 C013 1.738(8) .
S003 C017 1.718(7) 2_465
S004 C012 1.734(7) .
S004 C017 1.734(8) .
S005 C011 1.727(8) .
S005 C010 1.741(7) .
S006 C014 1.723(8) .
S007 C012 1.729(7) .
S007 C014 1.734(8) .
C010 C012 1.370(11) 2_566
C011 C013 1.336(10) .
C011 C018 1.498(11) .
C012 C010 1.370(11) 2_566
C013 C016 1.490(12) .
C014 C017 1.371(9) .
C015 C016 1.551(10) .
C015 C018 1.545(11) .
C017 S003 1.718(7) 2_465
