#------------------------------------------------------------------------------
#$Date: 2019-11-23 09:24:09 +0200 (Sat, 23 Nov 2019) $
#$Revision: 232711 $
#$URL: file:///home/coder/svn-repositories/cod/cif/4/34/80/4348058.cif $
#------------------------------------------------------------------------------
#
# This file is available in the Crystallography Open Database (COD),
# http://www.crystallography.net/
#
# All data on this site have been placed in the public domain by the
# contributors.
#
data_4348058
loop_
_publ_author_name
'Mandal, Soham'
'Wang, Can'
'Prajapati, Rajneesh K.'
'K\"osters, Jutta'
'Verma, Sandeep'
'Chi, Lifeng'
'M\"uller, Jens'
_publ_section_title
;
 Metal-Mediated Assembly of 1,N(6)-Ethenoadenine: From Surfaces to DNA
 Duplexes.
;
_journal_issue                   14
_journal_name_full               'Inorganic chemistry'
_journal_page_first              7041
_journal_page_last               7050
_journal_paper_doi               10.1021/acs.inorgchem.6b00927
_journal_volume                  55
_journal_year                    2016
_chemical_formula_sum            'C20 H28 Cu2 N12 O14'
_chemical_formula_weight         787.62
_space_group_crystal_system      triclinic
_space_group_IT_number           2
_space_group_name_Hall           '-P 1'
_space_group_name_H-M_alt        'P -1'
_atom_sites_solution_hydrogens   mixed
_audit_creation_method           SHELXL-2014/7
_cell_angle_alpha                104.1619(12)
_cell_angle_beta                 103.0423(13)
_cell_angle_gamma                99.0491(12)
_cell_formula_units_Z            1
_cell_length_a                   7.3996(3)
_cell_length_b                   8.9100(4)
_cell_length_c                   11.8127(5)
_cell_measurement_reflns_used    8265
_cell_measurement_temperature    173(2)
_cell_measurement_theta_max      30.073
_cell_measurement_theta_min      2.42
_cell_volume                     716.81(5)
_computing_cell_refinement       'Bruker SAINT'
_computing_data_collection       'Bruker APEX2'
_computing_data_reduction        'Bruker SAINT'
_computing_molecular_graphics    'Bruker SHELXTL'
_computing_publication_material  'Bruker SHELXTL'
_computing_structure_refinement  'SHELXL-2014 (Sheldrick 2014)'
_computing_structure_solution    'SHELXS-97 (Sheldrick 2008)'
_diffrn_ambient_temperature      173(2)
_diffrn_measured_fraction_theta_full 0.978
_diffrn_measured_fraction_theta_max 0.984
_diffrn_measurement_device_type  'Photon 100 CMOS-detector'
_diffrn_measurement_method       'omega scan'
_diffrn_radiation_type           MoK\a
_diffrn_radiation_wavelength     0.71073
_diffrn_reflns_av_R_equivalents  0.0172
_diffrn_reflns_av_unetI/netI     0.0205
_diffrn_reflns_Laue_measured_fraction_full 0.978
_diffrn_reflns_Laue_measured_fraction_max 0.984
_diffrn_reflns_limit_h_max       9
_diffrn_reflns_limit_h_min       -9
_diffrn_reflns_limit_k_max       11
_diffrn_reflns_limit_k_min       -11
_diffrn_reflns_limit_l_max       15
_diffrn_reflns_limit_l_min       -15
_diffrn_reflns_number            9821
_diffrn_reflns_point_group_measured_fraction_full 0.978
_diffrn_reflns_point_group_measured_fraction_max 0.984
_diffrn_reflns_theta_full        25.242
_diffrn_reflns_theta_max         28.272
_diffrn_reflns_theta_min         2.583
_diffrn_source                   Microfocus
_exptl_absorpt_coefficient_mu    1.576
_exptl_absorpt_correction_T_max  0.7460
_exptl_absorpt_correction_T_min  0.6830
_exptl_absorpt_correction_type   multi-scan
_exptl_absorpt_process_details   'SADABS V2008/1 (Bruker AXS)'
_exptl_crystal_colour            green
_exptl_crystal_density_diffrn    1.825
_exptl_crystal_description       block
_exptl_crystal_F_000             402
_exptl_crystal_size_max          0.110
_exptl_crystal_size_mid          0.050
_exptl_crystal_size_min          0.050
_refine_diff_density_max         0.448
_refine_diff_density_min         -0.289
_refine_diff_density_rms         0.075
_refine_ls_extinction_method     none
_refine_ls_goodness_of_fit_ref   1.075
_refine_ls_hydrogen_treatment    mixed
_refine_ls_matrix_type           full
_refine_ls_number_parameters     238
_refine_ls_number_reflns         3494
_refine_ls_number_restraints     0
_refine_ls_restrained_S_all      1.075
_refine_ls_R_factor_all          0.0343
_refine_ls_R_factor_gt           0.0296
_refine_ls_shift/su_max          0.001
_refine_ls_shift/su_mean         0.000
_refine_ls_structure_factor_coef Fsqd
_refine_ls_weighting_details
'w=1/[\s^2^(Fo^2^)+(0.0446P)^2^+0.3652P] where P=(Fo^2^+2Fc^2^)/3'
_refine_ls_weighting_scheme      calc
_refine_ls_wR_factor_gt          0.0777
_refine_ls_wR_factor_ref         0.0801
_reflns_Friedel_coverage         0.000
_reflns_number_gt                3154
_reflns_number_total             3494
_reflns_threshold_expression     'I > 2\s(I)'
_cod_data_source_file            ic6b00927_si_002.cif
_cod_data_source_block           sadp-1
_cod_database_code               4348058
_shelx_shelxl_version_number     2014/7
_shelx_space_group_comment
;
The symmetry employed for this shelxl refinement is uniquely defined
by the following loop, which should always be used as a source of
symmetry information in preference to the above space-group names.
They are only intended as comments.
;
_shelx_estimated_absorpt_t_min   0.846
_shelx_estimated_absorpt_t_max   0.925
_shelx_res_file
;

    sadp-1.res created by SHELXL-2014/7

TITL sadp-1 in P-1
CELL 0.71073   7.39960   8.91000  11.81270 104.1619 103.0423  99.0491
ZERR    1.00   0.00030   0.00040   0.00050   0.0012   0.0013   0.0012
LATT 1
SFAC C  H  N  O  Cu
UNIT 20  28  12  14  2
L.S. 10
SHEL 1000 0.75
ACTA
BOND $H
FMAP 2
PLAN 10
conf
SIZE 0.050 0.050 0.110
TEMP -100.150
WGHT    0.044600    0.365200
FVAR       0.52124
MOLE 1
CU1   5    0.524714    0.532811    0.640900    11.00000    0.02149    0.01657 =
         0.01607    0.00053    0.00528    0.00762
N1    3    0.299229    0.931041    0.629444    11.00000    0.01944    0.01842 =
         0.02192   -0.00022    0.00544    0.00656
C2    1    0.230329    1.033628    0.569870    11.00000    0.02089    0.01855 =
         0.02562    0.00122    0.00679    0.00757
AFIX  43
H2    2    0.195129    1.122762    0.614911    11.00000   -1.20000
AFIX   0
N3    3    0.211321    1.014459    0.455869    11.00000    0.02206    0.01689 =
         0.02636    0.00312    0.00682    0.00634
C4    1    0.267867    0.884971    0.399659    11.00000    0.01872    0.01715 =
         0.02308    0.00284    0.00671    0.00336
C5    1    0.656697    0.224502    0.550686    11.00000    0.01684    0.01621 =
         0.02005    0.00060    0.00488    0.00333
N6    3    0.412580    0.721560    0.655353    11.00000    0.02354    0.02059 =
         0.01737    0.00028    0.00567    0.00849
C6    1    0.357916    0.796882    0.574169    11.00000    0.01683    0.01599 =
         0.02136   -0.00003    0.00564    0.00505
N7    3    0.620563    0.336280    0.641738    11.00000    0.02349    0.01796 =
         0.01767    0.00129    0.00544    0.00665
C8    1    0.674982    0.293446    0.741624    11.00000    0.02635    0.01806 =
         0.02129    0.00207    0.00767    0.00610
AFIX  43
H8    2    0.666842    0.350357    0.818929    11.00000   -1.20000
AFIX   0
N9    3    0.256907    0.839382    0.278039    11.00000    0.02480    0.01695 =
         0.02161    0.00416    0.00669    0.00562
C91   1    0.174269    0.919717    0.190318    11.00000    0.03829    0.02434 =
         0.02553    0.00882    0.00803    0.01233
AFIX  23
H91A  2    0.242331    1.032754    0.217753    11.00000   -1.20000
H91B  2    0.039120    0.915845    0.188355    11.00000   -1.20000
AFIX   0
C92   1    0.186367    0.844581    0.063737    11.00000    0.05752    0.04137 =
         0.02534    0.00991    0.00948    0.02324
AFIX 137
H92C  2    0.319246    0.843203    0.065856    11.00000   -1.50000
H92A  2    0.138359    0.906251    0.010060    11.00000   -1.50000
H92B  2    0.109346    0.735540    0.033168    11.00000   -1.50000
AFIX   0
C10   1    0.388158    0.807663    0.763608    11.00000    0.02918    0.02590 =
         0.01833    0.00052    0.00775    0.01156
AFIX  43
H10   2    0.415619    0.779943    0.837361    11.00000   -1.20000
AFIX   0
C11   1    0.320361    0.935715    0.750186    11.00000    0.02734    0.02528 =
         0.02165   -0.00015    0.00849    0.01079
AFIX  43
H11   2    0.292650    1.013359    0.810848    11.00000   -1.20000
AFIX   0
C1F   1    0.150519    0.357382    0.484470    11.00000    0.02243    0.02026 =
         0.01949    0.00508    0.00310    0.00696
O1F   4    0.323561    0.417015    0.491547    11.00000    0.02124    0.02055 =
         0.01822    0.00171    0.00572    0.00436
O2F   4    0.083631    0.355024    0.568883    11.00000    0.03199    0.03609 =
         0.02963    0.01035    0.01555    0.00891
O1W   4    0.737426    0.655646    0.785686    11.00000    0.02802    0.02503 =
         0.01793   -0.00006    0.00363    0.01098
H1W   2    0.831104    0.629831    0.790937    11.00000    0.03787
H2W   2    0.725586    0.671549    0.845560    11.00000    0.03673
O2W   4    0.051031    0.548197    0.785284    11.00000    0.03903    0.04748 =
         0.02793    0.00846    0.00803    0.02389
H3W   2    0.064793    0.495686    0.724633    11.00000    0.03958
H4W   2    0.119597    0.537696    0.839029    11.00000    0.04553
N2N   3    0.700425    0.659094    0.065290    11.00000    0.04128    0.03893 =
         0.02108    0.00131    0.00567    0.02108
O21   4    0.739251    0.532085    0.015312    11.00000    0.07627    0.04253 =
         0.02505    0.00091    0.01119    0.03747
O22   4    0.674870    0.758658    0.006661    11.00000    0.06179    0.03935 =
         0.02871    0.00882    0.01384    0.02658
O23   4    0.689513    0.688317    0.170846    11.00000    0.07287    0.05125 =
         0.02315    0.00518    0.01694    0.03262
H1F   2    0.073431    0.309721    0.404537    11.00000    0.02191
HKLF 4

REM  sadp-1 in P-1
REM R1 =  0.0296 for    3154 Fo > 4sig(Fo)  and  0.0343 for all    3494 data
REM    238 parameters refined using      0 restraints

END

WGHT      0.0446      0.3650

REM Highest difference peak  0.448,  deepest hole -0.289,  1-sigma level  0.075
Q1    1   0.4642  0.4769  0.6822  11.00000  0.05    0.45
Q2    1   0.6435  0.2260  0.4930  11.00000  0.05    0.41
Q3    1   0.2818  0.8777  0.3447  11.00000  0.05    0.40
Q4    1   0.2688  0.3953  0.4972  11.00000  0.05    0.39
Q5    1   0.5872  0.5840  0.6002  11.00000  0.05    0.37
Q6    1   0.8479  0.5934  0.0455  11.00000  0.05    0.36
Q7    1   0.6649  0.1588  0.5644  11.00000  0.05    0.36
Q8    1   0.3084  0.9332  0.6936  11.00000  0.05    0.35
Q9    1   0.3791  0.4445  0.5573  11.00000  0.05    0.34
Q10   1   0.6178  0.5824  0.1791  11.00000  0.05    0.33
;
_shelx_res_checksum              64073
_shelx_hkl_file
;
  -1   0   0 1907.42 27.0080   2
  -1   0   0 1921.13 28.2559   3
   1   0   0 1842.89 26.7927   1
  -2   0   0 1166.40 16.5825   2
  -2   0   0 1175.43 16.3270   1
  -2   0   0 1171.97 17.5379   3
   2   0   0 1198.77 17.5224   3
   2   0   0 1099.46 16.2855   1
   2   0   0 1186.18 16.5895   2
  -3   0   0 155.398 2.78483   1
  -3   0   0 153.082 3.37914   3
   3   0   0 151.616 2.45264   2
   3   0   0 154.109 2.77465   1
   3   0   0 155.746 3.39341   3
  -4   0   0 204.772 3.71742   1
  -4   0   0 197.485 4.51074   3
   4   0   0 193.635 4.42018   3
   4   0   0 200.834 3.65291   1
  -5   0   0 304.732 6.60232   3
   5   0   0 311.300 5.39543   1
  -6   0   0 63.3326 3.06014   3
   6   0   0 65.0681 2.07561   1
  -7   0   0 38.3132 3.08808   3
   7   0   0 35.3125 1.85429   1
  -8   0   0 -0.3732 1.99328   3
  -9   0   0 3.42433 2.58475   3
   9   0   0 2.61729 1.21427   1
  10  -1   0 -1.1514 1.37962   1
 -10   1   0 -2.1472 3.24827   3
   9  -1   0 5.43180 1.24107   1
  -9   1   0 3.05276 2.51171   3
  -8   1   0 11.6865 2.54803   3
   7  -1   0 51.5231 2.06723   1
  -7   1   0 54.9371 3.42194   3
   6  -1   0 242.328 4.72311   1
  -6   1   0 243.891 6.05768   3
   5  -1   0 536.372 8.60877   1
  -5   1   0 547.111 10.0574   3
   4  -1   0 13.8999 1.15648   3
   4  -1   0 12.2913 0.75406   1
  -4   1   0 11.5988 0.79354   1
  -4   1   0 10.4070 1.26362   3
   3  -1   0 2.96619 0.40831   1
   3  -1   0 3.89449 0.74518   3
  -3   1   0 3.71682 0.48995   1
  -3   1   0 3.08030 0.71224   3
   2  -1   0 650.659 10.2710   3
   2  -1   0 656.333 9.44349   1
  -2   1   0 663.671 9.47285   1
  -2   1   0 661.204 10.3252   3
   1  -1   0 275.988 4.35812   3
   1  -1   0 282.260 4.17127   2
   1  -1   0 286.199 4.10359   1
  -1   1   0 279.125 4.35716   3
  -1   1   0 281.787 4.16509   2
  -1  -1   0 816.095 11.7170   2
  -1  -1   0 813.307 12.0286   3
   1   1   0 817.929 11.7156   2
   1   1   0 766.459 11.1706   1
   1   1   0 815.603 12.0401   3
  -2  -1   0 3032.21 43.0375   1
  -2  -1   0 3064.47 44.0367   2
  -2  -1   0 3095.09 45.0253   3
   2   1   0 2916.43 43.0432   1
   2   1   0 3196.77 44.4706   3
   2   1   0 2989.78 44.0750   2
  -3  -1   0 283.451 4.58084   1
  -3  -1   0 283.385 5.34057   3
   3   1   0 281.839 4.58210   2
   3   1   0 288.052 5.42595   3
   3   1   0 280.513 4.56642   1
  -4  -1   0 171.888 3.10149   2
  -4  -1   0 165.064 4.04381   3
   4   1   0 168.987 3.24009   1
   4   1   0 172.416 3.08778   2
  -5  -1   0 111.492 2.33321   2
  -5  -1   0 116.352 3.62206   3
   5   1   0 110.935 2.33465   2
   5   1   0 108.185 2.59205   1
  -6  -1   0 4.96473 1.02421   2
  -6  -1   0 2.41255 1.21728   3
   6   1   0 2.45666 0.58482   2
   6   1   0 2.95000 0.67285   1
  -7  -1   0 -0.7876 1.38304   3
   7   1   0 1.16922 0.72829   1
  -8  -1   0 2.29921 1.92340   3
   8   1   0 0.63787 0.94100   1
  -9  -1   0 1.34329 2.58566   3
   9   1   0 2.98315 1.36260   1
  10  -2   0 21.4291 2.80742   1
 -10   2   0 20.4875 3.97095   3
   9  -2   0 9.91648 2.10567   1
  -9   2   0 10.8891 2.75686   3
   8  -2   0 0.97499 0.88509   1
  -8   2   0 1.61920 1.79110   3
  -7   2   0 104.606 4.32128   3
   6  -2   0 301.172 5.63005   1
  -6   2   0 311.494 7.11030   3
   5  -2   0 178.713 3.59688   1
  -5   2   0 185.249 4.70146   3
   4  -2   0 488.766 8.56228   3
   4  -2   0 483.600 7.53016   1
  -4   2   0 471.736 8.71754   3
   3  -2   0 432.908 6.69382   1
  -3   2   0 445.129 6.76971   1
  -3   2   0 431.205 7.15239   3
  -3   2   0 426.253 7.62115   3
  -3   2   0 449.746 6.43266   2
   2  -2   0 605.569 8.77441   1
   2  -2   0 604.619 8.95422   2
  -2   2   0 596.052 9.71214   3
  -2   2   0 609.198 9.37297   3
  -2   2   0 613.645 8.94121   2
  -2   2   0 617.256 8.81953   1
   1  -2   0 2693.60 38.4731   1
   1  -2   0 2759.43 40.1966   2
   1  -2   0 2753.96 41.0010   3
  -1   2   0 2793.00 38.5813   1
  -1   2   0 2718.31 40.6192   2
   0  -2   0 196.200 3.37242   2
   0  -2   0 196.337 3.31729   3
   0  -2   0 198.305 2.86621   1
   0   2   0 196.585 3.32944   3
   0   2   0 191.164 3.32025   2
   0   2   0 200.950 2.87774   1
  -1  -2   0 2289.56 32.0976   2
  -1  -2   0 2227.21 33.1200   3
  -1  -2   0 2176.20 31.1855   1
   1   2   0 2180.88 31.2871   1
   1   2   0 2283.84 32.5788   3
   1   2   0 2249.66 32.3085   2
  -2  -2   0 125.207 2.19453   1
  -2  -2   0 128.550 2.52565   2
  -2  -2   0 125.253 2.76351   3
   2   2   0 126.258 2.18797   1
   2   2   0 126.391 2.79536   3
   2   2   0 125.593 2.48301   2
  -3  -2   0 1324.34 19.4182   2
  -3  -2   0 1326.64 18.6478   1
   3   2   0 1330.79 19.4365   2
   3   2   0 1291.85 20.3716   3
   3   2   0 1309.70 18.6225   1
  -4  -2   0 931.710 13.8408   1
  -4  -2   0 931.013 15.3344   3
  -4  -2   0 939.816 14.2344   2
   4   2   0 939.240 13.7649   1
   4   2   0 949.256 14.2138   2
  -5  -2   0 28.9197 1.45716   2
  -5  -2   0 27.9366 2.12346   3
   5   2   0 27.4592 1.30893   1
   5   2   0 28.8628 1.46202   2
  -6  -2   0 19.1968 1.60596   2
  -6  -2   0 21.1520 2.38894   3
   6   2   0 20.5878 1.39733   1
   6   2   0 21.6737 1.54638   2
  -7  -2   0 1.22954 1.53589   3
   7   2   0 -0.2063 0.84183   2
   7   2   0 -1.4278 0.77687   1
  -8  -2   0 -0.9790 1.95769   3
   8   2   0 1.22014 1.10091   1
  -9  -2   0 7.49054 2.79786   3
   9   2   0 2.73621 1.44748   1
  10  -3   0 2.58601 1.45181   1
 -10   3   0 2.28972 3.29908   3
   9  -3   0 56.1421 2.91966   1
  -9   3   0 47.9069 4.78437   3
   6  -3   0 83.9478 2.39491   1
  -6   3   0 84.0390 3.49216   3
   5  -3   0 80.0832 2.11263   1
  -5   3   0 75.7736 3.00237   3
   4  -3   0 744.924 11.0675   1
  -4   3   0 740.594 10.7247   2
  -4   3   0 724.290 12.5368   3
  -4   3   0 735.428 11.2653   1
  -4   3   0 749.492 10.8326   2
   3  -3   0 811.511 12.0794   1
   3  -3   0 841.090 12.3806   2
  -3   3   0 824.179 13.5219   3
  -3   3   0 862.198 12.2276   1
  -3   3   0 830.866 12.3053   2
   2  -3   0 1687.69 24.4739   2
   2  -3   0 1583.40 23.6923   1
   2  -3   0 1713.03 24.9736   3
  -2   3   0 1734.61 23.5787   1
  -2   3   0 1715.71 24.9807   3
  -2   3   0 1710.36 24.4723   2
   1  -3   0 643.580 9.96145   3
   1  -3   0 649.047 9.83755   2
   1  -3   0 639.087 9.09800   1
  -1   3   0 654.418 9.98101   3
  -1   3   0 631.849 9.85637   2
  -1   3   0 650.011 9.16652   1
   0  -3   0 10.6023 0.38723   1
   0   3   0 10.5749 0.40633   1
   0   3   0 7.35551 0.63054   2
  -1  -3   0 131.503 2.72123   2
  -1  -3   0 130.280 2.72578   3
  -1  -3   0 134.696 2.25178   1
  -1  -3   0 130.445 2.06495   1
   1   3   0 127.159 2.69998   2
   1   3   0 129.851 2.75382   3
  -2  -3   0 158.148 2.62071   1
  -2  -3   0 150.991 3.33321   3
  -2  -3   0 157.294 3.20368   2
   2   3   0 154.575 3.16922   2
   2   3   0 152.957 3.39159   3
   2   3   0 160.735 2.63925   1
  -3  -3   0 17.0840 1.30189   3
  -3  -3   0 17.8529 1.19817   2
  -3  -3   0 17.3170 0.84928   1
   3   3   0 18.5155 0.78547   1
   3   3   0 18.3482 1.11070   2
  -4  -3   0 8.32962 1.28207   2
  -4  -3   0 10.9417 1.46160   3
   4   3   0 10.0849 1.20296   2
   4   3   0 8.17140 0.79540   1
  -5  -3   0 8.40200 1.83792   3
   5   3   0 8.35359 1.37425   2
   5   3   0 6.54102 0.97305   1
  -6  -3   0 16.4221 2.47992   3
   6   3   0 13.5666 1.34240   1
   6   3   0 8.72948 1.64411   2
  -7  -3   0 0.09996 1.66915   3
   7   3   0 0.93148 0.91866   1
   7   3   0 -2.4674 1.10850   2
  -8  -3   0 8.61816 2.37576   3
   8   3   0 11.6079 2.12069   1
  -9  -3   0 7.18511 3.16651   3
   9   3   0 4.91668 1.58467   1
  10  -4   0 6.58200 1.58059   1
 -10   4   0 9.84646 3.60516   3
   9  -4   0 2.33948 1.14106   1
  -9   4   0 2.41980 2.38221   3
  -8   4   0 35.4059 3.56212   3
   6  -4   0 336.094 6.05341   1
   5  -4   0 10.9695 0.93921   1
  -5   4   0 11.5649 0.79225   2
  -5   4   0 11.4847 1.67300   3
   4  -4   0 289.878 4.88724   1
   4  -4   0 289.179 4.82410   2
  -4   4   0 281.686 4.74067   2
  -4   4   0 277.159 6.09079   3
   3  -4   0 207.968 3.77765   2
   3  -4   0 206.465 4.08842   3
   3  -4   0 201.983 3.55632   1
  -3   4   0 209.066 3.78235   2
  -3   4   0 208.065 3.69838   1
   2  -4   0 1120.47 15.8806   1
   2  -4   0 1108.72 17.1331   3
   2  -4   0 1127.95 16.8621   2
  -2   4   0 1156.98 16.0254   1
  -2   4   0 1124.75 17.1912   3
  -2   4   0 1118.86 16.8490   2
   1  -4   0 412.517 6.04500   1
   1  -4   0 417.683 6.92563   2
   1  -4   0 422.205 6.93631   3
  -1   4   0 422.526 6.16441   1
  -1   4   0 421.157 6.98641   3
  -1   4   0 405.239 6.92033   2
   0  -4   0 128.488 2.77915   3
   0  -4   0 128.092 2.85429   2
   0   4   0 132.858 2.90568   2
   0   4   0 127.700 2.80132   3
  -1  -4   0 468.987 7.77662   2
  -1  -4   0 463.540 6.59741   1
  -1  -4   0 471.297 6.80572   1
   1   4   0 457.767 7.85732   3
   1   4   0 450.019 7.88070   2
  -2  -4   0 11.9803 1.12502   2
  -2  -4   0 9.51621 0.55749   1
  -2  -4   0 10.0838 1.02242   3
   2   4   0 9.84015 0.99396   2
   2   4   0 9.88490 0.53955   1
  -3  -4   0 0.99156 0.66465   3
  -3  -4   0 2.02309 0.44902   1
   3   4   0 1.01377 0.65160   2
   3   4   0 1.91318 0.37495   1
  -4  -4   0 2.30562 0.95642   3
   4   4   0 2.28121 0.51932   1
   4   4   0 2.42815 0.79239   2
  -5  -4   0 1.63852 1.19383   3
   5   4   0 0.42484 0.56609   1
   5   4   0 1.27707 0.95440   2
  -6  -4   0 14.1668 2.38238   3
   6   4   0 12.3396 1.91797   2
   6   4   0 12.3565 1.40298   1
  -7  -4   0 3.97523 1.87466   3
   7   4   0 4.35017 1.08771   1
   7   4   0 5.68401 1.52694   2
  -8  -4   0 7.51983 2.45896   3
   8   4   0 4.56878 1.40429   1
   9  -5   0 120.060 3.90126   1
  -9   5   0 124.518 6.02557   3
   8  -5   0 72.4179 2.75081   1
  -8   5   0 73.1235 4.52250   3
   7  -5   0 1.36065 0.83150   1
   6  -5   0 31.8746 1.56093   1
   5  -5   0 375.876 6.29652   1
  -5   5   0 364.730 7.90123   3
  -5   5   0 364.579 6.09958   2
  -5   5   0 365.049 5.88864   2
   4  -5   0 740.736 11.1105   1
   4  -5   0 743.939 11.5551   2
  -4   5   0 726.722 12.9262   3
  -4   5   0 740.877 11.4677   2
   3  -5   0 11.8997 1.02074   2
   3  -5   0 11.0111 0.69590   1
   3  -5   0 10.3106 0.99586   3
  -3   5   0 10.2099 0.94525   2
  -3   5   0 9.89569 0.92751   1
   2  -5   0 316.581 5.74862   3
   2  -5   0 314.655 4.88394   1
   2  -5   0 315.483 5.72098   2
  -2   5   0 307.802 5.69031   2
  -2   5   0 316.412 5.04561   1
   1  -5   0 140.841 3.10198   3
   1  -5   0 136.132 2.28593   1
   1  -5   0 135.979 3.16351   2
  -1   5   0 138.759 2.45084   1
  -1   5   0 138.393 3.14954   3
  -1   5   0 137.515 3.17616   2
   0  -5   0 154.722 3.37609   3
   0   5   0 153.501 3.44108   3
   0   5   0 147.579 3.47358   2
  -1  -5   0 57.3791 1.12138   1
  -1  -5   0 58.4569 1.99849   3
   1   5   0 56.0793 2.01458   2
  -2  -5   0 0.53946 0.30582   1
  -2  -5   0 0.41980 0.68594   3
  -2  -5   0 0.76018 0.42673   1
   2   5   0 -0.0763 0.57703   2
  -3  -5   0 33.5233 1.53819   1
  -3  -5   0 31.6512 1.20919   1
  -3  -5   0 30.8158 1.90220   3
   3   5   0 32.6450 1.13482   1
   3   5   0 30.3544 1.83481   2
  -4  -5   0 9.68670 1.78898   3
   4   5   0 11.9430 1.63647   2
   4   5   0 9.00349 0.94146   1
  -5  -5   0 2.10015 1.25077   3
   5   5   0 1.70508 1.06330   2
   5   5   0 0.81985 0.66751   1
  -6  -5   0 1.41857 1.74021   3
   6   5   0 1.97492 1.38813   2
   6   5   0 0.94958 0.89373   1
  -7  -5   0 24.8415 3.80302   3
   7   5   0 16.4678 2.83890   2
   7   5   0 18.3223 2.25550   1
  -8  -5   0 29.9673 4.95934   3
   8   5   0 30.4433 2.91255   1
   9  -6   0 82.2604 3.34970   1
  -9   6   0 91.3880 5.77442   3
   8  -6   0 199.167 4.73257   1
  -8   6   0 202.658 7.06075   3
   7  -6   0 123.956 3.33442   1
  -7   6   0 122.382 5.16261   3
   6  -6   0 18.6236 1.34076   1
  -6   6   0 14.2003 1.36804   2
   5  -6   0 6.94911 1.38356   2
   5  -6   0 4.07106 0.90084   1
  -5   6   0 4.96340 1.33833   3
   4  -6   0 192.638 4.18227   2
   4  -6   0 200.244 3.71421   1
   4  -6   0 196.764 4.45788   3
  -4   6   0 199.862 4.11403   2
   3  -6   0 245.371 4.17614   1
   3  -6   0 254.146 5.10837   3
  -3   6   0 244.174 4.91548   2
  -3   6   0 245.453 4.45912   1
   2  -6   0 214.951 3.52483   1
   2  -6   0 214.947 4.49232   3
  -2   6   0 211.617 3.76042   1
  -2   6   0 214.347 4.52758   2
   1  -6   0 1.25836 0.61700   3
  -1   6   0 1.15851 0.64969   2
  -1   6   0 1.45337 0.37365   1
   0  -6   0 128.066 3.20683   3
   0   6   0 125.409 3.32957   2
  -1  -6   0 15.6561 1.46290   3
   1   6   0 15.8040 1.42626   2
  -2  -6   0 86.8789 2.92755   3
  -2  -6   0 89.0881 1.80348   1
  -2  -6   0 92.3397 2.07283   1
   2   6   0 91.2681 3.02399   2
  -3  -6   0 7.33962 1.26164   1
  -3  -6   0 9.90498 1.70451   3
  -4  -6   0 0.47673 0.85443   1
  -4  -6   0 1.10291 1.05095   3
   4   6   0 1.21868 1.14502   2
  -5  -6   0 3.95276 1.18300   1
  -5  -6   0 4.46986 1.56039   3
   5   6   0 1.48966 0.77325   1
  -6  -6   0 38.7076 3.10540   1
  -6  -6   0 46.2494 3.71200   3
   6   6   0 46.2027 2.24040   1
   6   6   0 45.7512 3.20522   2
  -7  -6   0 11.7598 2.74391   3
  -7  -6   0 8.95109 2.20076   1
   7   6   0 17.1540 3.67104   2
   7   6   0 19.1047 2.34301   1
   9  -7   0 55.4824 3.07444   1
  -9   7   0 65.2530 5.58977   3
   8  -7   0 73.9639 2.87547   1
  -8   7   0 79.2076 5.17275   3
   7  -7   0 26.4376 1.91999   1
  -7   7   0 27.2357 3.62777   3
   6  -7   0 224.789 4.53159   1
  -6   7   0 213.897 4.49429   2
  -6   7   0 214.900 6.50898   3
   5  -7   0 361.785 6.20833   1
  -5   7   0 357.523 6.70864   2
   4  -7   0 39.5135 2.00654   3
   4  -7   0 39.4298 1.46258   1
  -4   7   0 39.9369 1.96761   2
   3  -7   0 15.5831 1.46991   3
   3  -7   0 15.9066 0.93816   1
  -3   7   0 16.0038 1.45651   1
  -3   7   0 18.2100 1.55971   2
   2  -7   0 2.76287 0.84758   3
   2  -7   0 1.25680 0.35329   1
  -2   7   0 3.09998 0.82501   2
  -2   7   0 2.64874 0.59908   1
   1  -7   0 55.4303 2.15355   3
  -1   7   0 56.5358 2.34632   2
   0  -7   0 47.2288 2.11885   3
   0   7   0 48.0790 2.26399   2
  -1  -7   0 7.59728 1.48981   3
   1   7   0 5.04331 1.06297   2
  -2  -7   0 1.14051 0.95528   3
   2   7   0 -1.3478 0.86093   2
  -3  -7   0 -0.3734 1.04202   3
  -3  -7   0 1.52100 0.78446   1
  -4  -7   0 78.1554 2.69096   1
  -4  -7   0 81.2250 3.60981   3
   4   7   0 82.1076 3.57435   2
  -5  -7   0 27.0328 2.60307   1
  -5  -7   0 30.4846 3.09548   3
   5   7   0 32.1887 3.30277   2
  -6  -7   0 10.2688 2.34432   3
   6   7   0 10.7596 2.29763   2
   8  -8   0 19.2368 2.15861   1
  -8   8   0 24.6546 4.80140   3
   7  -8   0 16.3886 1.86844   1
  -7   8   0 22.8202 3.90732   3
   6  -8   0 107.399 2.97100   1
  -6   8   0 111.411 3.32545   2
   5  -8   0 82.5342 2.35317   1
  -5   8   0 85.9229 2.97395   2
  -5   8   0 83.5652 4.13709   3
   4  -8   0 56.0768 2.49623   3
   4  -8   0 53.8158 1.72514   1
  -4   8   0 52.5256 2.41817   2
   3  -8   0 72.9972 2.72569   3
  -3   8   0 67.2310 2.34622   1
  -3   8   0 69.9886 2.74764   2
   2  -8   0 2.95142 0.64387   1
   2  -8   0 2.86790 0.94863   3
  -2   8   0 2.19548 0.90594   2
   1  -8   0 1.64540 0.89013   3
  -1   8   0 2.31185 0.95777   2
   0  -8   0 28.7399 2.00900   3
  -1  -8   0 31.5541 2.18036   3
  -2  -8   0 0.13720 1.15751   3
   2   8   0 -0.3537 1.20464   2
  -3  -8   0 0.79106 1.32695   3
   3   8   0 0.65969 1.21184   2
  -4  -8   0 7.67567 1.98940   3
   4   8   0 10.0583 1.92389   2
  -5  -8   0 52.3721 3.96390   3
   5   8   0 57.8729 4.02952   2
   8  -9   0 10.5660 2.32888   1
  -8   9   0 13.7688 3.38519   3
   7  -9   0 3.48055 1.10338   1
  -7   9   0 1.94116 2.38700   3
  -6   9   0 21.4991 3.45989   3
  -6   9   0 21.6415 2.45148   2
   5  -9   0 6.95624 1.31854   1
   5  -9   0 7.26661 1.41973   3
  -5   9   0 11.4065 2.12938   2
   4  -9   0 16.5711 1.30172   1
   4  -9   0 18.2594 2.02382   3
  -4   9   0 15.3177 2.15406   2
   3  -9   0 12.1798 1.78180   3
   3  -9   0 9.41652 0.96213   1
  -3   9   0 10.8835 1.95860   2
   2  -9   0 0.51364 0.96789   3
  -2   9   0 1.94060 1.16529   2
   1  -9   0 40.2073 2.35448   3
  -1   9   0 41.2203 2.69264   2
   0  -9   0 36.9433 2.44352   3
   0   9   0 35.1041 2.70307   2
  -1  -9   0 84.7904 3.48636   3
   1   9   0 91.0801 4.19521   2
   2   9   0 11.5988 2.61394   2
  -3  -9   0 9.02189 1.99903   3
   3   9   0 7.13402 1.90279   2
  -4  -9   0 18.9128 3.47726   3
   4   9   0 21.8343 3.74997   2
  -7  10   0 -0.6104 2.82580   3
  -6  10   0 14.9387 2.97256   3
  -6  10   0 21.0981 3.05567   2
   5 -10   0 0.84094 1.39513   3
  -5  10   0 1.11649 1.55670   2
   4 -10   0 1.50178 1.23320   3
  -4  10   0 3.88927 1.43600   2
   3 -10   0 2.46674 1.28823   3
  -3  10   0 4.90657 1.56443   2
   2 -10   0 3.22098 1.30041   3
   1 -10   0 27.3472 2.65238   3
  -1  10   0 27.1302 2.75103   2
   0 -10   0 34.7580 2.69413   3
   0  10   0 38.5771 3.12323   2
  -1 -10   0 2.69744 1.66630   3
   1  10   0 5.77591 1.66721   2
  -2 -10   0 8.42456 1.98256   3
   2  10   0 14.7614 3.34008   2
  -3 -10   0 68.7446 4.35695   3
   3  10   0 59.0549 4.36589   2
  -6  11   0 9.53261 3.11689   3
  -6  11   0 10.2763 2.30698   2
   5 -11   0 20.2632 2.96774   3
  -5  11   0 26.3264 3.62455   2
   4 -11   0 6.39742 1.79991   3
  -4  11   0 10.3864 2.15894   2
   3 -11   0 55.4295 3.45113   3
  -3  11   0 57.5760 3.71699   2
   2 -11   0 54.2809 3.42500   3
  -2  11   0 51.9604 3.63825   2
   1 -11   0 0.90767 1.67287   3
  -1  11   0 6.46101 1.87549   2
   0 -11   0 28.1056 3.06644   3
   0  11   0 29.3433 3.39886   2
  -1 -11   0 15.6377 3.28293   3
   1  11   0 12.6166 2.50219   2
  -2 -11   0 18.5751 4.03563   3
   2  11   0 17.6425 3.80563   2
   3 -12   0 -1.2747 1.75478   3
  -3  12   0 0.88189 2.17689   2
   2 -12   0 8.28452 2.26160   3
  -2  12   0 11.1837 2.54865   2
   1 -12   0 55.1077 4.16728   3
  -1  12   0 50.3760 4.32391   2
   0  12  -1 7.72818 2.19917   2
   0 -12   1 6.52562 2.16288   3
  -1  12  -1 18.8624 3.66210   2
   1 -12   1 18.8390 3.49605   3
  -2  12  -1 15.8885 3.41596   2
   2 -12   1 14.4723 3.26765   3
  -3  12  -1 7.87648 2.31786   2
   3 -12   1 6.58602 2.10966   3
  -4  12  -1 8.94529 2.28872   2
   4 -12   1 11.2406 2.30874   3
   2  11  -1 4.34099 2.08649   2
  -2 -11   1 1.89794 1.97549   3
   1  11  -1 4.01777 2.02502   2
  -1 -11   1 0.16501 1.74377   3
   0  11  -1 3.30370 1.79026   2
   0 -11   1 1.05121 1.61879   3
  -1  11  -1 17.6873 3.05298   2
   1 -11   1 14.8482 2.81656   3
  -2  11  -1 11.8641 2.01409   2
   2 -11   1 17.3747 2.67523   3
  -3  11  -1 3.18537 1.71087   2
   3 -11   1 -1.9370 1.34178   3
  -4  11  -1 11.7498 2.10525   2
   4 -11   1 12.1960 2.56905   3
  -5  11  -1 7.30509 2.08830   2
   5 -11   1 2.62733 1.63345   3
  -6  11  -1 32.3636 3.81154   2
  -6  11  -1 36.7524 5.30626   3
   4  10  -1 4.82653 2.43550   2
  -4 -10   1 4.68824 2.58950   3
   3  10  -1 33.1974 3.71104   2
  -3 -10   1 28.5890 3.78572   3
   2  10  -1 6.26330 1.93259   2
  -2 -10   1 3.48781 1.70869   3
   1  10  -1 32.7525 3.15235   2
  -1 -10   1 27.7721 3.09395   3
   0  10  -1 50.0127 3.33676   2
   0 -10   1 46.3447 2.97627   3
  -1  10  -1 74.7620 3.63338   2
  -2  10  -1 28.7604 2.67941   2
  -3  10  -1 6.16335 1.55934   2
   3 -10   1 6.34681 1.41524   3
  -4  10  -1 59.8068 3.25025   2
   4 -10   1 58.3842 3.05954   3
  -5  10  -1 22.8039 2.75074   2
   5 -10   1 22.6088 2.54229   3
  -6  10  -1 46.9459 4.57047   3
  -6  10  -1 44.1000 3.29562   2
  -7  10  -1 12.3966 3.41060   3
   5   9  -1 1.86097 2.31760   2
  -5  -9   1 -4.6439 2.08531   3
   4   9  -1 1.68309 2.00230   2
  -4  -9   1 -0.2777 1.69437   3
   3   9  -1 1.28660 1.57213   2
  -3  -9   1 1.26541 1.56286   3
   2   9  -1 7.34026 1.70063   2
   1   9  -1 -0.2823 1.11007   2
  -1  -9   1 -0.0452 1.21893   3
   0  -9   1 9.88930 1.87557   3
  -1   9  -1 77.0809 3.18281   2
   1  -9   1 72.8500 2.91753   3
  -2   9  -1 59.2381 2.85619   2
   2  -9   1 56.3499 2.69913   3
  -3   9  -1 107.659 3.62255   2
   3  -9   1 108.354 3.61652   3
   3  -9   1 105.814 2.18453   1
  -4   9  -1 253.727 5.83027   2
   4  -9   1 254.773 6.02335   3
   4  -9   1 256.431 4.52591   1
  -5   9  -1 121.049 3.84116   2
   5  -9   1 120.321 3.97738   3
   5  -9   1 118.233 2.92403   1
  -6   9  -1 45.0196 2.68637   2
  -6   9  -1 41.0913 4.07769   3
  -7   9  -1 0.74683 2.39415   3
   7  -9   1 0.25372 1.02897   1
  -8   9  -1 10.1303 3.18299   3
   8  -9   1 11.0718 2.47551   1
   6   8  -1 9.48363 2.48725   2
  -6  -8   1 5.52199 2.48109   3
   5   8  -1 -2.3327 1.82403   2
  -5  -8   1 1.13437 1.83135   3
  -4  -8   1 0.66780 1.65472   3
   3   8  -1 -0.7890 1.24376   2
  -3  -8   1 -1.3435 1.18265   3
   2   8  -1 70.9150 3.13123   2
  -2  -8   1 69.2920 3.13153   3
  -1  -8   1 170.860 4.54890   3
   0  -8   1 121.088 3.62264   3
   1  -8   1 40.6272 2.13475   3
  -2   8  -1 4.48972 1.12080   2
   2  -8   1 3.76127 1.02548   3
  -3   8  -1 458.817 7.56953   1
  -3   8  -1 472.144 8.76478   2
   3  -8   1 476.535 7.18485   1
   3  -8   1 475.704 8.89722   3
  -4   8  -1 586.070 10.3260   2
   4  -8   1 586.800 9.04286   1
  -5   8  -1 119.072 3.41850   2
   5  -8   1 122.079 2.90183   1
  -6   8  -1 43.5950 2.30000   2
  -6   8  -1 41.8715 3.85125   3
   6  -8   1 48.5988 2.03847   1
  -7   8  -1 29.1232 4.11665   3
   7  -8   1 29.5188 2.06735   1
  -8   8  -1 35.3073 4.86356   3
   8  -8   1 29.0714 2.41822   1
   7   7  -1 -4.4786 2.21188   2
  -7  -7   1 0.48232 2.52585   3
  -6  -7   1 2.74458 1.94834   3
   5   7  -1 1.80197 1.58324   2
  -5  -7   1 0.50793 1.24358   1
  -5  -7   1 2.22694 1.63856   3
  -4  -7   1 4.99674 1.48721   3
  -3  -7   1 60.8427 2.91059   3
   2   7  -1 115.670 3.60441   2
  -2  -7   1 112.409 3.52315   3
   1   7  -1 8.52976 1.48047   2
  -1  -7   1 9.28347 1.44148   3
   0   7  -1 169.315 4.24192   2
   0  -7   1 169.918 4.10929   3
  -1   7  -1 120.107 3.45407   2
   1  -7   1 119.329 3.24529   3
  -2   7  -1 351.777 6.82786   2
  -2   7  -1 348.159 5.55092   1
   2  -7   1 350.544 6.79129   3
   2  -7   1 350.000 5.27917   1
  -3   7  -1 149.357 3.74092   2
  -3   7  -1 150.464 3.15143   1
   3  -7   1 152.165 3.84539   3
   3  -7   1 148.971 2.80666   1
  -4   7  -1 33.6847 1.77195   2
   4  -7   1 35.9473 1.38549   1
  -5   7  -1 110.007 2.99004   2
   5  -7   1 110.943 2.74753   1
  -6   7  -1 107.597 2.92533   2
   6  -7   1 108.214 2.90719   1
  -7   7  -1 119.896 5.40275   3
   7  -7   1 121.881 3.37829   1
  -8   7  -1 105.786 5.77841   3
   8  -7   1 95.0895 3.31161   1
  -9   7  -1 31.4149 4.93272   3
   9  -7   1 22.7570 2.69447   1
   7   6  -1 -1.3100 1.14500   1
   7   6  -1 0.43596 1.93125   2
  -7  -6   1 2.80438 2.17728   3
   6   6  -1 -0.9632 0.84083   1
  -6  -6   1 0.26055 1.71869   3
   5   6  -1 16.6325 2.21430   2
   5   6  -1 14.1344 1.36481   1
  -5  -6   1 13.7713 2.56094   3
   4   6  -1 27.7447 1.23100   1
   4   6  -1 26.2648 2.17160   2
  -4  -6   1 30.9406 2.36889   3
  -4  -6   1 24.5775 1.75143   1
   3   6  -1 130.228 3.66947   2
  -3  -6   1 131.308 2.53543   1
  -3  -6   1 129.256 3.78272   3
  -3  -6   1 133.569 2.82538   1
   2   6  -1 375.071 7.17394   2
  -2  -6   1 364.116 7.18203   3
   1   6  -1 176.006 4.22912   2
  -1  -6   1 182.459 4.18511   3
   0   6  -1 80.0159 2.58125   2
   0  -6   1 81.0420 2.47268   3
  -1   6  -1 11.6045 1.18881   2
   1  -6   1 14.7876 1.14067   3
  -2   6  -1 1038.82 16.4388   2
  -2   6  -1 1049.61 15.0331   1
   2  -6   1 1067.53 14.8337   1
   2  -6   1 1054.45 16.5855   3
  -3   6  -1 1141.19 17.7373   2
  -3   6  -1 1168.12 16.7068   1
   3  -6   1 1161.38 16.4583   1
   3  -6   1 1141.01 18.1270   3
  -4   6  -1 57.5480 2.00637   2
   4  -6   1 59.2120 2.16441   2
   4  -6   1 59.4002 2.22201   3
   4  -6   1 59.6458 1.69206   1
  -5   6  -1 22.0620 1.29762   2
   5  -6   1 22.4735 1.25864   1
  -6   6  -1 12.2273 1.21599   2
   6  -6   1 10.7207 1.23698   1
  -7   6  -1 290.868 7.90600   3
   7  -6   1 287.314 5.78710   1
  -8   6  -1 72.9310 4.99607   3
   8  -6   1 64.8914 2.73064   1
  -9   6  -1 20.4631 4.84496   3
   8   5  -1 -0.6656 1.45457   1
  -8  -5   1 1.25192 2.63062   3
   7   5  -1 1.71750 1.11650   1
   7   5  -1 -1.2648 1.48938   2
  -7  -5   1 -0.8194 1.92609   3
   6   5  -1 0.58179 1.20386   2
   6   5  -1 0.45494 0.73548   1
  -6  -5   1 0.60833 1.48517   3
   5   5  -1 10.9105 1.13492   1
   5   5  -1 10.6395 1.80377   2
  -5  -5   1 12.0245 2.12886   3
   4   5  -1 65.2860 2.52288   2
   4   5  -1 62.8611 1.71352   1
  -4  -5   1 62.4131 2.72407   3
  -4  -5   1 59.5029 1.93755   1
   3   5  -1 179.236 3.15263   1
   3   5  -1 184.597 4.18387   2
  -3  -5   1 181.289 4.42686   3
  -3  -5   1 186.959 3.26156   1
   2   5  -1 339.193 6.42769   2
  -2  -5   1 350.496 5.33039   1
  -2  -5   1 338.630 6.55033   3
   1   5  -1 440.496 7.74921   2
  -1  -5   1 443.256 7.74374   3
   0   5  -1 426.180 7.47800   3
   0   5  -1 418.131 7.32560   2
   0  -5   1 418.303 7.29720   3
  -1   5  -1 271.049 5.11401   3
  -1   5  -1 269.334 5.09337   2
   1  -5   1 265.565 5.02458   3
   1  -5   1 267.422 5.08084   2
  -2   5  -1 962.328 13.4503   1
   2  -5   1 909.544 14.5014   2
   2  -5   1 941.540 13.2887   1
   2  -5   1 941.304 14.7283   3
  -3   5  -1 31.8781 1.25056   1
  -3   5  -1 30.7552 1.35289   2
   3  -5   1 33.8882 1.05927   1
   3  -5   1 31.6527 1.42526   2
   3  -5   1 31.1942 1.45939   3
  -4   5  -1 158.794 3.25838   2
  -4   5  -1 155.610 3.00486   2
  -4   5  -1 156.756 4.31205   3
   4  -5   1 162.197 3.13202   1
  -5   5  -1 323.957 5.42511   2
  -5   5  -1 316.379 7.24970   3
  -5   5  -1 315.746 5.23308   2
   5  -5   1 327.254 5.65556   1
   6  -5   1 24.7360 1.46149   1
  -7   5  -1 2.08990 1.58582   3
   7  -5   1 6.10181 1.39465   1
  -8   5  -1 4.70258 2.20591   3
   8  -5   1 4.67827 1.09319   1
  -9   5  -1 14.6461 3.10864   3
   9  -5   1 19.5277 2.32859   1
   8   4  -1 37.6195 2.58149   1
  -8  -4   1 36.1618 3.90034   3
   7   4  -1 89.4921 2.94501   1
   7   4  -1 83.7884 3.21140   2
  -7  -4   1 91.3854 4.37053   3
   6   4  -1 36.7653 2.22735   2
   6   4  -1 30.5459 1.67053   1
  -6  -4   1 32.6704 2.67855   3
   5   4  -1 2.66118 0.92792   2
   5   4  -1 4.61722 0.95673   1
  -5  -4   1 2.95569 1.13122   3
   4   4  -1 75.3269 2.36895   2
   4   4  -1 77.5691 1.89081   1
  -4  -4   1 77.5859 2.06610   1
  -4  -4   1 76.0668 2.88662   3
   3   4  -1 318.214 5.82815   2
   3   4  -1 313.050 4.93328   1
  -3  -4   1 308.197 6.19223   3
  -3  -4   1 315.310 5.01921   1
   2   4  -1 153.664 3.74890   3
   2   4  -1 150.410 3.33493   2
   2   4  -1 152.155 2.49532   1
  -2  -4   1 152.140 3.47372   3
  -2  -4   1 152.365 3.38848   2
   1   4  -1 94.4245 2.43652   2
   1   4  -1 95.1409 2.41001   3
  -1  -4   1 95.0491 2.40856   2
  -1  -4   1 92.7078 2.45787   3
   0   4  -1 542.689 8.81176   3
   0   4  -1 539.659 8.75975   2
   0  -4   1 535.616 8.74858   3
   0  -4   1 541.391 8.77233   2
  -1   4  -1 1312.55 18.0226   1
  -1   4  -1 1254.53 19.3523   2
  -1   4  -1 1317.32 19.6164   3
   1  -4   1 1304.86 19.5548   3
   1  -4   1 1302.54 19.3923   2
   1  -4   1 1313.40 17.9412   1
  -2   4  -1 1748.84 23.7231   1
  -2   4  -1 1720.35 25.3947   3
  -2   4  -1 1665.50 24.8999   2
   2  -4   1 1710.33 24.9555   2
   2  -4   1 1710.53 23.6138   1
   2  -4   1 1647.62 25.4361   3
  -3   4  -1 253.765 4.89534   3
  -3   4  -1 257.126 4.48512   2
  -3   4  -1 261.772 4.34200   1
   3  -4   1 252.790 4.82352   3
   3  -4   1 253.237 4.22653   1
   3  -4   1 257.612 4.52908   2
  -4   4  -1 29.4635 1.04981   2
  -4   4  -1 26.5540 1.82728   3
  -4   4  -1 26.2800 0.90386   2
   4  -4   1 26.9064 1.10750   1
  -5   4  -1 10.6073 1.76019   3
   5  -4   1 10.6755 0.98786   1
  -6   4  -1 145.541 4.74588   3
   6  -4   1 152.513 3.44344   1
  -7   4  -1 101.329 4.34823   3
   7  -4   1 94.9025 2.88634   1
  -8   4  -1 25.9957 3.41965   3
   8  -4   1 20.6029 1.91371   1
  -9   4  -1 3.75823 2.50549   3
   9  -4   1 2.13994 1.14789   1
   9   3  -1 -0.4731 1.41062   1
  -9  -3   1 4.83974 2.74639   3
   8   3  -1 1.07720 1.17041   1
  -8  -3   1 1.17352 2.14965   3
   7   3  -1 4.70079 1.20594   2
   7   3  -1 4.41200 0.95794   1
  -7  -3   1 4.82161 1.85455   3
   6   3  -1 354.840 6.45308   2
   6   3  -1 360.198 6.35731   1
  -6  -3   1 354.485 7.94283   3
   5   3  -1 782.918 11.7172   1
   5   3  -1 774.460 12.1681   2
  -5  -3   1 753.616 12.2648   2
  -5  -3   1 767.020 13.5157   3
   4   3  -1 338.343 5.50504   1
  -4  -3   1 327.675 6.70870   3
  -4  -3   1 338.819 5.61779   1
  -4  -3   1 339.021 6.03145   2
   3   3  -1 91.7728 2.25104   2
   3   3  -1 91.5702 1.86865   1
  -3  -3   1 89.9239 2.32545   2
  -3  -3   1 91.0736 2.64467   3
  -3  -3   1 92.6869 1.94383   1
   2   3  -1 120.663 2.05624   1
   2   3  -1 120.615 2.84909   3
   2   3  -1 119.379 2.59318   2
  -2  -3   1 118.746 2.79794   3
  -2  -3   1 123.521 2.67560   2
   1   3  -1 275.227 4.80573   2
   1   3  -1 271.695 4.89474   3
  -1  -3   1 277.521 4.86159   3
  -1  -3   1 279.008 4.83816   2
   0   3  -1 94.5492 2.05365   3
   0   3  -1 90.6033 2.04645   2
   0  -3   1 92.1900 2.05813   2
  -1   3  -1 2261.88 32.5847   3
  -1   3  -1 2234.93 32.1447   2
  -1   3  -1 2206.70 31.0722   1
   1  -3   1 2207.13 31.2469   1
   1  -3   1 2255.46 33.2377   3
   1  -3   1 2227.74 32.1729   2
  -2   3  -1 707.220 10.0603   1
  -2   3  -1 702.419 10.5251   2
  -2   3  -1 689.751 10.8429   3
   2  -3   1 682.820 10.8169   3
   2  -3   1 703.976 10.5661   2
   2  -3   1 699.169 9.99865   1
  -3   3  -1 63.3899 1.77026   3
  -3   3  -1 64.4887 1.45216   2
  -3   3  -1 64.0888 1.55984   1
   3  -3   1 62.3499 1.49495   1
  -4   3  -1 178.524 2.98928   2
  -4   3  -1 176.448 4.31145   3
  -4   3  -1 176.906 2.88509   2
   4  -3   1 176.998 3.36698   1
  -5   3  -1 147.403 4.22058   3
   5  -3   1 144.629 3.13995   1
  -6   3  -1 8.29124 1.93648   3
   6  -3   1 12.0340 1.12010   1
  -7   3  -1 14.9336 2.64069   3
   8  -3   1 0.86455 0.83824   1
  -9   3  -1 -1.9829 2.30770   3
   9  -3   1 1.19776 1.12373   1
   9   2  -1 3.26104 1.43341   1
  -9  -2   1 4.78710 2.58090   3
  -8  -2   1 14.7179 3.31508   3
   7   2  -1 7.79000 1.34920   1
   7   2  -1 9.78626 1.46647   2
  -7  -2   1 6.56311 1.74312   3
   6   2  -1 9.90142 1.09726   1
   6   2  -1 11.8025 1.27040   2
  -6  -2   1 8.21107 1.55508   3
  -6  -2   1 10.1555 1.39995   2
   5   2  -1 150.540 3.09579   2
   5   2  -1 146.963 3.12663   1
  -5  -2   1 151.678 3.17909   2
  -5  -2   1 147.437 4.20477   3
   4   2  -1 2522.22 36.5963   2
   4   2  -1 2505.06 35.4328   1
  -4  -2   1 2538.88 36.7180   2
  -4  -2   1 2578.40 35.5846   1
  -4  -2   1 2567.99 38.2123   3
   3   2  -1 959.453 13.9468   1
   3   2  -1 979.571 14.5607   2
   3   2  -1 970.123 15.5083   3
  -3  -2   1 987.562 14.6308   2
  -3  -2   1 987.872 14.0256   1
   2   2  -1 88.3832 2.22032   3
   2   2  -1 89.3505 1.92488   2
   2   2  -1 88.4482 1.62869   1
  -2  -2   1 91.2537 1.96006   2
  -2  -2   1 91.2208 2.20516   3
   1   2  -1 6.25612 0.49064   2
   1   2  -1 6.15433 0.54607   3
   1   2  -1 6.52234 0.25066   1
  -1  -2   1 7.96347 0.51177   2
  -1  -2   1 6.80691 0.28054   1
   0   2  -1 1124.73 16.0531   3
   0   2  -1 1036.57 15.8747   2
   0  -2   1 1101.24 16.0258   3
   0  -2   1 1089.86 15.8954   2
  -1   2  -1 264.490 4.24938   2
  -1   2  -1 261.304 3.89078   1
   1  -2   1 264.948 4.27064   2
   1  -2   1 267.789 4.33178   3
   1  -2   1 269.746 3.89573   1
  -2   2  -1 39.6400 0.95051   2
  -2   2  -1 39.6595 0.86489   2
  -2   2  -1 40.6089 0.98574   1
  -2   2  -1 40.1150 1.35772   3
  -2   2  -1 38.9918 1.13447   3
   2  -2   1 39.9932 0.97835   1
  -3   2  -1 689.351 9.94761   1
  -3   2  -1 670.483 9.79150   2
  -3   2  -1 689.004 9.86208   2
  -3   2  -1 665.008 11.0474   3
  -3   2  -1 657.037 10.5294   3
   3  -2   1 668.748 9.92052   1
  -4   2  -1 41.0154 2.00200   3
   4  -2   1 39.5271 1.32403   1
  -5   2  -1 18.3377 1.82139   3
   5  -2   1 20.4929 1.12989   1
  -6   2  -1 10.2906 2.03597   3
   6  -2   1 9.16768 1.04986   1
  -7   2  -1 0.10251 1.27231   3
   8  -2   1 0.91943 0.78595   1
  -9   2  -1 2.61214 2.53115   3
   9  -2   1 0.06516 1.10273   1
   9   1  -1 38.7574 2.67955   1
  -9  -1   1 36.1403 4.91090   3
   8   1  -1 39.3589 2.24843   1
  -8  -1   1 42.5587 3.82480   3
   7   1  -1 32.5769 1.72727   1
  -7  -1   1 35.6756 3.04902   3
   6   1  -1 212.364 4.28489   1
  -6  -1   1 212.412 5.57903   3
   5   1  -1 34.4327 1.16711   2
   5   1  -1 37.0895 1.40678   1
  -5  -1   1 36.6322 2.20149   3
  -5  -1   1 33.7549 1.19702   2
   4   1  -1 16.2153 0.86019   1
   4   1  -1 16.4325 0.77256   2
  -4  -1   1 17.9703 1.49371   3
  -4  -1   1 15.1507 0.92690   1
   3   1  -1 249.805 4.15795   1
   3   1  -1 259.365 4.12623   2
   3   1  -1 258.243 4.97990   3
  -3  -1   1 252.015 4.90329   3
  -3  -1   1 259.742 4.18533   2
  -3  -1   1 259.408 4.23153   1
   2   1  -1 9999.99 140.215   3
   2   1  -1 9290.93 132.231   1
   2   1  -1 9336.93 136.712   2
  -2  -1   1 9428.77 132.569   1
  -2  -1   1 9851.28 141.149   3
  -2  -1   1 9410.91 136.781   2
   1   1  -1 1711.10 24.8217   3
   1   1  -1 1636.78 23.7156   1
   1   1  -1 1642.63 24.5600   2
  -1  -1   1 1695.05 24.7548   2
  -1  -1   1 1772.02 24.8306   3
  -1  -1   1 1690.37 23.6067   1
   0   1  -1 1.40110 0.15581   3
   0   1  -1 1.31991 0.14166   2
   0   1  -1 1.52409 0.12176   1
  -1   1  -1 2.26737 0.21186   1
  -1   1  -1 2.12238 0.19008   2
  -1   1  -1 2.74903 0.25766   3
   1  -1   1 2.73488 0.19913   2
   1  -1   1 2.92521 0.22340   1
   1  -1   1 2.64702 0.26169   3
  -2   1  -1 34.0538 0.72305   2
  -2   1  -1 34.8262 1.19807   3
  -2   1  -1 35.5679 0.90761   1
   2  -1   1 33.4953 1.17757   3
   2  -1   1 33.6879 0.69661   2
   2  -1   1 34.3629 0.89700   1
  -3   1  -1 562.499 9.48899   3
  -3   1  -1 581.202 8.31813   2
  -3   1  -1 567.293 8.53461   1
   3  -1   1 567.588 8.51856   1
   3  -1   1 572.534 9.46820   3
  -4   1  -1 1.50780 0.70725   3
   4  -1   1 0.09784 0.28910   1
   4  -1   1 1.10043 0.70410   3
  -5   1  -1 20.3377 1.83684   3
   5  -1   1 17.5501 1.08646   1
  -6   1  -1 4.14672 1.27290   3
   6  -1   1 6.52732 1.04783   1
  -7   1  -1 5.77570 1.72443   3
   7  -1   1 3.78924 0.78192   1
   8  -1   1 16.5740 1.78503   1
  -9   1  -1 6.46137 2.62971   3
   9  -1   1 4.52230 1.31316   1
  10   0  -1 15.4372 2.77658   1
 -10   0   1 18.2314 3.82166   3
   9   0  -1 47.8794 2.76471   1
  -9   0   1 51.1608 4.81769   3
   8   0  -1 75.1814 2.73544   1
   7   0  -1 133.495 3.37309   1
   6   0  -1 143.200 3.28397   1
  -6   0   1 143.652 4.47962   3
   5   0  -1 178.882 3.55319   1
  -5   0   1 180.879 4.62887   3
   4   0  -1 351.999 6.78808   3
   4   0  -1 355.842 5.82933   1
  -4   0   1 370.314 5.93851   1
  -4   0   1 360.314 6.87291   3
   3   0  -1 0.79516 0.23533   1
   3   0  -1 1.50801 0.50565   3
  -3   0   1 1.43209 0.48423   3
  -3   0   1 1.80017 0.43851   1
   2   0  -1 183.448 3.01282   1
   2   0  -1 191.442 2.76903   2
   2   0  -1 183.914 3.45414   3
   2   0  -1 183.085 2.81323   2
  -2   0   1 183.406 3.48039   3
  -2   0   1 192.573 3.05817   1
   1   0  -1 799.155 11.5338   1
   1   0  -1 803.427 11.7931   3
   1   0  -1 781.505 11.4965   2
  -1   0   1 792.656 11.5153   2
  -1   0   1 800.896 11.7497   3
  -1   0  -1 208.607 3.48200   3
  -1   0  -1 213.515 3.18015   1
  -1   0  -1 213.239 3.27234   2
   1   0   1 206.619 3.24591   2
   1   0   1 212.101 3.19176   1
   1   0   1 204.887 3.49453   3
  -2   0  -1 328.511 4.87570   1
  -2   0  -1 312.547 5.45077   3
  -2   0  -1 325.578 4.87641   2
   2   0   1 317.044 4.87470   1
   2   0   1 318.438 4.85470   2
   2   0   1 310.287 5.42264   3
  -3   0  -1 360.542 5.40941   2
  -3   0  -1 353.233 5.54865   1
  -3   0  -1 338.929 6.30928   3
   3   0   1 355.721 5.40120   2
   3   0   1 349.389 6.33444   3
   3   0   1 352.678 5.55540   1
  -4   0  -1 164.630 2.76987   2
  -4   0  -1 156.952 3.90171   3
   4   0   1 158.401 3.12565   1
   4   0   1 152.312 4.01941   3
   4   0   1 156.608 2.71076   2
  -5   0  -1 9.71321 0.73608   2
  -5   0  -1 9.17983 1.69780   3
   5   0   1 11.0110 0.97229   1
  -6   0  -1 17.5158 2.36210   3
   6   0   1 17.5727 1.25028   1
  -7   0  -1 2.05756 1.48967   3
   7   0   1 3.29960 0.87972   1
  -8   0  -1 8.77307 2.43564   3
   8   0   1 8.26789 1.87187   1
  -9   0  -1 65.4680 5.35096   3
   9   0   1 66.3776 3.35659   1
  10  -1  -1 7.16015 1.60616   1
 -10   1   1 9.60731 3.55881   3
   9  -1  -1 19.6575 2.25204   1
  -9   1   1 20.8426 4.06973   3
   8  -1  -1 50.4382 2.27889   1
  -8   1   1 52.1366 3.91100   3
   7  -1  -1 134.696 3.41773   1
   6  -1  -1 513.111 8.47069   1
  -6   1   1 516.573 10.0934   3
   5  -1  -1 318.619 5.69150   1
  -5   1   1 302.088 6.55107   3
   4  -1  -1 126.748 2.59030   1
  -4   1   1 124.116 3.33573   3
   3  -1  -1 414.627 6.37552   1
  -3   1   1 417.442 7.23154   3
   2  -1  -1 98.2534 1.83574   1
   2  -1  -1 97.7192 1.58943   2
  -2   1   1 100.534 1.87709   1
  -2   1   1 96.7898 2.18362   3
  -2   1   1 99.1703 1.59158   2
   1  -1  -1 67.6268 1.26815   2
   1  -1  -1 69.3765 1.30300   3
   1  -1  -1 68.4070 1.27875   1
  -1   1   1 69.2085 1.30071   3
  -1   1   1 66.8856 1.27483   2
  -1   1   1 68.3418 1.29295   1
   0  -1  -1 72.3396 1.30347   1
   0  -1  -1 72.4484 1.28234   3
   0  -1  -1 70.7254 1.38831   2
   0   1   1 74.1302 1.31257   1
   0   1   1 73.8738 1.29380   3
  -1  -1  -1 306.080 4.96443   3
  -1  -1  -1 311.106 4.55226   1
  -1  -1  -1 316.173 4.87667   2
   1   1   1 308.327 4.88499   2
   1   1   1 302.752 4.98420   3
   1   1   1 311.749 4.57233   1
  -2  -1  -1 610.382 9.17280   2
  -2  -1  -1 602.866 9.61211   3
  -2  -1  -1 608.497 8.78202   1
   2   1   1 600.401 9.65028   3
   2   1   1 616.507 9.18256   2
   2   1   1 597.891 8.79801   1
  -3  -1  -1 2.02737 0.52700   2
  -3  -1  -1 1.17241 0.29304   1
  -3  -1  -1 1.42442 0.53504   3
   3   1   1 1.46887 0.41091   2
   3   1   1 1.38444 0.29199   1
   3   1   1 1.58069 0.57679   3
  -4  -1  -1 302.946 6.14169   3
  -4  -1  -1 308.007 5.11739   2
   4   1   1 299.571 5.18498   1
   4   1   1 311.367 5.15383   2
  -5  -1  -1 4.82147 0.96963   2
  -5  -1  -1 5.30834 1.24398   3
   5   1   1 2.96317 0.60485   1
   5   1   1 5.13140 0.88238   2
  -6  -1  -1 1.82705 1.25122   3
  -6  -1  -1 0.29897 0.71569   2
   6   1   1 0.18572 0.57828   1
   6   1   1 0.41290 0.63403   2
  -7  -1  -1 25.3641 2.92880   3
   7   1   1 19.0726 1.67011   1
  -8  -1  -1 47.8750 4.23643   3
   8   1   1 45.7881 2.53737   1
  -9  -1  -1 14.9663 3.29542   3
   9   1   1 14.3540 2.60811   1
  10  -2  -1 116.295 4.21462   1
 -10   2   1 108.659 6.62478   3
   9  -2  -1 5.86455 1.24972   1
  -9   2   1 10.3860 2.84718   3
   8  -2  -1 14.7892 1.60640   1
  -8   2   1 20.6191 3.08251   3
   6  -2  -1 452.053 7.61496   1
  -6   2   1 450.869 9.20779   3
   5  -2  -1 215.125 4.10966   1
  -5   2   1 218.922 5.22048   3
   4  -2  -1 100.897 2.76783   3
   4  -2  -1 96.9536 2.19591   1
  -4   2   1 99.6506 2.33484   1
  -4   2   1 97.1787 2.91280   3
   3  -2  -1 227.083 3.87887   1
  -3   2   1 234.045 3.97168   1
  -3   2   1 231.376 3.59296   2
  -3   2   1 232.810 4.15172   3
  -3   2   1 222.598 4.54329   3
   2  -2  -1 33.3289 0.87430   2
   2  -2  -1 34.4624 0.93770   1
  -2   2   1 37.9826 1.01367   1
  -2   2   1 33.4699 0.92230   2
  -2   2   1 33.1581 1.01087   3
  -2   2   1 33.6111 1.22851   3
   1  -2  -1 394.123 6.14261   2
   1  -2  -1 389.822 6.12993   3
   1  -2  -1 393.193 5.80332   1
  -1   2   1 392.474 5.83110   1
  -1   2   1 396.447 6.18625   3
  -1   2   1 389.428 6.14198   2
   0  -2  -1 107.206 2.13792   2
   0  -2  -1 110.982 2.05542   3
   0  -2  -1 108.239 1.89775   1
   0   2   1 105.572 2.16644   2
   0   2   1 110.886 1.90384   1
   0   2   1 109.967 2.06426   3
  -1  -2  -1 407.857 6.16294   1
  -1  -2  -1 406.898 5.91895   1
  -1  -2  -1 406.892 6.56155   3
  -1  -2  -1 407.468 6.48959   2
   1   2   1 403.555 6.51707   2
   1   2   1 399.378 6.57768   3
   1   2   1 414.001 5.96678   1
  -2  -2  -1 59.8911 1.57355   2
  -2  -2  -1 60.1967 1.31276   1
  -2  -2  -1 55.1746 1.65787   3
   2   2   1 60.3874 1.76092   3
   2   2   1 61.1649 1.35152   1
   2   2   1 58.1143 1.57708   2
  -3  -2  -1 469.099 8.17747   3
  -3  -2  -1 469.907 7.17793   1
  -3  -2  -1 474.141 7.60495   2
   3   2   1 468.777 7.64890   2
   3   2   1 462.862 8.28123   3
   3   2   1 467.805 7.21317   1
  -4  -2  -1 73.3176 2.62461   3
  -4  -2  -1 76.1633 2.10495   2
   4   2   1 74.4621 2.09435   2
   4   2   1 70.7104 1.90107   1
  -5  -2  -1 -0.7295 0.77695   2
  -5  -2  -1 1.99331 1.01232   3
   5   2   1 0.27240 0.49636   1
   5   2   1 0.71904 0.71092   2
  -6  -2  -1 7.53969 1.66748   2
  -6  -2  -1 13.3445 2.30483   3
   6   2   1 9.92184 1.38220   2
   6   2   1 11.0632 1.25938   1
  -7  -2  -1 14.6613 2.89797   3
   7   2   1 17.0141 1.74725   1
   7   2   1 11.6877 1.74843   2
  -8  -2  -1 69.3088 4.52778   3
   8   2   1 66.7760 2.93808   1
  -9  -2  -1 30.4698 5.38561   3
   9   2   1 41.6843 3.10651   1
  10  -3  -1 0.75104 1.32475   1
 -10   3   1 4.91157 3.05044   3
   9  -3  -1 41.7838 2.58356   1
  -9   3   1 42.0041 4.58576   3
   8  -3  -1 257.858 5.51088   1
  -8   3   1 250.745 7.32682   3
   6  -3  -1 140.433 3.27539   1
  -6   3   1 139.814 4.38852   3
   5  -3  -1 11.5068 0.95434   1
  -5   3   1 11.2146 1.67315   3
   4  -3  -1 30.6589 0.90468   2
  -4   3   1 32.2201 0.95588   2
  -4   3   1 31.0611 1.36251   1
  -4   3   1 34.7722 1.81805   3
   3  -3  -1 91.4724 1.98165   1
   3  -3  -1 92.7169 1.90765   2
  -3   3   1 90.0665 2.54747   3
  -3   3   1 96.0244 2.23612   3
  -3   3   1 93.7796 1.95713   2
  -3   3   1 95.7968 2.09024   1
   2  -3  -1 322.568 5.38785   3
   2  -3  -1 317.638 5.21361   2
   2  -3  -1 315.887 4.96334   1
  -2   3   1 316.397 5.24704   2
  -2   3   1 320.123 5.40426   3
  -2   3   1 319.662 5.04862   1
   1  -3  -1 1176.40 17.5589   3
   1  -3  -1 1183.86 17.4090   2
   1  -3  -1 1175.85 16.5222   1
  -1   3   1 1191.46 17.5743   3
  -1   3   1 1197.26 16.6008   1
  -1   3   1 1150.29 17.4460   2
   0  -3  -1 274.109 4.64472   3
   0  -3  -1 273.035 4.21612   1
   0  -3  -1 271.942 4.73785   2
   0   3   1 272.727 4.68109   3
   0   3   1 263.931 4.76544   2
   0   3   1 277.089 4.24716   1
  -1  -3  -1 20.7183 0.97321   2
  -1  -3  -1 20.2034 0.81830   1
  -1  -3  -1 20.1741 0.63111   1
  -1  -3  -1 20.2964 0.92919   3
   1   3   1 19.1622 0.99268   3
   1   3   1 20.0567 1.04488   2
  -2  -3  -1 20.9524 1.10694   2
  -2  -3  -1 20.7326 1.11815   3
  -2  -3  -1 23.0486 0.80131   1
   2   3   1 19.2737 1.18759   3
   2   3   1 21.0877 1.10833   2
   2   3   1 20.5747 0.76817   1
  -3  -3  -1 45.4737 1.33793   1
  -3  -3  -1 46.0517 1.89715   3
  -3  -3  -1 46.5822 1.73867   2
   3   3   1 44.7215 1.36364   1
   3   3   1 48.2009 1.76833   2
  -4  -3  -1 28.5657 1.87311   3
   4   3   1 28.2169 1.59448   2
   4   3   1 25.1956 1.17988   1
  -5  -3  -1 32.4058 2.26176   3
   5   3   1 29.8027 1.78609   2
   5   3   1 34.2605 1.51760   1
  -6  -3  -1 73.4154 3.51783   3
   6   3   1 69.7003 2.37817   1
   6   3   1 72.5526 2.68403   2
   7   3   1 91.1427 3.14437   2
   7   3   1 98.1125 3.13988   1
  -8  -3  -1 30.7422 4.10680   3
   8   3   1 29.4590 2.61586   1
  10  -4  -1 16.6275 2.66193   1
 -10   4   1 23.1039 4.03932   3
   9  -4  -1 3.91893 1.09123   1
  -9   4   1 1.79644 2.42181   3
   6  -4  -1 150.637 3.44437   1
  -6   4   1 152.844 4.78227   3
   5  -4  -1 2.71939 0.56660   1
  -5   4   1 1.87027 0.48946   2
  -5   4   1 2.76219 1.00925   3
   4  -4  -1 101.836 2.32121   1
   4  -4  -1 107.452 2.24947   2
  -4   4   1 102.903 3.25051   3
  -4   4   1 102.907 2.27532   2
   3  -4  -1 323.145 5.24565   1
   3  -4  -1 326.353 5.78463   3
   3  -4  -1 319.627 5.44317   2
  -3   4   1 325.079 5.40673   1
  -3   4   1 326.228 5.53365   2
  -3   4   1 316.971 5.77838   3
   2  -4  -1 10.6626 0.61636   1
   2  -4  -1 11.4728 0.87489   2
   2  -4  -1 11.1916 0.76764   3
  -2   4   1 10.3935 0.79675   3
  -2   4   1 12.0057 0.82593   2
  -2   4   1 12.8720 0.79931   1
   1  -4  -1 16.7458 0.88834   3
   1  -4  -1 15.4874 0.67002   1
   1  -4  -1 16.1904 0.96500   2
  -1   4   1 15.4609 0.77939   1
  -1   4   1 16.0608 0.91676   3
  -1   4   1 15.1755 0.93279   2
   0  -4  -1 210.443 3.44522   1
   0  -4  -1 211.269 3.99268   3
   0  -4  -1 209.284 4.10422   2
   0   4   1 208.140 4.03535   3
   0   4   1 211.787 3.53235   1
  -1  -4  -1 27.2045 1.28294   2
  -1  -4  -1 24.7911 0.97638   1
  -1  -4  -1 24.5675 0.73849   1
   1   4   1 24.1356 1.23695   3
   1   4   1 24.2663 1.28931   2
  -2  -4  -1 324.545 5.43982   1
  -2  -4  -1 317.637 6.02073   3
  -2  -4  -1 324.825 5.03307   1
   2   4   1 323.400 6.03309   2
  -3  -4  -1 22.9008 1.02844   1
  -3  -4  -1 21.8106 1.60667   3
   3   4   1 24.3781 1.58180   2
  -4  -4  -1 5.43617 1.18342   3
   4   4   1 5.49358 0.92852   1
   4   4   1 5.70981 1.02738   2
  -5  -4  -1 51.3173 2.87469   3
   5   4   1 53.5265 2.43297   2
   5   4   1 57.3784 1.99698   1
  -6  -4  -1 128.000 4.53764   3
   6   4   1 119.141 3.28577   1
   6   4   1 119.083 3.71139   2
  -7  -4  -1 89.5826 4.62306   3
   7   4   1 94.5047 3.26612   1
   7   4   1 90.2285 3.53224   2
  -8  -4  -1 24.8668 4.53999   3
   8   4   1 31.2017 2.97494   1
  10  -5  -1 38.6574 3.02874   1
 -10   5   1 37.2141 5.85721   3
   9  -5  -1 106.472 3.61825   1
  -9   5   1 98.4149 5.51441   3
   8  -5  -1 90.6206 3.39544   1
  -8   5   1 101.994 4.87494   3
   6  -5  -1 0.46498 0.55530   1
  -6   5   1 0.30004 0.42650   2
  -6   5   1 -0.1253 1.18117   3
   5  -5  -1 18.0964 1.17102   2
   5  -5  -1 19.9233 1.22041   1
  -5   5   1 18.0245 1.20725   2
  -5   5   1 19.7003 2.05774   3
   4  -5  -1 83.5427 2.07241   1
   4  -5  -1 83.8067 2.23044   2
  -4   5   1 84.7888 2.26503   2
  -4   5   1 83.6445 3.01470   3
   3  -5  -1 95.5013 2.48297   2
   3  -5  -1 97.6899 2.59449   3
   3  -5  -1 97.3335 2.13748   1
  -3   5   1 102.096 2.40653   1
   2  -5  -1 68.1301 1.58002   1
   2  -5  -1 72.3859 2.14743   2
   2  -5  -1 67.7859 2.02860   3
  -2   5   1 68.7107 2.10786   2
  -2   5   1 67.9144 1.76482   1
   1  -5  -1 47.7349 1.65912   3
   1  -5  -1 48.7077 1.22451   1
  -1   5   1 48.0518 1.73945   3
  -1   5   1 49.9379 1.35690   1
  -1   5   1 47.7434 1.81063   2
   0  -5  -1 743.181 10.4799   1
   0  -5  -1 731.216 10.6506   1
   0  -5  -1 748.287 11.8498   3
   0   5   1 736.769 11.9521   3
   0   5   1 743.885 10.7398   1
   0   5   1 717.637 11.9787   2
  -1  -5  -1 55.9767 1.49516   1
  -1  -5  -1 53.8909 1.93520   3
  -1  -5  -1 56.3228 1.24821   1
   1   5   1 55.5575 2.11619   2
  -2  -5  -1 43.9778 1.25570   1
  -2  -5  -1 46.6927 1.57435   1
  -2  -5  -1 44.4685 1.94434   3
   2   5   1 46.7069 2.09655   2
  -3  -5  -1 2.53524 0.98384   3
  -3  -5  -1 1.32100 0.67692   1
  -3  -5  -1 2.34727 0.57719   1
   3   5   1 0.81027 0.85642   2
  -4  -5  -1 67.4447 2.47649   1
  -4  -5  -1 66.9327 2.93380   3
   4   5   1 65.3614 1.96188   1
   4   5   1 66.7673 2.78638   2
  -5  -5  -1 90.8440 3.86077   3
   5   5   1 94.2537 3.43165   2
   5   5   1 94.6644 2.62571   1
   6   5   1 36.8143 2.86737   2
   6   5   1 35.0562 2.10165   1
  -7  -5  -1 44.5803 4.19032   3
   7   5   1 39.5595 2.80252   1
   9  -6  -1 32.4104 2.50000   1
  -9   6   1 29.8201 4.74843   3
   8  -6  -1 65.7754 2.68528   1
  -8   6   1 73.5793 4.71898   3
   7  -6  -1 73.8948 2.53169   1
  -7   6   1 79.6709 4.35164   3
   6  -6  -1 22.2570 1.45766   1
  -6   6   1 23.6416 1.53273   2
   5  -6  -1 1.04579 0.85867   2
   5  -6  -1 1.97988 0.59298   1
  -5   6   1 2.16217 1.21800   3
  -5   6   1 2.44890 0.81468   2
   4  -6  -1 34.8828 1.38554   1
   4  -6  -1 34.4494 1.78102   3
  -4   6   1 38.3980 1.74254   2
   3  -6  -1 0.42812 0.61804   3
  -3   6   1 -0.1191 0.58752   2
  -3   6   1 0.93363 0.65822   1
   2  -6  -1 0.17139 0.34568   1
   2  -6  -1 -0.0501 0.58005   3
  -2   6   1 -0.8218 0.56161   2
  -2   6   1 -0.2201 0.47017   1
   1  -6  -1 23.1143 1.34955   3
   1  -6  -1 23.7690 0.89259   1
  -1   6   1 24.1529 1.09338   1
  -1   6   1 22.1034 1.59195   2
   0  -6  -1 17.7914 1.33264   3
   0  -6  -1 19.0625 0.88705   1
   0  -6  -1 18.6227 0.74598   1
   0   6   1 16.8620 1.49291   2
  -1  -6  -1 104.824 1.99167   1
  -1  -6  -1 109.419 3.06343   3
  -1  -6  -1 108.826 2.24841   1
   1   6   1 108.762 3.28035   2
  -2  -6  -1 391.527 6.36647   1
  -2  -6  -1 382.865 7.42543   3
  -2  -6  -1 375.695 5.93165   1
   2   6   1 389.360 7.57982   2
  -3  -6  -1 50.8789 1.74417   1
  -3  -6  -1 54.2532 2.58024   3
  -3  -6  -1 52.9889 2.01803   1
   3   6   1 59.1862 2.65227   2
  -4  -6  -1 34.4508 2.55054   3
  -4  -6  -1 37.3546 2.17083   1
  -5  -6  -1 51.4116 2.87628   1
  -5  -6  -1 48.1148 3.34564   3
   5   6   1 52.9193 3.12496   2
  -6  -6  -1 36.3316 3.58360   3
   6   6   1 34.1012 3.36618   2
  -7  -6  -1 25.9401 4.13954   1
  -7  -6  -1 20.1666 4.51173   3
   9  -7  -1 20.4683 2.47661   1
  -9   7   1 26.6557 4.83942   3
   8  -7  -1 17.6001 1.98063   1
  -8   7   1 24.3083 4.06916   3
   7  -7  -1 8.72731 1.50352   1
  -7   7   1 7.39838 2.16708   3
   6  -7  -1 -0.4591 0.70546   1
  -6   7   1 -0.4462 0.87049   2
  -6   7   1 0.21675 1.46782   3
   5  -7  -1 13.3886 1.25469   1
  -5   7   1 13.3953 1.60881   2
   4  -7  -1 0.38102 0.46296   1
   4  -7  -1 0.80309 0.74372   3
  -4   7   1 0.92980 0.79036   2
   3  -7  -1 2.25302 0.52279   1
   3  -7  -1 2.32286 0.84033   3
  -3   7   1 2.57914 0.91878   2
  -3   7   1 2.19104 0.83350   1
   2  -7  -1 101.741 2.96134   3
   2  -7  -1 97.7673 2.09122   1
  -2   7   1 98.4881 2.48512   1
  -2   7   1 101.744 3.17623   2
   1  -7  -1 103.356 2.06500   1
   1  -7  -1 107.904 3.04281   3
  -1   7   1 103.888 2.33997   1
  -1   7   1 104.448 3.32309   2
   0  -7  -1 69.5773 2.55935   3
   0   7   1 68.6515 2.76950   2
  -1  -7  -1 60.1049 1.61878   1
  -1  -7  -1 59.1046 2.50999   3
  -2  -7  -1 22.3482 1.43344   1
  -2  -7  -1 18.8852 1.98595   3
  -3  -7  -1 95.1700 2.74856   1
  -3  -7  -1 93.4883 3.56279   3
   3   7   1 90.6619 3.59333   2
  -4  -7  -1 242.982 6.28609   3
  -4  -7  -1 232.841 5.09796   1
   4   7   1 251.765 6.32879   2
  -5  -7  -1 61.0200 3.13708   1
  -5  -7  -1 61.1407 3.89380   3
  -6  -7  -1 8.10810 2.32000   3
   6   7   1 5.54842 2.34899   2
   8  -8  -1 4.01816 1.28342   1
  -8   8   1 9.61448 2.77731   3
   7  -8  -1 0.14312 0.91337   1
  -7   8   1 -0.4193 2.00906   3
   6  -8  -1 -0.4324 0.72145   1
  -6   8   1 0.04560 1.11063   2
   5  -8  -1 21.4780 1.47529   1
  -5   8   1 19.7359 2.05784   2
  -5   8   1 19.4654 2.87763   3
   4  -8  -1 48.5326 1.72909   1
   4  -8  -1 47.0184 2.37282   3
  -4   8   1 51.6200 2.56017   2
   3  -8  -1 33.4160 2.07610   3
   3  -8  -1 34.7655 1.33257   1
  -3   8   1 35.3151 2.11905   1
  -3   8   1 35.4011 2.25364   2
   2  -8  -1 47.9126 2.29239   3
   2  -8  -1 50.6200 1.42294   1
  -2   8   1 47.5209 1.94229   1
  -2   8   1 51.0509 2.60932   2
   1  -8  -1 227.282 5.20429   3
  -1   8   1 228.055 5.62049   2
   0  -8  -1 102.925 3.35475   3
  -1  -8  -1 44.7147 2.50053   3
  -2  -8  -1 16.0010 2.22840   3
   2   8   1 15.5472 2.40229   2
  -3  -8  -1 52.0670 3.19429   3
  -4  -8  -1 70.3779 3.90837   3
   4   8   1 78.6417 4.12428   2
  -5  -8  -1 69.2851 4.43479   3
   5   8   1 70.8548 4.40594   2
   8  -9  -1 5.77086 1.44467   1
  -8   9   1 5.77672 2.78099   3
   7  -9  -1 3.17037 1.17913   1
  -7   9   1 2.16321 2.52157   3
  -6   9   1 62.6183 4.36114   3
  -6   9   1 54.1581 3.02946   2
   5  -9  -1 1.27410 1.16844   3
   5  -9  -1 1.53779 0.79456   1
  -5   9   1 3.03881 1.37735   2
   4  -9  -1 2.37114 1.08700   3
   4  -9  -1 3.79355 0.77827   1
  -4   9   1 3.45882 1.31294   2
   3  -9  -1 55.1664 2.74700   3
   3  -9  -1 57.1932 1.71381   1
  -3   9   1 55.3107 2.94503   2
   2  -9  -1 191.827 4.92068   3
  -2   9   1 188.406 5.20610   2
   1  -9  -1 55.7508 2.78063   3
  -1   9   1 61.2703 3.08342   2
   0  -9  -1 89.7125 3.43949   3
   0   9   1 88.8515 3.70746   2
  -1  -9  -1 35.9837 2.74628   3
   1   9   1 35.6403 2.97617   2
  -2  -9  -1 7.16799 1.75879   3
   2   9   1 5.52581 1.67166   2
  -3  -9  -1 69.4253 3.96852   3
   3   9   1 73.8434 4.25543   2
  -4  -9  -1 31.8530 3.94129   3
   4   9   1 34.6332 4.09173   2
   7 -10  -1 19.0166 2.38367   1
  -7  10   1 20.2998 3.48744   3
  -6  10   1 3.50909 2.30390   3
  -6  10   1 -0.9063 1.55421   2
   5 -10  -1 60.6738 3.32655   3
  -5  10   1 63.8480 3.59824   2
   4 -10  -1 42.4258 2.87894   3
  -4  10   1 40.7173 3.20751   2
   3 -10  -1 10.4856 2.21867   3
   2 -10  -1 123.909 4.19351   3
  -2  10   1 121.546 4.65391   2
   1 -10  -1 89.0463 3.73279   3
  -1  10   1 95.4576 4.18430   2
   0 -10  -1 63.0772 3.24286   3
   0  10   1 63.2329 3.76402   2
  -1 -10  -1 47.9259 3.35315   3
   1  10   1 50.6863 3.82800   2
  -2 -10  -1 46.8377 3.63541   3
   2  10   1 53.7094 4.18227   2
  -3 -10  -1 38.1444 4.00257   3
   3  10   1 34.0441 4.12332   2
  -6  11   1 20.9326 3.66739   2
  -6  11   1 18.5276 3.56236   3
   5 -11  -1 1.39126 1.68422   3
  -5  11   1 3.91445 2.15163   2
   4 -11  -1 5.73361 1.80663   3
  -4  11   1 9.76295 2.15650   2
   3 -11  -1 77.1631 3.87802   3
  -3  11   1 75.3735 4.40168   2
   2 -11  -1 60.8630 3.66007   3
  -2  11   1 70.1400 4.22963   2
   1 -11  -1 36.6628 3.43792   3
  -1  11   1 35.2630 3.70754   2
   0 -11  -1 31.7264 3.19244   3
   0  11   1 34.2622 3.73590   2
  -1 -11  -1 23.1192 3.43064   3
   1  11   1 30.5599 4.14587   2
   0  12  -2 24.6993 3.84831   2
   0 -12   2 24.5532 3.50427   3
  -1  12  -2 13.7885 2.52353   2
   1 -12   2 12.3726 2.35964   3
  -2  12  -2 25.2671 3.64849   2
   2 -12   2 21.1689 3.35201   3
  -3  12  -2 -2.9810 1.72105   2
   3 -12   2 -0.3771 1.67135   3
  -4  12  -2 11.6624 2.45438   2
   4 -12   2 6.96974 2.05471   3
   2  11  -2 53.8002 4.20687   2
  -2 -11   2 44.7971 4.09859   3
   1  11  -2 80.4826 4.54852   2
  -1 -11   2 79.3457 4.16262   3
   0  11  -2 59.1655 3.76592   2
   0 -11   2 57.7079 3.52564   3
  -1  11  -2 47.7557 3.49814   2
   1 -11   2 43.4343 3.24523   3
  -2  11  -2 34.1681 3.06613   2
   2 -11   2 38.0176 3.02374   3
  -3  11  -2 2.51798 1.56227   2
   3 -11   2 4.80426 1.56178   3
  -4  11  -2 56.0525 3.61461   2
   4 -11   2 55.4452 3.32827   3
  -5  11  -2 52.6079 3.68118   2
   5 -11   2 51.4990 3.45320   3
  -6  11  -2 6.93262 3.10868   3
   4  10  -2 36.5872 4.22562   2
  -4 -10   2 24.0631 4.05838   3
   3  10  -2 3.08982 2.07164   2
  -3 -10   2 2.58877 1.80262   3
   2  10  -2 2.05513 1.71069   2
  -2 -10   2 -2.6397 1.41064   3
   1  10  -2 58.0144 3.41006   2
  -1 -10   2 50.5818 3.38824   3
   0  10  -2 124.862 4.45360   2
   0 -10   2 125.824 4.31957   3
  -2  10  -2 84.8850 3.61840   2
  -3  10  -2 89.2431 3.57120   2
   3 -10   2 82.1538 3.42660   3
  -4  10  -2 91.7434 3.61925   2
   4 -10   2 87.8756 3.59745   3
  -5  10  -2 10.1965 2.43619   2
   5 -10   2 14.2146 2.35630   3
  -6  10  -2 7.87709 1.74799   2
  -6  10  -2 6.59724 2.59860   3
  -7  10  -2 11.2640 3.06703   3
   5   9  -2 4.96468 2.19802   2
  -5  -9   2 -2.5772 1.95664   3
   4   9  -2 18.3988 3.51179   2
  -4  -9   2 19.2446 3.26189   3
   3   9  -2 87.5212 4.05972   2
  -3  -9   2 88.9522 4.10210   3
   2   9  -2 137.379 5.09629   2
  -2  -9   2 144.466 4.72872   3
   1   9  -2 2.96517 1.37341   2
  -1  -9   2 2.72983 1.25129   3
   0  -9   2 1.42911 1.04326   3
  -1   9  -2 187.574 4.99892   2
   1  -9   2 184.221 4.84705   3
  -2   9  -2 241.879 5.79995   2
   2  -9   2 248.853 5.81196   3
  -3   9  -2 173.316 4.65579   2
  -4   9  -2 77.1798 3.07558   2
   4  -9   2 84.3419 3.27607   3
   4  -9   2 79.4300 2.13412   1
  -5   9  -2 35.9472 2.39022   2
   5  -9   2 34.9887 1.74247   1
   5  -9   2 32.1151 2.49781   3
  -6   9  -2 5.29571 2.23263   3
  -6   9  -2 9.33144 2.19198   2
  -7   9  -2 7.17049 2.66599   3
   7  -9   2 4.63305 1.28302   1
  -8   9  -2 3.41703 3.27192   3
   8  -9   2 2.35581 1.38922   1
   6   8  -2 25.3024 4.18954   2
  -6  -8   2 25.7172 4.04337   3
   5   8  -2 44.7563 3.78511   2
  -5  -8   2 41.9342 3.64762   3
  -4  -8   2 25.7986 2.89430   3
   3   8  -2 7.58130 1.54271   2
  -3  -8   2 4.98940 1.44255   3
  -2  -8   2 107.329 3.73360   3
  -1  -8   2 232.438 5.49046   3
   0  -8   2 270.842 5.98413   3
  -1   8  -2 34.5461 2.06227   2
   1  -8   2 31.1868 1.88058   3
  -2   8  -2 -0.6544 0.75450   2
  -3   8  -2 225.141 5.14460   2
  -3   8  -2 223.270 4.21579   1
   3  -8   2 228.040 3.83665   1
  -4   8  -2 92.4483 3.09493   2
   4  -8   2 97.4708 2.30945   1
  -5   8  -2 76.7696 2.75905   2
   5  -8   2 78.0296 2.28997   1
  -6   8  -2 53.7159 4.01176   3
  -6   8  -2 52.2884 2.34562   2
   6  -8   2 45.9752 2.09563   1
  -7   8  -2 13.6941 2.74416   3
   7  -8   2 12.2685 1.82373   1
   8  -8   2 7.84252 1.57219   1
   7   7  -2 17.5177 3.74571   2
  -7  -7   2 12.8311 2.91902   3
   6   7  -2 39.3130 3.54843   2
  -6  -7   2 33.2360 3.60300   3
   5   7  -2 46.9842 3.31542   2
  -5  -7   2 41.0757 2.31416   1
  -5  -7   2 42.1720 3.14626   3
  -4  -7   2 92.1184 2.55042   1
  -4  -7   2 90.8610 3.67532   3
   3   7  -2 124.447 3.85944   2
  -3  -7   2 125.840 3.94514   3
   2   7  -2 213.557 5.13028   2
  -2  -7   2 208.405 5.05598   3
   1   7  -2 31.5415 1.96806   2
  -1  -7   2 34.5898 1.94681   3
   0   7  -2 209.509 4.81290   2
   0  -7   2 209.337 4.71743   3
  -1   7  -2 381.463 7.28262   2
  -2   7  -2 52.5404 1.44492   1
  -2   7  -2 49.9244 2.08473   2
   2  -7   2 49.3592 2.07972   3
  -3   7  -2 1.64290 0.70405   2
  -3   7  -2 2.65884 0.66431   1
   3  -7   2 1.94934 0.41662   1
   3  -7   2 1.75552 0.76802   3
  -4   7  -2 4.80768 0.85492   2
   4  -7   2 4.03517 0.63370   1
  -5   7  -2 304.099 5.88320   2
   5  -7   2 308.175 5.49621   1
  -6   7  -2 13.7752 2.92529   3
  -6   7  -2 14.5889 1.53346   2
   6  -7   2 16.1656 1.49751   1
  -7   7  -2 3.07578 2.26618   3
   7  -7   2 3.25715 0.99421   1
  -8   7  -2 1.53909 2.68385   3
   8  -7   2 -0.2224 1.01360   1
  -9   7  -2 -1.7862 2.91377   3
   9  -7   2 -0.8979 1.27412   1
   7   6  -2 35.0847 3.50321   2
   7   6  -2 24.8931 2.20996   1
  -7  -6   2 25.5845 3.87214   3
   6   6  -2 31.0050 1.86237   1
  -6  -6   2 32.6642 3.30456   3
   5   6  -2 11.7780 1.27697   1
   5   6  -2 12.4727 2.25384   2
  -5  -6   2 15.3504 2.41863   3
   4   6  -2 137.111 3.85193   2
   4   6  -2 134.423 2.66274   1
  -4  -6   2 134.020 4.13274   3
  -4  -6   2 133.618 2.91061   1
   3   6  -2 375.631 7.22512   2
   3   6  -2 367.524 5.55939   1
  -3  -6   2 363.012 7.41056   3
   2   6  -2 334.741 6.55372   2
  -2  -6   2 324.924 6.58306   3
   1   6  -2 179.460 4.19097   2
  -1  -6   2 180.895 4.16346   3
   0   6  -2 167.538 3.90897   2
   0  -6   2 163.910 4.02270   3
  -1   6  -2 5.09315 0.97086   2
   1  -6   2 4.37138 0.91240   3
  -2   6  -2 215.018 3.54282   1
  -2   6  -2 204.838 4.39713   2
   2  -6   2 205.717 4.42755   3
   2  -6   2 212.990 3.38229   1
  -3   6  -2 389.438 6.26767   1
  -3   6  -2 384.204 6.95176   2
   3  -6   2 391.538 6.09869   1
   3  -6   2 393.762 7.22732   3
  -4   6  -2 0.53163 0.57079   2
  -4   6  -2 0.54497 0.62019   2
   4  -6   2 -0.4484 0.37765   1
   4  -6   2 0.79668 0.64858   3
  -5   6  -2 3.43508 1.20922   3
  -5   6  -2 2.86306 0.75459   2
   5  -6   2 2.97443 0.62423   1
  -6   6  -2 5.35326 1.65146   3
  -6   6  -2 2.78813 0.76396   2
   6  -6   2 2.67552 0.74219   1
  -7   6  -2 1.40644 1.80024   3
   7  -6   2 0.20814 0.82511   1
  -8   6  -2 2.07791 2.22855   3
   8  -6   2 3.57581 1.15733   1
  -9   6  -2 4.30400 2.93575   3
   8   5  -2 48.8968 2.83678   1
  -8  -5   2 40.7625 4.69759   3
   7   5  -2 1.03281 1.02472   1
   7   5  -2 2.37191 1.56415   2
  -7  -5   2 -3.7013 1.72710   3
   6   5  -2 3.42192 0.86369   1
   6   5  -2 3.04103 1.27225   2
  -6  -5   2 3.76150 1.59570   3
   5   5  -2 53.9027 1.74669   1
   5   5  -2 54.4149 2.44006   2
  -5  -5   2 59.4372 3.00084   3
   4   5  -2 151.248 3.76777   2
  -4  -5   2 142.333 4.14654   3
  -4  -5   2 145.745 3.05610   1
   3   5  -2 386.520 7.07136   2
   3   5  -2 383.546 5.76578   1
  -3  -5   2 379.011 5.88011   1
  -3  -5   2 374.066 7.35395   3
   2   5  -2 282.787 5.53906   2
  -2  -5   2 282.499 5.66783   3
   1   5  -2 53.2551 1.88727   2
  -1  -5   2 53.2068 1.89977   3
   0   5  -2 68.8755 2.17582   3
   0  -5   2 81.0334 2.31437   2
   0  -5   2 65.7167 2.02280   3
  -1   5  -2 513.289 8.53778   2
  -1   5  -2 512.288 8.61739   3
   1  -5   2 505.196 8.58650   2
   1  -5   2 505.923 8.51521   3
  -2   5  -2 279.014 4.37719   1
   2  -5   2 277.930 4.28698   1
   2  -5   2 266.795 5.15348   2
  -3   5  -2 21.0381 1.01801   1
  -3   5  -2 20.4498 1.01461   2
  -3   5  -2 19.8980 1.17199   2
   3  -5   2 20.4644 0.88673   1
   3  -5   2 21.0175 1.29425   3
  -4   5  -2 37.2055 2.22457   3
  -4   5  -2 35.4653 1.27492   2
  -4   5  -2 36.9143 1.43727   2
   4  -5   2 37.9295 1.35751   1
  -5   5  -2 6.56421 0.95310   2
  -5   5  -2 5.91268 1.33717   3
  -5   5  -2 5.59891 0.86903   2
   5  -5   2 4.91718 0.90234   1
  -6   5  -2 152.298 2.88181   2
  -6   5  -2 154.161 5.03945   3
  -6   5  -2 147.420 2.80399   2
   6  -5   2 154.681 3.54041   1
  -7   5  -2 5.77303 1.94141   3
   7  -5   2 4.53552 0.97023   1
  -8   5  -2 -1.9774 2.10201   3
   8  -5   2 1.49601 0.93107   1
  -9   5  -2 -0.2592 2.57590   3
   9  -5   2 1.98866 1.35073   1
  -8  -4   2 156.708 5.95559   3
   7   4  -2 249.489 5.15147   1
   7   4  -2 252.507 5.37261   2
  -7  -4   2 241.575 6.85091   3
   6   4  -2 30.6193 1.59105   1
   6   4  -2 32.4183 2.04989   2
  -6  -4   2 26.8633 2.66954   3
   5   4  -2 2.57774 0.55706   1
   5   4  -2 1.62842 0.79227   2
  -5  -4   2 2.10760 1.11564   3
   4   4  -2 312.154 5.88117   2
  -4  -4   2 317.090 5.31862   1
  -4  -4   2 312.590 6.57129   3
   3   4  -2 325.810 5.89816   2
   3   4  -2 323.773 4.99536   1
  -3  -4   2 323.959 5.12257   1
  -3  -4   2 319.500 6.32358   3
  -3  -4   2 321.783 6.02880   2
   2   4  -2 7.62773 1.06419   3
   2   4  -2 7.46178 0.40903   1
   2   4  -2 8.17162 0.85203   2
  -2  -4   2 8.69296 0.51066   1
  -2  -4   2 6.43052 0.94306   2
  -2  -4   2 6.80143 0.92462   3
   1   4  -2 326.075 5.85217   3
   1   4  -2 324.727 5.75589   2
  -1  -4   2 319.881 5.87338   3
  -1  -4   2 324.940 5.80887   2
   0   4  -2 131.353 2.89074   2
   0   4  -2 133.146 2.85245   3
   0  -4   2 129.233 2.78084   3
   0  -4   2 129.028 2.89719   2
  -1   4  -2 250.549 4.71036   2
  -1   4  -2 265.009 3.89998   1
  -1   4  -2 264.238 4.76488   3
   1  -4   2 263.830 4.77744   2
   1  -4   2 258.417 4.70470   3
   1  -4   2 264.656 3.86551   1
  -2   4  -2 48.4143 1.33030   2
  -2   4  -2 49.2672 1.52463   2
  -2   4  -2 50.1256 1.21096   1
  -2   4  -2 51.1619 1.58834   3
   2  -4   2 49.3450 1.16092   1
   2  -4   2 50.6077 1.58750   2
  -3   4  -2 0.25958 0.35956   2
  -3   4  -2 -0.1067 0.31036   2
  -3   4  -2 0.02920 0.30854   1
   3  -4   2 0.23403 0.40822   3
   3  -4   2 0.31708 0.26818   1
  -4   4  -2 1.70700 0.83379   3
  -4   4  -2 2.34890 0.43065   2
  -4   4  -2 2.13467 0.47789   2
   4  -4   2 1.55116 0.43108   1
  -5   4  -2 -0.9681 0.99396   3
  -5   4  -2 0.27414 0.41454   2
  -5   4  -2 -0.3336 0.36185   2
   5  -4   2 0.06827 0.42601   1
  -6   4  -2 27.6809 2.60290   3
   6  -4   2 29.6018 1.57915   1
  -7   4  -2 18.6297 2.75940   3
   7  -4   2 19.3757 1.65142   1
  -8   4  -2 8.79100 2.36918   3
   8  -4   2 9.40989 1.81000   1
  -9   4  -2 12.1547 3.34666   3
   9  -4   2 8.54499 1.52982   1
   9   3  -2 12.4471 2.62296   1
  -9  -3   2 18.3706 4.25306   3
   8   3  -2 3.91742 1.07369   1
  -8  -3   2 5.51036 2.28696   3
   7   3  -2 2.85083 1.07768   2
   7   3  -2 4.88811 0.96598   1
  -7  -3   2 3.49392 1.66623   3
   6   3  -2 391.321 6.68242   2
   6   3  -2 398.692 6.82398   1
   6   3  -2 396.833 6.89745   2
   5   3  -2 554.612 8.70962   1
   5   3  -2 566.005 9.08265   2
  -5  -3   2 541.924 10.3282   3
  -5  -3   2 552.034 9.22769   2
   4   3  -2 235.325 4.21135   1
   4   3  -2 240.919 4.52940   2
  -4  -3   2 238.584 5.27327   3
  -4  -3   2 239.812 4.27898   1
  -4  -3   2 241.969 4.66931   2
   3   3  -2 50.3247 1.60851   2
   3   3  -2 49.0739 1.22699   1
  -3  -3   2 51.9900 1.70367   2
  -3  -3   2 49.1944 1.89273   3
  -3  -3   2 49.8654 1.33944   1
   2   3  -2 0.89390 0.35536   2
   2   3  -2 1.56537 0.29130   1
   2   3  -2 1.17766 0.45776   3
  -2  -3   2 0.84138 0.23101   1
  -2  -3   2 0.85545 0.38933   2
  -2  -3   2 0.58817 0.33819   3
   1   3  -2 120.425 2.59530   2
  -1  -3   2 124.425 2.59990   3
  -1  -3   2 123.748 2.64722   2
   0   3  -2 28.5836 1.01996   3
   0  -3   2 29.4644 1.07269   2
   0  -3   2 28.1490 0.99379   3
  -1   3  -2 1241.91 18.4477   3
  -1   3  -2 1261.05 18.0324   2
  -1   3  -2 1203.71 17.1285   1
  -1   3  -2 1227.34 18.2663   2
   1  -3   2 1224.22 17.1341   1
   1  -3   2 1240.60 18.4359   3
   1  -3   2 1268.29 18.3549   2
  -2   3  -2 98.0411 2.10464   2
  -2   3  -2 99.4977 1.92775   2
  -2   3  -2 97.6276 2.21700   3
  -2   3  -2 101.984 1.89896   1
   2  -3   2 96.3812 2.18573   3
   2  -3   2 100.537 1.88564   1
  -3   3  -2 88.8409 2.23564   3
  -3   3  -2 94.4060 1.97520   2
  -3   3  -2 89.6426 1.81165   2
  -3   3  -2 92.3118 1.99058   1
   3  -3   2 93.5615 1.97912   1
  -4   3  -2 44.5877 2.12622   3
  -4   3  -2 45.3886 1.21021   2
   4  -3   2 43.3827 1.42691   1
  -5   3  -2 79.7311 3.15485   3
   5  -3   2 79.1222 2.18779   1
  -6   3  -2 -0.2499 1.15023   3
   6  -3   2 1.16763 0.61789   1
  -7   3  -2 1.76132 1.59816   3
   7  -3   2 2.44220 0.76006   1
  -8   3  -2 23.0650 3.68343   3
   8  -3   2 31.0462 2.08404   1
  -9   3  -2 38.0710 5.18871   3
   9  -3   2 35.1215 2.70828   1
   9   2  -2 20.2451 2.48688   1
  -9  -2   2 26.8961 4.35337   3
   8   2  -2 61.3163 2.61122   1
  -8  -2   2 67.4859 4.23033   3
   7   2  -2 2.09592 0.88325   2
   7   2  -2 0.57834 0.69983   1
   6   2  -2 7.47008 0.99438   2
   6   2  -2 7.83318 1.05995   1
   6   2  -2 9.38302 1.16022   2
   5   2  -2 277.928 4.54460   2
   5   2  -2 258.958 4.65794   2
   5   2  -2 264.647 4.77813   1
  -5  -2   2 272.635 6.03775   3
   4   2  -2 1124.97 16.5225   1
   4   2  -2 1164.67 17.0400   2
  -4  -2   2 1158.28 17.1703   2
  -4  -2   2 1153.47 16.6770   1
  -4  -2   2 1144.50 18.3001   3
   3   2  -2 131.860 2.54691   2
   3   2  -2 120.630 2.31190   1
   3   2  -2 119.793 3.03366   3
  -3  -2   2 120.548 2.38814   1
  -3  -2   2 127.453 2.59818   2
   2   2  -2 58.8748 1.20880   1
   2   2  -2 57.7423 1.46365   2
   2   2  -2 59.3549 1.71083   3
  -2  -2   2 58.1750 1.49368   2
  -2  -2   2 55.7033 1.64158   3
   1   2  -2 217.462 3.80553   2
   1   2  -2 219.691 3.62844   2
   1   2  -2 223.798 3.27205   1
   1   2  -2 223.168 3.85831   3
  -1  -2   2 218.201 3.83266   3
  -1  -2   2 220.342 3.82603   2
  -1  -2   2 220.303 3.32620   1
   0   2  -2 6.99088 0.33037   1
   0   2  -2 6.98010 0.44528   3
   0   2  -2 7.45870 0.25150   1
   0   2  -2 6.97698 0.49074   2
   0  -2   2 6.32357 0.42813   3
  -1   2  -2 806.327 11.0209   1
  -1   2  -2 782.882 11.5290   2
  -1   2  -2 777.667 11.7727   3
   1  -2   2 773.202 11.4959   2
   1  -2   2 795.888 11.0478   1
   1  -2   2 775.417 11.7531   3
  -2   2  -2 371.854 5.68217   2
  -2   2  -2 380.918 5.62886   1
  -2   2  -2 367.653 6.02312   3
  -2   2  -2 359.240 6.35366   3
   2  -2   2 372.227 5.65131   1
   2  -2   2 374.708 5.66490   2
  -3   2  -2 2.56185 0.38126   2
  -3   2  -2 3.32301 0.53467   3
  -3   2  -2 1.94607 0.42430   1
  -3   2  -2 1.86711 0.52576   3
   3  -2   2 2.10065 0.42899   1
   3  -2   2 2.37788 0.33761   2
  -4   2  -2 23.5064 0.81005   2
  -4   2  -2 23.3036 1.67169   3
   4  -2   2 23.1281 1.07325   1
   4  -2   2 24.1371 0.70011   2
  -5   2  -2 284.011 6.38281   3
   5  -2   2 282.466 5.17967   1
  -6   2  -2 125.678 4.31270   3
  -7   2  -2 32.7911 3.07119   3
  -8   2  -2 10.0327 2.39097   3
   8  -2   2 7.86803 1.80648   1
  -9   2  -2 55.3268 5.45719   3
   9  -2   2 53.7207 3.05561   1
   9   1  -2 54.4396 2.94225   1
  -9  -1   2 51.5971 4.80123   3
   8   1  -2 15.5334 1.73032   1
  -8  -1   2 18.5487 3.30023   3
   7   1  -2 22.2178 1.52044   1
   6   1  -2 229.149 4.47616   1
  -6  -1   2 226.151 5.80617   3
   5   1  -2 192.284 3.72539   1
   5   1  -2 187.426 3.28206   2
  -5  -1   2 199.057 4.85375   3
   4   1  -2 55.0945 1.32406   2
   4   1  -2 54.3580 1.52376   1
  -4  -1   2 55.1301 2.15847   3
  -4  -1   2 56.8129 1.62480   1
   3   1  -2 3.58552 0.46565   2
   3   1  -2 4.49792 0.38169   2
   3   1  -2 4.30883 0.42960   1
   3   1  -2 4.59376 0.86353   3
  -3  -1   2 4.68649 0.80501   3
  -3  -1   2 4.90224 0.53279   1
   2   1  -2 24.6921 0.67784   2
   2   1  -2 23.9055 0.73425   1
   2   1  -2 23.3983 0.77930   2
  -2  -1   2 24.0908 1.02511   3
  -2  -1   2 24.5033 0.77198   1
   1   1  -2 104.016 1.96801   3
   1   1  -2 103.099 1.80861   2
   1   1  -2 100.016 1.75003   1
  -1  -1   2 99.7938 1.76419   1
  -1  -1   2 100.911 1.94463   3
  -1  -1   2 101.869 1.80375   2
   0   1  -2 158.108 2.51492   3
   0   1  -2 161.710 2.57617   2
   0   1  -2 156.253 2.51710   1
   0  -1   2 154.059 2.55915   2
   0  -1   2 154.811 2.50105   3
  -1   1  -2 282.035 4.39826   3
  -1   1  -2 288.417 4.21613   1
  -1   1  -2 281.274 4.34381   2
  -1   1  -2 275.038 4.56229   3
   1  -1   2 275.860 4.32435   2
   1  -1   2 283.471 4.23589   1
  -2   1  -2 230.083 3.68382   1
  -2   1  -2 225.900 4.21137   3
  -2   1  -2 231.255 3.68420   2
   2  -1   2 230.801 3.63873   2
   2  -1   2 228.388 4.16968   3
   2  -1   2 231.554 3.73471   1
  -3   1  -2 75.6552 1.72407   1
  -3   1  -2 78.1231 2.23837   3
  -3   1  -2 76.6810 1.58343   2
   3  -1   2 76.1325 1.48968   2
   3  -1   2 76.4011 1.76911   1
   3  -1   2 74.5647 2.14529   3
  -4   1  -2 321.139 6.47680   3
  -4   1  -2 333.733 5.17303   2
   4  -1   2 327.572 5.04813   2
   4  -1   2 322.535 5.52490   1
  -5   1  -2 8.66935 1.75276   3
  -5   1  -2 10.1245 0.72825   2
   5  -1   2 10.2675 0.98456   1
  -6   1  -2 1.22609 1.17763   3
   6  -1   2 2.41081 0.63847   1
  -7   1  -2 217.780 6.37603   3
   7  -1   2 218.918 4.85675   1
  -8   1  -2 123.803 5.46814   3
   8  -1   2 125.915 3.78652   1
  -9   1  -2 53.2032 5.13547   3
   9  -1   2 46.2105 2.94960   1
  10   0  -2 20.0110 2.85761   1
 -10   0   2 23.0997 5.26935   3
   9   0  -2 18.7899 2.11717   1
  -9   0   2 23.7172 4.08778   3
   8   0  -2 31.5371 1.98331   1
  -8   0   2 35.4186 3.46359   3
   7   0  -2 122.968 3.20518   1
   6   0  -2 174.209 3.67104   1
  -6   0   2 166.807 4.83324   3
   5   0  -2 98.9020 2.40455   1
   4   0  -2 5.31705 1.10335   3
   4   0  -2 5.38256 0.65197   1
  -4   0   2 4.49934 0.73392   1
  -4   0   2 5.35775 1.06585   3
   3   0  -2 43.2036 0.94632   2
   3   0  -2 45.8916 1.57492   3
  -3   0   2 41.3003 1.51540   3
  -3   0   2 43.3688 1.23950   1
   2   0  -2 1.54928 0.33085   1
   2   0  -2 1.92478 0.39478   3
  -2   0   2 1.44278 0.22690   2
  -2   0   2 1.41480 0.35402   3
  -2   0   2 1.49115 0.36792   1
   1   0  -2 3.39732 0.33505   3
   1   0  -2 2.74108 0.33257   1
   1   0  -2 2.84341 0.28956   2
  -1   0   2 3.13577 0.32722   3
  -1   0   2 3.36563 0.36150   1
  -1   0   2 2.82590 0.27764   2
   0   0  -2 9.61190 0.44718   1
   0   0   2 8.84641 0.39036   2
  -1   0  -2 202.249 3.43140   3
  -1   0  -2 205.460 3.22697   1
  -1   0  -2 204.933 3.39189   2
   1   0   2 207.118 3.37288   2
   1   0   2 206.950 3.25298   1
   1   0   2 200.898 3.42671   3
  -2   0  -2 1075.08 15.0626   1
  -2   0  -2 1050.07 16.1002   3
   2   0   2 1068.51 15.5103   2
   2   0   2 1067.24 15.1155   1
   2   0   2 1058.74 16.1140   3
  -3   0  -2 33.5604 1.06976   2
  -3   0  -2 33.9512 1.07831   1
  -3   0  -2 32.7080 1.42119   3
   3   0   2 32.0518 1.47988   3
   3   0   2 33.7152 1.02181   2
  -4   0  -2 113.761 2.27059   2
  -4   0  -2 110.527 3.21218   3
   4   0   2 109.403 2.19034   2
   4   0   2 105.729 2.48629   1
  -5   0  -2 75.0703 1.84241   2
  -5   0  -2 77.1758 3.00149   3
   5   0   2 71.5165 2.16522   1
   5   0   2 73.3272 1.71959   2
  -6   0  -2 33.6606 2.76861   3
  -6   0  -2 30.3675 1.36520   2
   6   0   2 31.0145 1.13135   2
   6   0   2 33.4058 1.65078   1
  -7   0  -2 35.3756 3.25932   3
   7   0   2 39.1437 2.07042   1
  -8   0  -2 53.3713 4.42080   3
   8   0   2 55.8657 2.76403   1
  -9   0  -2 95.0959 5.99198   3
   9   0   2 99.7963 3.83963   1
  10  -1  -2 4.13574 1.46993   1
 -10   1   2 9.03880 3.32951   3
   9  -1  -2 13.5481 1.95924   1
  -9   1   2 10.0167 2.72592   3
   8  -1  -2 39.6269 2.10178   1
  -8   1   2 43.1978 3.74956   3
   7  -1  -2 102.290 2.87024   1
   6  -1  -2 31.4623 1.51474   1
  -6   1   2 35.5739 2.30151   3
   5  -1  -2 58.7117 1.79900   1
   4  -1  -2 32.4631 1.52851   3
  -4   1   2 33.3479 1.28892   1
  -4   1   2 33.0945 1.69654   3
   3  -1  -2 9.21667 0.86265   3
   3  -1  -2 8.36956 0.43580   2
   3  -1  -2 8.02235 0.57150   1
  -3   1   2 8.58989 0.67414   1
  -3   1   2 8.74067 0.81825   3
  -3   1   2 8.30429 0.36457   2
   2  -1  -2 19.4578 0.86121   3
   2  -1  -2 19.8064 0.65173   2
   2  -1  -2 20.1530 0.73818   1
  -2   1   2 20.8399 0.78784   1
  -2   1   2 19.8958 0.90859   3
  -2   1   2 19.4060 0.62068   2
   1  -1  -2 716.533 10.4267   3
   1  -1  -2 706.033 10.4830   2
   1  -1  -2 710.314 10.1945   1
  -1   1   2 705.613 10.4559   3
  -1   1   2 696.191 10.4776   2
  -1   1   2 726.601 10.2363   1
   0  -1  -2 86.2838 1.70547   1
   0  -1  -2 87.7459 1.49570   3
   0   1   2 87.8381 1.51424   3
   0   1   2 85.5961 1.69912   1
  -1  -1  -2 1614.11 23.4363   3
  -1  -1  -2 1638.56 22.5932   1
  -1  -1  -2 1637.23 23.2547   2
  -1  -1  -2 1567.43 22.2575   1
   1   1   2 1628.45 23.2782   2
   1   1   2 1538.74 22.7411   1
   1   1   2 1612.28 23.4613   3
  -2  -1  -2 759.969 11.9105   3
  -2  -1  -2 770.861 11.0627   1
  -2  -1  -2 770.589 11.5631   2
   2   1   2 759.538 11.5836   2
   2   1   2 766.842 11.1141   1
   2   1   2 769.148 11.9842   3
  -3  -1  -2 482.790 7.40597   1
  -3  -1  -2 489.582 7.64050   2
  -3  -1  -2 486.112 8.27870   3
   3   1   2 479.522 7.66132   2
   3   1   2 470.787 7.53973   1
   3   1   2 476.956 8.34120   3
  -4  -1  -2 101.780 2.31101   2
  -4  -1  -2 98.0025 3.03779   3
   4   1   2 96.2896 2.26775   2
   4   1   2 91.9674 2.29089   1
  -5  -1  -2 9.28980 1.84150   3
  -5  -1  -2 9.04712 1.19931   2
   5   1   2 12.3544 1.09376   2
   5   1   2 9.33300 0.98483   1
  -6  -1  -2 112.649 2.84997   2
  -6  -1  -2 114.695 4.17596   3
   6   1   2 117.105 2.62776   2
   6   1   2 118.280 3.12546   1
  -7  -1  -2 150.445 5.22507   3
   7   1   2 141.863 3.08206   2
   7   1   2 151.686 3.91069   1
  -8  -1  -2 12.0208 2.65725   3
   8   1   2 14.0582 1.99082   1
  -9  -1  -2 7.13914 3.05987   3
   9   1   2 2.89515 1.47628   1
  10  -2  -2 33.8538 2.79304   1
 -10   2   2 38.9258 5.55666   3
   9  -2  -2 19.6242 2.11656   1
  -9   2   2 16.0002 3.04860   3
   8  -2  -2 50.8522 2.28280   1
  -8   2   2 51.8904 3.79161   3
   6  -2  -2 8.37143 1.08421   1
  -6   2   2 9.69425 1.91004   3
   5  -2  -2 26.3524 1.26102   1
  -5   2   2 27.2568 1.93816   3
   4  -2  -2 1.23900 0.62679   3
   4  -2  -2 1.05319 0.31229   1
  -4   2   2 1.13607 0.68898   3
  -4   2   2 0.85705 0.46031   1
   3  -2  -2 463.388 7.24746   1
   3  -2  -2 462.937 7.09486   2
  -3   2   2 470.905 8.06097   3
  -3   2   2 467.436 7.12751   2
  -3   2   2 473.538 7.59077   3
  -3   2   2 483.440 7.38515   1
   2  -2  -2 635.750 9.33210   1
   2  -2  -2 617.026 9.55556   2
  -2   2   2 632.645 10.0078   3
  -2   2   2 649.747 9.71757   3
  -2   2   2 642.200 9.40385   1
  -2   2   2 623.283 9.55014   2
   1  -2  -2 102.936 1.98892   1
   1  -2  -2 103.241 1.95196   3
   1  -2  -2 101.954 2.11735   2
  -1   2   2 106.401 2.03336   1
  -1   2   2 102.991 2.16438   2
  -1   2   2 103.296 1.96561   3
   0  -2  -2 12.6534 0.56290   3
   0  -2  -2 11.8434 0.59180   1
   0  -2  -2 12.6074 0.72741   2
   0   2   2 12.8157 0.57462   3
   0   2   2 12.4785 0.79368   2
   0   2   2 11.6752 0.61596   1
  -1  -2  -2 220.331 3.52956   1
  -1  -2  -2 219.825 3.84181   1
  -1  -2  -2 228.942 4.02030   2
  -1  -2  -2 226.913 3.89768   3
   1   2   2 215.448 3.90990   3
   1   2   2 216.660 4.02870   2
  -2  -2  -2 285.248 5.09011   3
  -2  -2  -2 282.203 5.13270   2
  -2  -2  -2 285.493 4.50736   1
   2   2   2 276.294 4.98311   2
   2   2   2 281.399 4.55699   1
   2   2   2 276.118 5.14458   3
  -3  -2  -2 577.943 9.17562   2
  -3  -2  -2 570.067 9.65771   3
  -3  -2  -2 565.298 8.65501   1
   3   2   2 574.522 8.74010   1
   3   2   2 567.397 9.79613   3
   3   2   2 568.429 9.21499   2
  -4  -2  -2 134.955 3.62695   3
  -4  -2  -2 133.902 3.10522   2
   4   2   2 138.271 3.26382   2
   4   2   2 134.286 2.94139   1
  -5  -2  -2 171.618 3.83433   2
  -5  -2  -2 170.586 4.58843   3
   5   2   2 172.567 3.72818   1
   5   2   2 175.851 3.77096   2
   6   2   2 133.798 3.28535   2
   6   2   2 134.414 3.51325   1
  -7  -2  -2 72.9097 4.06758   3
   7   2   2 69.1926 2.41227   2
   7   2   2 62.3552 2.67030   1
  -8  -2  -2 28.8396 4.10204   3
   8   2   2 25.9364 2.49573   1
  10  -3  -2 2.19137 1.27646   1
 -10   3   2 0.89547 3.15747   3
   9  -3  -2 12.6742 2.08937   1
  -9   3   2 17.1297 3.94568   3
   8  -3  -2 37.9058 2.07071   1
  -8   3   2 40.2084 3.64989   3
   6  -3  -2 0.96182 0.52374   1
  -6   3   2 0.18385 0.99395   3
   5  -3  -2 77.1116 2.11485   1
  -5   3   2 79.9749 3.02745   3
   4  -3  -2 100.528 1.99706   2
   4  -3  -2 95.9860 2.27259   1
  -4   3   2 96.7361 2.97082   3
  -4   3   2 98.7043 2.01024   2
   3  -3  -2 350.858 5.75407   1
   3  -3  -2 358.532 5.78355   2
  -3   3   2 364.620 5.91769   1
  -3   3   2 354.739 5.83483   2
  -3   3   2 352.675 6.57700   3
  -3   3   2 366.371 6.14204   3
   2  -3  -2 779.398 11.8285   2
   2  -3  -2 770.246 11.3736   1
   2  -3  -2 785.960 11.9534   3
  -2   3   2 787.071 11.9844   3
  -2   3   2 771.596 11.9056   2
  -2   3   2 784.353 11.4811   1
   1  -3  -2 70.0462 1.77267   2
   1  -3  -2 71.9482 1.65972   3
   1  -3  -2 68.4673 1.57242   1
  -1   3   2 70.7454 1.67169   3
  -1   3   2 68.5108 1.82086   2
  -1   3   2 72.8479 1.66103   1
   0  -3  -2 160.051 3.22649   2
   0  -3  -2 164.903 2.93651   1
   0  -3  -2 158.147 3.01727   3
   0   3   2 162.637 2.94851   1
   0   3   2 157.609 3.28026   2
   0   3   2 163.787 3.07482   3
  -1  -3  -2 313.784 4.84806   1
  -1  -3  -2 318.802 5.55945   2
  -1  -3  -2 317.296 5.17868   1
  -1  -3  -2 319.967 5.42305   3
   1   3   2 303.172 5.57889   2
   1   3   2 307.152 5.50071   3
  -2  -3  -2 155.827 3.39084   3
  -2  -3  -2 161.326 3.41111   2
  -2  -3  -2 158.703 2.84102   1
  -2  -3  -2 157.046 3.24326   1
   2   3   2 152.000 3.48853   3
   2   3   2 157.058 3.47994   2
  -3  -3  -2 382.751 6.23509   1
  -3  -3  -2 391.381 7.18114   3
   3   3   2 391.473 6.97084   2
   3   3   2 393.977 6.31653   1
  -4  -3  -2 61.9235 2.57649   3
   4   3   2 63.3522 1.93379   1
   4   3   2 65.9310 2.33672   2
  -5  -3  -2 177.324 4.84600   3
   5   3   2 180.426 4.23791   2
   5   3   2 181.434 3.89114   1
  -6  -3  -2 117.876 4.26789   3
   6   3   2 117.859 3.26369   1
   6   3   2 119.333 3.43004   2
  -7  -3  -2 49.1143 3.82834   3
   7   3   2 48.8568 2.75281   2
   7   3   2 51.3062 2.60603   1
  -8  -3  -2 12.4879 2.75963   3
   8   3   2 20.7369 2.80329   1
  10  -4  -2 23.4498 2.68283   1
 -10   4   2 23.1089 5.21747   3
   9  -4  -2 3.89413 1.12094   1
  -9   4   2 6.89029 2.46654   3
   8  -4  -2 0.43756 0.82361   1
   6  -4  -2 0.79430 0.59766   1
  -6   4   2 1.49737 1.10113   3
   5  -4  -2 31.6514 1.40854   1
   5  -4  -2 30.7140 1.14950   2
  -5   4   2 32.2327 1.17380   2
  -5   4   2 29.4425 2.12949   3
   4  -4  -2 16.3691 1.00396   2
   4  -4  -2 17.8823 1.01278   1
  -4   4   2 18.2706 1.09970   2
  -4   4   2 18.4117 1.63311   3
   3  -4  -2 413.851 6.87565   2
   3  -4  -2 397.511 6.67876   1
   3  -4  -2 434.092 7.16364   3
  -3   4   2 420.687 7.15308   3
  -3   4   2 429.104 6.86351   1
  -3   4   2 409.348 6.96325   2
   2  -4  -2 1217.13 18.3459   2
   2  -4  -2 1251.89 18.5366   3
   2  -4  -2 1215.36 17.4816   1
  -2   4   2 1203.08 18.4393   2
  -2   4   2 1231.71 17.6364   1
  -2   4   2 1226.83 18.5711   3
   1  -4  -2 75.7246 1.91608   3
   1  -4  -2 73.4206 1.73066   1
   1  -4  -2 77.5861 2.09958   2
  -1   4   2 77.4009 1.82676   1
  -1   4   2 76.5239 1.98395   3
  -1   4   2 73.6822 2.22485   2
   0  -4  -2 57.4651 1.82846   2
   0  -4  -2 55.4340 1.61109   3
   0  -4  -2 56.4588 1.48256   1
   0   4   2 58.0503 1.73284   3
   0   4   2 55.2232 1.92066   2
   0   4   2 54.8037 1.54821   1
  -1  -4  -2 203.090 3.37057   1
  -1  -4  -2 202.936 3.72337   1
   1   4   2 198.429 4.26136   2
   1   4   2 200.980 4.14646   3
  -2  -4  -2 407.820 6.81797   1
  -2  -4  -2 408.370 6.33024   1
  -2  -4  -2 413.768 7.30770   3
   2   4   2 401.702 7.35264   2
  -3  -4  -2 210.264 4.33677   1
  -3  -4  -2 208.550 4.70385   3
   3   4   2 210.572 4.67040   2
  -4  -4  -2 16.0323 1.88779   3
   4   4   2 16.5731 1.68957   2
   4   4   2 16.3180 1.14416   1
  -5  -4  -2 151.888 4.66396   3
   5   4   2 158.082 4.17120   2
   5   4   2 152.253 3.53778   1
  -6  -4  -2 45.1433 3.48395   3
   6   4   2 51.6079 2.30293   1
   6   4   2 51.1664 2.90017   2
  -7  -4  -2 21.2800 3.65459   3
   7   4   2 30.5486 2.36828   1
   7   4   2 30.3796 2.95979   2
  -8  -4  -2 18.0341 3.39194   3
   8   4   2 18.5862 2.99459   1
  10  -5  -2 0.59209 1.39318   1
 -10   5   2 2.76773 3.27426   3
   9  -5  -2 10.1817 2.06847   1
  -9   5   2 14.5908 2.91580   3
   8  -5  -2 16.6820 1.78880   1
  -8   5   2 13.6462 3.15146   3
   7  -5  -2 0.11654 0.76036   1
  -7   5   2 -0.6426 1.42103   3
   6  -5  -2 50.2378 1.95412   1
   6  -5  -2 51.5520 1.67702   2
  -6   5   2 49.3862 1.56551   2
  -6   5   2 51.7739 3.07335   3
   5  -5  -2 25.7760 1.39716   2
   5  -5  -2 26.7682 1.36029   1
  -5   5   2 27.4084 1.42749   2
  -5   5   2 24.2003 2.18999   3
   4  -5  -2 164.026 3.47980   2
   4  -5  -2 167.256 3.37381   1
  -4   5   2 160.976 4.32772   3
   3  -5  -2 180.599 3.44283   1
   3  -5  -2 182.644 3.85746   2
   3  -5  -2 179.523 3.88259   3
  -3   5   2 183.153 3.90741   2
  -3   5   2 185.850 3.72103   1
   2  -5  -2 3.49537 0.65068   3
   2  -5  -2 4.21099 0.66499   1
  -2   5   2 3.59099 0.79812   2
  -2   5   2 2.96316 0.56654   1
   1  -5  -2 110.485 2.29087   1
   1  -5  -2 108.928 2.64876   3
  -1   5   2 109.815 2.42641   1
  -1   5   2 113.544 2.80569   3
  -1   5   2 103.183 2.90914   2
   0  -5  -2 1268.39 19.0663   3
   0  -5  -2 1244.21 17.8024   1
   0   5   2 1241.06 19.3111   2
   0   5   2 1250.53 17.8657   1
   0   5   2 1208.08 19.2436   3
  -1  -5  -2 802.135 11.9077   1
  -1  -5  -2 798.667 12.8672   3
  -1  -5  -2 786.137 11.5004   1
   1   5   2 797.732 13.1236   2
  -2  -5  -2 143.578 2.77228   1
  -2  -5  -2 145.322 3.66289   3
   2   5   2 149.354 3.87202   2
  -3  -5  -2 9.99120 1.38496   1
  -3  -5  -2 10.8307 1.60010   3
   3   5   2 10.0910 1.65993   2
  -4  -5  -2 14.4001 2.09661   3
  -4  -5  -2 15.5650 1.86935   1
   4   5   2 14.2744 1.92065   2
  -5  -5  -2 102.333 3.97916   3
  -5  -5  -2 100.813 3.62042   1
   5   5   2 101.375 3.70083   2
  -6  -5  -2 36.8075 3.04822   1
  -6  -5  -2 39.0345 3.60671   3
  -7  -5  -2 29.0290 3.88979   1
  -7  -5  -2 18.7903 3.19850   3
   9  -6  -2 1.67616 1.17311   1
  -9   6   2 1.43006 2.50238   3
   8  -6  -2 38.8955 2.22761   1
  -8   6   2 32.8549 3.97711   3
   7  -6  -2 5.83121 1.01422   1
  -7   6   2 8.65999 2.12820   3
   6  -6  -2 6.97398 1.22157   1
   5  -6  -2 72.2171 2.16522   1
  -5   6   2 69.4413 3.34799   3
  -5   6   2 69.3297 2.32135   2
   4  -6  -2 177.485 3.57986   1
   4  -6  -2 179.475 4.13780   3
  -4   6   2 174.480 4.00918   2
   3  -6  -2 36.5557 1.36964   1
   3  -6  -2 35.7844 1.67797   3
  -3   6   2 37.1257 1.89896   2
  -3   6   2 35.3435 1.73061   1
   2  -6  -2 26.4163 1.13628   1
   2  -6  -2 24.8211 1.43337   3
  -2   6   2 24.9842 1.73288   2
  -2   6   2 24.9559 1.49889   1
   1  -6  -2 308.949 5.94034   3
   1  -6  -2 313.330 5.17132   1
  -1   6   2 312.620 6.34734   2
  -1   6   2 322.585 5.39018   1
   0  -6  -2 328.231 6.28799   3
   0  -6  -2 337.438 5.24300   1
   0  -6  -2 338.625 5.49271   1
   0   6   2 331.315 6.73792   2
  -1  -6  -2 519.147 9.11579   3
  -1  -6  -2 504.896 7.72018   1
  -1  -6  -2 518.595 8.12494   1
   1   6   2 519.051 9.49075   2
  -2  -6  -2 277.254 4.75481   1
  -2  -6  -2 289.178 6.02211   3
  -2  -6  -2 286.998 5.27005   1
   2   6   2 288.364 6.26944   2
  -3  -6  -2 31.7831 2.28058   3
  -3  -6  -2 33.1114 1.91188   1
   3   6   2 33.9791 2.23726   2
  -4  -6  -2 32.1599 2.53780   3
  -4  -6  -2 29.3054 2.25591   1
  -5  -6  -2 27.1151 2.60994   1
  -5  -6  -2 31.7866 3.05040   3
   5   6   2 28.5451 2.89057   2
  -6  -6  -2 2.46568 1.92956   1
  -6  -6  -2 2.80223 2.19798   3
   9  -7  -2 -0.5577 1.26435   1
  -9   7   2 0.08283 2.66766   3
   8  -7  -2 5.29064 1.13448   1
  -8   7   2 7.55071 2.37160   3
   7  -7  -2 54.3563 2.34578   1
  -7   7   2 46.4315 4.07660   3
   6  -7  -2 167.690 3.85430   1
  -6   7   2 160.961 3.91651   2
  -6   7   2 165.719 5.56417   3
   5  -7  -2 40.9944 1.73404   1
  -5   7   2 38.8366 2.09030   2
   4  -7  -2 97.5937 3.01135   3
   4  -7  -2 97.1992 2.48397   1
  -4   7   2 93.6298 3.04141   2
   3  -7  -2 120.871 2.64802   1
   3  -7  -2 120.974 3.34273   3
  -3   7   2 117.044 3.52846   2
   2  -7  -2 42.6955 1.43025   1
   2  -7  -2 43.0401 1.99472   3
  -2   7   2 42.2657 2.26916   2
  -2   7   2 41.6338 1.91188   1
   1  -7  -2 208.796 4.68838   3
   1  -7  -2 214.459 3.78448   1
  -1   7   2 207.172 4.07617   1
  -1   7   2 216.549 5.19280   2
   0  -7  -2 133.909 2.75947   1
   0  -7  -2 135.187 3.63753   3
   0  -7  -2 133.775 2.55514   1
  -1  -7  -2 136.059 2.67044   1
  -1  -7  -2 146.395 3.86566   3
  -1  -7  -2 142.873 3.03904   1
  -2  -7  -2 54.2143 2.08028   1
  -2  -7  -2 55.2557 2.72162   3
  -3  -7  -2 85.1892 3.48458   3
  -3  -7  -2 88.9682 2.90015   1
   3   7   2 88.8364 3.65843   2
  -4  -7  -2 101.245 3.48085   1
  -4  -7  -2 101.389 4.11453   3
   4   7   2 104.218 4.27365   2
  -5  -7  -2 24.4208 3.34408   3
   5   7   2 28.7136 3.43576   2
  -6  -7  -2 -0.6569 2.44094   3
   6   7   2 1.62188 2.49147   2
   8  -8  -2 79.2532 3.14154   1
  -8   8   2 80.6799 5.72524   3
   7  -8  -2 6.66561 1.22271   1
  -7   8   2 9.47291 2.51317   3
  -6   8   2 37.0323 2.40223   2
   5  -8  -2 118.136 2.95774   1
  -5   8   2 109.586 3.61063   2
  -5   8   2 112.869 4.61027   3
   4  -8  -2 161.918 3.44106   1
   4  -8  -2 160.428 4.28408   3
  -4   8   2 154.761 4.34425   2
   3  -8  -2 187.097 4.64834   3
   3  -8  -2 186.900 3.65304   1
  -3   8   2 189.632 4.94875   2
   2  -8  -2 277.447 5.94034   3
  -2   8   2 279.076 6.38620   2
   1  -8  -2 123.759 3.59997   3
   1  -8  -2 118.870 2.50915   1
  -1   8   2 119.792 3.98923   2
   0  -8  -2 2.66671 1.07585   3
   0  -8  -2 1.51462 0.63164   1
  -1  -8  -2 45.6959 1.78586   1
  -1  -8  -2 49.8861 2.67030   3
   1   8   2 52.4118 3.02593   2
  -2  -8  -2 18.0825 1.77438   1
  -2  -8  -2 18.1166 2.38316   3
   2   8   2 21.7769 2.89932   2
  -3  -8  -2 51.4740 3.30517   3
   3   8   2 56.4785 3.57213   2
  -4  -8  -2 44.5434 3.67924   3
   4   8   2 42.4278 3.65989   2
  -5  -8  -2 6.31074 2.33060   3
   5   8   2 7.00957 2.49853   2
   8  -9  -2 2.07033 1.29676   1
  -8   9   2 2.14337 2.97516   3
  -7   9   2 49.8646 4.85657   3
  -6   9   2 79.8742 3.52376   2
  -6   9   2 85.9055 4.89287   3
   5  -9  -2 36.7653 2.70029   3
   5  -9  -2 40.7062 1.97350   1
  -5   9   2 36.3772 2.75307   2
   4  -9  -2 61.1433 2.07257   1
   4  -9  -2 59.6636 2.88441   3
  -4   9   2 65.3725 3.29170   2
   3  -9  -2 107.089 2.60170   1
   3  -9  -2 104.552 3.60480   3
  -3   9   2 110.505 4.04329   2
   2  -9  -2 189.970 4.91485   3
  -2   9   2 195.114 5.48490   2
   1  -9  -2 210.929 5.32151   3
  -1   9   2 216.585 5.88641   2
   0  -9  -2 73.4313 3.19039   3
   0   9   2 77.2120 3.76854   2
  -1  -9  -2 19.5384 2.69511   3
   1   9   2 25.5422 3.06302   2
  -2  -9  -2 -0.5012 1.52563   3
   2   9   2 0.72848 1.59466   2
  -3  -9  -2 7.91677 1.98821   3
   3   9   2 8.89009 2.10816   2
  -4  -9  -2 5.09020 2.38592   3
   4   9   2 1.07050 2.37242   2
   7 -10  -2 25.6172 2.48430   1
  -7  10   2 19.0133 3.56680   3
   6 -10  -2 30.5817 2.18418   1
  -6  10   2 27.5230 4.38296   3
  -6  10   2 24.8559 3.38507   2
   5 -10  -2 20.2805 2.75031   3
   4 -10  -2 42.2283 2.83304   3
  -4  10   2 40.6269 3.27188   2
   3 -10  -2 105.018 3.94377   3
  -3  10   2 113.570 4.50667   2
   2 -10  -2 51.1437 3.09498   3
  -2  10   2 55.8726 3.58869   2
   1 -10  -2 22.3961 2.73579   3
  -1  10   2 31.7255 3.29570   2
   0 -10  -2 96.4202 3.88794   3
   0  10   2 93.3364 4.56377   2
  -1 -10  -2 68.0789 3.77366   3
   1  10   2 70.9686 4.28764   2
  -2 -10  -2 5.81523 2.13909   3
   2  10   2 7.11088 2.28365   2
   5 -11  -2 17.0510 3.06365   3
  -5  11   2 14.8269 2.45492   2
   4 -11  -2 7.97652 1.84074   3
  -4  11   2 5.12709 2.21190   2
   3 -11  -2 46.4859 3.33766   3
  -3  11   2 56.0304 3.97663   2
   2 -11  -2 49.1232 3.53911   3
  -2  11   2 51.2322 4.07264   2
   1 -11  -2 21.1816 3.24418   3
  -1  11   2 15.5131 3.46230   2
   0 -11  -2 1.34405 1.93293   3
   0  11   2 4.24846 1.92409   2
   1  12  -3 37.7935 4.43261   2
  -1 -12   3 35.4125 3.98273   3
   0  12  -3 43.6146 3.96661   2
   0 -12   3 39.1142 3.73655   3
  -1  12  -3 12.3472 2.32288   2
   1 -12   3 9.32675 2.33524   3
  -2  12  -3 14.7739 3.27965   2
   2 -12   3 16.6717 2.98578   3
  -3  12  -3 16.5395 3.23274   2
   3 -12   3 15.1325 3.03325   3
  -4  12  -3 14.3118 2.47921   2
   4 -12   3 14.2079 3.25079   3
   3  11  -3 8.47847 2.45948   2
  -3 -11   3 3.65803 2.19863   3
   2  11  -3 63.0167 4.18764   2
  -2 -11   3 64.0546 4.25000   3
   1  11  -3 112.699 4.78299   2
  -1 -11   3 106.984 4.64931   3
   0  11  -3 63.8248 3.81381   2
   0 -11   3 60.8205 3.54699   3
  -1  11  -3 49.2918 3.40721   2
   1 -11   3 47.4909 3.28412   3
  -2  11  -3 12.8255 2.59489   2
   2 -11   3 16.3812 2.56014   3
  -3  11  -3 1.29772 1.53661   2
   3 -11   3 1.17991 1.37815   3
  -4  11  -3 18.6757 2.67307   2
   4 -11   3 18.5576 2.67790   3
  -5  11  -3 25.6594 3.12063   2
   5 -11   3 26.3109 3.06481   3
  -6  11  -3 2.81517 3.06966   3
   4  10  -3 40.0295 4.40358   2
  -4 -10   3 40.0068 4.04441   3
   3  10  -3 0.58272 1.78726   2
  -3 -10   3 0.23385 1.76241   3
   2  10  -3 3.90686 1.53758   2
  -2 -10   3 0.13185 1.52783   3
   1  10  -3 155.275 5.14265   2
  -1 -10   3 154.952 5.05277   3
   0  10  -3 144.167 4.76649   2
   0 -10   3 144.076 4.59776   3
  -1  10  -3 33.8877 2.89154   2
  -2  10  -3 2.80464 1.50472   2
   2 -10   3 3.86629 1.36585   3
  -3  10  -3 25.7517 2.56400   2
   3 -10   3 32.1604 2.47977   3
  -4  10  -3 13.0075 2.22672   2
   4 -10   3 11.8813 2.22365   3
  -5  10  -3 3.97648 1.48301   2
   5 -10   3 4.03457 1.48999   3
  -6  10  -3 -0.2121 1.54808   2
  -6  10  -3 2.87914 2.43105   3
  -7  10  -3 4.96121 3.03896   3
   7 -10   3 12.3622 2.49122   1
   5   9  -3 5.73847 2.34787   2
  -5  -9   3 4.91939 2.29965   3
   4   9  -3 3.80483 1.75300   2
  -4  -9   3 5.14535 1.93145   3
   3   9  -3 92.7892 3.97098   2
  -3  -9   3 83.1714 3.88377   3
   2   9  -3 181.296 5.29981   2
  -2  -9   3 180.539 5.22129   3
  -1  -9   3 30.5493 2.44253   3
  -1   9  -3 58.4875 2.79984   2
  -2   9  -3 9.74953 1.76037   2
  -3   9  -3 34.6978 2.27681   2
  -4   9  -3 33.6186 2.21550   2
   4  -9   3 36.2469 1.56772   1
   4  -9   3 33.9767 2.41520   3
  -5   9  -3 -1.5336 1.04941   2
   5  -9   3 -0.0708 0.74380   1
   5  -9   3 0.13063 1.24044   3
  -6   9  -3 22.9105 3.95097   3
  -6   9  -3 22.6795 2.26108   2
  -7   9  -3 29.8628 4.69115   3
  -8   9  -3 4.83736 3.34661   3
   8  -9   3 0.79351 1.46781   1
   6   8  -3 43.1473 4.22180   2
  -6  -8   3 31.4747 4.17643   3
   5   8  -3 18.5854 3.26694   2
  -5  -8   3 10.8280 2.27030   3
   4   8  -3 39.8935 2.98256   2
  -4  -8   3 33.1685 2.89910   3
   3   8  -3 73.3461 3.29879   2
  -3  -8   3 69.5600 3.32695   3
  -1   8  -3 29.3264 1.93582   2
  -2   8  -3 8.40516 1.40043   2
  -3   8  -3 240.554 5.40548   2
  -3   8  -3 241.101 4.44102   1
   3  -8   3 252.156 4.15325   1
  -4   8  -3 2.14850 0.85278   2
   4  -8   3 2.96066 0.66563   1
  -5   8  -3 56.9036 3.71056   3
  -5   8  -3 54.8831 2.41535   2
   5  -8   3 53.5473 1.98983   1
  -6   8  -3 2.81002 1.09238   2
  -6   8  -3 4.67189 2.04472   3
  -7   8  -3 29.1625 4.35723   3
   7  -8   3 28.2270 2.21486   1
  -8   8  -3 26.0503 5.25531   3
   8  -8   3 17.8121 2.40089   1
  -7  -7   3 16.2434 2.94427   3
   6   7  -3 44.7562 3.67942   2
  -6  -7   3 47.3708 3.91604   3
   5   7  -3 23.2895 1.41347   1
   5   7  -3 18.7822 2.58561   2
  -5  -7   3 20.9926 2.77289   3
  -4  -7   3 41.3823 2.78369   3
   3   7  -3 175.716 4.60621   2
   2   7  -3 98.3513 3.19127   2
   1   7  -3 0.98829 0.70229   2
  -1  -7   3 0.88115 0.81382   3
   0   7  -3 12.4637 1.38006   2
   0  -7   3 13.1826 1.39136   3
  -1   7  -3 77.9234 2.64296   2
  -2   7  -3 2.61606 0.75046   2
  -2   7  -3 4.45610 0.80197   1
   2  -7   3 1.86755 0.35394   1
   2  -7   3 2.32657 0.81256   3
  -3   7  -3 0.48508 0.57798   1
  -3   7  -3 1.28089 0.70009   2
   3  -7   3 1.44110 0.46766   1
   3  -7   3 0.71778 0.74830   3
  -4   7  -3 35.0872 1.81435   2
   4  -7   3 32.7909 1.37858   1
   4  -7   3 32.2628 1.88265   3
  -5   7  -3 30.1957 1.77901   2
  -5   7  -3 34.6733 2.93360   3
   5  -7   3 34.6301 1.59235   1
  -6   7  -3 30.5317 3.35965   3
  -6   7  -3 33.5152 1.84734   2
  -7   7  -3 37.5600 4.12214   3
   7  -7   3 35.9328 2.18872   1
  -8   7  -3 3.04177 2.66619   3
   8  -7   3 4.43742 1.26192   1
  -8  -6   3 8.61845 2.91985   3
   7   6  -3 32.8977 2.19084   1
  -7  -6   3 33.7814 3.93499   3
   6   6  -3 6.82702 1.60867   2
   6   6  -3 11.4046 1.51095   1
  -6  -6   3 8.72747 1.88771   3
   5   6  -3 50.8107 1.70095   1
   5   6  -3 50.6404 2.64617   2
  -5  -6   3 52.6526 3.01419   3
   4   6  -3 151.366 2.84072   1
   4   6  -3 156.094 4.13029   2
  -4  -6   3 153.428 3.18618   1
   3   6  -3 45.8699 2.12480   2
  -3  -6   3 43.2778 2.28742   3
   2   6  -3 11.2458 1.33288   2
  -2  -6   3 11.4872 1.43770   3
   1   6  -3 10.7117 1.19768   2
  -1  -6   3 11.7429 1.29706   3
   0   6  -3 51.9161 2.03636   2
   0  -6   3 54.6770 2.01483   3
  -1   6  -3 32.1921 1.59704   2
   1  -6   3 29.4053 1.50541   3
  -2   6  -3 16.7997 1.22263   2
  -2   6  -3 16.6004 0.86778   1
   2  -6   3 16.6362 1.27059   3
   2  -6   3 16.6041 0.73729   1
  -3   6  -3 65.5163 1.76709   1
  -3   6  -3 64.7529 2.13355   2
   3  -6   3 61.4050 2.21858   3
  -4   6  -3 198.167 4.15518   2
   4  -6   3 202.029 3.79878   1
   4  -6   3 195.136 4.50900   3
  -5   6  -3 6.39356 1.25178   2
  -5   6  -3 8.89116 1.67955   3
  -5   6  -3 8.10922 1.12817   2
   5  -6   3 6.74928 1.07309   1
  -6   6  -3 29.0477 2.94440   3
  -6   6  -3 25.4897 1.49484   2
   6  -6   3 22.9920 1.54237   1
   7  -6   3 78.0245 2.79158   1
  -8   6  -3 38.9713 4.27857   3
   8  -6   3 31.8558 2.48656   1
  -9   6  -3 59.2146 6.12163   3
   9  -6   3 57.2929 3.23155   1
  -8  -5   3 7.58576 2.66375   3
   7   5  -3 4.18459 1.04701   1
   7   5  -3 2.08556 1.44402   2
  -7  -5   3 0.20277 1.95659   3
   6   5  -3 22.7286 2.15235   2
   6   5  -3 20.3587 1.49698   1
  -6  -5   3 20.0722 2.75290   3
   5   5  -3 83.7086 2.17145   1
   5   5  -3 85.0771 2.89386   2
   4   5  -3 23.9752 1.66494   2
   4   5  -3 23.4699 1.00115   1
  -4  -5   3 23.8322 1.41038   1
  -4  -5   3 22.5697 1.91086   3
   3   5  -3 75.5574 2.50355   2
   3   5  -3 79.4008 1.58493   1
  -3  -5   3 77.6296 1.78013   1
  -3  -5   3 77.2361 2.69514   3
   2   5  -3 1.02884 0.48987   2
  -2  -5   3 0.63811 0.58514   3
   1   5  -3 17.6268 1.19273   2
  -1  -5   3 14.7520 1.15400   3
   0   5  -3 28.3194 1.40806   2
   0  -5   3 28.7717 1.35206   3
  -1   5  -3 261.928 3.92454   1
  -1   5  -3 266.769 5.08740   2
  -1   5  -3 259.994 4.68982   2
   1  -5   3 260.850 3.90683   1
   1  -5   3 252.940 5.07800   2
  -2   5  -3 5.41332 0.55231   1
  -2   5  -3 4.16287 0.72343   2
  -2   5  -3 5.45860 0.84492   2
   2  -5   3 5.20735 0.86790   3
   2  -5   3 5.66273 0.49593   1
  -3   5  -3 11.0875 0.87249   1
  -3   5  -3 9.10815 0.88565   2
   3  -5   3 8.95347 1.04937   3
  -4   5  -3 30.2383 2.06325   3
  -4   5  -3 30.5276 1.41020   2
  -4   5  -3 29.5844 1.29531   2
   4  -5   3 30.3081 1.28866   1
  -5   5  -3 80.4663 3.42360   3
  -5   5  -3 84.7370 2.12903   2
  -5   5  -3 84.8382 2.18979   2
   5  -5   3 86.4223 2.37358   1
  -6   5  -3 61.3746 1.78956   2
  -6   5  -3 61.5237 3.54889   3
   6  -5   3 60.6785 2.16475   1
  -7   5  -3 53.1792 3.88588   3
   7  -5   3 50.7523 2.29275   1
  -8   5  -3 46.5973 4.46783   3
   8  -5   3 51.7729 2.65973   1
  -9   5  -3 66.5682 5.87109   3
   9  -5   3 72.1764 3.49157   1
   9   4  -3 7.14612 1.69754   1
  -9  -4   3 9.82071 2.86450   3
   8   4  -3 56.1187 2.69466   1
  -8  -4   3 61.2978 4.37295   3
   7   4  -3 46.8420 2.47479   2
   7   4  -3 40.9373 2.10643   1
  -7  -4   3 38.1692 3.32831   3
   6   4  -3 1.15559 0.65514   1
   6   4  -3 1.10069 0.94845   2
   5   4  -3 75.6427 2.49925   2
   5   4  -3 76.6206 2.01787   1
   4   4  -3 24.6460 1.18065   1
   4   4  -3 24.7826 1.44415   2
  -4  -4   3 24.8449 1.32118   1
  -4  -4   3 25.3634 1.83988   3
   3   4  -3 33.5844 1.48116   2
   3   4  -3 31.6266 0.94791   1
  -3  -4   3 32.5477 1.62142   2
  -3  -4   3 30.7738 1.11883   1
   2   4  -3 3.70235 0.70409   3
   2   4  -3 4.17487 0.38057   1
   2   4  -3 4.23109 0.79144   2
  -2  -4   3 4.15234 0.83843   3
  -2  -4   3 4.14366 0.91037   2
  -2  -4   3 4.95404 0.54904   1
   1   4  -3 182.066 3.76841   3
  -1  -4   3 173.931 3.88763   3
  -1  -4   3 190.731 3.84227   2
   0   4  -3 131.522 2.93631   2
   0   4  -3 132.275 2.85830   3
   0   4  -3 129.762 2.66020   2
   0  -4   3 126.421 2.76723   3
   0  -4   3 131.083 2.98807   2
  -1   4  -3 563.581 9.17649   2
  -1   4  -3 555.172 8.83031   2
  -1   4  -3 579.327 8.16362   1
  -1   4  -3 568.382 9.19058   3
   1  -4   3 578.478 8.14280   1
   1  -4   3 563.682 9.13911   3
  -2   4  -3 320.151 4.96220   1
  -2   4  -3 316.291 5.30516   2
  -2   4  -3 314.838 5.67406   3
  -2   4  -3 317.442 5.59647   2
   2  -4   3 326.971 4.99701   1
  -3   4  -3 217.057 3.87486   2
  -3   4  -3 220.788 4.12378   2
  -3   4  -3 220.190 3.85202   1
   3  -4   3 219.323 4.33267   3
  -4   4  -3 1.24566 0.44695   2
  -4   4  -3 2.39592 0.90527   3
  -4   4  -3 1.76288 0.50797   2
   4  -4   3 1.56893 0.47399   1
  -5   4  -3 264.947 4.50556   2
  -5   4  -3 260.206 6.32100   3
  -5   4  -3 268.857 4.62486   2
   5  -4   3 266.664 4.99712   1
  -6   4  -3 177.624 5.39642   3
   6  -4   3 180.858 4.03004   1
  -7   4  -3 11.4475 2.17872   3
   7  -4   3 13.8614 1.59999   1
  -8   4  -3 8.50752 2.51300   3
   8  -4   3 10.9713 1.89068   1
  -9   4  -3 44.6851 5.26228   3
   9  -4   3 45.7590 2.92003   1
   9   3  -3 6.95591 1.48447   1
  -9  -3   3 10.4211 2.66613   3
   8   3  -3 4.65179 1.15343   1
  -8  -3   3 3.43162 2.09012   3
   7   3  -3 10.7099 1.66520   2
   7   3  -3 10.0073 1.42908   1
  -7  -3   3 9.74930 2.15706   3
   6   3  -3 54.3820 1.97293   2
   6   3  -3 46.5804 1.84865   2
   6   3  -3 57.8174 1.98201   1
   5   3  -3 37.8627 1.50072   2
   5   3  -3 38.4982 1.43332   1
   5   3  -3 36.1380 1.64017   2
  -5  -3   3 35.8124 2.31454   3
   4   3  -3 27.3334 1.34600   2
   4   3  -3 25.1609 1.17006   2
  -4  -3   3 26.0393 1.25577   1
  -4  -3   3 28.2949 1.74563   3
   3   3  -3 19.6432 0.96662   2
   3   3  -3 22.4561 1.12984   2
   3   3  -3 21.6249 0.81142   1
  -3  -3   3 23.3784 1.36492   3
  -3  -3   3 20.6079 1.23706   2
  -3  -3   3 22.7995 0.96791   1
   2   3  -3 18.5532 0.62615   1
   2   3  -3 18.1877 0.93899   2
   2   3  -3 18.0995 0.81166   2
   2   3  -3 18.0351 1.07298   3
  -2  -3   3 20.4333 1.04656   3
  -2  -3   3 17.7148 1.02646   2
   1   3  -3 14.3388 0.71000   2
   1   3  -3 13.6249 0.82628   2
   1   3  -3 14.0809 0.81975   3
   1   3  -3 15.0493 0.51274   1
  -1  -3   3 14.4790 0.55281   1
  -1  -3   3 13.4650 0.77643   3
   0   3  -3 1320.34 18.2236   1
   0   3  -3 1295.63 19.4744   2
   0   3  -3 1338.94 19.5145   3
   0   3  -3 1301.20 18.0456   1
   0  -3   3 1294.40 19.4514   3
  -1   3  -3 30.2481 1.03845   3
  -1   3  -3 31.6499 1.13510   2
  -1   3  -3 30.1637 0.95719   2
  -1   3  -3 31.1194 0.78563   1
   1  -3   3 30.4589 0.79411   1
   1  -3   3 30.3140 1.04069   3
  -2   3  -3 243.450 4.42532   3
  -2   3  -3 246.992 4.16786   2
  -2   3  -3 252.017 4.43416   2
  -2   3  -3 254.236 4.00530   1
   2  -3   3 250.876 4.04863   1
   2  -3   3 238.022 4.38092   3
   2  -3   3 249.688 4.15338   2
  -3   3  -3 515.081 8.64587   3
  -3   3  -3 522.277 9.27588   3
  -3   3  -3 531.594 8.06238   1
  -3   3  -3 525.686 8.11938   2
  -3   3  -3 534.425 8.38055   2
   3  -3   3 532.942 8.08223   2
   3  -3   3 532.589 8.13295   1
  -4   3  -3 767.309 11.7678   2
  -4   3  -3 778.044 11.6103   2
  -4   3  -3 779.128 13.2471   3
   4  -3   3 774.446 11.7366   1
  -5   3  -3 692.162 10.3645   2
  -5   3  -3 675.773 12.4199   3
  -5   3  -3 690.920 10.4506   2
   5  -3   3 684.907 10.8117   1
  -6   3  -3 48.0942 3.03008   3
   6  -3   3 45.1784 1.93157   1
  -7   3  -3 55.2833 3.68760   3
   7  -3   3 51.3990 2.31930   1
  -8   3  -3 22.2531 3.86042   3
   8  -3   3 22.5747 2.10405   1
  -9   3  -3 10.3819 3.26546   3
   9  -3   3 9.50716 1.72371   1
   9   2  -3 2.02111 1.22328   1
  -9  -2   3 3.63986 2.42414   3
   8   2  -3 7.33175 1.65887   1
  -8  -2   3 6.74738 2.01051   3
   7   2  -3 20.5462 1.52576   2
   7   2  -3 24.3301 1.66017   1
   6   2  -3 53.1446 1.57490   2
   6   2  -3 51.6171 1.68657   2
   6   2  -3 54.8705 1.89982   1
   5   2  -3 2.96971 0.53152   2
   5   2  -3 2.83954 0.55668   1
   5   2  -3 2.80655 0.52166   2
  -5  -2   3 2.60324 1.05606   3
   4   2  -3 141.571 2.66275   2
   4   2  -3 135.735 2.81092   2
   4   2  -3 139.856 2.77619   1
  -4  -2   3 137.048 3.59051   3
  -4  -2   3 142.464 2.90928   1
   3   2  -3 54.7380 1.36243   1
   3   2  -3 57.7951 1.95582   3
   3   2  -3 54.3393 1.51438   2
   3   2  -3 57.9054 1.40098   2
  -3  -2   3 56.8656 1.49025   1
  -3  -2   3 55.4645 1.92920   3
   2   2  -3 131.969 2.83443   3
   2   2  -3 128.155 2.64565   2
   2   2  -3 132.594 2.43675   2
   2   2  -3 128.295 2.28825   1
  -2  -2   3 132.631 2.80278   3
  -2  -2   3 129.063 2.37110   1
   1   2  -3 119.958 2.23652   2
   1   2  -3 118.982 2.35345   3
   1   2  -3 117.326 2.06354   1
   1   2  -3 116.535 2.45415   2
  -1  -2   3 120.015 2.34144   3
  -1  -2   3 118.185 2.24212   2
  -1  -2   3 117.351 2.09093   1
   0   2  -3 191.158 3.15469   1
   0   2  -3 195.815 3.29929   3
   0   2  -3 190.963 3.28524   2
   0  -2   3 199.379 3.14976   1
   0  -2   3 191.355 3.26813   3
   0  -2   3 191.713 3.28269   2
  -1   2  -3 28.5897 0.85999   2
  -1   2  -3 27.5465 0.85623   3
  -1   2  -3 28.2416 0.76032   1
   1  -2   3 28.1688 0.84718   2
   1  -2   3 27.3549 0.77466   1
   1  -2   3 27.7281 0.85974   3
  -2   2  -3 106.642 2.01090   1
  -2   2  -3 103.772 2.17553   3
  -2   2  -3 102.697 2.46995   3
  -2   2  -3 103.248 2.02703   2
   2  -2   3 102.217 1.99561   2
   2  -2   3 101.256 2.03969   1
  -3   2  -3 76.5517 1.78738   1
  -3   2  -3 78.9325 1.71237   2
  -3   2  -3 73.7792 1.92463   3
  -3   2  -3 78.5442 2.31875   3
   3  -2   3 76.9342 1.62236   2
   3  -2   3 75.7532 1.83369   1
  -4   2  -3 233.757 3.93598   2
  -4   2  -3 224.552 5.08237   3
   4  -2   3 225.508 3.76788   2
   4  -2   3 224.406 4.21486   1
  -5   2  -3 861.981 12.7861   2
  -5   2  -3 857.437 14.8066   3
   5  -2   3 859.941 12.5989   2
   5  -2   3 848.724 13.1508   1
  -6   2  -3 77.1233 3.48776   3
  -7   2  -3 83.0659 4.16622   3
  -8   2  -3 86.7121 5.17086   3
   8  -2   3 89.5624 3.33898   1
  -9   2  -3 37.6860 5.29695   3
   9  -2   3 32.4883 2.72494   1
  10   1  -3 2.45047 1.44311   1
 -10  -1   3 1.38221 3.14953   3
   9   1  -3 13.2503 2.09773   1
  -9  -1   3 12.8613 2.84778   3
   8   1  -3 8.64963 1.63140   1
   7   1  -3 3.05175 0.77773   1
   6   1  -3 2.18859 0.61060   1
   6   1  -3 2.06019 0.49081   2
  -6  -1   3 1.19535 1.21649   3
   5   1  -3 18.4913 0.79558   2
   5   1  -3 19.2495 0.90619   2
   5   1  -3 18.6007 1.09787   1
  -5  -1   3 20.1221 1.91614   3
   4   1  -3 25.9272 0.93899   2
   4   1  -3 26.9983 0.85967   2
   4   1  -3 25.6335 1.06396   1
   4   1  -3 24.1210 1.56427   3
  -4  -1   3 25.6158 1.61601   3
  -4  -1   3 27.3467 1.19744   1
   3   1  -3 128.990 2.29471   2
   3   1  -3 131.489 3.03924   3
   3   1  -3 125.881 2.46308   2
   3   1  -3 121.239 2.41153   1
  -3  -1   3 129.084 2.97485   3
  -3  -1   3 128.940 2.54996   1
   2   1  -3 297.061 5.07723   3
   2   1  -3 288.167 4.57648   1
   2   1  -3 293.200 4.62908   2
  -2  -1   3 288.340 4.62968   1
  -2  -1   3 286.975 4.99165   3
  -2  -1   3 289.062 4.58574   2
   1   1  -3 1808.71 25.4288   3
   1   1  -3 1722.93 24.3087   1
   1   1  -3 1727.06 25.1210   2
  -1  -1   3 1647.98 25.3947   2
  -1  -1   3 1826.64 24.3541   1
  -1  -1   3 1762.80 25.3829   3
   0   1  -3 1111.76 15.8321   2
   0   1  -3 1079.14 15.4038   1
   0   1  -3 1067.00 15.7517   3
   0  -1   3 1113.25 15.4549   1
   0  -1   3 1081.63 15.8021   2
   0  -1   3 1072.60 15.7494   3
  -1   1  -3 1.10316 0.22614   3
  -1   1  -3 0.94235 0.23937   2
  -1   1  -3 1.12810 0.29633   3
  -1   1  -3 1.02096 0.20814   1
   1  -1   3 1.21238 0.25684   2
   1  -1   3 0.95511 0.19536   1
  -2   1  -3 147.348 2.64199   1
  -2   1  -3 147.443 2.70471   2
  -2   1  -3 141.223 2.99903   3
   2  -1   3 147.773 2.70382   1
   2  -1   3 147.784 2.96811   3
   2  -1   3 147.188 2.63625   2
  -3   1  -3 868.023 12.8173   2
  -3   1  -3 863.593 12.5661   1
  -3   1  -3 848.140 13.7105   3
   3  -1   3 860.969 12.6986   2
   3  -1   3 856.398 12.6514   1
   3  -1   3 844.110 13.6418   3
  -4   1  -3 279.543 5.89824   3
  -4   1  -3 286.611 4.83741   2
   4  -1   3 285.920 4.67511   2
  -5   1  -3 41.4955 1.45579   2
  -5   1  -3 44.3143 2.44636   3
   5  -1   3 43.7562 1.24059   2
   5  -1   3 42.6132 1.67483   1
  -6   1  -3 7.39523 1.62907   3
  -6   1  -3 9.48532 1.09688   2
   6  -1   3 6.48706 0.79894   2
  -7   1  -3 155.630 5.47206   3
   7  -1   3 163.743 4.11361   1
  -8   1  -3 87.8949 5.11941   3
   8  -1   3 84.5746 3.27332   1
  -9   1  -3 42.2762 5.57852   3
   9  -1   3 45.2010 3.05422   1
  10   0  -3 -1.4526 1.27075   1
 -10   0   3 -0.3396 3.11511   3
   9   0  -3 -2.7826 0.86355   1
  -9   0   3 -2.4643 2.17121   3
   8   0  -3 0.91712 0.80004   1
  -8   0   3 2.52800 1.68774   3
   7   0  -3 29.2058 1.68123   1
   6   0  -3 3.01082 0.61307   1
  -6   0   3 2.50704 1.14649   3
   5   0  -3 64.1190 1.86406   1
  -5   0   3 65.4158 2.66814   3
   4   0  -3 15.5692 0.87704   1
   4   0  -3 16.9592 0.68779   2
   4   0  -3 17.6116 1.39696   3
   4   0  -3 16.8814 0.63070   2
  -4   0   3 16.4194 1.04588   1
  -4   0   3 14.1576 1.33040   3
   3   0  -3 3.23997 0.74996   3
   3   0  -3 3.61274 0.38550   2
  -3   0   3 5.05735 0.37121   2
  -3   0   3 3.94015 0.61448   1
  -3   0   3 3.43095 0.65459   3
   2   0  -3 391.341 6.44567   3
   2   0  -3 389.401 6.00788   2
   2   0  -3 384.848 6.05830   1
  -2   0   3 390.791 5.98439   2
  -2   0   3 403.684 6.12786   1
  -2   0   3 393.194 6.40574   3
   1   0  -3 2241.70 31.0748   1
   1   0  -3 2185.58 32.0839   3
  -1   0   3 2082.41 32.2154   2
  -1   0   3 2244.48 32.0934   3
  -1   0   3 2253.62 31.0477   1
   0   0  -3 279.424 4.60785   2
   0   0  -3 290.477 4.61138   1
   0   0   3 284.529 4.57034   1
  -1   0  -3 810.372 12.0379   1
  -1   0  -3 830.906 12.2215   2
  -1   0  -3 817.713 12.1720   3
   1   0   3 811.805 12.1586   2
   1   0   3 818.780 12.1810   3
  -2   0  -3 508.803 7.62865   1
  -2   0  -3 503.678 8.20520   3
  -2   0  -3 516.954 7.96233   2
   2   0   3 493.212 8.18803   3
   2   0   3 515.178 7.89261   2
   2   0   3 507.629 7.69225   1
  -3   0  -3 625.947 9.43648   2
  -3   0  -3 616.418 9.14430   1
  -3   0  -3 592.068 10.0051   3
   3   0   3 592.231 9.20373   1
   3   0   3 596.650 9.27199   2
   3   0   3 591.997 10.0061   3
  -4   0  -3 448.885 7.18886   2
  -4   0  -3 439.461 8.20896   3
   4   0   3 442.054 7.08743   2
   4   0   3 434.295 7.24607   1
  -5   0  -3 67.9735 2.97637   3
  -5   0  -3 65.3507 1.94204   2
   5   0   3 68.4800 2.13270   1
   5   0   3 67.9070 1.81567   2
  -6   0  -3 4.44935 0.91452   2
  -6   0  -3 4.41546 1.52882   3
   6   0   3 1.92547 0.59885   2
   6   0   3 2.97446 0.72554   1
  -7   0  -3 39.3361 3.52230   3
   7   0   3 37.2311 2.08726   1
  -8   0  -3 24.1911 4.01756   3
   8   0   3 25.7966 2.32581   1
  -9   0  -3 32.8068 5.14829   3
   9   0   3 20.6558 2.87337   1
  10  -1  -3 1.11665 1.29254   1
 -10   1   3 5.65718 3.16158   3
   9  -1  -3 11.6245 2.02330   1
  -9   1   3 17.4274 3.96763   3
   8  -1  -3 25.3995 1.80054   1
  -8   1   3 23.4243 3.26024   3
   7  -1  -3 36.8704 1.83105   1
   6  -1  -3 33.1511 1.57410   1
  -6   1   3 33.9426 2.29340   3
   5  -1  -3 24.2829 1.19885   1
  -5   1   3 27.8333 1.90850   3
   4  -1  -3 126.489 3.20548   3
   4  -1  -3 126.018 2.21823   2
   4  -1  -3 120.380 2.64901   1
  -4   1   3 127.324 2.81564   1
  -4   1   3 128.202 3.30617   3
  -4   1   3 124.313 2.12001   2
   3  -1  -3 649.462 10.3571   3
   3  -1  -3 625.463 9.60228   1
   3  -1  -3 636.408 9.53787   2
  -3   1   3 644.521 10.4079   3
  -3   1   3 650.939 9.73272   1
  -3   1   3 631.005 9.45360   2
   2  -1  -3 528.310 8.13267   2
   2  -1  -3 535.746 8.07720   1
   2  -1  -3 544.073 8.48609   3
  -2   1   3 527.865 8.44256   3
  -2   1   3 545.737 8.13777   1
  -2   1   3 524.804 8.09299   2
   1  -1  -3 556.994 8.54327   2
   1  -1  -3 553.888 8.33229   1
  -1   1   3 572.865 8.37811   1
  -1   1   3 545.479 8.51467   2
  -1   1   3 554.983 8.37071   3
   0  -1  -3 7.83112 0.65950   2
   0  -1  -3 7.98404 0.34019   3
   0  -1  -3 8.20246 0.60507   1
   0   1   3 8.02488 0.65358   2
   0   1   3 8.48290 0.38664   3
   0   1   3 7.92890 0.60739   1
  -1  -1  -3 1243.52 18.0599   1
  -1  -1  -3 1278.52 18.5464   2
  -1  -1  -3 1225.41 17.6298   1
  -1  -1  -3 1274.19 18.4339   3
   1   1   3 1243.51 18.5001   3
   1   1   3 1252.90 18.5254   2
  -2  -1  -3 585.995 9.39167   3
  -2  -1  -3 585.701 8.78018   1
  -2  -1  -3 599.529 9.29830   2
   2   1   3 584.119 9.47999   3
   2   1   3 593.425 9.28335   2
  -3  -1  -3 787.388 12.6567   3
  -3  -1  -3 795.154 12.1475   2
   3   1   3 753.874 12.6782   3
   3   1   3 789.098 11.7409   1
   3   1   3 796.105 12.1237   2
  -4  -1  -3 261.864 4.78930   2
  -4  -1  -3 253.647 5.49676   3
   4   1   3 265.109 4.80091   2
   4   1   3 254.964 4.77880   1
  -5  -1  -3 36.7264 2.39558   3
  -5  -1  -3 41.7128 1.84180   2
   5   1   3 40.7298 1.74086   2
   5   1   3 42.1286 1.72234   1
  -6  -1  -3 68.8676 3.47322   3
   6   1   3 69.6471 2.46235   1
   6   1   3 71.2675 2.22171   2
  -7  -1  -3 18.4844 3.33470   3
   7   1   3 23.7742 2.03367   1
   7   1   3 28.3199 1.82804   2
  -8  -1  -3 6.61685 2.43316   3
   8   1   3 1.86616 1.26518   1
  10  -2  -3 -1.0240 1.24514   1
 -10   2   3 -0.8601 2.97897   3
   9  -2  -3 0.40209 1.01201   1
  -9   2   3 -0.5906 2.22907   3
   8  -2  -3 7.79119 1.49091   1
  -8   2   3 6.60561 1.89652   3
   6  -2  -3 143.370 3.35228   1
  -6   2   3 144.635 4.44907   3
   5  -2  -3 316.606 5.67321   1
  -5   2   3 326.474 6.79684   3
   4  -2  -3 498.237 7.97824   1
   4  -2  -3 510.883 8.88723   3
  -4   2   3 503.726 9.00518   3
  -4   2   3 506.476 7.63119   2
   3  -2  -3 186.542 3.49097   1
   3  -2  -3 187.957 3.36361   2
  -3   2   3 188.247 3.95843   3
  -3   2   3 185.852 3.34571   2
  -3   2   3 198.742 3.67437   1
  -3   2   3 195.470 3.56551   3
   2  -2  -3 79.0095 1.81608   2
  -2   2   3 75.6772 1.82738   2
  -2   2   3 82.5918 1.92083   1
  -2   2   3 82.1244 1.74952   3
  -2   2   3 81.4867 1.97439   3
   1  -2  -3 217.621 3.74919   1
   1  -2  -3 214.495 3.55858   3
   1  -2  -3 212.616 3.87868   2
  -1   2   3 219.090 3.80694   1
  -1   2   3 215.520 3.57295   3
  -1   2   3 211.982 3.93741   2
   0  -2  -3 38.4586 1.00837   3
   0  -2  -3 40.8043 1.36074   2
   0  -2  -3 38.6377 1.22093   1
   0   2   3 39.3360 1.36337   2
   0   2   3 39.6426 1.05061   3
   0   2   3 41.6154 1.26510   1
  -1  -2  -3 1705.59 23.9323   1
  -1  -2  -3 1729.42 24.3967   1
  -1  -2  -3 1722.57 25.1790   2
  -1  -2  -3 1732.68 25.1432   3
   1   2   3 1704.63 25.2340   2
   1   2   3 1679.45 25.2187   3
  -2  -2  -3 455.048 7.57505   3
  -2  -2  -3 458.130 7.00230   1
  -2  -2  -3 458.336 7.58841   2
   2   2   3 444.987 7.73257   3
  -3  -2  -3 446.691 7.92204   3
  -3  -2  -3 452.859 7.60566   2
   3   2   3 439.559 7.18162   1
   3   2   3 442.703 8.07780   3
   3   2   3 457.392 7.68775   2
  -4  -2  -3 68.3537 2.58025   3
   4   2   3 64.0383 2.18582   2
   4   2   3 64.2571 2.00336   1
  -5  -2  -3 34.5076 2.36956   3
   5   2   3 32.8236 1.65647   1
   5   2   3 34.9463 1.86531   2
  -6  -2  -3 76.0040 3.66418   3
   6   2   3 70.6723 2.62626   2
   6   2   3 74.1000 2.66019   1
  -7  -2  -3 20.1452 3.24069   3
   7   2   3 14.9430 2.03931   2
   7   2   3 17.9204 2.08422   1
  -8  -2  -3 8.63672 2.80903   3
   8   2   3 7.36440 1.63892   1
  10  -3  -3 2.15816 1.37955   1
 -10   3   3 0.10740 3.11274   3
   9  -3  -3 13.2071 2.02514   1
  -9   3   3 9.12022 2.66704   3
   8  -3  -3 7.59611 1.60894   1
  -8   3   3 10.3124 2.12311   3
  -6   3   3 42.3816 2.67967   3
   5  -3  -3 288.034 5.28732   1
   5  -3  -3 290.303 4.72446   2
  -5   3   3 293.113 6.41833   3
  -5   3   3 289.498 4.67682   2
   4  -3  -3 1595.38 22.9768   1
   4  -3  -3 1579.85 23.2767   2
  -4   3   3 1594.01 23.3047   2
  -4   3   3 1632.52 24.8273   3
   3  -3  -3 1036.52 15.5689   2
  -3   3   3 1031.77 15.6623   2
  -3   3   3 1052.40 15.9028   3
  -3   3   3 1059.60 15.4490   1
  -3   3   3 1038.20 16.4438   3
   2  -3  -3 10.4874 0.70647   1
   2  -3  -3 9.77680 0.79822   2
   2  -3  -3 9.94619 0.65435   3
  -2   3   3 9.26142 0.83452   1
  -2   3   3 9.33314 0.80075   2
  -2   3   3 9.34132 0.66076   3
   1  -3  -3 2.33956 0.60764   2
   1  -3  -3 2.25051 0.45161   3
   1  -3  -3 3.15041 0.61249   1
  -1   3   3 2.12288 0.51354   3
  -1   3   3 4.20655 0.72219   2
  -1   3   3 2.75576 0.65967   1
   0  -3  -3 542.444 8.51222   3
   0  -3  -3 546.272 8.41051   1
   0  -3  -3 542.427 8.86884   2
   0   3   3 541.665 8.42132   1
   0   3   3 545.256 8.59581   3
  -1  -3  -3 983.429 14.9127   3
  -1  -3  -3 987.636 15.0756   2
  -1  -3  -3 968.097 14.0195   1
  -1  -3  -3 977.989 14.4722   1
   1   3   3 960.712 14.9981   3
   1   3   3 983.204 15.1908   2
  -2  -3  -3 111.259 2.34838   1
  -2  -3  -3 119.508 2.85482   1
  -2  -3  -3 113.865 2.82836   3
   2   3   3 111.396 2.92002   3
   2   3   3 112.610 2.94541   2
  -3  -3  -3 227.800 4.82949   3
  -3  -3  -3 230.054 4.75098   1
   3   3   3 223.000 4.74797   2
  -4  -3  -3 14.3584 1.67793   3
   4   3   3 15.3976 1.13941   1
   4   3   3 15.7342 1.65423   2
  -5  -3  -3 34.5987 2.59152   3
   5   3   3 36.8674 2.13688   2
   5   3   3 36.8805 1.78297   1
  -6  -3  -3 49.8171 3.42100   3
   6   3   3 59.0233 2.45649   1
   6   3   3 58.7797 2.73294   2
  -7  -3  -3 0.95833 2.12538   3
   7   3   3 4.83036 1.24028   1
  -8  -3  -3 0.81180 2.75122   3
   8   3   3 2.79081 1.62503   1
  10  -4  -3 -1.3277 1.28387   1
 -10   4   3 0.57594 2.84641   3
   9  -4  -3 11.9548 1.98628   1
  -9   4   3 12.7541 2.77473   3
  -8   4   3 23.1621 3.35070   3
   6  -4  -3 66.1867 2.23842   1
  -6   4   3 75.4755 3.39010   3
  -6   4   3 67.8631 1.58700   2
   5  -4  -3 417.146 7.08212   1
   5  -4  -3 411.975 6.76242   2
  -5   4   3 410.073 6.74663   2
  -5   4   3 419.356 8.41529   3
   4  -4  -3 304.499 5.32061   2
   4  -4  -3 305.239 5.38765   1
  -4   4   3 309.596 6.36463   3
  -4   4   3 301.070 5.40973   2
   3  -4  -3 221.605 4.08130   1
   3  -4  -3 225.345 4.28158   2
   3  -4  -3 226.875 4.30930   3
  -3   4   3 224.853 4.31846   1
  -3   4   3 216.722 4.40565   2
  -3   4   3 220.476 4.32528   3
   2  -4  -3 578.875 9.12565   3
   2  -4  -3 564.431 8.73430   1
   2  -4  -3 565.185 9.22674   2
  -2   4   3 552.400 9.33823   2
  -2   4   3 562.010 8.87185   1
  -2   4   3 567.790 9.14584   3
   1  -4  -3 1115.14 16.7306   3
   1  -4  -3 1099.11 16.0170   1
  -1   4   3 1106.76 16.1424   1
  -1   4   3 1110.33 16.7811   3
  -1   4   3 1084.29 17.0524   2
   0  -4  -3 598.995 9.51838   3
   0  -4  -3 593.093 9.18465   1
   0   4   3 604.152 9.66059   3
   0   4   3 591.489 9.23348   1
   0   4   3 588.551 9.99847   2
  -1  -4  -3 111.440 2.64072   1
  -1  -4  -3 112.413 2.28228   1
   1   4   3 110.107 2.85545   3
   1   4   3 110.854 3.03782   2
  -2  -4  -3 1.32425 0.67878   3
  -2  -4  -3 1.02344 0.45398   1
  -2  -4  -3 1.43139 0.58361   1
   2   4   3 1.60733 0.76866   2
  -3  -4  -3 45.2242 2.10660   3
  -3  -4  -3 45.7531 2.08889   1
   3   4   3 47.6793 2.21487   2
  -4  -4  -3 40.0713 2.21618   1
  -4  -4  -3 38.6918 2.30309   3
   4   4   3 39.4006 2.23701   2
  -5  -4  -3 46.8139 3.03005   3
  -5  -4  -3 45.8679 2.71635   1
   5   4   3 44.3097 2.06905   1
   5   4   3 42.7056 2.64070   2
  -6  -4  -3 -2.3410 1.69273   3
  -6  -4  -3 1.53499 1.55556   1
   6   4   3 2.18701 0.96930   1
   6   4   3 1.54174 1.46510   2
  -7  -4  -3 1.56749 1.93916   1
  -7  -4  -3 -4.3675 2.13538   3
   7   4   3 1.26531 1.26954   1
  10  -5  -3 52.9272 3.22843   1
 -10   5   3 50.8819 5.84826   3
   9  -5  -3 42.6722 2.59464   1
  -9   5   3 41.2663 4.41389   3
   8  -5  -3 23.3636 1.93923   1
  -8   5   3 15.5970 3.44879   3
   7  -5  -3 83.1971 2.76610   1
  -7   5   3 87.4935 4.08737   3
   6  -5  -3 52.3232 2.05932   1
   6  -5  -3 51.2387 1.82993   2
  -6   5   3 55.0624 1.76587   2
  -6   5   3 60.2327 3.25627   3
   5  -5  -3 123.581 2.96289   2
   5  -5  -3 125.311 3.02022   1
  -5   5   3 123.058 4.04678   3
   4  -5  -3 119.240 2.80307   1
   4  -5  -3 119.095 2.97872   2
  -4   5   3 119.621 2.99932   2
  -4   5   3 119.699 3.64011   3
   3  -5  -3 180.391 3.57449   1
   3  -5  -3 187.255 3.88939   3
  -3   5   3 175.175 3.99371   2
   2  -5  -3 148.587 3.27865   3
  -2   5   3 146.344 3.25838   1
  -2   5   3 145.479 3.58241   2
   1  -5  -3 1117.78 17.0429   3
   1  -5  -3 1112.40 16.1550   1
  -1   5   3 1112.71 17.4647   2
  -1   5   3 1094.16 17.1403   3
  -1   5   3 1094.50 16.2666   1
   0  -5  -3 717.598 11.4065   3
   0  -5  -3 718.986 10.8059   1
   0   5   3 688.183 11.6394   3
   0   5   3 699.513 10.8448   1
   0   5   3 704.990 11.9045   2
  -1  -5  -3 45.6182 1.41645   1
  -1  -5  -3 45.7734 1.90036   3
   1   5   3 49.0294 2.21041   2
  -2  -5  -3 31.8982 1.78791   3
  -2  -5  -3 35.0853 1.71506   1
   2   5   3 29.0362 1.93604   2
  -3  -5  -3 11.6460 1.62162   3
  -3  -5  -3 11.1596 1.57342   1
   3   5   3 9.21286 1.46684   2
  -4  -5  -3 1.93562 1.07043   3
  -4  -5  -3 2.51841 1.06621   1
   4   5   3 3.98381 1.21848   2
  -5  -5  -3 17.1380 2.65519   3
  -6  -5  -3 0.08990 1.76495   1
  -6  -5  -3 1.77443 1.95419   3
   6   5   3 0.42370 1.64796   2
  -7  -5  -3 1.39644 2.57400   3
  -7  -5  -3 -1.8322 2.25075   1
   9  -6  -3 32.6392 2.48857   1
  -9   6   3 31.8800 4.82077   3
   8  -6  -3 56.1654 2.61462   1
  -8   6   3 52.8845 4.31878   3
   7  -6  -3 103.911 3.14787   1
  -7   6   3 103.986 4.70321   3
  -7   6   3 95.8742 2.48280   2
   6  -6  -3 228.342 4.68025   1
  -6   6   3 221.119 4.51722   2
   5  -6  -3 373.772 6.61069   1
  -5   6   3 365.101 6.82852   2
  -5   6   3 382.418 8.22389   3
   4  -6  -3 9.82402 1.30176   3
   4  -6  -3 10.2324 1.05880   1
  -4   6   3 7.75991 1.41015   2
   3  -6  -3 27.4657 1.53005   3
   3  -6  -3 27.3010 1.31931   1
  -3   6   3 29.2281 1.85168   2
   2  -6  -3 84.9575 2.21298   1
   2  -6  -3 86.6759 2.53214   3
  -2   6   3 81.5714 2.85880   2
  -2   6   3 83.0835 2.49207   1
   1  -6  -3 398.873 7.15843   3
  -1   6   3 395.486 6.74632   1
  -1   6   3 392.796 7.68534   2
   0  -6  -3 147.080 2.86829   1
   0  -6  -3 146.139 3.55637   3
   0   6   3 143.271 4.04581   2
  -1  -6  -3 43.7440 1.84090   1
  -1  -6  -3 44.3299 2.03493   3
  -1  -6  -3 43.1770 1.49019   1
   1   6   3 46.6482 2.39271   2
  -2  -6  -3 71.1576 2.42577   1
  -2  -6  -3 73.0596 2.74335   3
   2   6   3 68.5466 2.90852   2
  -3  -6  -3 18.4655 2.03247   3
  -3  -6  -3 20.7212 1.92722   1
  -4  -6  -3 8.38843 1.70258   3
  -4  -6  -3 8.90973 1.48648   1
   4   6   3 8.45288 1.66542   2
   5   6   3 4.79921 1.99488   2
  -6  -6  -3 -0.0446 2.03133   3
   6   6   3 0.67585 2.02722   2
   9  -7  -3 6.65901 1.52406   1
  -9   7   3 2.75839 2.80498   3
   8  -7  -3 15.9303 2.06819   1
  -8   7   3 15.0304 3.05809   3
   7  -7  -3 85.9810 2.99409   1
  -7   7   3 70.9589 4.51812   3
  -6   7   3 199.255 6.14846   3
  -6   7   3 190.214 4.47547   2
   5  -7  -3 497.131 8.35822   1
  -5   7   3 493.972 8.95844   2
   4  -7  -3 165.442 4.13416   3
   4  -7  -3 165.674 3.56407   1
  -4   7   3 160.071 4.23847   2
   3  -7  -3 35.0586 1.58013   1
   3  -7  -3 38.8580 1.97703   3
  -3   7   3 37.4936 2.18785   2
   2  -7  -3 7.00830 1.29894   3
   2  -7  -3 6.48171 1.01735   1
  -2   7   3 6.28668 1.28438   2
   1  -7  -3 104.921 3.06942   3
   1  -7  -3 106.097 2.54645   1
  -1   7   3 106.008 3.59257   2
  -1   7   3 103.285 2.91802   1
   0  -7  -3 16.3543 1.64125   3
   0  -7  -3 17.0683 1.32288   1
   0  -7  -3 14.7512 1.22636   1
  -1  -7  -3 43.5396 2.24619   3
  -1  -7  -3 41.9210 1.90566   1
  -2  -7  -3 24.0068 2.27600   3
  -2  -7  -3 21.3834 1.85915   1
   2   7   3 22.8134 2.36184   2
  -3  -7  -3 4.87732 1.48558   3
  -3  -7  -3 3.73754 1.22548   1
   3   7   3 0.37439 1.42713   2
  -4  -7  -3 2.84420 1.78207   3
  -4  -7  -3 2.23736 1.48461   1
   4   7   3 1.60765 1.61084   2
  -5  -7  -3 2.38667 2.04275   3
   5   7   3 -0.6128 2.09209   2
   8  -8  -3 38.0707 2.69621   1
  -8   8   3 52.4436 5.35150   3
   7  -8  -3 116.480 3.68798   1
  -7   8   3 117.027 5.49365   3
  -6   8   3 104.883 3.57121   2
   5  -8  -3 61.9671 2.35317   1
  -5   8   3 53.9582 2.83867   2
  -5   8   3 66.6455 3.74203   3
   4  -8  -3 33.5419 1.72809   1
   4  -8  -3 37.2710 2.23116   3
  -4   8   3 35.8282 2.46511   2
   3  -8  -3 178.818 4.46095   3
   3  -8  -3 173.934 3.62859   1
  -3   8   3 168.822 4.76354   2
   2  -8  -3 134.256 3.76874   3
   2  -8  -3 134.247 3.00067   1
  -2   8   3 133.609 4.30413   2
   1  -8  -3 55.4573 2.52913   3
   1  -8  -3 54.0557 1.93276   1
  -1   8   3 54.6926 2.96898   2
   0  -8  -3 0.35773 1.07567   3
   0  -8  -3 0.14627 0.71950   1
  -1  -8  -3 -0.2310 1.09207   3
  -1  -8  -3 1.35313 0.91074   1
   1   8   3 0.28681 1.37126   2
  -2  -8  -3 2.01746 1.31657   3
  -2  -8  -3 1.40303 1.10657   1
   2   8   3 0.58525 1.51015   2
   3   8   3 -3.0543 1.58114   2
  -4  -8  -3 2.82604 2.09451   3
   4   8   3 3.78902 2.09854   2
   8  -9  -3 37.0021 2.79469   1
  -8   9   3 35.7931 5.66311   3
   7  -9  -3 39.3790 2.63783   1
  -7   9   3 38.3862 4.59011   3
   6  -9  -3 54.4342 2.50387   1
  -6   9   3 54.3128 4.25095   3
  -6   9   3 51.4156 3.18826   2
   5  -9  -3 41.5036 2.09613   1
  -5   9   3 39.7786 3.07261   2
  -5   9   3 38.8579 3.68198   3
   4  -9  -3 2.44163 1.20324   3
   4  -9  -3 -0.4607 0.75955   1
  -4   9   3 1.68087 1.47334   2
   3  -9  -3 37.3834 1.78040   1
   3  -9  -3 38.0961 2.48635   3
  -3   9   3 34.9487 2.86800   2
   2  -9  -3 127.461 4.01684   3
   2  -9  -3 127.920 2.91416   1
  -2   9   3 128.333 4.61531   2
   1  -9  -3 37.8713 2.55983   3
  -1   9   3 39.3734 2.89370   2
   0  -9  -3 1.07685 1.24610   3
   0   9   3 -0.4519 1.32518   2
  -1  -9  -3 4.86955 1.65967   3
   1   9   3 2.21721 1.53923   2
  -2  -9  -3 12.5605 2.78232   3
   2   9   3 10.8402 2.12274   2
  -3  -9  -3 1.34705 1.86621   3
   3   9   3 0.35759 2.07746   2
   6 -10  -3 0.84459 1.20266   1
  -6  10   3 0.80649 2.68261   3
  -5  10   3 4.25390 1.92910   2
   4 -10  -3 45.4418 3.03689   3
  -4  10   3 41.7276 3.40638   2
   3 -10  -3 34.5418 2.69235   3
  -3  10   3 27.6163 3.10171   2
   2 -10  -3 3.17953 1.58305   3
  -2  10   3 5.54227 1.76494   2
   1 -10  -3 -0.5166 1.51572   3
  -1  10   3 1.29260 1.63147   2
   0 -10  -3 3.46566 1.61980   3
   0  10   3 2.58076 1.78998   2
  -1 -10  -3 -0.3960 1.82696   3
   1  10   3 3.09090 2.02568   2
  -2 -10  -3 8.43632 2.40147   3
   2  10   3 2.80553 2.27554   2
  -5  11   3 17.8136 3.81236   2
   4 -11  -3 0.06350 1.67261   3
  -4  11   3 -2.9326 2.02662   2
   3 -11  -3 5.89590 1.86561   3
  -3  11   3 1.40068 2.09335   2
   2 -11  -3 3.07802 1.93409   3
  -2  11   3 0.11206 2.02357   2
   1 -11  -3 2.65797 2.00511   3
  -1  11   3 -2.0358 2.03549   2
   1  12  -4 33.4131 4.04985   2
  -1 -12   4 31.2972 3.93556   3
   0  12  -4 14.5779 3.44771   2
   0 -12   4 6.74336 2.07910   3
  -1  12  -4 3.92054 2.03865   2
   1 -12   4 5.95443 2.13431   3
  -2  12  -4 -1.2423 1.77406   2
   2 -12   4 0.89228 1.76191   3
  -3  12  -4 14.4438 3.07371   2
   3 -12   4 5.98276 1.95440   3
  -4  12  -4 5.64444 1.94450   2
   4 -12   4 2.00550 1.89905   3
   3  11  -4 18.0828 3.83623   2
  -3 -11   4 23.5585 3.92325   3
   2  11  -4 54.3762 4.06615   2
  -2 -11   4 55.8431 3.98899   3
   1  11  -4 10.5538 2.11816   2
  -1 -11   4 16.5817 3.09779   3
   0  11  -4 -2.5499 1.44391   2
   0 -11   4 1.12390 1.47617   3
  -1  11  -4 2.92692 1.73500   2
   1 -11   4 2.99199 1.53213   3
  -2  11  -4 -0.8031 1.55372   2
   2 -11   4 1.85773 1.51231   3
  -3  11  -4 22.4897 2.93966   2
   3 -11   4 25.2063 2.82910   3
  -4  11  -4 1.22000 1.55070   2
   4 -11   4 0.36818 1.55685   3
  -5  11  -4 1.89922 1.65864   2
   5 -11   4 0.90660 1.66676   3
  -6  11  -4 -1.5001 2.85027   3
   4  10  -4 4.60624 2.09804   2
  -4 -10   4 4.73163 2.26176   3
   3  10  -4 0.67316 1.70531   2
  -3 -10   4 -0.5287 1.69101   3
   2  10  -4 1.04289 1.48910   2
  -2 -10   4 1.46081 1.60998   3
   1  10  -4 35.4099 2.88192   2
  -1 -10   4 32.0141 3.00281   3
   0  10  -4 -2.0691 1.17703   2
   0 -10   4 0.28496 1.18401   3
  -1  10  -4 3.09832 1.26921   2
   1 -10   4 3.08521 1.50492   3
  -2  10  -4 0.85164 1.16794   2
   2 -10   4 1.03448 1.20289   3
  -3  10  -4 20.2996 2.30046   2
   3 -10   4 20.0664 2.30948   3
  -4  10  -4 26.8784 2.47252   2
   4 -10   4 28.7005 2.60035   3
  -5  10  -4 30.5069 2.82766   2
   5 -10   4 38.4811 2.95516   3
  -6  10  -4 2.48723 1.61318   2
  -6  10  -4 1.55526 2.62650   3
   6 -10   4 1.40372 1.25207   1
  -7  10  -4 4.91002 3.43295   3
   7 -10   4 7.52513 1.64991   1
   5   9  -4 8.94398 2.21826   2
  -5  -9   4 8.91827 2.32200   3
   4   9  -4 14.2297 2.99678   2
  -4  -9   4 14.8129 2.93604   3
   3   9  -4 40.7555 3.22610   2
  -3  -9   4 50.0516 3.21704   3
   2   9  -4 -0.1080 1.20422   2
  -2  -9   4 1.35956 1.25394   3
   0   9  -4 1.52903 0.98749   2
  -1   9  -4 20.5617 2.03350   2
  -2   9  -4 56.4066 2.67153   2
  -3   9  -4 126.195 3.88123   2
   3  -9   4 124.664 2.50152   1
   3  -9   4 122.389 3.96600   3
  -4   9  -4 11.4138 1.91932   2
   4  -9   4 14.8135 1.36355   1
   4  -9   4 15.8078 2.05874   3
  -5   9  -4 36.1962 2.39254   2
   5  -9   4 35.5206 2.70947   3
   5  -9   4 37.2422 1.92094   1
  -6   9  -4 10.3004 2.81315   3
  -6   9  -4 9.42345 1.64430   2
  -7   9  -4 71.5830 5.60372   3
   7  -9   4 69.3433 3.07673   1
   6   8  -4 1.72358 2.19003   2
  -6  -8   4 0.03185 2.22774   3
  -5  -8   4 1.08205 1.77725   3
   4   8  -4 3.60755 1.54530   2
  -4  -8   4 3.71377 1.54639   3
   3   8  -4 9.95538 1.57495   2
   0   8  -4 12.7154 1.63530   2
  -1   8  -4 5.00131 1.06999   2
  -2   8  -4 87.0092 3.03575   2
   2  -8   4 90.8086 3.06121   3
  -3   8  -4 168.915 4.33608   2
  -3   8  -4 168.143 3.39926   1
  -4   8  -4 57.1573 2.47063   2
   4  -8   4 58.8136 1.86920   1
   4  -8   4 58.6512 2.66252   3
  -5   8  -4 54.4327 3.70992   3
  -5   8  -4 51.5625 2.38565   2
   5  -8   4 52.5972 2.05781   1
  -6   8  -4 29.4789 2.13162   2
  -6   8  -4 36.9003 3.99611   3
  -7   8  -4 123.505 5.98326   3
   7  -8   4 106.730 3.67442   1
  -8   8  -4 40.6902 5.77820   3
   8  -8   4 28.8139 2.78612   1
  -7  -7   4 6.59681 2.48728   3
   6   7  -4 14.5084 2.07927   2
  -6  -7   4 19.5614 3.23744   3
   5   7  -4 0.45356 1.26452   2
   5   7  -4 0.18897 0.63505   1
  -5  -7   4 0.98145 1.45893   3
   3   7  -4 11.4439 1.69654   2
   2   7  -4 1.20460 0.82741   2
   1   7  -4 3.26480 0.86770   2
  -1  -7   4 3.41878 0.95392   3
   0   7  -4 0.01329 0.65433   2
   0  -7   4 0.62218 0.75621   3
  -1   7  -4 255.541 5.45525   2
   1  -7   4 254.905 5.38466   3
  -2   7  -4 163.570 2.94414   1
  -2   7  -4 164.254 4.02714   2
   2  -7   4 166.321 3.99654   3
   2  -7   4 162.091 2.85186   1
  -3   7  -4 11.4518 1.14559   1
  -3   7  -4 15.1117 1.44602   2
   3  -7   4 13.1741 0.96223   1
   3  -7   4 14.0649 1.42473   3
  -4   7  -4 33.3651 1.82940   2
   4  -7   4 30.5024 1.90534   3
   4  -7   4 32.7847 1.46791   1
  -5   7  -4 148.464 5.11658   3
  -5   7  -4 137.350 3.54971   2
   5  -7   4 139.451 3.29204   1
  -6   7  -4 190.938 4.17526   2
  -6   7  -4 191.033 6.31591   3
  -7   7  -4 203.508 7.23054   3
  -8   7  -4 5.69086 2.81567   3
   8  -7   4 5.31321 1.34915   1
  -8  -6   4 7.06194 2.71658   3
   7   6  -4 10.9243 1.93025   1
  -7  -6   4 9.47369 2.37488   3
   6   6  -4 1.81298 1.21727   2
   6   6  -4 0.02007 0.75573   1
  -6  -6   4 -1.1808 1.50158   3
   5   6  -4 0.23801 0.57705   1
   5   6  -4 1.22901 1.06585   2
   4   6  -4 7.30661 0.78763   1
   4   6  -4 5.51614 1.06197   2
  -4  -6   4 8.46251 1.42420   1
   3   6  -4 0.23279 0.76576   2
  -3  -6   4 1.00499 0.98370   3
   2   6  -4 86.5504 2.79739   2
  -2  -6   4 88.7075 2.88593   3
   1   6  -4 351.048 6.77923   2
  -1  -6   4 351.218 6.69658   3
   0   6  -4 108.238 3.07501   2
   0  -6   4 112.958 2.96446   3
  -1   6  -4 298.216 5.93383   2
   1  -6   4 301.563 5.80457   3
  -2   6  -4 91.7868 2.69802   2
  -2   6  -4 92.1252 1.93845   1
   2  -6   4 90.8767 2.66422   3
   2  -6   4 92.1695 1.91109   1
  -3   6  -4 13.6137 1.06942   1
  -3   6  -4 10.9859 1.25513   2
   3  -6   4 12.7390 1.28950   3
   3  -6   4 12.0884 0.87946   1
  -4   6  -4 6.87302 1.19012   2
   4  -6   4 8.91352 0.96060   1
  -5   6  -4 154.141 3.58986   2
  -5   6  -4 161.644 5.13035   3
   5  -6   4 161.958 3.59397   1
  -6   6  -4 282.434 5.26788   2
  -6   6  -4 282.438 7.56354   3
  -7   6  -4 123.992 5.44517   3
   7  -6   4 119.354 3.57006   1
  -8   6  -4 23.6783 4.32308   3
   8  -6   4 25.8818 2.36911   1
  -9   6  -4 25.5384 5.31226   3
   9  -6   4 18.6811 2.80679   1
   8   5  -4 2.88386 1.25147   1
  -8  -5   4 0.02680 2.52606   3
   7   5  -4 1.79035 0.94464   1
   7   5  -4 1.99325 1.44855   2
  -7  -5   4 0.21083 1.83644   3
   6   5  -4 0.89631 1.07272   2
   6   5  -4 0.56624 0.67284   1
   5   5  -4 1.62853 0.55921   1
   5   5  -4 1.70128 0.87048   2
   4   5  -4 2.21832 0.44483   1
   4   5  -4 3.01424 0.83442   2
  -4  -5   4 2.47429 1.05768   3
  -4  -5   4 2.23918 0.76399   1
   3   5  -4 0.68538 0.29376   1
   3   5  -4 -0.0361 0.59688   2
  -3  -5   4 -0.1110 0.65290   3
  -3  -5   4 -0.4190 0.46478   1
   2   5  -4 2.26751 0.69293   2
  -2  -5   4 1.64687 0.68683   3
  -1  -5   4 524.998 8.95069   3
   0   5  -4 994.462 15.6224   2
   0  -5   4 996.264 15.5269   3
  -1   5  -4 646.791 9.15153   1
  -1   5  -4 643.532 9.47197   1
  -1   5  -4 631.469 10.5219   2
   1  -5   4 638.115 10.4472   3
  -2   5  -4 8.90490 0.99624   2
  -2   5  -4 6.74061 0.60834   1
  -2   5  -4 8.12062 0.86663   2
   2  -5   4 8.22916 0.96632   3
   2  -5   4 7.77172 0.63518   1
  -3   5  -4 394.919 6.97199   2
  -3   5  -4 394.196 6.65581   2
  -3   5  -4 388.933 6.32750   1
   3  -5   4 410.939 6.40138   1
   3  -5   4 390.860 7.11566   3
  -4   5  -4 330.568 5.87705   2
  -4   5  -4 317.730 5.59600   2
  -4   5  -4 317.539 7.00468   3
   4  -5   4 320.963 5.58987   1
  -5   5  -4 73.2395 2.13836   2
  -5   5  -4 78.3195 3.43954   3
   5  -5   4 77.2185 2.31304   1
  -6   5  -4 59.1014 3.52066   3
  -6   5  -4 50.3112 1.81450   2
  -7   5  -4 6.32916 2.07917   3
   7  -5   4 4.50072 0.96543   1
  -8   5  -4 23.0380 4.25850   3
   8  -5   4 23.3623 2.30946   1
  -9   5  -4 72.0266 6.21344   3
   9  -5   4 64.6839 3.49540   1
   9   4  -4 0.45600 1.44155   1
  -9  -4   4 0.94901 2.60714   3
   8   4  -4 4.64845 1.18762   1
  -8  -4   4 1.50534 2.15518   3
   7   4  -4 2.74009 1.20509   2
   7   4  -4 3.32850 0.91410   1
   6   4  -4 39.8333 2.13745   2
   6   4  -4 45.3103 1.79624   1
   5   4  -4 1.78513 0.81252   2
   5   4  -4 1.39889 0.48135   1
  -5  -4   4 2.27278 1.05878   3
   4   4  -4 1.14148 0.63617   2
  -4  -4   4 1.96553 0.87866   3
  -4  -4   4 1.83662 0.67972   1
   3   4  -4 54.2278 1.32093   1
   3   4  -4 54.7818 1.95075   2
  -3  -4   4 53.3048 1.52684   1
   2   4  -4 369.784 6.74298   3
   2   4  -4 363.800 5.43810   1
   2   4  -4 364.231 6.18578   2
   2   4  -4 362.611 6.53295   2
  -2  -4   4 365.279 6.60706   3
   1   4  -4 283.035 5.01200   2
   1   4  -4 285.753 4.31425   1
   1   4  -4 285.256 5.38292   2
   1   4  -4 284.880 5.31223   3
  -1  -4   4 295.184 4.39612   1
   0   4  -4 9.66991 0.81407   3
   0   4  -4 9.55349 0.56529   1
   0   4  -4 10.2569 0.75319   2
   0   4  -4 10.4618 0.43928   1
   0  -4   4 10.1274 0.77527   3
  -1   4  -4 475.043 7.62862   2
  -1   4  -4 465.345 7.83865   3
  -1   4  -4 488.530 6.96004   1
  -1   4  -4 478.893 7.30601   1
  -1   4  -4 470.654 8.00961   2
   1  -4   4 467.986 7.80035   3
  -2   4  -4 458.841 7.73534   2
  -2   4  -4 454.937 7.38564   2
  -2   4  -4 456.275 7.71765   3
  -2   4  -4 463.654 6.94332   1
   2  -4   4 448.149 7.66217   3
   2  -4   4 466.529 7.02246   1
  -3   4  -4 1084.71 16.4331   2
  -3   4  -4 1059.83 16.0657   2
  -3   4  -4 1076.03 15.5613   1
  -3   4  -4 1070.95 17.3740   3
   3  -4   4 1087.16 15.6628   1
  -4   4  -4 431.113 8.62197   3
  -4   4  -4 446.467 7.46481   2
  -4   4  -4 441.616 7.21697   2
   4  -4   4 458.525 7.34575   1
  -5   4  -4 231.453 4.32294   2
  -5   4  -4 240.492 4.45694   2
  -5   4  -4 238.543 6.03969   3
   5  -4   4 242.370 4.71705   1
  -6   4  -4 19.0942 1.23393   2
  -6   4  -4 18.0568 2.64769   3
  -7   4  -4 0.00128 1.76765   3
   7  -4   4 0.98489 0.83015   1
  -8   4  -4 19.9724 4.25531   3
   8  -4   4 15.8575 2.15562   1
  -9   4  -4 8.12581 3.27668   3
   9  -4   4 6.48551 1.46722   1
   9   3  -4 -1.0852 1.23761   1
  -9  -3   4 -0.3637 2.36106   3
   8   3  -4 3.12152 1.00132   1
  -8  -3   4 4.01973 2.13515   3
   7   3  -4 7.51900 1.52794   2
   7   3  -4 7.05592 1.42982   1
  -7  -3   4 8.55426 1.84328   3
   6   3  -4 80.0687 2.35171   2
   6   3  -4 73.9310 2.23349   2
   6   3  -4 80.5908 2.30452   1
   5   3  -4 64.9212 1.91046   2
   5   3  -4 63.5540 2.02737   2
   5   3  -4 64.0496 1.86982   1
  -5  -3   4 63.2319 2.78865   3
   4   3  -4 149.071 3.03722   2
   4   3  -4 144.167 2.95583   1
  -4  -3   4 147.039 3.13559   1
  -4  -3   4 149.804 3.86534   3
   3   3  -4 129.122 2.65062   2
   3   3  -4 125.471 2.88367   2
   3   3  -4 124.252 3.26290   3
   3   3  -4 123.060 2.40565   1
  -3  -3   4 125.337 2.56879   1
  -3  -3   4 125.586 3.15987   3
   2   3  -4 253.948 4.80285   2
   2   3  -4 257.851 4.10002   1
   2   3  -4 261.141 4.51162   2
   2   3  -4 259.557 4.88055   3
  -2  -3   4 261.435 4.84973   3
  -2  -3   4 258.818 4.22470   1
   1   3  -4 946.698 13.5861   1
   1   3  -4 929.767 14.6751   2
   1   3  -4 974.280 14.6857   3
   1   3  -4 959.668 14.3408   2
  -1  -3   4 963.409 14.6120   3
  -1  -3   4 978.969 13.6536   1
   0   3  -4 101.756 1.81947   1
   0   3  -4 99.0986 1.99410   1
   0   3  -4 102.075 2.17066   2
   0   3  -4 102.115 2.19303   3
   0  -3   4 99.8914 2.14215   3
   0  -3   4 96.9783 2.12205   2
  -1   3  -4 11.7526 0.76501   1
  -1   3  -4 11.4340 0.70921   3
  -1   3  -4 11.6462 0.54664   1
  -1   3  -4 12.9150 0.71155   2
   1  -3   4 10.5049 0.65230   3
   1  -3   4 11.6219 0.68604   2
  -2   3  -4 199.890 3.78518   3
  -2   3  -4 204.117 3.44679   1
  -2   3  -4 203.434 3.65998   2
   2  -3   4 202.044 3.60963   2
   2  -3   4 196.960 3.73876   3
   2  -3   4 204.998 3.53563   1
  -3   3  -4 1572.04 24.1399   3
  -3   3  -4 1534.55 23.4866   3
  -3   3  -4 1569.11 22.8788   2
   3  -3   4 1578.81 22.8080   2
   3  -3   4 1573.98 22.3275   1
  -4   3  -4 199.110 4.84554   3
  -4   3  -4 200.987 3.70275   2
   4  -3   4 196.515 3.54934   2
   4  -3   4 196.483 3.91178   1
  -5   3  -4 153.327 3.12874   2
  -5   3  -4 151.118 4.41556   3
   5  -3   4 149.937 2.84698   2
   5  -3   4 146.873 3.43053   1
  -6   3  -4 86.5228 2.14524   2
  -6   3  -4 88.0854 3.88941   3
  -7   3  -4 21.4521 3.18586   3
   7  -3   4 15.6221 1.71022   1
  -8   3  -4 37.0789 4.37798   3
   8  -3   4 39.2536 2.48756   1
  -9   3  -4 1.33447 3.15915   3
   9  -3   4 1.56644 1.41053   1
   9   2  -4 3.67150 1.23952   1
  -9  -2   4 6.10967 2.37742   3
   8   2  -4 1.50883 0.94657   1
  -8  -2   4 4.06005 1.83507   3
   7   2  -4 14.0332 1.36766   2
   7   2  -4 14.7248 1.43499   1
   6   2  -4 38.9414 1.66894   1
   6   2  -4 36.4807 1.41395   2
   6   2  -4 36.4167 1.51037   2
  -6  -2   4 38.4761 2.63628   3
   5   2  -4 129.165 2.61748   2
   5   2  -4 126.943 2.77638   2
   5   2  -4 127.628 2.83478   1
  -5  -2   4 130.420 3.81589   3
   4   2  -4 99.1788 2.37346   2
   4   2  -4 103.727 2.18326   2
   4   2  -4 100.451 2.25568   1
  -4  -2   4 99.4560 2.91475   3
  -4  -2   4 98.6096 2.45527   1
   3   2  -4 469.004 8.16536   3
   3   2  -4 476.692 7.37971   2
   3   2  -4 470.243 7.68415   2
   3   2  -4 459.502 7.18860   1
  -3  -2   4 473.313 7.36030   1
  -3  -2   4 468.179 8.10214   3
   2   2  -4 1014.04 14.7559   2
   2   2  -4 973.682 14.2294   1
   2   2  -4 1005.44 15.2758   3
  -2  -2   4 996.958 15.1783   3
  -2  -2   4 984.337 14.7296   2
  -2  -2   4 991.666 14.3154   1
   1   2  -4 1021.83 14.6095   1
   1   2  -4 1053.46 15.3491   3
   1   2  -4 1018.20 15.1332   2
  -1  -2   4 1043.97 14.6280   1
  -1  -2   4 1007.45 15.2616   3
  -1  -2   4 1000.37 15.1143   2
   0   2  -4 215.787 3.60264   3
   0   2  -4 204.898 3.60181   1
   0   2  -4 215.493 3.67552   2
   0  -2   4 208.121 3.57542   1
   0  -2   4 206.182 3.63933   2
   0  -2   4 205.428 3.51324   3
  -1   2  -4 406.305 6.10463   1
  -1   2  -4 406.484 6.45829   2
  -1   2  -4 401.069 6.47252   1
  -1   2  -4 393.561 6.49682   3
   1  -2   4 412.155 6.43984   2
   1  -2   4 402.229 6.34343   3
  -2   2  -4 262.063 4.27302   1
  -2   2  -4 261.235 4.43415   2
  -2   2  -4 260.454 4.47486   3
  -2   2  -4 257.121 4.82369   3
   2  -2   4 254.833 4.36372   2
   2  -2   4 256.780 4.34624   1
  -3   2  -4 176.690 3.28204   2
  -3   2  -4 168.803 3.87023   3
  -3   2  -4 165.216 3.40673   3
   3  -2   4 173.883 3.16338   2
   3  -2   4 171.992 3.34876   1
  -4   2  -4 47.0277 1.58409   2
  -4   2  -4 46.6713 2.19690   3
   4  -2   4 45.3481 1.32361   2
  -5   2  -4 114.725 2.70291   2
  -5   2  -4 117.498 3.80855   3
   5  -2   4 114.135 2.92836   1
   5  -2   4 113.815 2.35683   2
  -6   2  -4 48.4913 3.14180   3
   6  -2   4 48.7114 1.41713   2
  -7   2  -4 47.5075 3.81005   3
   7  -2   4 52.4281 2.50064   1
  -8   2  -4 21.1200 4.12850   3
   8  -2   4 13.5440 2.14875   1
  -9   2  -4 0.63128 3.05134   3
   9  -2   4 3.26591 1.50744   1
  10   1  -4 13.9759 2.50753   1
 -10  -1   4 14.9465 3.60842   3
   9   1  -4 -0.1054 1.07172   1
  -9  -1   4 -0.5771 2.33502   3
   8   1  -4 1.97796 0.90496   1
   7   1  -4 106.138 2.96139   1
   6   1  -4 36.4132 1.25537   2
   6   1  -4 34.9727 1.61024   1
   6   1  -4 32.4604 1.18019   2
  -6  -1   4 37.7464 2.62037   3
   5   1  -4 48.3152 1.66269   1
   5   1  -4 46.8971 1.41765   2
   5   1  -4 49.8890 1.33219   2
  -5  -1   4 50.0567 2.47317   3
   4   1  -4 63.4783 2.29771   3
   4   1  -4 60.9848 1.63376   2
   4   1  -4 63.5280 1.49269   2
   4   1  -4 59.0662 1.68472   1
  -4  -1   4 60.2655 1.86861   1
  -4  -1   4 59.8798 2.27771   3
   3   1  -4 1232.34 18.8845   3
   3   1  -4 1227.06 17.9313   2
   3   1  -4 1226.18 17.6062   1
  -3  -1   4 1218.91 18.8073   3
  -3  -1   4 1226.96 17.7352   1
  -3  -1   4 1240.55 17.9262   2
   2   1  -4 1414.75 20.5770   1
   2   1  -4 1454.74 21.1329   2
   2   1  -4 1507.23 21.7019   3
  -2  -1   4 1426.76 21.1052   2
  -2  -1   4 1471.76 21.5725   3
  -2  -1   4 1459.01 20.6594   1
   1   1  -4 1184.06 17.0413   3
   1   1  -4 1169.17 17.0122   2
   1   1  -4 1145.95 16.5785   1
  -1  -1   4 1165.39 16.5809   1
  -1  -1   4 1128.30 16.9889   2
  -1  -1   4 1172.50 16.9910   3
   0   1  -4 31.8560 1.08151   1
   0   1  -4 29.9063 0.98922   2
   0   1  -4 30.7508 0.72035   3
   0  -1   4 29.9891 1.07774   1
   0  -1   4 31.0480 0.98809   2
   0  -1   4 29.8851 0.69904   3
  -1   1  -4 363.516 5.85137   2
  -1   1  -4 353.512 5.53464   1
  -1   1  -4 365.619 5.55631   3
  -1   1  -4 353.585 5.93414   1
  -1   1  -4 360.596 5.75399   3
   1  -1   4 358.041 5.79172   2
  -2   1  -4 1210.84 17.6897   2
  -2   1  -4 1170.04 17.6749   3
  -2   1  -4 1204.16 17.0302   1
  -2   1  -4 1187.76 18.0651   3
   2  -1   4 1202.38 17.5805   2
   2  -1   4 1187.64 17.1439   1
  -3   1  -4 150.071 2.99749   2
  -3   1  -4 142.459 3.36970   3
   3  -1   4 148.632 3.37328   3
   3  -1   4 144.897 2.99471   1
   3  -1   4 142.724 2.83162   2
  -4   1  -4 16.2908 1.22761   2
  -4   1  -4 14.0029 1.55607   3
   4  -1   4 16.7405 1.07357   1
   4  -1   4 14.0409 0.90293   2
  -5   1  -4 18.1639 2.05258   3
  -5   1  -4 18.7920 1.48085   2
   5  -1   4 17.8218 1.03484   2
   5  -1   4 17.8323 1.27792   1
  -6   1  -4 17.4503 2.69164   3
   6  -1   4 16.4536 1.08348   2
  -7   1  -4 15.5340 3.26790   3
  -8   1  -4 4.20512 2.48785   3
   8  -1   4 3.42555 1.23687   1
  -9   1  -4 4.40849 3.20140   3
   9  -1   4 0.14019 1.54801   1
  10   0  -4 27.3520 2.67441   1
 -10   0   4 19.2732 3.76764   3
   9   0  -4 43.2023 2.51037   1
  -9   0   4 48.1571 4.55590   3
   8   0  -4 95.4882 3.06242   1
  -8   0   4 93.2234 4.42513   3
   7   0  -4 22.3304 1.59344   1
   6   0  -4 2.39582 0.61740   1
  -6   0   4 3.33623 1.30730   3
   5   0  -4 119.537 2.34070   2
  -5   0   4 118.468 3.56921   3
   4   0  -4 107.751 2.09272   2
   4   0  -4 99.5606 2.39009   1
   4   0  -4 106.614 2.92279   3
  -4   0   4 107.014 2.01442   2
  -4   0   4 103.843 2.96960   3
  -4   0   4 105.343 2.61667   1
   3   0  -4 1832.14 26.9923   3
   3   0  -4 1818.21 26.0206   2
   3   0  -4 1783.43 25.4885   1
  -3   0   4 1781.55 26.9670   3
  -3   0   4 1831.39 25.6570   1
  -3   0   4 1780.32 25.9534   2
   2   0  -4 1253.55 18.2390   2
   2   0  -4 1239.38 17.8749   1
  -2   0   4 1263.65 18.5750   3
  -2   0   4 1251.86 17.9381   1
  -2   0   4 1232.38 18.2011   2
   1   0  -4 545.819 8.49046   2
   1   0  -4 548.142 8.37716   1
  -1   0   4 540.038 8.44373   2
  -1   0   4 553.300 8.38326   1
  -1   0   4 562.682 8.13256   3
   0   0  -4 6.71281 0.61209   2
   0   0   4 8.65084 0.68375   1
  -1   0  -4 702.900 10.8366   1
  -1   0  -4 710.357 10.6506   3
  -1   0  -4 715.058 10.9254   2
   1   0   4 713.832 10.8761   2
   1   0   4 710.922 10.6579   3
  -2   0  -4 1000.88 14.5965   1
  -2   0  -4 1040.17 15.3074   2
  -2   0  -4 996.782 15.4100   3
   2   0   4 1033.80 15.4229   3
   2   0   4 992.541 14.7413   1
   2   0   4 1005.65 15.1702   2
  -3   0  -4 69.8325 2.21033   3
  -3   0  -4 70.8338 2.02244   2
   3   0   4 71.2742 1.87915   2
   3   0   4 67.3774 1.88153   1
   3   0   4 69.6835 2.23223   3
  -4   0  -4 87.0272 2.91184   3
  -4   0  -4 85.1113 2.37179   2
   4   0   4 82.6520 2.30327   1
   4   0   4 82.9178 2.18233   2
  -5   0  -4 0.52508 0.89426   2
  -5   0  -4 -0.7284 1.15144   3
   5   0   4 1.12629 0.62017   2
   5   0   4 0.05400 0.52117   1
  -6   0  -4 5.35391 1.55848   3
   6   0   4 2.67027 0.83387   1
   6   0   4 3.41798 0.75794   2
  -7   0  -4 0.61404 1.80414   3
   7   0   4 -0.0937 0.89875   1
  -8   0  -4 1.09776 2.38430   3
   8   0   4 0.30534 1.21902   1
  10  -1  -4 15.0655 2.69180   1
 -10   1   4 17.4081 3.56306   3
   9  -1  -4 10.1581 1.94671   1
  -9   1   4 14.2001 2.71824   3
   8  -1  -4 164.723 4.11265   1
  -8   1   4 165.919 5.76914   3
   7  -1  -4 205.406 4.31263   1
  -7   1   4 165.493 5.65072   3
   6  -1  -4 67.1533 2.20885   1
  -6   1   4 68.2890 3.07220   3
   5  -1  -4 92.8376 1.92720   2
   5  -1  -4 91.7979 2.40333   1
  -5   1   4 91.7214 3.12301   3
  -5   1   4 89.8579 1.72805   2
   4  -1  -4 158.589 2.89582   2
   4  -1  -4 160.528 3.72633   3
   4  -1  -4 151.055 3.20876   1
  -4   1   4 154.568 3.76241   3
  -4   1   4 156.023 2.76803   2
   3  -1  -4 1291.61 18.8327   2
   3  -1  -4 1230.03 18.6631   1
   3  -1  -4 1309.24 19.5447   3
  -3   1   4 1299.03 19.6118   3
  -3   1   4 1266.67 18.7436   2
  -3   1   4 1314.96 18.7062   1
   2  -1  -4 54.7723 1.43945   2
   2  -1  -4 53.5953 1.52363   1
  -2   1   4 54.0092 1.45527   3
  -2   1   4 51.7897 1.38717   2
   1  -1  -4 261.266 4.54713   2
   1  -1  -4 259.035 4.48966   1
  -1   1   4 268.347 4.52603   1
  -1   1   4 258.444 4.52438   2
  -1   1   4 255.544 3.97623   3
  -1   1   4 259.400 4.10371   3
   0  -1  -4 199.453 3.67969   1
   0  -1  -4 199.512 3.71681   2
   0   1   4 196.663 3.66057   1
   0   1   4 189.464 3.66269   2
  -1  -1  -4 925.198 13.8899   2
  -1  -1  -4 901.703 13.1080   1
  -1  -1  -4 900.684 13.6001   1
  -1  -1  -4 916.776 13.4754   3
   1   1   4 892.285 13.5785   3
   1   1   4 905.475 13.8416   2
  -2  -1  -4 484.412 8.03809   1
  -2  -1  -4 484.620 7.97125   2
  -2  -1  -4 475.559 7.41981   1
  -2  -1  -4 479.086 7.82167   3
   2   1   4 475.435 7.94425   3
   2   1   4 481.054 7.92612   2
  -3  -1  -4 17.3567 1.30283   3
  -3  -1  -4 19.6174 1.33889   2
   3   1   4 19.8961 1.25595   2
   3   1   4 16.9696 0.98483   1
   3   1   4 19.4011 1.57306   3
  -4  -1  -4 24.0830 1.78726   3
   4   1   4 24.2635 1.45247   2
   4   1   4 25.2024 1.34717   1
  -5  -1  -4 10.3925 1.92466   3
   5   1   4 8.48579 1.22732   1
   5   1   4 8.54605 1.27746   2
  -6  -1  -4 7.09374 1.76944   3
   6   1   4 6.81656 1.47486   1
   6   1   4 6.46383 1.09089   2
  -7  -1  -4 2.48361 2.08256   3
   7   1   4 0.32261 1.15883   1
  -8  -1  -4 -2.1660 2.36237   3
   8   1   4 2.51752 1.44395   1
  10  -2  -4 3.04412 1.41280   1
 -10   2   4 4.51306 3.03368   3
   9  -2  -4 36.5571 2.46883   1
  -9   2   4 37.5097 4.27491   3
   8  -2  -4 78.7893 2.78094   1
  -8   2   4 76.5222 4.35725   3
  -7   2   4 42.4753 2.96810   3
  -6   2   4 373.528 7.99083   3
   5  -2  -4 703.284 11.0958   1
   5  -2  -4 714.216 10.6742   2
  -5   2   4 718.245 10.5633   2
  -5   2   4 706.374 12.4402   3
   4  -2  -4 235.395 4.46614   1
   4  -2  -4 240.291 4.18513   2
  -4   2   4 240.131 5.09437   3
  -4   2   4 242.211 4.50190   3
  -4   2   4 240.600 4.10463   2
   3  -2  -4 378.974 6.25799   2
   3  -2  -4 376.759 6.28745   1
  -3   2   4 382.151 6.25772   3
  -3   2   4 378.766 6.21505   2
  -3   2   4 374.325 6.71519   3
  -3   2   4 381.018 6.40745   1
   2  -2  -4 30.7665 1.20122   2
   2  -2  -4 31.0983 1.20273   1
  -2   2   4 29.8775 1.14917   2
  -2   2   4 30.8697 0.94528   3
  -2   2   4 31.0872 1.15662   3
  -2   2   4 29.4511 1.21972   1
   1  -2  -4 16.1097 0.60651   3
   1  -2  -4 15.3638 0.95419   2
   1  -2  -4 16.6028 0.91360   1
  -1   2   4 13.8199 0.89917   2
  -1   2   4 14.7428 0.92674   1
  -1   2   4 15.3768 0.62709   3
   0  -2  -4 236.930 3.77684   3
   0  -2  -4 226.253 4.37154   2
   0  -2  -4 227.392 4.19780   1
   0   2   4 230.586 4.39865   2
   0   2   4 231.144 3.84035   3
   0   2   4 230.314 4.24085   1
  -1  -2  -4 695.101 10.9836   1
  -1  -2  -4 713.664 10.6972   3
  -1  -2  -4 695.035 10.3493   1
  -1  -2  -4 697.197 11.1206   2
   1   2   4 688.328 10.8100   3
   1   2   4 702.158 11.1683   2
  -2  -2  -4 8.61639 1.10927   1
  -2  -2  -4 10.5163 0.91034   3
   2   2   4 8.86082 1.06722   2
   2   2   4 7.95807 1.16874   3
  -3  -2  -4 0.81278 0.63084   1
  -3  -2  -4 2.80967 0.75004   3
   3   2   4 1.89205 0.71435   2
   3   2   4 0.94753 0.94279   3
  -4  -2  -4 60.7043 2.53894   3
   4   2   4 64.5909 2.29502   2
   4   2   4 62.3891 2.03771   1
  -5  -2  -4 1.57134 1.18465   3
   5   2   4 1.02027 0.62653   1
   5   2   4 0.98370 0.96289   2
  -6  -2  -4 -1.3770 1.49202   3
   6   2   4 0.69546 0.92473   1
   6   2   4 2.77327 1.07695   2
   7   2   4 28.8099 2.35320   1
  -8  -2  -4 5.89973 2.70826   3
   8   2   4 0.21244 1.45909   1
  10  -3  -4 14.2550 2.42535   1
 -10   3   4 12.2220 3.38579   3
   9  -3  -4 21.6397 2.28212   1
  -9   3   4 22.4705 4.10842   3
   8  -3  -4 19.5505 1.76992   1
  -8   3   4 14.4969 3.24014   3
   6  -3  -4 156.293 3.67778   1
  -6   3   4 163.780 4.77836   3
   5  -3  -4 361.677 5.99219   2
   5  -3  -4 367.834 6.42360   1
  -5   3   4 361.646 5.94201   2
  -5   3   4 373.167 7.55551   3
   4  -3  -4 720.647 11.0202   2
   4  -3  -4 701.481 10.9971   1
  -4   3   4 700.703 10.9928   2
  -4   3   4 718.291 12.0934   3
   3  -3  -4 570.887 9.17570   2
   3  -3  -4 579.971 9.03026   1
  -3   3   4 578.447 9.19897   1
  -3   3   4 570.999 9.14354   3
  -3   3   4 561.667 9.62483   3
  -3   3   4 571.762 9.20099   2
   2  -3  -4 135.341 2.67737   3
   2  -3  -4 133.586 2.96815   2
  -2   3   4 136.235 3.00412   1
  -2   3   4 136.117 2.71229   3
   1  -3  -4 99.4641 2.50830   2
   1  -3  -4 103.276 2.11185   3
   1  -3  -4 102.807 2.41262   1
  -1   3   4 104.298 2.16651   3
  -1   3   4 99.2709 2.62552   2
  -1   3   4 103.349 2.48958   1
   0  -3  -4 31.3636 1.05770   3
   0  -3  -4 31.3515 1.31630   1
   0   3   4 33.3103 1.44013   1
   0   3   4 32.0180 1.15319   3
   0   3   4 29.3012 1.47908   2
  -1  -3  -4 33.2956 1.19435   1
  -1  -3  -4 32.5888 1.23163   3
  -1  -3  -4 30.7309 1.48118   1
   1   3   4 32.7555 1.63321   2
   1   3   4 31.8528 1.40080   3
  -2  -3  -4 24.7144 1.49708   1
   2   3   4 24.4628 1.65459   2
   2   3   4 22.2320 1.62533   3
  -3  -3  -4 1.19823 0.82025   1
  -3  -3  -4 0.88812 0.80109   3
   3   3   4 0.62652 0.80584   2
  -4  -3  -4 22.6280 1.99520   1
  -4  -3  -4 20.7133 1.95329   3
   4   3   4 23.8020 1.88307   2
  -5  -3  -4 3.54202 1.38058   3
   5   3   4 3.61858 0.85137   1
   5   3   4 2.61419 1.09297   2
  -6  -3  -4 5.51249 1.81062   3
  -6  -3  -4 5.41773 1.63895   1
   6   3   4 4.83871 1.17479   1
   6   3   4 4.35289 1.43267   2
  -7  -3  -4 13.1226 2.49257   3
  -7  -3  -4 11.0901 2.26350   1
   7   3   4 13.3916 2.35160   1
  10  -4  -4 56.0120 3.29593   1
 -10   4   4 58.2498 5.87819   3
   9  -4  -4 124.370 3.98956   1
  -9   4   4 126.237 5.87808   3
  -8   4   4 4.62136 1.93632   3
   7  -4  -4 21.3770 1.59976   1
   6  -4  -4 98.1037 2.79050   1
   6  -4  -4 96.3688 2.34200   2
  -6   4   4 100.364 2.22350   2
  -6   4   4 101.662 3.95089   3
   5  -4  -4 226.977 4.27663   2
   5  -4  -4 224.838 4.49673   1
  -5   4   4 225.826 5.52141   3
  -5   4   4 223.737 4.25379   2
   4  -4  -4 225.557 4.39556   2
   4  -4  -4 231.655 4.44825   1
  -4   4   4 228.342 5.17770   3
  -4   4   4 225.268 4.43813   2
   3  -4  -4 307.390 5.68945   2
   3  -4  -4 313.102 5.53594   1
  -3   4   4 317.430 6.16653   3
  -3   4   4 312.350 5.82915   2
  -3   4   4 319.356 5.64913   3
   2  -4  -4 172.340 3.52962   1
   2  -4  -4 177.320 3.46105   3
  -2   4   4 177.374 3.72997   1
  -2   4   4 169.656 3.85282   2
  -2   4   4 173.044 3.50422   3
   1  -4  -4 31.5948 1.21087   3
  -1   4   4 31.7191 1.66600   2
  -1   4   4 31.0926 1.49307   1
  -1   4   4 30.1357 1.29059   3
   0  -4  -4 153.309 3.14606   3
   0  -4  -4 152.768 3.32132   1
   0   4   4 151.983 3.38279   1
   0   4   4 153.011 3.27700   3
   0   4   4 155.003 3.76443   2
  -1  -4  -4 0.80760 0.53708   1
  -1  -4  -4 1.02759 0.47754   1
   1   4   4 0.08785 0.71585   3
   1   4   4 0.68627 0.72530   2
  -2  -4  -4 2.80500 0.74871   1
  -2  -4  -4 3.65416 0.83397   3
   2   4   4 3.75560 0.96709   2
  -3  -4  -4 5.53323 1.09488   3
  -3  -4  -4 4.66196 0.98815   1
   3   4   4 5.14971 1.14768   2
  -4  -4  -4 33.6456 2.33520   3
  -4  -4  -4 30.8363 2.41272   1
   4   4   4 27.8197 2.21084   2
  -5  -4  -4 62.3110 3.31176   3
   5   4   4 58.4093 2.89381   2
  -6  -4  -4 25.0893 3.44746   3
  -7  -4  -4 0.69148 2.05553   1
  -7  -4  -4 0.81432 2.38635   3
  10  -5  -4 41.4304 3.07626   1
 -10   5   4 27.2578 5.62573   3
   9  -5  -4 83.9477 3.39398   1
  -9   5   4 86.2216 5.40268   3
   8  -5  -4 68.1452 2.79162   1
  -8   5   4 61.5192 4.47987   3
   7  -5  -4 193.877 4.51921   1
  -7   5   4 205.297 6.20038   3
   6  -5  -4 40.9725 1.87718   1
   6  -5  -4 37.2014 1.87924   2
  -6   5   4 39.4046 2.93559   3
   5  -5  -4 76.7513 2.34956   1
  -5   5   4 73.8076 2.31782   2
  -5   5   4 73.9752 3.16949   3
   4  -5  -4 44.5258 1.76383   1
  -4   5   4 44.7858 2.31897   3
  -4   5   4 44.7495 2.00179   2
   3  -5  -4 72.1699 2.13496   3
   3  -5  -4 70.6457 2.12300   1
  -3   5   4 65.0057 2.38629   2
   2  -5  -4 77.7911 2.20154   3
   2  -5  -4 76.6141 2.17897   1
  -2   5   4 75.1295 2.60355   2
   1  -5  -4 1.58772 0.55784   1
   1  -5  -4 1.46876 0.55999   3
  -1   5   4 3.17106 0.76820   1
  -1   5   4 1.47940 0.72241   3
  -1   5   4 1.50338 0.79232   2
   0  -5  -4 16.1831 1.10636   1
   0  -5  -4 13.0796 1.16441   1
   0  -5  -4 15.0996 1.22620   3
   0   5   4 14.2016 1.56538   2
   0   5   4 17.3085 1.48872   3
   0   5   4 12.2582 1.50290   1
  -1  -5  -4 5.62041 1.21652   1
  -1  -5  -4 5.18285 1.14786   3
   1   5   4 4.77134 1.05677   2
  -2  -5  -4 18.7490 1.65871   3
  -2  -5  -4 14.1628 1.55721   1
   2   5   4 18.3292 1.94017   2
  -3  -5  -4 43.0052 2.28988   3
  -3  -5  -4 41.1173 2.29728   1
   3   5   4 44.6806 2.45007   2
  -4  -5  -4 29.4267 2.46346   1
  -4  -5  -4 30.8517 2.50527   3
  -5  -5  -4 3.45779 1.64249   3
  -5  -5  -4 2.89670 1.43532   1
   5   5   4 3.54506 1.55308   2
  -6  -5  -4 20.2601 3.36960   1
  -6  -5  -4 18.8208 3.75993   3
   9  -6  -4 9.55473 1.54622   1
  -9   6   4 10.6595 3.05710   3
   8  -6  -4 32.0852 2.30681   1
  -8   6   4 27.2122 3.76060   3
   7  -6  -4 349.909 6.72977   1
  -7   6   4 335.484 6.03026   2
  -7   6   4 353.824 8.79556   3
  -6   6   4 138.450 3.43731   2
   5  -6  -4 35.5461 1.76728   1
  -5   6   4 30.1794 1.91426   2
  -5   6   4 34.4585 2.61775   3
   4  -6  -4 0.90913 0.59707   1
  -4   6   4 1.86481 0.85379   2
  -4   6   4 0.66916 1.07931   3
   3  -6  -4 16.1656 1.27616   1
   3  -6  -4 18.2147 1.42167   3
  -3   6   4 17.5555 1.67676   2
   2  -6  -4 36.7915 1.74693   3
   2  -6  -4 38.3194 1.65675   1
  -2   6   4 34.4360 2.05205   2
   1  -6  -4 7.34848 1.20116   1
   1  -6  -4 7.77457 1.22156   3
  -1   6   4 7.30957 1.49850   2
   0  -6  -4 1.54678 0.78776   3
   0  -6  -4 1.86736 0.67262   1
  -1  -6  -4 59.9029 2.28128   1
  -1  -6  -4 63.4863 2.37416   3
   1   6   4 52.7485 2.72995   2
  -2  -6  -4 0.56137 0.98589   3
  -2  -6  -4 2.09474 0.87391   1
  -3  -6  -4 69.8599 3.11041   3
  -3  -6  -4 73.0737 3.03749   1
   3   6   4 75.1559 3.33536   2
  -4  -6  -4 30.7109 2.81654   3
  -4  -6  -4 31.9760 2.72102   1
   4   6   4 31.5048 3.04037   2
  -5  -6  -4 -0.4279 1.93164   3
  -5  -6  -4 -1.3325 1.78300   1
   5   6   4 0.87854 1.86430   2
  -6  -6  -4 3.35497 2.36524   3
  -6  -6  -4 1.05843 2.21040   1
   6   6   4 0.47763 2.22962   2
   9  -7  -4 26.3967 2.77437   1
  -9   7   4 22.1628 4.80359   3
   8  -7  -4 55.8763 2.84228   1
  -8   7   4 50.2863 4.71709   3
   7  -7  -4 54.0867 2.52701   1
  -7   7   4 52.7157 4.14976   3
  -7   7   4 48.1782 2.41395   2
  -6   7   4 18.0020 2.92577   3
  -6   7   4 16.5487 1.86519   2
   5  -7  -4 33.1939 1.84221   1
  -5   7   4 31.7822 2.30893   2
   4  -7  -4 11.3148 1.52940   3
   4  -7  -4 13.2009 1.36145   1
  -4   7   4 12.5905 1.84672   2
   3  -7  -4 18.0040 1.43979   1
   3  -7  -4 21.0396 1.60466   3
  -3   7   4 14.4467 1.93895   2
   2  -7  -4 1.80854 0.65751   1
   2  -7  -4 0.35288 0.78767   3
  -2   7   4 1.98241 0.99493   2
   1  -7  -4 2.76272 0.77873   1
   1  -7  -4 1.96609 0.85983   3
  -1   7   4 1.46431 0.99783   2
   0  -7  -4 7.79969 1.45688   1
   0  -7  -4 8.57632 1.50043   3
  -1  -7  -4 7.42104 1.65791   1
  -1  -7  -4 10.9380 1.78132   3
   1   7   4 7.56716 1.53803   2
  -2  -7  -4 92.7328 3.23521   1
  -2  -7  -4 94.7934 3.49335   3
   2   7   4 96.8815 3.92374   2
  -3  -7  -4 117.588 3.82492   1
  -3  -7  -4 120.579 4.20368   3
   3   7   4 129.110 4.65164   2
   4   7   4 14.1135 3.33487   2
  -5  -7  -4 18.5782 3.94480   3
   5   7   4 13.7399 2.46861   2
   8  -8  -4 57.0476 3.09038   1
  -8   8   4 62.4478 5.50480   3
   7  -8  -4 34.2065 2.34756   1
  -7   8   4 27.8510 4.23072   3
   6  -8  -4 -1.2924 0.85777   1
  -6   8   4 -2.4536 1.25460   2
   5  -8  -4 0.83171 0.79646   1
  -5   8   4 1.95815 1.64076   3
  -5   8   4 0.14261 1.20706   2
   4  -8  -4 29.7714 2.13821   3
   4  -8  -4 28.5182 1.79100   1
  -4   8   4 25.7308 2.42432   2
   3  -8  -4 0.41306 0.77610   1
   3  -8  -4 -0.3924 0.95555   3
  -3   8   4 -2.2346 1.09461   2
   2  -8  -4 16.1654 1.53143   1
   2  -8  -4 15.5199 1.87202   3
  -2   8   4 14.8863 2.22735   2
   1  -8  -4 61.1943 2.67133   3
   1  -8  -4 60.4080 2.22651   1
  -1   8   4 54.0035 3.04983   2
   0  -8  -4 7.71359 1.78886   3
   0  -8  -4 7.29626 1.66044   1
  -1  -8  -4 14.4871 2.31018   3
  -1  -8  -4 9.06233 1.91650   1
   1   8   4 8.09719 1.83465   2
  -2  -8  -4 8.73819 1.73958   3
  -2  -8  -4 8.00576 1.54124   1
   2   8   4 13.4822 2.83209   2
  -3  -8  -4 98.1013 4.46213   3
   3   8   4 100.778 4.68744   2
  -4  -8  -4 25.6712 3.98865   3
   4   8   4 30.3182 4.24017   2
   7  -9  -4 -0.0951 1.26389   1
  -7   9   4 0.91926 2.71824   3
   6  -9  -4 14.0113 2.09109   1
  -6   9   4 11.5983 2.58223   3
  -6   9   4 12.0518 2.75108   2
  -5   9   4 2.76510 2.03338   3
  -5   9   4 5.26238 1.73052   2
   4  -9  -4 1.21784 1.21398   3
   4  -9  -4 1.49861 0.90113   1
  -4   9   4 0.50243 1.39096   2
   3  -9  -4 15.5965 1.74141   1
   3  -9  -4 16.2722 2.10634   3
   2  -9  -4 28.5133 2.46996   3
   2  -9  -4 28.3967 1.91191   1
  -2   9   4 25.4524 2.89691   2
   1  -9  -4 30.9178 2.68594   3
  -1   9   4 25.4850 2.75622   2
   0  -9  -4 18.6538 2.48314   3
   0   9   4 18.9057 3.02679   2
   1   9   4 69.0015 4.01571   2
  -2  -9  -4 34.2551 3.41721   3
   2   9   4 35.4758 3.74239   2
  -3  -9  -4 -1.3935 2.14507   3
   3   9   4 1.99217 2.27494   2
  -6  10   4 -1.1505 2.70377   3
  -6  10   4 1.66299 2.04932   2
  -5  10   4 3.28557 2.19824   3
  -5  10   4 1.72480 1.90193   2
   4 -10  -4 4.24604 1.58686   3
  -4  10   4 0.22369 1.84726   2
   3 -10  -4 17.2885 2.47763   3
  -3  10   4 21.0281 3.25779   2
   2 -10  -4 4.47745 1.67199   3
  -2  10   4 3.68842 1.94555   2
   1 -10  -4 19.8632 2.94160   3
  -1  10   4 15.3684 3.24574   2
   0 -10  -4 19.1974 3.10622   3
   0  10   4 22.5696 3.54166   2
  -1 -10  -4 61.0196 3.86889   3
   1  10   4 66.8443 4.48394   2
   3 -11  -4 3.04547 1.87585   3
  -3  11   4 6.31879 2.21460   2
   2 -11  -4 3.14090 2.02500   3
  -2  11   4 1.22522 2.00521   2
   1  12  -5 3.40559 2.11557   2
  -1 -12   5 -2.9903 2.00141   3
   0  12  -5 4.96689 2.01055   2
   0 -12   5 6.25795 1.88849   3
  -1  12  -5 15.9031 2.56755   2
   1 -12   5 21.6487 3.60772   3
  -2  12  -5 1.40891 1.94571   2
   2 -12   5 1.45144 1.75921   3
  -3  12  -5 9.33753 2.21334   2
   3 -12   5 10.5297 2.08023   3
  -4  12  -5 9.64699 2.26265   2
   4 -12   5 9.01514 2.20798   3
   3  11  -5 2.19183 2.03176   2
  -3 -11   5 0.09899 2.00414   3
   2  11  -5 2.57709 1.98362   2
  -2 -11   5 3.19820 1.97457   3
   1  11  -5 22.6483 3.09323   2
  -1 -11   5 20.2296 3.21968   3
   0  11  -5 6.07265 1.90934   2
   0 -11   5 5.98320 1.85263   3
  -1  11  -5 25.8113 2.80599   2
   1 -11   5 22.8207 3.09689   3
  -2  11  -5 33.3131 2.93273   2
   2 -11   5 28.6338 2.95920   3
  -3  11  -5 56.1622 3.33563   2
   3 -11   5 50.4254 3.39821   3
  -4  11  -5 5.77991 1.79604   2
   4 -11   5 12.3996 2.69891   3
  -5  11  -5 8.55579 2.08233   2
   5 -11   5 11.0676 2.10197   3
   4  10  -5 12.8519 2.32896   2
  -4 -10   5 8.32848 2.26315   3
   3  10  -5 5.02169 2.01267   2
  -3 -10   5 10.5905 2.14870   3
   2  10  -5 -1.0250 1.40704   2
  -2 -10   5 -0.4625 1.44353   3
   1  10  -5 16.6399 2.56313   2
  -1 -10   5 12.3689 2.72846   3
   0  10  -5 54.3718 3.11554   2
   0 -10   5 54.8054 3.03848   3
   1 -10   5 90.9116 3.70595   3
  -2  10  -5 72.6795 3.34823   2
   2 -10   5 74.7839 3.30364   3
  -3  10  -5 71.2631 3.28966   2
   3 -10   5 69.4405 3.35126   3
  -4  10  -5 7.22150 1.54141   2
   4 -10   5 9.33581 1.72160   3
  -5  10  -5 43.2431 2.90737   2
   5 -10   5 40.9019 3.08089   3
  -6  10  -5 29.8301 5.05049   3
   5   9  -5 4.23716 2.00296   2
  -5  -9   5 -0.1719 1.88791   3
   4   9  -5 1.02411 1.68125   2
  -4  -9   5 4.75219 1.77762   3
   3   9  -5 14.3882 2.42547   2
  -3  -9   5 12.1771 2.61826   3
   2   9  -5 7.64508 1.48800   2
  -2  -9   5 9.51408 2.29268   3
  -1  -9   5 0.34794 1.07898   3
   0   9  -5 38.7693 2.48046   2
   0  -9   5 37.5730 2.53634   3
  -1   9  -5 268.001 6.30962   2
   1  -9   5 269.472 6.19093   3
  -2   9  -5 208.685 5.31808   2
   2  -9   5 208.963 5.20738   3
  -3   9  -5 88.8600 3.29858   2
  -3   9  -5 83.3779 2.89973   1
   3  -9   5 86.9200 3.36429   3
  -4   9  -5 17.2323 2.09297   2
   4  -9   5 16.0164 1.44111   1
   4  -9   5 16.6652 2.15566   3
  -5   9  -5 58.9001 4.39323   3
  -5   9  -5 60.6180 2.86122   2
   5  -9   5 60.7661 2.39322   1
  -6   9  -5 60.0753 4.86531   3
  -6   9  -5 62.1468 3.00570   2
   6  -9   5 57.8791 2.73248   1
  -7   9  -5 28.8169 5.23241   3
   7  -9   5 24.4067 2.73046   1
   6   8  -5 16.2950 3.50850   2
  -6  -8   5 9.58273 2.41069   3
  -5  -8   5 53.9472 3.70077   3
   4   8  -5 33.9443 2.72389   2
  -4  -8   5 28.1461 2.84929   3
   3   8  -5 8.27907 1.96490   2
  -3  -8   5 8.00069 1.71241   3
   0   8  -5 32.6287 2.15168   2
   0  -8   5 32.3279 2.06485   3
  -1   8  -5 102.360 3.38997   2
   1  -8   5 99.7675 3.22831   3
  -2   8  -5 148.213 4.03804   2
  -2   8  -5 142.840 3.00138   1
   2  -8   5 145.809 3.93570   3
  -3   8  -5 75.2209 2.83123   2
   3  -8   5 74.8485 1.96266   1
  -4   8  -5 153.699 4.15162   2
   4  -8   5 160.591 4.34433   3
   4  -8   5 158.808 3.41549   1
  -5   8  -5 196.077 6.39070   3
  -5   8  -5 195.381 4.76571   2
   5  -8   5 202.049 4.31828   1
  -6   8  -5 26.7285 3.96170   3
  -6   8  -5 21.3867 2.14977   2
   6  -8   5 28.5507 2.00991   1
  -7   8  -5 14.9375 3.20743   3
   7  -8   5 10.4993 2.17187   1
  -8   8  -5 23.3002 5.56231   3
   8  -8   5 11.4577 1.79750   1
  -7  -7   5 -1.4338 2.21052   3
   6   7  -5 -0.0012 1.55712   2
  -6  -7   5 1.28877 1.88620   3
   5   7  -5 17.3192 1.18377   1
   5   7  -5 18.9711 2.44102   2
  -5  -7   5 16.1773 2.72672   3
   3   7  -5 189.100 4.82261   2
   2   7  -5 54.3330 2.52218   2
  -2  -7   5 57.1020 2.60785   3
   1   7  -5 188.071 4.65170   2
  -1  -7   5 191.269 4.55454   3
   0   7  -5 322.835 6.67528   2
   0  -7   5 325.641 6.50278   3
  -1   7  -5 103.729 3.21692   2
   1  -7   5 100.966 3.02024   3
  -2   7  -5 2.42820 0.51621   1
  -2   7  -5 1.87467 0.61705   1
  -2   7  -5 0.86472 0.85579   2
   2  -7   5 1.68074 0.76951   3
  -3   7  -5 13.1487 1.61498   2
   3  -7   5 10.9987 1.43382   3
   3  -7   5 13.2223 1.01644   1
  -4   7  -5 214.670 4.82116   2
   4  -7   5 207.620 4.96901   3
   4  -7   5 213.707 4.17497   1
  -5   7  -5 206.365 6.22090   3
  -5   7  -5 198.407 4.54827   2
   5  -7   5 197.918 4.27999   1
  -6   7  -5 94.7393 2.91089   2
  -6   7  -5 100.471 5.04347   3
   6  -7   5 90.9819 2.96628   1
  -7   7  -5 3.88987 2.40687   3
   7  -7   5 3.25330 1.13287   1
  -8   7  -5 -1.5337 2.70396   3
   8  -7   5 1.15392 1.37717   1
  -8  -6   5 3.40245 2.78256   3
   7   6  -5 1.19269 1.04815   1
  -7  -6   5 3.25738 2.09383   3
   6   6  -5 18.0391 1.53445   1
  -6  -6   5 13.7051 2.83877   3
   5   6  -5 44.1520 2.51165   2
   5   6  -5 40.6055 1.53561   1
  -5  -6   5 48.5734 3.27574   3
   4   6  -5 4.27169 0.75817   1
   4   6  -5 4.61962 0.99584   2
  -4  -6   5 2.94103 1.23112   3
  -4  -6   5 3.28174 0.88587   1
   3   6  -5 152.834 4.00672   2
  -3  -6   5 152.037 4.13035   3
   2   6  -5 240.407 5.35786   2
  -2  -6   5 250.796 5.35232   3
   1   6  -5 349.240 6.90215   2
  -1  -6   5 359.304 6.75817   3
   0   6  -5 270.862 5.62842   2
   0  -6   5 273.369 5.45840   3
  -1   6  -5 575.581 10.0209   2
  -1   6  -5 580.929 8.73369   1
  -1   6  -5 582.812 8.38974   1
   1  -6   5 572.889 9.83541   3
  -2   6  -5 114.259 2.28343   1
  -2   6  -5 112.221 3.12890   2
  -2   6  -5 113.341 2.71317   1
   2  -6   5 112.687 2.31271   1
   2  -6   5 111.977 3.03257   3
  -3   6  -5 5.73219 1.15059   2
   3  -6   5 7.85601 1.19645   3
   3  -6   5 7.54536 0.88451   1
  -4   6  -5 137.083 3.48221   2
  -4   6  -5 138.097 4.35349   3
   4  -6   5 134.582 3.10942   1
  -5   6  -5 3.20882 0.87264   2
  -5   6  -5 4.25420 1.59916   3
   5  -6   5 2.36853 0.74219   1
  -6   6  -5 16.1710 3.25298   3
  -6   6  -5 20.7802 1.66613   2
   6  -6   5 19.3157 1.66207   1
  -7   6  -5 31.9903 4.05676   3
   7  -6   5 32.6127 2.21515   1
  -8   6  -5 8.70336 3.03070   3
   8  -6   5 16.1499 2.44108   1
   8   5  -5 25.0175 2.40216   1
  -8  -5   5 20.8037 4.14823   3
   7   5  -5 8.94388 1.53852   2
   7   5  -5 7.42335 1.54668   1
  -7  -5   5 8.07483 2.08861   3
   6   5  -5 33.2623 2.26890   2
   6   5  -5 36.2212 1.69089   1
  -6  -5   5 38.1122 2.99723   3
   5   5  -5 116.920 2.64928   1
   5   5  -5 122.984 3.45315   2
   4   5  -5 100.478 3.02359   2
   4   5  -5 100.838 2.15549   1
  -4  -5   5 100.153 3.37932   3
  -4  -5   5 93.9733 2.57027   1
   3   5  -5 58.5143 1.42003   1
   3   5  -5 62.9530 2.31866   2
  -3  -5   5 60.4538 1.74238   1
  -3  -5   5 59.1095 2.36089   3
   2   5  -5 1.32164 0.66835   2
   2   5  -5 1.26395 0.28465   1
  -2  -5   5 1.09573 0.66011   3
   1   5  -5 540.757 7.89138   1
   1   5  -5 544.562 9.42648   2
  -1  -5   5 551.690 9.25008   3
   0   5  -5 675.673 11.4300   2
   0   5  -5 717.177 9.81900   1
   0   5  -5 679.827 10.0697   1
   0  -5   5 688.059 11.1979   3
  -1   5  -5 429.094 6.78797   1
  -1   5  -5 419.958 7.64571   2
  -1   5  -5 429.276 6.36475   1
   1  -5   5 425.651 7.37162   3
  -2   5  -5 214.841 4.61222   2
  -2   5  -5 224.303 3.76345   1
   2  -5   5 216.598 4.43673   3
   2  -5   5 221.246 3.83985   1
  -3   5  -5 117.997 3.07190   2
   3  -5   5 116.252 2.57766   1
   3  -5   5 111.869 2.93547   3
  -4   5  -5 103.258 2.83197   2
  -4   5  -5 101.585 3.69970   3
   4  -5   5 102.989 2.62179   1
  -5   5  -5 3.04750 1.38881   3
  -5   5  -5 6.65834 1.35194   2
   5  -5   5 3.96853 0.80579   1
  -6   5  -5 27.5092 3.16873   3
  -6   5  -5 23.3195 1.57196   2
   6  -5   5 23.7540 1.65779   1
   7  -5   5 9.34061 1.78785   1
  -8   5  -5 4.64882 2.66757   3
   8  -5   5 0.87875 1.17267   1
   9   4  -5 13.3020 2.67343   1
  -9  -4   5 10.8101 2.78700   3
   8   4  -5 25.8603 2.17845   1
  -8  -4   5 28.7502 3.74874   3
   7   4  -5 40.2079 2.35425   2
   7   4  -5 39.6638 2.04139   1
   6   4  -5 147.123 3.72015   2
   6   4  -5 145.855 3.28315   1
   5   4  -5 117.746 3.17105   2
   5   4  -5 119.246 2.70708   1
  -5  -4   5 118.796 3.86851   3
   4   4  -5 83.1077 2.58765   2
   4   4  -5 81.3555 1.97719   1
  -4  -4   5 81.7511 2.87772   3
  -4  -4   5 84.5019 2.38921   1
   3   4  -5 205.838 3.52006   1
   3   4  -5 199.386 4.33135   2
  -3  -4   5 201.120 4.49662   3
  -3  -4   5 204.650 3.74384   1
   2   4  -5 88.8217 1.84091   1
   2   4  -5 88.1996 2.56637   2
   2   4  -5 92.9972 2.64879   3
  -2  -4   5 91.6150 2.49469   3
  -2  -4   5 94.1043 2.03280   1
   1   4  -5 289.102 5.09621   2
   1   4  -5 282.146 5.29178   3
   1   4  -5 283.124 5.49305   2
   1   4  -5 280.699 4.53701   1
  -1  -4   5 290.174 4.61320   1
   0   4  -5 504.150 7.14762   1
   0   4  -5 484.325 7.93085   2
   0   4  -5 478.227 7.41687   1
   0   4  -5 488.932 8.08201   3
   0   4  -5 481.531 8.33877   2
   0  -4   5 482.355 8.00403   3
  -1   4  -5 349.610 6.10740   3
  -1   4  -5 347.033 6.42575   2
  -1   4  -5 352.853 6.01387   2
  -1   4  -5 352.434 5.86304   1
  -1   4  -5 358.440 5.42756   1
   1  -4   5 347.550 6.07104   3
   1  -4   5 354.599 5.99285   2
  -2   4  -5 11.0619 0.98308   2
  -2   4  -5 11.8019 1.09294   3
  -2   4  -5 12.8512 0.78058   1
   2  -4   5 12.2946 0.82488   2
   2  -4   5 12.7135 0.95836   3
  -3   4  -5 97.2871 3.05207   3
  -3   4  -5 96.0885 2.38395   2
   3  -4   5 95.9289 2.25335   2
   3  -4   5 94.4944 2.30403   1
  -4   4  -5 116.225 2.78366   2
  -4   4  -5 116.313 3.70307   3
  -4   4  -5 122.339 3.05167   2
   4  -4   5 121.913 2.62877   2
   4  -4   5 124.212 2.92150   1
  -5   4  -5 3.12130 0.79837   2
  -5   4  -5 4.24118 0.94533   2
  -5   4  -5 4.78217 1.50333   3
   5  -4   5 3.28070 0.71450   1
  -6   4  -5 57.1238 3.43572   3
  -6   4  -5 53.6019 1.97411   2
   6  -4   5 53.4536 2.23735   1
  -7   4  -5 2.93384 2.08951   3
   7  -4   5 -0.6066 0.83062   1
  -8   4  -5 -0.4534 2.47121   3
   8  -4   5 2.59657 1.24434   1
   9   3  -5 16.6512 2.32740   1
  -9  -3   5 18.0324 4.14750   3
   8   3  -5 16.0148 1.91276   1
  -8  -3   5 18.7799 3.48780   3
   7   3  -5 132.549 3.38843   2
   7   3  -5 137.800 3.42339   1
  -7  -3   5 133.020 4.92252   3
   6   3  -5 144.959 3.36660   2
   6   3  -5 142.441 3.29741   1
  -6  -3   5 135.920 4.49413   3
   5   3  -5 78.0382 2.24022   2
   5   3  -5 76.7495 2.14553   1
   5   3  -5 78.7067 2.34311   2
  -5  -3   5 79.5372 3.04642   3
   4   3  -5 102.590 2.44775   2
   4   3  -5 98.9119 2.29784   1
   4   3  -5 101.828 2.64885   2
  -4  -3   5 101.568 3.09968   3
  -4  -3   5 102.276 2.58820   1
   3   3  -5 291.224 4.84158   1
   3   3  -5 298.638 5.50869   2
   3   3  -5 286.102 5.81643   3
   3   3  -5 294.449 5.14168   2
  -3  -3   5 294.470 5.04121   1
  -3  -3   5 289.483 5.64079   3
   2   3  -5 780.595 12.4292   3
   2   3  -5 784.720 12.0249   2
   2   3  -5 788.448 11.4577   1
  -2  -3   5 795.336 11.5684   1
  -2  -3   5 767.758 12.3388   3
   1   3  -5 776.538 11.8667   2
   1   3  -5 760.261 11.3258   1
   1   3  -5 793.900 12.0587   3
  -1  -3   5 770.022 11.8692   2
  -1  -3   5 761.959 11.9193   3
  -1  -3   5 775.707 11.3458   1
   0   3  -5 66.2758 1.66509   3
   0   3  -5 63.0987 1.65327   1
   0   3  -5 65.4312 1.72354   2
   0   3  -5 64.7363 1.41971   1
   0  -3   5 67.4056 1.71105   1
   0  -3   5 62.6969 1.59920   3
  -1   3  -5 3.02317 0.49306   2
  -1   3  -5 4.18097 0.71659   1
  -1   3  -5 3.43882 0.47718   1
  -1   3  -5 4.70412 0.63020   3
   1  -3   5 3.45188 0.54284   3
   1  -3   5 4.04895 0.54854   2
  -2   3  -5 38.6484 1.20041   1
  -2   3  -5 39.7470 1.36242   3
  -2   3  -5 39.4784 1.35890   2
   2  -3   5 37.6479 1.24119   1
   2  -3   5 38.3788 1.30710   3
   2  -3   5 37.6917 1.24352   2
  -3   3  -5 80.1302 2.11808   2
  -3   3  -5 80.3037 2.21148   3
  -3   3  -5 81.3816 2.65464   3
   3  -3   5 81.2064 2.10464   1
   3  -3   5 78.9031 1.99620   2
  -4   3  -5 67.4608 2.80061   3
  -4   3  -5 70.7499 2.11914   2
   4  -3   5 70.8262 2.11701   1
  -5   3  -5 11.4921 1.94345   3
  -5   3  -5 15.4778 1.56936   2
   5  -3   5 12.0956 1.23477   1
  -6   3  -5 6.14899 1.70973   3
   6  -3   5 1.73885 0.73778   1
   6  -3   5 3.49514 0.69150   2
  -7   3  -5 39.9067 3.87244   3
   7  -3   5 47.1317 2.42988   1
  -8   3  -5 -0.8534 2.48979   3
   8  -3   5 0.43266 1.09846   1
   9   2  -5 35.9809 2.63485   1
  -9  -2   5 39.3513 4.22582   3
   8   2  -5 26.7644 1.99623   1
  -8  -2   5 28.2003 3.33954   3
   7   2  -5 145.925 3.59954   1
   7   2  -5 141.257 3.17108   2
  -7  -2   5 150.791 4.97672   3
   6   2  -5 70.9841 2.04439   2
   6   2  -5 72.9265 2.26242   1
   6   2  -5 73.4613 2.15828   2
  -6  -2   5 75.9198 3.26424   3
   5   2  -5 128.775 2.92084   2
   5   2  -5 130.041 2.72429   2
   5   2  -5 126.756 2.89917   1
  -5  -2   5 128.331 3.72481   3
   4   2  -5 290.277 5.28080   2
   4   2  -5 286.021 4.97725   1
   4   2  -5 287.812 4.94711   2
  -4  -2   5 289.956 5.23849   1
  -4  -2   5 284.530 5.77865   3
   3   2  -5 589.021 10.0177   3
   3   2  -5 598.995 9.08259   1
   3   2  -5 591.098 9.29661   2
  -3  -2   5 591.394 9.88467   3
  -3  -2   5 604.729 9.30871   2
  -3  -2   5 612.940 9.30201   1
   2   2  -5 697.895 10.6558   2
   2   2  -5 690.614 10.3581   1
   2   2  -5 704.494 10.9890   3
  -2  -2   5 678.200 10.6164   2
  -2  -2   5 699.526 10.8829   3
  -2  -2   5 695.518 10.4334   1
   1   2  -5 82.2102 1.84441   3
   1   2  -5 80.2653 1.91300   2
   1   2  -5 82.1693 1.92199   1
  -1  -2   5 85.0347 1.95808   1
  -1  -2   5 80.3374 1.89083   2
  -1  -2   5 80.9120 1.76845   3
   0   2  -5 144.274 2.92809   1
   0   2  -5 148.523 2.92691   2
   0  -2   5 150.787 2.92284   1
   0  -2   5 145.773 2.87113   2
   0  -2   5 144.165 2.59193   3
  -1   2  -5 -0.1493 0.31710   2
  -1   2  -5 0.22521 0.36585   1
  -1   2  -5 0.39207 0.25444   1
  -1   2  -5 -0.2313 0.26367   3
   1  -2   5 0.44887 0.24990   3
   1  -2   5 0.61873 0.30703   2
  -2   2  -5 103.259 2.22168   3
  -2   2  -5 102.095 2.50264   3
  -2   2  -5 103.153 2.19513   1
  -2   2  -5 102.490 2.69401   1
  -2   2  -5 101.441 2.34589   2
   2  -2   5 101.361 2.25152   2
   2  -2   5 100.045 2.25921   1
  -3   2  -5 40.7900 1.83680   3
  -3   2  -5 45.6131 1.57947   2
  -3   2  -5 40.7366 1.46525   3
   3  -2   5 42.9517 1.48210   1
   3  -2   5 41.2595 1.35706   2
  -4   2  -5 21.1916 1.87689   3
  -4   2  -5 24.2367 1.45453   2
   4  -2   5 22.0195 1.27893   1
  -5   2  -5 0.50448 0.96503   2
  -5   2  -5 1.41384 1.12765   3
  -6   2  -5 28.8194 2.85644   3
  -7   2  -5 51.1926 4.14868   3
   7  -2   5 45.1412 2.50502   1
  -8   2  -5 36.6641 4.88639   3
   8  -2   5 28.6827 2.66283   1
  10   1  -5 36.8149 2.90094   1
 -10  -1   5 43.4383 5.54105   3
   9   1  -5 19.6262 2.25477   1
  -9  -1   5 22.3399 4.28685   3
   8   1  -5 20.0159 1.87193   1
   7   1  -5 133.233 3.42351   1
   6   1  -5 7.31279 1.03433   2
   6   1  -5 8.74462 1.00708   2
   6   1  -5 7.72123 1.13121   1
  -6  -1   5 9.01850 1.52939   3
   5   1  -5 253.507 4.57036   2
   5   1  -5 252.117 4.73142   1
   5   1  -5 248.192 4.32454   2
  -5  -1   5 252.579 5.65290   3
   4   1  -5 519.202 8.35683   1
   4   1  -5 526.745 9.31517   3
   4   1  -5 528.946 8.25150   2
  -4  -1   5 528.278 9.23400   3
  -4  -1   5 533.332 8.20179   2
   3   1  -5 466.395 7.40535   2
   3   1  -5 475.123 8.01376   3
   3   1  -5 456.782 7.41364   1
  -3  -1   5 466.964 7.88139   3
  -3  -1   5 462.542 7.35714   2
  -3  -1   5 475.066 7.56955   1
   2   1  -5 215.078 3.86195   3
   2   1  -5 205.032 3.78729   1
   2   1  -5 202.638 3.70758   2
  -2  -1   5 211.911 3.77141   3
  -2  -1   5 209.622 3.84415   1
  -2  -1   5 205.143 3.69831   2
   1   1  -5 44.0028 1.09217   3
   1   1  -5 42.9369 1.34417   1
   1   1  -5 43.0369 1.28352   2
  -1  -1   5 45.5393 1.41263   1
  -1  -1   5 42.5116 0.99692   3
  -1  -1   5 43.0228 1.26406   2
   0   1  -5 265.443 4.57030   2
   0   1  -5 249.889 4.56232   1
   0  -1   5 259.189 4.51148   2
   0  -1   5 260.920 4.57984   1
  -1   1  -5 1.28440 0.40236   2
  -1   1  -5 1.09780 0.39873   1
  -1   1  -5 1.61072 0.34297   3
  -1   1  -5 1.19611 0.27325   3
  -1   1  -5 2.07726 0.45947   1
   1  -1   5 3.07033 0.51460   2
  -2   1  -5 107.073 2.49881   3
  -2   1  -5 107.785 2.51574   2
  -2   1  -5 106.024 2.34127   1
  -2   1  -5 108.646 2.20128   3
  -2   1  -5 107.582 2.79242   1
   2  -1   5 104.073 2.36253   2
  -3   1  -5 8.55285 1.10983   2
  -3   1  -5 9.99968 1.13164   3
   3  -1   5 9.27716 0.85364   1
  -4   1  -5 8.30806 1.50701   3
  -4   1  -5 7.41253 1.41387   2
   4  -1   5 7.07930 0.97221   1
   4  -1   5 6.56300 0.93111   2
  -5   1  -5 -1.5145 0.97156   2
  -5   1  -5 0.45368 1.10090   3
   5  -1   5 -0.4853 0.54483   2
  -6   1  -5 39.4460 3.14743   3
   6  -1   5 43.5535 1.62827   2
   6  -1   5 38.7970 2.13490   1
  -7   1  -5 20.6628 3.58706   3
   7  -1   5 20.4557 2.10842   1
  -8   1  -5 24.3048 4.67373   3
   8  -1   5 16.4609 2.57872   1
  10   0  -5 49.0878 3.13418   1
 -10   0   5 47.6074 5.46758   3
   9   0  -5 101.825 3.42946   1
  -9   0   5 104.635 5.52502   3
   8   0  -5 92.8750 3.07141   1
  -8   0   5 98.8419 4.74554   3
   7   0  -5 69.5743 2.43497   1
   6   0  -5 10.2642 1.04075   2
   6   0  -5 7.39044 0.88141   2
   6   0  -5 10.5913 1.15664   1
  -6   0   5 9.25625 2.03585   3
   5   0  -5 254.758 4.38931   2
   5   0  -5 246.493 4.76179   1
  -5   0   5 259.126 4.24492   2
  -5   0   5 256.810 5.67138   3
   4   0  -5 178.083 4.07581   3
   4   0  -5 175.194 3.57644   1
   4   0  -5 175.949 3.27985   2
  -4   0   5 175.972 4.04394   3
  -4   0   5 173.800 3.17417   2
   3   0  -5 244.359 4.65453   3
   3   0  -5 244.777 4.47212   1
   3   0  -5 244.143 4.29064   2
  -3   0   5 250.084 4.57908   1
  -3   0   5 244.749 4.22483   2
  -3   0   5 245.499 4.62529   3
   2   0  -5 9.48434 0.68671   3
   2   0  -5 10.5066 0.71389   2
   2   0  -5 10.3930 0.79002   1
  -2   0   5 10.1980 0.67781   3
  -2   0   5 10.2520 0.86404   1
  -2   0   5 10.0724 0.65712   2
   1   0  -5 0.73058 0.33941   2
   1   0  -5 0.44258 0.35569   1
  -1   0   5 0.80344 0.31309   2
  -1   0   5 0.78305 0.36810   1
   0   0  -5 1151.97 17.2143   2
   0   0  -5 1134.09 16.8428   1
   0   0   5 1146.34 17.1570   2
   0   0   5 1162.87 16.8456   1
  -1   0  -5 44.4745 1.47789   2
  -1   0  -5 44.8048 1.11143   3
  -1   0  -5 44.1359 1.29235   1
   1   0   5 44.9505 1.42393   2
  -2   0  -5 26.8816 1.44871   1
  -2   0  -5 29.9048 1.44183   2
  -2   0  -5 28.6712 1.22829   3
   2   0   5 28.7942 1.27866   3
   2   0   5 27.2151 1.26248   2
  -3   0  -5 240.790 4.68146   2
  -3   0  -5 230.292 4.67889   3
  -3   0  -5 232.621 5.05790   1
   3   0   5 228.839 4.41677   2
   3   0   5 228.855 4.40173   1
   3   0   5 232.036 4.75474   3
  -4   0  -5 3.70945 1.09308   3
   4   0   5 1.88212 0.65950   2
   4   0   5 2.83399 0.65984   1
  -5   0  -5 20.0108 2.27347   3
   5   0   5 23.4145 1.42429   2
   5   0   5 20.5673 1.49970   1
  -6   0  -5 32.3550 3.02274   3
   6   0   5 36.8503 2.07301   1
   6   0   5 33.0918 1.79144   2
  -7   0  -5 4.00374 2.09223   3
   7   0   5 4.36345 1.18116   1
  -8   0  -5 10.1780 2.94259   3
   8   0   5 11.6965 2.48045   1
  10  -1  -5 32.6813 2.83567   1
 -10   1   5 36.2339 5.52179   3
   9  -1  -5 56.3439 2.87949   1
  -9   1   5 54.2876 4.63548   3
   8  -1  -5 189.620 4.56067   1
  -8   1   5 194.258 6.19550   3
   7  -1  -5 104.584 2.94595   1
  -7   1   5 92.6714 3.99406   3
   6  -1  -5 40.5569 1.75542   1
   6  -1  -5 45.1839 1.46273   2
  -6   1   5 44.1315 2.64109   3
  -6   1   5 43.3112 1.12683   2
   5  -1  -5 254.579 4.48267   2
   5  -1  -5 251.037 4.88981   1
  -5   1   5 265.657 4.32149   2
  -5   1   5 252.592 5.66283   3
   4  -1  -5 86.2616 2.05396   2
   4  -1  -5 84.8584 2.58629   3
   4  -1  -5 82.7189 2.24924   1
  -4   1   5 82.8775 1.88366   2
  -4   1   5 83.1300 2.70154   3
   3  -1  -5 8.89521 0.89407   3
   3  -1  -5 9.59603 0.83941   2
   3  -1  -5 8.96961 0.82715   1
  -3   1   5 9.90209 0.94720   3
  -3   1   5 7.71429 0.91834   1
  -3   1   5 6.76943 0.67737   2
   2  -1  -5 109.308 2.64829   1
   2  -1  -5 111.887 2.50137   2
  -2   1   5 113.612 2.33561   3
  -2   1   5 116.635 2.68700   1
  -2   1   5 112.279 2.46180   2
  -2   1   5 113.531 2.08125   3
   1  -1  -5 121.055 2.69421   2
   1  -1  -5 119.576 2.66049   1
  -1   1   5 116.591 2.62094   2
  -1   1   5 124.063 2.75917   1
   0  -1  -5 34.0070 1.37330   2
   0  -1  -5 29.8431 1.31183   1
   0   1   5 32.3702 1.38589   1
  -1  -1  -5 153.275 3.41148   1
  -1  -1  -5 156.045 3.35106   2
  -1  -1  -5 156.848 2.74023   3
  -1  -1  -5 153.931 2.97406   1
   1   1   5 152.294 2.83483   3
   1   1   5 153.246 3.32629   2
  -2  -1  -5 30.5494 1.64068   1
  -2  -1  -5 31.4324 1.26972   3
   2   1   5 29.6589 1.48922   2
   2   1   5 30.6184 1.42346   3
  -3  -1  -5 1.36462 0.72778   1
   3   1   5 1.25437 0.93064   3
   3   1   5 1.38561 0.67751   2
  -4  -1  -5 14.6868 1.75480   1
  -4  -1  -5 17.7520 1.80101   3
   4   1   5 19.3815 1.41043   2
   4   1   5 20.0498 1.27721   1
  -5  -1  -5 225.909 5.58908   3
   5   1   5 233.012 4.97287   1
   5   1   5 235.094 4.80348   2
  -6  -1  -5 71.6894 3.77421   3
   6   1   5 71.1269 2.81112   1
   6   1   5 71.1611 2.63222   2
  -7  -1  -5 4.37005 2.22771   3
   7   1   5 4.54331 1.31299   1
  -8  -1  -5 7.51514 2.68334   3
   8   1   5 7.37050 1.71198   1
  10  -2  -5 15.3497 2.55225   1
 -10   2   5 19.2762 3.48341   3
   9  -2  -5 81.8863 3.24116   1
  -9   2   5 79.6709 5.02243   3
  -8   2   5 76.0567 4.33863   3
  -7   2   5 15.7571 2.42308   3
   6  -2  -5 94.9588 2.14813   2
  -6   2   5 98.8737 3.63854   3
  -6   2   5 97.2119 1.96080   2
   5  -2  -5 122.855 3.02741   1
   5  -2  -5 120.716 2.67579   2
  -5   2   5 124.364 2.51069   2
  -5   2   5 128.416 3.73804   3
   4  -2  -5 234.276 4.33866   2
   4  -2  -5 228.289 4.46417   1
  -4   2   5 230.752 4.18619   2
  -4   2   5 235.580 4.97281   3
  -4   2   5 233.389 4.37987   3
   3  -2  -5 80.0891 2.20107   1
   3  -2  -5 83.6972 2.16515   2
  -3   2   5 81.5337 1.91645   3
  -3   2   5 78.9839 2.04008   2
  -3   2   5 81.1388 2.25124   3
   2  -2  -5 0.18881 0.38450   1
   2  -2  -5 0.42924 0.43451   2
  -2   2   5 0.70470 0.47509   1
  -2   2   5 -0.1856 0.26269   3
  -2   2   5 -0.0839 0.37992   3
   1  -2  -5 12.6835 1.02419   2
   1  -2  -5 11.6665 0.53426   3
   1  -2  -5 12.3872 0.98935   1
  -1   2   5 12.0157 0.57260   3
  -1   2   5 12.8696 0.99401   2
  -1   2   5 11.9149 1.06451   1
   0  -2  -5 2.26591 0.41559   3
   0  -2  -5 2.35345 0.52563   1
   0   2   5 2.99725 0.63090   1
   0   2   5 2.58010 0.65202   2
   0   2   5 2.46761 0.53290   3
  -1  -2  -5 290.643 5.59401   1
  -1  -2  -5 304.958 5.01098   3
   1   2   5 302.758 5.22219   3
   1   2   5 303.798 5.69526   2
  -2  -2  -5 175.830 4.06027   1
  -2  -2  -5 180.530 3.58976   3
   2   2   5 175.747 3.82494   3
   2   2   5 177.006 3.95140   2
  -3  -2  -5 1.99214 0.83276   1
  -3  -2  -5 1.07330 0.76826   3
   3   2   5 3.45428 1.15444   3
   3   2   5 3.21685 0.83550   2
  -4  -2  -5 1.48336 0.91073   1
  -4  -2  -5 2.07880 0.97991   3
   4   2   5 0.72033 0.88391   2
  -5  -2  -5 133.280 4.19623   3
   5   2   5 130.014 3.64813   2
   5   2   5 135.268 3.61764   1
  -6  -2  -5 97.4844 4.14715   3
   6   2   5 86.7856 3.19640   2
  -7  -2  -5 39.5230 4.05506   1
  -7  -2  -5 47.4301 4.11763   3
   7   2   5 39.5162 2.73979   1
  10  -3  -5 12.7819 2.54778   1
 -10   3   5 23.9140 5.26317   3
   9  -3  -5 47.6172 2.68815   1
  -9   3   5 53.7233 4.74819   3
  -8   3   5 14.6412 3.12628   3
   6  -3  -5 104.740 2.96675   1
   6  -3  -5 105.239 2.44146   2
  -6   3   5 110.280 3.94975   3
  -6   3   5 104.990 2.26281   2
   5  -3  -5 44.2680 1.65594   2
   5  -3  -5 41.3275 1.76266   1
  -5   3   5 44.4777 1.48301   2
  -5   3   5 41.7362 2.37424   3
   4  -3  -5 42.0795 1.64082   2
   4  -3  -5 42.1212 1.70045   1
  -4   3   5 43.9252 2.06767   3
  -4   3   5 44.9914 1.67290   3
   3  -3  -5 3.86466 0.86289   1
   3  -3  -5 4.86680 1.01897   2
  -3   3   5 4.42644 0.90038   2
  -3   3   5 4.37170 0.77803   3
  -3   3   5 2.87655 0.72372   3
   2  -3  -5 15.8701 0.81086   3
   2  -3  -5 15.4059 1.11038   1
  -2   3   5 15.4986 0.88336   3
  -2   3   5 13.3673 1.16947   2
   1  -3  -5 60.6450 1.96952   1
   1  -3  -5 59.8148 1.48689   3
  -1   3   5 63.2950 1.58720   3
  -1   3   5 60.0847 2.07373   2
  -1   3   5 63.3000 2.08280   1
   0  -3  -5 6.39737 0.95216   1
   0  -3  -5 6.32613 0.65323   3
   0   3   5 3.94550 0.77869   3
   0   3   5 5.54733 1.09699   2
  -1  -3  -5 0.52397 0.60644   1
  -1  -3  -5 2.08923 0.52599   3
   1   3   5 1.76714 0.74821   3
   1   3   5 0.85768 0.67140   2
  -2  -3  -5 30.2657 1.73819   1
   2   3   5 32.6257 1.84067   2
   2   3   5 30.8468 1.98798   3
  -3  -3  -5 137.398 3.79995   1
  -3  -3  -5 134.305 3.48239   3
   3   3   5 134.815 3.68848   2
  -4  -3  -5 290.973 6.25725   3
  -4  -3  -5 297.728 6.57700   1
   4   3   5 303.708 6.26416   2
  -5  -3  -5 79.5939 3.57554   1
  -5  -3  -5 81.5212 3.49839   3
   5   3   5 79.5604 3.18885   2
  -6  -3  -5 -2.3436 1.60672   1
  -6  -3  -5 0.49457 1.88681   3
  -7  -3  -5 12.3070 2.93795   3
  -7  -3  -5 19.2917 3.84519   1
  10  -4  -5 56.3928 3.40584   1
 -10   4   5 48.1480 5.81584   3
   9  -4  -5 46.4098 2.77913   1
  -9   4   5 35.6239 4.51176   3
   8  -4  -5 0.43218 0.88354   1
  -8   4   5 0.25886 1.85141   3
   7  -4  -5 19.4249 1.70305   1
  -7   4   5 19.5836 1.10307   2
   6  -4  -5 99.6245 2.61619   2
   6  -4  -5 102.802 2.99720   1
  -6   4   5 106.053 3.96651   3
  -6   4   5 104.262 2.46813   2
   5  -4  -5 35.5142 1.74066   2
   5  -4  -5 37.7295 1.77370   1
  -5   4   5 41.4833 2.43865   3
  -5   4   5 35.1219 1.64170   2
   4  -4  -5 21.8389 1.38025   1
  -4   4   5 22.4958 1.74544   3
  -4   4   5 22.5208 1.39316   2
   3  -4  -5 337.476 6.05604   1
  -3   4   5 331.080 6.28346   2
  -3   4   5 339.159 6.46553   3
  -3   4   5 338.718 5.99348   3
   2  -4  -5 75.7818 1.95028   3
   2  -4  -5 74.4952 2.24830   1
  -2   4   5 76.0885 2.07281   3
  -2   4   5 74.1542 2.49787   2
   1  -4  -5 41.5365 1.40503   3
   1  -4  -5 40.8530 1.68405   1
  -1   4   5 40.8176 1.98174   2
  -1   4   5 42.2263 1.52033   3
   0  -4  -5 17.9028 1.02366   3
   0  -4  -5 15.7835 1.31558   1
   0   4   5 16.0157 1.25428   3
   0   4   5 15.9380 1.62550   2
  -1  -4  -5 34.6858 1.79925   1
   1   4   5 31.9937 1.95063   2
   1   4   5 29.6625 1.78527   3
  -2  -4  -5 11.4372 1.52264   1
  -2  -4  -5 11.8506 1.34223   3
   2   4   5 8.82356 1.64889   2
  -3  -4  -5 42.7316 2.13714   3
  -3  -4  -5 47.7361 2.39728   1
   3   4   5 47.6455 2.50182   2
  -4  -4  -5 95.3536 3.68603   1
  -5  -4  -5 54.5220 3.27998   3
  -5  -4  -5 57.0230 3.33738   1
   5   4   5 55.7230 3.07617   2
  -6  -4  -5 46.8973 3.91876   1
   6   4   5 47.5488 3.50330   2
   9  -5  -5 37.3990 2.70350   1
  -9   5   5 30.0924 4.54985   3
   8  -5  -5 1.31633 1.00960   1
  -8   5   5 3.77186 2.13480   3
   7  -5  -5 5.55923 1.18188   1
  -7   5   5 7.99818 1.81541   3
  -7   5   5 3.57876 0.86384   2
  -6   5   5 16.8876 2.59286   3
  -6   5   5 12.8982 1.42095   2
   5  -5  -5 10.4888 1.34695   1
  -5   5   5 12.4043 2.05320   3
  -5   5   5 8.98551 1.31808   2
   4  -5  -5 66.6963 2.24311   1
  -4   5   5 65.0138 2.79694   3
  -4   5   5 65.1848 2.41461   2
   3  -5  -5 48.2353 1.86590   1
   3  -5  -5 49.1108 1.80306   3
  -3   5   5 45.4216 2.12541   2
   2  -5  -5 160.039 3.63073   1
   2  -5  -5 164.843 3.50072   3
  -2   5   5 160.639 4.14684   2
  -2   5   5 163.769 3.64671   3
   1  -5  -5 286.204 5.42715   1
   1  -5  -5 289.985 5.30686   3
  -1   5   5 283.363 5.42650   3
  -1   5   5 282.256 6.04524   2
   0  -5  -5 38.2397 1.79619   1
   0  -5  -5 40.1797 1.64061   3
   0   5   5 38.0750 2.18008   2
   0   5   5 38.3973 1.98168   3
  -1  -5  -5 177.566 4.12177   1
  -1  -5  -5 173.796 3.88569   3
   1   5   5 173.269 4.60982   2
  -2  -5  -5 131.042 3.46443   3
  -2  -5  -5 129.121 3.65708   1
  -3  -5  -5 37.8444 2.31255   3
  -3  -5  -5 37.5101 2.54695   1
  -4  -5  -5 43.4702 2.78508   3
   4   5   5 49.3489 2.99368   2
  -5  -5  -5 5.04923 1.78610   3
  -5  -5  -5 5.38734 1.77696   1
  -6  -5  -5 24.9433 4.11542   3
  -6  -5  -5 22.8939 3.74529   1
   6   5   5 16.5336 2.53564   2
   9  -6  -5 -0.4620 1.33801   1
  -9   6   5 3.35436 2.80974   3
   8  -6  -5 1.15413 1.01856   1
  -8   6   5 2.43786 2.18411   3
   7  -6  -5 3.81580 1.05591   1
  -7   6   5 3.36121 1.05123   2
  -7   6   5 8.02843 2.31271   3
  -6   6   5 3.66479 1.10157   2
   5  -6  -5 7.40171 1.35899   1
  -5   6   5 6.91732 1.17845   2
  -5   6   5 5.55970 1.47816   3
   4  -6  -5 8.15531 1.28265   1
  -4   6   5 8.86903 1.92852   3
  -4   6   5 8.79502 1.65835   2
   3  -6  -5 18.7896 1.47921   1
   3  -6  -5 20.5037 1.48693   3
  -3   6   5 17.7796 1.84446   2
   2  -6  -5 7.78478 1.26706   1
   2  -6  -5 6.58612 1.19950   3
  -2   6   5 7.61810 1.52586   2
   1  -6  -5 80.9836 2.51421   3
   1  -6  -5 85.3192 2.56181   1
  -1   6   5 79.3811 3.10898   2
   0  -6  -5 203.022 4.41140   3
   0  -6  -5 197.751 4.37878   1
  -1  -6  -5 155.986 3.90610   1
  -1  -6  -5 151.051 3.83901   3
  -2  -6  -5 172.065 4.45903   3
  -2  -6  -5 179.292 4.52108   1
   2   6   5 184.130 5.22247   2
  -3  -6  -5 192.917 5.13288   1
  -3  -6  -5 203.364 5.13423   3
   3   6   5 205.129 5.65852   2
  -4  -6  -5 23.1794 3.01032   1
  -4  -6  -5 24.8480 2.97202   3
   4   6   5 22.8062 3.09201   2
  -5  -6  -5 -0.1141 2.06817   3
  -5  -6  -5 1.39407 2.00679   1
   5   6   5 -1.6559 1.87469   2
   9  -7  -5 0.04019 1.40815   1
  -9   7   5 -0.7511 2.81383   3
   8  -7  -5 2.19620 1.18892   1
  -8   7   5 1.51437 2.64805   3
   7  -7  -5 -0.4666 1.02879   1
  -7   7   5 -0.3840 1.23184   2
  -7   7   5 4.55227 2.14012   3
   6  -7  -5 -0.6555 0.84986   1
  -6   7   5 0.44182 1.61939   3
  -6   7   5 2.27705 1.26516   2
   5  -7  -5 5.78462 1.04066   1
  -5   7   5 8.10376 1.39986   2
   4  -7  -5 95.4787 2.88093   1
  -4   7   5 97.8990 3.56104   2
   3  -7  -5 316.050 6.29346   3
   3  -7  -5 309.048 5.89578   1
  -3   7   5 315.772 7.02367   2
   2  -7  -5 62.2559 2.30581   1
   2  -7  -5 60.4774 2.42015   3
  -2   7   5 66.6638 3.09985   2
   1  -7  -5 25.4175 1.85967   3
   1  -7  -5 22.1395 1.74785   1
  -1   7   5 19.9354 2.26058   2
   0  -7  -5 3.02162 1.04744   3
   0  -7  -5 4.63466 1.02629   1
  -1  -7  -5 173.218 4.34400   1
  -1  -7  -5 175.827 4.53336   3
   1   7   5 179.998 5.28288   2
  -2  -7  -5 135.067 4.09609   1
  -2  -7  -5 137.103 4.14258   3
   2   7   5 134.505 4.82049   2
  -3  -7  -5 69.0337 3.65685   3
   3   7   5 72.1099 3.98395   2
  -4  -7  -5 64.5105 3.90479   1
  -4  -7  -5 64.2858 4.10689   3
   4   7   5 63.1165 4.07101   2
   8  -8  -5 5.29652 1.46220   1
  -8   8   5 13.6266 3.42136   3
   7  -8  -5 6.51962 1.33449   1
  -7   8   5 6.25938 2.66055   3
   6  -8  -5 0.37217 0.97692   1
  -6   8   5 0.88355 1.41139   2
  -5   8   5 22.6976 2.60531   2
  -5   8   5 26.5448 3.27799   3
   4  -8  -5 136.331 3.96035   3
   4  -8  -5 137.496 3.59862   1
  -4   8   5 130.847 4.48757   2
   3  -8  -5 124.933 3.71766   3
   3  -8  -5 120.937 3.23609   1
  -3   8   5 125.405 4.32244   2
   2  -8  -5 82.2496 2.76071   1
   2  -8  -5 86.5587 3.10956   3
  -2   8   5 84.8198 3.74798   2
   1  -8  -5 94.9888 3.33894   3
   1  -8  -5 99.0564 3.09692   1
  -1   8   5 97.7243 4.13007   2
   0  -8  -5 41.9718 2.58649   3
   0  -8  -5 38.7137 2.40096   1
   0   8   5 45.0621 3.28887   2
  -1  -8  -5 12.7061 2.27493   3
  -1  -8  -5 10.7755 2.32334   1
   1   8   5 9.15458 1.93114   2
  -2  -8  -5 61.6791 3.36352   3
   2   8   5 60.9098 3.93563   2
  -3  -8  -5 28.5079 3.47685   3
   3   8   5 30.5745 3.74344   2
   7  -9  -5 10.4189 1.68965   1
  -7   9   5 16.2748 3.45948   3
  -6   9   5 4.01206 1.73455   2
  -6   9   5 5.67284 2.66502   3
   5  -9  -5 45.9118 2.49918   1
  -5   9   5 45.1850 4.14375   3
   4  -9  -5 75.3320 3.35509   3
  -4   9   5 70.3722 3.91421   2
   3  -9  -5 69.7845 3.21172   3
   3  -9  -5 70.0277 2.76349   1
  -3   9   5 69.7553 3.78170   2
   2  -9  -5 29.2449 2.51361   3
   2  -9  -5 28.5459 2.16314   1
  -2   9   5 30.0480 3.13803   2
   1  -9  -5 45.4206 2.93322   3
  -1   9   5 45.1085 3.58534   2
   0  -9  -5 165.064 4.92842   3
   0   9   5 177.313 5.86875   2
   1   9   5 87.1701 4.52102   2
  -2  -9  -5 28.1284 3.51139   3
   2   9   5 17.6516 3.91478   2
  -5  10   5 27.6917 4.38368   3
  -5  10   5 27.8321 3.61327   2
   4 -10  -5 48.3047 3.41311   3
  -4  10   5 44.4152 4.07852   2
   3 -10  -5 42.0494 3.20811   3
  -3  10   5 38.7136 3.72926   2
   2 -10  -5 36.3201 3.28615   3
  -2  10   5 43.5380 3.85847   2
   1 -10  -5 64.2983 3.73772   3
  -1  10   5 66.8445 4.39336   2
   0 -10  -5 62.5063 4.12451   3
   0  10   5 58.1170 4.41660   2
   1  12  -6 17.4257 2.63976   2
  -1 -12   6 18.2655 3.46831   3
   0  12  -6 17.1139 3.38845   2
   0 -12   6 14.6828 2.54606   3
  -1  12  -6 7.21221 2.27659   2
   1 -12   6 19.5326 3.47691   3
  -2  12  -6 13.8646 2.30738   2
   2 -12   6 15.7758 2.50642   3
  -3  12  -6 19.9838 3.27535   2
   3 -12   6 32.0450 3.34596   3
   3  11  -6 38.2397 4.19977   2
  -3 -11   6 40.1789 4.17949   3
   2  11  -6 48.1006 3.92513   2
  -2 -11   6 59.5044 4.17308   3
   1  11  -6 56.4569 3.81598   2
  -1 -11   6 53.1988 3.69668   3
   0  11  -6 25.6382 3.12830   2
   0 -11   6 23.3864 3.00743   3
  -1  11  -6 20.7905 2.85683   2
   1 -11   6 26.7148 3.09993   3
  -2  11  -6 53.8023 3.47912   2
   2 -11   6 52.7381 3.39373   3
  -3  11  -6 63.1131 3.60167   2
   3 -11   6 68.4714 3.63318   3
  -4  11  -6 5.29087 1.70996   2
   4 -11   6 3.91331 1.65816   3
  -5  11  -6 1.24772 1.80188   2
   5 -11   6 2.66418 1.85559   3
   4  10  -6 7.12052 2.21825   2
  -4 -10   6 9.02605 2.33464   3
   3  10  -6 6.10779 1.77521   2
  -3 -10   6 5.58418 2.02432   3
   2  10  -6 18.7149 2.76984   2
  -2 -10   6 19.2454 3.03950   3
   1  10  -6 89.6246 3.96053   2
  -1 -10   6 93.6704 3.92076   3
   0  10  -6 98.9560 3.98209   2
   0 -10   6 97.0693 3.80145   3
  -1  10  -6 109.412 4.33231   2
   1 -10   6 119.610 4.16686   3
   2 -10   6 63.5055 3.18552   3
  -3  10  -6 17.5696 2.40959   2
   3 -10   6 25.5239 2.56082   3
  -4  10  -6 20.9820 2.56486   2
   4 -10   6 20.0071 2.69932   3
  -5  10  -6 6.38172 2.71535   3
  -5  10  -6 6.94931 1.70019   2
  -6  10  -6 3.15923 2.76906   3
  -6  -9   6 11.9237 2.76198   3
   5   9  -6 14.8459 2.51820   2
  -5  -9   6 15.3462 2.51652   3
   4   9  -6 87.7508 4.09977   2
  -4  -9   6 87.9829 4.27026   3
   3   9  -6 41.6388 3.07053   2
  -3  -9   6 43.0259 3.20692   3
   2   9  -6 3.16016 1.30770   2
  -2  -9   6 2.86173 1.33813   3
  -1  -9   6 13.9124 2.21855   3
   0   9  -6 77.9369 3.34314   2
   0  -9   6 78.2464 3.24178   3
  -1   9  -6 112.900 3.89962   2
   1  -9   6 117.630 3.84125   3
  -2   9  -6 178.023 4.91494   2
   2  -9   6 176.910 4.80569   3
  -3   9  -6 37.5547 2.25751   1
  -3   9  -6 37.3489 2.54631   2
   3  -9   6 35.3860 2.42606   3
  -4   9  -6 2.55048 1.24501   2
  -4   9  -6 2.29554 1.27361   1
   4  -9   6 1.97433 0.85712   1
  -5   9  -6 21.0872 2.48274   2
  -5   9  -6 27.1491 3.99634   3
   5  -9   6 20.6060 1.95911   1
  -6   9  -6 18.2484 3.26916   3
  -6   9  -6 12.9296 2.45711   2
   6  -9   6 24.9835 2.46864   1
  -7   9  -6 0.50995 3.11415   3
   7  -9   6 -0.3284 1.54816   1
   6   8  -6 26.0652 3.60858   2
  -6  -8   6 23.2700 3.75358   3
   5   8  -6 82.3021 4.44920   2
  -5  -8   6 90.2802 4.35781   3
   4   8  -6 80.8720 3.51609   2
  -4  -8   6 75.3775 3.70920   3
   3   8  -6 75.9589 3.31849   2
  -3  -8   6 78.1325 3.48004   3
   2   8  -6 119.331 4.15890   2
   0   8  -6 53.2881 2.59611   2
   0  -8   6 53.7587 2.53102   3
  -1   8  -6 29.1150 2.19291   2
   1  -8   6 25.9287 1.90322   3
  -2   8  -6 40.4226 1.75720   1
  -2   8  -6 37.2667 1.47440   1
  -2   8  -6 37.6200 2.41479   2
   2  -8   6 31.4055 2.14028   3
  -3   8  -6 39.1813 2.43263   2
  -3   8  -6 39.3940 2.06414   1
  -4   8  -6 62.9460 2.77995   2
   4  -8   6 60.1049 2.14734   1
   4  -8   6 63.0673 2.82685   3
  -5   8  -6 1.08133 1.86813   3
  -5   8  -6 2.66702 1.14283   2
   5  -8   6 0.94630 0.90553   1
  -6   8  -6 0.45850 2.23572   3
  -6   8  -6 3.37962 1.24549   2
   6  -8   6 0.52325 1.04459   1
  -7   8  -6 9.85312 3.19388   3
   7  -8   6 8.81681 1.59908   1
  -7  -7   6 14.1555 2.83767   3
   6   7  -6 1.26575 1.43572   2
  -6  -7   6 0.59504 1.90386   3
   5   7  -6 120.277 4.11229   2
   5   7  -6 116.747 2.54465   1
  -5  -7   6 117.658 4.58980   3
  -4  -7   6 115.162 4.10891   3
   3   7  -6 36.9490 2.30015   2
   2   7  -6 87.8794 3.13027   2
  -2  -7   6 85.3382 3.13164   3
  -1  -7   6 163.580 4.16965   3
   0   7  -6 168.911 4.41301   2
   0  -7   6 177.394 4.24157   3
  -1   7  -6 36.2193 1.11823   1
  -1   7  -6 36.9864 2.03326   2
  -1   7  -6 37.9864 1.44013   1
   1  -7   6 37.0465 1.95713   3
  -2   7  -6 76.6355 1.90418   1
  -2   7  -6 76.9098 2.84961   2
  -2   7  -6 74.6201 2.45748   1
   2  -7   6 81.6065 2.70239   3
  -3   7  -6 8.37554 1.48582   1
  -3   7  -6 10.2011 1.59805   2
   3  -7   6 8.83836 1.49076   3
   3  -7   6 9.04234 1.05078   1
  -4   7  -6 0.64705 0.97400   2
   4  -7   6 0.76065 0.62250   1
  -5   7  -6 -0.5050 1.01872   2
  -5   7  -6 0.97062 1.61775   3
   5  -7   6 0.69567 0.84062   1
  -6   7  -6 1.66406 1.15274   2
   6  -7   6 -0.7431 0.97550   1
  -7   7  -6 1.91807 2.61446   3
   7  -7   6 -0.6565 1.24394   1
  -8   7  -6 4.71563 3.10194   3
   8  -7   6 3.11441 1.64207   1
  -8  -6   6 14.6744 2.89783   3
   7   6  -6 32.0752 2.13016   1
  -7  -6   6 34.9872 3.94814   3
   6   6  -6 70.8595 2.19875   1
  -6  -6   6 60.0607 3.73794   3
   5   6  -6 93.4643 2.32625   1
   5   6  -6 96.4307 3.44752   2
  -5  -6   6 99.4293 3.94620   3
   4   6  -6 5.15592 0.85822   1
   4   6  -6 7.53670 1.70794   2
  -4  -6   6 3.85917 0.95911   1
   3   6  -6 57.6542 2.53451   2
   3   6  -6 56.8243 1.37565   1
  -3  -6   6 54.9004 1.75713   1
  -3  -6   6 56.4622 2.54875   3
   2   6  -6 147.876 3.94994   2
  -2  -6   6 149.304 3.87115   3
   1   6  -6 171.977 4.24519   2
  -1  -6   6 168.320 4.01553   3
   0   6  -6 204.427 4.74633   2
   0   6  -6 203.133 3.54192   1
   0   6  -6 203.594 3.26208   1
   0  -6   6 205.693 4.44914   3
  -1   6  -6 0.90231 0.38244   1
  -1   6  -6 0.82570 0.68882   2
  -1   6  -6 -0.4236 0.51684   1
   1  -6   6 -0.1154 0.67919   3
  -2   6  -6 21.2188 1.48064   1
  -2   6  -6 23.3271 1.69944   2
  -2   6  -6 19.8798 1.02713   1
   2  -6   6 20.1279 1.46933   3
  -3   6  -6 30.9560 1.89450   2
   3  -6   6 31.0710 1.35536   1
   3  -6   6 30.2024 1.71375   3
  -4   6  -6 25.0646 1.89332   2
  -4   6  -6 23.0949 2.42832   3
   4  -6   6 25.7965 1.50177   1
  -5   6  -6 39.3548 2.15490   2
  -5   6  -6 44.0275 3.26035   3
   5  -6   6 41.8920 2.00737   1
  -6   6  -6 5.91383 1.20408   2
  -6   6  -6 8.63962 2.30042   3
   6  -6   6 7.24344 1.20337   1
  -7   6  -6 3.59842 2.37525   3
   7  -6   6 4.81352 1.30084   1
  -8   6  -6 45.2031 5.39972   3
   8  -6   6 42.9117 3.13048   1
   8   5  -6 22.7173 2.22390   1
  -8  -5   6 25.6307 4.01912   3
   7   5  -6 36.1510 2.09078   1
   7   5  -6 39.2353 2.61364   2
  -7  -5   6 33.6404 3.51681   3
   6   5  -6 120.226 2.96307   1
   6   5  -6 119.932 3.68190   2
  -6  -5   6 125.388 4.59175   3
   5   5  -6 115.932 2.68815   1
   5   5  -6 119.184 3.48190   2
   4   5  -6 7.89126 1.52661   2
   4   5  -6 4.23694 0.87956   1
  -4  -5   6 4.11851 0.93333   1
  -4  -5   6 4.38831 1.14284   3
   3   5  -6 40.0694 1.99004   2
   3   5  -6 40.0732 1.27671   1
  -3  -5   6 40.5616 2.06410   3
  -3  -5   6 39.7416 1.67200   1
   2   5  -6 237.203 5.13759   2
   2   5  -6 240.827 3.93443   1
  -2  -5   6 239.781 4.14252   1
  -2  -5   6 233.143 4.95817   3
   1   5  -6 221.895 3.77921   1
   1   5  -6 213.932 4.83702   2
  -1  -5   6 224.662 3.85622   1
  -1  -5   6 224.414 4.55743   3
   0   5  -6 19.9178 1.43786   2
   0   5  -6 20.3045 1.03872   1
   0   5  -6 20.9081 0.81177   1
   0  -5   6 21.6582 1.27973   3
  -1   5  -6 7.72331 1.11229   2
  -1   5  -6 11.6077 1.03110   1
  -1   5  -6 9.49282 0.72980   1
   1  -5   6 8.80040 1.07304   3
  -2   5  -6 0.33584 0.58699   2
  -2   5  -6 -0.2220 0.39537   1
  -2   5  -6 0.07032 0.53956   1
   2  -5   6 1.00339 0.56069   3
  -3   5  -6 25.9554 1.60852   2
   3  -5   6 25.3302 1.53144   3
   3  -5   6 27.4292 1.31980   1
  -4   5  -6 11.0727 2.13054   3
  -4   5  -6 9.83955 1.41486   2
   4  -5   6 10.8781 1.20323   1
  -5   5  -6 4.51107 1.04580   2
  -5   5  -6 5.06637 1.65687   3
   5  -5   6 4.58817 0.87700   1
  -6   5  -6 4.23408 1.06923   2
  -6   5  -6 2.58418 1.80311   3
   6  -5   6 2.16421 0.95195   1
  -7   5  -6 41.2682 4.23931   3
   7  -5   6 45.1780 2.68584   1
  -8   5  -6 94.0367 6.02172   3
   8  -5   6 93.9444 3.88797   1
   9   4  -6 25.8465 2.72386   1
  -9  -4   6 32.4091 4.40207   3
   8   4  -6 40.2258 2.48344   1
  -8  -4   6 46.2908 3.88228   3
   7   4  -6 60.3315 2.37720   1
   7   4  -6 65.1545 2.64365   2
   6   4  -6 130.274 3.17710   1
   6   4  -6 134.267 3.55944   2
   5   4  -6 12.8663 1.58980   2
   5   4  -6 13.9123 1.18891   1
  -5  -4   6 10.5608 1.89361   3
   4   4  -6 37.2288 1.39857   1
   4   4  -6 36.3551 1.85432   2
  -4  -4   6 37.1895 1.86703   1
  -4  -4   6 35.0275 2.13173   3
   3   4  -6 159.663 3.85691   2
   3   4  -6 161.095 3.08773   1
  -3  -4   6 163.849 3.32936   1
  -3  -4   6 163.312 3.88817   3
   2   4  -6 208.768 4.57715   3
   2   4  -6 209.182 4.54794   2
   2   4  -6 204.921 3.69060   1
  -2  -4   6 206.963 4.28552   3
  -2  -4   6 212.604 3.82621   1
   1   4  -6 39.1964 1.61004   3
   1   4  -6 38.7625 1.72607   2
   1   4  -6 39.2884 1.30798   1
  -1  -4   6 39.5209 1.38695   1
  -1  -4   6 40.2732 1.47168   2
   0   4  -6 -0.3075 0.36155   1
   0   4  -6 -0.0328 0.28124   1
   0   4  -6 0.63671 0.52046   3
   0  -4   6 0.30805 0.35474   2
   0  -4   6 -0.2421 0.39125   3
  -1   4  -6 16.8911 1.10966   3
  -1   4  -6 17.2507 1.10984   1
  -1   4  -6 15.0232 0.80586   1
   1  -4   6 15.5121 0.97015   3
   1  -4   6 17.1574 0.97460   2
  -2   4  -6 9.42546 1.10479   1
  -2   4  -6 7.67244 1.06573   3
   2  -4   6 7.08035 0.81252   2
   2  -4   6 9.60555 0.94731   3
  -3   4  -6 9.77883 1.58161   3
   3  -4   6 10.4284 0.92184   2
   3  -4   6 10.3822 0.95348   1
  -4   4  -6 128.221 3.99084   3
   4  -4   6 131.241 3.17156   1
   4  -4   6 132.086 2.89769   2
  -5   4  -6 100.534 3.99485   3
   5  -4   6 93.8407 2.93740   1
   5  -4   6 99.9568 2.42534   2
  -6   4  -6 1.14866 1.71327   3
  -6   4  -6 0.10156 0.91031   2
   6  -4   6 0.22509 0.82682   1
  -7   4  -6 2.28653 2.02015   3
   7  -4   6 0.60467 1.07903   1
  -8   4  -6 13.8969 3.16020   3
   8  -4   6 12.4184 2.55028   1
   9   3  -6 26.4512 2.63337   1
  -9  -3   6 35.3750 4.24655   3
   8   3  -6 36.5617 2.27679   1
  -8  -3   6 41.6018 3.76451   3
   7   3  -6 89.2403 2.77836   2
   7   3  -6 91.2396 2.81034   1
  -7  -3   6 92.9233 4.19682   3
   6   3  -6 122.169 3.06545   1
   6   3  -6 121.112 3.17699   2
  -6  -3   6 117.726 4.06117   3
   5   3  -6 23.1532 1.29847   1
   5   3  -6 24.4387 1.57974   2
  -5  -3   6 22.7852 2.05105   3
   4   3  -6 114.890 2.99845   2
   4   3  -6 114.430 2.62241   1
  -4  -3   6 112.333 3.21205   3
   3   3  -6 3.48859 0.71538   1
   3   3  -6 4.90367 0.88986   3
   3   3  -6 4.02959 0.76857   2
  -3  -3   6 6.27496 1.05113   1
  -3  -3   6 4.82511 1.07566   3
   2   3  -6 67.2857 1.88931   2
   2   3  -6 63.3635 2.02756   3
   2   3  -6 67.1781 1.76909   1
  -2  -3   6 68.3743 1.88861   1
  -2  -3   6 66.6645 1.89316   3
  -2  -3   6 64.6077 1.81141   2
   1   3  -6 0.42602 0.44155   3
   1   3  -6 -0.8664 0.37073   2
   1   3  -6 0.43571 0.34801   1
  -1  -3   6 0.68268 0.43935   1
  -1  -3   6 0.37600 0.33076   2
  -1  -3   6 -0.0145 0.37122   3
   0   3  -6 8.81803 0.81042   3
   0   3  -6 9.07305 0.83010   2
   0   3  -6 8.60989 0.84139   1
   0   3  -6 8.13569 0.62911   1
   0  -3   6 8.22790 0.93571   1
   0  -3   6 9.00595 0.65079   3
  -1   3  -6 17.5807 0.95715   3
  -1   3  -6 19.9836 1.09709   2
  -1   3  -6 18.8705 0.88034   1
   1  -3   6 21.2460 1.02461   2
   1  -3   6 19.1286 0.87944   3
  -2   3  -6 -0.4912 0.43194   3
  -2   3  -6 1.02468 0.62232   3
  -2   3  -6 1.11663 0.55789   1
  -2   3  -6 -0.2222 0.51237   2
   2  -3   6 0.32748 0.38200   2
  -3   3  -6 53.5100 1.86928   3
  -3   3  -6 54.0250 2.23746   3
   3  -3   6 54.9016 1.78439   1
   3  -3   6 57.6127 1.73024   2
  -4   3  -6 188.021 4.78862   3
   4  -3   6 189.158 4.05992   1
   4  -3   6 188.416 3.72742   2
  -5   3  -6 60.8514 3.11358   3
   5  -3   6 58.4111 1.82667   2
  -6   3  -6 124.741 4.82274   3
   6  -3   6 118.066 2.78569   2
   6  -3   6 121.750 3.55627   1
  -7   3  -6 104.682 5.06715   3
   7  -3   6 100.753 3.58746   1
  -8   3  -6 8.05497 3.07399   3
   8  -3   6 6.60741 1.61120   1
   9   2  -6 41.4091 2.75863   1
  -9  -2   6 43.4173 4.39702   3
   8   2  -6 30.0474 2.14169   1
  -8  -2   6 24.1436 3.40003   3
   7   2  -6 116.337 3.21221   1
  -7  -2   6 110.530 4.25697   3
   6   2  -6 33.2465 1.71212   1
   6   2  -6 31.9272 1.68058   2
   6   2  -6 35.7164 1.71767   2
  -6  -2   6 38.0654 2.50739   3
   5   2  -6 3.20277 0.75327   2
   5   2  -6 5.41101 1.15809   2
   5   2  -6 3.95206 0.68599   1
  -5  -2   6 3.60227 0.99955   3
   4   2  -6 157.877 3.29554   1
   4   2  -6 157.028 3.56642   2
   4   2  -6 159.335 3.25252   2
  -4  -2   6 152.368 3.84362   3
  -4  -2   6 159.353 3.18083   2
   3   2  -6 69.0013 1.93605   1
   3   2  -6 71.0489 1.94384   2
   3   2  -6 72.2505 2.35883   3
  -3  -2   6 75.8143 2.17764   3
  -3  -2   6 71.6047 2.14292   1
  -3  -2   6 70.5288 1.87692   2
   2   2  -6 88.5940 2.14672   2
   2   2  -6 87.0211 2.20135   3
   2   2  -6 87.8535 2.16415   1
  -2  -2   6 87.3287 2.17116   2
  -2  -2   6 87.5552 2.09184   3
  -2  -2   6 90.2282 2.27943   1
   1   2  -6 208.557 3.93027   2
   1   2  -6 216.823 3.73096   3
   1   2  -6 208.110 3.90089   1
  -1  -2   6 199.889 3.96823   2
  -1  -2   6 202.666 3.56804   3
  -1  -2   6 208.141 3.92422   1
   0   2  -6 12.6450 0.84170   2
   0   2  -6 14.1386 0.73003   3
   0  -2   6 13.7441 0.86460   2
   0  -2   6 13.1696 0.60929   3
   0  -2   6 12.7504 0.99653   1
  -1   2  -6 46.7425 1.52272   2
  -1   2  -6 43.5975 1.34560   3
  -1   2  -6 44.1724 1.31266   1
  -1   2  -6 39.0687 1.60709   1
  -1   2  -6 42.3793 1.17727   3
   1  -2   6 42.6143 1.43853   2
  -2   2  -6 14.5046 1.07438   3
  -2   2  -6 12.9607 1.24675   1
  -2   2  -6 13.2284 1.05267   2
  -2   2  -6 13.2975 0.88364   3
   2  -2   6 14.1218 0.91404   2
  -3   2  -6 5.08888 0.91938   1
  -3   2  -6 8.74128 1.03095   3
   3  -2   6 8.60908 0.88561   2
   3  -2   6 9.80568 0.89073   1
  -4   2  -6 79.3754 2.89203   3
   4  -2   6 77.7509 2.13125   2
   4  -2   6 76.8631 2.36669   1
  -5   2  -6 36.8379 2.72504   3
   5  -2   6 39.0427 1.59714   2
  -6   2  -6 174.651 5.54400   3
   6  -2   6 174.002 4.40815   1
   6  -2   6 171.449 3.61161   2
  -7   2  -6 91.5729 4.90477   3
   7  -2   6 86.5406 3.36639   1
  -8   2  -6 53.3591 5.44747   3
   8  -2   6 52.3209 3.23048   1
  10   1  -6 17.1443 2.79227   1
 -10  -1   6 22.8820 5.05885   3
   9   1  -6 45.6485 2.84861   1
  -9  -1   6 45.3820 4.49181   3
   8   1  -6 50.3894 2.48278   1
   7   1  -6 63.1024 1.97509   2
   7   1  -6 64.7130 2.40682   1
   6   1  -6 3.16229 0.79555   2
   6   1  -6 6.48086 1.25346   2
   6   1  -6 3.43415 0.72744   1
  -6  -1   6 4.18718 1.23746   3
   5   1  -6 1.21972 0.61426   2
   5   1  -6 1.88902 0.61433   2
   5   1  -6 1.85402 0.59352   1
  -5  -1   6 0.78841 0.43275   2
  -5  -1   6 1.27372 0.98881   3
   4   1  -6 1.53021 0.54671   2
   4   1  -6 4.29581 0.91052   3
   4   1  -6 2.61552 0.55283   1
  -4  -1   6 2.72914 0.81155   3
  -4  -1   6 2.51530 0.50465   2
   3   1  -6 52.5906 1.83112   3
   3   1  -6 54.6935 1.61950   2
   3   1  -6 52.1492 1.72166   1
  -3  -1   6 54.6734 1.74543   3
  -3  -1   6 54.3517 1.53985   2
  -3  -1   6 54.9523 1.83250   1
   2   1  -6 737.020 11.4517   2
   2   1  -6 761.627 11.4375   3
  -2  -1   6 737.808 11.2635   3
  -2  -1   6 728.440 11.4225   2
  -2  -1   6 727.582 11.3542   1
   1   1  -6 6.72051 0.73973   2
   1   1  -6 6.07692 0.55146   3
   1   1  -6 6.04621 0.75021   1
  -1  -1   6 6.10076 0.83377   1
   0   1  -6 369.863 6.31967   2
   0  -1   6 370.482 6.33660   1
  -1   1  -6 966.781 14.6178   2
  -1   1  -6 958.296 13.9667   1
  -1   1  -6 920.275 14.4650   1
  -1   1  -6 940.718 14.1336   3
  -1   1  -6 951.932 13.9378   3
   1  -1   6 949.872 14.4949   2
  -2   1  -6 147.342 3.33285   2
  -2   1  -6 143.593 3.07996   3
  -2   1  -6 142.201 3.56474   1
  -2   1  -6 142.721 2.75622   3
   2  -1   6 148.752 3.14625   2
  -3   1  -6 15.3804 1.32310   3
  -3   1  -6 15.7086 1.45814   1
  -3   1  -6 13.4557 1.00816   3
   3  -1   6 15.9546 1.10521   2
  -4   1  -6 20.2063 1.89352   3
   4  -1   6 21.7901 1.30593   2
  -5   1  -6 11.8731 2.23766   3
   5  -1   6 13.4265 1.30585   2
  -6   1  -6 146.163 4.99813   3
   6  -1   6 144.676 4.00971   1
   6  -1   6 141.498 3.31066   2
  -7   1  -6 55.1197 4.31296   3
   7  -1   6 54.2289 2.83969   1
  -8   1  -6 51.5323 5.40286   3
   8  -1   6 60.4904 3.53017   1
  10   0  -6 35.6903 2.99477   1
 -10   0   6 43.1171 5.44162   3
   9   0  -6 28.0547 2.28727   1
  -9   0   6 30.8045 4.34284   3
   8   0  -6 39.3468 2.26554   1
  -8   0   6 36.3321 3.83414   3
   7   0  -6 22.5372 1.74456   1
   6   0  -6 2.10074 0.70555   2
   6   0  -6 2.08029 0.76830   2
   6   0  -6 0.85428 0.59259   1
  -6   0   6 1.17981 1.17021   3
   5   0  -6 15.0395 1.23287   2
   5   0  -6 14.2761 1.22347   1
  -5   0   6 13.5340 0.86834   2
  -5   0   6 12.1605 1.73030   3
   4   0  -6 107.534 2.69263   1
   4   0  -6 109.138 3.00687   3
   4   0  -6 109.677 2.54400   2
  -4   0   6 105.921 2.99909   3
  -4   0   6 108.715 2.37347   2
   3   0  -6 1.11573 0.51233   2
   3   0  -6 0.25913 0.37994   1
   3   0  -6 0.79199 0.56284   3
  -3   0   6 0.76112 0.50695   3
  -3   0   6 0.08667 0.33784   2
   2   0  -6 179.866 3.60896   2
   2   0  -6 190.720 3.31467   3
   2   0  -6 174.737 3.67038   1
  -2   0   6 185.653 3.80557   1
  -2   0   6 184.748 3.24701   3
   1   0  -6 607.974 9.51262   2
   1   0  -6 583.193 9.35783   1
  -1   0   6 590.674 9.39862   1
  -1   0   6 570.257 9.33750   2
   0   0  -6 99.7152 2.58841   1
   0   0   6 99.8114 2.42322   2
   0   0   6 100.415 2.57803   1
  -1   0  -6 100.787 2.71865   1
   1   0   6 98.5725 2.49575   2
  -2   0  -6 82.0134 2.05920   3
  -2   0  -6 83.7451 2.66909   1
   2   0   6 84.9085 2.12585   3
   2   0   6 81.0923 2.30546   2
  -3   0  -6 226.391 4.60077   3
  -3   0  -6 224.338 5.09811   1
   3   0   6 228.891 4.52854   2
   3   0   6 225.499 4.70390   3
  -4   0  -6 167.670 4.56964   1
  -4   0  -6 169.403 4.27725   3
   4   0   6 174.710 3.83225   2
   4   0   6 170.760 3.92856   1
  -5   0  -6 84.1555 3.42029   3
   5   0   6 86.0026 2.80094   1
   5   0   6 81.6120 2.55362   2
  -6   0  -6 81.8169 4.00082   3
   6   0   6 84.5625 2.67584   2
  -7   0  -6 1.72842 2.20948   3
   7   0   6 -0.8053 1.17950   1
  -8   0  -6 27.6113 5.25953   3
   8   0   6 17.5291 2.82005   1
  10  -1  -6 38.1130 3.11713   1
 -10   1   6 34.7417 5.72372   3
   9  -1  -6 9.16865 2.07872   1
  -9   1   6 3.40909 2.38283   3
   8  -1  -6 1.20437 0.93011   1
  -8   1   6 2.38854 1.95486   3
   7  -1  -6 15.6840 1.53084   1
  -7   1   6 12.9799 2.36110   3
   6  -1  -6 15.5722 1.39362   2
   6  -1  -6 16.9460 1.32079   1
  -6   1   6 19.4619 2.21557   3
  -6   1   6 18.1076 0.95501   2
   5  -1  -6 28.9618 1.55912   2
   5  -1  -6 27.8192 1.54459   1
  -5   1   6 28.9395 1.13655   2
  -5   1   6 29.1767 2.00958   3
   4  -1  -6 0.82107 0.79077   3
   4  -1  -6 0.91315 0.63217   2
   4  -1  -6 0.78528 0.47371   1
  -4   1   6 0.34718 0.40404   2
   3  -1  -6 50.8733 1.72744   2
   3  -1  -6 47.0769 1.72170   1
  -3   1   6 52.0362 1.69536   3
   2  -1  -6 16.1436 1.05352   2
   2  -1  -6 14.8931 1.04578   1
  -2   1   6 13.6376 0.94861   2
  -2   1   6 16.0783 0.82829   3
  -2   1   6 15.1214 0.62438   3
   1  -1  -6 1014.39 15.2638   1
   1  -1  -6 1017.58 15.6404   2
  -1   1   6 1008.85 15.5614   2
  -1   1   6 1014.91 15.3229   1
   0  -1  -6 909.843 14.0069   1
   0   1   6 919.464 14.2495   2
  -1  -1  -6 107.191 2.91629   1
   1   1   6 112.091 2.85163   2
  -2  -1  -6 7.48544 1.25019   1
  -2  -1  -6 8.25855 0.87933   3
   2   1   6 7.31318 1.08561   3
   2   1   6 7.63024 1.14906   2
  -3  -1  -6 101.303 3.28603   1
   3   1   6 100.168 2.99081   3
   3   1   6 103.289 2.85551   2
  -4  -1  -6 348.072 7.27112   1
  -4  -1  -6 336.774 6.71239   3
   4   1   6 344.897 6.54354   2
  -5  -1  -6 219.421 5.46097   3
  -5  -1  -6 216.747 5.74864   1
   5   1   6 223.176 4.87091   2
  -6  -1  -6 29.5101 3.12209   3
  -6  -1  -6 26.9655 3.05701   1
   6   1   6 33.9018 2.29930   2
   6   1   6 27.9310 2.23868   1
  -7  -1  -6 4.61769 2.11072   1
   7   1   6 7.14415 1.50991   1
  10  -2  -6 34.1732 3.12268   1
 -10   2   6 38.3909 5.56152   3
   9  -2  -6 8.80333 2.01708   1
  -9   2   6 4.65703 2.47390   3
  -8   2   6 7.27545 2.11460   3
  -7   2   6 40.9427 3.14861   3
   6  -2  -6 0.18549 0.79015   2
  -6   2   6 0.21921 0.48634   2
  -6   2   6 -0.6583 1.13179   3
   5  -2  -6 17.4654 1.33185   1
   5  -2  -6 18.4789 1.55034   2
  -5   2   6 20.4219 1.09678   2
  -5   2   6 17.2325 1.85791   3
   4  -2  -6 58.6797 2.03374   1
   4  -2  -6 62.9934 2.07153   2
  -4   2   6 59.8414 1.80416   3
  -4   2   6 59.8521 1.81748   2
  -4   2   6 58.7854 2.30995   3
   3  -2  -6 75.2999 2.24753   1
   3  -2  -6 78.1696 2.31327   2
  -3   2   6 73.0941 2.12547   2
  -3   2   6 76.2342 2.17815   3
  -3   2   6 78.8374 1.86729   3
   2  -2  -6 33.6918 1.47090   1
  -2   2   6 34.5383 1.53027   2
  -2   2   6 31.5078 0.98859   3
  -2   2   6 32.8250 1.21681   3
   1  -2  -6 21.5611 1.28416   1
  -1   2   6 22.4827 1.34108   2
   0  -2  -6 230.178 4.71431   1
   0   2   6 236.382 4.80521   2
  -1  -2  -6 87.2492 1.88406   3
  -1  -2  -6 87.7577 2.70113   1
   1   2   6 82.7976 2.61051   2
   1   2   6 87.5124 2.12426   3
  -2  -2  -6 384.609 7.35628   1
  -2  -2  -6 403.595 6.67594   3
   2   2   6 389.177 6.92248   3
   2   2   6 393.530 7.29492   2
  -3  -2  -6 290.277 5.60676   3
  -3  -2  -6 282.916 6.16677   1
   3   2   6 297.158 5.93878   2
   3   2   6 282.692 5.95950   3
  -4  -2  -6 125.239 3.57137   3
   4   2   6 125.712 3.57468   2
  -5  -2  -6 76.3017 3.62153   1
  -5  -2  -6 65.8606 3.29622   3
   5   2   6 75.8307 2.98558   2
  -6  -2  -6 28.4076 3.37574   3
   6   2   6 16.9179 2.40108   2
  -7  -2  -6 7.78368 2.80666   3
  -7  -2  -6 14.4337 2.64797   1
  10  -3  -6 0.08773 1.34998   1
 -10   3   6 1.90159 2.94786   3
   9  -3  -6 2.39449 1.18968   1
  -9   3   6 3.98078 2.61825   3
   8  -3  -6 36.3996 2.26270   1
  -8   3   6 43.1440 3.58530   3
  -7   3   6 7.84792 0.98241   2
   6  -3  -6 0.69006 0.84316   2
   6  -3  -6 0.04405 0.56802   1
  -6   3   6 1.05750 1.14131   3
   5  -3  -6 515.509 8.75419   1
   5  -3  -6 507.222 8.53691   2
  -5   3   6 505.818 8.41531   2
  -5   3   6 513.984 9.57950   3
   4  -3  -6 209.604 4.47618   1
  -4   3   6 227.779 4.91020   3
  -4   3   6 218.185 4.29428   3
  -4   3   6 213.160 4.34321   2
   3  -3  -6 112.063 2.89187   1
  -3   3   6 113.814 2.50324   3
  -3   3   6 110.123 2.83344   3
  -3   3   6 105.394 2.85032   2
   2  -3  -6 312.710 5.78539   1
  -2   3   6 315.945 5.27057   3
  -2   3   6 312.966 5.55563   3
  -2   3   6 312.509 5.98140   2
   1  -3  -6 104.351 2.09024   3
   1  -3  -6 99.8584 2.79071   1
  -1   3   6 105.439 2.19816   3
  -1   3   6 103.932 2.96122   2
   0  -3  -6 103.425 2.10712   3
   0  -3  -6 99.6700 2.86198   1
   0   3   6 100.096 2.28876   3
   0   3   6 101.537 2.98473   2
  -1  -3  -6 44.6718 2.07337   1
  -1  -3  -6 45.5324 1.46490   3
   1   3   6 44.2099 1.80805   3
   1   3   6 45.3055 2.10972   2
  -2  -3  -6 149.264 3.94236   1
  -2  -3  -6 146.945 3.44469   3
   2   3   6 149.452 3.91649   2
   2   3   6 150.243 3.78151   3
  -3  -3  -6 99.0230 3.41745   1
  -3  -3  -6 100.009 2.92953   3
   3   3   6 100.117 3.30032   2
  -4  -3  -6 241.803 5.55468   3
   4   3   6 251.972 5.71707   2
  -5  -3  -6 59.0767 3.39029   3
  -5  -3  -6 60.4567 3.59391   1
  -6  -3  -6 6.85589 2.05391   1
  -6  -3  -6 6.90356 2.22938   3
   6   3   6 7.65171 1.83195   2
  10  -4  -6 2.77872 1.54224   1
 -10   4   6 7.62757 3.40892   3
   9  -4  -6 10.5019 2.18764   1
  -9   4   6 8.96849 2.68259   3
   8  -4  -6 3.75329 1.10949   1
  -8   4   6 2.21409 2.00823   3
   7  -4  -6 0.15419 0.80200   1
  -7   4   6 1.50432 0.69858   2
  -6   4   6 35.2545 1.63859   2
  -6   4   6 34.8414 2.67546   3
   5  -4  -6 114.737 3.18988   1
  -5   4   6 112.857 2.92884   2
  -5   4   6 120.610 3.86453   3
   4  -4  -6 159.740 3.71635   1
  -4   4   6 155.211 4.06173   3
  -4   4   6 152.238 3.68963   2
   3  -4  -6 161.894 3.71632   1
  -3   4   6 164.220 3.47525   3
  -3   4   6 167.072 3.94299   3
  -3   4   6 158.777 3.88598   2
   2  -4  -6 364.794 6.09409   3
   2  -4  -6 361.094 6.55177   1
  -2   4   6 366.970 6.21806   3
  -2   4   6 350.181 6.90949   2
   1  -4  -6 805.667 12.6507   1
   1  -4  -6 809.253 12.2739   3
  -1   4   6 786.453 13.2715   2
  -1   4   6 784.011 12.3942   3
   0  -4  -6 356.789 6.74889   1
   0  -4  -6 372.931 6.16280   3
   0   4   6 355.737 6.38041   3
   0   4   6 367.926 7.23499   2
  -1  -4  -6 2.71719 0.84091   1
   1   4   6 0.99270 1.04761   3
   1   4   6 1.71677 0.92466   2
  -2  -4  -6 85.9743 3.08795   1
  -2  -4  -6 88.9026 2.62106   3
   2   4   6 88.8723 3.21580   2
  -3  -4  -6 69.6616 3.01860   1
  -3  -4  -6 68.0755 2.70064   3
  -4  -4  -6 52.2299 3.09167   1
  -4  -4  -6 53.1968 2.82224   3
   4   4   6 55.3795 3.05899   2
  -5  -4  -6 16.4914 2.87848   1
  -5  -4  -6 16.5399 2.91056   3
   5   4   6 14.2836 2.09436   2
  -6  -4  -6 25.2560 3.93728   3
  -6  -4  -6 17.7443 3.86969   1
   6   4   6 32.1968 3.65471   2
   9  -5  -6 -0.1073 1.23359   1
  -9   5   6 3.92692 2.62152   3
   8  -5  -6 27.8774 2.25413   1
  -8   5   6 28.1243 3.84652   3
   7  -5  -6 81.1954 2.94209   1
  -7   5   6 80.8492 4.13938   3
  -7   5   6 80.0751 2.43069   2
  -6   5   6 121.363 4.53068   3
  -6   5   6 115.383 3.11250   2
   5  -5  -6 9.04196 1.42715   1
  -5   5   6 8.15837 1.43466   2
  -5   5   6 8.61258 1.70055   3
   4  -5  -6 39.5899 1.94973   1
  -4   5   6 41.1955 2.12595   2
  -4   5   6 36.5362 2.30035   3
   3  -5  -6 149.617 3.61559   1
  -3   5   6 143.907 3.85230   3
  -3   5   6 143.444 3.88685   2
   2  -5  -6 531.515 8.58578   3
   2  -5  -6 512.426 8.82902   1
  -2   5   6 506.472 8.72690   3
  -2   5   6 515.622 9.48870   2
   1  -5  -6 256.269 4.78438   3
   1  -5  -6 257.832 5.24663   1
  -1   5   6 250.250 5.03262   3
  -1   5   6 257.623 5.79921   2
   0  -5  -6 326.623 6.29190   1
   0  -5  -6 324.532 5.80937   3
   0   5   6 307.455 6.13774   3
  -1  -5  -6 202.464 4.32385   3
  -1  -5  -6 208.949 4.82042   1
  -2  -5  -6 65.7916 2.87411   1
  -2  -5  -6 62.7023 2.50073   3
   2   5   6 66.9587 3.11337   2
  -3  -5  -6 24.1633 2.26091   3
   3   5   6 27.8177 2.60785   2
  -4  -5  -6 49.5432 3.48319   1
  -4  -5  -6 51.2672 3.11352   3
  -5  -5  -6 2.92193 1.88137   1
  -5  -5  -6 1.04393 2.04159   3
   5   5   6 3.81699 1.97421   2
   9  -6  -6 7.77612 1.61790   1
  -9   6   6 12.2722 3.02150   3
   8  -6  -6 21.4091 2.22885   1
  -8   6   6 23.8265 3.96147   3
   7  -6  -6 33.0566 2.14360   1
  -7   6   6 27.7995 2.05344   2
  -7   6   6 31.6139 3.69150   3
   6  -6  -6 130.892 3.60090   1
  -6   6   6 119.061 3.53452   2
  -5   6   6 172.571 4.39738   2
  -5   6   6 180.369 5.22464   3
   4  -6  -6 95.3699 2.91459   1
  -4   6   6 89.3163 3.20433   2
  -4   6   6 95.1420 3.56287   3
   3  -6  -6 30.4047 1.82763   1
   3  -6  -6 31.0615 1.71667   3
  -3   6   6 26.8943 2.13994   2
   2  -6  -6 143.242 3.65795   1
   2  -6  -6 147.934 3.47563   3
  -2   6   6 144.448 4.27331   2
   1  -6  -6 140.299 3.38459   3
   1  -6  -6 141.518 3.67111   1
  -1   6   6 141.762 4.28921   2
   0  -6  -6 25.6704 1.74723   3
   0  -6  -6 24.0805 1.92979   1
  -1  -6  -6 45.9292 2.29095   3
  -1  -6  -6 43.0994 2.49406   1
   1   6   6 47.2207 2.89158   2
  -2  -6  -6 262.520 5.70739   3
  -2  -6  -6 259.000 5.96019   1
  -3  -6  -6 140.582 4.44128   3
  -3  -6  -6 145.122 4.61985   1
   3   6   6 156.585 5.05075   2
  -4  -6  -6 5.41780 1.89646   3
   4   6   6 1.16062 1.86944   2
  -5  -6  -6 -1.6207 2.38178   3
   5   6   6 3.81296 2.31397   2
   8  -7  -6 22.9461 2.48866   1
  -8   7   6 15.0834 2.90115   3
   7  -7  -6 45.0060 2.68804   1
  -7   7   6 46.5029 4.47144   3
  -7   7   6 49.4365 2.74184   2
   6  -7  -6 89.8549 3.16738   1
  -6   7   6 90.9588 4.60541   3
  -6   7   6 86.8182 3.40362   2
   5  -7  -6 37.7398 2.48935   1
  -5   7   6 34.3500 2.49005   2
   4  -7  -6 199.517 4.58956   1
  -4   7   6 201.200 5.56921   3
  -4   7   6 203.393 5.26811   2
   3  -7  -6 262.789 5.50089   1
   3  -7  -6 272.997 5.59541   3
  -3   7   6 264.596 6.38622   2
   2  -7  -6 106.608 3.20083   3
   2  -7  -6 108.362 3.23884   1
  -2   7   6 112.428 4.02556   2
   1  -7  -6 12.3264 1.80826   1
   1  -7  -6 17.5025 1.73139   3
  -1   7   6 16.4444 2.34147   2
   0  -7  -6 58.6915 2.71102   1
   0  -7  -6 58.0402 2.53317   3
  -1  -7  -6 27.8994 2.48724   1
  -1  -7  -6 32.0896 2.37413   3
   1   7   6 27.2836 2.69097   2
  -2  -7  -6 10.4559 2.41147   3
   2   7   6 5.48943 1.88599   2
  -3  -7  -6 27.7363 3.18323   3
  -3  -7  -6 26.1052 3.30423   1
   3   7   6 30.4252 3.40392   2
   4   7   6 33.1170 4.00296   2
   8  -8  -6 18.3970 2.74619   1
  -8   8   6 21.7075 5.17197   3
   7  -8  -6 46.4644 2.86086   1
  -7   8   6 54.6646 5.12515   3
  -6   8   6 47.7426 4.41008   3
  -6   8   6 47.9734 3.12903   2
   5  -8  -6 64.4982 2.84572   1
  -5   8   6 64.7222 3.42278   2
  -5   8   6 59.6804 3.98248   3
  -4   8   6 175.550 5.22315   2
   3  -8  -6 61.4214 2.63895   1
   3  -8  -6 65.1046 2.82679   3
   2  -8  -6 80.2047 3.06047   3
   2  -8  -6 81.1878 2.94408   1
  -2   8   6 75.7459 3.84087   2
   1  -8  -6 49.7122 2.64008   3
   1  -8  -6 51.2490 2.54485   1
  -1   8   6 46.2757 3.42435   2
   0  -8  -6 50.1245 2.86572   3
   0  -8  -6 53.9974 2.78219   1
   0   8   6 48.3837 3.61935   2
  -1  -8  -6 36.3958 2.75848   3
   1   8   6 34.8428 3.37307   2
  -2  -8  -6 23.0368 3.15339   3
   2   8   6 18.9131 3.43544   2
   6  -9  -6 61.9020 3.07605   1
  -6   9   6 50.0424 3.92940   2
  -6   9   6 54.9616 5.06705   3
   5  -9  -6 107.584 3.57838   1
  -5   9   6 104.100 5.34628   3
  -5   9   6 111.828 4.61872   2
   4  -9  -6 116.782 3.65419   1
  -4   9   6 108.813 4.67034   2
   3  -9  -6 34.8090 2.71687   3
  -3   9   6 37.2419 3.51888   2
   2  -9  -6 46.3858 2.91752   3
   2  -9  -6 46.8167 2.68379   1
  -2   9   6 43.0332 3.68333   2
   1  -9  -6 14.2601 2.72620   3
  -1   9   6 15.4051 3.27942   2
   0  -9  -6 20.4133 3.15339   3
   0   9   6 17.0940 3.50514   2
  -1  -9  -6 10.3864 2.26153   3
   1   9   6 15.4158 2.61327   2
  -4  10   6 104.893 5.14131   2
   3 -10  -6 19.1076 3.03859   3
  -3  10   6 16.1325 3.66085   2
   2 -10  -6 13.7736 3.08543   3
  -2  10   6 13.3105 2.66887   2
   1  12  -7 4.36432 2.19853   2
  -1 -12   7 4.45267 2.20874   3
   0  12  -7 28.3141 3.73034   2
   0 -12   7 18.2050 3.54434   3
  -1  12  -7 25.0232 3.64514   2
   1 -12   7 29.9084 3.63398   3
  -2  12  -7 8.06427 2.19651   2
   2 -12   7 11.3314 2.24197   3
  -3  12  -7 -3.0775 1.94956   2
   3 -12   7 2.15119 1.81915   3
   3  11  -7 45.0745 4.31496   2
  -3 -11   7 46.3353 4.31981   3
   2  11  -7 33.1152 3.70628   2
  -2 -11   7 27.0891 3.76576   3
   1  11  -7 20.2796 3.21104   2
  -1 -11   7 23.7110 3.37725   3
   0  11  -7 8.52026 2.03553   2
   0 -11   7 9.66016 1.95810   3
  -1  11  -7 16.6722 2.86668   2
   1 -11   7 12.7985 2.12118   3
  -2  11  -7 34.4217 3.25058   2
   2 -11   7 32.7912 3.19687   3
  -3  11  -7 -0.7475 1.60292   2
   3 -11   7 2.82340 1.57943   3
  -4  11  -7 -2.9852 1.79581   2
   4 -11   7 0.57670 1.68959   3
  -5  11  -7 1.75772 2.01274   2
  -5  11  -7 0.26882 3.00090   3
   4  10  -7 33.0817 3.60629   2
  -4 -10   7 23.3999 3.90126   3
   3  10  -7 14.5367 3.19564   2
  -3 -10   7 24.3951 3.31945   3
   2  10  -7 0.98591 1.57074   2
  -2 -10   7 0.33664 1.61157   3
   1  10  -7 10.8532 2.52935   2
  -1 -10   7 11.3862 2.60451   3
   0  10  -7 54.5009 3.20735   2
   0 -10   7 55.8390 3.19110   3
  -1  10  -7 11.2874 2.40356   2
   1 -10   7 8.93748 1.79674   3
  -2  10  -7 0.24904 1.35364   2
   2 -10   7 -1.0777 1.22030   3
  -3  10  -7 5.30141 1.55535   2
   3 -10   7 3.33163 1.40528   3
   4 -10   7 1.35623 1.38784   3
  -5  10  -7 3.80498 2.61674   3
  -6  10  -7 0.08291 3.04555   3
   5   9  -7 34.3694 3.54875   2
  -5  -9   7 22.6729 3.64394   3
   4   9  -7 86.5308 4.19671   2
  -4  -9   7 87.7746 4.33591   3
   3   9  -7 10.4556 1.88146   2
  -3  -9   7 10.8244 1.98074   3
  -2  -9   7 18.0111 2.86284   3
   1   9  -7 5.43047 1.56678   2
  -1  -9   7 3.60340 1.45627   3
   0   9  -7 0.11552 1.18558   2
   0  -9   7 0.00007 1.08645   3
  -1   9  -7 10.9508 2.20812   2
   1  -9   7 12.2016 2.14241   3
  -2   9  -7 3.89813 0.94751   1
  -2   9  -7 5.81434 1.35317   2
   2  -9   7 2.00983 1.19356   3
  -3   9  -7 13.5170 2.13944   1
  -3   9  -7 19.0336 2.37578   2
   3  -9   7 12.8667 2.13401   3
  -4   9  -7 4.39065 1.47151   2
  -4   9  -7 5.93354 1.43881   1
   4  -9   7 5.70132 1.36865   3
  -5   9  -7 1.67537 1.46490   2
  -5   9  -7 0.77635 2.18881   3
  -5   9  -7 -0.7792 1.56896   1
  -6   9  -7 30.6607 5.26165   3
   6   8  -7 21.1145 3.49599   2
  -6  -8   7 29.3465 3.67138   3
   5   8  -7 37.9836 3.30474   2
  -5  -8   7 36.5565 3.29889   3
   4   8  -7 39.1588 2.90339   2
  -4  -8   7 33.9174 3.00012   3
   3   8  -7 1.05372 1.21436   2
  -3  -8   7 1.40744 1.27054   3
   2   8  -7 9.21556 2.09652   2
  -2  -8   7 10.0177 2.06668   3
   0   8  -7 105.821 3.68119   2
   0  -8   7 87.7391 3.22485   3
  -1   8  -7 1.58455 1.01277   2
  -1   8  -7 1.08318 0.64103   1
   1  -8   7 0.74383 0.87015   3
  -2   8  -7 25.3447 2.25012   2
  -2   8  -7 26.0392 1.80036   1
  -3   8  -7 36.4056 2.54389   2
  -3   8  -7 36.1037 2.35717   1
  -4   8  -7 48.8559 2.88005   2
  -4   8  -7 49.5260 2.80920   1
   4  -8   7 48.5880 2.73931   3
  -5   8  -7 11.2942 2.40584   2
  -6   8  -7 17.8188 3.13885   3
  -6   8  -7 23.1558 2.58455   2
  -7   8  -7 21.9473 5.22294   3
   7  -8   7 7.83561 1.63028   1
   7   7  -7 13.4227 2.51029   2
  -7  -7   7 25.9950 4.03691   3
   6   7  -7 15.0815 2.92547   2
  -6  -7   7 25.1543 3.22537   3
   5   7  -7 52.7556 3.08154   2
   5   7  -7 59.4665 1.79804   1
  -5  -7   7 53.5412 3.49111   3
   4   7  -7 7.62965 1.00031   1
  -4  -7   7 10.1936 2.22837   3
   2   7  -7 13.7729 1.80774   2
  -2  -7   7 12.1137 1.85299   3
  -1  -7   7 15.5425 1.70143   3
   0   7  -7 2.52683 0.95897   2
   0  -7   7 3.74547 0.96834   3
  -1   7  -7 27.4037 2.01731   2
  -1   7  -7 27.3109 1.13101   1
  -1   7  -7 28.8524 1.50297   1
   1  -7   7 29.4701 1.90372   3
  -2   7  -7 2.58330 0.96025   2
  -2   7  -7 0.95015 0.73275   1
   2  -7   7 1.95803 0.90730   3
  -3   7  -7 43.4977 2.35022   2
  -3   7  -7 38.2586 2.20371   1
   3  -7   7 41.2095 2.16442   3
  -4   7  -7 88.0477 4.02263   3
  -4   7  -7 85.3515 3.35038   1
  -4   7  -7 83.1491 3.13721   2
   4  -7   7 84.5323 2.59682   1
  -5   7  -7 49.4194 2.70763   2
  -5   7  -7 49.9827 4.03341   3
  -6   7  -7 59.3707 3.02544   2
  -6   7  -7 68.3927 4.83405   3
  -7   7  -7 9.68693 3.20862   3
   7  -7   7 9.10666 1.59386   1
  -8  -6   7 13.1274 3.06644   3
   7   6  -7 30.3089 3.07986   2
   7   6  -7 31.0602 2.10533   1
  -7  -6   7 28.5370 3.72659   3
   6   6  -7 26.1349 1.74377   1
  -6  -6   7 27.8605 3.19890   3
   5   6  -7 19.0602 1.39327   1
   5   6  -7 21.6069 2.23011   2
  -5  -6   7 22.7618 2.59352   3
   4   6  -7 5.76026 1.27706   2
   3   6  -7 14.1750 0.94742   1
   3   6  -7 13.5370 1.67846   2
  -3  -6   7 12.9488 1.81605   3
  -3  -6   7 18.5825 1.55205   1
   2   6  -7 5.82692 1.17920   2
   2   6  -7 6.53790 0.82241   1
  -2  -6   7 5.20369 1.03539   3
  -2  -6   7 7.08954 1.23218   1
   1   6  -7 33.5296 2.01191   2
   1   6  -7 34.9190 1.29262   1
   1   6  -7 34.7690 1.08982   1
  -1  -6   7 35.4263 1.85912   3
   0   6  -7 41.8506 1.54048   1
   0   6  -7 41.9122 2.16539   2
   0   6  -7 39.2289 1.19820   1
   0  -6   7 41.6081 1.90849   3
  -1   6  -7 131.099 3.76058   2
  -1   6  -7 127.484 2.56323   1
   1  -6   7 131.045 3.36854   3
  -2   6  -7 32.4896 2.07588   2
  -2   6  -7 34.5166 1.78476   1
   2  -6   7 32.1542 1.75262   3
  -3   6  -7 0.41500 0.87995   2
  -3   6  -7 0.82529 0.92813   1
   3  -6   7 1.69451 0.76689   3
  -4   6  -7 1.76408 1.42644   3
  -4   6  -7 2.58986 0.98777   2
   4  -6   7 1.37257 0.68839   1
  -5   6  -7 47.9967 2.54524   2
  -5   6  -7 49.5890 3.53443   3
  -6   6  -7 111.029 3.53595   2
  -6   6  -7 123.922 5.47208   3
  -7   6  -7 51.8775 4.84506   3
   7  -6   7 54.1488 3.07982   1
  -8   6  -7 68.2659 6.16430   3
   8  -6   7 63.9785 3.67001   1
   8   5  -7 38.1521 2.64627   1
  -8  -5   7 34.4711 4.25369   3
   7   5  -7 2.08192 1.44792   2
   7   5  -7 3.60613 1.01706   1
  -7  -5   7 0.81410 1.82135   3
   6   5  -7 12.5215 2.20198   2
   6   5  -7 9.17943 1.46929   1
  -6  -5   7 13.2307 2.52889   3
   5   5  -7 2.72257 1.05300   2
   5   5  -7 2.77222 0.75505   1
   4   5  -7 2.26029 0.60960   1
   4   5  -7 3.71958 1.00717   2
  -4  -5   7 2.59394 1.09051   3
  -4  -5   7 1.73804 0.99866   1
   3   5  -7 36.1567 1.98530   2
   3   5  -7 35.9514 1.36783   1
  -3  -5   7 36.2789 2.03187   3
  -3  -5   7 34.8981 1.79931   1
   2   5  -7 0.06597 0.65200   2
   2   5  -7 -0.2894 0.45162   1
  -2  -5   7 1.21477 0.61401   1
  -2  -5   7 0.13269 0.65339   3
   1   5  -7 52.8573 1.63920   1
   1   5  -7 52.6093 2.24302   2
  -1  -5   7 51.0695 1.73105   1
  -1  -5   7 52.4800 1.92664   3
   0   5  -7 35.3920 1.50970   1
   0   5  -7 37.6858 1.96141   2
   0   5  -7 38.9825 1.22099   1
   0  -5   7 36.8370 1.59388   3
  -1   5  -7 69.1088 2.17304   1
  -1   5  -7 66.8247 1.72817   1
  -1   5  -7 64.0391 2.51626   2
   1  -5   7 68.4538 2.06284   3
   1  -5   7 65.7604 2.08865   2
  -2   5  -7 304.180 5.87547   1
   2  -5   7 300.650 5.63382   2
   2  -5   7 303.187 5.69651   3
  -3   5  -7 271.737 5.83688   2
  -3   5  -7 268.646 5.73575   1
  -3   5  -7 277.305 6.14278   3
   3  -5   7 278.171 5.24253   2
  -4   5  -7 76.8675 2.82981   2
  -4   5  -7 74.8743 3.39305   3
   4  -5   7 79.0140 2.47450   1
   4  -5   7 79.3259 2.33741   2
  -5   5  -7 1.28987 0.99148   2
  -5   5  -7 2.70404 1.59381   3
  -6   5  -7 8.16278 2.11846   3
  -6   5  -7 4.95025 1.34642   2
  -7   5  -7 68.9625 5.11035   3
   7  -5   7 76.4662 3.36176   1
  -8   5  -7 79.4596 6.00031   3
   8  -5   7 78.7671 3.81383   1
   9   4  -7 3.72475 1.53644   1
  -9  -4   7 3.28103 2.65864   3
   8   4  -7 29.7964 2.36348   1
  -8  -4   7 34.1136 3.69383   3
   7   4  -7 24.8927 1.90814   1
   7   4  -7 26.7836 2.31346   2
   6   4  -7 33.5899 2.21046   2
   6   4  -7 33.6897 1.80753   1
   5   4  -7 48.5953 1.81167   1
   5   4  -7 46.4806 2.24770   2
  -5  -4   7 48.1995 2.62277   3
   4   4  -7 11.7788 1.51968   2
   4   4  -7 11.7730 1.09626   1
  -4  -4   7 9.74387 1.65725   3
   3   4  -7 0.24566 0.46485   1
   3   4  -7 0.87031 0.71596   2
  -3  -4   7 -0.1999 0.67479   3
  -3  -4   7 1.17827 0.76402   1
   2   4  -7 39.6777 1.96729   3
   2   4  -7 40.9729 1.49186   1
   2   4  -7 40.1174 1.92755   2
  -2  -4   7 39.4138 1.65670   1
  -2  -4   7 39.9927 1.58292   2
  -2  -4   7 40.3176 1.70022   3
   1   4  -7 13.0168 1.26259   3
   1   4  -7 12.1176 0.99852   1
  -1  -4   7 10.9520 1.22919   1
  -1  -4   7 10.6047 1.03720   2
   0   4  -7 0.20520 0.39828   1
   0   4  -7 0.55038 0.57598   3
   0  -4   7 0.20242 0.40761   2
   0  -4   7 0.64661 0.48509   3
  -1   4  -7 119.238 2.81645   3
  -1   4  -7 118.701 2.55789   1
  -1   4  -7 122.051 3.02808   1
   1  -4   7 119.420 2.71124   3
   1  -4   7 117.771 2.82753   2
  -2   4  -7 678.746 11.1667   1
  -2   4  -7 659.207 10.9338   3
   2  -4   7 693.946 10.8811   3
   2  -4   7 682.469 10.8770   2
  -3   4  -7 254.829 5.54360   1
  -3   4  -7 255.994 5.63569   3
   3  -4   7 248.597 4.80850   2
  -4   4  -7 163.875 4.68480   3
   4  -4   7 166.004 3.54650   2
   4  -4   7 162.324 3.77344   1
  -5   4  -7 58.1192 3.25869   3
   5  -4   7 61.8850 2.03221   2
   5  -4   7 65.6798 2.74040   1
  -6   4  -7 33.5142 3.48246   3
   6  -4   7 33.3228 1.70027   2
   7  -4   7 32.1056 2.53510   1
  -8   4  -7 17.5663 3.65496   3
   8  -4   7 20.5492 2.98739   1
   9   3  -7 20.0166 2.57122   1
  -9  -3   7 22.2270 4.46989   3
   8   3  -7 1.79236 1.09386   1
  -8  -3   7 4.42582 1.93098   3
   7   3  -7 16.5765 1.94121   2
   7   3  -7 12.5539 1.77164   1
  -7  -3   7 20.1084 2.73834   3
   6   3  -7 17.2164 1.81935   2
   6   3  -7 20.0777 1.54494   1
  -6  -3   7 13.7610 2.19953   3
   5   3  -7 2.39522 0.85970   2
   5   3  -7 0.14441 0.51233   1
  -5  -3   7 -0.0991 1.06165   3
   4   3  -7 1.90588 0.59634   1
   4   3  -7 0.89499 0.71671   2
  -4  -3   7 0.33589 0.76763   3
   3   3  -7 236.853 4.42527   1
   3   3  -7 237.144 4.98265   3
  -3  -3   7 229.589 4.75696   3
  -3  -3   7 236.268 4.51207   2
  -3  -3   7 233.811 4.63922   1
   2   3  -7 276.332 5.24706   3
  -2  -3   7 279.816 5.12251   1
  -2  -3   7 278.130 5.10359   2
  -2  -3   7 277.658 5.07017   3
   1   3  -7 4.22076 0.94768   3
  -1  -3   7 3.52692 0.70905   2
  -1  -3   7 4.49971 1.03214   1
  -1  -3   7 2.74970 0.64323   3
   0   3  -7 19.5680 0.98078   1
   0   3  -7 19.3149 1.21459   1
   0   3  -7 19.7178 1.02370   3
   0  -3   7 20.2102 0.92057   3
   0  -3   7 19.7002 1.35199   1
   0  -3   7 19.1289 1.07729   2
  -1   3  -7 41.0094 1.38544   3
  -1   3  -7 40.6524 1.75284   1
   1  -3   7 39.6182 1.27614   3
   1  -3   7 41.1591 1.54735   2
  -2   3  -7 472.327 7.74335   3
  -2   3  -7 466.647 8.33659   1
  -2   3  -7 471.548 8.18448   3
   2  -3   7 465.465 7.86998   2
  -3   3  -7 155.536 3.94691   3
  -3   3  -7 151.030 4.03701   1
  -3   3  -7 149.374 3.41562   3
   3  -3   7 154.094 3.35657   2
  -4   3  -7 190.294 4.79704   3
  -4   3  -7 182.939 4.93186   1
   4  -3   7 190.816 4.21218   1
   4  -3   7 191.215 3.93382   2
  -5   3  -7 79.6274 3.44743   3
   5  -3   7 76.9660 2.69971   1
   5  -3   7 75.4484 2.29412   2
  -6   3  -7 103.972 4.69230   3
   6  -3   7 111.782 3.61309   1
   6  -3   7 108.752 2.78954   2
  -7   3  -7 77.7686 5.07626   3
   7  -3   7 77.1285 3.38760   1
  -8   3  -7 3.35106 3.37404   3
   8  -3   7 3.30971 1.66477   1
   9   2  -7 19.8506 2.56294   1
  -9  -2   7 17.9391 3.11918   3
   8   2  -7 12.1794 1.89183   1
  -8  -2   7 8.72220 2.29015   3
   7   2  -7 0.10283 0.91233   2
   7   2  -7 1.01138 0.83344   1
  -7  -2   7 -1.6491 1.33143   3
   6   2  -7 66.5396 2.36810   2
   6   2  -7 64.2031 2.28738   1
  -6  -2   7 66.2568 3.15721   3
   5   2  -7 144.522 3.37046   1
   5   2  -7 146.465 3.56317   2
  -5  -2   7 147.966 4.08255   3
   4   2  -7 26.2324 1.41936   1
  -4  -2   7 29.4070 1.26169   2
  -4  -2   7 29.5609 1.73968   3
   3   2  -7 43.3839 1.61363   1
   3   2  -7 43.8036 1.90408   3
  -3  -2   7 45.6465 1.53727   2
  -3  -2   7 46.3162 1.69535   3
   2   2  -7 247.155 4.67032   1
   2   2  -7 251.532 4.60250   3
  -2  -2   7 253.235 4.76374   1
  -2  -2   7 247.118 4.41653   3
  -2  -2   7 247.292 4.63796   2
   1   2  -7 272.821 5.08824   1
   1   2  -7 284.672 4.66016   3
  -1  -2   7 273.544 5.09332   1
  -1  -2   7 268.595 4.50005   3
  -1  -2   7 273.663 5.02710   2
   0   2  -7 534.481 8.13377   3
   0   2  -7 523.290 8.72775   1
   0  -2   7 536.389 8.04832   3
   0  -2   7 527.880 8.68697   2
   0  -2   7 526.717 8.68323   1
  -1   2  -7 206.571 3.79132   3
  -1   2  -7 204.343 3.53258   3
  -1   2  -7 200.196 4.33704   1
   1  -2   7 200.652 4.02081   2
  -2   2  -7 236.262 4.21591   3
  -2   2  -7 233.959 5.08096   1
  -2   2  -7 238.985 4.59039   3
   2  -2   7 232.979 4.54487   2
  -3   2  -7 3.19913 0.80784   3
  -3   2  -7 3.24278 0.80458   1
   3  -2   7 3.06791 0.66361   2
  -4   2  -7 55.1967 2.71973   1
  -4   2  -7 54.1814 2.62104   3
   4  -2   7 53.6540 1.89325   2
   4  -2   7 50.9942 2.26809   1
  -5   2  -7 112.854 4.07413   3
   5  -2   7 114.574 2.92831   2
  -6   2  -7 294.653 7.44027   3
   6  -2   7 280.462 6.19704   1
   6  -2   7 281.968 5.39530   2
  -7   2  -7 56.8133 4.61483   3
   7  -2   7 56.2311 3.07446   1
  -8   2  -7 6.41200 3.27112   3
   8  -2   7 0.08171 1.46381   1
  10   1  -7 4.99094 1.53983   1
 -10  -1   7 4.83961 2.88418   3
   9   1  -7 3.60860 1.24906   1
  -9  -1   7 9.17523 2.66803   3
   8   1  -7 0.66558 0.90623   1
   7   1  -7 3.28926 0.91743   1
   6   1  -7 1.58197 0.83785   2
   6   1  -7 0.75459 0.90922   2
   6   1  -7 0.77154 0.70680   1
  -6  -1   7 1.92412 1.27694   3
   5   1  -7 29.5635 1.60122   1
   5   1  -7 28.1012 1.62076   2
  -5  -1   7 28.7174 1.27521   2
  -5  -1   7 28.2203 2.08976   3
   4   1  -7 248.622 5.26996   3
   4   1  -7 257.462 4.82577   2
   4   1  -7 252.315 4.91916   1
  -4  -1   7 258.336 4.68501   2
  -4  -1   7 259.278 5.21675   3
   3   1  -7 661.907 10.6640   2
   3   1  -7 655.849 10.7564   3
   3   1  -7 666.024 10.5051   1
  -3  -1   7 664.264 10.4929   2
  -3  -1   7 665.008 10.6233   3
   2   1  -7 141.602 3.26745   1
   2   1  -7 147.819 2.92202   3
  -2  -1   7 154.004 2.80429   3
  -2  -1   7 146.553 3.14418   2
   1   1  -7 46.8363 1.76078   1
   0   1  -7 407.574 7.12858   1
  -1   1  -7 657.273 10.8329   1
   1  -1   7 661.679 10.6383   2
  -2   1  -7 275.206 4.91237   3
  -2   1  -7 262.275 5.59399   1
  -2   1  -7 270.361 4.58159   3
   2  -1   7 274.177 5.17564   2
  -3   1  -7 21.3414 1.60642   3
  -3   1  -7 18.8418 1.23921   3
  -3   1  -7 24.9602 1.90972   1
   3  -1   7 22.5230 1.38753   2
  -4   1  -7 117.846 3.56818   3
   4  -1   7 115.018 3.00156   2
  -5   1  -7 28.1289 2.69085   3
   5  -1   7 33.0427 1.85520   2
  -6   1  -7 26.0454 2.98550   1
  -6   1  -7 36.7732 3.35464   3
   6  -1   7 31.3393 1.90922   2
   6  -1   7 30.2668 2.21906   1
  -7   1  -7 23.7063 3.68643   1
  -7   1  -7 26.3902 4.30263   3
   7  -1   7 34.3634 2.65909   1
  10   0  -7 0.23492 1.51177   1
 -10   0   7 6.27633 3.05736   3
   9   0  -7 20.6847 2.32059   1
  -9   0   7 20.0857 4.16053   3
  -8   0   7 3.16689 1.96072   3
   7   0  -7 2.21194 0.87523   2
   7   0  -7 1.69578 0.83384   1
   6   0  -7 23.3602 1.60474   1
   6   0  -7 22.9050 1.76158   2
  -6   0   7 22.9459 2.30839   3
   5   0  -7 0.51225 0.60292   1
   5   0  -7 0.88565 0.81840   2
  -5   0   7 1.08763 0.98019   3
  -5   0   7 0.73813 0.50912   2
   4   0  -7 177.663 3.89194   1
   4   0  -7 176.351 4.04306   3
   4   0  -7 179.450 3.76283   2
  -4   0   7 175.012 3.54773   2
   3   0  -7 284.364 5.36377   1
   3   0  -7 287.718 5.16342   3
  -3   0   7 284.188 5.10012   3
  -3   0   7 277.898 5.12525   2
   2   0  -7 231.447 4.61547   1
   2   0  -7 235.825 3.92284   3
  -2   0   7 225.827 4.42442   2
  -2   0   7 234.173 3.83729   3
   1   0  -7 423.014 7.37407   1
  -1   0   7 431.555 7.31103   2
   0   0  -7 555.877 9.20602   1
   0   0   7 544.582 9.11485   2
  -1   0  -7 287.173 5.76388   1
   1   0   7 287.579 5.44508   2
  -2   0  -7 350.144 6.91297   1
  -2   0  -7 341.925 5.68939   3
  -2   0  -7 363.283 5.95343   3
   2   0   7 359.560 6.50193   2
  -3   0  -7 92.0345 3.28629   1
  -3   0  -7 94.1834 2.63855   3
   3   0   7 96.4989 2.76915   2
  -4   0  -7 20.7093 1.98624   3
   4   0   7 24.1318 1.63690   2
  -5   0  -7 88.3234 3.82524   1
  -5   0  -7 89.2171 3.51009   3
   5   0   7 89.9113 2.83168   2
  -6   0  -7 62.7714 3.82314   3
  -6   0  -7 66.6764 3.87112   1
   6   0   7 58.8684 2.59371   2
  -7   0  -7 5.76034 1.99019   1
  10  -1  -7 -0.7541 1.39019   1
 -10   1   7 3.68480 3.14611   3
   9  -1  -7 43.6988 2.76834   1
  -9   1   7 54.2750 4.81281   3
   8  -1  -7 12.7050 1.96308   1
  -8   1   7 13.1897 2.31495   3
   7  -1  -7 54.7032 2.35745   1
  -7   1   7 53.1192 1.62512   2
  -7   1   7 46.1617 3.13959   3
   6  -1  -7 227.711 4.94827   1
   6  -1  -7 227.567 4.61029   2
  -6   1   7 235.727 5.76986   3
   5  -1  -7 116.442 3.15145   1
   5  -1  -7 115.362 3.03605   2
  -5   1   7 118.533 3.59995   3
  -5   1   7 119.888 2.68710   2
   4  -1  -7 110.598 2.94052   1
   4  -1  -7 108.930 2.91808   3
  -4   1   7 111.208 2.64945   2
   3  -1  -7 0.49955 0.52616   1
  -3   1   7 2.02579 0.46726   3
  -3   1   7 0.40454 0.61467   3
  -3   1   7 1.66572 0.53584   2
   2  -1  -7 140.052 3.31116   1
  -2   1   7 131.664 3.12124   2
   1  -1  -7 162.229 3.72530   1
  -1   1   7 164.337 3.64665   2
   0  -1  -7 827.305 13.1740   1
   0   1   7 838.722 13.3403   2
  -1  -1  -7 515.148 9.12967   1
   1   1   7 527.840 9.01836   2
  -2  -1  -7 99.1183 3.13617   1
  -2  -1  -7 101.360 2.27274   3
   2   1   7 97.0284 2.86142   2
   2   1   7 100.188 2.54577   3
  -3  -1  -7 99.9522 3.43040   1
   3   1   7 96.9403 2.95204   2
   3   1   7 96.0140 3.11024   3
  -4  -1  -7 86.6813 3.02514   3
   4   1   7 83.4032 2.86527   2
  -5  -1  -7 18.5821 2.64889   1
  -5  -1  -7 10.7869 2.38153   3
   5   1   7 22.0285 2.15447   2
  -6  -1  -7 1.80113 1.76366   1
  -6  -1  -7 1.70438 2.00444   3
   6   1   7 1.58060 1.32060   2
  -7  -1  -7 19.9318 4.03746   1
  -7  -1  -7 31.1555 4.37051   3
  10  -2  -7 14.0226 2.67003   1
 -10   2   7 13.0462 3.39856   3
   9  -2  -7 3.38008 1.16573   1
  -9   2   7 3.54427 2.41567   3
   8  -2  -7 6.54164 1.16222   1
  -8   2   7 15.3394 3.42743   3
  -7   2   7 271.608 7.03801   3
  -7   2   7 285.816 4.86775   2
   6  -2  -7 273.157 5.45016   2
  -6   2   7 291.152 5.11123   2
  -6   2   7 291.662 6.64433   3
   5  -2  -7 264.195 5.34994   1
  -5   2   7 263.761 4.94667   2
  -5   2   7 267.463 5.85642   3
   4  -2  -7 273.001 5.47374   1
  -4   2   7 278.662 5.22667   2
  -4   2   7 280.074 5.03900   3
   3  -2  -7 13.5349 1.27940   1
  -3   2   7 13.4421 0.88168   3
  -3   2   7 11.3661 1.16266   3
  -3   2   7 13.7142 1.19977   2
   2  -2  -7 391.464 7.04975   1
  -2   2   7 394.696 7.06710   2
   1  -2  -7 618.183 10.2048   1
  -1   2   7 614.682 10.3732   2
   0  -2  -7 200.654 4.51713   1
   0   2   7 206.275 4.53413   2
  -1  -2  -7 4.98296 0.96806   1
   1   2   7 6.90837 1.36792   2
  -2  -2  -7 92.0396 3.08644   1
  -2  -2  -7 87.9052 2.19401   3
   2   2   7 91.5316 2.95820   2
   2   2   7 85.2003 2.57801   3
  -3  -2  -7 96.3315 2.71850   3
  -3  -2  -7 89.2542 3.38019   1
   3   2   7 87.3714 3.25260   3
   3   2   7 94.3386 3.11404   2
  -4  -2  -7 55.1246 3.02957   1
  -4  -2  -7 55.4939 2.60091   3
   4   2   7 56.8722 2.66870   2
  -5  -2  -7 78.7263 3.85044   1
  -5  -2  -7 80.4860 3.54332   3
  -6  -2  -7 0.50494 2.00927   3
  -6  -2  -7 -1.4762 1.78481   1
   6   2   7 0.02886 1.61820   2
  10  -3  -7 26.3731 2.96609   1
 -10   3   7 23.3562 3.96429   3
   9  -3  -7 -0.4543 1.18285   1
  -9   3   7 1.66130 2.62810   3
   8  -3  -7 2.29778 1.10132   1
  -8   3   7 1.29002 1.99666   3
   7  -3  -7 143.668 3.93897   1
  -7   3   7 147.448 3.10455   2
  -6   3   7 189.909 5.23441   3
  -6   3   7 188.521 3.89860   2
   5  -3  -7 28.1938 1.77574   1
  -5   3   7 24.4370 1.52420   2
  -5   3   7 27.5760 2.23349   3
   4  -3  -7 122.066 3.29744   1
  -4   3   7 126.680 3.43741   3
  -4   3   7 119.835 3.11939   2
  -4   3   7 122.820 2.91693   3
   3  -3  -7 667.234 11.0378   1
  -3   3   7 679.085 11.2510   2
  -3   3   7 680.340 10.5852   3
  -3   3   7 673.700 11.0338   3
   2  -3  -7 1159.05 17.6453   1
  -2   3   7 1157.89 17.2310   3
  -2   3   7 1156.16 18.1843   2
  -2   3   7 1157.07 17.5364   3
   1  -3  -7 47.1266 2.08336   1
   1  -3  -7 46.8160 1.20917   3
  -1   3   7 45.7915 2.10742   2
   0  -3  -7 46.1389 1.25655   3
   0  -3  -7 46.8166 2.10712   1
   0   3   7 46.6114 2.21127   2
  -1  -3  -7 27.5761 1.18393   3
  -1  -3  -7 30.4129 1.92916   1
   1   3   7 31.3446 1.72115   3
   1   3   7 29.6884 1.94716   2
  -2  -3  -7 37.0963 2.34988   1
  -2  -3  -7 40.9822 1.66172   3
   2   3   7 40.1061 2.27863   2
   2   3   7 39.1124 2.28937   3
  -3  -3  -7 33.9037 1.88257   3
  -4  -3  -7 15.7899 2.46029   1
  -4  -3  -7 13.8312 2.17237   3
   4   3   7 16.7993 2.35280   2
  -5  -3  -7 14.3621 2.94604   1
  -5  -3  -7 9.02793 1.86840   3
   5   3   7 11.4206 2.49234   2
  -6  -3  -7 3.28524 1.89485   1
  -6  -3  -7 -1.3675 2.35669   3
   6   3   7 -2.7141 1.60224   2
   9  -4  -7 49.9298 2.99516   1
  -9   4   7 54.8990 4.98841   3
   8  -4  -7 200.541 5.04663   1
  -8   4   7 192.462 7.09954   3
   7  -4  -7 57.8754 2.62571   1
  -7   4   7 55.0547 2.00330   2
   6  -4  -7 1.06375 0.81441   1
  -6   4   7 1.33788 1.46987   3
  -6   4   7 1.52210 0.81051   2
   5  -4  -7 33.0894 1.86758   1
  -5   4   7 33.2245 2.40101   3
  -5   4   7 30.6748 1.78809   2
   4  -4  -7 111.193 3.14042   1
  -4   4   7 113.590 3.24698   2
  -4   4   7 116.320 3.47237   3
   3  -4  -7 342.691 6.47994   1
  -3   4   7 338.957 6.02325   3
  -3   4   7 337.504 6.71116   2
   2  -4  -7 893.745 14.0940   1
  -2   4   7 883.538 13.7220   3
  -2   4   7 891.865 14.0536   3
  -2   4   7 895.159 14.6823   2
   1  -4  -7 159.108 3.96767   1
   1  -4  -7 164.028 3.13008   3
  -1   4   7 162.173 3.34019   3
  -1   4   7 156.451 4.15053   2
   0  -4  -7 1.97695 0.59277   3
   0  -4  -7 1.18831 0.79815   1
   0   4   7 2.48931 0.88189   3
  -1  -4  -7 6.53564 1.18007   1
  -1  -4  -7 8.48332 1.11936   3
   1   4   7 7.79216 1.36770   3
  -2  -4  -7 71.0380 3.10824   1
  -2  -4  -7 74.6124 2.45770   3
  -3  -4  -7 33.0136 2.70041   1
  -3  -4  -7 38.7707 2.28845   3
   3   4   7 40.2499 2.79574   2
  -4  -4  -7 2.45246 1.46233   1
  -4  -4  -7 2.27761 1.46634   3
   4   4   7 3.75409 1.56992   2
  -5  -4  -7 0.33281 1.86084   1
  -5  -4  -7 2.44894 1.83935   3
   5   4   7 2.17336 1.81782   2
   9  -5  -7 29.4600 2.77139   1
  -9   5   7 23.0853 4.56280   3
   8  -5  -7 138.634 4.20000   1
  -8   5   7 131.464 5.68251   3
   7  -5  -7 103.419 3.46459   1
  -7   5   7 106.053 2.92320   2
  -7   5   7 100.680 4.66100   3
   6  -5  -7 61.5407 2.67731   1
  -6   5   7 61.0497 2.48842   2
  -6   5   7 62.5228 3.57286   3
  -5   5   7 25.8492 1.96127   2
  -5   5   7 28.1255 2.59072   3
   4  -5  -7 248.540 5.29920   1
  -4   5   7 247.075 5.51398   2
  -4   5   7 244.988 5.66719   3
   3  -5  -7 350.197 6.72123   1
  -3   5   7 348.604 7.09444   2
  -3   5   7 349.893 6.88994   3
   2  -5  -7 7.71578 1.03913   3
   2  -5  -7 4.98290 0.99383   1
  -2   5   7 6.00799 1.21504   2
  -2   5   7 5.30013 1.01951   3
   1  -5  -7 9.68684 1.57294   1
   1  -5  -7 11.3743 1.15924   3
  -1   5   7 8.24749 1.64947   3
  -1   5   7 13.3914 1.76920   2
   0  -5  -7 169.056 3.61829   3
   0  -5  -7 168.551 4.32989   1
  -1  -5  -7 251.837 5.79614   1
  -1  -5  -7 260.031 5.10610   3
   1   5   7 260.659 6.20858   2
  -2  -5  -7 10.6143 1.79977   3
   2   5   7 9.30084 1.64723   2
  -3  -5  -7 19.9243 2.39424   3
  -3  -5  -7 20.1092 2.76784   1
   3   5   7 19.8511 2.64977   2
  -4  -5  -7 2.55909 1.78073   3
  -4  -5  -7 0.34843 1.65897   1
   4   5   7 -1.3533 1.63366   2
  -5  -5  -7 2.90699 2.20795   1
   5   5   7 2.49626 2.19945   2
   9  -6  -7 46.1784 3.19664   1
  -9   6   7 50.5043 5.43288   3
   8  -6  -7 128.566 4.22283   1
  -8   6   7 117.822 5.84418   3
   7  -6  -7 20.6230 2.18258   1
  -7   6   7 16.0497 3.51187   3
  -7   6   7 11.9495 2.04257   2
   6  -6  -7 66.9612 2.88087   1
  -6   6   7 64.3098 2.84352   2
   5  -6  -7 78.0594 3.01073   1
  -5   6   7 81.1974 3.80166   3
  -5   6   7 81.9615 3.17213   2
  -4   6   7 203.172 5.38217   3
  -4   6   7 217.154 5.28370   2
   3  -6  -7 155.470 4.04745   1
  -3   6   7 158.274 4.35229   3
  -3   6   7 153.185 4.43695   2
   2  -6  -7 22.8568 1.62275   3
   2  -6  -7 18.8876 1.83102   1
  -2   6   7 20.8386 2.15194   2
   1  -6  -7 1.31870 0.83889   3
   1  -6  -7 2.08742 1.00601   1
  -1   6   7 0.01207 1.03612   2
   0  -6  -7 0.21104 1.01521   1
   0  -6  -7 0.43605 0.88234   3
   0   6   7 0.10572 1.10552   2
  -1  -6  -7 15.7371 1.83545   3
   1   6   7 11.0498 2.29817   2
  -2  -6  -7 15.6329 2.24682   3
  -2  -6  -7 11.5021 1.76600   1
   2   6   7 14.0695 2.59961   2
  -3  -6  -7 12.1836 1.99093   3
  -3  -6  -7 19.1595 2.94570   1
   3   6   7 10.9625 2.13100   2
  -4  -6  -7 16.1864 3.67614   1
   4   6   7 16.6282 3.57408   2
   8  -7  -7 53.1560 3.16213   1
  -8   7   7 49.8188 4.87088   3
   7  -7  -7 18.3051 2.30487   1
  -7   7   7 18.8849 3.14336   3
  -7   7   7 17.1863 2.46693   2
   6  -7  -7 108.969 3.64680   1
  -6   7   7 101.071 3.82053   2
  -6   7   7 102.641 4.99626   3
   5  -7  -7 40.6018 2.49735   1
  -5   7   7 40.0715 2.87873   2
   4  -7  -7 72.6614 2.98279   1
  -4   7   7 71.7533 3.64832   3
  -4   7   7 65.2142 3.27558   2
   3  -7  -7 25.4920 1.94317   3
  -3   7   7 23.6407 2.44460   2
   2  -7  -7 10.4243 1.65699   3
   2  -7  -7 9.58878 1.85437   1
   1  -7  -7 51.7086 2.47046   3
   1  -7  -7 47.9313 2.62054   1
  -1   7   7 47.6540 3.06848   2
   0  -7  -7 21.0399 2.18987   3
   0   7   7 16.9905 2.60757   2
  -1  -7  -7 -0.4015 1.22965   3
  -1  -7  -7 1.31227 1.48236   1
   1   7   7 2.05852 1.59150   2
  -2  -7  -7 44.5303 3.41268   1
   2   7   7 41.1308 3.59114   2
  -3  -7  -7 1.46868 2.00139   1
   3   7   7 2.17170 2.20201   2
   7  -8  -7 55.3017 3.01289   1
  -7   8   7 55.9463 5.58534   3
   6  -8  -7 38.1228 2.68094   1
  -6   8   7 38.3338 4.49452   3
  -5   8   7 17.9966 3.64685   3
  -5   8   7 19.8867 2.90829   2
   4  -8  -7 74.9417 3.13149   1
  -4   8   7 80.1390 3.90217   2
   3  -8  -7 5.76629 1.43400   3
   3  -8  -7 4.38352 1.26266   1
  -3   8   7 5.14726 1.70479   2
   2  -8  -7 1.10817 1.23073   3
  -2   8   7 -1.2677 1.49762   2
   1  -8  -7 7.02268 1.52739   3
  -1   8   7 3.58528 1.74484   2
   0  -8  -7 3.47394 1.55654   1
   0  -8  -7 3.46225 1.67343   3
   0   8   7 2.42751 1.82172   2
  -1  -8  -7 -0.9229 1.59812   1
   1   8   7 0.39062 1.74774   2
   2   8   7 -1.5534 2.00579   2
   6  -9  -7 116.687 4.10072   1
  -6   9   7 107.051 6.16681   3
  -6   9   7 107.312 4.93673   2
   5  -9  -7 32.2871 2.87843   1
  -5   9   7 32.6436 4.64951   3
  -5   9   7 29.8811 3.79164   2
   4  -9  -7 2.58982 1.40499   1
  -4   9   7 2.58909 1.94009   2
  -4   9   7 2.90729 2.52323   3
   3  -9  -7 -0.1655 1.31808   1
   3  -9  -7 0.92138 1.54626   3
  -3   9   7 1.10886 1.77625   2
   2  -9  -7 3.86857 1.59234   3
  -2   9   7 0.74976 1.89440   2
  -1   9   7 -2.7905 1.87314   2
   0   9   7 8.99689 2.28500   2
   0  12  -8 7.64829 2.18725   2
   0 -12   8 5.87104 2.18884   3
  -1  12  -8 0.09377 2.09196   2
   1 -12   8 2.44925 2.10562   3
  -2  12  -8 -2.3617 1.87501   2
   2 -12   8 3.16511 1.92594   3
   3  11  -8 1.00381 2.19322   2
  -3 -11   8 2.42781 2.20017   3
   2  11  -8 -2.4541 1.82909   2
  -2 -11   8 1.17825 2.00415   3
   1  11  -8 1.53518 1.70909   2
  -1 -11   8 -0.3787 1.72808   3
   0  11  -8 0.90260 1.66751   2
   0 -11   8 0.26362 1.67306   3
  -1  11  -8 -0.1440 1.62118   2
   1 -11   8 0.59717 1.79632   3
  -2  11  -8 3.96456 1.77374   2
   2 -11   8 7.37833 1.82861   3
  -3  11  -8 3.91655 1.87182   2
   3 -11   8 3.27075 1.80969   3
  -4  11  -8 3.20748 2.01076   2
   4 -11   8 3.03483 1.91272   3
   4  10  -8 40.7155 4.01757   2
  -4 -10   8 40.5209 4.29951   3
   3  10  -8 3.30041 1.93901   2
  -3 -10   8 3.51661 1.98205   3
   2  10  -8 19.2137 2.95245   2
  -2 -10   8 16.7129 2.95941   3
   1  10  -8 0.56302 1.53533   2
  -1 -10   8 -0.2058 1.46491   3
   0  10  -8 12.5013 2.73987   2
   0 -10   8 12.5903 2.59107   3
  -1  10  -8 26.9713 2.98679   2
   1 -10   8 26.0995 2.83856   3
  -2  10  -8 10.5097 1.82688   2
   2 -10   8 6.83200 1.57010   3
  -3  10  -8 6.88157 1.74225   2
   3 -10   8 6.66355 1.65424   3
  -4  10  -8 71.7473 3.92517   2
   4 -10   8 77.6409 3.82109   3
  -5  10  -8 32.0886 5.23128   3
  -5  10  -8 37.8419 3.40748   2
   5   9  -8 3.49355 1.92354   2
  -5  -9   8 4.83732 2.12027   3
   4   9  -8 -1.3036 1.64467   2
  -4  -9   8 -1.4983 1.61878   3
   3   9  -8 1.87791 1.51506   2
  -3  -9   8 1.50600 1.58732   3
   2   9  -8 32.9229 2.90274   2
  -1  -9   8 4.02496 1.38238   3
   0   9  -8 69.7033 3.53370   2
   0  -9   8 74.5666 3.24256   3
  -1   9  -8 67.4977 3.51760   2
   1  -9   8 61.6895 3.09611   3
  -2   9  -8 66.4090 3.55792   2
  -2   9  -8 63.3820 2.49692   1
   2  -9   8 70.2589 3.20018   3
  -3   9  -8 13.2686 2.41006   1
  -3   9  -8 25.4256 2.93090   2
   3  -9   8 21.9734 2.49770   3
  -4   9  -8 58.4946 3.54638   2
  -4   9  -8 57.0310 3.43355   1
   4  -9   8 55.7500 3.12404   3
  -5   9  -8 45.4337 4.96099   3
  -5   9  -8 49.2453 3.37237   2
  -5   9  -8 39.5000 3.73534   1
  -6   9  -8 45.5323 4.38346   1
  -6   9  -8 43.0278 5.80950   3
   6   8  -8 1.60469 1.94742   2
  -6  -8   8 4.22993 2.28267   3
   5   8  -8 -0.1041 1.69473   2
  -5  -8   8 2.98068 1.86470   3
  -4  -8   8 0.03206 1.56573   3
   3   8  -8 59.4031 3.34296   2
  -3  -8   8 54.6241 3.17646   3
   2   8  -8 13.3322 2.39833   2
  -2  -8   8 13.6757 2.09762   3
   0   8  -8 9.34956 1.95319   2
  -1   8  -8 12.2283 2.09484   2
  -1   8  -8 13.6671 1.55489   1
  -2   8  -8 89.8077 2.95229   1
  -2   8  -8 94.0359 3.57134   2
  -3   8  -8 73.2060 3.06313   1
  -3   8  -8 77.4182 3.39415   2
   3  -8   8 76.3255 3.16431   3
  -4   8  -8 118.647 4.12477   2
  -4   8  -8 125.898 4.23627   1
  -4   8  -8 118.246 5.10869   3
  -5   8  -8 56.5410 3.58750   1
  -5   8  -8 59.7329 3.38324   2
  -5   8  -8 55.4416 4.60151   3
  -6   8  -8 24.3881 5.08507   3
  -6   8  -8 28.6052 3.82116   1
   6  -8   8 34.8148 2.82556   1
   7   7  -8 6.43225 2.13797   2
  -7  -7   8 6.44469 2.57333   3
   6   7  -8 2.75536 1.77166   2
  -6  -7   8 4.19434 1.89195   3
   5   7  -8 1.97374 0.76915   1
   5   7  -8 1.87640 1.48493   2
  -5  -7   8 1.79912 1.64446   3
   4   7  -8 8.73657 1.21089   1
   4   7  -8 14.1431 2.47958   2
  -4  -7   8 10.2576 2.41591   3
   2   7  -8 55.3317 1.54231   1
  -2  -7   8 63.1811 2.79639   3
   1   7  -8 214.835 3.65671   1
   1   7  -8 222.553 3.93130   1
  -1  -7   8 230.303 5.15062   3
   0   7  -8 98.1970 3.55129   2
   0   7  -8 94.8014 2.09114   1
   0   7  -8 99.9943 2.50648   1
   0  -7   8 103.473 3.12155   3
  -1   7  -8 2.83725 0.60259   1
  -1   7  -8 3.70824 1.09163   2
  -1   7  -8 4.16703 0.86209   1
   1  -7   8 3.76790 1.01564   3
  -2   7  -8 9.14787 1.90473   2
  -2   7  -8 6.71852 1.11071   1
   2  -7   8 7.25350 1.49335   3
  -3   7  -8 109.409 3.71143   2
  -3   7  -8 109.712 3.59037   1
   3  -7   8 102.661 3.26896   3
  -4   7  -8 229.775 6.43107   3
  -4   7  -8 219.365 5.51801   2
  -4   7  -8 213.161 5.52936   1
  -5   7  -8 46.6250 4.08104   3
  -5   7  -8 47.1713 2.84010   2
  -5   7  -8 48.2551 3.35173   1
   5  -7   8 48.2722 2.59841   1
  -6   7  -8 17.1635 3.49936   1
  -6   7  -8 25.5783 2.73046   2
  -6   7  -8 23.2375 4.52401   3
   6  -7   8 25.7437 2.41545   1
  -7   7  -8 23.7072 5.26869   3
   7  -7   8 26.0162 2.96386   1
  -8  -6   8 0.84828 2.79985   3
   7   6  -8 0.82752 1.03999   1
   7   6  -8 0.83497 1.69044   2
  -7  -6   8 1.23632 2.03120   3
   6   6  -8 0.17716 0.89763   1
   6   6  -8 0.44070 1.36276   2
  -6  -6   8 -1.1911 1.64671   3
   5   6  -8 13.9870 1.46056   1
  -5  -6   8 14.9658 2.61245   3
   4   6  -8 6.76386 1.42682   2
   4   6  -8 9.01377 1.16975   1
   3   6  -8 56.7814 1.94048   1
   3   6  -8 60.4332 2.78632   2
  -3  -6   8 53.6347 2.28415   1
  -3  -6   8 59.0010 2.74837   3
   2   6  -8 220.529 5.38483   2
   2   6  -8 223.054 4.02744   1
  -2  -6   8 216.019 4.95896   3
  -2  -6   8 217.295 4.28515   1
   1   6  -8 150.277 2.89325   1
   1   6  -8 155.755 3.22219   1
  -1  -6   8 154.207 3.79263   3
   0   6  -8 68.5927 2.81578   2
   0   6  -8 63.5292 1.75153   1
   0  -6   8 66.9035 2.32458   3
  -1   6  -8 107.138 3.49460   2
  -1   6  -8 103.557 2.92150   1
   1  -6   8 107.880 2.96341   3
  -2   6  -8 223.841 4.89049   1
  -2   6  -8 220.880 5.28615   2
   2  -6   8 219.496 4.76110   3
  -3   6  -8 90.5833 3.21771   2
  -3   6  -8 86.7628 3.25113   1
  -4   6  -8 52.3230 2.74209   2
  -4   6  -8 55.2543 2.98447   1
  -4   6  -8 57.4334 3.55125   3
  -5   6  -8 41.4525 3.15748   1
  -5   6  -8 42.4447 3.93723   3
  -5   6  -8 38.9624 2.77016   2
   5  -6   8 45.2811 2.34319   1
  -6   6  -8 23.3639 2.64873   2
  -6   6  -8 20.3662 3.84312   3
   6  -6   8 18.1976 2.21824   1
  -7   6  -8 14.5825 3.46523   3
   7  -6   8 21.1631 2.69227   1
  -8  -5   8 7.35385 2.65783   3
   7   5  -8 21.6240 2.02241   1
  -7  -5   8 22.2588 3.36040   3
   6   5  -8 16.6729 1.73867   1
   6   5  -8 15.6555 2.35018   2
  -6  -5   8 13.9580 2.80343   3
   5   5  -8 8.18708 1.40424   2
   5   5  -8 9.49808 1.42479   1
   4   5  -8 101.829 3.36582   2
   4   5  -8 94.2160 2.48867   1
  -4  -5   8 94.3015 3.37468   3
   3   5  -8 6.89175 1.08407   1
   3   5  -8 11.3291 1.64612   2
  -3  -5   8 10.9253 1.78279   1
  -3  -5   8 6.97403 1.52190   3
   2   5  -8 68.6015 2.09577   1
   2   5  -8 67.4894 2.67494   2
  -2  -5   8 67.9499 2.31621   1
  -2  -5   8 72.8317 2.49589   3
   1   5  -8 54.8962 1.97307   1
   1   5  -8 55.4149 2.41694   2
  -1  -5   8 53.8575 2.05078   1
  -1  -5   8 57.0009 2.02053   2
  -1  -5   8 56.2154 2.03884   3
   0   5  -8 262.073 5.04612   1
   0   5  -8 263.739 4.55677   1
   0  -5   8 264.488 5.23377   2
   0  -5   8 265.008 5.09185   3
  -1   5  -8 412.309 7.40001   1
   1  -5   8 410.570 7.24153   3
   1  -5   8 419.298 7.40201   2
  -2   5  -8 330.403 6.49606   1
   2  -5   8 324.754 6.07751   3
   2  -5   8 332.540 6.17972   2
  -3   5  -8 103.120 3.62951   3
  -3   5  -8 102.207 3.45211   1
   3  -5   8 101.484 2.82828   2
  -4   5  -8 20.6199 2.29331   1
  -4   5  -8 21.1822 2.45877   3
   4  -5   8 20.1532 1.45613   2
  -5   5  -8 31.9173 3.19414   3
  -5   5  -8 25.6522 2.76932   1
  -5   5  -8 26.3641 2.39032   2
   5  -5   8 27.4188 1.95306   1
   5  -5   8 26.2088 1.66654   2
  -6   5  -8 21.0631 2.42937   2
  -6   5  -8 21.6004 3.62481   3
   6  -5   8 25.7931 2.24646   1
  -7   5  -8 45.2363 4.94186   3
   7  -5   8 51.1648 3.10068   1
   9   4  -8 23.7117 2.90703   1
  -9  -4   8 14.3295 3.28941   3
  -8  -4   8 -3.2984 2.09757   3
   7   4  -8 0.36185 1.34411   2
   7   4  -8 -0.5513 0.95865   1
   6   4  -8 4.42144 1.18593   2
   6   4  -8 2.48422 0.84340   1
   5   4  -8 130.582 3.15550   1
   5   4  -8 132.183 3.78687   2
  -5  -4   8 129.507 4.07927   3
   4   4  -8 301.895 6.34066   2
   4   4  -8 298.855 5.46153   1
  -4  -4   8 297.977 6.27089   3
   3   4  -8 57.2000 2.37662   2
   3   4  -8 52.8405 1.88283   1
  -3  -4   8 53.7246 1.94597   2
  -3  -4   8 55.1835 2.17390   3
   2   4  -8 81.2110 2.30834   1
  -2  -4   8 81.4604 2.49760   1
  -2  -4   8 82.2242 2.40722   3
  -2  -4   8 83.3194 2.40195   2
   1   4  -8 4.25971 0.75291   1
   1   4  -8 3.17362 0.78176   3
  -1  -4   8 2.62458 0.85122   1
  -1  -4   8 2.90024 0.62755   2
   0   4  -8 219.505 4.32618   3
   0   4  -8 217.203 4.50407   1
   0  -4   8 228.293 4.20018   3
   0  -4   8 219.990 4.47339   2
  -1   4  -8 478.899 8.03348   3
  -1   4  -8 485.017 8.39402   1
   1  -4   8 484.154 8.24276   2
   1  -4   8 468.841 8.07044   3
  -2   4  -8 492.635 8.86112   1
  -2   4  -8 486.521 8.37370   3
  -2   4  -8 504.600 8.85189   3
   2  -4   8 493.114 8.45980   2
  -3   4  -8 111.807 3.61510   1
  -3   4  -8 109.864 3.44248   3
   3  -4   8 108.865 2.87307   2
  -4   4  -8 6.14176 1.45878   3
  -4   4  -8 4.75890 1.26592   1
   4  -4   8 6.93764 1.20657   2
  -5   4  -8 30.3675 2.90402   3
  -5   4  -8 24.7614 2.73911   1
   5  -4   8 33.4249 2.06816   1
   5  -4   8 29.4271 1.69379   2
  -6   4  -8 19.6869 3.13193   1
  -6   4  -8 16.9994 3.41880   3
   6  -4   8 19.7008 1.74892   2
   6  -4   8 24.9008 2.19484   1
  -7   4  -8 25.4942 4.71629   3
   7  -4   8 33.2102 2.75076   1
   9   3  -8 -1.3030 1.37619   1
  -9  -3   8 -4.8879 2.47417   3
  -8  -3   8 29.5148 3.67446   3
   7   3  -8 58.5836 2.80279   2
   7   3  -8 60.2459 2.55418   1
  -7  -3   8 54.6140 3.59919   3
   6   3  -8 9.86751 1.48148   1
   6   3  -8 9.45419 1.89436   2
  -6  -3   8 7.85453 1.65306   3
   5   3  -8 101.591 3.23367   2
   5   3  -8 105.003 2.85897   1
  -5  -3   8 104.016 3.45310   3
   4   3  -8 231.293 5.25638   2
   4   3  -8 241.833 4.69754   1
  -4  -3   8 242.113 4.73426   2
  -4  -3   8 237.464 5.16208   3
   3   3  -8 211.523 4.70790   3
   3   3  -8 213.178 4.29615   1
  -3  -3   8 219.299 4.47254   3
  -3  -3   8 216.755 4.37029   2
   2   3  -8 184.375 3.90862   1
   2   3  -8 185.434 3.94964   3
  -2  -3   8 189.156 3.73646   3
  -2  -3   8 187.995 3.93502   2
   1   3  -8 10.2356 1.10554   1
   1   3  -8 11.8051 1.13020   3
  -1  -3   8 11.0194 0.82872   3
  -1  -3   8 11.6249 0.97071   2
   0   3  -8 641.309 9.86564   3
   0   3  -8 620.655 10.2318   1
   0  -3   8 614.943 9.69570   3
   0  -3   8 634.383 10.2892   2
  -1   3  -8 228.176 4.12955   3
  -1   3  -8 229.741 4.90142   1
   1  -3   8 220.371 4.52215   2
  -2   3  -8 2.62807 0.81847   1
  -2   3  -8 0.91032 0.61927   3
  -2   3  -8 2.42670 0.77120   3
   2  -3   8 2.23040 0.61785   2
  -3   3  -8 37.6435 2.19172   3
  -3   3  -8 38.3510 1.86843   3
  -3   3  -8 38.2035 2.38128   1
   3  -3   8 37.4288 1.70441   2
  -4   3  -8 282.850 6.53537   1
  -4   3  -8 273.054 6.23962   3
   4  -3   8 286.523 5.47051   2
  -5   3  -8 109.964 4.25401   3
  -5   3  -8 104.674 4.16580   1
   5  -3   8 106.842 2.95463   2
  -6   3  -8 0.67526 1.57930   1
  -6   3  -8 4.48548 2.19862   3
   6  -3   8 2.46648 1.00016   2
   6  -3   8 2.56873 1.06908   1
  -7   3  -8 1.31332 1.92396   1
   7  -3   8 3.71448 1.40562   1
   9   2  -8 -1.5056 1.20022   1
  -9  -2   8 -2.9950 2.33382   3
   8   2  -8 3.71029 1.36472   1
  -8  -2   8 1.93263 2.00403   3
   7   2  -8 11.8343 1.72573   1
   7   2  -8 13.8452 1.96288   2
  -7  -2   8 10.5462 1.93121   3
   6   2  -8 96.7594 3.09612   2
   6   2  -8 94.7755 2.85031   1
  -6  -2   8 92.8472 3.66133   3
   5   2  -8 377.537 6.79733   1
  -5  -2   8 370.707 7.46295   3
  -5  -2   8 376.603 6.60012   2
   4   2  -8 281.309 5.34807   1
  -4  -2   8 273.905 5.16887   2
  -4  -2   8 272.916 5.53466   3
   3   2  -8 104.376 2.80203   1
   3   2  -8 105.587 2.86146   3
  -3  -2   8 103.989 2.63262   2
  -3  -2   8 106.857 2.63768   3
   2   2  -8 124.905 3.12111   1
   2   2  -8 130.264 2.89990   3
  -2  -2   8 128.571 3.05109   2
  -2  -2   8 131.383 2.66718   3
   1   2  -8 332.138 6.11791   1
  -1  -2   8 329.731 5.26541   3
   0   2  -8 438.103 7.69773   1
   0  -2   8 435.826 7.57867   2
  -1   2  -8 81.2779 1.79132   3
  -1   2  -8 84.4011 2.01818   3
  -1   2  -8 81.1443 2.70759   1
   1  -2   8 82.4701 2.35888   2
  -2   2  -8 121.840 2.87901   3
  -2   2  -8 119.559 2.56626   3
  -2   2  -8 118.358 3.51518   1
   2  -2   8 120.500 3.00757   2
  -3   2  -8 12.1380 1.83159   1
  -3   2  -8 9.71491 1.37274   3
   3  -2   8 11.8864 1.20121   2
  -4   2  -8 1.64050 1.14135   3
  -4   2  -8 0.21953 1.06226   1
   4  -2   8 0.78406 0.69260   2
  -5   2  -8 57.5168 3.52919   3
  -5   2  -8 53.7238 3.36145   1
   5  -2   8 56.2281 2.28274   2
  -6   2  -8 43.8688 3.90654   3
  -6   2  -8 38.2333 3.54073   1
   6  -2   8 40.7996 2.19550   2
  -7   2  -8 1.42637 1.97577   1
   9   1  -8 11.1060 2.39709   1
  -9  -1   8 10.8043 2.74661   3
   8   1  -8 14.5275 2.11724   1
   7   1  -8 2.11433 1.00875   2
   7   1  -8 1.23698 0.88185   1
   6   1  -8 201.433 4.48970   1
  -6  -1   8 191.395 3.92130   2
  -6  -1   8 190.523 5.16656   3
   5   1  -8 163.063 3.82896   1
  -5  -1   8 159.510 4.13440   3
  -5  -1   8 154.737 3.39282   2
   4   1  -8 132.079 3.30410   1
   4   1  -8 127.637 3.53683   3
  -4  -1   8 130.717 3.30418   3
  -4  -1   8 129.979 3.02001   2
   3   1  -8 208.957 4.20372   3
   3   1  -8 208.786 4.40194   1
  -3  -1   8 207.271 4.19128   2
  -3  -1   8 210.099 3.99791   3
   2   1  -8 117.482 3.05294   1
  -2  -1   8 110.289 2.77627   2
  -2  -1   8 110.395 2.16998   3
   1   1  -8 530.658 8.91473   1
  -1  -1   8 518.726 8.87222   2
   0   1  -8 866.965 13.7826   1
   0  -1   8 877.580 13.8094   2
  -1   1  -8 24.1627 1.70838   1
   1  -1   8 22.4291 1.36748   2
  -2   1  -8 20.3971 1.67602   1
  -2   1  -8 20.7838 1.23347   3
  -2   1  -8 21.9698 1.01624   3
   2  -1   8 21.6553 1.40680   2
  -3   1  -8 142.501 3.39682   3
  -3   1  -8 128.686 2.98019   3
   3  -1   8 138.371 3.42551   2
  -4   1  -8 96.5095 3.27241   3
   4  -1   8 96.5324 2.90325   2
  -5   1  -8 14.7250 2.60122   3
   5  -1   8 14.0901 1.72034   2
  -6   1  -8 22.2652 3.45353   3
  -6   1  -8 24.1597 3.37657   1
   6  -1   8 25.8735 2.16257   2
  -7   1  -8 4.01794 2.20998   1
   9   0  -8 44.8677 2.94832   1
  -9   0   8 44.1844 4.50347   3
   8   0  -8 108.368 3.59910   1
  -8   0   8 112.392 4.92016   3
   7   0  -8 31.7875 2.01886   2
   7   0  -8 32.6016 2.06912   1
   6   0  -8 162.172 4.05279   1
  -6   0   8 163.701 3.43006   2
  -6   0   8 162.964 4.69266   3
   5   0  -8 117.736 3.19067   1
  -5   0   8 112.055 3.43577   3
  -5   0   8 119.311 2.81287   2
   4   0  -8 130.307 3.31883   3
   4   0  -8 126.917 3.32403   1
  -4   0   8 127.026 2.99576   2
   3   0  -8 2.34192 0.66488   1
   3   0  -8 4.33936 0.97121   3
  -3   0   8 2.55785 0.62926   2
  -3   0   8 3.18956 0.65705   3
   2   0  -8 173.570 3.97148   1
  -2   0   8 169.619 3.74246   2
   1   0  -8 833.186 13.3648   1
  -1   0   8 855.373 13.4603   2
   0   0  -8 130.909 3.44485   1
   0   0   8 127.420 3.15999   2
  -1   0  -8 67.7985 2.63994   1
   1   0   8 73.8354 2.37091   2
  -2   0  -8 17.8862 1.73755   1
  -2   0  -8 17.6679 1.05511   3
   2   0   8 19.0699 1.47130   2
  -3   0  -8 1.34800 0.76390   3
  -3   0  -8 1.14742 0.81475   3
   3   0   8 0.91245 0.74913   2
  -4   0  -8 0.52467 1.14570   1
  -4   0  -8 -0.5867 1.10313   3
   4   0   8 0.50914 0.93694   2
  -5   0  -8 34.6278 2.82512   3
  -5   0  -8 38.3083 3.16659   1
   5   0   8 34.4705 2.29378   2
  -6   0  -8 3.49930 2.03446   3
  -6   0  -8 2.16145 1.77915   1
  -7   0  -8 21.6487 4.25217   1
  -7   0  -8 35.0642 4.82666   3
  10  -1  -8 21.9988 2.91099   1
 -10   1   8 12.1322 3.48358   3
   9  -1  -8 41.5799 2.83030   1
  -9   1   8 45.3029 4.76834   3
   8  -1  -8 63.6294 2.91044   1
  -8   1   8 65.3419 4.29645   3
   7  -1  -8 242.971 5.36220   1
  -7   1   8 232.891 6.27086   3
  -7   1   8 241.391 4.46947   2
  -6   1   8 363.240 7.73886   3
  -6   1   8 377.032 6.47786   2
   5  -1  -8 2.29074 0.76195   1
  -5   1   8 1.30302 1.12523   3
  -5   1   8 1.86072 0.63270   2
   4  -1  -8 114.461 3.14169   1
  -4   1   8 107.941 2.80828   2
  -4   1   8 115.092 3.00976   3
  -4   1   8 113.958 2.59930   3
   3  -1  -8 244.465 5.11903   1
  -3   1   8 253.575 4.47866   3
  -3   1   8 247.727 4.90335   2
  -3   1   8 242.293 4.18122   3
   2  -1  -8 260.639 5.35132   1
  -2   1   8 266.427 5.23310   2
   1  -1  -8 175.385 4.13880   1
  -1   1   8 179.819 4.04844   2
   0  -1  -8 1.12642 0.64789   1
   0   1   8 0.94938 0.58669   2
  -1  -1  -8 1.90601 0.77748   1
   1   1   8 2.80794 0.81456   2
  -2  -1  -8 15.3139 1.79553   1
   2   1   8 13.7747 1.48670   2
  -3  -1  -8 57.3840 2.11518   3
   3   1   8 58.1421 2.46469   2
  -4  -1  -8 10.3960 2.02710   3
  -4  -1  -8 15.9393 2.46675   1
   4   1   8 12.2257 1.93432   2
  -5  -1  -8 8.42400 1.82111   3
  -5  -1  -8 7.67387 1.90062   1
  -6  -1  -8 -5.6619 1.96737   3
  -6  -1  -8 1.73918 2.04662   1
   6   1   8 1.35365 1.41452   2
   9  -2  -8 37.1044 2.75504   1
  -9   2   8 32.2934 4.43688   3
   8  -2  -8 57.5988 2.78634   1
  -8   2   8 52.9029 4.13253   3
   7  -2  -8 29.5236 2.10636   1
  -7   2   8 28.3272 1.56917   2
  -7   2   8 25.9528 3.05893   3
  -6   2   8 136.400 3.21047   2
  -6   2   8 139.737 4.43121   3
  -5   2   8 322.754 6.01775   2
  -5   2   8 327.937 6.71751   3
   4  -2  -8 341.966 6.61639   1
  -4   2   8 348.540 6.59728   3
  -4   2   8 338.882 5.97317   3
  -4   2   8 349.744 6.39185   2
   3  -2  -8 3.75126 0.83722   1
  -3   2   8 6.07193 1.04452   3
  -3   2   8 2.27953 0.73518   2
  -3   2   8 3.55524 0.60451   3
   2  -2  -8 67.2395 2.45987   1
  -2   2   8 67.8100 2.41552   2
   1  -2  -8 120.065 3.38734   1
  -1   2   8 124.415 3.35617   2
   0  -2  -8 8.69010 1.43842   1
   0   2   8 10.5812 1.35676   2
  -1  -2  -8 26.5879 1.97881   1
   1   2   8 26.9960 1.79875   2
  -2  -2  -8 5.41503 1.00819   3
  -2  -2  -8 5.30478 1.07852   1
   2   2   8 6.15103 1.16148   2
   2   2   8 6.31694 1.05569   3
  -3  -2  -8 1.85580 0.91500   3
  -3  -2  -8 1.73830 1.15054   1
  -4  -2  -8 15.5602 2.45167   1
  -4  -2  -8 14.3851 2.13897   3
   4   2   8 11.4391 2.06414   2
  -5  -2  -8 7.69878 1.96581   3
  -5  -2  -8 8.35391 2.05998   1
   5   2   8 5.87215 1.56051   2
  -6  -2  -8 14.0085 2.61675   1
   6   2   8 25.0430 3.15789   2
   9  -3  -8 20.4571 2.64600   1
  -9   3   8 20.0557 4.49447   3
   8  -3  -8 38.9943 2.50548   1
  -8   3   8 44.5897 4.28910   3
  -7   3   8 103.696 2.76731   2
   6  -3  -8 21.8994 1.92391   1
  -6   3   8 18.3351 1.53183   2
  -6   3   8 19.7923 2.49433   3
  -5   3   8 39.6237 2.56205   3
  -5   3   8 40.8981 1.93344   2
   4  -3  -8 260.658 5.51686   1
  -4   3   8 262.886 5.39283   2
  -4   3   8 266.294 5.50220   3
  -4   3   8 254.284 4.88288   3
   3  -3  -8 150.966 3.89022   1
  -3   3   8 158.724 3.15496   3
  -3   3   8 159.505 3.49600   3
  -3   3   8 161.087 3.94335   2
   2  -3  -8 16.8600 1.47205   1
  -2   3   8 17.2430 1.58758   2
   1  -3  -8 8.19872 1.43759   1
  -1   3   8 10.7014 1.53918   2
   0  -3  -8 0.64484 0.78557   1
  -1  -3  -8 71.6938 2.88864   1
   1   3   8 57.0408 3.00792   2
  -2  -3  -8 0.45967 0.69235   3
  -3  -3  -8 19.0012 1.87851   3
  -3  -3  -8 21.3055 2.56911   1
   3   3   8 18.8205 2.34480   2
  -4  -3  -8 16.1428 2.20636   3
  -4  -3  -8 14.3040 2.81008   1
   4   3   8 13.5803 2.41654   2
  -5  -3  -8 -0.9535 1.72629   1
   5   3   8 2.14948 1.69990   2
   9  -4  -8 20.1109 2.64913   1
  -9   4   8 19.2412 3.44082   3
   8  -4  -8 77.5032 3.25964   1
   7  -4  -8 78.6463 3.04662   1
  -7   4   8 77.0953 2.55411   2
   6  -4  -8 118.398 3.65289   1
  -6   4   8 120.143 3.30309   2
  -6   4   8 113.266 4.26929   3
  -5   4   8 129.761 4.01530   3
  -5   4   8 129.072 3.53209   2
   4  -4  -8 17.3610 1.65766   1
  -4   4   8 16.5716 1.67835   2
  -4   4   8 17.0214 1.98094   3
   3  -4  -8 21.5944 1.77848   1
  -3   4   8 24.3950 1.88050   2
  -3   4   8 24.0087 1.54288   3
  -3   4   8 21.2437 1.69348   3
   2  -4  -8 75.7341 2.72201   1
  -2   4   8 73.6231 2.22776   3
  -2   4   8 72.6131 2.86840   2
  -2   4   8 73.1250 2.06315   3
   1  -4  -8 206.997 3.65728   3
   1  -4  -8 205.666 4.90314   1
  -1   4   8 202.078 3.92971   3
   0  -4  -8 0.89167 0.93547   1
   0  -4  -8 1.02203 0.58096   3
  -1  -4  -8 151.143 3.20741   3
   1   4   8 152.467 4.48179   2
  -2  -4  -8 94.6329 3.77700   1
  -2  -4  -8 98.4935 2.77702   3
   2   4   8 98.2235 3.79657   2
  -3  -4  -8 3.73806 1.25647   3
  -3  -4  -8 3.96978 1.45390   1
  -4  -4  -8 0.22376 1.68904   1
   4   4   8 3.44005 1.74950   2
  -5  -4  -8 4.35765 2.32639   1
   5   4   8 5.71446 2.15149   2
   9  -5  -8 27.3653 2.98720   1
  -9   5   8 22.3484 4.79504   3
   8  -5  -8 62.5359 3.14532   1
  -8   5   8 68.6900 4.82599   3
   7  -5  -8 17.8597 2.21111   1
  -7   5   8 21.6215 2.00575   2
  -7   5   8 16.4636 3.45831   3
   6  -5  -8 34.7142 2.35002   1
  -6   5   8 32.2985 2.21326   2
  -6   5   8 36.2027 3.19347   3
   5  -5  -8 66.7777 2.75880   1
  -5   5   8 69.9115 2.78205   2
  -5   5   8 72.1157 3.49541   3
  -4   5   8 2.13462 1.34620   3
  -4   5   8 2.03800 1.10467   2
   3  -5  -8 12.9169 1.58542   1
  -3   5   8 16.3246 1.92130   2
  -3   5   8 17.2566 1.96281   3
   2  -5  -8 4.00943 0.96996   1
  -2   5   8 3.54443 1.12500   2
   1  -5  -8 2.50674 0.74389   3
   1  -5  -8 0.76083 0.93891   1
  -1   5   8 1.82401 1.04792   2
  -1  -5  -8 9.39776 1.47231   3
   1   5   8 8.77371 1.68650   2
  -2  -5  -8 85.1002 3.80776   1
  -2  -5  -8 87.0017 2.91827   3
   2   5   8 94.2180 3.96709   2
  -3  -5  -8 45.7620 3.60048   1
   3   5   8 46.0685 3.38118   2
  -4  -5  -8 0.73136 1.92871   1
   4   5   8 0.29144 1.88938   2
   8  -6  -8 67.2394 3.30475   1
  -8   6   8 72.2739 5.22866   3
   7  -6  -8 2.58140 1.15769   1
  -7   6   8 4.28613 1.42111   2
  -7   6   8 2.18573 2.24620   3
   6  -6  -8 2.38027 1.11986   1
  -6   6   8 1.95201 1.21907   2
   5  -6  -8 4.07225 1.23760   1
  -5   6   8 3.29875 1.29440   2
  -5   6   8 5.19800 1.86348   3
   4  -6  -8 0.72041 0.94008   1
  -4   6   8 2.57318 1.51052   3
  -4   6   8 -0.9285 1.08589   2
  -3   6   8 46.7948 2.77575   3
  -3   6   8 48.4423 2.86589   2
   2  -6  -8 1.48297 0.83876   3
  -2   6   8 0.73648 1.25215   2
   1  -6  -8 4.92532 1.06806   3
   0  -6  -8 132.796 3.33719   3
   0  -6  -8 128.051 4.30587   1
   0   6   8 132.908 4.64073   2
  -1  -6  -8 92.3913 3.69583   1
   1   6   8 91.6932 3.97897   2
   2   6   8 3.05574 1.77797   2
  -3  -6  -8 2.57093 1.88892   1
   3   6   8 -2.3953 1.84582   2
   7  -7  -8 5.55273 1.48316   1
  -7   7   8 9.39901 1.83429   2
  -7   7   8 7.54260 2.83604   3
   6  -7  -8 11.4202 2.41810   1
  -6   7   8 8.27054 1.77881   2
  -6   7   8 11.6552 2.81842   3
  -5   7   8 2.80535 1.52442   2
   4  -7  -8 -0.0216 1.04595   1
  -4   7   8 1.26083 1.76777   3
   3  -7  -8 1.23005 1.18692   1
  -3   7   8 3.26127 1.39969   2
  -3   7   8 2.38266 1.67834   3
   2  -7  -8 15.8597 2.17060   1
   2  -7  -8 15.2869 1.83437   3
  -2   7   8 10.4083 2.45308   2
   1  -7  -8 19.3168 2.42531   1
   1  -7  -8 17.1582 1.97823   3
  -1   7   8 16.1863 2.56128   2
   0  -7  -8 54.0754 3.32360   1
   0   7   8 53.3072 3.43240   2
  -1  -7  -8 16.3025 3.01510   1
   1   7   8 16.3807 3.14385   2
  -2  -7  -8 9.77043 2.11635   1
   2   7   8 11.3634 2.27509   2
   6  -8  -8 0.84212 1.44488   1
  -6   8   8 5.04585 2.77252   3
  -6   8   8 0.38315 1.86193   2
   5  -8  -8 21.3947 2.72790   1
  -5   8   8 20.8336 4.11853   3
  -5   8   8 15.6121 2.41878   2
   4  -8  -8 4.53786 1.53565   1
  -4   8   8 5.15346 1.82150   2
   3  -8  -8 8.48189 1.56198   1
  -3   8   8 10.6973 2.09571   2
  -3   8   8 6.28576 2.06770   3
   2  -8  -8 27.1175 2.74638   1
  -2   8   8 25.0651 3.09787   2
   1  -8  -8 3.07248 1.58140   1
  -1   8   8 3.27809 1.84052   2
   0   8   8 19.2418 3.37430   2
   1   8   8 29.0645 3.78410   2
   4  -9  -8 54.4509 3.47801   1
  -4   9   8 53.8396 4.12921   2
   3  -9  -8 79.1093 3.71201   1
  -3   9   8 72.3769 4.64020   2
  -2   9   8 30.8497 3.65490   2
   2  11  -9 18.8335 3.73639   2
  -2 -11   9 31.4309 4.06455   3
   1  11  -9 16.9659 3.35089   2
  -1 -11   9 17.0250 3.23072   3
   0  11  -9 18.3809 3.46485   2
   0 -11   9 23.2914 3.36750   3
  -1  11  -9 28.6791 3.58937   2
   1 -11   9 29.4556 3.34718   3
  -2  11  -9 38.1652 3.56093   2
   2 -11   9 34.9980 3.27314   3
  -3  11  -9 40.1193 3.93694   2
   3 -11   9 45.2933 3.82591   3
   4  10  -9 7.16719 2.22485   2
  -4 -10   9 8.56761 2.49079   3
   3  10  -9 0.47553 1.81962   2
  -3 -10   9 -0.0595 1.87144   3
   2  10  -9 69.4521 4.14990   2
  -2 -10   9 71.1193 4.13257   3
   1  10  -9 53.1083 3.65168   2
  -1 -10   9 44.3268 3.44593   3
   0  10  -9 80.6337 4.12471   2
   0 -10   9 75.7565 3.79098   3
  -1  10  -9 30.5695 3.29483   2
   1 -10   9 24.8984 2.92594   3
  -2  10  -9 20.7578 3.40649   2
   2 -10   9 16.3480 2.73566   3
  -3  10  -9 46.6924 3.77101   2
   3 -10   9 42.1944 3.34856   3
  -4  10  -9 59.8382 4.08216   2
   4 -10   9 65.7748 3.82815   3
  -5  10  -9 78.7751 6.54591   3
  -5  10  -9 77.6502 4.37532   2
   5   9  -9 25.2394 3.67979   2
  -5  -9   9 27.1943 3.87296   3
   4   9  -9 16.6145 3.17025   2
  -4  -9   9 7.44129 2.06014   3
   3   9  -9 6.56683 1.81141   2
  -3  -9   9 5.12701 1.80375   3
   2   9  -9 29.9214 3.23323   2
  -2  -9   9 22.8795 3.10704   3
   1   9  -9 43.6805 3.38886   2
  -1  -9   9 45.7821 3.04666   3
   0   9  -9 105.385 4.23496   2
   0  -9   9 115.092 3.98259   3
   1  -9   9 12.2757 2.29152   3
  -2   9  -9 36.3108 2.47429   1
   2  -9   9 32.1336 2.57449   3
  -3   9  -9 116.952 4.08539   1
  -4   9  -9 36.6187 3.88869   2
  -4   9  -9 41.1049 4.53263   3
  -4   9  -9 43.0153 3.48376   1
  -5   9  -9 0.83863 2.82907   3
  -5   9  -9 6.26347 2.24126   1
  -5   9  -9 15.1073 3.44475   2
   6   8  -9 24.7101 3.80591   2
  -6  -8   9 23.2369 4.03518   3
   5   8  -9 35.0097 3.54997   2
  -5  -8   9 29.6242 3.64629   3
   4   8  -9 20.7492 3.03599   2
  -4  -8   9 28.8613 3.04038   3
  -3  -8   9 100.680 4.05803   3
   2   8  -9 86.8193 3.72476   2
  -2  -8   9 78.8102 3.39156   3
   0   8  -9 21.3163 1.71621   1
   0   8  -9 18.7290 2.41349   2
  -1   8  -9 25.7970 2.06362   1
  -1   8  -9 32.6343 2.63225   2
  -2   8  -9 136.798 3.88847   1
  -2   8  -9 137.639 4.50769   2
  -3   8  -9 88.2223 3.72336   2
  -3   8  -9 82.4169 3.43838   1
   3  -8   9 86.5409 3.29772   3
  -4   8  -9 17.5461 3.71677   3
  -4   8  -9 16.6546 2.79007   2
  -4   8  -9 17.8265 2.95703   1
  -5   8  -9 17.6361 3.60157   1
  -5   8  -9 21.7677 3.10104   2
  -5   8  -9 16.2955 3.01496   3
  -6   8  -9 2.38718 3.07515   3
  -6   8  -9 -1.4770 2.14087   1
   7   7  -9 0.96906 2.09626   2
  -7  -7   9 -0.2432 2.42561   3
   6   7  -9 6.63457 1.82758   2
  -6  -7   9 7.35191 2.06007   3
   5   7  -9 18.7888 2.92821   2
  -5  -7   9 14.6427 2.84531   3
   4   7  -9 124.080 4.42796   2
   4   7  -9 119.277 2.79225   1
  -4  -7   9 118.522 4.36613   3
   3   7  -9 200.741 5.48803   2
   2   7  -9 79.5773 2.16756   1
   2   7  -9 80.9442 3.41521   2
  -2  -7   9 78.8630 3.12319   3
  -1  -7   9 51.3535 2.49216   3
   0   7  -9 21.3201 2.25728   2
   0   7  -9 19.4037 1.67707   1
   0   7  -9 21.4660 1.38936   1
   0  -7   9 19.9979 1.81430   3
  -1   7  -9 66.7913 3.23727   2
  -1   7  -9 64.1017 2.46693   1
   1  -7   9 66.9952 2.59033   3
  -2   7  -9 175.046 4.41687   1
  -2   7  -9 168.634 4.95670   2
   2  -7   9 173.940 4.31506   3
  -3   7  -9 103.544 3.94801   2
  -3   7  -9 102.996 3.69472   1
   3  -7   9 98.6267 3.32409   3
  -4   7  -9 1.13513 1.82770   3
  -4   7  -9 2.18960 1.41883   2
  -4   7  -9 1.68970 1.58581   1
  -5   7  -9 1.74990 2.12558   3
  -5   7  -9 4.88489 1.63958   2
  -6   7  -9 11.4053 2.24879   1
  -6   7  -9 16.1699 3.17475   3
   7   6  -9 14.2451 2.19721   2
   7   6  -9 14.8078 2.18343   1
  -7  -6   9 16.8441 3.69720   3
   6   6  -9 38.2867 2.18997   1
   6   6  -9 36.7813 3.26191   2
  -6  -6   9 40.4692 3.48984   3
   5   6  -9 4.59640 1.47722   2
   5   6  -9 3.56572 0.90642   1
  -5  -6   9 3.90295 1.55589   3
   4   6  -9 48.9970 1.91120   1
   3   6  -9 67.3125 2.13302   1
  -3  -6   9 71.7005 2.91525   3
   2   6  -9 208.496 4.07418   1
   2   6  -9 197.454 5.30937   2
  -2  -6   9 192.774 4.32469   1
  -2  -6   9 208.896 4.78742   3
   1   6  -9 319.282 5.82037   1
  -1  -6   9 321.316 6.33364   3
   0   6  -9 36.1612 1.92701   1
   0   6  -9 37.0737 2.37995   2
   0  -6   9 37.5060 1.89833   3
  -1   6  -9 40.0821 2.19768   1
  -1   6  -9 40.1447 2.41308   2
   1  -6   9 37.6527 1.91946   3
   1  -6   9 41.3945 1.96539   2
  -2   6  -9 45.4265 2.58180   2
  -2   6  -9 45.8313 2.43521   1
   2  -6   9 44.0506 2.01840   2
   2  -6   9 46.2098 2.13995   3
  -3   6  -9 37.8498 2.49836   2
  -3   6  -9 30.3257 2.65359   3
  -3   6  -9 33.5771 2.54737   1
   3  -6   9 36.6451 1.94383   2
  -4   6  -9 4.61714 1.46628   1
  -4   6  -9 5.53941 1.75317   3
  -4   6  -9 5.31648 1.45544   2
  -5   6  -9 45.5299 3.91366   3
  -5   6  -9 38.3485 2.93885   2
  -6   6  -9 3.71762 1.74033   2
  -6   6  -9 1.58592 1.90994   1
  -7   6  -9 2.51518 3.24137   3
  -7   6  -9 0.52656 2.24859   1
   8   5  -9 15.6606 2.60296   1
  -8  -5   9 12.0456 2.70775   3
   7   5  -9 58.2575 2.69547   1
  -7  -5   9 54.4513 4.13529   3
   6   5  -9 65.1372 2.59355   1
  -6  -5   9 67.4285 3.76377   3
   5   5  -9 9.99241 1.56174   1
   5   5  -9 13.2345 2.26090   2
   4   5  -9 125.481 4.08274   2
   4   5  -9 128.591 3.11222   1
  -4  -5   9 131.455 3.84073   3
   3   5  -9 58.1393 2.09375   1
   3   5  -9 58.6976 2.77395   2
  -3  -5   9 58.8518 2.48762   3
   2   5  -9 66.7903 2.86221   2
   2   5  -9 63.7764 2.20301   1
  -2  -5   9 63.7845 2.38690   3
  -2  -5   9 65.5876 2.32465   2
   1   5  -9 81.3304 2.51373   1
  -1  -5   9 82.8698 2.57120   2
  -1  -5   9 82.2923 2.51683   3
   0   5  -9 189.054 4.28764   1
   0  -5   9 195.091 4.04704   3
   0  -5   9 190.090 4.26909   2
  -1   5  -9 275.175 5.67502   1
   1  -5   9 277.068 5.50793   2
   1  -5   9 271.719 5.22474   3
  -2   5  -9 -0.8789 0.87032   1
   2  -5   9 0.61384 0.66941   2
   2  -5   9 0.42481 0.73868   3
  -3   5  -9 2.93510 1.35974   3
  -3   5  -9 1.67612 1.07523   1
   3  -5   9 1.33775 0.74781   2
  -4   5  -9 4.89825 1.70247   3
  -4   5  -9 4.53503 1.44566   1
   4  -5   9 5.13779 0.95754   2
  -5   5  -9 8.33593 2.10025   3
   5  -5   9 10.1972 1.57665   2
  -6   5  -9 1.93683 1.94305   1
  -6   5  -9 -1.1848 2.25352   3
  -6   5  -9 1.29874 1.67874   2
  -7   5  -9 -0.5882 2.29186   1
  -7   5  -9 0.97789 2.93205   3
   8   4  -9 33.0061 2.74055   1
  -8  -4   9 20.4914 4.02413   3
   7   4  -9 47.5033 3.10152   2
   7   4  -9 44.5210 2.38735   1
  -7  -4   9 39.7730 3.84463   3
   6   4  -9 41.1489 2.18794   1
   6   4  -9 46.3105 2.88715   2
  -6  -4   9 44.9968 3.29406   3
   5   4  -9 109.413 2.99688   1
   5   4  -9 104.409 3.67095   2
  -5  -4   9 101.183 3.68961   3
   4   4  -9 138.198 4.02315   2
   4   4  -9 137.016 3.36067   1
  -4  -4   9 137.607 3.84583   3
   3   4  -9 42.9292 1.87964   1
  -3  -4   9 44.1032 1.99114   3
  -3  -4   9 44.0694 1.85351   2
   2   4  -9 356.611 6.97691   3
   2   4  -9 363.452 6.59693   1
  -2  -4   9 374.571 6.82747   2
  -2  -4   9 382.434 6.65529   3
   1   4  -9 68.8783 2.35961   1
   1   4  -9 69.1346 2.37586   3
  -1  -4   9 69.1291 2.24744   2
   0   4  -9 60.2378 2.07406   3
   0   4  -9 61.2867 2.37290   1
   0  -4   9 62.7572 2.13126   2
   0  -4   9 59.4977 1.77804   3
  -1   4  -9 43.3656 2.19321   1
  -1   4  -9 41.2797 1.84803   3
   1  -4   9 42.1034 1.61276   3
   1  -4   9 46.0206 1.84811   2
  -2   4  -9 213.641 5.05502   1
  -2   4  -9 214.578 4.81034   3
  -2   4  -9 202.590 4.35362   3
   2  -4   9 208.004 4.50721   2
  -3   4  -9 85.7175 3.37277   1
  -3   4  -9 85.1873 3.22218   3
   3  -4   9 90.2862 2.64474   2
  -4   4  -9 17.6800 2.53290   1
  -4   4  -9 16.5148 2.42035   3
   4  -4   9 16.2436 1.59167   2
  -5   4  -9 3.77126 1.68655   1
  -5   4  -9 8.82048 2.00689   3
   5  -4   9 10.5473 1.61827   2
  -6   4  -9 16.2991 2.76533   3
  -6   4  -9 23.0109 3.50377   1
   6  -4   9 15.8896 1.94419   2
  -7   4  -9 3.58953 2.36332   1
  -7   4  -9 5.48508 3.37314   3
   9   3  -9 14.8986 2.66759   1
  -9  -3   9 15.5501 3.32575   3
   8   3  -9 22.0444 2.50727   1
  -8  -3   9 17.7815 2.80013   3
   7   3  -9 48.9071 2.72317   2
   7   3  -9 41.9256 2.41257   1
  -7  -3   9 34.6239 3.29470   3
   6   3  -9 57.0907 2.84434   2
   6   3  -9 55.2192 2.35380   1
  -6  -3   9 48.3010 2.89153   3
   5   3  -9 172.341 4.48299   2
   5   3  -9 172.312 4.02090   1
  -5  -3   9 172.190 4.57440   3
   4   3  -9 250.939 5.10686   1
  -4  -3   9 257.794 5.45220   3
  -4  -3   9 256.544 5.10488   2
   3   3  -9 142.573 3.47003   1
   3   3  -9 133.238 3.69746   3
  -3  -3   9 141.736 3.36222   2
  -3  -3   9 140.924 3.29378   3
   2   3  -9 5.86355 1.33916   3
   2   3  -9 5.28766 1.18649   1
  -2  -3   9 5.10136 0.95633   3
  -2  -3   9 5.13297 0.97990   2
   1   3  -9 6.31752 1.14514   3
   1   3  -9 8.17628 1.22434   1
  -1  -3   9 7.66277 0.81451   3
  -1  -3   9 6.94105 1.01683   2
   0   3  -9 243.906 4.34425   3
   0   3  -9 239.769 5.12322   1
   0  -3   9 243.095 4.90584   2
   0  -3   9 239.320 4.14149   3
  -1   3  -9 38.4061 1.50673   3
  -1   3  -9 39.9115 2.13364   1
  -1   3  -9 38.2156 1.64780   3
   1  -3   9 38.5443 1.77632   2
  -2   3  -9 39.0166 1.87901   3
  -2   3  -9 40.0315 1.72195   3
  -2   3  -9 39.7710 2.27682   1
   2  -3   9 42.0926 1.86489   2
  -3   3  -9 11.2031 1.69355   3
  -3   3  -9 13.7721 1.96054   1
  -3   3  -9 13.2302 1.76035   3
   3  -3   9 13.5847 1.42077   2
  -4   3  -9 -1.9306 1.21614   1
  -4   3  -9 -1.2363 1.21695   3
   4  -3   9 0.62720 0.77302   2
  -5   3  -9 12.8328 2.80260   1
  -5   3  -9 14.5011 2.86577   3
   5  -3   9 12.8257 1.72642   2
  -6   3  -9 14.8482 2.84852   3
  -6   3  -9 9.78452 2.16135   1
   6  -3   9 10.9622 1.89039   2
  -7   3  -9 1.37543 2.36444   1
  -7   3  -9 0.92950 3.00861   3
   9   2  -9 16.6444 2.73617   1
  -9  -2   9 16.7317 3.19119   3
   8   2  -9 62.9353 3.07829   1
  -8  -2   9 62.9357 4.41323   3
   7   2  -9 15.5660 2.33389   2
   7   2  -9 15.2420 1.91205   1
  -7  -2   9 12.4636 2.25651   3
   6   2  -9 44.0806 2.18994   1
   6   2  -9 40.3472 2.41274   2
  -6  -2   9 41.7003 2.76976   3
   5   2  -9 246.832 5.09870   1
  -5  -2   9 243.362 4.84480   2
  -5  -2   9 237.654 5.51709   3
   4   2  -9 46.7895 2.07469   1
  -4  -2   9 45.3456 1.80922   2
  -4  -2   9 47.0812 2.10236   3
   3   2  -9 138.275 3.40348   3
   3   2  -9 140.177 3.47698   1
  -3  -2   9 138.395 3.30545   2
  -3  -2   9 136.983 3.08137   3
   2   2  -9 112.656 2.63385   3
   2   2  -9 111.851 3.07834   1
  -2  -2   9 112.961 2.93097   2
  -2  -2   9 112.445 2.35673   3
   1   2  -9 0.34146 0.66704   1
  -1  -2   9 0.69730 0.49429   2
   0   2  -9 1.47661 0.76423   1
   0  -2   9 1.75404 0.60982   2
  -1   2  -9 207.516 4.95050   1
   1  -2   9 211.751 4.50595   2
  -2   2  -9 62.3482 2.82391   1
  -2   2  -9 64.3838 1.80559   3
  -2   2  -9 67.2013 2.06911   3
   2  -2   9 66.6860 2.32443   2
  -3   2  -9 52.3002 1.99632   3
  -3   2  -9 53.3153 2.83286   1
   3  -2   9 57.6449 2.21736   2
  -4   2  -9 162.703 5.14888   1
  -4   2  -9 165.882 4.60077   3
   4  -2   9 171.630 4.07758   2
  -5   2  -9 25.2049 3.16527   1
  -5   2  -9 25.1880 3.10607   3
   5  -2   9 24.2811 2.00763   2
  -6   2  -9 0.74164 2.16721   3
  -6   2  -9 0.22616 1.82719   1
  -7   2  -9 -0.4183 2.37744   1
   9   1  -9 6.75875 1.54751   1
  -9  -1   9 7.97788 2.69043   3
   8   1  -9 5.06291 1.34323   1
   7   1  -9 56.8608 2.70241   1
   7   1  -9 53.8638 2.63519   2
   6   1  -9 225.328 5.02844   1
  -6  -1   9 218.826 4.45349   2
  -6  -1   9 222.686 5.54436   3
   5   1  -9 91.2596 2.93127   1
  -5  -1   9 87.8607 2.55547   2
  -5  -1   9 95.9295 3.16271   3
   4   1  -9 1.18970 0.67699   1
   4   1  -9 -0.1859 1.10504   3
  -4  -1   9 1.08392 0.83561   3
  -4  -1   9 1.74755 0.68567   2
   3   1  -9 51.0260 1.89840   3
   3   1  -9 55.5175 2.23330   1
  -3  -1   9 53.9454 1.91820   2
  -3  -1   9 55.3151 1.66784   3
   2   1  -9 0.00556 0.65687   1
  -2  -1   9 0.38428 0.55562   2
   1   1  -9 99.2136 3.02274   1
  -1  -1   9 102.344 2.78482   2
   0   1  -9 6.21192 1.30977   1
   0  -1   9 4.46480 1.00751   2
  -1   1  -9 16.9318 1.72484   1
   1  -1   9 18.0914 1.39805   2
   2  -1   9 1.74958 0.75597   2
  -3   1  -9 1.84761 0.89352   3
   3  -1   9 1.95688 0.82347   2
  -4   1  -9 10.8473 2.15349   3
  -4   1  -9 13.2564 2.41122   1
   4  -1   9 11.0664 1.76539   2
  -5   1  -9 39.4301 3.45165   1
  -5   1  -9 38.3975 3.07883   3
  -6   1  -9 24.3004 3.88714   1
  -6   1  -9 22.4129 3.66533   3
   6  -1   9 23.0804 2.37696   2
   9   0  -9 68.5211 3.27556   1
  -9   0   9 51.4250 4.90940   3
   8   0  -9 81.8780 3.27736   1
  -8   0   9 82.8677 4.50136   3
   7   0  -9 3.71497 1.02118   1
  -7   0   9 3.60172 0.89937   2
   6   0  -9 81.1535 2.89441   1
  -6   0   9 80.3797 3.35463   3
  -6   0   9 75.6921 2.34023   2
   5   0  -9 100.962 3.14523   1
  -5   0   9 101.671 3.26144   3
  -5   0   9 99.3010 2.74407   2
   4   0  -9 36.1713 1.95761   3
  -4   0   9 34.6038 1.66899   3
  -4   0   9 36.1496 1.64198   2
   3   0  -9 87.9977 2.83543   1
  -3   0   9 87.4360 2.56848   2
  -3   0   9 88.2400 2.05412   3
   2   0  -9 15.2652 1.48268   1
  -2   0   9 18.0062 1.33100   2
   1   0  -9 1.10710 0.64405   1
  -1   0   9 1.61929 0.64210   2
   0   0  -9 18.8938 1.73798   1
   0   0   9 19.2815 1.46860   2
   1   0   9 11.1949 1.36285   2
   2   0   9 68.3677 2.54332   2
  -3   0  -9 60.9511 2.13774   3
   3   0   9 62.4387 2.53805   2
  -4   0  -9 9.08426 1.49513   3
  -5   0  -9 -2.3344 1.58086   3
  -5   0  -9 1.32398 1.60007   1
   5   0   9 -0.4061 1.12090   2
  -6   0  -9 -0.9881 1.94343   1
   6   0   9 1.37500 1.47550   2
   9  -1  -9 -0.1129 1.36161   1
  -9   1   9 -1.2441 2.64942   3
   8  -1  -9 24.4897 2.29102   1
  -8   1   9 20.1536 3.75227   3
   7  -1  -9 252.637 5.74541   1
  -7   1   9 248.387 4.79918   2
  -7   1   9 234.343 6.40416   3
   6  -1  -9 153.955 4.18928   1
  -6   1   9 156.719 3.60349   2
  -6   1   9 159.872 4.57618   3
  -5   1   9 30.2024 2.12209   3
  -5   1   9 27.4368 1.56962   2
  -4   1   9 24.8200 1.49764   2
  -4   1   9 26.8002 1.63947   3
  -4   1   9 23.5749 1.35208   3
   3  -1  -9 58.1604 2.40970   1
  -3   1   9 60.5871 2.18564   2
   2  -1  -9 34.6939 1.99225   1
  -2   1   9 35.7317 1.78868   2
   1  -1  -9 24.9731 1.73882   1
  -1   1   9 28.8560 1.72943   2
   0  -1  -9 60.9176 2.61753   1
   0   1   9 64.4089 2.44729   2
  -1  -1  -9 20.3971 1.96018   1
   1   1   9 20.8166 1.72760   2
   2   1   9 128.137 3.75044   2
  -3  -1  -9 233.683 6.13554   1
  -3  -1  -9 234.907 4.53630   3
  -4  -1  -9 44.5771 3.20490   1
  -4  -1  -9 36.3756 2.44829   3
   4   1   9 44.0331 2.69084   2
  -5  -1  -9 2.40662 1.70695   1
   5   1   9 1.42272 1.41919   2
  -6  -1  -9 8.53348 2.36905   1
   6   1   9 8.39783 1.79218   2
   9  -2  -9 28.4723 2.78644   1
  -9   2   9 25.3554 4.47671   3
   8  -2  -9 16.0555 2.18808   1
  -8   2   9 12.0857 2.64655   3
   7  -2  -9 23.4202 2.14867   1
  -7   2   9 19.8258 1.65635   2
  -7   2   9 20.6241 3.06707   3
  -6   2   9 22.5438 1.61524   2
  -6   2   9 21.7119 2.53147   3
  -5   2   9 22.3404 1.58714   2
  -5   2   9 23.2441 2.14164   3
  -4   2   9 1.25431 0.70736   2
  -4   2   9 -0.7568 0.68451   3
  -4   2   9 -0.5382 0.85386   3
   3  -2  -9 71.7354 2.69903   1
  -3   2   9 72.3564 1.97421   3
  -3   2   9 74.2433 2.57892   2
   2  -2  -9 25.6862 1.88826   1
  -2   2   9 27.6546 1.71991   2
   1  -2  -9 21.6428 1.79580   1
  -1   2   9 23.2337 1.74296   2
   0  -2  -9 3.77492 0.99886   1
  -2  -2  -9 57.2483 2.97608   1
  -3  -2  -9 83.1404 3.84687   1
  -3  -2  -9 84.2824 2.57527   3
   3   2   9 86.0088 3.32581   2
  -4  -2  -9 114.694 4.73534   1
   4   2   9 124.425 4.22691   2
  -5  -2  -9 68.1595 4.33690   1
   5   2   9 78.4163 3.86765   2
   9  -3  -9 26.9042 3.01523   1
  -9   3   9 32.4044 5.00455   3
   8  -3  -9 71.8176 3.29679   1
  -8   3   9 69.0161 4.84621   3
   7  -3  -9 83.6741 3.24809   1
  -7   3   9 76.4226 2.59833   2
   6  -3  -9 52.4595 2.63430   1
  -6   3   9 51.4485 2.25117   2
  -6   3   9 57.1833 3.24482   3
   5  -3  -9 72.0781 2.82749   1
  -5   3   9 69.7227 3.03029   3
  -5   3   9 77.6573 2.61692   2
  -4   3   9 -0.2439 0.83318   3
  -4   3   9 1.38240 0.85718   2
   3  -3  -9 68.2118 2.72086   1
  -3   3   9 68.9764 2.12472   3
  -3   3   9 65.2805 2.62873   2
  -3   3   9 66.4869 1.85531   3
   2  -3  -9 7.06501 1.46755   1
  -2   3   9 4.73801 1.00555   2
   1  -3  -9 311.034 6.60546   1
   1   3   9 14.0104 2.02709   2
  -2  -3  -9 24.8746 2.58406   1
   2   3   9 25.6095 2.28494   2
  -3  -3  -9 10.6264 1.91072   1
  -4  -3  -9 2.50504 1.70911   1
   4   3   9 -0.3780 1.50059   2
  -5  -3  -9 62.6064 4.60790   1
   5   3   9 66.6624 4.11058   2
   9  -4  -9 17.5864 2.88540   1
  -9   4   9 19.4107 3.74737   3
   8  -4  -9 19.9167 2.53105   1
   7  -4  -9 5.29109 1.24365   1
  -7   4   9 3.43600 1.19028   2
  -6   4   9 25.5772 2.94217   3
  -6   4   9 31.4135 2.06544   2
   5  -4  -9 4.50259 1.03520   1
  -5   4   9 3.01062 1.05839   2
  -5   4   9 5.41119 1.57835   3
   4  -4  -9 16.3020 1.91477   1
  -4   4   9 14.3104 1.79769   2
  -4   4   9 15.9392 2.02354   3
  -3   4   9 34.4705 2.19698   2
  -3   4   9 28.8784 1.89494   3
  -2   4   9 23.3255 2.07479   2
  -1  -4  -9 172.820 4.94654   1
   1   4   9 176.577 5.08730   2
  -2  -4  -9 45.0635 3.17377   1
   2   4   9 42.0704 3.07563   2
  -3  -4  -9 14.0179 3.06641   1
   3   4   9 23.7382 2.87404   2
  -4  -4  -9 16.3749 3.62698   1
   4   4   9 11.8052 2.24022   2
   8  -5  -9 1.05224 1.37910   1
  -8   5   9 -3.5879 2.64532   3
   7  -5  -9 -0.1278 1.13728   1
  -7   5   9 0.13349 2.16402   3
  -7   5   9 1.06786 1.24817   2
   6  -5  -9 2.39111 1.18470   1
  -6   5   9 6.53573 2.01488   3
  -6   5   9 3.23988 1.25747   2
   5  -5  -9 2.32488 1.12753   1
  -5   5   9 3.07905 1.60259   3
  -5   5   9 1.75054 1.21543   2
   4  -5  -9 41.3361 2.43603   1
  -4   5   9 40.6423 2.56372   2
  -4   5   9 42.4901 2.79983   3
   3  -5  -9 19.3621 1.94291   1
  -3   5   9 15.7304 2.13612   2
  -3   5   9 17.9536 2.17279   3
   2  -5  -9 95.0852 3.43585   1
  -2   5   9 95.8207 3.63505   2
  -2   5   9 90.0131 2.82279   3
   1  -5  -9 172.841 4.77908   1
  -1   5   9 176.541 5.14267   2
   0  -5  -9 37.5661 2.72558   1
   0   5   9 37.9772 2.75821   2
  -1  -5  -9 49.0778 3.10523   1
   1   5   9 48.5480 3.25663   2
  -2  -5  -9 54.0240 3.65914   1
   2   5   9 64.5098 3.81536   2
  -3  -5  -9 74.0521 4.27912   1
   3   5   9 67.6895 4.20253   2
   8  -6  -9 18.2804 2.76700   1
  -8   6   9 9.91093 3.34271   3
   7  -6  -9 1.81623 1.44385   1
  -7   6   9 0.94525 2.56519   3
  -7   6   9 2.92543 1.54599   2
   6  -6  -9 1.67083 1.23098   1
  -6   6   9 1.67359 1.38278   2
   5  -6  -9 0.25042 1.18987   1
  -5   6   9 2.08878 1.34017   2
  -5   6   9 5.62938 2.03007   3
   4  -6  -9 41.7943 2.61938   1
  -4   6   9 41.3332 2.97607   2
  -4   6   9 41.0552 3.18043   3
   3  -6  -9 43.5083 2.71396   1
  -3   6   9 45.5131 3.09121   2
  -3   6   9 42.6196 2.93551   3
   2  -6  -9 110.685 3.84278   1
  -2   6   9 110.900 4.21865   2
   1  -6  -9 41.5845 2.92874   1
  -1   6   9 39.7043 2.99951   2
   0  -6  -9 34.7854 2.94344   1
   0   6   9 30.5453 3.06211   2
  -1  -6  -9 114.276 4.47295   1
   1   6   9 115.661 4.65194   2
  -2  -6  -9 40.0261 3.70031   1
   2   6   9 35.7265 3.74957   2
   7  -7  -9 50.8687 3.33520   1
  -7   7   9 43.9970 5.14452   3
   6  -7  -9 50.9282 3.23585   1
  -6   7   9 46.6548 4.61405   3
  -6   7   9 47.9028 3.41999   2
   5  -7  -9 94.4705 3.64044   1
  -5   7   9 90.1508 4.22050   2
   4  -7  -9 46.4230 2.91708   1
  -4   7   9 46.7430 3.38927   2
  -3   7   9 -1.5680 1.48757   2
  -2   7   9 24.4550 2.94006   2
  -1   7   9 132.426 4.97699   2
   0  -7  -9 84.1953 4.17695   1
   0   7   9 88.2185 4.50497   2
  -1  -7  -9 30.4796 3.58202   1
   1   7   9 15.9546 3.35010   2
   5  -8  -9 168.423 5.20288   1
  -5   8   9 170.102 5.91595   2
   4  -8  -9 25.3879 2.89145   1
  -4   8   9 31.9731 3.41604   2
   3  -8  -9 55.5369 3.38730   1
  -3   8   9 56.6335 3.96281   2
   2  -8  -9 59.8747 3.61334   1
  -2   8   9 58.7638 4.06679   2
   1  -8  -9 10.9675 2.00439   1
  -1   8   9 20.5694 3.39103   2
   2  11 -10 32.7599 4.02734   2
  -2 -11  10 27.7472 4.09473   3
   1  11 -10 34.2211 4.07232   2
  -1 -11  10 29.7363 3.78453   3
   0  11 -10 28.2974 3.88089   2
   0 -11  10 22.1235 3.76300   3
  -1  11 -10 15.8125 2.54583   2
   1 -11  10 14.7061 3.27294   3
  -2  11 -10 5.83386 2.14432   2
   2 -11  10 2.04766 1.98670   3
   3 -11  10 55.7249 4.14038   3
   4  10 -10 6.96734 2.23808   2
  -4 -10  10 9.62043 2.72488   3
   3  10 -10 21.2343 3.82511   2
  -3 -10  10 20.4877 3.67433   3
   2  10 -10 75.1062 4.43396   2
  -2 -10  10 77.0120 4.22254   3
   1  10 -10 23.5703 3.73260   2
  -1 -10  10 22.0519 3.04022   3
   0  10 -10 25.8511 3.78065   2
   0 -10  10 20.4509 3.02519   3
  -1  10 -10 38.1370 3.97126   2
   1 -10  10 35.9005 3.17521   3
  -2  10 -10 1.83627 2.06960   2
   2 -10  10 0.19072 1.52400   3
  -3  10 -10 4.11919 2.19155   2
   3 -10  10 1.73267 1.76557   3
  -4  10 -10 12.0736 2.46978   2
  -4  10 -10 9.09791 3.23394   3
   5   9 -10 20.2738 3.86898   2
  -5  -9  10 12.8411 2.76356   3
   4   9 -10 3.13582 1.97717   2
  -4  -9  10 3.44854 2.12528   3
   3   9 -10 30.1656 3.80248   2
  -3  -9  10 28.0105 3.45982   3
   2   9 -10 67.0720 4.42872   2
  -2  -9  10 63.9968 3.66270   3
   1   9 -10 50.7352 3.48647   2
  -1  -9  10 48.3517 3.14240   3
   0   9 -10 45.5539 3.36649   2
   0  -9  10 42.3224 3.04913   3
  -1   9 -10 7.85898 1.91074   2
   1  -9  10 5.99330 1.60781   3
  -2   9 -10 1.77971 1.49349   1
  -2   9 -10 4.35172 1.75624   2
   2  -9  10 2.27584 1.40963   3
  -3   9 -10 26.8914 3.40861   1
  -3   9 -10 33.2048 3.48937   2
   3  -9  10 34.9017 2.96135   3
  -4   9 -10 -0.0080 2.53519   3
  -4   9 -10 -1.7776 1.88967   1
  -4   9 -10 1.44563 1.78325   2
  -5   9 -10 10.3210 2.51956   1
  -5   9 -10 12.8112 2.45072   2
  -5   9 -10 7.50212 3.32310   3
   6   8 -10 49.5871 4.12795   2
  -6  -8  10 43.7211 4.53141   3
   5   8 -10 71.5336 4.20544   2
  -5  -8  10 61.5703 4.31878   3
   4   8 -10 25.4031 3.59868   2
  -4  -8  10 18.0788 2.97370   3
   3   8 -10 27.8309 3.16719   2
  -3  -8  10 30.1381 3.08121   3
   2   8 -10 13.6872 2.58460   2
  -2  -8  10 10.5696 2.44227   3
   0   8 -10 49.0205 3.27143   2
   0   8 -10 41.3410 2.27227   1
  -1   8 -10 23.3253 2.34509   1
  -1   8 -10 28.5214 2.95879   2
  -2   8 -10 6.75517 1.51716   1
  -2   8 -10 7.27904 1.70279   2
  -3   8 -10 1.05527 1.46053   1
  -3   8 -10 0.71675 1.51675   2
   3  -8  10 1.29939 1.27711   3
  -4   8 -10 0.01202 2.32886   3
  -4   8 -10 -0.2650 1.75204   1
  -5   8 -10 1.68045 1.96321   2
  -5   8 -10 3.89823 2.13401   1
  -5   8 -10 0.39795 2.76041   3
   7   7 -10 16.6831 2.64016   2
  -7  -7  10 14.1614 2.70480   3
   6   7 -10 7.48786 2.04936   2
  -6  -7  10 4.03413 2.14373   3
   5   7 -10 2.09971 1.74070   2
  -5  -7  10 -0.8852 1.61750   3
   4   7 -10 67.2682 3.63558   2
   4   7 -10 70.6117 2.35601   1
  -4  -7  10 70.4762 3.61444   3
   3   7 -10 301.992 5.46722   1
   3   7 -10 313.301 7.36946   2
   2   7 -10 20.6452 2.66096   2
   2   7 -10 15.5722 1.69602   1
  -2  -7  10 12.5303 2.14567   3
   1   7 -10 1.57839 0.87054   1
  -1  -7  10 1.31884 1.14710   3
   0   7 -10 -0.4670 1.22345   2
   0   7 -10 -0.5547 0.97264   1
   0  -7  10 0.21601 1.01275   3
  -1   7 -10 4.62035 1.42854   2
  -1   7 -10 3.40926 1.12971   1
   1  -7  10 3.29000 1.06627   3
  -2   7 -10 3.40699 1.46391   2
  -2   7 -10 4.61140 1.31285   1
   2  -7  10 7.34874 1.27370   3
  -3   7 -10 10.3559 1.71127   1
  -3   7 -10 13.6194 1.93011   2
  -3   7 -10 11.5224 2.06499   3
  -4   7 -10 1.96799 1.56239   1
  -4   7 -10 -3.2972 2.02847   3
  -4   7 -10 -0.5971 1.61254   2
  -5   7 -10 3.80918 1.97057   1
  -5   7 -10 7.35214 2.84575   3
  -5   7 -10 8.21364 2.10076   2
  -6   7 -10 1.83426 2.35948   1
  -6   7 -10 -0.5631 3.02429   3
   7   6 -10 4.87694 1.33324   1
   7   6 -10 3.99866 2.18102   2
  -7  -6  10 1.52961 2.43555   3
   6   6 -10 34.1580 3.62962   2
   6   6 -10 26.1069 2.20263   1
  -6  -6  10 24.6334 3.23421   3
   5   6 -10 32.7386 3.10611   2
   5   6 -10 28.5836 2.01132   1
  -5  -6  10 26.2275 2.97021   3
   4   6 -10 27.7059 2.83589   2
   4   6 -10 24.4937 1.89930   1
   3   6 -10 30.1645 1.88091   1
   3   6 -10 30.9096 2.72509   2
  -3  -6  10 31.5122 2.40195   3
   2   6 -10 42.6619 2.13518   1
  -2  -6  10 47.1114 2.34819   3
   1   6 -10 74.9893 2.63937   1
  -1  -6  10 77.2241 2.71183   3
   0   6 -10 29.4336 2.09065   1
   0   6 -10 34.1383 2.46335   2
   0  -6  10 32.9457 1.96288   3
  -1   6 -10 1.94184 0.97093   1
  -1   6 -10 1.85702 1.27991   2
   1  -6  10 0.21246 0.81053   3
  -2   6 -10 4.01639 1.13817   1
   2  -6  10 2.78380 1.06131   3
  -3   6 -10 7.52642 1.61945   1
  -3   6 -10 7.82376 1.73419   2
  -3   6 -10 9.46274 1.90195   3
   3  -6  10 9.58070 1.60302   2
  -4   6 -10 1.51473 1.95559   3
  -4   6 -10 3.10373 1.62569   1
  -4   6 -10 4.63728 1.57016   2
   4  -6  10 1.52364 1.05868   2
  -5   6 -10 8.27587 2.51029   3
  -5   6 -10 5.81079 1.80452   2
  -5   6 -10 8.64741 2.15742   1
  -6   6 -10 14.4149 2.74742   1
  -6   6 -10 17.1727 3.19001   3
   8   5 -10 26.3485 2.94054   1
  -8  -5  10 21.9824 4.51171   3
   7   5 -10 21.9145 3.42415   2
   7   5 -10 17.5305 2.36355   1
  -7  -5  10 21.0698 3.70913   3
   6   5 -10 0.12902 1.00212   1
   6   5 -10 2.34303 1.51748   2
  -6  -5  10 2.69797 1.87365   3
   5   5 -10 29.5519 2.06700   1
   4   5 -10 338.591 6.23927   1
  -4  -5  10 335.542 7.01657   3
   3   5 -10 46.4413 2.12076   1
  -3  -5  10 44.2945 2.33461   3
   2   5 -10 163.599 3.93514   1
  -2  -5  10 171.197 3.93910   3
  -2  -5  10 164.220 4.05351   2
   1   5 -10 5.91032 1.01098   1
  -1  -5  10 6.50719 1.32938   3
   0   5 -10 32.4328 2.02943   1
   0  -5  10 34.2325 1.62847   3
   0  -5  10 33.5551 1.78903   2
  -1   5 -10 43.1588 2.48638   1
   1  -5  10 45.2550 1.85832   3
   1  -5  10 46.2409 2.05216   2
  -2   5 -10 20.1183 2.28813   1
  -2   5 -10 20.4014 2.19393   3
  -3   5 -10 27.8262 2.67185   3
  -3   5 -10 24.7651 2.58535   1
  -4   5 -10 33.1107 3.24488   3
  -4   5 -10 26.7017 3.01684   1
  -5   5 -10 43.0878 3.89419   1
  -5   5 -10 47.1801 4.02156   3
   5  -5  10 47.6591 2.54678   2
  -6   5 -10 16.5232 3.23592   3
  -6   5 -10 19.4699 4.19988   1
   8   4 -10 5.77764 1.56712   1
  -8  -4  10 7.44791 2.51556   3
   7   4 -10 9.94751 2.29714   1
  -7  -4  10 17.4243 3.40607   3
   6   4 -10 46.7711 2.45519   1
  -6  -4  10 44.3719 3.30922   3
   5   4 -10 86.0044 3.49972   2
   5   4 -10 88.7424 2.89441   1
  -5  -4  10 82.8439 3.45430   3
   4   4 -10 3.30730 0.95254   1
   4   4 -10 4.55242 1.39118   2
  -4  -4  10 4.26687 0.94161   2
  -4  -4  10 5.11805 1.24409   3
   3   4 -10 -0.3140 0.65918   1
  -3  -4  10 1.08935 0.93586   3
  -3  -4  10 0.13066 0.57865   2
   2   4 -10 52.0434 2.42409   3
   2   4 -10 55.8830 2.25896   1
  -2  -4  10 58.6696 2.06765   3
  -2  -4  10 54.2347 2.11245   2
   1   4 -10 -0.4647 0.76953   1
   1   4 -10 0.94942 1.01378   3
  -1  -4  10 0.46741 0.57724   3
   0   4 -10 42.6360 2.23318   1
   0   4 -10 42.7491 1.93515   3
   0  -4  10 43.2477 1.54511   3
   0  -4  10 41.0981 1.84977   2
  -1   4 -10 0.41094 0.88630   3
  -1   4 -10 2.17938 0.88775   3
  -1   4 -10 -0.1993 0.91577   1
   1  -4  10 1.52061 0.70371   2
  -2   4 -10 61.7733 2.55692   3
  -2   4 -10 68.0254 3.04795   1
  -2   4 -10 65.0395 2.62112   3
   2  -4  10 70.5046 2.46785   2
  -3   4 -10 53.0497 2.85277   3
  -3   4 -10 50.2638 2.99046   1
  -4   4 -10 18.3441 2.75100   3
  -4   4 -10 17.2195 2.71784   1
  -5   4 -10 37.9395 3.82102   3
  -5   4 -10 36.0250 3.69174   1
   5  -4  10 37.4084 2.36989   2
  -6   4 -10 22.1020 4.24608   1
  -6   4 -10 18.0943 3.17408   3
   6  -4  10 12.7499 1.80345   2
   9   3 -10 21.3536 3.09096   1
  -9  -3  10 18.4021 3.25566   3
   8   3 -10 3.02212 1.39941   1
  -8  -3  10 5.13964 2.19737   3
   7   3 -10 19.2898 2.20937   1
   7   3 -10 27.6686 2.74598   2
  -7  -3  10 15.8276 3.11472   3
   6   3 -10 4.34615 1.47511   2
   6   3 -10 4.66678 1.15062   1
  -6  -3  10 2.33362 1.51772   3
   5   3 -10 60.7277 2.52161   1
  -5  -3  10 63.8296 2.93288   3
  -5  -3  10 65.4994 2.35333   2
   4   3 -10 -0.1774 0.73446   1
  -4  -3  10 0.31917 0.65859   2
  -4  -3  10 1.40152 0.91791   3
   3   3 -10 54.8042 2.34896   1
   3   3 -10 51.7202 2.54952   3
  -3  -3  10 54.7054 2.10493   2
  -3  -3  10 55.2675 2.03763   3
   2   3 -10 -1.1560 0.90625   3
   2   3 -10 0.56458 0.81415   1
  -2  -3  10 0.13592 0.56050   3
  -2  -3  10 0.67757 0.57065   2
   1   3 -10 78.7057 2.75864   1
   1   3 -10 80.4923 2.22214   3
  -1  -3  10 79.9282 2.57759   2
  -1  -3  10 82.7720 1.89653   3
   0   3 -10 22.9505 1.90438   1
   0   3 -10 26.3988 1.39494   3
   0  -3  10 22.7817 1.00009   3
   0  -3  10 22.8520 1.52375   2
  -1   3 -10 101.236 2.38725   3
  -1   3 -10 104.113 2.56353   3
  -1   3 -10 98.1724 3.38042   1
   1  -3  10 103.708 3.01054   2
  -2   3 -10 232.806 5.65112   1
  -2   3 -10 234.700 4.65544   3
  -2   3 -10 215.274 4.38737   3
   2  -3  10 228.800 4.97863   2
  -3   3 -10 86.9139 3.07195   3
  -3   3 -10 89.4142 3.64914   1
   3  -3  10 81.2624 3.01035   2
  -4   3 -10 18.5512 2.61873   3
  -5   3 -10 48.4295 3.85268   1
  -5   3 -10 52.9386 4.02437   3
   5  -3  10 51.0725 2.62172   2
  -6   3 -10 33.8157 4.42164   1
   6  -3  10 31.0394 2.44476   2
   9   2 -10 8.90964 1.67300   1
  -9  -2  10 9.19714 2.90613   3
   8   2 -10 37.3066 2.90532   1
  -8  -2  10 34.5349 3.85511   3
   7   2 -10 42.4443 2.99411   2
   7   2 -10 44.2305 2.54422   1
  -7  -2  10 35.1584 3.35083   3
   6   2 -10 5.00625 1.12723   1
  -6  -2  10 5.71277 1.65205   3
  -6  -2  10 6.05783 1.42707   2
   5   2 -10 7.66834 1.67075   1
  -5  -2  10 8.38362 1.24995   2
  -5  -2  10 6.51861 1.35407   3
   4   2 -10 59.4777 2.46826   1
  -4  -2  10 58.5363 2.31720   3
  -4  -2  10 57.8330 2.18797   2
   3   2 -10 2.95662 0.81063   1
   3   2 -10 4.17847 0.99932   3
  -3  -2  10 2.23758 0.61345   2
  -3  -2  10 2.40349 0.67966   3
   2   2 -10 19.4113 1.71816   1
  -2  -2  10 20.4571 1.44245   2
   1   2 -10 75.8510 2.74415   1
  -1  -2  10 77.1650 2.50478   2
   0   2 -10 1.95076 0.88637   1
   0  -2  10 2.40033 0.78237   2
  -1   2 -10 33.3456 2.43452   1
   1  -2  10 31.9411 1.77004   2
  -2   2 -10 8.84347 1.99799   1
   2  -2  10 10.1384 1.34264   2
  -3   2 -10 31.0776 2.59090   1
  -3   2 -10 36.9594 2.14474   3
  -4   2 -10 116.000 3.79773   3
  -4   2 -10 118.151 4.51320   1
  -5   2 -10 110.307 4.89282   1
   5  -2  10 117.068 3.68222   2
  -6   2 -10 18.4184 4.01021   1
   6  -2  10 21.5301 2.53909   2
   9   1 -10 2.95468 1.56533   1
  -9  -1  10 -0.5436 2.59730   3
   8   1 -10 2.77741 1.30714   1
   7   1 -10 20.4007 2.55033   2
  -7  -1  10 14.8836 1.63093   2
   6   1 -10 35.2819 2.25795   1
  -6  -1  10 29.3093 2.77842   3
  -6  -1  10 36.7913 1.82187   2
   5   1 -10 38.7307 2.20289   1
  -5  -1  10 38.0327 1.82958   2
  -5  -1  10 40.6343 2.40731   3
   4   1 -10 17.5896 1.64088   1
   4   1 -10 17.2561 1.88137   3
  -4  -1  10 18.5026 1.49386   2
   3   1 -10 -0.3492 0.72663   3
   3   1 -10 -1.2792 0.66668   1
  -3  -1  10 -0.4695 0.52946   3
  -3  -1  10 -0.0545 0.58351   2
   2   1 -10 163.109 4.12065   1
  -2  -1  10 155.703 3.80735   2
   1   1 -10 367.685 7.22222   1
  -1  -1  10 370.498 7.00257   2
   0   1 -10 120.285 3.66068   1
   0  -1  10 119.105 3.30831   2
  -1   1 -10 48.3653 3.00234   1
   1  -1  10 48.1578 2.15619   2
  -3   1 -10 51.2372 2.00949   3
  -3   1 -10 53.5002 3.23444   1
  -4   1 -10 25.2429 2.97040   1
   4  -1  10 29.2279 2.22949   2
  -5   1 -10 54.6886 4.01442   1
   5  -1  10 58.2169 2.93743   2
  -6   1 -10 25.5646 4.09491   1
   9   0 -10 32.2784 3.06279   1
  -9   0  10 38.2985 4.84373   3
   8   0 -10 27.7877 2.53411   1
  -8   0  10 16.8287 3.67983   3
   7   0 -10 18.6528 2.22128   1
  -7   0  10 10.8100 1.61566   2
   6   0 -10 48.1201 2.57944   1
  -6   0  10 48.7055 2.07157   2
  -6   0  10 47.8220 2.91991   3
   5   0 -10 0.96210 0.77193   1
  -5   0  10 2.04610 0.82019   2
  -5   0  10 1.40261 1.07756   3
   4   0 -10 10.6988 1.64896   3
   4   0 -10 10.9455 1.58082   1
  -4   0  10 9.05635 1.30556   2
  -4   0  10 7.85291 1.31807   3
   3   0 -10 -0.6664 0.68417   1
  -3   0  10 0.08663 0.62861   2
   2   0 -10 134.453 3.80004   1
  -2   0  10 135.946 3.53384   2
   1   0  10 362.728 7.54038   2
  -3   0 -10 88.1968 3.90175   1
   3   0  10 90.8421 3.24527   2
  -4   0 -10 26.3561 2.97356   1
   4   0  10 35.7928 2.50074   2
  -5   0 -10 7.69338 2.27620   1
   9  -1 -10 1.16308 1.45448   1
  -9   1  10 2.89123 2.73791   3
   8  -1 -10 -1.1933 1.25904   1
  -8   1  10 -1.3622 2.20178   3
   7  -1 -10 10.0288 2.05875   1
  -7   1  10 6.21206 1.98576   3
  -7   1  10 8.96728 1.63604   2
   6  -1 -10 1.65594 0.93143   1
  -6   1  10 1.52793 0.87606   2
  -6   1  10 -0.2662 1.42033   3
  -5   1  10 112.575 3.13744   2
  -5   1  10 112.335 3.44094   3
  -4   1  10 79.2935 2.35500   3
  -4   1  10 81.4124 2.12643   3
  -4   1  10 80.9057 2.66842   2
  -3   1  10 54.8493 2.22847   2
  -2   1  10 94.4522 2.98277   2
  -2  -1 -10 391.562 8.45905   1
   2   1  10 398.043 7.93032   2
  -3  -1 -10 257.301 6.82359   1
   3   1  10 265.322 6.04283   2
  -4  -1 -10 13.4687 3.01059   1
  -5  -1 -10 5.32196 2.20992   1
   5   1  10 7.29022 1.87712   2
   9  -2 -10 5.88751 1.54888   1
  -9   2  10 3.50545 3.07918   3
   8  -2 -10 11.4725 2.36752   1
  -8   2  10 12.3278 2.60198   3
   7  -2 -10 29.3952 2.50538   1
  -7   2  10 30.4668 3.27901   3
  -7   2  10 29.7263 1.99501   2
   6  -2 -10 17.7631 2.09534   1
  -6   2  10 15.7667 1.67452   2
  -6   2  10 15.9897 2.60002   3
  -5   2  10 0.34547 1.23171   3
  -5   2  10 1.37484 0.89373   2
  -4   2  10 37.0438 1.90710   3
  -4   2  10 36.0202 2.01291   2
  -3   2  10 513.407 9.34914   2
  -2   2  10 159.640 4.18605   2
  -1  -2 -10 97.2656 3.79284   1
   1   2  10 92.6927 3.40378   2
  -2  -2 -10 42.6165 3.10375   1
   2   2  10 43.8602 2.65375   2
  -3  -2 -10 63.1737 3.89684   1
   3   2  10 66.3803 3.28848   2
  -4  -2 -10 55.2929 4.17122   1
   4   2  10 50.3739 3.50259   2
  -5  -2 -10 33.3641 4.49859   1
   5   2  10 35.4674 3.43796   2
   9  -3 -10 0.46002 1.42067   1
  -9   3  10 0.48942 3.14794   3
   8  -3 -10 27.3062 2.70292   1
  -8   3  10 33.4299 4.33684   3
   7  -3 -10 4.49291 1.38262   1
  -7   3  10 5.87849 1.22211   2
   6  -3 -10 14.5656 1.99081   1
  -6   3  10 10.0931 2.11530   3
  -6   3  10 14.7354 1.80446   2
   5  -3 -10 51.2263 2.60485   1
  -5   3  10 51.5863 2.89322   3
  -5   3  10 48.8177 2.40924   2
   4  -3 -10 140.929 4.13761   1
  -4   3  10 144.309 4.02145   2
  -4   3  10 139.904 3.51729   3
   3  -3 -10 304.095 6.61580   1
  -3   3  10 309.186 6.56175   2
  -2   3  10 35.4843 2.22736   2
   1  -3 -10 83.8213 3.42664   1
   0  -3 -10 90.7596 3.64488   1
   0   3  10 97.0835 3.53297   2
  -1  -3 -10 140.056 4.63604   1
   1   3  10 137.214 4.80752   2
  -2  -3 -10 92.6344 3.99197   1
   2   3  10 85.6100 3.71674   2
  -3  -3 -10 8.54262 2.03560   1
   3   3  10 7.90808 1.78993   2
  -4  -3 -10 -3.5835 1.91015   1
   4   3  10 1.36004 1.80281   2
   8  -4 -10 1.05926 1.34293   1
   7  -4 -10 2.80691 1.31506   1
  -7   4  10 3.11206 1.26997   2
   6  -4 -10 75.3189 3.24470   1
  -6   4  10 71.1689 3.00062   2
  -6   4  10 75.9162 3.81011   3
  -5   4  10 71.1009 3.04658   2
  -5   4  10 68.1262 3.30921   3
   4  -4 -10 123.404 3.86841   1
  -4   4  10 127.393 3.96734   2
   3  -4 -10 209.424 5.30774   1
  -3   4  10 214.986 5.40227   2
   2  -4 -10 18.5077 2.17607   1
  -2   4  10 19.8593 2.14398   2
   1  -4 -10 92.6720 3.58806   1
  -1   4  10 98.8801 3.69244   2
   0  -4 -10 130.563 4.40579   1
   0   4  10 132.107 4.36124   2
  -1  -4 -10 131.044 4.86413   1
   1   4  10 145.279 4.58596   2
  -2  -4 -10 25.8183 3.12169   1
   2   4  10 21.5454 2.88147   2
  -3  -4 -10 7.11784 1.98552   1
   3   4  10 2.70208 1.86625   2
   8  -5 -10 11.1501 1.78492   1
  -8   5  10 10.4018 3.25620   3
   7  -5 -10 1.16488 1.33655   1
  -7   5  10 1.43450 1.34513   2
  -7   5  10 -1.3267 2.30542   3
   6  -5 -10 17.1477 2.51758   1
  -6   5  10 21.8511 2.60947   2
  -6   5  10 14.8581 3.42993   3
   5  -5 -10 138.757 4.32593   1
  -5   5  10 143.242 4.68128   3
  -5   5  10 136.427 4.37755   2
  -4   5  10 212.985 5.57164   2
   3  -5 -10 11.1194 2.10860   1
   2  -5 -10 1.93757 1.25856   1
  -2   5  10 3.70089 1.40262   2
   1  -5 -10 227.074 5.96525   1
  -1   5  10 234.731 6.25116   2
   0  -5 -10 152.312 4.96670   1
   0   5  10 149.055 5.07644   2
  -1  -5 -10 71.9530 3.89573   1
   1   5  10 71.6722 3.96219   2
  -2  -5 -10 8.22721 2.12303   1
   2   5  10 9.47045 2.11544   2
   7  -6 -10 135.581 4.71732   1
   6  -6 -10 123.231 4.41209   1
  -6   6  10 117.351 4.42190   2
   5  -6 -10 11.2765 2.40502   1
  -5   6  10 12.9655 2.01432   2
   4  -6 -10 3.83968 1.33540   1
  -4   6  10 4.43802 1.56745   2
   3  -6 -10 43.6511 2.84040   1
  -3   6  10 45.8568 3.28096   2
   2  -6 -10 80.0790 3.63677   1
  -2   6  10 82.8656 4.07159   2
   1  -6 -10 75.0485 3.73749   1
  -1   6  10 73.3453 3.97242   2
   0  -6 -10 38.6170 3.28916   1
   0   6  10 39.1575 3.61665   2
  -1  -6 -10 34.5928 3.70116   1
   1   6  10 34.8811 3.68030   2
   6  -7 -10 74.6422 4.00608   1
  -6   7  10 65.5965 4.01702   2
   5  -7 -10 125.250 4.42938   1
  -5   7  10 130.230 4.87411   2
   4  -7 -10 30.1778 3.00919   1
  -4   7  10 34.7513 3.57730   2
   3  -7 -10 9.13686 1.80304   1
  -3   7  10 6.32842 2.04685   2
   2  -7 -10 48.7801 3.39697   1
  -2   7  10 51.9794 3.79358   2
   1  -7 -10 45.0423 3.56040   1
  -1   7  10 31.4264 3.47436   2
   0  -7 -10 3.11659 2.03269   1
   0   7  10 4.22016 2.07670   2
   1  11 -11 24.7833 4.29565   2
  -1 -11  11 20.4596 3.96784   3
   0  11 -11 -0.6392 2.16938   2
   0 -11  11 2.19705 2.20427   3
  -1  11 -11 21.4196 4.30167   2
   1 -11  11 4.84083 2.21332   3
   3  10 -11 17.8740 4.11253   2
  -3 -10  11 12.5564 2.70661   3
   2  10 -11 37.3258 4.41018   2
  -2 -10  11 33.2732 3.81145   3
   1  10 -11 -0.1562 2.35059   2
  -1 -10  11 0.60717 1.79232   3
   0  10 -11 0.52808 1.95329   2
   0 -10  11 2.72091 1.81267   3
  -1  10 -11 6.25199 2.21304   2
   1 -10  11 5.68684 1.82728   3
  -2  10 -11 8.09116 2.23817   2
   2 -10  11 5.46334 1.98819   3
  -3  10 -11 32.9626 4.39858   2
   3 -10  11 32.8819 3.50929   3
   5   9 -11 3.64297 2.52802   2
  -5  -9  11 0.25888 2.54393   3
   4   9 -11 4.32442 2.03601   2
  -4  -9  11 0.20110 2.07640   3
   3   9 -11 18.6636 3.93990   2
  -3  -9  11 15.6491 3.38557   3
   2   9 -11 8.13050 2.22731   2
  -2  -9  11 16.6019 2.99344   3
   1   9 -11 -0.2064 1.72453   2
   0   9 -11 0.97476 1.80916   2
   0  -9  11 2.53864 1.64050   3
  -1   9 -11 5.80709 1.88816   2
   1  -9  11 4.38878 1.54187   3
  -2   9 -11 1.49279 1.87685   2
  -3   9 -11 -0.9059 1.89940   1
  -3   9 -11 1.22184 2.06621   2
   3  -9  11 1.94121 1.61378   3
  -4   9 -11 47.1007 5.64597   3
  -4   9 -11 48.6237 4.08864   2
   6   8 -11 5.97686 2.44482   2
  -6  -8  11 5.54014 2.77387   3
   5   8 -11 51.4374 4.53261   2
  -5  -8  11 48.6170 4.14009   3
   4   8 -11 2.80280 1.90781   2
  -4  -8  11 0.77858 1.80812   3
   3   8 -11 3.36083 1.90278   2
  -3  -8  11 4.33890 1.78103   3
   2   8 -11 0.59315 1.58269   2
  -2  -8  11 0.31076 1.53867   3
   1   8 -11 8.44451 1.93463   2
   1   8 -11 4.25557 1.14755   1
  -1  -8  11 6.58545 1.44849   3
   0   8 -11 1.74684 1.18158   1
   0   8 -11 1.61098 1.62735   2
  -1   8 -11 6.88141 1.95161   2
  -1   8 -11 3.66165 1.42421   1
  -2   8 -11 2.93366 1.72539   2
  -2   8 -11 2.25841 1.56447   1
   2  -8  11 1.71318 1.36951   3
  -3   8 -11 12.6972 2.05456   1
  -3   8 -11 12.8518 2.17374   2
  -3   8 -11 16.9765 2.65130   3
  -4   8 -11 7.26647 2.13258   1
  -4   8 -11 19.6328 3.73357   2
  -5   8 -11 21.6968 4.43179   1
  -5   8 -11 46.1599 4.29194   2
  -5   8 -11 33.8176 5.87006   3
   6   7 -11 3.23202 2.27217   2
  -6  -7  11 3.67620 2.31107   3
   5   7 -11 4.11395 1.93743   2
  -5  -7  11 2.05189 1.87995   3
   4   7 -11 12.2414 1.97065   1
   4   7 -11 9.86592 2.03665   2
  -4  -7  11 8.41061 1.99786   3
   3   7 -11 17.7155 3.26138   2
   3   7 -11 14.2776 1.91505   1
   2   7 -11 31.6053 2.21904   1
   2   7 -11 35.2777 3.37871   2
  -2  -7  11 32.3601 2.53943   3
   1   7 -11 -0.9248 1.02266   1
   1   7 -11 -0.8789 1.36434   2
  -1  -7  11 1.01526 1.15433   3
   0   7 -11 1.37195 1.15104   1
   0   7 -11 1.74873 1.39717   2
   0  -7  11 0.55430 1.10693   3
  -1   7 -11 68.8102 3.58452   2
  -1   7 -11 65.6590 3.08910   1
   1  -7  11 71.4280 2.77382   3
  -2   7 -11 11.7268 2.60540   2
  -2   7 -11 9.75421 1.76175   1
   2  -7  11 14.8338 2.05189   3
  -3   7 -11 24.2088 3.57217   3
  -3   7 -11 26.6653 3.41440   1
  -4   7 -11 8.07526 2.54950   3
  -4   7 -11 6.32391 2.00268   1
  -4   7 -11 8.17181 2.03029   2
  -5   7 -11 19.7992 4.03884   1
  -5   7 -11 11.5222 2.57334   2
  -5   7 -11 14.5446 3.58172   3
   7   6 -11 4.88165 2.16349   2
  -7  -6  11 7.53827 2.45816   3
   6   6 -11 60.4403 4.03326   2
   6   6 -11 54.7194 2.89593   1
  -6  -6  11 61.7012 4.01139   3
   5   6 -11 14.1463 2.10642   1
  -5  -6  11 12.6514 2.03088   3
   4   6 -11 38.3989 2.30427   1
   4   6 -11 39.7720 3.40058   2
   3   6 -11 30.3328 2.14843   1
   3   6 -11 22.5330 2.90144   2
  -3  -6  11 22.5492 2.46221   3
   2   6 -11 7.21888 1.53109   2
   2   6 -11 6.97144 1.19238   1
  -2  -6  11 5.29119 1.25964   3
   1   6 -11 0.00600 0.94213   1
  -1  -6  11 -0.4634 0.91754   3
   0   6 -11 41.3748 2.59337   1
   0  -6  11 48.6807 2.17810   3
   0  -6  11 47.0288 2.24030   2
  -1   6 -11 80.7751 3.29724   1
   1  -6  11 85.0625 2.95878   2
   1  -6  11 79.5460 2.70756   3
  -2   6 -11 17.9650 2.62488   3
  -2   6 -11 12.5193 2.54587   1
   2  -6  11 17.6170 1.76196   2
  -3   6 -11 49.9831 3.40352   1
  -3   6 -11 41.2910 3.38929   3
   3  -6  11 48.4549 2.57024   2
  -4   6 -11 29.5079 3.50938   2
  -4   6 -11 31.4336 3.80805   3
  -4   6 -11 27.4119 3.45793   1
   4  -6  11 29.9243 2.39809   2
  -5   6 -11 47.8014 4.46472   3
  -5   6 -11 53.3876 4.46321   1
   8   5 -11 0.38650 1.68658   1
  -8  -5  11 2.10161 2.85216   3
   7   5 -11 1.92699 1.95055   2
   7   5 -11 -1.6119 1.34527   1
  -7  -5  11 2.46788 2.14947   3
   6   5 -11 0.56673 1.18059   1
   6   5 -11 3.40637 1.87172   2
  -6  -5  11 5.23615 1.97720   3
   5   5 -11 2.27221 1.58848   2
   5   5 -11 3.19007 1.14268   1
   4   5 -11 16.8576 2.53414   2
   4   5 -11 21.0580 2.08762   1
  -4  -5  11 20.4383 2.44459   3
   3   5 -11 6.06889 1.14891   1
   3   5 -11 6.42556 1.48141   2
  -3  -5  11 4.84138 0.95425   2
  -3  -5  11 6.90801 1.32644   3
   2   5 -11 25.0375 1.99468   1
  -2  -5  11 22.1199 1.80692   3
  -2  -5  11 22.5079 1.74278   2
   1   5 -11 43.2346 2.46579   1
  -1  -5  11 48.6108 1.99567   3
   0   5 -11 247.128 5.66176   1
   0  -5  11 243.974 4.77008   3
  -1   5 -11 117.576 3.83832   1
   1  -5  11 115.977 2.92951   3
   1  -5  11 119.495 3.40037   2
  -2   5 -11 18.1095 2.55849   1
  -2   5 -11 19.7750 2.47828   3
   2  -5  11 21.4472 1.73356   2
  -3   5 -11 35.4522 3.02087   3
  -3   5 -11 32.2540 3.13953   1
   3  -5  11 36.8886 2.13507   2
  -4   5 -11 15.1585 3.14277   1
  -4   5 -11 16.8389 3.09513   3
   4  -5  11 10.1487 2.00959   2
  -5   5 -11 96.6933 5.30079   3
  -5   5 -11 94.1016 5.04268   1
   5  -5  11 90.9569 3.38865   2
  -6   5 -11 41.2535 4.92858   1
   8   4 -11 2.99751 1.56047   1
  -8  -4  11 6.11009 2.50314   3
   7   4 -11 3.58349 1.94884   2
  -7  -4  11 -1.0232 2.13055   3
   6   4 -11 21.2905 2.34042   1
   6   4 -11 28.9998 3.12293   2
  -6  -4  11 17.7165 3.03016   3
   5   4 -11 31.8730 2.27115   1
  -5  -4  11 31.8776 2.77090   3
   4   4 -11 -0.1060 0.97367   1
  -4  -4  11 0.61735 0.77687   2
  -4  -4  11 1.24931 1.08802   3
   3   4 -11 1.74026 0.94931   1
  -3  -4  11 2.04299 0.84781   2
  -3  -4  11 3.41452 1.09121   3
   2   4 -11 3.01444 1.32618   3
   2   4 -11 4.51410 1.00232   1
  -2  -4  11 6.72763 1.19480   2
  -2  -4  11 3.38940 0.87640   3
   1   4 -11 153.818 4.15315   1
   1   4 -11 144.512 3.64374   3
  -1  -4  11 155.042 3.20615   3
   0   4 -11 294.372 6.36475   1
   0   4 -11 289.401 5.85401   3
   0  -4  11 298.335 5.12532   3
  -1   4 -11 92.3537 3.43890   1
  -1   4 -11 91.2410 2.74775   3
  -2   4 -11 12.9525 2.02931   3
  -2   4 -11 7.66085 1.43294   1
   2  -4  11 10.0591 1.46469   2
  -3   4 -11 70.3941 3.19363   3
  -3   4 -11 75.3912 3.81100   1
   3  -4  11 74.9471 2.85464   2
  -4   4 -11 147.203 4.89969   3
  -4   4 -11 159.505 5.47391   1
   4  -4  11 158.693 4.22217   2
  -5   4 -11 61.9838 4.44835   1
   5  -4  11 62.7426 3.04425   2
  -6   4 -11 2.47035 2.26723   1
   8   3 -11 -0.0270 1.49318   1
  -8  -3  11 -2.4154 2.33082   3
   7   3 -11 -1.3375 1.23020   1
  -7  -3  11 -0.5813 1.90102   3
   6   3 -11 31.2755 2.42740   1
  -6  -3  11 17.8300 2.74047   3
   5   3 -11 53.9391 2.64760   1
  -5  -3  11 54.0547 2.39632   2
  -5  -3  11 57.2404 2.90353   3
   4   3 -11 67.7378 2.77676   1
  -4  -3  11 63.2914 2.37635   2
  -4  -3  11 64.6681 2.47891   3
   3   3 -11 53.3913 2.66418   3
   3   3 -11 57.0688 2.60650   1
  -3  -3  11 58.4328 2.06319   3
  -3  -3  11 57.2655 2.26976   2
   2   3 -11 16.6101 1.69984   3
   2   3 -11 13.8462 1.76295   1
  -2  -3  11 17.2133 1.51716   2
  -2  -3  11 14.2269 1.08570   3
   1   3 -11 293.065 6.26594   1
   0   3 -11 20.1985 2.06271   1
  -1   3 -11 -0.4338 0.93512   1
  -2   3 -11 68.4893 3.43864   1
  -2   3 -11 64.4601 2.27965   3
   2  -3  11 68.4091 2.76276   2
  -3   3 -11 143.364 5.09559   1
  -3   3 -11 145.305 4.14796   3
   3  -3  11 143.473 4.02156   2
  -4   3 -11 118.473 4.84059   1
   4  -3  11 121.981 3.75016   2
  -5   3 -11 70.1744 4.49922   1
   5  -3  11 72.7047 3.30434   2
   8   2 -11 -1.0092 1.37058   1
  -8  -2  11 -2.4158 2.26620   3
   7   2 -11 1.30506 1.23965   1
   7   2 -11 -0.2852 1.62860   2
  -7  -2  11 -0.1516 1.73031   3
   6   2 -11 1.03963 1.08170   1
  -6  -2  11 1.70073 0.98334   2
  -6  -2  11 1.44096 1.56108   3
   5   2 -11 -0.5421 0.96518   1
  -5  -2  11 0.23020 1.21363   3
  -5  -2  11 1.59551 0.78716   2
   4   2 -11 112.694 3.51315   1
  -4  -2  11 111.728 3.04617   3
  -4  -2  11 112.501 3.20958   2
   3   2 -11 466.181 8.11621   3
   3   2 -11 487.874 8.85586   1
  -3  -2  11 478.908 8.61651   2
  -3  -2  11 471.220 7.71222   3
   2   2 -11 254.428 5.71211   1
  -2  -2  11 259.364 5.49561   2
   1   2 -11 161.087 4.34206   1
   0   2 -11 0.53945 0.94553   1
  -1   2 -11 32.9730 2.46182   1
  -2   2 -11 66.9300 3.47992   1
   2  -2  11 65.3194 2.67101   2
  -3   2 -11 135.773 4.90807   1
   3  -2  11 133.224 3.89829   2
  -4   2 -11 59.1127 3.86716   1
   4  -2  11 65.8324 2.97910   2
  -5   2 -11 -2.5158 1.76653   1
   5  -2  11 0.98976 1.45903   2
   9   1 -11 14.6249 3.13578   1
  -9  -1  11 19.2974 3.48386   3
   8   1 -11 55.5775 3.26401   1
  -8  -1  11 46.3848 4.78468   3
   7   1 -11 11.5188 2.44802   1
  -7  -1  11 9.17631 1.81778   2
   6   1 -11 -0.7462 0.96908   1
  -6  -1  11 1.47106 0.94508   2
  -6  -1  11 -2.2871 1.39441   3
   5   1 -11 15.2240 1.90046   1
  -5  -1  11 11.5739 1.96798   3
  -5  -1  11 17.1723 1.62457   2
   4   1 -11 54.1500 2.60103   1
  -4  -1  11 51.9352 2.28212   2
  -4  -1  11 49.5358 1.97919   3
   3   1 -11 75.1370 2.89661   1
  -3  -1  11 70.4086 2.57079   2
   2   1 -11 285.753 6.23201   1
  -2  -1  11 289.294 5.97513   2
   1   1 -11 369.014 7.48121   1
   0   1 -11 8.59292 1.80082   1
  -1   1 -11 122.211 4.26092   1
   1  -1  11 132.289 4.03483   2
  -2   1 -11 130.232 4.63564   1
   2  -1  11 137.682 3.93549   2
  -3   1 -11 66.0680 3.80894   1
   3  -1  11 68.4251 2.96603   2
  -4   1 -11 13.8004 2.18209   1
  -5   1 -11 -2.1419 1.85518   1
   5  -1  11 -0.0947 1.46976   2
   9   0 -11 2.53138 1.62696   1
  -9   0  11 6.10899 2.98254   3
   8   0 -11 8.18882 1.61706   1
  -8   0  11 12.0247 2.64525   3
   7   0 -11 71.3418 3.32894   1
  -7   0  11 69.5588 2.62815   2
   6   0 -11 50.9266 2.78365   1
  -6   0  11 51.6623 3.03513   3
  -6   0  11 54.3877 2.39269   2
   5   0 -11 63.8622 2.84604   1
  -5   0  11 70.7676 2.69244   3
  -5   0  11 63.9561 2.52900   2
   4   0 -11 108.666 3.53280   1
  -4   0  11 107.334 2.63304   3
  -4   0  11 106.273 3.18269   2
   3   0 -11 82.7614 3.05886   1
  -3   0  11 79.5642 2.80882   2
  -2   0  11 30.3841 1.95632   2
   1   0  11 273.580 6.10310   2
   2   0  11 34.4754 2.42047   2
  -3   0 -11 16.3015 2.95734   1
  -4   0 -11 11.9263 2.11566   1
   4   0  11 12.9423 2.46320   2
  -5   0 -11 5.10055 2.17993   1
   5   0  11 8.06959 1.88154   2
   9  -1 -11 21.3756 3.06720   1
  -9   1  11 19.2399 3.62399   3
   8  -1 -11 33.9770 2.97134   1
  -8   1  11 29.9702 4.22822   3
   7  -1 -11 37.8932 2.81489   1
  -7   1  11 38.1685 2.27689   2
  -7   1  11 33.9485 3.52132   3
   6  -1 -11 22.9381 2.21528   1
  -6   1  11 23.9199 2.73141   3
  -6   1  11 24.0425 1.93316   2
   5  -1 -11 201.364 5.22691   1
  -5   1  11 211.777 4.67235   3
  -5   1  11 211.773 4.87911   2
  -4   1  11 117.857 3.47610   2
  -3   1  11 88.1193 3.04473   2
  -2   1  11 98.3627 3.23052   2
   0  -1 -11 78.9380 3.66085   1
  -1  -1 -11 60.2871 3.28959   1
   1   1  11 67.2149 2.94091   2
  -2  -1 -11 25.0642 2.96955   1
  -3  -1 -11 9.98025 1.95132   1
   3   1  11 14.0538 2.33312   2
  -4  -1 -11 2.43569 1.98863   1
   4   1  11 2.91123 1.71152   2
   8  -2 -11 16.1001 2.65995   1
  -8   2  11 10.6734 2.76525   3
   7  -2 -11 31.2729 2.80870   1
  -7   2  11 29.0484 2.28153   2
  -7   2  11 27.6887 3.41746   3
   6  -2 -11 66.7148 3.22425   1
  -6   2  11 69.0358 3.43134   3
  -6   2  11 74.9024 2.87018   2
   5  -2 -11 234.873 6.18442   1
  -5   2  11 243.559 5.19343   3
  -5   2  11 238.006 5.44456   2
   4  -2 -11 86.2101 3.30698   1
  -4   2  11 89.8336 3.13864   2
   3  -2 -11 116.849 3.90881   1
  -3   2  11 126.223 3.73706   2
   2  -2 -11 18.8163 2.15394   1
  -2   2  11 24.7944 2.05093   2
   1  -2 -11 35.9070 2.69691   1
   0  -2 -11 159.669 4.89553   1
   0   2  11 175.817 4.80793   2
  -1  -2 -11 33.4140 3.12244   1
   1   2  11 29.1778 2.56447   2
  -2  -2 -11 7.33966 1.70592   1
   2   2  11 8.23542 1.69607   2
  -3  -2 -11 4.84140 1.97839   1
   3   2  11 3.73352 1.71221   2
  -4  -2 -11 0.81527 2.22670   1
   4   2  11 4.42937 1.80478   2
   8  -3 -11 48.8813 3.34100   1
  -8   3  11 51.5102 4.91218   3
   7  -3 -11 28.6569 2.91090   1
  -7   3  11 18.8356 3.52937   3
  -7   3  11 28.9202 2.36203   2
   6  -3 -11 32.2836 2.67441   1
  -6   3  11 28.8378 2.35278   2
  -6   3  11 29.4680 3.18857   3
   5  -3 -11 231.989 5.76125   1
  -5   3  11 227.697 5.44573   2
   4  -3 -11 112.304 4.15655   1
  -4   3  11 119.911 3.77552   2
   3  -3 -11 73.4744 3.24743   1
  -3   3  11 72.6910 3.12807   2
   2  -3 -11 18.3610 2.17848   1
  -2   3  11 20.3253 2.10587   2
   1  -3 -11 61.4001 3.27860   1
   0   3  11 31.6143 2.48287   2
  -1  -3 -11 0.19540 1.45145   1
   1   3  11 -0.6609 1.13312   2
  -2  -3 -11 26.0279 3.33722   1
   2   3  11 23.2203 2.83168   2
  -3  -3 -11 9.08295 2.02803   1
   3   3  11 5.63322 1.83541   2
   8  -4 -11 0.31417 1.42999   1
   7  -4 -11 46.3257 3.35229   1
  -7   4  11 42.9055 2.86484   2
   6  -4 -11 142.357 4.50604   1
  -6   4  11 143.042 4.27367   2
   5  -4 -11 62.7971 3.14121   1
  -5   4  11 72.2269 3.24848   2
   4  -4 -11 13.1402 2.22488   1
   3  -4 -11 66.1773 3.29548   1
  -3   4  11 70.9774 3.27560   2
   2  -4 -11 38.9726 2.79626   1
  -2   4  11 40.1527 2.77173   2
   1  -4 -11 83.6044 3.70170   1
  -1   4  11 86.1580 3.66333   2
   0  -4 -11 15.9570 2.73381   1
   0   4  11 9.88876 1.68324   2
  -1  -4 -11 5.53761 1.75158   1
   1   4  11 8.12714 1.88072   2
  -2  -4 -11 -1.2661 1.73034   1
   2   4  11 -0.7787 1.61166   2
   7  -5 -11 25.5135 3.15753   1
  -7   5  11 19.6450 2.94671   2
   6  -5 -11 32.8282 2.92858   1
  -6   5  11 34.1928 2.94409   2
   5  -5 -11 42.7486 3.07774   1
  -5   5  11 46.7777 3.16396   2
   4  -5 -11 14.9237 2.53402   1
  -4   5  11 14.9173 2.51597   2
   3  -5 -11 5.84098 1.56055   1
  -3   5  11 6.76052 1.61347   2
   2  -5 -11 42.7182 3.08755   1
  -2   5  11 43.0114 3.11784   2
   1  -5 -11 33.5783 3.18372   1
  -1   5  11 43.7540 3.16082   2
   0  -5 -11 1.07611 1.72814   1
   0   5  11 1.55907 1.59285   2
  -1  -5 -11 -0.4868 1.71993   1
   1   5  11 -0.3511 1.69293   2
   6  -6 -11 74.4106 3.98404   1
  -6   6  11 73.4592 4.21963   2
   5  -6 -11 25.9673 3.05384   1
  -5   6  11 22.8075 3.19556   2
   4  -6 -11 17.4710 2.66342   1
  -4   6  11 14.4889 2.87993   2
   3  -6 -11 2.12072 1.44835   1
  -3   6  11 1.41398 1.57748   2
   2  -6 -11 8.87020 1.85999   1
  -2   6  11 8.99630 1.93480   2
   1  -6 -11 5.22453 1.86526   1
  -1   6  11 7.48621 1.98952   2
   0  -6 -11 1.90760 1.85404   1
   0   6  11 4.29625 2.10867   2
   4  -7 -11 21.1764 3.09444   1
  -4   7  11 20.6924 3.58675   2
   3  -7 -11 1.69580 1.81501   1
  -3   7  11 2.97392 1.99231   2
   2  10 -12 2.76873 2.70187   2
  -2 -10  12 0.47013 2.06265   3
   1  10 -12 10.0134 2.41059   2
  -1 -10  12 7.18438 2.16371   3
   0  10 -12 2.62682 2.20508   2
   0 -10  12 5.04265 1.98954   3
  -1  10 -12 17.4720 4.11330   2
   1 -10  12 12.8666 2.29118   3
  -2  10 -12 98.2796 5.25588   2
   2 -10  12 97.9055 4.72000   3
   4   9 -12 3.01911 2.53255   2
  -4  -9  12 2.87346 2.49404   3
   3   9 -12 7.61582 2.42644   2
  -3  -9  12 7.63942 2.25135   3
   2   9 -12 8.67634 2.26578   2
  -2  -9  12 6.93010 2.01336   3
   1   9 -12 24.0287 3.79173   2
  -1  -9  12 21.5037 3.24458   3
   0   9 -12 4.56670 1.97280   2
  -1   9 -12 36.5316 4.04561   2
  -2   9 -12 44.0795 4.45481   2
   2  -9  12 32.8695 3.24088   3
  -3   9 -12 39.8237 5.18308   3
  -3   9 -12 46.5748 4.35495   2
   5   8 -12 3.25148 2.61409   2
  -5  -8  12 -1.1875 2.05174   3
   4   8 -12 19.4033 3.73967   2
  -4  -8  12 26.2590 3.83151   3
   3   8 -12 4.59616 1.98308   2
   2   8 -12 6.30376 2.15512   2
  -2  -8  12 6.83702 1.64458   3
   1   8 -12 37.1505 2.77908   1
   1   8 -12 42.7163 3.93626   2
  -1  -8  12 39.9600 2.94287   3
   0   8 -12 23.0361 2.72520   1
   0   8 -12 23.7216 3.60394   2
  -1   8 -12 81.8879 3.83820   1
  -1   8 -12 86.5934 4.63224   2
   1  -8  12 87.2647 3.53514   3
  -2   8 -12 9.45056 2.38992   2
  -2   8 -12 18.9249 3.22316   1
   2  -8  12 12.1675 2.46471   3
  -3   8 -12 7.26071 2.40778   2
  -3   8 -12 5.22019 2.76967   3
  -4   8 -12 60.4106 4.69202   2
  -4   8 -12 51.6267 4.91765   1
  -4   8 -12 51.4061 5.48802   3
   6   7 -12 18.4844 2.87239   2
  -6  -7  12 15.9856 2.77947   3
   5   7 -12 26.3133 3.87401   2
  -5  -7  12 27.5948 3.67892   3
   4   7 -12 33.1938 3.65666   2
   4   7 -12 22.2627 2.46514   1
  -4  -7  12 16.4606 3.18736   3
   3   7 -12 15.3510 3.35857   2
   3   7 -12 10.8319 2.26327   1
  -3  -7  12 12.1044 2.82007   3
   2   7 -12 42.1584 3.81503   2
   2   7 -12 46.4245 2.67913   1
  -2  -7  12 40.7486 2.77810   3
   1   7 -12 59.8192 3.77839   2
   1   7 -12 66.9614 3.06102   1
  -1  -7  12 67.7074 2.95579   3
   0   7 -12 27.6498 3.06982   2
   0   7 -12 25.5281 2.58915   1
   0  -7  12 25.4940 2.26458   3
  -1   7 -12 64.8530 3.99471   2
  -1   7 -12 65.9616 3.47043   1
   1  -7  12 70.3160 2.91999   3
  -2   7 -12 39.6966 3.27259   1
  -2   7 -12 27.8835 3.44032   2
  -2   7 -12 32.4187 3.52470   3
  -3   7 -12 16.7839 3.83196   3
  -3   7 -12 17.7550 3.45935   2
  -4   7 -12 1.36191 2.10223   2
  -4   7 -12 3.32754 2.23005   1
   7   6 -12 4.50366 2.66410   2
  -7  -6  12 2.08477 2.44748   3
   6   6 -12 4.55318 2.16542   2
   6   6 -12 -0.1515 1.36410   1
  -6  -6  12 -0.0969 2.08614   3
   5   6 -12 19.0926 3.61347   2
   5   6 -12 15.5305 2.48140   1
  -5  -6  12 12.6912 2.31551   3
   4   6 -12 15.2000 3.28728   2
   4   6 -12 14.4842 2.30242   1
   3   6 -12 39.1701 2.62968   1
  -3  -6  12 42.2407 2.68338   3
   2   6 -12 85.0478 3.27927   1
  -2  -6  12 89.5998 3.18934   3
   1   6 -12 92.5395 3.46095   1
   1   6 -12 89.3521 4.29564   2
  -1  -6  12 90.3374 2.95704   3
  -1  -6  12 85.8860 3.31071   2
   0   6 -12 155.608 4.48494   1
   0  -6  12 148.250 3.71448   3
  -1   6 -12 68.2056 3.51412   1
   1  -6  12 66.8424 2.52317   3
  -2   6 -12 0.89138 1.51823   1
  -2   6 -12 0.65784 1.69009   3
   2  -6  12 -0.2605 1.02635   2
  -3   6 -12 53.0854 3.95163   1
  -3   6 -12 51.4067 3.95661   3
   3  -6  12 54.5169 2.87302   2
  -4   6 -12 47.9765 4.46975   1
   4  -6  12 48.4095 2.99984   2
  -5   6 -12 -1.0073 2.33553   1
  -5   6 -12 3.53350 2.46952   2
   5  -6  12 -0.5856 1.62894   2
   7   5 -12 37.9884 4.19963   2
   7   5 -12 30.3014 3.13091   1
  -7  -5  12 30.5869 4.36238   3
   6   5 -12 4.79955 1.43940   1
   6   5 -12 6.37246 2.13062   2
  -6  -5  12 4.98094 1.91292   3
   5   5 -12 12.1238 2.36717   1
   4   5 -12 0.52540 1.14099   1
   4   5 -12 1.29377 1.55168   2
  -4  -5  12 1.89347 1.31048   3
   3   5 -12 48.1274 2.69738   1
  -3  -5  12 46.1334 2.41804   2
  -3  -5  12 47.1246 2.51125   3
   2   5 -12 128.308 3.84271   1
  -2  -5  12 125.404 3.68506   2
  -2  -5  12 128.547 3.39034   3
   1   5 -12 102.166 3.66383   1
  -1  -5  12 108.605 2.85161   3
   0   5 -12 45.7919 2.89372   1
   0  -5  12 46.4191 1.94655   3
   0  -5  12 46.2840 2.30865   2
  -1   5 -12 43.8460 3.01290   1
  -1   5 -12 39.9600 2.62015   3
   1  -5  12 41.4136 2.29121   2
  -2   5 -12 119.888 4.52176   1
  -2   5 -12 108.427 3.91990   3
   2  -5  12 118.259 3.72659   2
  -3   5 -12 53.0054 3.85200   1
   3  -5  12 49.4634 2.68556   2
  -4   5 -12 12.3988 2.31763   1
   4  -5  12 11.7973 1.74733   2
  -5   5 -12 10.1097 2.61628   1
   5  -5  12 14.9887 2.61989   2
   8   4 -12 9.77199 2.00778   1
  -8  -4  12 14.6216 3.04132   3
   7   4 -12 80.7983 3.69955   1
   7   4 -12 86.6444 4.82936   2
  -7  -4  12 77.8025 4.57402   3
   6   4 -12 76.4128 4.32577   2
   6   4 -12 80.5102 3.55048   1
  -6  -4  12 71.9576 3.90858   3
   5   4 -12 39.5038 3.21532   2
   5   4 -12 38.9636 2.70049   1
  -5  -4  12 33.8944 2.76113   3
  -5  -4  12 33.1619 2.24548   2
   4   4 -12 12.0354 2.13587   1
  -4  -4  12 6.26045 1.12919   2
  -4  -4  12 7.41522 1.38718   3
   3   4 -12 146.790 4.19554   1
  -3  -4  12 145.005 3.99146   2
  -3  -4  12 147.692 3.65237   3
   2   4 -12 61.5383 2.87670   1
  -2  -4  12 59.2275 2.14665   3
  -2  -4  12 62.0448 2.53044   2
   1   4 -12 52.4000 2.84706   1
  -1  -4  12 48.0401 1.67011   3
   0   4 -12 53.7197 2.04943   3
   0   4 -12 57.3072 3.04667   1
   0  -4  12 54.6780 2.49478   2
  -1   4 -12 6.18489 1.36232   1
  -1   4 -12 5.42417 1.17326   3
   1  -4  12 5.78539 1.12687   2
  -2   4 -12 83.9621 3.90023   1
   2  -4  12 90.0020 3.17804   2
  -3   4 -12 81.2713 4.31996   1
  -4   4 -12 9.30648 2.13191   1
   4  -4  12 9.71521 2.20829   2
  -5   4 -12 -2.2556 2.09655   1
   5  -4  12 3.56860 1.56696   2
   8   3 -12 2.51321 1.58385   1
  -8  -3  12 4.88762 2.70269   3
   7   3 -12 7.45044 2.22001   2
   7   3 -12 8.47010 1.65010   1
  -7  -3  12 9.19167 2.35172   3
   6   3 -12 66.2861 3.80513   2
   6   3 -12 64.2558 3.20301   1
  -6  -3  12 58.9556 2.71710   2
   5   3 -12 194.624 5.06294   1
  -5  -3  12 195.009 4.91018   3
  -5  -3  12 198.685 4.73205   2
   4   3 -12 69.4104 3.00942   1
  -4  -3  12 70.2870 2.65050   2
  -4  -3  12 63.6666 2.60195   3
   3   3 -12 87.5544 3.26101   1
  -3  -3  12 80.6186 2.46179   3
  -3  -3  12 83.8263 2.92232   2
   2   3 -12 56.6493 2.82745   1
  -2  -3  12 57.4206 2.47974   2
   1   3 -12 108.573 3.78208   1
   0   3 -12 42.2392 2.76698   1
   0  -3  12 45.4819 2.33161   2
  -1   3 -12 39.6206 2.83881   1
   1  -3  12 40.4432 2.31729   2
   2  -3  12 57.9246 2.72088   2
  -3   3 -12 3.76237 1.78067   1
  -4   3 -12 4.98258 1.94602   1
   4  -3  12 3.18884 1.40978   2
  -5   3 -12 1.68829 2.14224   1
   5  -3  12 5.49045 1.73222   2
   8   2 -12 18.7388 3.09871   1
  -8  -2  12 16.1282 3.06482   3
   7   2 -12 67.8435 3.47090   1
   7   2 -12 61.5943 3.78116   2
  -7  -2  12 50.1998 3.91086   3
  -7  -2  12 57.4790 2.78142   2
  -6  -2  12 30.3652 2.13252   2
  -6  -2  12 36.7113 3.10273   3
   5   2 -12 16.3492 2.27353   1
  -5  -2  12 11.7611 1.74926   2
  -5  -2  12 14.6406 2.24439   3
   4   2 -12 74.8480 3.09696   1
  -4  -2  12 71.2265 2.75028   2
  -4  -2  12 70.7202 2.42646   3
   3   2 -12 188.110 4.89047   1
  -3  -2  12 188.988 4.61357   2
   2   2 -12 62.3197 2.94307   1
  -2  -2  12 65.6681 2.64750   2
   1   2 -12 83.2314 3.39720   1
   0   2 -12 40.7746 2.75343   1
   0  -2  12 42.3921 2.29946   2
  -1   2 -12 54.7370 3.18574   1
   1  -2  12 56.1225 2.60126   2
  -2   2 -12 40.4429 3.23416   1
   2  -2  12 45.7060 2.49851   2
  -3   2 -12 2.80366 1.77987   1
   3  -2  12 8.99136 1.96842   2
  -4   2 -12 3.08906 2.05877   1
   4  -2  12 -2.1645 1.33194   2
  -5   2 -12 2.23148 2.10955   1
   5  -2  12 2.06043 1.71496   2
   8   1 -12 53.7869 3.41332   1
  -8  -1  12 35.0948 4.37460   3
   7   1 -12 47.5310 3.15957   1
  -7  -1  12 47.3279 2.53429   2
   6   1 -12 40.0673 2.77600   1
  -6  -1  12 33.9509 2.91858   3
  -6  -1  12 38.1550 2.33589   2
   5   1 -12 35.1303 2.58587   1
  -5  -1  12 33.6772 2.42351   3
  -5  -1  12 35.6712 2.20574   2
   4   1 -12 49.9196 2.66174   1
  -4  -1  12 51.9682 2.43512   2
  -4  -1  12 51.6071 1.85397   3
   3   1 -12 84.8494 3.27322   1
  -3  -1  12 87.0066 2.98127   2
   2   1 -12 145.221 4.38841   1
  -2  -1  12 151.431 4.04846   2
   1   1 -12 37.9293 2.64477   1
   0   1 -12 1.88118 1.22008   1
   0  -1  12 1.67301 0.98191   2
  -1   1 -12 13.5952 2.52839   1
   1  -1  12 13.4732 1.90577   2
  -2   1 -12 24.0133 2.99579   1
  -3   1 -12 3.02855 1.77242   1
   3  -1  12 6.59385 1.44036   2
  -4   1 -12 10.3170 2.31852   1
   4  -1  12 12.6023 2.48669   2
   8   0 -12 48.1067 3.41721   1
  -8   0  12 38.6760 4.64448   3
   7   0 -12 57.8215 3.39719   1
  -7   0  12 52.7388 2.63952   2
   6   0 -12 8.18134 1.47632   1
  -6   0  12 9.01938 1.95073   2
  -6   0  12 5.62062 1.76209   3
  -5   0  12 9.81035 1.92014   3
  -5   0  12 10.9133 1.82272   2
   4   0 -12 145.689 4.32574   1
  -4   0  12 146.697 4.04024   2
   3   0 -12 182.425 4.97258   1
  -3   0  12 184.019 4.65101   2
   2   0 -12 93.5135 3.56243   1
  -2   0  12 93.1253 3.24507   2
   1   0 -12 3.20771 1.33060   1
   0   0 -12 -0.2056 1.13284   1
   0   0  12 -0.6173 0.89005   2
  -1   0 -12 2.67296 1.50952   1
  -2   0 -12 0.25070 1.44610   1
   2   0  12 1.24113 1.16101   2
  -3   0 -12 0.15948 1.57981   1
   3   0  12 0.26180 1.37087   2
  -4   0 -12 0.85023 2.14193   1
   4   0  12 0.66381 1.57372   2
   8  -1 -12 57.5911 3.62698   1
  -8   1  12 58.1472 4.60408   3
   7  -1 -12 46.5156 3.23198   1
  -7   1  12 51.1212 3.74775   3
  -7   1  12 44.0810 2.61489   2
   6  -1 -12 17.6547 2.37155   1
  -6   1  12 15.0367 2.83740   3
  -6   1  12 17.7474 2.09706   2
   5  -1 -12 67.6772 3.19810   1
  -5   1  12 70.4179 2.93521   2
   4  -1 -12 48.1918 3.11333   1
  -4   1  12 54.0775 2.60301   2
   3  -1 -12 16.0846 2.09432   1
  -3   1  12 16.8659 1.91985   2
   2  -1 -12 51.6905 2.90809   1
  -2   1  12 46.3778 2.52794   2
   1  -1 -12 -0.0925 1.08537   1
  -1   1  12 1.58580 0.98400   2
   0  -1 -12 12.8740 2.52056   1
   0   1  12 14.4262 2.11231   2
  -1  -1 -12 1.67870 1.47359   1
   1   1  12 1.64238 1.16499   2
  -2  -1 -12 4.70203 1.67562   1
   2   1  12 4.58563 1.35396   2
  -3  -1 -12 12.2672 2.45765   1
   3   1  12 7.06918 1.79010   2
  -4  -1 -12 13.6007 2.52770   1
   4   1  12 23.0643 3.32147   2
   8  -2 -12 5.25040 1.53849   1
   7  -2 -12 40.0147 3.21347   1
  -7   2  12 42.0152 2.82922   2
   6  -2 -12 57.7110 3.21516   1
  -6   2  12 59.8022 3.00199   2
   5  -2 -12 67.1112 3.25137   1
  -5   2  12 66.6735 3.02711   2
   4  -2 -12 34.6254 2.54123   1
  -4   2  12 37.3742 2.55559   2
   3  -2 -12 3.19553 1.30688   1
  -3   2  12 2.83902 1.22477   2
   1  -2 -12 5.33369 1.50942   1
  -1   2  12 8.98017 2.02678   2
   0  -2 -12 36.6055 3.01946   1
   0   2  12 37.2315 2.81650   2
  -1  -2 -12 -2.5883 1.42137   1
   1   2  12 1.66225 1.39791   2
  -2  -2 -12 2.06921 1.79791   1
   2   2  12 1.83737 1.34973   2
  -3  -2 -12 12.8606 2.50343   1
   3   2  12 12.8180 2.99915   2
   8  -3 -12 16.8791 3.06523   1
   7  -3 -12 8.09573 1.71574   1
  -7   3  12 13.2687 2.53266   2
   6  -3 -12 30.7784 2.81347   1
   5  -3 -12 30.6099 2.77717   1
   4  -3 -12 4.91528 1.30352   1
  -4   3  12 7.87688 1.48104   2
   3  -3 -12 4.70997 1.35433   1
  -3   3  12 8.62670 1.65025   2
   2  -3 -12 1.23334 1.22247   1
  -2   3  12 -0.2780 1.23126   2
   1  -3 -12 17.2855 2.71812   1
  -1   3  12 15.9046 2.36978   2
   0  -3 -12 0.89733 1.48502   1
   0   3  12 -0.3960 1.28047   2
  -1  -3 -12 5.37298 1.84508   1
   1   3  12 9.36612 1.91091   2
  -2  -3 -12 -1.9580 1.94798   1
   2   3  12 2.69570 1.90486   2
   7  -4 -12 16.3584 3.17240   1
  -7   4  12 15.3540 2.90734   2
   6  -4 -12 9.99874 1.79462   1
  -6   4  12 8.33935 1.83134   2
   5  -4 -12 3.92765 1.44594   1
  -5   4  12 2.85209 1.49842   2
   4  -4 -12 7.84638 1.70381   1
  -4   4  12 13.9336 2.66744   2
   3  -4 -12 -1.0276 1.29940   1
  -3   4  12 0.14984 1.32973   2
   2  -4 -12 8.73267 1.66954   1
  -2   4  12 7.69858 1.69255   2
   1  -4 -12 13.3208 2.70943   1
  -1   4  12 11.4302 2.41893   2
   0  -4 -12 14.7215 3.27151   1
   0   4  12 12.7766 2.05330   2
  -1  -4 -12 9.43556 2.16063   1
   1   4  12 5.75034 1.88250   2
   6  -5 -12 9.64270 1.89801   1
  -6   5  12 10.3137 1.99003   2
   5  -5 -12 3.38626 1.50006   1
  -5   5  12 5.84564 1.83609   2
   4  -5 -12 5.98773 1.57286   1
  -4   5  12 7.58860 1.86723   2
   3  -5 -12 -3.0228 1.44277   1
  -3   5  12 1.06404 1.55137   2
   2  -5 -12 29.1596 3.08386   1
  -2   5  12 23.9051 3.01178   2
   1  -5 -12 28.8447 3.41501   1
  -1   5  12 26.1717 3.17423   2
   0  -5 -12 27.0482 3.57573   1
   0   5  12 15.1400 3.11135   2
   4  -6 -12 1.49392 1.74373   1
  -4   6  12 1.89816 1.84903   2
   3  -6 -12 16.8520 3.15604   1
  -3   6  12 12.1499 2.29061   2
   2  -6 -12 1.56557 1.99542   1
  -2   6  12 -1.0094 1.85373   2
   3   9 -13 27.1058 4.42376   2
  -3  -9  13 26.0630 4.07187   3
   2   9 -13 12.5363 2.77274   2
  -2  -9  13 12.9016 2.19952   3
   1   9 -13 33.3999 4.21089   2
  -1  -9  13 26.5694 3.50598   3
   0   9 -13 5.00719 2.51989   2
   0  -9  13 2.67231 1.98093   3
  -1   9 -13 32.2664 4.77374   2
   1  -9  13 22.6879 3.30721   3
  -2   9 -13 99.7071 5.70180   2
   2  -9  13 92.4931 4.31771   3
   4   8 -13 56.5573 4.99163   2
  -4  -8  13 61.7273 4.49354   3
   3   8 -13 49.1766 4.33538   2
   2   8 -13 4.32753 2.15681   2
  -2  -8  13 2.38200 1.72186   3
   1   8 -13 29.0457 4.02351   2
  -1  -8  13 19.3650 3.04335   3
   0   8 -13 59.2929 3.65220   1
   0   8 -13 60.4069 4.73777   2
   0  -8  13 63.6661 3.29113   3
  -1   8 -13 31.8320 3.63247   1
  -1   8 -13 30.3497 4.32036   2
   1  -8  13 30.9792 2.90252   3
  -2   8 -13 -2.0800 2.23446   2
  -2   8 -13 -0.4767 2.41968   3
  -3   8 -13 3.94181 2.32691   1
  -3   8 -13 2.77932 2.55747   2
   5   7 -13 38.7945 4.55382   2
  -5  -7  13 34.1272 4.06275   3
   4   7 -13 39.3706 4.33118   2
   4   7 -13 27.0319 3.06508   1
  -4  -7  13 26.5570 3.57726   3
   3   7 -13 13.3949 2.63229   1
   3   7 -13 19.9106 3.84111   2
  -3  -7  13 16.6690 2.97268   3
   2   7 -13 62.3495 3.38323   1
   2   7 -13 70.7232 4.29789   2
   1   7 -13 53.5369 3.27395   1
   1   7 -13 52.3368 3.92415   2
  -1  -7  13 51.1929 2.93859   3
   0   7 -13 25.2620 3.57133   2
   0   7 -13 30.9753 3.19079   1
   0  -7  13 29.7141 2.44256   3
  -1   7 -13 52.6971 3.84978   1
  -1   7 -13 48.8664 3.94577   2
   1  -7  13 48.2587 2.91869   2
   1  -7  13 50.3318 2.70658   3
  -2   7 -13 6.11383 2.07414   2
   2  -7  13 3.25673 1.43030   2
  -3   7 -13 2.70656 2.26083   2
  -3   7 -13 3.64927 2.23169   1
   6   6 -13 30.2844 4.49782   2
  -6  -6  13 24.2895 4.25658   3
   5   6 -13 40.5160 3.23120   1
   5   6 -13 38.5451 4.37617   2
  -5  -6  13 38.0611 3.64945   3
   4   6 -13 28.8695 2.94690   1
   4   6 -13 34.0423 3.72340   2
   3   6 -13 6.26241 1.46669   1
   3   6 -13 5.03787 1.92151   2
  -3  -6  13 5.81628 1.53260   3
   2   6 -13 20.4806 3.32771   2
   2   6 -13 21.0260 2.76677   1
  -2  -6  13 20.1218 2.10447   2
  -2  -6  13 22.5955 2.27033   3
   1   6 -13 49.1075 3.11046   1
  -1  -6  13 48.9285 2.38354   3
  -1  -6  13 47.5163 2.61312   2
   0   6 -13 95.0070 3.84640   1
   0  -6  13 93.8986 3.00813   3
   0  -6  13 90.4241 3.48646   2
  -1   6 -13 -1.9587 1.43675   1
   1  -6  13 3.13207 1.15175   2
  -2   6 -13 3.83325 1.79740   1
   2  -6  13 0.33177 1.19828   2
  -3   6 -13 11.7181 2.42018   1
   3  -6  13 11.0739 2.56843   2
  -4   6 -13 2.51562 2.40016   1
   4  -6  13 -0.0079 1.49762   2
   7   5 -13 20.4211 3.29316   1
   7   5 -13 20.4325 4.78706   2
  -7  -5  13 23.8399 4.38107   3
   6   5 -13 31.4219 3.19286   1
   6   5 -13 29.9234 4.27853   2
  -6  -5  13 27.8361 3.72708   3
   5   5 -13 66.6562 4.22291   2
   5   5 -13 61.2494 3.25795   1
   4   5 -13 28.5092 3.30832   2
   4   5 -13 24.8216 2.78307   1
  -4  -5  13 22.8234 2.19691   2
  -4  -5  13 21.2762 2.64753   3
   3   5 -13 13.9197 2.46899   1
  -3  -5  13 18.0871 2.06004   2
  -3  -5  13 17.1895 2.14313   3
   2   5 -13 42.6781 2.86995   1
  -2  -5  13 40.7651 2.16417   3
  -2  -5  13 40.8775 2.38149   2
   1   5 -13 4.31248 1.35770   1
  -1  -5  13 3.69632 1.19506   2
  -1  -5  13 3.28184 1.00843   3
   0   5 -13 38.5272 3.08770   1
   0  -5  13 43.7876 2.42525   2
  -1   5 -13 3.15736 1.51513   1
   1  -5  13 1.63165 1.10645   2
  -2   5 -13 1.09170 1.73421   1
   2  -5  13 2.34739 1.19835   2
  -3   5 -13 -2.5392 1.83766   1
   3  -5  13 2.42798 1.31357   2
  -4   5 -13 1.86122 2.22012   1
   4  -5  13 1.44704 1.49370   2
   7   4 -13 89.0374 4.06122   1
   7   4 -13 79.7162 5.36858   2
  -7  -4  13 86.0890 4.99730   3
   6   4 -13 33.3974 3.21935   1
   6   4 -13 35.2275 3.92613   2
  -6  -4  13 36.9482 3.48421   3
   5   4 -13 5.37012 2.06032   2
   5   4 -13 6.71830 1.59253   1
  -5  -4  13 7.46236 1.34264   2
  -5  -4  13 6.10813 1.73521   3
   4   4 -13 10.5810 1.69614   1
  -4  -4  13 11.7436 2.26982   3
   3   4 -13 57.9352 3.12984   1
  -3  -4  13 60.9370 2.36440   3
   2   4 -13 80.2970 3.47738   1
   1   4 -13 17.9129 2.67034   1
   0   4 -13 11.4425 2.59121   1
   0  -4  13 5.68872 1.21602   2
   1  -4  13 25.4544 2.20264   2
  -2   4 -13 0.71476 1.67942   1
   2  -4  13 1.47327 1.17426   2
  -3   4 -13 -1.3430 1.96495   1
   3  -4  13 2.16535 1.33798   2
  -4   4 -13 6.42771 2.29428   1
   4  -4  13 8.19231 1.68664   2
   7   3 -13 39.9535 3.49072   1
   7   3 -13 35.7115 4.27599   2
  -7  -3  13 31.8145 4.22873   3
   6   3 -13 16.7174 2.78630   1
  -6  -3  13 15.8841 2.28650   3
  -5  -3  13 10.5514 2.32107   3
  -5  -3  13 6.42596 1.37936   2
   4   3 -13 3.67403 1.39443   1
  -4  -3  13 3.91829 1.06357   2
  -4  -3  13 3.56869 1.20565   3
   3   3 -13 25.3684 2.54477   1
  -3  -3  13 23.7821 2.09534   2
   2   3 -13 42.5273 2.86247   1
  -2  -3  13 45.8980 2.43083   2
   1   3 -13 28.7038 2.73309   1
  -1  -3  13 25.0706 2.12953   2
   0   3 -13 6.22057 1.60230   1
   0  -3  13 7.38090 1.38356   2
  -1   3 -13 17.5253 2.89598   1
   1  -3  13 21.1509 2.24752   2
  -2   3 -13 0.66887 1.49152   1
   2  -3  13 0.75931 1.19146   2
  -3   3 -13 1.93236 1.85410   1
   3  -3  13 3.40965 1.34617   2
  -4   3 -13 2.44844 2.18827   1
   4  -3  13 3.80657 1.66288   2
   8   2 -13 39.6928 3.53246   1
  -8  -2  13 40.9495 4.87217   3
   7   2 -13 47.7396 3.50902   1
  -7  -2  13 44.9503 2.91764   2
  -7  -2  13 41.2547 3.93327   3
   6   2 -13 15.1086 2.75347   1
  -6  -2  13 13.9471 2.09913   3
  -6  -2  13 11.9266 1.62967   2
   5   2 -13 4.35838 1.45622   1
  -5  -2  13 6.43173 1.30652   2
  -5  -2  13 6.30774 1.47826   3
   4   2 -13 43.8079 2.83405   1
  -4  -2  13 43.4534 2.45488   2
   3   2 -13 11.1263 2.21582   1
  -3  -2  13 8.73792 1.37783   2
   2   2 -13 6.45328 1.44548   1
  -2  -2  13 9.09688 1.69597   2
   1   2 -13 1.55145 1.20988   1
  -1  -2  13 1.72620 1.17999   2
   0  -2  13 1.39635 1.04173   2
  -1   2 -13 -0.7792 1.24809   1
   1  -2  13 1.44129 1.07783   2
  -2   2 -13 1.98082 1.68383   1
   2  -2  13 0.48591 1.11664   2
  -3   2 -13 7.15157 2.10243   1
   3  -2  13 6.99622 1.58827   2
  -4   2 -13 6.03096 2.42583   1
   4  -2  13 9.55852 1.89882   2
   8   1 -13 19.6526 3.41955   1
   7   1 -13 -0.0845 1.49494   1
  -7  -1  13 -2.7947 1.29798   2
   6   1 -13 19.1496 2.80423   1
  -6  -1  13 16.3523 2.15941   2
   5   1 -13 53.7765 3.20967   1
  -5  -1  13 51.9573 2.74603   2
  -4  -1  13 72.9844 3.05556   2
   3   1 -13 1.45864 1.09639   1
  -3  -1  13 1.23963 0.95262   2
   2   1 -13 11.4034 2.18539   1
  -2  -1  13 9.46944 1.73755   2
   0   1 -13 24.9891 2.69528   1
   0  -1  13 27.9631 2.19491   2
  -1   1 -13 5.87013 1.70256   1
   1  -1  13 6.91043 1.41543   2
  -2   1 -13 18.8297 3.28606   1
   2  -1  13 21.3940 2.47076   2
  -3   1 -13 4.24960 2.21210   1
   3  -1  13 8.04893 1.71207   2
   8   0 -13 21.5684 3.38891   1
   7   0 -13 2.09501 1.56222   1
  -7   0  13 1.61139 1.37806   2
   6   0 -13 2.53454 1.50915   1
  -6   0  13 3.07306 1.37060   2
   5   0 -13 2.86126 1.37740   1
  -5   0  13 4.57415 1.27060   2
   4   0 -13 25.9180 2.49702   1
  -4   0  13 22.1433 2.24171   2
   3   0 -13 7.57889 1.43488   1
   2   0 -13 1.27363 1.20357   1
  -2   0  13 1.59824 1.12544   2
   1   0 -13 0.72181 1.27920   1
  -1   0  13 0.74675 1.03949   2
   0   0 -13 30.1481 3.00045   1
   0   0  13 34.2691 2.53036   2
  -1   0 -13 41.9739 3.56713   1
   1   0  13 44.3344 2.91976   2
  -2   0 -13 69.5896 4.26627   1
   2   0  13 65.5427 3.49895   2
  -3   0 -13 19.2335 4.02095   1
   3   0  13 17.4259 2.96624   2
   7  -1 -13 0.95529 1.60227   1
   6  -1 -13 8.07179 1.70771   1
   5  -1 -13 0.96426 1.33110   1
   4  -1 -13 2.35823 1.26680   1
  -4   1  13 2.43687 1.19781   2
   3  -1 -13 11.5315 2.18407   1
  -3   1  13 10.2670 2.12123   2
   2  -1 -13 0.60332 1.34433   1
  -2   1  13 2.17861 1.19211   2
   1  -1 -13 8.82455 1.71927   1
  -1   1  13 8.98845 2.10327   2
   0  -1 -13 30.2036 3.20301   1
   0   1  13 26.8187 2.62616   2
  -1  -1 -13 58.5961 3.97760   1
   1   1  13 60.0278 3.29314   2
  -2  -1 -13 56.2369 4.37009   1
   2   1  13 61.6386 3.62712   2
  -3  -1 -13 6.78695 2.24058   1
   3   1  13 7.22962 2.03270   2
   7  -2 -13 2.33707 1.65922   1
  -7   2  13 2.13043 1.62257   2
   6  -2 -13 0.24862 1.47949   1
  -6   2  13 0.79322 1.36677   2
   5  -2 -13 -1.0388 1.28166   1
  -5   2  13 0.24799 1.33277   2
   4  -2 -13 4.54873 1.31273   1
  -4   2  13 8.22003 1.53072   2
   3  -2 -13 11.7527 2.53254   1
  -3   2  13 16.9821 2.28703   2
   2  -2 -13 4.13154 1.45325   1
  -2   2  13 5.75320 1.41710   2
   1  -2 -13 47.7308 3.52647   1
  -1   2  13 47.3934 3.04819   2
   0  -2 -13 28.9693 3.36710   1
   0   2  13 34.8712 2.83762   2
  -1  -2 -13 18.4832 3.32554   1
   1   2  13 18.7762 2.75752   2
  -2  -2 -13 20.2795 4.10353   1
   2   2  13 28.5003 3.21396   2
   7  -3 -13 -0.1140 1.63100   1
  -7   3  13 -0.5327 1.72383   2
   6  -3 -13 -0.6818 1.47336   1
  -6   3  13 0.41006 1.62946   2
   5  -3 -13 15.6864 2.69983   1
  -5   3  13 13.2720 2.58875   2
   4  -3 -13 21.9802 2.67275   1
  -4   3  13 27.7345 2.71782   2
   3  -3 -13 39.4465 3.06248   1
  -3   3  13 42.9692 3.01576   2
   2  -3 -13 67.6679 3.73620   1
  -2   3  13 74.5478 3.56509   2
   1  -3 -13 42.8046 3.44589   1
  -1   3  13 43.5185 3.26043   2
   0  -3 -13 19.1494 3.59499   1
   0   3  13 26.9066 3.21239   2
  -1  -3 -13 21.6677 3.87065   1
   1   3  13 22.9805 3.36530   2
   6  -4 -13 4.66284 1.67052   1
  -6   4  13 6.47706 1.95739   2
   5  -4 -13 1.34657 1.47111   1
  -5   4  13 1.06259 1.66579   2
   4  -4 -13 40.5957 3.52491   1
  -4   4  13 43.7640 3.34224   2
   3  -4 -13 84.0663 4.15172   1
  -3   4  13 88.4142 4.19439   2
   2  -4 -13 116.204 4.75426   1
  -2   4  13 107.969 4.71372   2
   1  -4 -13 36.2945 3.75111   1
  -1   4  13 29.4156 3.44020   2
   0  -4 -13 13.6017 2.61354   1
   0   4  13 14.7884 2.32241   2
   4  -5 -13 4.57033 1.78552   1
  -4   5  13 2.61442 1.96561   2
   3  -5 -13 22.0588 3.44363   1
  -3   5  13 26.5678 3.46318   2
   2  -5 -13 65.2502 4.18337   1
  -2   5  13 62.8425 4.23618   2
   1   9 -14 7.81341 2.98397   2
  -1  -9  14 9.15541 2.34960   3
   0   9 -14 6.77006 2.77782   2
   3   8 -14 4.33226 2.67378   2
  -3  -8  14 4.57167 2.10938   3
   2   8 -14 9.33283 2.76495   2
  -2  -8  14 8.59077 2.14115   3
   1   8 -14 28.2530 4.73692   2
   0   8 -14 -1.0702 2.28957   2
   0   8 -14 -1.8531 1.85125   1
  -1   8 -14 5.78471 2.44186   2
  -2   8 -14 -1.2846 2.27405   1
  -2   8 -14 3.02523 2.37905   2
  -5  -7  14 7.97013 2.58830   3
   4   7 -14 -0.9739 2.52412   2
  -4  -7  14 -0.9789 2.07716   3
   3   7 -14 2.18238 1.63239   1
   3   7 -14 0.95501 2.40392   2
  -3  -7  14 2.77860 1.80640   3
   2   7 -14 7.35287 1.82807   1
   2   7 -14 10.5774 2.37654   2
   1   7 -14 -1.0246 1.96090   2
   1   7 -14 0.72079 1.64774   1
   0   7 -14 3.90563 2.12747   2
   0   7 -14 0.37944 1.83861   1
   0  -7  14 -0.3889 1.34272   2
  -1   7 -14 2.36531 2.01827   1
  -1   7 -14 4.40779 2.15254   2
   1  -7  14 2.35420 1.45556   2
  -2   7 -14 1.96428 2.25981   2
  -2   7 -14 4.62165 2.14021   1
   2  -7  14 2.75483 1.70944   2
   5   6 -14 13.9738 2.74975   2
  -5  -6  14 5.28176 2.26872   3
   4   6 -14 1.96260 2.17401   2
   4   6 -14 -2.7749 1.58859   1
   3   6 -14 0.74050 1.92929   2
   3   6 -14 0.26176 1.60615   1
  -3  -6  14 1.63818 1.22845   2
   2   6 -14 10.0775 1.87786   1
   2   6 -14 9.11168 2.34973   2
  -2  -6  14 12.3444 2.24674   2
   1   6 -14 3.31179 1.63002   1
  -1  -6  14 0.93642 1.24025   2
   0  -6  14 12.2067 2.16770   2
  -1   6 -14 2.99274 1.93594   1
   1  -6  14 2.98599 1.32961   2
  -2   6 -14 7.69347 2.25500   1
   2  -6  14 4.81480 1.47675   2
  -3   6 -14 2.26172 2.45034   1
   3  -6  14 3.38040 1.66836   2
   6   5 -14 13.5962 2.04670   1
   6   5 -14 12.0733 2.90126   2
   5   5 -14 3.71011 1.78961   1
   5   5 -14 3.96179 2.21396   2
   4   5 -14 7.95582 1.74020   1
   4   5 -14 7.99878 2.30464   2
  -4  -5  14 8.18976 1.47543   2
   3   5 -14 1.70359 1.42218   1
  -3  -5  14 2.87173 1.22770   2
   2   5 -14 2.57750 1.50507   1
  -2  -5  14 -1.1741 1.05094   2
   1   5 -14 15.8424 3.01812   1
  -1  -5  14 9.20688 1.97510   2
   0   5 -14 0.89693 1.51025   1
   0  -5  14 1.98909 1.20433   2
  -1   5 -14 16.2820 2.25209   1
   1  -5  14 18.8757 2.35259   2
  -2   5 -14 58.1658 4.44455   1
   2  -5  14 52.3745 3.09168   2
  -3   5 -14 30.9984 4.60515   1
   3  -5  14 28.1711 3.00238   2
   6   4 -14 -0.5167 2.25865   2
   6   4 -14 -0.2911 1.73090   1
   5   4 -14 3.13976 1.55260   1
  -5  -4  14 6.54823 1.42007   2
   4   4 -14 0.66277 1.52710   1
  -4  -4  14 1.64495 1.24921   2
   3   4 -14 7.51605 1.80947   1
  -3  -4  14 7.39013 1.42134   2
   2   4 -14 0.46456 1.42853   1
  -2  -4  14 -1.2634 1.03665   2
  -1  -4  14 11.9857 2.03974   2
   0   4 -14 13.8458 2.99896   1
   0  -4  14 9.74253 1.60435   2
  -1   4 -14 14.6106 3.25160   1
   1  -4  14 25.3083 2.43296   2
  -2   4 -14 28.1693 3.86052   1
   2  -4  14 22.5004 2.61912   2
  -3   4 -14 27.3508 4.55859   1
   3  -4  14 23.3343 2.97435   2
   7   3 -14 5.90503 2.68592   2
   7   3 -14 5.19268 2.02786   1
   6   3 -14 2.13803 1.68219   1
  -6  -3  14 0.14159 1.33702   2
   5   3 -14 8.31174 1.69385   1
  -5  -3  14 7.66982 1.50418   2
   4   3 -14 12.7530 2.86144   1
  -4  -3  14 11.4267 2.13693   2
   3   3 -14 2.67064 1.51428   1
  -3  -3  14 4.31532 1.21968   2
   2   3 -14 16.5116 2.69188   1
  -2  -3  14 12.7357 1.99304   2
   1   3 -14 5.08635 1.63916   1
  -1  -3  14 8.88566 2.04326   2
   0   3 -14 3.11239 1.61328   1
   0  -3  14 8.73516 2.03949   2
  -1   3 -14 15.0738 3.27887   1
   1  -3  14 24.8962 2.44213   2
  -2   3 -14 38.3554 4.12704   1
   2  -3  14 43.2023 2.98823   2
  -3   3 -14 38.1399 4.73020   1
   3  -3  14 31.4914 3.18022   2
   7   2 -14 4.70258 1.93182   1
  -7  -2  14 5.60052 1.63910   2
   6   2 -14 0.26694 1.53684   1
  -6  -2  14 -0.3221 1.33737   2
   5   2 -14 -0.4518 1.52556   1
  -5  -2  14 2.71072 1.30609   2
   4   2 -14 22.8154 2.72838   1
  -4  -2  14 16.2164 2.23547   2
   3   2 -14 28.0808 2.95585   1
  -3  -2  14 33.0136 2.42800   2
   2   2 -14 26.0788 2.96544   1
  -2  -2  14 27.5895 2.34681   2
   1   2 -14 13.0540 2.91182   1
  -1  -2  14 10.5698 2.04246   2
   0   2 -14 89.3476 4.29627   1
   0  -2  14 90.6969 3.63114   2
  -1   2 -14 26.1284 3.43576   1
   1  -2  14 35.8302 2.72569   2
  -2   2 -14 6.58768 2.05701   1
   2  -2  14 7.71015 1.66604   2
  -3   2 -14 13.0753 2.61650   1
   3  -2  14 23.5880 3.09488   2
   7   1 -14 1.18653 1.81881   1
  -7  -1  14 -2.2703 1.47610   2
   6   1 -14 0.33313 1.51525   1
  -6  -1  14 1.93537 1.39686   2
   5   1 -14 7.40994 1.70136   1
  -5  -1  14 10.0653 1.71213   2
   4   1 -14 11.9527 2.51599   1
  -4  -1  14 12.2672 2.25597   2
   3   1 -14 16.8989 2.49716   1
  -3  -1  14 14.0857 2.23077   2
   2   1 -14 45.4084 3.29904   1
  -2  -1  14 43.1418 2.69199   2
   1   1 -14 27.4946 3.23402   1
  -1  -1  14 30.3233 2.50320   2
   0   1 -14 116.520 4.89099   1
   0  -1  14 119.075 4.16918   2
  -1   1 -14 66.8795 4.10077   1
   1  -1  14 67.7719 3.47460   2
  -2   1 -14 47.6247 4.32745   1
   2  -1  14 47.6259 3.22248   2
   7   0 -14 21.0027 3.55401   1
  -7   0  14 19.4706 2.81238   2
   6   0 -14 5.70794 1.77016   1
  -6   0  14 7.97663 1.70645   2
   5   0 -14 9.21785 1.81398   1
  -5   0  14 12.0271 2.40360   2
   4   0 -14 8.67276 1.72359   1
  -4   0  14 7.33506 1.55307   2
   3   0 -14 1.46191 1.30524   1
  -3   0  14 5.53975 1.38086   2
   2   0 -14 32.2356 3.22883   1
  -2   0  14 32.8598 2.66028   2
   1   0 -14 148.946 5.36229   1
  -1   0  14 146.040 4.68906   2
   0   0 -14 164.152 5.59882   1
   0   0  14 154.732 4.92409   2
  -1   0 -14 1.37177 1.82121   1
   1   0  14 5.57972 1.66989   2
  -2   0 -14 30.0021 4.17226   1
   2   0  14 33.8891 3.32237   2
   7  -1 -14 16.3320 3.39337   1
  -7   1  14 20.9858 3.08670   2
   6  -1 -14 20.7496 3.28512   1
  -6   1  14 21.3406 2.86571   2
   5  -1 -14 35.9962 3.19761   1
  -5   1  14 35.0820 2.99013   2
   4  -1 -14 18.9945 2.85020   1
  -4   1  14 27.3183 2.69785   2
   3  -1 -14 20.4802 2.75246   1
  -3   1  14 16.7365 2.48393   2
   2  -1 -14 27.9583 3.05689   1
  -2   1  14 27.9362 2.73089   2
   1  -1 -14 56.2291 3.91047   1
  -1   1  14 59.1660 3.35765   2
   0  -1 -14 84.4901 4.64395   1
   0   1  14 91.2147 3.92863   2
  -1  -1 -14 13.1763 2.38385   1
   1   1  14 21.1606 2.93185   2
   6  -2 -14 52.4842 3.89031   1
  -6   2  14 52.8922 3.45985   2
   5  -2 -14 60.4677 3.91399   1
  -5   2  14 60.2473 3.55984   2
   4  -2 -14 30.6039 3.08886   1
  -4   2  14 37.7386 3.14022   2
   3  -2 -14 15.9906 3.02319   1
  -3   2  14 23.2966 2.71639   2
   2  -2 -14 117.697 4.81606   1
  -2   2  14 109.554 4.38963   2
   1  -2 -14 67.5502 4.06237   1
  -1   2  14 67.4530 3.52467   2
   0  -2 -14 2.63194 1.94720   1
   0   2  14 0.02872 1.49950   2
   5  -3 -14 78.2896 4.15961   1
  -5   3  14 77.8477 4.11358   2
   4  -3 -14 70.7728 3.94910   1
  -4   3  14 61.5579 3.70670   2
   3  -3 -14 16.2453 3.18872   1
  -3   3  14 15.1255 2.76227   2
   2  -3 -14 46.1377 3.87295   1
  -2   3  14 46.4898 3.49565   2
   1  -3 -14 96.4186 4.92897   1
  -1   3  14 103.121 4.53814   2
   3   7 -15 5.83431 2.53177   2
   2   7 -15 23.1911 4.55945   2
   2   7 -15 18.9080 2.51060   1
   1   7 -15 21.7470 3.18101   2
   1   7 -15 17.9225 3.85455   1
   0   7 -15 33.4305 4.63245   2
   0   7 -15 25.9111 4.40766   1
   0  -7  15 23.4435 2.92568   2
  -1   7 -15 5.66418 2.32017   1
  -1   7 -15 8.08831 2.98824   2
   1  -7  15 3.04375 1.69548   2
   4   6 -15 4.95909 1.98599   1
   4   6 -15 4.70281 2.62545   2
   3   6 -15 10.3916 2.04197   1
   3   6 -15 10.8681 2.64650   2
  -3  -6  15 9.18327 1.71646   2
   2   6 -15 9.68387 2.10537   1
  -2  -6  15 12.2606 2.54358   2
   1   6 -15 11.0647 2.16647   1
  -1  -6  15 8.36066 1.78643   2
   0   6 -15 32.1142 4.16939   1
   0  -6  15 34.8660 2.81162   2
  -1   6 -15 37.6945 4.29760   1
   1  -6  15 48.6369 3.28416   2
   5   5 -15 0.51156 2.49319   2
   5   5 -15 4.26315 1.93213   1
   4   5 -15 3.09145 1.80316   1
  -4  -5  15 0.57207 1.48740   2
   3   5 -15 7.41165 1.97244   1
  -3  -5  15 13.3568 2.31295   2
   2   5 -15 49.0723 3.71312   1
  -2  -5  15 39.4579 2.91452   2
   1   5 -15 37.2617 3.76379   1
  -1  -5  15 31.9735 2.70322   2
   0   5 -15 5.62243 2.15005   1
   0  -5  15 11.5015 2.41640   2
  -1   5 -15 24.4594 4.29946   1
   1  -5  15 18.7647 2.73611   2
  -2   5 -15 77.3103 5.10882   1
   2  -5  15 75.2533 3.95356   2
   6   4 -15 6.72612 2.22284   1
   6   4 -15 5.88134 2.62997   2
  -6  -4  15 8.56120 1.80876   2
   5   4 -15 5.57914 2.07843   1
  -5  -4  15 8.19272 1.72175   2
   4   4 -15 33.3233 3.41165   1
  -4  -4  15 36.8618 2.89772   2
   3   4 -15 38.5785 3.57403   1
  -3  -4  15 43.4159 2.80564   2
   2   4 -15 13.5773 3.03251   1
  -2  -4  15 9.90102 1.62837   2
   1   4 -15 4.73047 1.85142   1
  -1  -4  15 4.19773 1.39696   2
   0   4 -15 39.7159 3.70317   1
   0  -4  15 35.1170 2.95551   2
  -1   4 -15 99.3913 5.21369   1
   1  -4  15 97.6258 4.06536   2
  -2   4 -15 29.9546 4.59732   1
   2  -4  15 32.5792 3.34091   2
   6   3 -15 35.5478 3.97619   1
  -6  -3  15 35.1721 3.25815   2
   5   3 -15 31.6571 3.53989   1
  -5  -3  15 30.1828 2.82544   2
   4   3 -15 40.7563 3.60932   1
  -4  -3  15 35.1794 2.86814   2
   3   3 -15 39.6366 3.46086   1
  -3  -3  15 38.3559 2.85503   2
   2   3 -15 63.9703 3.91932   1
  -2  -3  15 62.3838 3.28786   2
   1   3 -15 3.81189 1.85258   1
  -1  -3  15 3.84576 1.45611   2
   0   3 -15 18.3560 3.34475   1
   0  -3  15 15.3465 2.58593   2
  -1   3 -15 65.7237 4.79700   1
   1  -3  15 68.0099 3.60038   2
  -2   3 -15 46.6220 4.71310   1
   2  -3  15 44.1816 3.52533   2
   6   2 -15 28.9631 3.66604   1
  -6  -2  15 30.7379 2.92439   2
   5   2 -15 53.2370 3.78221   1
  -5  -2  15 46.5247 3.08496   2
   4   2 -15 86.1130 4.16965   1
  -4  -2  15 92.6393 3.81413   2
   3   2 -15 13.2220 3.04174   1
  -3  -2  15 14.3437 2.37558   2
   2   2 -15 29.8558 3.32206   1
  -2  -2  15 27.4067 2.68974   2
   1   2 -15 56.9424 4.08108   1
  -1  -2  15 54.0440 3.31741   2
   0   2 -15 106.915 4.85868   1
   0  -2  15 94.6311 3.98797   2
  -1   2 -15 30.3469 4.13816   1
   1  -2  15 25.1146 3.02448   2
   6   1 -15 28.4332 3.66559   1
  -6  -1  15 30.0003 3.01176   2
   5   1 -15 3.92435 1.70824   1
  -5  -1  15 4.89324 1.64543   2
   4   1 -15 47.7940 3.44634   1
  -4  -1  15 42.9209 3.06719   2
   3   1 -15 52.3685 3.67663   1
  -3  -1  15 55.5934 3.14247   2
   2   1 -15 57.4628 3.90263   1
  -2  -1  15 59.9975 3.18904   2
   1   1 -15 36.1324 3.79952   1
  -1  -1  15 40.5705 3.03252   2
   0   1 -15 78.9343 4.54430   1
   0  -1  15 83.8169 3.89975   2
  -1   1 -15 21.9647 4.00446   1
   1  -1  15 13.4636 2.90645   2
   6   0 -15 69.7869 4.27248   1
  -6   0  15 69.8291 3.86153   2
   5   0 -15 37.4141 3.59432   1
  -5   0  15 39.8094 3.23678   2
   4   0 -15 6.03018 1.75960   1
  -4   0  15 11.8057 2.56686   2
   3   0 -15 5.82515 1.72713   1
  -3   0  15 5.73641 1.58450   2
   2   0 -15 72.4563 4.09875   1
  -2   0  15 73.3696 3.68046   2
   1   0 -15 46.2017 3.99032   1
  -1   0  15 43.7117 3.17623   2
   0   0 -15 25.3333 4.12059   1
   0   0  15 26.6776 3.08689   2
   1   0  15 21.7478 3.17871   2
   5  -1 -15 26.2317 3.44095   1
  -5   1  15 30.5587 3.18547   2
   4  -1 -15 87.6936 4.34947   1
  -4   1  15 96.6971 4.19209   2
   3  -1 -15 35.0784 3.74804   1
  -3   1  15 36.1749 3.18345   2
   2  -1 -15 8.66798 1.99125   1
  -2   1  15 9.79968 1.87523   2
   1  -1 -15 21.7799 3.71604   1
  -1   1  15 22.7294 2.99540   2
   0  -1 -15 1.18536 2.02439   1
   0   1  15 3.80051 1.83657   2
   4  -2 -15 -0.8074 1.54524   1
  -4   2  15 4.10690 1.83422   2
   3  -2 -15 95.9122 4.70221   1
  -3   2  15 108.278 4.68696   2
   2  -2 -15 96.4125 4.81468   1
  -2   2  15 102.984 4.45769   2
   2   6 -16 17.3735 2.77119   1
  -2  -6  16 28.0920 2.98998   2
   1   6 -16 2.54832 2.18535   1
  -1  -6  16 -0.1781 1.67363   2
  -4  -5  16 19.0700 2.96144   2
   3   5 -16 8.45666 2.37310   1
  -3  -5  16 12.6219 2.70288   2
   2   5 -16 29.5791 3.77853   1
  -2  -5  16 21.4277 2.95625   2
   1   5 -16 40.5074 4.25315   1
  -1  -5  16 40.4322 3.17964   2
   0   5 -16 28.2116 4.77470   1
   0  -5  16 25.5229 2.94968   2
   4   4 -16 40.0365 3.92170   1
  -4  -4  16 41.1788 3.34591   2
   3   4 -16 10.1414 2.19815   1
  -3  -4  16 7.04893 1.78031   2
   2   4 -16 0.14465 1.86258   1
  -2  -4  16 -0.2588 1.46994   2
   1   4 -16 11.3134 2.32542   1
  -1  -4  16 19.6640 2.86486   2
   0   4 -16 51.5909 4.64383   1
   0  -4  16 53.1225 3.45660   2
   4   3 -16 33.2854 3.95278   1
  -4  -3  16 29.6735 3.12252   2
   3   3 -16 22.3086 3.69565   1
  -3  -3  16 20.0985 2.91636   2
   2   3 -16 7.62867 2.05647   1
  -2  -3  16 14.8888 2.68518   2
   1   3 -16 28.2438 4.02551   1
  -1  -3  16 25.5126 2.99667   2
   0   3 -16 1.30409 2.04972   1
   0  -3  16 3.38384 1.74724   2
   5   2 -16 33.0396 4.04128   1
  -5  -2  16 26.5130 3.22064   2
   4   2 -16 17.9349 3.46602   1
  -4  -2  16 21.2788 2.92305   2
   3   2 -16 30.5251 3.76709   1
  -3  -2  16 35.6603 3.18313   2
   2   2 -16 29.4196 3.69258   1
  -2  -2  16 29.4649 2.97018   2
   1   2 -16 7.50849 2.31715   1
  -1  -2  16 7.35297 1.94291   2
   0   2 -16 -0.9881 2.12536   1
   0  -2  16 -0.0459 1.80269   2
   4   1 -16 16.1093 3.39943   1
  -4  -1  16 14.0575 2.14010   2
   3   1 -16 -1.8280 1.85989   1
  -3  -1  16 2.73702 1.72059   2
   2   1 -16 3.08660 1.91875   1
  -2  -1  16 2.63769 1.63830   2
   1   1 -16 52.4813 4.56544   1
  -1  -1  16 51.0272 3.46402   2
   4   0 -16 6.17425 2.05129   1
  -4   0  16 3.41482 1.77253   2
   3   0 -16 -0.6143 1.89830   1
  -3   0  16 1.98294 1.67618   2
   2   0 -16 6.03639 2.20579   1
  -2   0  16 5.55529 1.80324   2
   0   0   0    0.00    0.00   0
;
_shelx_hkl_checksum              98881
loop_
_space_group_symop_operation_xyz
'x, y, z'
'-x, -y, -z'
loop_
_atom_site_label
_atom_site_type_symbol
_atom_site_fract_x
_atom_site_fract_y
_atom_site_fract_z
_atom_site_U_iso_or_equiv
_atom_site_adp_type
_atom_site_occupancy
_atom_site_site_symmetry_order
_atom_site_calc_flag
_atom_site_refinement_flags_posn
_atom_site_refinement_flags_adp
Cu1 Cu 0.52471(3) 0.53281(2) 0.64090(2) 0.01842(8) Uani 1 1 d . .
N1 N 0.2992(2) 0.93104(18) 0.62944(15) 0.0208(3) Uani 1 1 d . .
C2 C 0.2303(3) 1.0336(2) 0.56987(17) 0.0222(4) Uani 1 1 d . .
H2 H 0.1951 1.1228 0.6149 0.027 Uiso 1 1 calc R U
N3 N 0.2113(2) 1.01446(18) 0.45587(15) 0.0221(3) Uani 1 1 d . .
C4 C 0.2679(3) 0.8850(2) 0.39966(17) 0.0201(4) Uani 1 1 d . .
C5 C 0.6567(2) 0.2245(2) 0.55069(16) 0.0186(3) Uani 1 1 d . .
N6 N 0.4126(2) 0.72156(19) 0.65535(14) 0.0211(3) Uani 1 1 d . .
C6 C 0.3579(2) 0.7969(2) 0.57417(17) 0.0188(3) Uani 1 1 d . .
N7 N 0.6206(2) 0.33628(18) 0.64174(14) 0.0202(3) Uani 1 1 d . .
C8 C 0.6750(3) 0.2934(2) 0.74162(17) 0.0223(4) Uani 1 1 d . .
H8 H 0.6668 0.3504 0.8189 0.027 Uiso 1 1 calc R U
N9 N 0.2569(2) 0.83938(18) 0.27804(15) 0.0212(3) Uani 1 1 d . .
C91 C 0.1743(3) 0.9197(2) 0.19032(19) 0.0286(4) Uani 1 1 d . .
H91A H 0.2423 1.0328 0.2178 0.034 Uiso 1 1 calc R U
H91B H 0.0391 0.9158 0.1884 0.034 Uiso 1 1 calc R U
C92 C 0.1864(4) 0.8446(3) 0.0637(2) 0.0403(6) Uani 1 1 d . .
H92C H 0.3192 0.8432 0.0659 0.060 Uiso 1 1 calc R U
H92A H 0.1384 0.9063 0.0101 0.060 Uiso 1 1 calc R U
H92B H 0.1093 0.7355 0.0332 0.060 Uiso 1 1 calc R U
C10 C 0.3882(3) 0.8077(2) 0.76361(18) 0.0247(4) Uani 1 1 d . .
H10 H 0.4156 0.7799 0.8374 0.030 Uiso 1 1 calc R U
C11 C 0.3204(3) 0.9357(2) 0.75019(18) 0.0252(4) Uani 1 1 d . .
H11 H 0.2927 1.0134 0.8108 0.030 Uiso 1 1 calc R U
C1F C 0.1505(3) 0.3574(2) 0.48447(17) 0.0211(4) Uani 1 1 d . .
O1F O 0.32356(18) 0.41701(15) 0.49155(12) 0.0207(3) Uani 1 1 d . .
O2F O 0.0836(2) 0.35502(19) 0.56888(14) 0.0311(3) Uani 1 1 d . .
O1W O 0.7374(2) 0.65565(17) 0.78569(14) 0.0247(3) Uani 1 1 d . .
H1W H 0.831(4) 0.630(3) 0.791(3) 0.038(8) Uiso 1 1 d . .
H2W H 0.726(4) 0.672(3) 0.846(3) 0.037(8) Uiso 1 1 d . .
O2W O 0.0510(3) 0.5482(2) 0.78528(18) 0.0372(4) Uani 1 1 d . .
H3W H 0.065(4) 0.496(3) 0.725(3) 0.040(8) Uiso 1 1 d . .
H4W H 0.120(5) 0.538(4) 0.839(3) 0.046(9) Uiso 1 1 d . .
N2N N 0.7004(3) 0.6591(2) 0.06529(16) 0.0342(4) Uani 1 1 d . .
O21 O 0.7393(3) 0.5321(2) 0.01531(15) 0.0473(5) Uani 1 1 d . .
O22 O 0.6749(3) 0.7587(2) 0.00666(15) 0.0415(4) Uani 1 1 d . .
O23 O 0.6895(3) 0.6883(2) 0.17085(15) 0.0473(5) Uani 1 1 d . .
H1F H 0.073(3) 0.310(3) 0.405(2) 0.022(5) Uiso 1 1 d . .
loop_
_atom_site_aniso_label
_atom_site_aniso_U_11
_atom_site_aniso_U_22
_atom_site_aniso_U_33
_atom_site_aniso_U_23
_atom_site_aniso_U_13
_atom_site_aniso_U_12
Cu1 0.02149(13) 0.01657(12) 0.01607(12) 0.00053(8) 0.00528(8) 0.00762(8)
N1 0.0194(7) 0.0184(8) 0.0219(8) -0.0002(6) 0.0054(6) 0.0066(6)
C2 0.0209(9) 0.0185(9) 0.0256(10) 0.0012(7) 0.0068(7) 0.0076(7)
N3 0.0221(8) 0.0169(7) 0.0264(8) 0.0031(6) 0.0068(6) 0.0063(6)
C4 0.0187(8) 0.0171(8) 0.0231(9) 0.0028(7) 0.0067(7) 0.0034(7)
C5 0.0168(8) 0.0162(8) 0.0201(9) 0.0006(7) 0.0049(7) 0.0033(6)
N6 0.0235(8) 0.0206(8) 0.0174(7) 0.0003(6) 0.0057(6) 0.0085(6)
C6 0.0168(8) 0.0160(8) 0.0214(9) 0.0000(7) 0.0056(7) 0.0051(6)
N7 0.0235(8) 0.0180(7) 0.0177(7) 0.0013(6) 0.0054(6) 0.0067(6)
C8 0.0264(9) 0.0181(9) 0.0213(9) 0.0021(7) 0.0077(7) 0.0061(7)
N9 0.0248(8) 0.0170(7) 0.0216(8) 0.0042(6) 0.0067(6) 0.0056(6)
C91 0.0383(12) 0.0243(10) 0.0255(10) 0.0088(8) 0.0080(8) 0.0123(8)
C92 0.0575(15) 0.0414(13) 0.0253(11) 0.0099(10) 0.0095(10) 0.0232(11)
C10 0.0292(10) 0.0259(10) 0.0183(9) 0.0005(7) 0.0078(7) 0.0116(8)
C11 0.0273(10) 0.0253(10) 0.0216(9) -0.0001(7) 0.0085(7) 0.0108(8)
C1F 0.0224(9) 0.0203(9) 0.0195(9) 0.0051(7) 0.0031(7) 0.0070(7)
O1F 0.0212(6) 0.0206(6) 0.0182(6) 0.0017(5) 0.0057(5) 0.0044(5)
O2F 0.0320(8) 0.0361(8) 0.0296(8) 0.0103(6) 0.0156(6) 0.0089(6)
O1W 0.0280(8) 0.0250(7) 0.0179(7) -0.0001(6) 0.0036(6) 0.0110(6)
O2W 0.0390(10) 0.0475(10) 0.0279(9) 0.0085(8) 0.0080(8) 0.0239(8)
N2N 0.0413(11) 0.0389(11) 0.0211(9) 0.0013(7) 0.0057(8) 0.0211(9)
O21 0.0763(13) 0.0425(10) 0.0250(8) 0.0009(7) 0.0112(8) 0.0375(9)
O22 0.0618(11) 0.0393(9) 0.0287(8) 0.0088(7) 0.0138(8) 0.0266(8)
O23 0.0729(13) 0.0512(11) 0.0232(8) 0.0052(7) 0.0169(8) 0.0326(10)
loop_
_atom_type_symbol
_atom_type_description
_atom_type_scat_dispersion_real
_atom_type_scat_dispersion_imag
_atom_type_scat_source
C C 0.0033 0.0016 'International Tables Vol C Tables 4.2.6.8 and 6.1.1.4'
H H 0.0000 0.0000 'International Tables Vol C Tables 4.2.6.8 and 6.1.1.4'
N N 0.0061 0.0033 'International Tables Vol C Tables 4.2.6.8 and 6.1.1.4'
O O 0.0106 0.0060 'International Tables Vol C Tables 4.2.6.8 and 6.1.1.4'
Cu Cu 0.3201 1.2651 'International Tables Vol C Tables 4.2.6.8 and 6.1.1.4'
loop_
_geom_angle_atom_site_label_1
_geom_angle_atom_site_label_2
_geom_angle_atom_site_label_3
_geom_angle
_geom_angle_site_symmetry_1
_geom_angle_site_symmetry_3
O1F Cu1 N6 90.68(6) . .
O1F Cu1 O1W 176.36(6) . .
N6 Cu1 O1W 89.07(6) . .
O1F Cu1 N7 90.43(6) . .
N6 Cu1 N7 172.63(6) . .
O1W Cu1 N7 90.28(6) . .
O1F Cu1 O1F 81.57(5) . 2_666
N6 Cu1 O1F 95.21(6) . 2_666
O1W Cu1 O1F 94.83(6) . 2_666
N7 Cu1 O1F 92.16(6) . 2_666
C2 N1 C11 128.46(16) . .
C2 N1 C6 124.16(17) . .
C11 N1 C6 107.37(16) . .
N3 C2 N1 123.02(17) . .
N3 C2 H2 118.5 . .
N1 C2 H2 118.5 . .
C2 N3 C4 114.15(17) . .
N3 C4 N9 124.30(17) . .
N3 C4 C5 128.51(18) . 2_666
N9 C4 C5 107.20(16) . 2_666
N7 C5 C4 108.45(16) . 2_666
N7 C5 C6 135.29(17) . 2_666
C4 C5 C6 116.18(16) 2_666 2_666
C6 N6 C10 106.51(16) . .
C6 N6 Cu1 130.35(13) . .
C10 N6 Cu1 123.02(13) . .
N6 C6 N1 109.30(16) . .
N6 C6 C5 136.77(17) . 2_666
N1 C6 C5 113.94(16) . 2_666
C8 N7 C5 105.48(15) . .
C8 N7 Cu1 122.98(12) . .
C5 N7 Cu1 131.43(13) . .
N7 C8 N9 112.84(16) . 2_666
N7 C8 H8 123.6 . .
N9 C8 H8 123.6 2_666 .
C8 N9 C4 106.02(16) 2_666 .
C8 N9 C91 129.32(17) 2_666 .
C4 N9 C91 124.55(16) . .
N9 C91 C92 112.37(17) . .
N9 C91 H91A 109.1 . .
C92 C91 H91A 109.1 . .
N9 C91 H91B 109.1 . .
C92 C91 H91B 109.1 . .
H91A C91 H91B 107.9 . .
C91 C92 H92C 109.5 . .
C91 C92 H92A 109.5 . .
H92C C92 H92A 109.5 . .
C91 C92 H92B 109.5 . .
H92C C92 H92B 109.5 . .
H92A C92 H92B 109.5 . .
C11 C10 N6 110.94(18) . .
C11 C10 H10 124.5 . .
N6 C10 H10 124.5 . .
C10 C11 N1 105.88(16) . .
C10 C11 H11 127.1 . .
N1 C11 H11 127.1 . .
O2F C1F O1F 126.46(18) . .
O2F C1F H1F 119.7(14) . .
O1F C1F H1F 113.8(14) . .
C1F O1F Cu1 126.14(12) . .
C1F O1F Cu1 134.47(12) . 2_666
Cu1 O1F Cu1 98.43(5) . 2_666
Cu1 O1W H1W 117(2) . .
Cu1 O1W H2W 122(2) . .
H1W O1W H2W 105(3) . .
H3W O2W H4W 109(3) . .
O23 N2N O21 120.8(2) . .
O23 N2N O22 120.20(18) . .
O21 N2N O22 119.04(19) . .
loop_
_geom_bond_atom_site_label_1
_geom_bond_atom_site_label_2
_geom_bond_distance
_geom_bond_site_symmetry_2
Cu1 O1F 1.9580(13) .
Cu1 N6 1.9769(15) .
Cu1 O1W 1.9818(15) .
Cu1 N7 1.9913(16) .
Cu1 O1F 2.2103(13) 2_666
N1 C2 1.375(2) .
N1 C11 1.389(3) .
N1 C6 1.398(2) .
C2 N3 1.287(3) .
C2 H2 0.9500 .
N3 C4 1.360(2) .
C4 N9 1.374(2) .
C4 C5 1.382(3) 2_666
C5 N7 1.382(2) .
C5 C4 1.382(3) 2_666
C5 C6 1.417(3) 2_666
N6 C6 1.326(2) .
N6 C10 1.387(2) .
C6 C5 1.417(3) 2_666
N7 C8 1.324(2) .
C8 N9 1.347(2) 2_666
C8 H8 0.9500 .
N9 C8 1.347(2) 2_666
N9 C91 1.475(2) .
C91 C92 1.510(3) .
C91 H91A 0.9900 .
C91 H91B 0.9900 .
C92 H92C 0.9800 .
C92 H92A 0.9800 .
C92 H92B 0.9800 .
C10 C11 1.346(3) .
C10 H10 0.9500 .
C11 H11 0.9500 .
C1F O2F 1.212(2) .
C1F O1F 1.282(2) .
C1F H1F 0.94(2) .
O1F Cu1 2.2103(13) 2_666
O1W H1W 0.76(3) .
O1W H2W 0.71(3) .
O2W H3W 0.79(3) .
O2W H4W 0.75(3) .
N2N O23 1.234(2) .
N2N O21 1.250(2) .
N2N O22 1.264(3) .
loop_
_geom_torsion_atom_site_label_1
_geom_torsion_atom_site_label_2
_geom_torsion_atom_site_label_3
_geom_torsion_atom_site_label_4
_geom_torsion
_geom_torsion_site_symmetry_1
_geom_torsion_site_symmetry_4
C11 N1 C2 N3 -177.65(19) . .
C6 N1 C2 N3 0.8(3) . .
N1 C2 N3 C4 -0.9(3) . .
C2 N3 C4 N9 178.61(17) . .
C2 N3 C4 C5 -0.8(3) . 2_666
C10 N6 C6 N1 0.2(2) . .
Cu1 N6 C6 N1 -175.93(12) . .
C10 N6 C6 C5 -179.2(2) . 2_666
Cu1 N6 C6 C5 4.6(3) . 2_666
C2 N1 C6 N6 -178.66(17) . .
C11 N1 C6 N6 0.0(2) . .
C2 N1 C6 C5 0.9(3) . 2_666
C11 N1 C6 C5 179.64(16) . 2_666
C4 C5 N7 C8 0.5(2) 2_666 .
C6 C5 N7 C8 -176.2(2) 2_666 .
C4 C5 N7 Cu1 176.68(13) 2_666 .
C6 C5 N7 Cu1 0.0(3) 2_666 .
C5 N7 C8 N9 -0.4(2) . 2_666
Cu1 N7 C8 N9 -177.03(12) . 2_666
N3 C4 N9 C8 -179.62(17) . 2_666
C5 C4 N9 C8 -0.1(2) 2_666 2_666
N3 C4 N9 C91 -3.0(3) . .
C5 C4 N9 C91 176.51(18) 2_666 .
C8 N9 C91 C92 -5.5(3) 2_666 .
C4 N9 C91 C92 178.73(19) . .
C6 N6 C10 C11 -0.4(2) . .
Cu1 N6 C10 C11 176.07(14) . .
N6 C10 C11 N1 0.5(2) . .
C2 N1 C11 C10 178.33(18) . .
C6 N1 C11 C10 -0.3(2) . .
O2F C1F O1F Cu1 -4.1(3) . .
O2F C1F O1F Cu1 -170.28(14) . 2_666
