#------------------------------------------------------------------------------
#$Date: 2019-11-23 10:34:41 +0200 (Sat, 23 Nov 2019) $
#$Revision: 232892 $
#$URL: file:///home/coder/svn-repositories/cod/cif/4/34/83/4348372.cif $
#------------------------------------------------------------------------------
#
# This file is available in the Crystallography Open Database (COD),
# http://www.crystallography.net/
#
# All data on this site have been placed in the public domain by the
# contributors.
#
data_4348372
loop_
_publ_author_name
'Liu, Guangfeng'
'Liu, Jie'
'Sun, Zhihua'
'Zhang, Zhenyi'
'Chang, Lei'
'Wang, Junling'
'Tao, Xutang'
'Zhang, Qichun'
_publ_section_title
;
 Thermally Induced Reversible Double Phase Transitions in an
 Organic-Inorganic Hybrid Iodoplumbate C4H12NPbI3 with Symmetry Breaking.
;
_journal_issue                   16
_journal_name_full               'Inorganic chemistry'
_journal_page_first              8025
_journal_page_last               8030
_journal_paper_doi               10.1021/acs.inorgchem.6b01143
_journal_volume                  55
_journal_year                    2016
_chemical_formula_sum            'C4 H12 I3 N Pb'
_chemical_formula_weight         662.04
_space_group_crystal_system      hexagonal
_space_group_IT_number           176
_space_group_name_Hall           '-P 6c'
_space_group_name_H-M_alt        'P 63/m'
_atom_sites_solution_hydrogens   geom
_audit_creation_method           SHELXL-2014/7
_cell_angle_alpha                90
_cell_angle_beta                 90
_cell_angle_gamma                120
_cell_formula_units_Z            2
_cell_length_a                   9.798(3)
_cell_length_b                   9.798(3)
_cell_length_c                   7.953(3)
_cell_measurement_reflns_used    5523
_cell_measurement_temperature    293(2)
_cell_measurement_theta_max      27.55
_cell_measurement_theta_min      2.40
_cell_volume                     661.2(4)
_computing_cell_refinement       'Bruker SAINT'
_computing_data_collection       'Bruker APEX2'
_computing_data_reduction        'Bruker SAINT'
_computing_molecular_graphics    'Bruker SHELXTL'
_computing_publication_material  'Bruker SHELXTL'
_computing_structure_refinement  'SHELXL-2014/7 (Sheldrick, 2014)'
_computing_structure_solution    'SHELXS-97 (Sheldrick 2008)'
_diffrn_ambient_temperature      293(2)
_diffrn_measured_fraction_theta_full 1.000
_diffrn_measured_fraction_theta_max 0.998
_diffrn_measurement_device_type  'Bruker APEX-II CCD'
_diffrn_measurement_method       '\f and \w scans'
_diffrn_radiation_source         'sealed tube'
_diffrn_radiation_type           MoK\a
_diffrn_radiation_wavelength     0.71073
_diffrn_reflns_av_R_equivalents  0.0486
_diffrn_reflns_av_unetI/netI     0.0191
_diffrn_reflns_Laue_measured_fraction_full 1.000
_diffrn_reflns_Laue_measured_fraction_max 0.998
_diffrn_reflns_limit_h_max       12
_diffrn_reflns_limit_h_min       -12
_diffrn_reflns_limit_k_max       12
_diffrn_reflns_limit_k_min       -12
_diffrn_reflns_limit_l_max       10
_diffrn_reflns_limit_l_min       -10
_diffrn_reflns_number            7502
_diffrn_reflns_point_group_measured_fraction_full 1.000
_diffrn_reflns_point_group_measured_fraction_max 0.998
_diffrn_reflns_theta_full        25.242
_diffrn_reflns_theta_max         27.583
_diffrn_reflns_theta_min         2.400
_exptl_absorpt_coefficient_mu    19.710
_exptl_absorpt_correction_T_max  0.0182
_exptl_absorpt_correction_T_min  0.0042
_exptl_absorpt_correction_type   multi-scan
_exptl_absorpt_process_details   'Bruker SADABS'
_exptl_crystal_colour            colourless
_exptl_crystal_density_diffrn    3.325
_exptl_crystal_description       prism
_exptl_crystal_F_000             568
_exptl_crystal_size_max          0.495
_exptl_crystal_size_mid          0.298
_exptl_crystal_size_min          0.214
_refine_diff_density_max         2.580
_refine_diff_density_min         -0.829
_refine_diff_density_rms         0.214
_refine_ls_extinction_coef       0.0059(8)
_refine_ls_extinction_expression Fc^*^=kFc[1+0.001xFc^2^\l^3^/sin(2\q)]^-1/4^
_refine_ls_extinction_method     'SHELXL-2014/7 (Sheldrick 2014'
_refine_ls_goodness_of_fit_ref   0.943
_refine_ls_hydrogen_treatment    constr
_refine_ls_matrix_type           full
_refine_ls_number_parameters     33
_refine_ls_number_reflns         557
_refine_ls_number_restraints     13
_refine_ls_restrained_S_all      0.932
_refine_ls_R_factor_all          0.0310
_refine_ls_R_factor_gt           0.0304
_refine_ls_shift/su_max          0.000
_refine_ls_shift/su_mean         0.000
_refine_ls_structure_factor_coef Fsqd
_refine_ls_weighting_details
'w=1/[\s^2^(Fo^2^)+(0.0584P)^2^+2.5940P] where P=(Fo^2^+2Fc^2^)/3'
_refine_ls_weighting_scheme      calc
_refine_ls_wR_factor_gt          0.0780
_refine_ls_wR_factor_ref         0.0787
_reflns_Friedel_coverage         0.000
_reflns_number_gt                544
_reflns_number_total             557
_reflns_threshold_expression     'I > 2\s(I)'
_cod_data_source_file            ic6b01143_si_004.cif
_cod_data_source_block           02_a
_cod_original_cell_volume        661.2(5)
_cod_database_code               4348372
_shelx_shelxl_version_number     2014/7
_shelx_space_group_comment
;
The symmetry employed for this shelxl refinement is uniquely defined
by the following loop, which should always be used as a source of
symmetry information in preference to the above space-group names.
They are only intended as comments.
;
_shelx_estimated_absorpt_t_min   0.037
_shelx_estimated_absorpt_t_max   0.101
_shelx_res_file
;

    02_a.res created by SHELXL-2014/7


TITL 02_a.res in P6(3)/m
CELL  0.71073   9.7983   9.7983   7.9526   90.000   90.000  120.000
ZERR    2.000   0.0032   0.0032   0.0026    0.000    0.000    0.000
LATT 1
SYMM -Y, X-Y, Z
SYMM -X+Y, -X, Z
SYMM -X, -Y, 1/2+Z
SYMM Y, -X+Y, 1/2+Z
SYMM X-Y, X, 1/2+Z
SFAC C  H  N  I  Pb
UNIT 8 24 2 6 2
LIST 4 ! automatically inserted. Change 6 to 4 for CHECKCIF!!
L.S. 6
ACTA
BOND $H
FMAP 2
PLAN 20
TWIN 0 1 0 1 0 0 0 0 -1
TEMP 23.000
SIZE 0.214 0.298 0.495
SADI N1 C1 N1 C2
ISOR C1 C2
simu C1 C2
Delu C1 C2
WGHT    0.058400    2.594000
EXTI    0.005913
BASF   0.48877
FVAR       0.36351
PB01  5    0.000000    0.000000    0.500000    10.16667    0.04514    0.04514 =
         0.03124    0.00000    0.00000    0.02257

N1    3    0.333333    0.666667    0.750000    10.16667    0.03607    0.03607 =
         0.05496    0.00000    0.00000    0.01804
DFIX 0.87 N1 H1
I002  4    0.299494    0.172056    0.750000    10.50000    0.03966    0.05699 =
         0.05715    0.00000    0.00000    0.01680
PART -1
ISOR C1 C2
simu C1 C2
Delu C1 C2
C1    1    0.466834    0.647348    0.714531    10.25000    0.02925    0.05452 =
         0.09782    0.03478    0.04039    0.02594
AFIX 137
H1A   2    0.439842    0.570390    0.627187    10.25000   -1.50000
H1B   2    0.495744    0.612590    0.814251    10.25000   -1.50000
H1C   2    0.553908    0.746187    0.678510    10.25000   -1.50000

AFIX   0
C2    1    0.244797    0.581958    0.600974    10.25000    0.09446    0.12730 =
         0.03471   -0.02148   -0.02450    0.06474
AFIX 137
H2A   2    0.315650    0.607336    0.507683    10.25000   -1.50000
H2B   2    0.167814    0.612157    0.575243    10.25000   -1.50000
H2C   2    0.192634    0.470608    0.621878    10.25000   -1.50000
PART 0
AFIX   0
HKLF 4

REM  02_a.res in P6(3)/m
REM R1 =  0.0304 for     544 Fo > 4sig(Fo)  and  0.0310 for all     557 data
REM     33 parameters refined using     13 restraints

END

WGHT      0.0497      1.4715

REM Highest difference peak  2.580,  deepest hole -0.829,  1-sigma level  0.214
Q1    1   0.0000  0.0000  0.6050  10.33333  0.05    2.58
Q2    1   0.3004  0.1026  0.7500  10.50000  0.05    1.50
Q3    1   0.3042  0.1797  0.8564  11.00000  0.05    1.16
Q4    1  -0.0775 -0.0571  0.5019  11.00000  0.05    1.13
Q5    1   0.1216 -0.0180  0.6092  11.00000  0.05    0.44
Q6    1  -0.1152  0.0137  0.6059  11.00000  0.05    0.38
Q7    1   0.3754  0.5818  0.2500  10.50000  0.05    0.33
Q8    1   0.1644  0.0306  0.8749  11.00000  0.05    0.32
Q9    1   0.4349  0.3169  0.8971  11.00000  0.05    0.32
Q10   1   0.4271  0.1571  0.8885  11.00000  0.05    0.30
Q11   1   0.6684  0.9222  0.6250  11.00000  0.05    0.29
Q12   1   0.5050  0.4846  0.6048  11.00000  0.05    0.28
Q13   1   0.2379  0.4872  0.6147  11.00000  0.05    0.28
Q14   1   0.2858  0.6638  0.6358  11.00000  0.05    0.27
Q15   1   0.4220  0.6230  0.3794  11.00000  0.05    0.27
Q16   1   0.1785  0.2055  0.8686  11.00000  0.05    0.27
Q17   1   0.2292  0.0220  0.8670  11.00000  0.05    0.26
Q18   1   0.3145  0.5738  0.4196  11.00000  0.05    0.26
Q19   1   0.2631  0.5037  0.3611  11.00000  0.05    0.24
Q20   1   0.1391  0.4794  0.6070  11.00000  0.05    0.24
;
_shelx_res_checksum              18783
_shelx_hkl_file
;
   1   0   0 3614.44  232.28
  -1   1   0 4229.48  224.98
   0  -1   0 3722.53  224.48
   0   1   0 3419.16  222.48
  -1   0   0 3704.83  226.38
  -1   0   0 3703.13  224.98
   1  -1   0 3840.22  222.58
   1  -2   0 1175.78   69.29
   1   1   0 1000.00   66.39
   1   1   0 1138.19   67.49
  -2   1   0 1060.99   67.59
  -2   1   0 1248.78   66.89
   1  -2   0 1193.48   66.99
  -1   2   0 1006.10   67.59
  -1   2   0 1121.89   66.39
   2  -1   0 1035.80   69.29
  -1  -1   0 1163.58   69.09
   2  -1   0 1122.99   66.19
   0  -2   0   31.90    2.50
   2   0   0   33.90    2.30
  -2   2   0   34.40    2.30
   2   0   0   34.50    2.30
  -2   2   0   27.00    2.80
  -2   0   0   30.00    2.20
   0   2   0   30.00    2.50
  -2   0   0   33.30    2.30
   2  -2   0   29.70    2.70
   0   2   0   35.70    2.30
   2  -2   0   31.80    2.20
  -3   1   0 1740.13   91.59
   2  -3   0 1612.24   91.59
   1   2   0 1295.97   90.79
   1   2   0 1570.54   92.19
  -1  -2   0 1338.07   91.69
   3  -1   0 1479.55   94.69
  -2   3   0 1533.65   90.69
  -1  -2   0 1578.24   94.39
   3  -1   0 1564.34   90.49
  -3   2   0 1494.75   89.49
   1  -3   0 1637.24   92.79
   1  -3   0 1500.55   89.69
   2   1   0 1339.37   88.79
  -2  -1   0 1585.04   90.09
  -1   3   0 1467.35   88.89
   3  -2   0 1402.36   88.49
  -2  -1   0 1699.13   92.49
  -1   3   0 1471.05   90.39
   3  -2   0 1314.97   92.79
   0  -3   0  510.75   32.40
  -3   3   0  500.75   32.80
   0  -3   0  568.64   33.20
  -3   3   0  537.45   32.10
   3   0   0  543.85   33.10
   3   0   0  501.05   31.80
   3  -3   0  530.35   31.70
  -3   0   0  534.95   32.20
   0   3   0  532.15   32.10
   0   3   0  570.24   32.30
  -3   0   0  515.25   32.30
   3  -3   0  502.75   33.50
   3  -4   0 3807.72  216.58
  -4   1   0 3904.51  216.58
  -4   1   0 3395.56  218.38
   1   3   0 3192.08  214.68
   1   3   0 3751.92  218.58
  -1  -3   0 3335.77  216.88
  -3   4   0 3958.80  214.48
   4  -1   0 3469.45  214.28
  -1  -3   0 3838.52  223.98
   4  -1   0 3568.04  223.98
  -3   4   0 3520.05  218.68
  -4   2   0 8061.49  537.45
  -4   2   0 9521.35  533.75
   2   2   0 9210.18  537.55
   2  -4   0 9999.00  553.74
   2  -4   0 9993.80  534.75
  -2   4   0 8294.97  528.95
  -2   4   0 7885.91  537.45
   4  -2   0 9057.19  528.35
  -2  -2   0 8789.52  533.05
  -2  -2   0 9399.66  551.74
   4  -2   0 7706.43  552.24
  -4   3   0 3647.64  219.48
   3   1   0 3508.45  217.48
   1  -4   0 3684.33  219.68
   3   1   0 3811.62  227.28
   1  -4   0 4085.79  227.08
  -1   4   0 3365.06  217.58
  -1   4   0 3730.13  221.28
  -3  -1   0 3716.43  221.28
   4  -3   0 3372.46  217.18
  -3  -1   0 3690.93  219.58
  -4   4   0  204.48   13.60
   4   0   0  209.08   13.40
  -4   4   0  205.58   13.00
   0  -4   0  212.38   13.40
   4   0   0  199.88   12.90
   0  -4   0  200.88   13.40
   0   4   0  215.38   13.30
  -4   0   0  203.58   13.10
   4  -4   0  205.28   12.80
   0   4   0  219.58   13.00
  -4   0   0  208.68   13.10
   4  -4   0  200.58   13.80
   4  -5   0  721.63   43.80
   1   4   0  691.53   43.80
   1   4   0  761.92   43.90
   4  -5   0  684.03   45.70
   5  -1   0  714.23   45.40
  -4   5   0  797.32   44.70
  -1  -4   0  675.63   45.10
  -1  -4   0  639.14   44.20
  -4   5   0  812.52   43.40
   2   3   0 3961.10  274.87
   2   3   0 4551.94  279.67
   3  -5   0 4741.43  287.17
  -5   2   0 5071.99  277.57
   3  -5   0 5053.89  277.47
  -5   2   0 4409.56  279.87
  -2  -3   0 4757.12  287.17
  -3   5   0 4753.12  274.77
  -3   5   0 4382.96  279.87
   5  -2   0 4617.54  286.97
   5  -2   0 4613.24  274.97
  -2  -3   0 4617.54  277.77
   3   2   0 4987.90  294.67
   2  -5   0 5294.07  294.27
   3   2   0 4468.55  281.67
   2  -5   0 4975.30  284.47
  -5   3   0 4856.61  284.17
  -2   5   0 4392.56  281.77
  -3  -2   0 4857.41  294.17
   5  -3   0 4226.48  294.17
  -3  -2   0 4711.13  284.57
   5  -3   0 4547.84  281.87
  -3  -2   0 5029.00  286.17
  -2   5   0 4571.04  286.77
   4   1   0  704.63   42.00
   4   1   0  739.73   43.60
   1  -5   0  709.73   43.80
   1  -5   0  733.53   42.70
  -5   4   0  618.14   43.10
  -5   4   0  688.43   42.20
   5  -4   0  627.54   41.60
   5  -4   0  636.14   44.10
  -4  -1   0  705.73   42.50
  -1   5   0  732.63   42.70
  -1   5   0  721.33   42.30
  -4  -1   0  729.43   42.50
  -5   5   0  159.08   10.10
  -5   5   0  159.28   10.80
   0  -5   0  150.48   10.70
   5   0   0  149.79   10.00
   0  -5   0  158.88   10.40
   5   0   0  156.28   10.50
   0   5   0  156.88   10.50
  -5   0   0  154.68   10.30
   5  -5   0  163.68    9.90
   5  -5   0  154.28   10.90
   0   5   0  153.78   10.00
  -5   0   0  158.68   10.30
   5  -6   0  542.85   34.10
   5  -6   0  540.35   32.50
  -6   1   0  553.14   33.10
   1   5   0  518.65   32.40
   1   5   0  530.05   32.70
  -6   1   0  514.35   32.60
  -5   6   0  517.25   33.20
   6  -1   0  493.95   33.70
  -1  -5   0  563.44   33.20
   6  -1   0  539.35   32.10
  -5   6   0  508.55   32.00
  -1  -5   0  536.95   33.40
  -6   2   0  174.08   11.80
  -6   2   0  179.48   11.20
   4  -6   0  165.58   11.20
   4  -6   0  179.38   12.10
   2   4   0  165.78   10.80
  -2  -4   0  168.08   11.20
  -4   6   0  194.08   11.80
   6  -2   0  169.68   11.80
  -4   6   0  168.58   11.10
   6  -2   0  176.88   10.80
  -2  -4   0  161.28   11.70
  -6   3   0  476.95   32.20
   3  -6   0  516.05   31.60
  -6   3   0  570.64   31.40
   3  -6   0  521.65   32.90
   3   3   0  508.25   31.50
  -3  -3   0  525.45   31.20
  -3   6   0  461.15   31.90
   6  -3   0  499.05   30.70
   6  -3   0  507.05   32.80
  -3   6   0  515.05   31.30
  -3  -3   0  539.15   32.00
  -3  -3   0  498.55   32.10
   2  -6   0  175.68   12.10
  -6   4   0  159.68   12.20
  -6   4   0  177.78   11.40
   4   2   0  189.18   11.80
   2  -6   0  182.98   11.90
   4   2   0  178.18   11.60
  -2   6   0  204.48   12.00
  -4  -2   0  181.68   11.90
  -4  -2   0  177.98   11.30
   6  -4   0  167.98   11.00
  -2   6   0  183.78   11.90
   6  -4   0  157.98   12.30
   5   1   0  549.54   34.40
  -6   5   0  557.74   33.40
   5   1   0  531.75   33.20
  -6   5   0  619.84   34.50
   1  -6   0  516.85   34.60
   1  -6   0  527.15   33.90
   6  -5   0  525.55   32.80
   6  -5   0  547.05   35.00
  -1   6   0  576.84   33.60
  -5  -1   0  514.25   33.70
  -1   6   0  546.05   33.70
  -5  -1   0  534.45   33.60
  -6   6   0 2401.66  143.39
  -6   6   0 2426.56  144.99
  -6   6   0 2538.25  146.79
   6   0   0 2343.37  149.99
   0  -6   0 2429.56  145.69
   6   0   0 2351.16  143.69
   0  -6   0 2369.66  149.79
   6  -6   0 2507.15  150.38
   0   6   0 2245.08  145.89
  -6   0   0 2397.36  145.29
   0   6   0 2340.37  144.09
  -6   0   0 2586.84  146.39
   1   6   0 1916.31  112.59
   6  -7   0 1909.21  117.39
  -7   1   0 2066.09  114.59
   6  -7   0 1862.51  112.89
  -7   1   0 1774.62  113.09
  -6   7   0 1865.01  114.39
   7  -1   0 1736.13  111.79
  -1  -6   0 2034.70  113.89
   7  -1   0 1764.82  116.99
  -1  -6   0 1820.12  116.59
   5  -7   0  376.56   25.00
  -7   2   0  399.46   24.50
  -7   2   0  351.36   23.60
   5  -7   0  379.96   23.60
   2   5   0  395.96   24.10
  -5   7   0  370.56   24.30
  -5   7   0  375.56   23.30
  -2  -5   0  382.46   24.10
   7  -2   0  348.87   23.00
  -2  -5   0  443.46   24.60
   7  -2   0  348.67   24.60
   3   4   0   84.29    6.50
   4  -7   0   77.09    6.00
   4  -7   0   71.09    6.60
  -7   3   0   89.09    5.80
  -7   3   0   84.79    7.00
  -4   7   0   74.19    6.40
   7  -3   0   78.89    5.40
  -3  -4   0   76.39    5.60
  -3  -4   0   73.19    6.50
   7  -3   0   73.99    6.40
  -4   7   0   89.19    6.20
   3  -7   0   80.19    6.60
  -7   4   0   78.69    7.00
   4   3   0   79.19    6.40
   4   3   0   83.09    5.80
  -7   4   0   82.99    5.90
   3  -7   0   91.59    6.60
  -3   7   0   95.69    6.50
   7  -4   0   72.89    6.80
  -4  -3   0   89.19    6.80
  -3   7   0   80.09    6.50
   7  -4   0   76.69    5.50
   2  -7   0  345.07   24.90
  -7   5   0  422.16   25.10
   5   2   0  368.86   24.60
  -7   5   0  392.76   24.00
   5   2   0  372.96   24.10
   2  -7   0  385.56   24.60
  -2   7   0  413.06   24.40
  -2   7   0  385.26   24.40
  -5  -2   0  367.66   24.50
   7  -5   0  414.26   25.50
   1  -7   0 1668.53  116.89
  -7   6   0 1958.40  113.09
  -7   6   0 2167.28  114.89
   6   1   0 1842.92  112.19
   6   1   0 1789.52  116.89
   1  -7   0 1877.21  113.79
  -1   7   0 1974.00  112.59
   7  -6   0 1903.01  117.39
  -1   7   0 1780.92  113.89
  -6  -1   0 1808.12  113.49
  -7   7   0 1908.51  110.49
   7   0   0 1751.12  107.99
   0  -7   0 1966.60  109.89
   0  -7   0 1614.94  112.39
   7   0   0 1777.12  112.79
  -7   0   0 1742.13  109.29
   7  -7   0 1767.52  112.99
   0   7   0 1924.01  108.69
   1   7   0  470.55   29.10
  -8   1   0  427.36   28.80
   7  -8   0  436.06   30.00
  -7   8   0  496.45   29.60
   8  -1   0  451.55   30.00
   8  -1   0  434.56   28.20
  -1  -7   0  505.45   29.80
   6  -8   0  425.06   26.80
  -8   2   0  460.25   26.60
  -8   2   0  365.56   25.10
   2   6   0  416.26   25.70
   8  -2   0  378.76   26.40
  -2  -6   0  424.46   26.20
  -6   8   0  409.56   25.90
   8  -2   0  353.46   24.60
   3   5   0  822.42   48.70
   5  -8   0  737.03   50.59
  -8   3   0  848.02   49.80
  -8   3   0  758.02   48.30
   5  -8   0  769.72   48.40
  -5   8   0  872.61   49.40
   8  -3   0  725.23   47.50
   8  -3   0  852.41   50.69
  -3  -5   0  737.83   49.20
   4  -8   0 1078.79   66.19
   4   4   0 1000.40   63.29
   4  -8   0 1034.00   63.69
  -8   4   0 1048.50   63.19
  -8   4   0 1067.99   64.79
  -4  -4   0 1029.80   64.19
   8  -4   0 1001.10   66.09
  -4   8   0 1002.50   64.29
  -4   8   0 1104.59   63.09
   5   3   0  751.72   45.70
  -8   5   0  758.32   45.60
   5   3   0  735.03   46.90
  -8   5   0  690.53   46.70
   3  -8   0  750.12   47.60
   3  -8   0  806.72   46.30
  -3   8   0  743.13   45.60
  -3   8   0  730.33   46.30
   8  -5   0  664.03   47.70
  -5  -3   0  818.42   46.60
  -8   6   0  412.16   25.20
   6   2   0  378.56   24.30
   2  -8   0  345.47   25.10
   6   2   0  373.06   24.90
   2  -8   0  405.66   25.00
   8  -6   0  384.36   25.50
  -2   8   0  376.66   24.50
  -2   8   0  414.56   24.60
  -6  -2   0  393.66   24.90
   1  -8   0  451.45   30.50
   7   1   0  476.85   30.90
   7   1   0  448.46   29.70
  -8   7   0  547.55   31.00
  -7  -1   0  448.86   30.30
  -1   8   0  517.55   30.30
   8  -7   0  469.45   31.20
   0  -8   0   67.29    6.80
   8   0   0   83.99    6.80
  -8   8   0   80.59    6.80
  -8   0   0   73.99    6.50
   8  -8   0   74.29    6.70
   0   8   0   80.89    6.90
  -9   1   0   17.80    3.10
   1   8   0   23.30    4.10
   8  -9   0   11.70    3.20
  -8   9   0   25.00    3.80
   9  -1   0   18.00    2.90
  -1  -8   0   21.30    4.10
   9  -1   0   22.20    3.90
  -9   2   0   28.30    3.70
   7  -9   0   30.40    4.40
   2   7   0   33.90    4.70
  -2  -7   0   33.10    5.00
  -7   9   0   36.00    4.40
   9  -2   0   35.50    4.70
  -9   3   0  565.54   32.60
   6  -9   0  486.45   32.70
  -9   3   0  421.36   30.70
   3   6   0  523.35   31.60
   9  -3   0  526.25   32.80
  -3  -6   0  420.86   31.70
  -6   9   0  533.45   31.70
  -9   4   0 1149.78   69.99
   5  -9   0 1062.19   73.09
  -9   4   0 1287.07   71.99
  -4  -5   0 1025.20   70.99
   9  -4   0 1164.98   73.39
  -5   9   0 1222.48   71.29
   5   4   0 1127.09   67.49
  -9   5   0 1070.29   68.79
   4  -9   0 1088.39   70.29
  -4   9   0 1248.58   67.19
   9  -5   0 1015.00   70.29
  -4   9   0 1071.59   68.39
  -5  -4   0 1123.49   68.49
   3  -9   0  420.76   29.20
   3  -9   0  502.15   28.80
  -9   6   0  409.56   28.80
  -3   9   0  450.95   28.50
   9  -6   0  390.66   29.30
  -6  -3   0  467.15   28.90
  -3   9   0  486.35   28.20
   2  -9   0   26.20    3.70
   7   2   0   31.30    4.00
   2  -9   0   32.50    4.60
  -9   7   0   35.70    4.60
   9  -7   0   33.10    4.20
  -2   9   0   38.40    4.50
  -7  -2   0   25.70    4.10
   8   1   0   15.40    3.10
   1  -9   0   24.20    4.20
  -9   8   0   25.10    3.80
   9  -8   0   13.40    3.10
  -8  -1   0   14.40    3.40
  -1   9   0   17.10    3.50
   9   0   0   61.69    5.80
  -9   9   0   67.89    6.50
   0  -9   0   76.79    7.40
   0   9   0   72.39    6.80
   9  -9   0   66.29    6.60
  -9   0   0   60.99    6.20
 -10   1   0  202.08   16.60
   1   9   0  269.57   17.50
   9 -10   0  258.27   17.70
  -9  10   0  272.77   17.50
  -1  -9   0  245.78   18.00
 -10   2   0  119.49    9.60
   2   8   0  149.09   10.90
   8 -10   0  124.19   10.40
  -2  -8   0  125.49   10.80
  10  -2   0  145.89   11.10
  -8  10   0  130.59   10.30
   3   7   0   89.09    7.80
   7 -10   0   77.09    7.70
 -10   3   0   73.79    6.70
  -7  10   0   89.89    7.70
  10  -3   0   92.09    8.40
  -3  -7   0   88.79    8.40
   6 -10   0  140.39   11.90
   4   6   0  160.98   11.90
  -6  10   0  176.18   11.90
  10  -4   0  162.88   12.40
  -4  -6   0  131.69   12.00
 -10   5   0  231.78   15.00
   5 -10   0  187.88   14.60
   5   5   0  204.68   14.20
  -5  10   0  200.18   14.10
  10  -5   0  190.98   14.70
  -5  -5   0  166.98   14.30
 -10   6   0  156.48   11.40
   6   4   0  132.89   10.50
   4 -10   0  130.19   11.00
  10  -6   0  131.79   11.10
  -6  -4   0  150.28   11.40
  -4  10   0  147.19   10.70
   3 -10   0   72.09    7.10
   7   3   0   81.09    7.10
 -10   7   0   86.89    7.60
  -3  10   0   94.79    7.30
  10  -7   0   76.19    7.40
  -7  -3   0   81.79    7.60
   2 -10   0  149.39   10.90
 -10   8   0  131.09   10.20
   8   2   0  120.49    9.80
  -8  -2   0  122.89   10.20
  10  -8   0  117.79   10.00
  -2  10   0  137.59   10.10
 -10   9   0  212.38   16.10
   9   1   0  211.68   15.40
   1 -10   0  263.77   16.90
  -9  -1   0  214.08   16.00
  -1  10   0  251.67   16.20
 -10  10   0  236.18   15.80
   0 -10   0  215.18   16.10
   0  10   0  233.78   15.70
 -10   0   0  179.48   14.90
  10 -10   0  214.88   15.70
  10 -11   0  166.08   13.00
   1  10   0  200.58   13.70
 -11   1   0  140.89   12.30
 -10  11   0  183.68   13.00
  -1 -10   0  165.48   13.70
 -11   2   0  184.88   15.60
   9 -11   0  238.88   16.90
   2   9   0  262.07   17.10
  -9  11   0  242.78   16.60
  -2  -9   0  239.38   17.50
   3   8   0  294.77   19.40
   8 -11   0  253.47   19.40
  11  -3   0  268.47   20.00
  -3  -8   0  303.37   20.10
  -8  11   0  259.07   18.90
   7 -11   0  111.69   10.40
   4   7   0  129.39   10.50
  -7  11   0  130.99   10.10
  11  -4   0  125.59   11.30
  -4  -7   0  133.09   11.30
 -11   5   0   10.90    4.40
   6 -11   0    6.30    3.60
   5   6   0    8.70    3.60
  -6  11   0    9.10    3.60
  11  -5   0    5.40    3.80
  -5  -6   0   13.80    4.20
   6   5   0   10.10    3.70
 -11   6   0    7.70    3.60
   5 -11   0   11.10    3.90
  -6  -5   0    5.90    3.60
  11  -6   0   11.40    3.90
  -5  11   0    5.90    3.00
   4 -11   0  104.99   10.00
 -11   7   0  148.69   10.80
   7   4   0  117.09    9.90
  -7  -4   0  110.19   10.50
  11  -7   0  127.29   10.30
   8   3   0  258.27   18.40
 -11   8   0  319.77   19.40
  11  -8   0  253.17   18.90
  -8  -3   0  253.57   19.10
   9   2   0  197.18   14.90
 -11   9   0  234.58   15.70
  11  -9   0  204.88   15.60
  -9  -2   0  201.38   15.60
  -2  11   0  229.38   15.30
 -11  10   0  168.08   12.80
  10   1   0  148.89   11.70
 -10  -1   0  147.89   12.20
  -1  11   0  182.48   12.80
  11 -10   0  158.78   12.40
   0 -11   0   42.90    6.90
 -11   0   0   29.60    5.20
   0  11   0   40.00    6.20
   3   9   0  104.29   10.10
   9 -12   0   83.99    9.20
  -9  12   0  108.19    9.40
  -3  -9   0  109.09   10.60
   4   8   0  155.08   11.80
   8 -12   0  120.09   11.20
  12  -4   0  146.19   12.60
  -4  -8   0  132.49   12.30
  -8  12   0  129.99   11.10
   5   7   0   71.59    7.60
   7 -12   0   61.49    7.80
  12  -5   0   73.89    8.50
  -7  12   0   67.29    7.40
  -5  -7   0   69.09    8.60
 -12   6   0   44.90    6.50
   6   6   0   39.20    6.00
   6 -12   0   34.00    6.00
  12  -6   0   45.50    6.50
  -6  -6   0   35.20    6.30
  -6  12   0   37.10    5.60
 -12   7   0   84.99    8.50
   7   5   0   73.59    7.80
  12  -7   0   65.79    7.60
  -7  -5   0   53.39    7.80
   8   4   0  143.49   11.80
 -12   8   0  164.38   12.30
  -8  -4   0  132.79   12.10
  12  -8   0  135.79   11.60
   9   3   0   95.49    8.90
 -12   9   0  106.39    9.30
  12  -9   0   94.29    8.80
  -9  -3   0   84.09    9.60
   0   0  -1    3.60    0.40
   0   0  -1    5.10    0.60
   0   0  -1    3.10    0.40
  -1   0  -1   96.99    6.30
   1  -1  -1  100.69    6.50
   0   1  -1  116.79    6.30
  -1   0  -1  101.09    6.20
  -1   0  -1   98.19    6.40
   0   1  -1   93.99    6.10
   0  -1   1   98.29    6.30
   1   0   1  104.39    6.20
   0  -1   1   97.69    6.30
  -1   1   1   96.49    6.30
   1   0  -1  100.89    6.00
   1   0  -1   97.39    6.20
  -1   1  -1   93.39    6.10
  -1   1  -1   94.09    6.20
   1   0  -1   92.99    6.00
   0  -1  -1  104.49    6.00
   0   1   1   94.89    6.00
  -1   0   1   91.39    6.00
   0   1   1  103.29    6.20
   1  -1   1   98.69    6.20
  -1  -1  -1  242.98   13.20
  -1   2  -1  202.88   12.90
  -1   2  -1  223.78   13.40
   2  -1  -1  207.68   13.00
  -1  -1  -1  222.08   13.50
   1  -2   1  207.18   13.30
   1   1   1  212.18   13.20
  -2   1   1  219.98   13.00
  -2   1   1  211.48   13.30
   1  -2   1  196.38   13.70
  -1   3  -1 1031.80   69.79
  -2  -1  -1 1249.38   72.69
  -2  -1  -1 1155.68   70.59
  -1   3  -1 1304.07   71.19
   3  -2  -1 1188.78   69.69
   2   1   1 1056.59   69.89
   1  -3   1 1141.69   72.79
   1  -3   1 1250.17   70.59
  -3   2   1 1160.38   71.09
  -2   0  -1 5626.04  342.27
   2  -2  -1 5482.65  337.87
  -2   0  -1 5363.76  344.17
   2  -2  -1 5732.33  352.66
   0   2  -1 6280.27  344.87
  -2   2   1 5619.54  344.87
   0  -2   1 5853.41  341.27
   2   0   1 5982.20  353.56
   0  -2   1 6146.79  353.16
   2   0   1 4876.91  337.67
   1   1  -1  197.28   12.50
   1   1  -1  224.58   12.60
  -2   1  -1  210.68   12.70
   1  -2  -1  193.38   12.50
  -2   1  -1  207.78   12.90
   2  -1   1  217.28   13.00
  -1   2   1  212.28   12.80
   2  -1   1  189.78   12.30
  -1  -1   1  193.48   12.80
  -1   2   1  210.08   12.70
   0  -2  -1 5920.91  335.07
  -2   2  -1 5495.35  324.17
   0  -2  -1 4818.92  324.17
   2   0  -1 5195.98  321.27
  -2   2  -1 5266.27  327.07
   2   0  -1 4814.12  334.57
  -2   0   1 5631.14  327.07
  -2   0   1 5642.34  323.77
   0   2   1 5652.93  320.97
   2  -2   1 5589.94  334.77
  -2   3  -1 1027.70   68.09
  -1  -2  -1 1279.67   71.09
   3  -1  -1 1117.89   68.09
  -1  -2  -1 1109.19   68.99
  -2   3  -1 1123.99   69.69
  -3   1   1 1199.48   68.79
   1   2   1 1298.27   69.09
   2  -3   1 1092.59   69.09
   2  -3   1 1049.20   71.39
  -2   4  -1    5.00    1.30
   4  -2  -1    3.50    1.40
   4  -2  -1    4.80    0.80
  -2   4  -1    7.20    1.30
  -2  -2  -1    5.40    1.20
  -2  -2  -1    7.00    0.60
  -2  -2  -1    8.80    1.10
   2   2   1    4.70    1.20
   2  -4   1    4.10    1.10
   2  -4   1    3.60    1.00
  -3  -2  -1    9.00    1.20
  -3  -2  -1   13.80    1.90
   5  -3  -1    9.90    2.00
  -3  -2  -1   11.60    1.50
  -2   5  -1   10.70    1.90
   5  -3  -1   10.00    1.30
  -2   5  -1   10.00    1.80
   2  -5   1   11.20    1.70
  -5   3   1   11.50    1.40
   2  -5   1    7.70    1.50
   3   2   1    8.60    1.60
  -5   3   1    9.80    1.80
  -1   4  -1  128.19    8.30
  -3  -1  -1  135.79    8.10
   4  -3  -1  117.79    8.70
  -1   4  -1  108.99    8.20
   4  -3  -1  120.19    7.90
  -3  -1  -1  127.09    8.30
  -3  -1  -1  122.79    8.20
   1  -4   1  121.89    8.30
  -4   3   1  134.49    7.80
   3   1   1  130.89    8.20
   3   1   1  118.49    8.10
  -4   3   1  133.49    8.50
   0   3  -1  936.51   53.89
   0   3  -1  852.61   53.19
  -3   0  -1  948.11   53.59
   3  -3  -1  900.31   52.99
   3  -3  -1  748.23   55.49
   3   0   1  846.02   52.89
   0  -3   1  873.41   53.69
  -3   3   1  856.71   53.19
   3   0   1  967.00   55.19
   0  -3   1  946.41   55.19
  -3   3   1  872.31   54.19
   2  -3  -1 1186.98   71.89
   1   2  -1 1254.87   72.39
  -3   1  -1 1173.78   72.09
   2  -3  -1 1273.27   74.79
   1   2  -1 1031.30   71.39
   3  -1   1 1148.49   71.19
   3  -1   1 1256.77   74.49
  -1  -2   1 1287.67   74.19
  -1  -2   1 1161.88   72.29
   2   1  -1 1219.78   70.59
  -3   2  -1 1243.38   70.29
   2   1  -1 1058.89   69.59
   1  -3  -1 1062.99   70.19
   2   1  -1 1204.38   72.39
  -3   2  -1 1040.00   71.09
   1  -3  -1 1207.58   72.79
  -1   3   1 1035.20   70.89
   3  -2   1 1236.48   69.19
  -2  -1   1 1134.59   70.39
  -1   3   1 1285.67   69.79
   3  -2   1 1277.47   72.69
   0  -3  -1  855.51   53.69
  -3   3  -1  812.42   54.29
  -3   3  -1  921.31   53.79
   0  -3  -1  941.91   55.39
  -3   3  -1  869.11   52.69
   3   0  -1  877.91   52.99
   3   0  -1  846.82   55.29
  -3   0   1  935.91   53.89
  -3   0   1  912.31   53.59
   0   3   1  873.91   53.29
   0   3   1  906.61   53.79
   3  -3   1  892.31   55.49
   4  -1  -1  125.99    7.80
  -1  -3  -1  128.59    8.30
   4  -1  -1  109.79    8.40
  -3   4  -1  119.39    7.90
  -3   4  -1  114.19    8.40
  -1  -3  -1  133.19    8.10
   1   3   1  111.39    8.20
   3  -4   1  124.79    8.20
   3  -4   1  114.59    8.50
  -4   1   1  125.89    7.90
  -4   1   1  128.29    8.10
   1   3   1  133.69    7.60
  -3   5  -1   11.90    2.10
   5  -2  -1   16.00    1.60
   5  -2  -1   20.70    2.50
  -3   5  -1   11.30    1.80
  -2  -3  -1   11.60    1.60
  -2  -3  -1   13.80    2.00
   3  -5   1    8.50    1.60
   2   3   1   11.70    1.90
   3  -5   1    6.50    1.70
  -5   2   1   17.50    1.70
  -5   2   1    8.80    1.70
   2   3   1   13.40    1.00
   6  -3  -1  287.27   17.90
  -3  -3  -1  285.27   18.70
  -3  -3  -1  298.57   18.80
   6  -3  -1  316.77   19.60
  -3   6  -1  290.07   18.90
  -6   3   1  311.77   18.10
  -6   3   1  301.37   18.90
   3  -6   1  270.87   19.20
   3  -6   1  276.57   18.50
   3   3   1  288.87   18.50
   7  -4  -1  536.25   33.40
  -4  -3  -1  508.25   34.50
  -3   7  -1  560.74   34.70
   7  -4  -1  608.44   35.80
   3  -7   1  535.55   34.40
   4   3   1  503.45   33.90
  -7   4   1  607.24   33.80
  -7   4   1  564.84   35.00
   3  -7   1  547.55   35.50
   6  -4  -1  661.73   41.70
   6  -4  -1  600.54   39.20
  -2   6  -1  641.14   40.40
  -2   6  -1  755.02   40.10
  -4  -2  -1  662.43   40.30
   2  -6   1  635.04   40.20
  -6   4   1  592.64   40.60
   4   2   1  624.74   39.70
   2  -6   1  676.83   41.40
   4   2   1  652.03   41.00
  -6   4   1  680.43   39.60
  -4  -1  -1  896.61   53.29
  -1   5  -1  944.21   52.99
  -1   5  -1  928.11   53.49
  -4  -1  -1  887.51   53.29
   5  -4  -1  830.72   52.29
   5  -4  -1  869.11   55.19
   4   1   1  870.11   54.59
   1  -5   1  859.81   54.69
   4   1   1  802.72   52.49
  -5   4   1  859.51   53.89
  -5   4   1  922.81   52.79
   1  -5   1  820.02   53.29
   4  -4  -1 1921.51  114.99
   0   4  -1 2054.19  116.99
   0   4  -1 1901.41  115.39
  -4   0  -1 1989.90  116.29
  -4   0  -1 1720.53  117.19
   0  -4   1 2207.18  119.99
  -4   4   1 1819.72  117.49
   0  -4   1 1848.72  116.49
   4   0   1 2033.00  119.99
   4   0   1 1818.82  114.99
  -4   1  -1  129.69    8.20
   1   3  -1  144.59    8.50
   3  -4  -1  125.39    8.80
   3  -4  -1  123.59    7.90
   3  -4  -1  117.99    8.20
   1   3  -1  131.09    8.00
  -4   1  -1  107.29    8.60
  -3   4   1  110.39    8.20
  -1  -3   1  134.79    8.10
   4  -1   1  123.69    7.90
   4  -1   1  138.39    8.50
  -1  -3   1  122.79    8.50
   2   2  -1    4.40    0.70
   2  -4  -1    3.90    1.00
   2  -4  -1    4.30    1.20
  -4   2  -1    4.80    1.00
  -4   2  -1    4.60    1.50
   2   2  -1    3.90    1.10
   4  -2   1    4.00    1.00
  -2  -2   1    2.80    1.10
  -2   4   1    4.30    1.20
   4  -2   1    5.10    0.60
   1  -4  -1  139.09    8.60
  -4   3  -1  126.19    8.20
   3   1  -1  128.89    8.20
   3   1  -1  123.39    8.10
   1  -4  -1  110.39    8.20
  -4   3  -1  106.39    8.60
  -3  -1   1  122.69    7.90
  -1   4   1  126.89    8.30
   4  -3   1  136.69    7.60
  -1   4   1  118.19    8.20
   4  -3   1  138.69    8.60
  -3  -1   1  123.29    8.30
   0  -4  -1 1914.51  114.79
  -4   4  -1 1873.21  113.09
   0  -4  -1 2063.59  118.49
   4   0  -1 1906.21  113.39
  -4   4  -1 2003.50  114.69
   4   0  -1 1769.02  118.29
  -4   4  -1 1598.64  115.79
   4  -4   1 1868.11  118.79
   0   4   1 1917.01  113.89
   0   4   1 2069.89  115.29
  -4   0   1 1969.20  114.59
  -4   0   1 1903.51  115.39
  -1  -4  -1  929.21   51.59
  -4   5  -1  776.82   50.29
   5  -1  -1  735.83   52.79
   5  -1  -1  837.52   50.39
  -1  -4  -1  883.51   52.59
  -5   1   1  862.31   50.99
   4  -5   1  830.72   51.09
   4  -5   1  806.52   52.99
   1   4   1  831.62   50.89
  -5   1   1  848.52   51.49
   1   4   1  906.61   50.99
   6  -2  -1  650.33   39.00
   6  -2  -1  636.14   41.30
  -2  -4  -1  656.83   40.70
  -4   6  -1  562.64   40.20
  -4   6  -1  648.74   39.20
  -2  -4  -1  650.33   40.20
  -6   2   1  663.23   40.10
   4  -6   1  637.94   39.70
  -6   2   1  689.13   39.50
   4  -6   1  678.33   41.30
   2   4   1  646.34   39.50
  -4   7  -1  555.14   31.10
  -3  -4  -1  520.75   31.90
  -4   7  -1  503.35   32.00
   7  -3  -1  478.45   30.60
   7  -3  -1  482.55   32.80
   4  -7   1  490.65   32.60
   4  -7   1  469.05   31.30
  -7   3   1  514.05   31.90
   3   4   1  524.15   31.30
  -7   3   1  509.15   30.90
  -4  -4  -1   33.40    4.50
   8  -4  -1   30.00    3.00
  -4   8  -1   29.70    4.10
   8  -4  -1   35.50    4.50
  -4  -4  -1   37.50    3.30
   4   4   1   34.40    4.10
   4  -8   1   26.40    3.60
  -8   4   1   26.90    4.10
   4  -8   1   35.70    4.30
  -5  -4  -1   62.49    6.70
  -4   9  -1   64.79    6.50
   9  -5  -1   77.09    6.70
   5   4   1   69.29    5.60
   4  -9   1   67.99    6.40
   5   4   1   74.39    6.30
  -9   5   1   73.99    7.30
   4  -9   1   74.69    6.70
   8  -5  -1    9.40    2.70
   8  -5  -1    6.90    1.80
  -3   8  -1    7.60    2.60
  -5  -3  -1   14.30    2.90
  -3   8  -1   16.00    2.70
   5   3   1    9.00    2.30
   3  -8   1    8.40    2.40
   5   3   1    7.80    1.80
   3  -8   1    9.30    2.50
   7  -5  -1  646.94   37.70
   7  -5  -1  558.54   35.40
  -5  -2  -1  600.04   36.40
  -2   7  -1  597.64   36.40
   5   2   1  575.74   35.80
   2  -7   1  576.14   36.50
  -7   5   1  522.15   36.80
   2  -7   1  592.44   37.30
   5   2   1  585.74   36.90
   6  -5  -1  356.86   23.60
   6  -5  -1  320.47   21.90
  -1   6  -1  363.26   22.50
  -5  -1  -1  370.96   22.70
  -1   6  -1  417.16   23.00
   5   1   1  353.96   22.90
  -6   5   1  358.96   22.10
   1  -6   1  340.97   23.00
   1  -6   1  342.87   22.80
   5   1   1  372.76   22.30
   0   5  -1  644.84   38.10
   5  -5  -1  572.74   39.50
   5  -5  -1  687.63   37.50
   0   5  -1  637.34   38.00
   5  -5  -1  619.94   37.40
  -5   0  -1  629.24   38.00
  -5   0  -1  585.94   38.40
   0  -5   1  606.24   38.30
   0  -5   1  640.24   38.90
   5   0   1  627.54   39.00
   5   0   1  605.54   37.40
  -5   5   1  562.04   38.60
   4  -5  -1  806.62   49.30
  -5   1  -1  740.83   50.39
   1   4  -1  894.41   49.70
   1   4  -1  870.51   49.70
  -5   1  -1  813.82   49.70
   4  -5  -1  727.83   51.59
  -1  -4   1  841.92   49.99
   5  -1   1  865.51   51.29
  -1  -4   1  913.01   50.89
  -4   5   1  688.53   50.19
  -4   5   1  783.62   49.10
   5  -1   1  840.52   48.90
  -5   2  -1   10.90    1.50
   2   3  -1   10.30    1.30
   2   3  -1    9.90    1.80
   3  -5  -1   12.20    1.60
  -2  -3   1   11.20    1.20
  -3   5   1    7.90    1.70
   5  -2   1    7.30    1.50
   5  -2   1   14.30    1.30
  -2  -3   1   20.00    2.40
  -3   5   1   10.00    1.70
   3   2  -1   11.60    1.70
   2  -5  -1    8.90    1.60
   3   2  -1    9.80    1.30
   3   2  -1    9.60    1.20
   2  -5  -1    8.20    1.70
  -5   3  -1    8.90    1.50
  -5   3  -1   11.70    2.20
  -2   5   1   12.10    1.80
   5  -3   1   10.90    1.10
  -2   5   1   10.00    1.70
   5  -3   1   10.30    1.70
   4   1  -1  899.71   54.69
  -5   4  -1  894.01   53.19
  -5   4  -1  991.30   54.19
   4   1  -1  865.81   52.69
   1  -5  -1  793.72   53.29
   1  -5  -1  861.41   54.99
   5  -4   1  928.51   52.19
   5  -4   1  918.31   55.19
  -1   5   1  884.91   52.99
  -1   5   1  859.41   53.49
  -4  -1   1  813.42   53.19
  -4  -1   1  801.82   53.29
   5   0  -1  624.34   37.20
   0  -5  -1  636.84   38.80
   5   0  -1  601.74   38.80
  -5   5  -1  615.24   37.60
  -5   5  -1  645.84   36.80
  -5   5  -1  599.04   38.40
   0  -5  -1  598.34   38.00
   0   5   1  645.44   37.60
   0   5   1  588.94   37.70
   5  -5   1  594.84   39.20
  -5   0   1  605.94   37.60
  -5   0   1  616.24   37.80
   6  -1  -1  385.86   24.00
  -1  -5  -1  305.67   23.30
   6  -1  -1  380.06   22.60
  -5   6  -1  356.46   23.60
  -1  -5  -1  330.37   23.50
  -6   1   1  383.06   22.90
   5  -6   1  381.56   24.00
  -6   1   1  381.36   23.30
   5  -6   1  385.46   23.00
   1   5   1  388.36   23.20
   7  -2  -1  605.54   37.80
  -2  -5  -1  574.94   39.40
  -5   7  -1  582.94   39.20
   7  -2  -1  626.74   40.30
  -2  -5  -1  595.54   39.20
   5  -7   1  646.54   38.50
   2   5   1  653.03   38.60
  -7   2   1  639.04   38.30
   5  -7   1  673.83   40.10
  -7   2   1  658.83   39.10
   8  -3  -1    7.50    1.70
  -3  -5  -1    9.90    3.10
   8  -3  -1    8.50    2.80
  -3  -5  -1    7.50    1.70
  -5   8  -1    4.90    2.50
   5  -8   1    8.90    2.20
   3   5   1    8.40    2.40
   5  -8   1    8.90    2.60
  -8   3   1    9.40    1.80
  -8   3   1   13.60    3.10
  -4  -5  -1   65.69    5.50
  -4  -5  -1   74.29    6.90
   9  -4  -1   78.79    7.00
  -5   9  -1   57.89    6.40
   4   5   1   74.59    6.40
   5  -9   1   66.09    6.00
  -9   4   1   74.39    7.10
   5  -9   1   53.59    6.30
  -5  -5  -1   15.40    4.30
  10  -5  -1   22.50    4.10
  -5  10  -1   20.00    3.90
   5 -10   1   13.60    3.80
   5   5   1   20.80    3.90
 -10   5   1   21.20    4.60
  11  -6  -1   97.59    8.80
  -6  -5  -1   84.69    9.10
  -5  11  -1   90.69    8.30
 -11   6   1   90.49    9.30
   6   5   1   94.69    8.50
  10  -6  -1   11.50    3.20
  -6  -4  -1    8.40    3.50
  -4  10  -1    8.50    2.90
   4 -10   1    9.70    3.20
   4 -10   1   10.40    3.40
   6   4   1    7.70    3.10
 -10   6   1    7.90    3.70
  -6  -3  -1  242.58   17.70
  -3   9  -1  257.77   17.20
   9  -6  -1  288.97   18.10
   3  -9   1  264.97   17.70
  -9   6   1  270.57   18.10
   6   3   1  249.58   17.10
   3  -9   1  248.28   17.70
   6   3   1  251.67   17.20
  -2   8  -1  112.69    8.30
  -2   8  -1  132.59    9.10
  -6  -2  -1  117.39    9.00
   8  -6  -1  117.39    9.00
   6   2   1  111.69    8.50
  -8   6   1  106.99    9.10
   2  -8   1  108.89    8.60
   2  -8   1  127.19    9.20
  -6  -1  -1   92.99    6.90
   7  -6  -1   78.79    6.10
  -1   7  -1   85.19    6.30
   7  -6  -1   86.99    7.20
  -1   7  -1  102.69    7.40
   1  -7   1   79.69    6.90
   6   1   1   87.99    6.50
   6   1   1   85.29    6.50
  -7   6   1   76.59    7.10
   1  -7   1   87.19    6.50
   0   6  -1   35.80    3.00
   6  -6  -1   28.60    3.10
  -6   0  -1   41.80    4.70
  -6   0  -1   33.50    3.60
   6  -6  -1   27.30    3.80
   0   6  -1   28.10    3.90
  -6   6   1   26.00    3.70
   6   0   1   29.20    3.20
   0  -6   1   34.50    3.00
   0  -6   1   29.80    3.90
   6   0   1   32.20    3.10
   1   5  -1  343.47   22.90
  -6   1  -1  415.46   24.10
  -6   1  -1  377.26   23.30
   1   5  -1  379.66   23.60
   5  -6  -1  343.77   22.80
  -5   6   1  401.36   23.80
   6  -1   1  381.86   22.70
  -5   6   1  409.26   22.90
  -1  -5   1  338.87   23.50
  -1  -5   1  332.77   23.40
   6  -1   1  369.06   23.90
   2   4  -1  607.34   39.80
  -6   2  -1  722.83   41.10
   2   4  -1  666.03   40.20
  -6   2  -1  678.03   40.00
   4  -6  -1  623.54   41.80
   4  -6  -1  626.44   39.80
   6  -2   1  644.44   41.40
  -2  -4   1  638.84   40.80
  -4   6   1  672.03   39.70
   6  -2   1  648.44   39.20
  -2  -4   1  653.13   40.50
  -4   6   1  671.13   40.60
  -6   3  -1  317.57   19.40
   3   3  -1  287.97   19.10
   3  -6  -1  307.47   20.50
   3   3  -1  319.97   19.60
  -6   3  -1  338.17   20.30
   3   3  -1  317.47   19.50
   3  -6  -1  313.17   19.50
   6  -3   1  300.67   18.70
   6  -3   1  315.07   20.30
  -3   6   1  315.57   19.40
  -3  -3   1  281.07   19.70
  -3   6   1  304.17   19.80
   2  -6  -1  734.93   40.30
   2  -6  -1  648.94   41.50
   4   2  -1  644.24   39.80
  -6   4  -1  724.43   41.00
   4   2  -1  685.53   41.00
  -6   4  -1  667.23   39.90
   6  -4   1  605.34   41.50
  -2   6   1  597.24   40.30
  -4  -2   1  658.13   40.30
   6  -4   1  635.54   39.00
  -4  -2   1  649.04   39.90
  -2   6   1  592.64   39.80
   1  -6  -1  370.96   24.00
   5   1  -1  380.76   23.80
   1  -6  -1  429.06   23.70
   5   1  -1  360.06   23.00
  -6   5  -1  372.56   23.90
  -1   6   1  353.36   23.20
  -5  -1   1  366.16   23.10
  -1   6   1  342.97   23.40
  -5  -1   1  364.06   23.30
   6   0  -1   27.00    3.10
   6   0  -1   41.20    3.70
  -6   6  -1   29.30    3.80
   0  -6  -1   29.40    3.20
  -6   6  -1   25.90    3.20
   0  -6  -1   31.70    4.00
  -6   0   1   28.40    3.10
  -6   0   1   30.40    3.40
   0   6   1   35.00    2.80
   0   6   1   30.80    3.80
   6  -6   1   27.00    3.40
   7  -1  -1   89.89    6.50
  -1  -6  -1   70.49    7.40
   7  -1  -1   96.29    7.50
  -1  -6  -1   82.09    6.60
  -6   7  -1   99.69    7.50
  -7   1   1   85.99    6.50
   6  -7   1   90.99    6.40
  -7   1   1   85.49    6.90
   6  -7   1  100.79    7.20
   1   6   1   88.39    6.90
  -6   8  -1  108.69    9.00
  -2  -6  -1  128.79    9.70
   8  -2  -1  110.19    7.90
  -2  -6  -1  105.39    8.20
   8  -2  -1  117.59    9.30
   6  -8   1  115.69    8.20
  -8   2   1  112.19    8.10
   2   6   1  111.19    8.60
   6  -8   1  122.09    9.00
  -8   2   1  124.39    9.10
   9  -3  -1  223.48   16.10
   9  -3  -1  257.47   18.30
  -3  -6  -1  307.87   18.50
  -6   9  -1  253.87   17.60
   6  -9   1  266.77   17.90
  -9   3   1  225.78   16.40
  -9   3   1  277.57   18.00
   3   6   1  264.37   17.20
  -6  10  -1   14.10    3.40
  10  -4  -1   12.60    3.80
  -4  -6  -1    5.80    3.60
 -10   4   1   12.70    4.30
   4   6   1    9.50    3.30
   6 -10   1    7.20    3.30
  -5  -6  -1   87.49    9.20
  -6  11  -1   85.19    8.20
  11  -5  -1   89.59    8.60
   6 -11   1   79.79    8.30
   5   6   1   91.19    8.30
 -11   5   1   89.49    8.90
  -6  -6  -1   33.00    6.50
  12  -6  -1   34.70    5.60
  -6  12  -1   20.40    4.70
 -12   6   1   31.00    6.00
   6   6   1   27.10    5.30
  -5  12  -1    1.70    3.30
  -7  -5  -1   -1.60    4.10
  12  -7  -1    6.20    3.70
 -12   7   1    7.50    4.10
   7   5   1    5.10    3.80
  -7  -4  -1   68.49    7.70
  11  -7  -1   67.49    7.10
  -4  11  -1   59.79    6.30
   7   4   1   59.29    6.70
 -11   7   1   66.49    7.30
  10  -7  -1   31.20    4.50
  -3  10  -1   28.90    3.90
  -7  -3  -1   43.80    5.60
   7   3   1   32.00    4.50
 -10   7   1   38.00    5.30
   3 -10   1   25.70    4.80
   9  -7  -1  126.99    9.90
  -2   9  -1  121.19    9.10
  -7  -2  -1  137.49   10.10
   7   2   1  126.99    9.40
   2  -9   1  149.39   10.40
   7   2   1  123.39    9.40
  -9   7   1  117.79   10.20
  -1   8  -1  159.98   11.70
  -1   8  -1  208.88   12.90
   8  -7  -1  181.28   12.90
  -7  -1  -1  173.18   12.40
   1  -8   1  201.68   12.90
  -8   7   1  164.88   12.60
   7   1   1  173.18   11.90
   7   1   1  169.58   12.20
   7  -7  -1   29.80    4.20
   0   7  -1   36.30    4.70
  -7   0  -1   27.70    3.70
   0   7  -1   27.60    3.20
   7   0   1   41.00    3.80
   7   0   1   35.40    3.50
  -7   7   1   30.40    4.10
   0  -7   1   32.80    4.10
  -7   1  -1  107.09    8.40
   6  -7  -1   82.29    7.80
   1   6  -1   78.19    6.30
  -7   1  -1   93.29    7.00
   1   6  -1  102.69    8.00
  -6   7   1   99.39    6.60
   7  -1   1   85.09    7.00
  -6   7   1  104.99    7.40
  -1  -6   1   86.49    7.40
   7  -1   1   92.19    6.40
  -7   2  -1  727.13   40.00
   5  -7  -1  559.94   40.40
   2   5  -1  559.74   38.30
  -7   2  -1  612.04   38.60
  -2  -5   1  605.84   39.10
   7  -2   1  611.54   37.80
  -5   7   1  674.53   39.20
  -5   7   1  677.13   38.20
   7  -2   1  631.24   40.00
   3   4  -1  572.04   32.80
   3   4  -1  488.95   32.10
  -7   3  -1  514.75   32.30
   4  -7  -1  516.75   34.00
  -7   3  -1  543.45   33.40
   4  -7  -1  586.64   32.50
   7  -3   1  485.65   33.60
  -3  -4   1  585.74   33.10
  -4   7   1  512.15   32.20
   7  -3   1  487.15   31.50
  -4   7   1  484.85   32.80
  -7   4  -1  576.54   35.30
   3  -7  -1  521.45   36.80
   4   3  -1  557.24   35.40
   3  -7  -1  584.94   35.60
  -3   7   1  619.84   35.40
  -3   7   1  555.94   35.80
   7  -4   1  603.54   37.00
  -7   5  -1  615.94   38.60
   2  -7  -1  598.74   40.00
  -7   5  -1  691.53   39.70
   2  -7  -1  726.03   39.20
   5   2  -1  649.93   39.60
   5   2  -1  661.73   38.60
  -5  -2   1  635.54   39.00
  -2   7   1  579.04   38.60
  -2   7   1  613.94   39.00
   7  -5   1  539.65   40.20
  -5  -2   1  600.34   38.50
   6   1  -1   87.29    6.60
  -7   6  -1   92.39    7.40
   1  -7  -1   79.69    6.60
   1  -7  -1  101.19    7.30
   6   1  -1   97.89    6.80
  -7   6  -1   74.89    6.30
  -1   7   1   85.29    6.20
  -6  -1   1   89.69    6.80
  -6  -1   1   87.49    6.50
  -1   7   1   78.09    6.90
   7  -6   1   77.19    7.00
   0  -7  -1   40.20    4.80
  -7   7  -1   27.10    4.10
   0  -7  -1   26.00    3.40
  -7   7  -1   37.10    3.60
   7   0  -1   29.70    3.90
   7   0  -1   25.60    3.50
  -7   0   1   36.10    3.70
   7  -7   1   28.30    3.70
   0   7   1   31.00    3.90
  -7   0   1   36.90    3.90
   8  -1  -1  185.08   13.00
  -1  -7  -1  184.48   14.30
  -7   8  -1  227.88   14.20
   8  -1  -1  224.58   14.50
  -8   1   1  219.38   14.10
   1   7   1  183.28   13.50
   7  -8   1  198.58   13.80
  -8   1   1  177.58   13.20
  -7   9  -1  163.78   10.90
   9  -2  -1  126.89    9.50
   9  -2  -1  174.58   11.60
  -2  -7  -1  123.39   11.00
   7  -9   1  142.69   10.60
   2   7   1  132.39   10.20
  -9   2   1  123.79    9.70
  10  -3  -1   44.90    6.00
  -7  10  -1   35.20    5.10
  -3  -7  -1   33.80    5.60
   3   7   1   36.00    5.00
   7 -10   1   36.40    4.90
 -10   3   1   36.80    5.90
  -4  -7  -1   65.79    8.50
  11  -4  -1   84.29    8.50
  -7  11  -1   71.29    7.60
   4   7   1   74.79    7.50
   7 -11   1   69.49    7.40
 -11   4   1   83.49    9.00
  -5  -7  -1    0.40    4.40
  -7  12  -1    2.80    3.60
  12  -5  -1    3.30    4.20
 -12   5   1    7.90    5.00
   7 -12   1    4.40    3.70
   5   7   1    4.80    3.90
  -8  -4  -1    7.30    4.40
  12  -8  -1    5.00    3.60
   8   4   1    8.70    3.90
 -12   8   1    5.80    4.00
  -8  -3  -1   59.79    7.10
  11  -8  -1   63.89    6.70
   3 -11   1   59.09    7.30
   8   3   1   64.39    6.60
 -11   8   1   56.89    7.20
  -2  10  -1   47.50    5.60
  -8  -2  -1   28.20    4.70
  10  -8  -1   38.20    5.10
 -10   8   1   27.90    4.70
   8   2   1   30.00    4.30
   2 -10   1   36.40    5.50
   9  -8  -1  173.78   12.30
  -8  -1  -1  154.48   11.80
  -9   8   1  160.58   11.90
   8   1   1  161.48   11.60
   1  -9   1  162.48   12.10
   8   1   1  152.38   11.20
  -8   0  -1    2.10    2.20
   8  -8  -1    3.70    2.50
   0   8  -1    2.10    2.80
   8   0   1    0.00    1.90
   8   0   1    2.50    2.00
  -8   8   1   -0.90    2.00
   0  -8   1    1.30    2.40
  -8   1  -1  184.08   12.80
   7  -8  -1  195.68   13.80
  -7   8   1  213.38   13.20
   8  -1   1  181.68   12.10
   8  -1   1  182.48   13.20
  -1  -7   1  166.48   13.20
  -8   2  -1  140.59   10.00
   6  -8  -1  112.39    9.50
   2   6  -1  119.19    9.50
  -8   2  -1  108.39    8.40
  -2  -6   1  105.49    8.90
   8  -2   1  113.19    8.90
  -6   8   1  116.69    8.80
  -6   8   1  126.49    8.30
  -8   3  -1    6.50    2.00
  -8   3  -1   15.60    3.40
   3   5  -1   10.90    3.10
   5  -8  -1   16.50    3.40
  -5   8   1   10.40    2.20
   8  -3   1   10.10    2.60
  -3  -5   1   10.70    2.80
  -5   8   1   12.00    2.60
   4   4  -1   35.60    4.40
  -8   4  -1   41.40    4.90
  -8   4  -1   36.60    3.80
   4  -8  -1   31.70    4.30
  -4   8   1   47.40    4.40
  -4   8   1   36.40    4.10
   8  -4   1   31.90    4.30
  -4  -4   1   32.50    4.30
  -8   5  -1   10.00    3.00
   3  -8  -1    7.40    2.50
   3  -8  -1    7.30    2.60
   5   3  -1   11.30    2.80
  -8   5  -1    9.10    2.10
   8  -5   1   11.90    2.70
  -3   8   1    8.50    2.40
  -5  -3   1   10.80    2.70
  -3   8   1   14.60    2.80
   2  -8  -1  123.99    9.10
   2  -8  -1  109.29    8.70
  -8   6  -1  137.19    9.30
   6   2  -1  117.99    8.60
  -8   6  -1  114.49    8.40
  -2   8   1  110.49    8.80
   8  -6   1  111.79    9.20
  -2   8   1  113.79    8.40
  -6  -2   1  108.39    8.70
  -8   7  -1  153.98   11.40
   7   1  -1  176.78   11.70
   1  -8  -1  159.88   11.90
  -8   7  -1  202.58   12.70
  -1   8   1  171.68   12.10
   8  -7   1  161.98   12.20
  -7  -1   1  173.98   11.90
  -8   8  -1    2.00    2.40
   8   0  -1    0.90    1.90
   0  -8  -1    1.40    2.80
   0  -8  -1    2.90    1.90
   8  -8   1    0.70    2.10
   0   8   1    1.10    2.10
  -8   0   1    0.00    1.70
  -1  -8  -1  187.78   12.80
   9  -1  -1  144.99   10.80
  -8   9  -1  186.28   12.20
   8  -9   1  148.99   11.60
  -9   1   1  135.99   11.00
   1   8   1  161.38   11.50
  -8  10  -1   30.20    4.80
  -2  -8  -1   42.80    6.20
   2   8   1   50.39    5.30
   8 -10   1   30.30    4.60
  -8  11  -1   74.49    7.60
  -3  -8  -1   50.59    7.70
   3   8   1   69.49    7.00
   8 -11   1   70.49    7.10
  -8  12  -1    0.30    3.70
  -4  -8  -1   -2.10    4.40
   8 -12   1    6.40    3.70
   4   8   1    9.40    4.20
  -9  -3  -1    7.10    4.10
  12  -9  -1    3.80    3.60
   9   3   1    0.90    3.40
 -12   9   1    3.40    3.60
  11  -9  -1    2.90    3.30
  -9  -2  -1    7.80    3.80
   2 -11   1    3.20    3.90
 -11   9   1    5.60    3.60
   9   2   1    6.80    3.20
  -9  -1  -1   34.50    5.20
  -1  10  -1   51.89    6.40
  10  -9  -1   41.50    5.40
   9   1   1   38.00    4.90
 -10   9   1   47.70    5.50
   1 -10   1   40.20    5.90
   9  -9  -1   94.59    8.00
   0   9  -1  108.29    8.50
  -9   0  -1   82.79    7.60
  -9   9   1   88.99    7.70
   0  -9   1   90.99    8.50
   9   0   1   85.09    7.70
   9   0   1   73.89    6.80
  -9   1  -1  141.79   11.40
   8  -9  -1  162.48   12.40
   1   8  -1  201.98   12.80
  -1  -8   1  159.18   12.10
  -8   9   1  158.08   11.70
   9  -1   1  157.48   12.00
   7  -9  -1  150.28   11.30
  -9   2  -1  125.99    9.90
   9  -2   1  137.89   10.60
  -7   9   1  161.88   10.70
  -2  -7   1  122.69   10.60
   3   6  -1  283.67   17.60
  -9   3  -1  220.18   16.30
   6  -9  -1  234.58   17.80
  -3  -6   1  269.67   17.40
  -6   9   1  267.97   17.00
   9  -3   1  238.98   17.40
  -9   4  -1   81.99    7.40
   5  -9  -1   63.09    6.70
  -9   4  -1   61.89    5.70
   4   5  -1   67.49    6.60
  -5   9   1   76.99    6.10
  -5   9   1   65.39    6.20
  -4  -5   1   75.39    6.80
   9  -4   1   64.39    6.50
   4  -9  -1   62.49    6.70
  -9   5  -1   62.49    5.80
  -9   5  -1   86.69    7.40
   5   4  -1   61.99    6.30
   9  -5   1   76.39    6.70
  -4   9   1   77.39    6.40
  -5  -4   1   63.99    6.70
   6   3  -1  271.17   17.90
  -9   6  -1  279.17   17.70
   3  -9  -1  224.28   18.20
  -3   9   1  279.77   17.90
   9  -6   1  281.77   18.90
  -3   9   1  307.27   18.00
  -6  -3   1  239.58   18.00
   2  -9  -1  113.59    9.50
   7   2  -1  129.89    9.50
  -9   7  -1  143.49   10.40
  -7  -2   1  125.59    9.70
  -2   9   1  131.29    9.80
   1  -9  -1  125.69   11.00
  -9   8  -1  186.98   12.20
   1  -9  -1  178.58   12.30
   8   1  -1  163.88   11.00
   9  -8   1  144.79   11.40
  -8  -1   1  151.48   11.40
  -1   9   1  156.78   11.50
   9   0  -1   80.89    7.00
   0  -9  -1   96.59    8.70
  -9   9  -1  103.89    8.20
   9  -9   1   78.19    7.20
   0   9   1   87.19    7.50
  -9   0   1   72.79    7.00
  -9  10  -1   38.70    5.40
  10  -1  -1   34.60    4.50
  -1  -9  -1   60.59    7.20
   1   9   1   40.90    5.40
 -10   1   1   36.70    4.70
   9 -10   1   32.00    4.70
  -2  -9  -1    2.20    4.40
  -9  11  -1    4.20    3.20
   2   9   1    5.20    3.60
   9 -11   1    6.80    3.30
  -3  -9  -1    6.80    4.70
  -9  12  -1    6.30    3.80
   9 -12   1    9.80    3.90
  -1  11  -1   43.60    6.20
 -10  -1  -1   28.30    5.20
  11 -10  -1   37.80    5.50
   1 -11   1   27.20    5.70
 -11  10   1   33.50    5.20
 -10   0  -1   -1.50    2.80
  10 -10  -1    0.70    3.20
   0  10  -1   -1.40    3.70
   0 -10   1    0.70    3.50
 -10  10   1    1.20    2.80
 -10   1  -1   33.20    4.60
   1   9  -1   44.90    6.30
   9 -10  -1   32.20    5.20
  -1  -9   1   45.20    5.90
  10  -1   1   38.30    5.20
  -9  10   1   37.80    5.10
 -10   2  -1   25.20    4.00
   8 -10  -1   35.60    5.40
   2   8  -1   44.80    6.00
  -2  -8   1   31.40    4.90
  10  -2   1   29.70    4.70
  -8  10   1   34.90    4.70
   7 -10  -1   38.40    5.60
 -10   3  -1   28.40    4.10
   3   7  -1   41.30    5.80
  -7  10   1   36.80    4.70
  10  -3   1   41.60    5.40
  -3  -7   1   27.50    4.80
 -10   4  -1   13.30    4.00
   4   6  -1   11.80    3.60
 -10   4  -1    8.00    2.40
   6 -10  -1    1.40    3.10
  -4  -6   1    8.90    3.60
  -6  10   1   10.40    3.00
  10  -4   1    6.20    3.40
   5   5  -1   17.80    4.00
 -10   5  -1   26.20    4.70
   5 -10  -1   15.50    4.00
 -10   5  -1   16.30    3.00
  10  -5   1   20.80    4.10
  -5  10   1   21.80    3.80
  -5  -5   1   21.60    4.20
   4 -10  -1    9.60    3.20
   6   4  -1    7.90    3.40
 -10   6  -1   16.50    3.80
  -6  -4   1   12.10    3.50
  -4  10   1    9.60    3.10
  -4  10   1   17.00    3.50
  10  -6   1   10.60    3.40
 -10   7  -1   44.80    5.50
   3 -10  -1   26.50    4.30
  -3  10   1   35.40    4.70
  -7  -3   1   31.70    4.80
  10  -7   1   33.90    4.90
   2 -10  -1   24.40    4.00
 -10   8  -1   37.20    5.20
   8   2  -1   26.00    4.10
  10  -8   1   36.60    4.50
  -2  10   1   32.20    4.70
  -8  -2   1   35.00    4.90
   9   1  -1   40.80    5.20
 -10   9  -1   58.39    6.30
  -9  -1   1   35.20    5.00
  -1  10   1   49.00    5.80
  10  -9   1   37.70    4.90
   0 -10  -1    0.40    3.80
  10   0  -1    1.10    2.60
 -10  10  -1    1.20    3.40
  10 -10   1    2.00    2.70
   0  10   1    0.50    3.20
 -10   0   1    0.40    2.40
 -10  11  -1   31.10    5.50
  -1 -10  -1   46.40    7.10
   1  10   1   37.10    5.70
 -11   0  -1   12.30    4.00
   0 -11   1   15.30    5.10
 -11   1  -1   23.40    4.60
  10 -11  -1   33.90    5.60
   1  10  -1   42.40    6.60
 -10  11   1   33.30    5.20
  -1 -10   1   36.90    6.10
   2   9  -1    2.90    4.30
   9 -11  -1    2.80    3.50
 -11   2  -1    0.60    2.70
  -9  11   1    7.00    3.20
  -2  -9   1    4.30    3.90
  11  -2   1    5.10    3.70
   3   8  -1   84.89    8.40
 -11   3  -1   53.29    6.10
   8 -11  -1   66.19    7.40
  -8  11   1   70.49    6.90
  11  -3   1   69.19    7.20
  -3  -8   1   56.99    7.10
 -11   4  -1   56.19    6.00
   4   7  -1   73.29    8.00
   7 -11  -1   56.29    7.60
  -4  -7   1   63.79    7.50
  -7  11   1   76.19    6.80
  11  -4   1   73.39    7.70
   5   6  -1  100.39    8.60
   6 -11  -1   66.89    8.20
  -6  11   1   98.59    8.00
  -5  -6   1   87.89    8.50
  11  -5   1   85.19    8.80
   5 -11  -1   69.29    7.80
   6   5  -1   88.89    8.30
  -6  -5   1   81.49    8.50
  11  -6   1   96.49    8.80
   4 -11  -1   56.89    6.70
 -11   7  -1   74.39    7.60
   7   4  -1   65.79    6.70
  11  -7   1   54.69    6.60
  -7  -4   1   57.39    6.90
   3 -11  -1   46.70    6.00
 -11   8  -1   69.49    7.30
   8   3  -1   61.19    6.70
  -3  11   1   67.29    6.50
  11  -8   1   50.89    6.40
  -8  -3   1   57.39    7.00
   9   2  -1    4.80    3.10
 -11   9  -1    3.10    3.80
  11  -9   1    4.90    3.20
  -9  -2   1    7.80    3.70
  -2  11   1    6.70    3.50
 -11  10  -1   36.10    5.60
  10   1  -1   26.70    4.60
 -10  -1   1   29.70    5.00
  11 -10   1   33.50    4.80
  -1  11   1   38.30    5.50
 -11   0   1   15.50    4.10
   3   9  -1    5.60    4.90
   9 -12  -1    2.10    4.20
  -3  -9   1    1.80    4.20
  -9  12   1    6.30    3.30
  12  -3   1   11.10    4.60
   8 -12  -1    0.60    4.20
   4   8  -1    6.50    4.60
  -8  12   1    5.60    3.50
  12  -4   1    3.80    4.10
  -4  -8   1    5.10    4.10
   5   7  -1    0.50    3.70
   7 -12  -1    2.40    4.10
  -7  12   1    1.10    3.30
  -5  -7   1    8.60    4.50
  12  -5   1    5.50    4.20
   6 -12  -1   17.60    5.20
   6   6  -1   25.50    5.30
  -6  -6   1   28.10    5.50
  12  -6   1   34.80    5.70
 -12   7  -1    5.80    4.20
   7   5  -1    1.30    3.90
   5 -12  -1    3.10    4.00
  -7  -5   1   -0.60    3.80
  12  -7   1    5.00    4.00
 -12   8  -1    8.00    4.50
   8   4  -1    7.70    4.00
  -8  -4   1    4.60    4.20
  12  -8   1    4.50    3.40
 -12   9  -1    5.50    3.80
   9   3  -1    3.60    3.70
  -9  -3   1    5.00    4.00
   0   0  -2 1986.90  118.79
   0   0  -2 2067.89  117.79
   0   0  -2 1830.02  121.69
  -1   0  -2  737.13   45.70
  -1   0  -2  709.23   44.40
   0   1  -2  706.53   44.60
   1  -1  -2  829.72   44.30
  -1   0  -2  721.13   44.00
   0   1  -2  739.23   43.90
  -1   0  -2  738.13   44.50
   1  -1  -2  684.93   45.80
   0  -1   2  708.43   45.60
   1   0   2  781.72   44.00
  -1   1   2  736.53   44.60
   0  -1  -2  741.93   43.50
   1   0  -2  728.43   43.80
   1   0  -2  712.03   44.80
   0  -1  -2  745.53   44.90
   0  -1  -2  657.43   43.30
   1   0  -2  691.93   43.10
  -1   1  -2  751.02   43.80
  -1   1  -2  670.03   43.10
   0   1   2  758.52   43.70
   1  -1   2  725.53   44.90
  -1   0   2  755.92   43.50
  -1  -1  -2 4798.62  284.17
   2  -1  -2 4663.43  291.47
   2  -1  -2 4206.68  279.47
  -1   2  -2 4615.44  284.17
  -1   2  -2 5059.59  279.57
  -1  -1  -2 4920.51  292.07
  -1  -1  -2 4602.54  281.87
   1  -2   2 4578.04  291.47
  -2   1   2 5042.90  285.17
   1  -2   2 4656.03  282.07
   1   1   2 4631.94  279.57
  -1   3  -2 2535.15  153.28
  -2  -1  -2 2463.15  152.98
  -2  -1  -2 2557.14  157.08
   3  -2  -2 2560.04  157.48
  -1   3  -2 2507.55  150.48
  -2  -1  -2 2659.63  152.18
   1  -3   2 2616.24  152.38
  -3   2   2 2603.24  153.28
   1  -3   2 2246.98  157.18
  -3   2   2 2686.33  151.78
   2   1   2 2445.26  150.68
  -2   0  -2 6009.50  394.06
  -2   0  -2 6914.31  407.56
   2  -2  -2 6232.48  390.46
   0   2  -2 6510.55  397.26
   0   2  -2 6418.66  389.86
  -2   0  -2 7485.75  396.86
   2  -2  -2 6886.11  408.36
  -2   2   2 6497.85  396.76
   2   0   2 6514.25  390.36
   0  -2   2 6773.12  393.66
   0  -2   2 5967.10  406.36
  -2   1  -2 4858.51  283.77
   1   1  -2 4604.64  283.77
  -2   1  -2 4314.87  280.67
   1  -2  -2 4767.02  291.07
   1  -2  -2 5072.49  281.17
   1  -2  -2 4353.96  278.07
   1   1  -2 4595.24  278.07
  -1  -1   2 4342.47  280.57
   2  -1   2 4666.43  290.47
   2  -1   2 5334.27  278.37
  -1   2   2 4640.34  283.77
  -2   2  -2 6093.49  375.76
   2   0  -2 5423.76  387.76
  -2   2  -2 6462.75  371.06
   0  -2  -2 6272.67  375.56
   0  -2  -2 6637.64  388.36
   2   0  -2 6314.57  372.16
  -2   2  -2 5691.43  377.96
   0   2   2 6328.07  377.96
  -2   0   2 6801.82  378.46
   2  -2   2 6238.08  388.16
   0   2   2 6529.85  371.06
   3  -1  -2 2362.86  145.69
  -2   3  -2 2473.25  148.49
  -2   3  -2 2402.96  147.39
  -1  -2  -2 2687.03  152.08
   3  -1  -2 2390.66  152.18
  -2   3  -2 2653.93  145.49
  -1  -2  -2 2365.76  147.19
  -3   1   2 2535.05  146.99
  -3   1   2 2590.54  148.29
   2  -3   2 2310.67  147.39
   1   2   2 2363.46  147.89
   1   2   2 2358.76  145.89
   2  -3   2 2378.16  152.08
  -2  -2  -2  287.37   18.50
  -2  -2  -2  306.87   18.70
  -2   4  -2  325.87   18.70
  -2   4  -2  248.08   17.90
   4  -2  -2  293.47   18.00
  -4   2   2  298.67   18.50
  -4   2   2  318.27   18.00
   2   2   2  290.77   18.40
   2  -4   2  288.57   19.00
   2  -4   2  293.07   18.60
  -2   5  -2  151.08   11.40
  -3  -2  -2  178.68   11.70
  -2   5  -2  198.58   11.90
  -3  -2  -2  174.38   11.60
   5  -3  -2  180.28   11.20
   2  -5   2  178.58   11.80
   2  -5   2  174.88   11.80
  -5   3   2  178.68   11.70
   3   2   2  188.58   11.60
   4  -3  -2  651.23   49.80
  -3  -1  -2  855.91   48.30
  -1   4  -2  812.72   48.40
  -3  -1  -2  788.52   47.90
  -3  -1  -2  754.42   49.40
   4  -3  -2  792.02   47.50
   3   1   2  771.22   47.60
  -4   3   2  902.61   47.50
   1  -4   2  758.22   49.50
   1  -4   2  814.52   48.30
  -4   3   2  801.72   48.50
   0   3  -2 3169.08  216.18
   0   3  -2 3753.72  220.18
  -3   0  -2 3714.83  218.48
   3  -3  -2 3541.15  216.38
  -3   0  -2 3880.61  219.98
   3  -3  -2 3858.61  226.18
   3   0   2 3184.48  216.18
   0  -3   2 3570.44  218.48
   0  -3   2 3846.62  225.68
  -3   3   2 3747.43  220.18
   3   0   2 3803.22  226.38
  -3   1  -2 2435.06  149.29
   2  -3  -2 2755.22  148.99
   1   2  -2 2626.64  150.38
   2  -3  -2 2589.34  154.58
  -3   1  -2 2276.97  150.48
   1   2  -2 2480.05  147.79
  -1  -2   2 2353.66  149.39
  -2   3   2 2564.04  150.38
   3  -1   2 2573.24  154.18
   3  -1   2 2213.08  147.59
   2   1  -2 2264.27  152.18
   2   1  -2 2537.55  148.59
   1  -3  -2 2395.86  147.39
   1  -3  -2 2689.13  152.68
  -3   2  -2 2525.05  147.79
  -3   2  -2 2289.57  148.99
   2   1  -2 2557.94  146.09
   3  -2   2 2248.28  145.69
  -1   3   2 2586.04  146.49
   3  -2   2 2524.65  152.48
  -1   3   2 2616.74  148.69
  -2  -1   2 2275.37  147.69
   3   0  -2 3724.03  212.58
  -3   3  -2 3636.04  214.98
   0  -3  -2 3126.49  214.58
  -3   3  -2 3347.96  216.68
   0  -3  -2 3728.13  221.88
  -3   0   2 3713.03  214.68
  -3   0   2 3727.53  216.68
   0   3   2 3672.53  212.88
   3  -3   2 3546.45  221.88
  -3   4  -2  756.32   46.20
   4  -1  -2  758.62   44.90
  -1  -3  -2  665.63   45.40
  -3   4  -2  737.33   45.70
  -3   4  -2  714.03   44.50
  -1  -3  -2  827.62   46.80
   3  -4   2  732.03   45.70
   3  -4   2  667.83   46.90
  -4   1   2  815.92   45.20
  -4   1   2  796.72   45.70
   1   3   2  720.83   45.20
   1   3   2  777.52   45.20
  -3   5  -2  186.78   11.70
   5  -2  -2  172.48   10.90
  -3   5  -2  142.89   10.80
  -2  -3  -2  159.08   11.30
  -2  -3  -2  178.48   11.30
   5  -2  -2  156.68   11.70
  -5   2   2  183.38   11.30
   3  -5   2  159.58   11.30
   3  -5   2  178.98   11.60
  -5   2   2  192.78   10.80
   2   3   2  182.38   11.40
   6  -3  -2 1171.68   74.69
  -3  -3  -2 1379.06   77.99
  -3  -3  -2 1233.08   75.99
   6  -3  -2 1332.67   78.69
  -3   6  -2 1254.37   76.59
  -6   3   2 1213.88   76.39
  -6   3   2 1329.17   75.29
   3  -6   2 1164.78   78.29
   3   3   2 1206.98   75.09
   3  -6   2 1211.88   75.99
  -4  -3  -2 1590.14   94.89
   7  -4  -2 1740.43   98.19
  -3   7  -2 1654.13   95.49
   7  -4  -2 1475.85   93.19
  -4  -3  -2 1486.35   97.19
   4   3   2 1527.25   93.69
   3  -7   2 1531.25   97.69
   3  -7   2 1518.65   94.69
  -7   4   2 1528.55   95.49
  -2   6  -2 1910.31  112.29
  -4  -2  -2 1787.32  114.69
  -2   6  -2 1720.13  110.59
   6  -4  -2 1891.91  115.59
   6  -4  -2 1855.81  110.09
  -4  -2  -2 1829.52  111.59
   4   2   2 1749.53  110.29
  -6   4   2 1888.41  112.49
   2  -6   2 1943.91  115.09
   2  -6   2 1875.81  111.59
  -4  -1  -2 1994.70  111.69
  -1   5  -2 1659.13  110.49
   5  -4  -2 1825.42  110.09
  -4  -1  -2 1743.53  111.39
  -1   5  -2 1867.81  112.19
   1  -5   2 1856.81  111.59
   4   1   2 1813.82  114.79
   1  -5   2 1945.51  114.79
  -5   4   2 2051.29  110.69
   4   1   2 1667.43  110.09
  -5   4   2 1880.61  112.39
   4  -4  -2 3096.89  183.08
   0   4  -2 2807.12  183.18
   0   4  -2 3169.28  186.18
  -4   0  -2 3239.88  184.98
   4  -4  -2 3070.19  191.48
  -4   0  -2 2999.70  186.18
   4   0   2 3095.19  190.88
  -4   4   2 3157.98  186.48
   0  -4   2 3098.99  185.08
   0  -4   2 3361.76  190.68
   4   0   2 2765.62  182.78
   1   3  -2  803.92   46.30
   3  -4  -2  805.42   48.20
  -4   1  -2  679.13   46.70
   3  -4  -2  743.63   45.90
  -4   1  -2  770.12   46.30
   1   3  -2  704.23   45.80
   4  -1   2  735.43   45.40
   4  -1   2  808.52   47.70
  -1  -3   2  842.62   47.10
  -3   4   2  707.33   46.60
   2  -4  -2  245.88   17.60
   2   2  -2  286.47   17.80
  -4   2  -2  295.57   18.00
   2  -4  -2  308.27   18.90
   2   2  -2  304.07   17.80
  -4   2  -2  279.97   18.50
   4  -2   2  314.97   18.50
  -2  -2   2  290.17   18.20
   4  -2   2  295.87   17.30
  -2   4   2  270.57   18.10
  -2   4   2  285.87   18.10
   1  -4  -2  835.92   49.40
   3   1  -2  816.92   47.20
  -4   3  -2  772.82   48.50
  -4   3  -2  786.22   47.80
  -1   4   2  851.11   47.50
  -3  -1   2  693.03   47.60
   4  -3   2  857.91   49.20
  -3  -1   2  758.72   47.70
  -1   4   2  689.03   47.90
   4   0  -2 2863.11  187.58
   4   0  -2 3056.19  179.58
   0  -4  -2 2689.43  181.38
  -4   4  -2 2988.90  183.38
  -4   4  -2 3140.29  181.68
   0  -4  -2 3309.57  187.58
  -4   0   2 3187.08  181.38
  -4   0   2 3119.59  182.68
   0   4   2 2970.30  179.98
   0   4   2 2878.01  182.58
   4  -4   2 3034.40  187.58
   5  -1  -2 1773.72  105.49
  -1  -4  -2 1687.23  106.79
  -1  -4  -2 1943.71  110.19
  -4   5  -2 1489.75  104.99
  -4   5  -2 1710.23  107.99
   5  -1  -2 1864.71  110.59
  -5   1   2 1795.62  107.39
  -5   1   2 1850.41  106.39
   1   4   2 2045.00  106.89
   4  -5   2 1823.72  106.79
   1   4   2 1715.93  105.99
   4  -5   2 1526.55  110.29
   6  -2  -2 1888.01  113.59
   6  -2  -2 2098.29  119.29
  -4   6  -2 1843.72  116.29
  -2  -4  -2 1955.80  118.59
  -2  -4  -2 1773.52  115.19
   4  -6   2 1876.11  118.79
  -6   2   2 1895.81  115.79
   2   4   2 1852.61  114.09
  -6   2   2 2010.00  114.59
   4  -6   2 1855.01  115.09
   7  -3  -2 1791.22   99.39
  -3  -4  -2 1563.64   96.09
  -4   7  -2 1578.44   96.79
  -3  -4  -2 1522.55   98.39
   7  -3  -2 1489.75   94.29
   3   4   2 1571.54   94.79
   4  -7   2 1477.65   95.69
   4  -7   2 1616.14   98.89
  -7   3   2 1546.85   96.39
  -7   3   2 1637.94   95.09
  -4   8  -2   87.89    7.30
  -4  -4  -2   89.09    7.40
   8  -4  -2   81.09    6.30
   8  -4  -2  107.19    7.80
  -4  -4  -2   82.09    6.60
   4  -8   2   83.19    7.10
   4   4   2   92.29    7.00
  -8   4   2   92.99    7.30
   4  -8   2   82.99    7.00
   9  -5  -2  107.59    8.10
  -5  -4  -2   96.39    7.90
   9  -5  -2   85.99    6.50
  -4   9  -2   82.69    7.20
   5   4   2   78.59    6.70
   4  -9   2   85.49    7.60
   4  -9   2   79.99    7.30
   5   4   2   95.69    7.30
  -9   5   2   86.39    7.90
  -3   8  -2  373.86   23.60
  -5  -3  -2  357.96   23.90
   8  -5  -2  375.76   22.80
  -8   5   2  398.66   24.20
   3  -8   2  374.76   24.20
   5   3   2  339.37   23.60
   3  -8   2  356.76   23.70
   5   3   2  360.86   23.20
   7  -5  -2  978.20   54.29
  -5  -2  -2  866.61   52.19
  -2   7  -2  828.92   52.19
  -2   7  -2  852.11   52.09
   7  -5  -2  811.92   50.99
   5   2   2  808.22   53.19
   2  -7   2  857.41   52.19
  -7   5   2  792.92   52.59
   2  -7   2  891.11   53.49
   5   2   2  787.82   51.19
  -1   6  -2 1182.98   71.39
  -1   6  -2 1258.67   71.19
   6  -5  -2 1144.29   70.09
  -5  -1  -2 1192.98   71.29
   6  -5  -2 1086.59   73.79
  -6   5   2 1156.18   71.89
   5   1   2 1178.58   73.09
   5   1   2 1128.89   70.19
   1  -6   2 1206.48   73.09
   1  -6   2 1161.88   71.29
  -5   0  -2 2228.78  132.89
   5  -5  -2 1979.90  137.59
   0   5  -2 2244.18  133.59
   5  -5  -2 2233.98  131.39
  -5   0  -2 1935.71  133.79
   0   5  -2 2308.57  131.99
   5   0   2 2106.59  131.19
   5   0   2 2281.97  136.99
  -5   5   2 2216.08  134.09
   0  -5   2 2197.58  133.09
   0  -5   2 2499.35  136.79
  -5   1  -2 1830.72  108.99
   4  -5  -2 1909.21  107.99
   1   4  -2 1887.31  109.49
   4  -5  -2 1842.32  113.09
   1   4  -2 1772.12  108.19
   5  -1   2 1667.63  107.49
   5  -1   2 1881.61  112.49
  -4   5   2 1615.24  109.99
  -1  -4   2 1725.13  109.29
  -1  -4   2 1937.91  111.99
   2   3  -2  175.98   11.10
   3  -5  -2  164.78   10.90
   2   3  -2  199.98   11.60
  -5   2  -2  147.29   11.80
   3  -5  -2  181.58   12.10
  -5   2  -2  174.58   11.40
   5  -2   2  184.48   10.70
   5  -2   2  184.08   11.60
  -2  -3   2  168.68   11.60
  -3   5   2  156.58   11.60
  -3   5   2  182.78   11.50
  -5   3  -2  188.48   11.80
   2  -5  -2  184.78   12.30
   3   2  -2  194.68   11.60
   2  -5  -2  152.98   11.50
  -5   3  -2  159.58   12.30
   3   2  -2  183.28   11.40
   3   2  -2  177.38   11.60
   5  -3   2  197.78   12.10
  -3  -2   2  172.08   11.90
   5  -3   2  193.38   10.80
  -2   5   2  172.78   11.90
   1  -5  -2 1922.11  111.49
   1  -5  -2 1617.14  107.69
  -5   4  -2 1878.51  107.89
   4   1  -2 1878.91  111.29
  -5   4  -2 1629.34  109.09
   4   1  -2 1766.12  106.69
  -1   5   2 1756.52  108.39
   5  -4   2 1924.61  111.49
  -4  -1   2 1734.03  108.29
  -4  -1   2 1760.72  107.79
   0  -5  -2 2159.68  134.59
   0  -5  -2 2435.46  138.89
   5   0  -2 2211.68  139.09
   5   0  -2 2200.88  132.99
  -5   5  -2 2223.08  134.49
  -5   5  -2 2030.60  135.99
   0   5   2 2293.67  134.99
   0   5   2 2265.47  133.59
  -5   0   2 2333.97  134.39
   5  -5   2 2194.18  139.09
  -5   0   2 2196.38  135.29
  -5   6  -2 1131.19   73.99
   6  -1  -2 1271.37   71.99
  -1  -5  -2 1091.59   73.19
  -1  -5  -2 1188.58   75.09
   1   5   2 1236.68   72.59
   5  -6   2 1250.17   75.39
  -6   1   2 1232.98   72.59
   5  -6   2 1258.57   72.89
  -6   1   2 1140.89   73.29
  -2  -5  -2  830.92   55.49
  -5   7  -2  814.72   54.99
  -2  -5  -2  851.11   54.59
   7  -2  -2  896.61   53.29
  -7   2   2  878.91   54.49
   5  -7   2  925.41   55.89
  -7   2   2  942.61   53.69
   5  -7   2  903.61   54.09
   2   5   2  901.61   53.79
  -5   8  -2  334.27   23.60
   8  -3  -2  423.66   24.50
  -3  -5  -2  354.66   23.30
  -3  -5  -2  396.16   24.00
   8  -3  -2  331.97   22.30
   3   5   2  363.46   23.00
   5  -8   2  359.76   23.80
   5  -8   2  354.36   23.00
  -8   3   2  344.57   23.40
  -4  -5  -2   97.49    7.90
  -4  -5  -2   69.79    6.50
  -5   9  -2   82.29    7.40
   9  -4  -2  102.39    7.90
   9  -4  -2   75.39    6.30
   5  -9   2   88.89    7.00
   5  -9   2   89.29    7.30
   4   5   2   79.59    6.80
  -5  -5  -2  165.48   11.90
  -5  -5  -2  126.49   10.20
  -5  10  -2  136.89   10.80
   5   5   2  132.69   10.20
   5 -10   2  157.78   10.80
 -10   5   2  145.99   11.40
   5   5   2  140.89   10.50
   5 -10   2  138.89   11.00
  -6  -5  -2  318.77   21.40
  -5  11  -2  265.07   19.80
 -11   6   2  297.37   20.90
   6   5   2  293.77   19.80
  -6  -4  -2  225.38   16.50
  -4  10  -2  223.78   15.60
 -10   6   2  222.08   16.30
   4 -10   2  244.48   16.00
   6   4   2  227.78   15.50
   6   4   2  205.48   15.20
  -6  -3  -2  316.47   21.20
  -3   9  -2  294.67   20.50
   6   3   2  330.57   20.50
   6   3   2  305.77   20.70
   3  -9   2  332.17   21.20
  -9   6   2  311.97   21.40
   8  -6  -2  381.36   22.60
  -6  -2  -2  349.37   23.40
   8  -6  -2  417.96   24.60
  -2   8  -2  351.26   23.10
   2  -8   2  368.76   23.70
   6   2   2  340.97   22.80
  -8   6   2  337.17   23.90
   6   2   2  349.87   23.40
  -6  -1  -2  317.97   20.10
   7  -6  -2  295.97   19.30
  -1   7  -2  302.97   19.70
  -1   7  -2  363.56   21.00
   7  -6  -2  340.47   21.20
   6   1   2  302.87   19.40
  -7   6   2  275.07   20.40
   1  -7   2  295.97   20.30
   6   1   2  299.87   20.10
   6  -6  -2   21.70    2.70
   6  -6  -2   17.70    3.30
  -6   0  -2   26.60    3.10
   0   6  -2   27.30    2.70
   0   6  -2   24.30    3.80
  -6   6   2   19.60    3.30
   0  -6   2   24.80    3.30
   6   0   2   23.40    2.80
   5  -6  -2 1335.27   73.19
  -6   1  -2 1305.57   73.99
   1   5  -2 1157.98   73.99
   1   5  -2 1247.68   73.79
   6  -1   2 1178.78   72.69
   6  -1   2 1186.28   76.19
  -5   6   2 1120.29   74.69
  -1  -5   2 1207.58   74.19
  -6   2  -2 1966.80  115.19
   2   4  -2 1887.31  114.39
   2   4  -2 1864.81  115.59
   4  -6  -2 2011.40  119.59
  -2  -4   2 1931.21  115.49
   6  -2   2 1908.01  118.89
   6  -2   2 1949.01  113.49
  -4   6   2 1679.93  116.19
  -4   6   2 1979.90  114.09
   3   3  -2 1195.88   73.49
  -6   3  -2 1254.87   73.39
   3  -6  -2 1151.38   73.19
   3  -6  -2 1210.38   76.19
   3   3  -2 1219.38   72.89
  -3   6   2 1225.98   72.79
  -3  -3   2 1245.78   73.69
   6  -3   2 1171.38   75.79
  -3   6   2 1217.48   73.99
  -6   4  -2 1926.31  113.69
   2  -6  -2 2048.00  117.79
   2  -6  -2 1774.82  113.69
   4   2  -2 1880.51  112.69
  -4  -2   2 1862.51  114.09
  -2   6   2 1940.21  112.89
  -4  -2   2 1772.32  113.69
   6  -4   2 1864.31  117.49
  -6   5  -2 1123.29   70.79
   1  -6  -2 1265.27   71.19
   5   1  -2 1181.88   70.19
   1  -6  -2 1237.98   73.29
  -6   5  -2  976.00   71.79
  -5  -1   2 1254.57   70.99
  -5  -1   2 1207.38   71.09
  -1   6   2 1138.19   70.49
  -1   6   2 1179.08   71.09
   6  -5   2 1099.99   73.29
   0  -6  -2   23.10    2.80
   0  -6  -2   22.50    3.40
  -6   6  -2   22.80    2.90
  -6   6  -2   19.20    3.50
   6   0  -2   31.30    3.70
  -6   0   2   25.20    2.90
   0   6   2   25.60    3.40
  -6   0   2   21.90    2.80
  -1  -6  -2  307.97   21.50
  -6   7  -2  314.17   21.70
   7  -1  -2  333.07   20.40
  -1  -6  -2  291.07   21.10
   6  -7   2  336.77   21.50
  -7   1   2  330.37   20.90
   6  -7   2  339.67   20.60
  -7   1   2  321.17   20.50
   1   6   2  356.96   21.20
  -2  -6  -2  370.96   24.40
  -2  -6  -2  333.97   23.80
  -6   8  -2  355.46   24.40
   8  -2  -2  364.16   23.00
   6  -8   2  375.06   24.20
  -8   2   2  380.26   23.10
   2   6   2  356.16   23.50
   6  -8   2  406.16   23.40
  -8   2   2  374.46   23.90
  -3  -6  -2  314.77   20.70
  -3  -6  -2  355.06   21.80
   9  -3  -2  288.57   19.70
  -6   9  -2  291.27   21.20
   6  -9   2  307.77   20.30
   3   6   2  333.17   20.60
   6  -9   2  314.97   21.10
  -9   3   2  318.57   21.10
  -4  -6  -2  216.98   16.10
  10  -4  -2  270.87   17.60
  -4  -6  -2  258.77   17.60
  -6  10  -2  214.68   16.60
 -10   4   2  248.18   17.20
   6 -10   2  250.67   16.00
   4   6   2  218.08   16.00
   6 -10   2  235.88   16.70
  -6  11  -2  290.97   21.90
  11  -5  -2  374.56   23.20
  -5  -6  -2  329.47   23.10
   5   6   2  305.97   21.50
  12  -6  -2  102.49    9.20
  -6  12  -2   74.59    8.20
  -6  -6  -2   90.59    9.90
 -12   6   2   89.49    9.90
   6   6   2   92.29    8.40
  12  -7  -2   77.59    8.00
  -7  -5  -2   50.59    8.10
  -5  12  -2   43.70    6.20
   7   5   2   58.09    6.60
 -12   7   2   66.39    8.20
  11  -7  -2  166.48   12.10
  -7  -4  -2  140.59   11.90
  -4  11  -2  118.79   10.50
   7   4   2  140.89   11.00
 -11   7   2  139.89   12.00
   4 -11   2  149.29   11.70
  -7  -3  -2  240.88   16.30
  -3  10  -2  210.78   15.10
 -10   7   2  224.48   16.30
   7   3   2  205.48   15.20
   3 -10   2  235.68   16.20
  -2   9  -2  460.15   32.20
  -7  -2  -2  538.75   33.00
   7   2   2  498.75   33.10
   2  -9   2  575.54   33.40
  -9   7   2  506.55   33.40
  -1   8  -2  285.27   19.10
  -7  -1  -2  288.27   19.70
   8  -7  -2  342.97   20.90
   7   1   2  296.07   19.70
  -8   7   2  269.87   20.10
   1  -8   2  314.27   20.20
   7   1   2  295.27   19.00
  -7   0  -2   11.30    2.40
   7  -7  -2    8.00    2.00
   0   7  -2   10.40    3.50
   7  -7  -2   11.30    3.10
   7   0   2    8.30    1.90
   0  -7   2    7.80    2.50
  -7   7   2    8.60    2.80
   7   0   2    6.70    1.90
   6  -7  -2  278.57   21.70
   1   6  -2  367.46   21.50
   1   6  -2  305.57   20.20
   7  -1   2  319.67   19.80
  -6   7   2  330.57   20.10
   7  -1   2  339.07   21.10
  -1  -6   2  309.97   20.90
  -6   7   2  322.27   21.10
   5  -7  -2  885.21   56.29
  -7   2  -2  827.52   54.89
   2   5  -2  795.12   53.59
  -7   2  -2  916.61   53.89
   2   5  -2  963.50   54.19
  -5   7   2  886.61   54.39
  -5   7   2  931.61   53.19
  -2  -5   2  832.92   54.09
   7  -2   2  877.31   55.49
   3   4  -2 1680.83   96.49
  -7   3  -2 1556.74   98.29
   3   4  -2 1482.45   96.99
   4  -7  -2 1636.94  100.59
  -7   3  -2 1607.14   96.79
  -3  -4   2 1642.84   97.29
  -4   7   2 1627.64   95.89
   7  -3   2 1565.34  100.09
  -7   4  -2 1651.73   98.29
   3  -7  -2 1558.04  101.79
   4   3  -2 1614.84   97.59
  -7   4  -2 1759.12   99.99
   7  -4   2 1584.74  101.59
  -4  -3   2 1522.55   98.49
  -3   7   2 1693.13   97.59
  -3   7   2 1676.33   98.99
  -4  -3   2 1555.94   98.49
   2  -7  -2  861.21   55.39
   5   2  -2  896.21   53.19
  -7   5  -2  902.21   54.79
   2  -7  -2 1001.70   53.99
  -7   5  -2  882.01   53.59
  -2   7   2  846.72   53.29
  -5  -2   2  848.22   53.49
  -2   7   2  832.82   53.69
  -5  -2   2  902.01   53.79
   7  -5   2  780.82   55.29
   1  -7  -2  322.57   21.20
  -7   6  -2  296.47   20.40
  -7   6  -2  322.67   21.50
   1  -7  -2  380.06   21.40
   6   1  -2  330.67   20.40
   7  -6   2  283.37   21.30
  -1   7   2  328.57   21.00
  -6  -1   2  321.27   20.60
  -6  -1   2  315.17   20.40
  -7   7  -2    8.10    2.90
   0  -7  -2    5.60    1.90
   7   0  -2    9.00    2.10
  -7   7  -2   14.30    2.30
   0  -7  -2    8.20    2.90
   0   7   2    6.70    2.40
   7  -7   2    7.80    2.20
  -7   0   2    7.30    2.10
   8  -1  -2  311.87   19.50
  -1  -7  -2  311.77   20.90
  -1  -7  -2  260.97   20.10
   7  -8   2  310.97   19.50
  -8   1   2  314.37   20.10
   7  -8   2  305.57   20.30
  -8   1   2  324.57   19.60
   1   7   2  310.57   20.00
  -2  -7  -2  503.25   34.70
   9  -2  -2  515.85   33.30
  -7   9  -2  558.64   35.00
  -2  -7  -2  588.24   35.40
   7  -9   2  548.15   35.00
   7  -9   2  531.35   33.60
  -9   2   2  585.34   34.70
   2   7   2  507.75   33.80
  -3  -7  -2  258.97   18.00
  -7  10  -2  236.08   16.90
  10  -3  -2  216.78   15.50
 -10   3   2  264.17   17.30
   3   7   2  238.78   16.40
   7 -10   2  230.88   16.50
  -7  11  -2  153.28   12.40
  -4  -7  -2  159.68   13.70
   4   7   2  151.88   11.80
 -11   4   2  165.38   13.20
   7 -11   2  153.38   11.80
  -5  -7  -2   64.19    8.80
  -7  12  -2   53.39    6.60
   5   7   2   60.89    6.70
 -12   5   2   57.19    8.10
  12  -8  -2   28.90    5.40
  -8  -4  -2   28.30    6.10
   8   4   2   26.00    4.80
 -12   8   2   25.20    5.70
  -8  -3  -2   82.79    8.50
  11  -8  -2   91.39    8.50
   8   3   2   75.09    7.30
 -11   8   2   75.79    8.30
   3 -11   2   72.59    8.30
  -2  10  -2  106.19    9.00
  -8  -2  -2  126.19   10.30
   2 -10   2  135.89   10.70
 -10   8   2  123.19   10.20
   8   2   2  131.59    9.40
   8   2   2  119.59    9.40
  -8  -1  -2  477.55   30.70
  -1   9  -2  448.96   29.80
   8   1   2  462.55   30.90
  -9   8   2  461.95   30.90
   1  -9   2  522.65   31.20
   8   1   2  484.85   29.60
  -8   0  -2  467.25   29.70
   8  -8  -2  541.15   31.30
   0   8  -2  435.26   29.00
   0  -8   2  447.46   29.90
  -8   8   2  458.85   30.00
   8   0   2  467.25   28.70
   8   0   2  440.46   30.10
   1   7  -2  376.96   22.00
   7  -8  -2  323.97   22.00
   1   7  -2  287.47   20.00
  -8   1  -2  307.27   20.60
  -7   8   2  343.87   21.10
  -1  -7   2  293.97   20.90
  -7   8   2  321.97   19.90
   8  -1   2  297.57   20.90
   6  -8  -2  354.26   25.30
   2   6  -2  359.36   23.40
   2   6  -2  403.36   24.80
  -8   2  -2  360.56   23.80
   8  -2   2  371.46   24.60
  -6   8   2  397.56   24.20
  -6   8   2  386.06   23.30
  -2  -6   2  359.26   24.30
   3   5  -2  341.17   22.30
  -8   3  -2  335.87   22.70
   5  -8  -2  379.26   24.40
   3   5  -2  392.56   23.60
  -8   3  -2  398.86   24.30
  -5   8   2  343.27   22.50
  -3  -5   2  391.56   23.50
   8  -3   2  339.67   23.60
  -5   8   2  320.97   22.80
  -8   4  -2   90.89    7.00
   4   4  -2   98.69    7.80
   4   4  -2   75.99    6.30
  -8   4  -2  117.29    8.70
   4  -8  -2   91.09    7.60
  -4   8   2   98.89    7.20
   8  -4   2   86.79    7.20
  -4   8   2   96.89    7.20
  -4  -4   2   80.19    7.20
  -8   5  -2  385.56   23.20
   3  -8  -2  328.67   23.90
   5   3  -2  375.76   23.30
   8  -5   2  383.16   24.10
  -5  -3   2  322.17   22.60
  -3   8   2  418.66   23.40
  -5  -3   2  325.77   23.30
  -8   6  -2  357.66   22.90
   2  -8  -2  350.46   23.70
   6   2  -2  359.76   22.80
  -6  -2   2  366.46   23.20
  -2   8   2  380.26   23.30
  -6  -2   2  360.86   22.70
   8  -6   2  333.27   23.90
  -8   7  -2  334.67   20.90
   1  -8  -2  285.77   20.30
   7   1  -2  313.97   19.80
  -8   7  -2  277.87   19.60
  -7  -1   2  320.07   19.80
  -7  -1   2  308.97   19.90
  -1   8   2  307.87   20.30
   0  -8  -2  435.46   30.60
   8   0  -2  475.65   29.60
  -8   8  -2  560.44   31.30
  -8   0   2  462.25   29.80
  -8   0   2  515.95   30.30
   8  -8   2  446.46   29.50
   0   8   2  484.45   30.20
   8  -8   2  425.16   30.70
   9  -1  -2  487.05   30.70
  -8   9  -2  577.64   32.50
  -1  -8  -2  440.36   31.70
  -9   1   2  530.95   31.80
  -9   1   2  490.75   30.90
   8  -9   2  456.45   31.90
   1   8   2  473.25   31.10
  -2  -8  -2  169.18   12.60
  -8  10  -2  147.29   11.30
  10  -2  -2  124.29    9.90
   2   8   2  145.79   10.70
   8 -10   2  124.29   10.30
 -10   2   2  137.39   11.20
  -3  -8  -2   87.99    9.90
  -8  11  -2   91.09    8.40
   8 -11   2   83.69    7.80
   3   8   2   84.69    7.90
 -11   3   2   80.09    9.00
  -4  -8  -2   31.90    7.00
  -8  12  -2   26.70    5.30
   8 -12   2   27.40    4.80
   4   8   2   34.50    5.20
   3 -12   2   25.80    5.70
   9   3   2   31.30    4.90
  11  -9  -2   17.30    4.60
  -9  -2  -2   15.40    4.30
 -11   9   2   17.00    4.20
   2 -11   2    9.80    4.40
  10  -9  -2   94.19    8.30
  -9  -1  -2   74.19    7.80
 -10   9   2   88.49    7.80
   1 -10   2   71.69    7.90
   9   1   2   78.39    7.20
   9  -9  -2  259.57   17.10
  -9   0  -2  210.68   15.90
   9   0   2  210.28   15.90
  -9   9   2  238.68   16.30
   0  -9   2  233.48   16.50
  -9   1  -2  449.76   30.50
   8  -9  -2  541.35   32.40
   9  -1   2  464.05   31.30
  -8   9   2  468.85   30.80
  -1  -8   2  477.85   31.00
  -9   2  -2  493.65   33.10
   7  -9  -2  553.74   35.20
   9  -2   2  504.65   34.10
  -2  -7   2  529.15   33.70
  -7   9   2  547.55   33.50
   3   6  -2  373.06   21.70
   6  -9  -2  307.67   21.90
  -9   3  -2  286.07   20.30
  -3  -6   2  328.37   20.90
  -6   9   2  317.97   20.00
   9  -3   2  293.67   21.00
  -6   9   2  299.47   20.50
   5  -9  -2   80.29    8.20
   4   5  -2   99.49    8.30
  -9   4  -2   80.89    7.20
  -9   4  -2  109.59    9.10
   9  -4   2   83.49    7.60
  -5   9   2  102.79    7.60
  -4  -5   2   90.49    8.00
  -5   9   2  106.29    7.50
   4  -9  -2   89.69    7.90
   5   4  -2   83.29    7.80
  -9   5  -2   87.49    7.20
  -4   9   2  100.29    7.50
   9  -5   2   87.09    7.60
  -4   9   2  106.89    7.60
  -5  -4   2   77.09    7.50
   6   3  -2  347.07   22.20
   3  -9  -2  292.97   22.50
  -9   6  -2  342.07   22.00
  -3   9   2  403.56   22.50
  -6  -3   2  298.87   22.20
   9  -6   2  354.76   23.20
   2  -9  -2  471.85   33.90
   7   2  -2  548.35   32.90
  -9   7  -2  527.35   32.90
  -7  -2   2  520.55   33.20
  -2   9   2  568.34   33.30
   9  -7   2  507.85   34.40
   1  -9  -2  426.36   30.60
   8   1  -2  488.75   29.80
   9  -8   2  457.05   30.90
  -8  -1   2  458.15   29.90
  -1   9   2  528.85   30.40
   0  -9  -2  197.28   14.80
   9   0  -2  209.98   14.40
   0   9   2  236.48   15.20
   9  -9   2  205.18   15.00
  -9   0   2  220.58   14.70
  10  -1  -2   66.29    6.40
  -1  -9  -2  101.29    9.30
   1   9   2   72.99    7.20
   9 -10   2   63.99    6.40
  -9  11  -2   17.90    4.40
  -2  -9  -2   17.00    5.50
   2   9   2   11.50    3.70
   9 -11   2   12.70    3.60
  -3  -9  -2   27.70    6.90
   9 -12   2   30.20    4.70
  11 -10  -2   46.70    6.40
 -10  -1  -2   33.50    5.70
   1 -11   2   43.80    6.80
 -11  10   2   53.49    6.20
   0  10  -2   18.20    5.30
 -10   0  -2   13.20    3.50
  10 -10  -2   11.60    4.10
  10   0   2   12.00    3.50
 -10  10   2   11.00    3.60
   0 -10   2   17.60    4.80
 -10   1  -2   64.79    7.10
   9 -10  -2   78.89    8.00
   1   9  -2  112.19    9.80
  10  -1   2   78.69    7.40
  -1  -9   2   84.29    8.20
  -9  10   2   69.39    7.00
   8 -10  -2  137.09   11.30
 -10   2  -2  118.99    9.70
  -2  -8   2  116.19   10.10
  -8  10   2  137.09   10.10
  10  -2   2  129.19   10.30
   7 -10  -2  226.98   17.20
 -10   3  -2  213.48   15.60
  -3  -7   2  212.88   16.10
  10  -3   2  234.58   16.50
  -7  10   2  254.87   15.90
 -10   4  -2  209.88   15.20
   4   6  -2  247.88   16.50
   6 -10  -2  217.98   16.70
  -4  -6   2  225.28   15.90
  -6  10   2  226.18   15.30
  10  -4   2  214.78   16.00
 -10   5  -2  146.09   11.30
   5   5  -2  166.58   12.20
   5 -10  -2  142.59   12.20
  -5  10   2  179.28   11.50
  -5  -5   2  146.19   11.80
  10  -5   2  146.19   12.10
  -5  10   2  168.98   11.50
   4 -10  -2  217.68   16.30
 -10   6  -2  223.28   15.60
   6   4  -2  258.07   16.40
  -6  -4   2  217.48   16.10
  10  -6   2  226.58   16.50
   7   3  -2  238.88   15.60
   3 -10  -2  199.98   15.50
  -7  -3   2  213.38   15.60
  10  -7   2  198.98   16.00
  -3  10   2  259.27   15.80
   8   2  -2  129.39   10.00
   2 -10  -2  107.39    9.70
  -8  -2   2  123.39    9.80
  -2  10   2  156.18   10.60
  10  -8   2  124.69   10.30
 -10   9  -2  107.99    8.40
   9   1  -2   78.49    7.20
   1 -10  -2   53.99    6.60
  -1  10   2   90.69    7.80
  -9  -1   2   74.89    7.10
  10  -9   2   78.09    7.00
 -10  10  -2   18.90    4.50
  10   0  -2   13.10    3.50
   0  10   2   13.40    4.00
 -10   0   2   14.40    3.50
  10 -10   2   11.60    3.30
  11  -1  -2   35.20    5.00
 -10  11  -2   53.39    6.60
   1  10   2   46.00    6.10
  10 -11   2   37.60    5.20
  10 -11  -2   40.30    6.20
 -11   1  -2   37.00    5.40
   1  10  -2   61.29    7.80
  -1 -10   2   42.30    6.20
  11  -1   2   36.80    5.60
   9 -11  -2    7.30    4.40
 -11   2  -2   11.10    3.50
   2   9  -2   17.50    5.60
  11  -2   2   15.50    4.00
  -9  11   2    8.70    3.50
  -2  -9   2   13.40    4.40
   3   8  -2  100.99    9.40
   8 -11  -2   78.99    8.50
 -11   3  -2   65.69    7.20
  -3  -8   2   69.89    7.80
  11  -3   2   89.89    8.00
  -8  11   2   94.19    7.80
   4   7  -2  176.78   13.10
 -11   4  -2  132.89   10.80
   7 -11  -2  125.89   12.00
  11  -4   2  160.48   12.10
  -7  11   2  162.38   11.20
  -4  -7   2  122.89   11.50
   6 -11  -2  270.17   21.20
   5   6  -2  338.37   21.30
 -11   5  -2  262.87   19.60
  -6  11   2  323.47   19.90
  -5  -6   2  302.67   20.70
  11  -5   2  278.27   20.80
   5 -11  -2  281.37   20.90
   6   5  -2  331.07   20.60
  -6  -5   2  288.17   20.40
  11  -6   2  267.27   20.60
 -11   7  -2  170.08   12.30
   7   4  -2  136.59   11.10
   4 -11  -2  119.29   11.10
  -7  -4   2  137.79   11.40
  -4  11   2  154.88   11.00
  11  -7   2  121.49   11.40
 -11   8  -2   96.49    8.80
   8   3  -2   82.59    7.50
   3 -11  -2   57.89    7.10
  -8  -3   2   78.49    7.80
  11  -8   2   69.59    7.60
  -3  11   2   86.29    7.70
   9   2  -2   13.60    3.90
 -11   9  -2   21.20    5.00
   2 -11  -2    9.30    3.30
  -9  -2   2   14.50    3.70
  11  -9   2   11.80    3.50
  -2  11   2   11.10    3.90
  10   1  -2   38.50    5.60
 -11  10  -2   61.19    7.30
  -1  11   2   51.89    6.50
 -10  -1   2   40.80    5.70
  11 -10   2   49.20    5.90
 -12   3  -2   26.30    4.50
  -9  12   2   36.20    5.10
  12  -3   2   30.80    5.60
   8 -12  -2   31.30    6.30
   4   8  -2   32.80    6.80
 -12   4  -2   25.80    4.60
  12  -4   2   36.30    5.90
  -8  12   2   34.70    4.80
  -4  -8   2   29.50    5.60
   7 -12  -2   45.50    7.40
   5   7  -2   59.69    7.90
  12  -5   2   53.09    6.90
  -5  -7   2   58.39    7.50
   6   6  -2   86.79    9.20
   6 -12  -2   82.69    8.60
  12  -6   2   78.49    8.50
  -6  -6   2   69.49    8.20
 -12   7  -2   86.09    8.80
   5 -12  -2   47.10    7.00
   7   5  -2   53.19    7.40
  12  -7   2   60.99    7.60
  -7  -5   2   50.49    7.20
   4 -12  -2   24.00    5.00
   8   4  -2   26.80    5.40
 -12   8  -2   32.90    6.00
  12  -8   2   24.40    5.10
  -8  -4   2   30.40    5.30
 -12   9  -2   36.70    6.00
  -9  -3   2   31.20    5.60
  -3  12   2   29.00    5.10
  -1   0  -3  264.77   17.00
   1  -1  -3  308.07   16.80
   1  -1  -3  256.47   16.80
   1  -1  -3  264.77   17.10
  -1   0  -3  264.67   16.60
   0   1  -3  280.97   17.00
  -1   0  -3  259.87   16.70
  -1   0  -3  275.57   17.10
   0   1  -3  268.97   16.70
   0   1  -3  263.67   16.60
   0  -1   3  277.47   16.90
  -1   1   3  262.77   16.60
  -1   1  -3  257.67   16.50
   0  -1  -3  255.07   16.80
   0  -1  -3  263.37   17.00
   0  -1  -3  268.57   16.80
  -1   1  -3  272.47   16.60
   0  -1  -3  271.97   16.50
  -1   1  -3  272.97   16.90
   1   0  -3  280.47   16.60
   1   0  -3  263.87   16.50
   1   0  -3  266.57   16.90
   1  -1   3  265.97   16.90
  -1   0   3  287.77   16.60
   2  -1  -3  134.99    8.90
   2  -1  -3  143.19    9.10
  -1  -1  -3  139.69    9.00
  -1   2  -3  142.09    8.70
  -1   2  -3  132.59    8.80
  -1  -1  -3  137.09    9.00
  -1  -1  -3  135.79    8.60
  -1   2  -3  140.19    9.20
   1   1   3  141.49    9.00
   1  -2   3  139.99    8.90
   1  -2   3  133.59    9.20
  -2   1   3  147.79    8.70
  -2   1   3  134.29    8.80
  -2  -1  -3  704.03   45.10
  -2  -1  -3  716.43   46.50
  -1   3  -3  810.22   44.70
   3  -2  -3  753.82   44.90
  -2  -1  -3  806.62   45.40
   3  -2  -3  676.73   46.90
  -1   3  -3  751.02   45.60
   1  -3   3  783.52   45.60
  -3   2   3  739.73   45.50
   1  -3   3  780.52   46.50
   2   1   3  736.43   44.80
  -3   2   3  691.63   44.80
  -2   0  -3 3145.99  195.18
   0   2  -3 3171.58  196.48
   2  -2  -3 3005.40  201.68
   0   2  -3 3485.35  193.18
   2  -2  -3 2992.60  193.38
  -2   0  -3 3387.76  196.88
  -2   0  -3 3329.87  201.58
   0  -2   3 3118.79  201.48
   2   0   3 3287.97  193.08
   0  -2   3 3238.78  195.18
  -2   2   3 3597.84  194.98
  -2   2   3 3260.77  196.48
  -2   1  -3  139.39    8.60
   1  -2  -3  133.29    9.10
   1   1  -3  129.69    8.70
  -2   1  -3  139.69    8.70
   1  -2  -3  149.79    8.90
   1   1  -3  139.29    8.80
  -2   1  -3  129.89    9.10
   1   1  -3  138.99    8.60
   2  -1   3  137.69    8.90
  -1  -1   3  132.09    8.90
   2  -1   3  138.89    8.70
  -1   2   3  141.69    8.70
  -2   2  -3 2986.60  194.98
   2   0  -3 3324.67  196.28
   2   0  -3 3298.37  201.38
   2   0  -3 3147.98  192.78
  -2   2  -3 3357.46  196.18
  -2   2  -3 3440.76  192.68
   0  -2  -3 3451.55  194.68
   0  -2  -3 3341.37  201.18
   0   2   3 3175.88  195.88
   2  -2   3 3202.28  200.98
   0   2   3 3163.48  193.08
  -2   0   3 3053.09  194.58
  -2   3  -3  760.52   44.10
   3  -1  -3  707.63   43.30
   3  -1  -3  684.43   45.20
  -1  -2  -3  778.12   45.00
  -2   3  -3  677.13   44.00
  -2   3  -3  764.32   43.10
  -1  -2  -3  716.63   43.80
   1   2   3  761.82   43.60
   1   2   3  672.43   43.40
   2  -3   3  698.33   44.90
  -3   1   3  791.32   43.90
  -3   1   3  619.64   43.40
  -3  -2  -3   10.70    1.60
  -3  -2  -3   15.40    2.20
   5  -3  -3    9.70    1.70
  -2   5  -3   17.60    2.10
  -2   5  -3   10.20    1.90
   5  -3  -3   12.40    2.30
  -5   3   3   11.60    1.80
   3   2   3    9.20    2.00
   2  -5   3    9.80    1.80
   2  -5   3   11.00    2.10
   4  -3  -3   88.79    5.70
  -3  -1  -3   72.39    5.00
  -3  -1  -3   85.59    6.00
  -1   4  -3   87.49    5.60
  -3  -1  -3   82.49    5.60
  -1   4  -3   76.19    5.70
   4  -3  -3   74.49    6.20
   1  -4   3   89.99    6.10
  -4   3   3   83.69    5.70
   1  -4   3   77.49    5.70
   3   1   3   80.89    5.80
   3  -3  -3  582.04   38.00
  -3   0  -3  595.94   37.50
   3  -3  -3  563.24   36.20
   0   3  -3  614.44   36.60
  -3   0  -3  617.94   36.70
   0   3  -3  603.74   36.10
  -3   0  -3  627.14   36.30
   0  -3   3  591.44   36.60
  -3   3   3  599.54   36.70
   3   0   3  577.44   36.00
   1   2  -3  798.12   45.80
   2  -3  -3  721.63   45.50
  -3   1  -3  829.62   45.90
   1   2  -3  744.43   45.20
  -3   1  -3  718.63   45.80
   3  -1   3  756.92   45.00
  -2   3   3  722.83   45.80
  -1  -2   3  698.33   45.70
   3  -1   3  772.82   47.00
   2   1  -3  787.52   46.40
  -3   2  -3  737.23   47.20
   1  -3  -3  840.82   46.70
   1  -3  -3  720.33   48.40
   2   1  -3  762.02   47.00
  -3   2  -3  749.73   47.30
   2   1  -3  745.53   47.80
   3  -2   3  830.32   46.00
  -1   3   3  800.42   46.90
  -2  -1   3  730.93   46.90
   3  -2   3  784.52   48.30
  -1   3   3  779.12   47.00
  -3   3  -3  567.94   36.50
   0  -3  -3  623.64   36.10
  -3   3  -3  593.34   36.50
   3   0  -3  577.54   37.00
   0  -3  -3  602.74   37.20
   3   0  -3  599.84   35.70
  -3   3  -3  643.64   35.20
   0   3   3  574.54   36.00
  -3   0   3  590.24   36.20
   3  -3   3  607.34   37.10
  -3   0   3  531.35   36.00
   0   3   3  578.64   36.00
  -1  -3  -3   76.09    5.50
   4  -1  -3   80.79    5.30
  -3   4  -3   79.09    5.80
  -1  -3  -3   81.19    5.40
   4  -1  -3   76.69    5.70
  -3   4  -3   72.89    5.70
  -3   4  -3   86.59    4.90
   1   3   3   69.49    5.50
   1   3   3   64.29    4.90
   3  -4   3   69.19    5.40
  -4   1   3   80.89    5.40
  -3   5  -3   10.10    2.00
   5  -2  -3   11.60    2.10
  -3   5  -3   12.40    1.40
  -2  -3  -3   14.00    1.80
  -2  -3  -3    7.30    1.70
   3  -5   3   10.90    1.90
   2   3   3    8.10    1.90
  -5   2   3   10.60    1.80
  -5   2   3   13.50    1.50
   3  -5   3   10.20    2.00
  -3  -3  -3  202.68   14.10
   6  -3  -3  222.38   13.60
   6  -3  -3  175.78   14.70
  -3   6  -3  234.78   14.40
  -3  -3  -3  219.48   14.10
   3   3   3  214.38   14.00
   3  -6   3  205.98   14.20
  -6   3   3  221.68   14.10
   3  -6   3  224.18   14.30
  -4  -3  -3  325.17   21.50
  -3   7  -3  362.56   21.60
   7  -4  -3  333.27   20.70
  -4  -3  -3  294.57   21.40
   3  -7   3  317.17   21.40
  -7   4   3  336.87   21.50
   3  -7   3  353.16   21.80
   4   3   3  335.17   21.00
  -2   6  -3  383.76   25.00
  -4  -2  -3  385.66   25.50
  -4  -2  -3  412.96   25.70
   6  -4  -3  378.96   26.60
  -2   6  -3  428.46   25.50
   6  -4  -3  391.06   24.80
   2  -6   3  421.96   25.90
   4   2   3  391.26   25.00
  -6   4   3  417.06   25.60
   2  -6   3  417.16   25.60
  -4  -1  -3  462.55   31.90
   5  -4  -3  515.15   30.90
  -4  -1  -3  524.65   31.50
   5  -4  -3  457.25   32.70
  -1   5  -3  490.25   31.40
  -1   5  -3  500.15   31.00
  -5   4   3  543.15   31.60
   1  -5   3  516.85   31.60
   1  -5   3  566.44   32.00
   4   1   3  503.45   32.00
   4   1   3  488.85   30.90
   0   4  -3 1346.97   80.29
   0   4  -3 1254.97   79.09
  -4   0  -3 1403.56   79.99
   4  -4  -3 1338.17   83.09
   4  -4  -3 1297.87   79.19
  -4   0  -3 1328.07   80.09
   4   0   3 1180.98   78.89
   4   0   3 1377.86   82.39
   0  -4   3 1299.97   80.09
   0  -4   3 1377.46   81.99
   3  -4  -3   84.29    6.30
  -4   1  -3   78.19    5.80
  -4   1  -3   88.09    5.60
   3  -4  -3   79.99    5.90
   1   3  -3   83.59    5.50
   1   3  -3   76.19    5.60
  -3   4   3   77.19    5.70
  -1  -3   3   78.89    5.90
   4  -1   3   70.29    5.30
   4  -1   3   82.39    5.70
   2  -4  -3    0.50    1.00
  -4   2  -3    0.20    0.90
   2  -4  -3    2.30    0.70
  -4   2  -3    1.50    1.00
   2   2  -3    0.00    0.60
   2   2  -3   -0.30    0.80
   4  -2   3    1.70    0.90
  -2   4   3    1.40    1.30
   4  -2   3    2.70    0.60
  -2  -2   3    1.50    1.00
  -2   4   3    1.40    0.90
   1  -4  -3   91.49    5.80
   3   1  -3   86.29    5.90
   3   1  -3   92.69    5.40
  -4   3  -3   79.99    6.10
   1  -4  -3   81.59    6.10
   3   1  -3   80.69    5.70
  -4   3  -3   74.99    6.30
  -1   4   3   81.09    5.70
   4  -3   3   80.99    5.90
  -1   4   3   87.69    6.30
  -3  -1   3   76.09    5.90
   0  -4  -3 1343.07   80.89
   4   0  -3 1334.97   77.49
   4   0  -3 1156.28   80.69
   0  -4  -3 1268.07   78.29
  -4   4  -3 1315.17   79.39
  -4   4  -3 1310.97   78.59
   0   4   3 1301.67   77.89
   4  -4   3 1326.07   80.79
  -4   0   3 1285.37   78.19
  -4   0   3 1310.87   78.69
  -4   5  -3  489.05   30.70
  -1  -4  -3  523.65   30.80
  -1  -4  -3  422.16   30.00
   5  -1  -3  464.15   31.00
   5  -1  -3  481.75   29.50
  -4   5  -3  482.75   30.20
  -5   1   3  510.75   30.00
  -5   1   3  516.35   29.60
   4  -5   3  457.05   30.80
   1   4   3  470.55   29.90
   4  -5   3  500.55   30.20
   6  -2  -3  421.66   25.60
  -2  -4  -3  381.06   26.20
  -4   6  -3  442.06   26.70
  -2  -4  -3  428.66   26.60
   4  -6   3  422.86   26.20
  -6   2   3  425.26   25.40
  -6   2   3  409.56   26.00
   2   4   3  381.26   26.00
   4  -6   3  423.46   26.80
   7  -3  -3  288.07   20.90
  -3  -4  -3  327.97   20.00
  -4   7  -3  310.27   20.20
  -3  -4  -3  305.27   20.20
   7  -3  -3  300.07   19.20
   4  -7   3  312.17   20.00
   3   4   3  306.97   19.80
   4  -7   3  301.07   20.10
  -7   3   3  313.67   19.90
  -4  -4  -3   27.20    3.30
  -4   8  -3   31.20    3.90
   8  -4  -3   29.00    3.30
   8  -4  -3   35.80    4.70
  -4  -4  -3   29.10    4.20
  -8   4   3   33.30    3.90
   4   4   3   32.10    3.80
   4  -8   3   31.20    4.00
   4  -8   3   23.70    3.50
  -5  -4  -3   47.40    5.60
   9  -5  -3   51.69    4.70
  -4   9  -3   50.99    5.30
   9  -5  -3   69.69    6.60
  -5  -4  -3   41.30    4.60
   4  -9   3   48.60    5.40
  -9   5   3   50.89    5.80
   5   4   3   53.39    5.20
  -5  -3  -3    9.80    2.10
  -3   8  -3    7.00    2.30
   8  -5  -3   10.50    3.10
   8  -5  -3    6.80    2.00
  -5  -3  -3    5.40    2.40
  -8   5   3    4.30    2.40
   3  -8   3    8.50    2.50
   5   3   3    7.20    1.90
   5   3   3    7.70    2.30
   7  -5  -3  336.77   24.90
  -2   7  -3  311.67   23.60
  -2   7  -3  396.76   23.80
   7  -5  -3  383.06   23.20
  -5  -2  -3  376.76   24.00
   5   2   3  382.36   24.10
   2  -7   3  393.76   24.10
  -7   5   3  384.96   24.10
   5   2   3  381.66   23.40
  -1   6  -3  235.28   14.10
   6  -5  -3  213.48   13.80
  -1   6  -3  207.98   14.30
  -5  -1  -3  205.78   14.30
   6  -5  -3  207.68   15.10
   1  -6   3  215.88   14.40
   5   1   3  198.18   13.70
  -6   5   3  209.88   14.30
   5   1   3  229.28   14.20
   5  -5  -3  384.96   25.00
   5  -5  -3  388.06   23.30
   0   5  -3  376.26   23.50
   0   5  -3  341.27   23.50
  -5   0  -3  402.56   23.90
   0  -5   3  368.86   23.80
   5   0   3  351.96   23.00
  -5   5   3  382.96   23.90
   5   0   3  387.76   24.10
  -5   1  -3  532.95   30.40
   4  -5  -3  490.85   30.00
   1   4  -3  467.65   30.00
   4  -5  -3  518.55   31.80
   1   4  -3  523.25   30.10
  -5   1  -3  480.75   30.30
  -4   5   3  461.15   30.40
   5  -1   3  459.15   29.40
  -1  -4   3  454.35   30.40
   5  -1   3  488.15   30.90
   3  -5  -3   12.20    2.30
  -5   2  -3   11.20    2.00
  -5   2  -3    9.40    2.00
   2   3  -3   10.60    1.50
   5  -2   3   10.40    1.20
  -3   5   3   10.20    1.90
   5  -2   3   15.80    1.90
  -2  -3   3   10.80    2.10
  -3   5   3   12.30    2.10
  -5   3  -3    7.60    2.10
   3   2  -3   11.10    1.50
  -5   3  -3    8.80    1.80
   2  -5  -3   16.10    1.80
   3   2  -3   11.30    1.80
  -3  -2   3    8.40    1.90
  -2   5   3   12.10    2.10
   5  -3   3    9.50    1.70
   4   1  -3  523.85   30.30
   1  -5  -3  495.25   31.60
  -5   4  -3  511.15   30.80
  -5   4  -3  479.85   31.50
   1  -5  -3  482.95   30.50
  -4  -1   3  472.95   30.40
  -4  -1   3  453.05   30.50
  -1   5   3  468.65   30.60
   5  -4   3  562.64   31.60
   5   0  -3  397.46   23.50
   0  -5  -3  327.07   23.70
   0  -5  -3  429.96   24.60
  -5   5  -3  380.76   23.90
  -5   5  -3  370.36   24.60
   5  -5   3  380.96   24.50
  -5   0   3  375.26   23.50
   0   5   3  374.96   23.90
  -5   0   3  372.76   23.60
  -1  -5  -3  205.88   15.20
  -5   6  -3  235.28   15.80
  -1  -5  -3  212.38   15.20
   6  -1  -3  258.07   14.80
   5  -6   3  243.28   15.60
  -6   1   3  226.68   14.60
   1   5   3  241.38   15.30
  -6   1   3  218.88   14.80
  -2  -5  -3  381.56   25.40
  -2  -5  -3  387.56   25.50
   7  -2  -3  369.26   26.10
   7  -2  -3  403.16   24.50
  -5   7  -3  401.66   25.80
   5  -7   3  413.26   25.60
   2   5   3  387.36   25.00
   5  -7   3  411.96   25.00
  -7   2   3  392.96   25.00
   8  -3  -3    9.80    2.10
  -5   8  -3    3.40    2.30
  -3  -5  -3    3.80    2.50
  -3  -5  -3    5.50    1.90
   8  -3  -3    9.00    3.00
  -8   3   3    4.60    2.40
   5  -8   3    7.00    2.20
   5  -8   3    6.10    2.00
   3   5   3    5.70    2.30
  -4  -5  -3   47.30    5.80
   9  -4  -3   43.60    4.50
  -4  -5  -3   44.90    4.50
  -5   9  -3   48.50    5.30
   9  -4  -3   63.79    6.60
  -9   4   3   48.90    5.50
   5  -9   3   41.60    4.70
   4   5   3   46.90    4.90
   5  -9   3   50.29    5.20
  -5  -5  -3   15.70    3.00
  -5  -5  -3   15.20    4.10
  10  -5  -3   21.50    4.70
  10  -5  -3   13.90    2.80
  -5  10  -3   10.10    3.20
   5 -10   3   14.90    3.40
 -10   5   3   15.80    3.80
   5   5   3   11.90    3.10
  11  -6  -3   90.99    8.60
  -6  -5  -3   57.39    7.80
  -5  11  -3   55.19    6.60
   6   5   3   53.29    5.80
   5 -11   3   66.49    6.50
   6   5   3   62.59    6.30
 -11   6   3   61.49    7.50
  -4  10  -3    5.00    2.70
  -6  -4  -3   10.10    3.70
  10  -6  -3   10.40    3.90
   4 -10   3    4.50    3.00
   6   4   3   13.10    2.70
   6   4   3    6.80    2.90
 -10   6   3    6.90    3.70
  -6  -3  -3  159.18   12.40
  -3   9  -3  153.98   11.60
   9  -6  -3  182.58   11.50
   3  -9   3  167.98   12.20
   6   3   3  151.78   11.60
   6   3   3  173.88   11.70
  -9   6   3  166.18   12.40
   8  -6  -3   89.69    7.70
   8  -6  -3   80.09    6.10
  -6  -2  -3   72.39    6.60
  -2   8  -3   72.49    6.10
   6   2   3   68.39    6.00
  -8   6   3   79.89    7.10
   6   2   3   69.19    6.00
   2  -8   3   77.39    6.90
   7  -6  -3   46.60    5.70
  -1   7  -3   66.49    5.00
  -1   7  -3   60.59    6.10
   7  -6  -3   58.19    4.90
  -6  -1  -3   58.09    5.30
   6   1   3   56.69    4.80
   6   1   3   59.29    4.90
  -7   6   3   52.69    5.40
  -6   0  -3   25.80    3.20
   0   6  -3   19.10    2.50
   6  -6  -3   16.80    3.40
   6  -6  -3   19.60    2.70
   0   6  -3   18.40    3.30
   6   0   3   21.30    2.60
  -6   6   3   21.70    3.20
   6   0   3   17.20    2.30
   0  -6   3   23.50    3.30
   1   5  -3  214.68   15.10
   1   5  -3  224.98   14.50
   5  -6  -3  222.38   15.90
  -6   1  -3  251.07   15.10
   5  -6  -3  238.38   14.60
   6  -1   3  230.38   15.00
   6  -1   3  207.08   14.00
  -1  -5   3  205.88   15.10
  -5   6   3  244.98   15.20
  -6   2  -3  367.56   26.30
  -6   2  -3  435.96   25.90
   4  -6  -3  434.46   27.10
   2   4  -3  396.46   25.70
   2   4  -3  419.36   25.50
  -4   6   3  423.46   25.60
   6  -2   3  413.96   26.30
  -4   6   3  386.36   26.00
  -2  -4   3  410.96   26.00
  -6   3  -3  185.18   15.10
   3   3  -3  226.98   14.00
  -6   3  -3  228.38   14.50
   3   3  -3  216.38   14.30
   3  -6  -3  231.88   15.30
  -3   6   3  240.08   14.60
   6  -3   3  245.18   14.80
  -3  -3   3  215.88   14.60
  -3   6   3  184.08   14.30
   4   2  -3  408.26   25.40
   2  -6  -3  448.76   26.70
  -6   4  -3  398.36   25.70
  -6   4  -3  362.96   26.60
  -4  -2   3  425.66   25.70
  -2   6   3  389.86   25.60
   6  -4   3  403.96   26.30
  -2   6   3  401.36   25.60
  -4  -2   3  423.86   25.30
   1  -6  -3  245.58   15.20
   5   1  -3  233.48   14.60
   1  -6  -3  216.58   14.70
  -6   5  -3  213.38   14.70
  -6   5  -3  201.18   15.50
   6  -5   3  212.88   15.00
  -1   6   3  216.28   14.90
  -5  -1   3  236.38   14.40
  -5  -1   3  226.68   14.50
  -6   6  -3   18.80    2.80
   0  -6  -3   20.40    3.10
  -6   6  -3   16.30    3.40
   6   0  -3   23.10    2.90
   0  -6  -3   17.50    2.70
   0   6   3   19.00    3.20
  -6   0   3   17.90    2.40
  -6   0   3   20.00    2.50
   6  -6   3   18.40    2.80
  -1  -6  -3   59.09    5.80
  -1  -6  -3   56.09    5.10
   7  -1  -3   65.29    5.10
  -6   7  -3   56.39    6.20
  -7   1   3   50.59    5.00
  -7   1   3   58.79    4.80
   1   6   3   56.69    5.70
   6  -7   3   60.29    5.40
   6  -7   3   62.89    5.10
  -2  -6  -3   74.39    6.00
  -2  -6  -3   85.29    7.40
  -6   8  -3   68.69    7.00
   8  -2  -3   71.89    5.80
   6  -8   3   74.69    5.90
  -8   2   3   71.89    6.30
   2   6   3   79.59    6.70
   6  -8   3   66.39    6.10
  -3  -6  -3  166.48   11.50
   9  -3  -3  148.89   10.90
  -3  -6  -3  187.38   13.00
  -6   9  -3  153.88   12.20
   6  -9   3  155.28   11.50
   6  -9   3  154.48   11.20
   3   6   3  158.88   11.50
  -9   3   3  163.98   11.80
  -4  -6  -3    6.20    2.50
  10  -4  -3    5.00    2.30
  -4  -6  -3    9.00    3.90
  -6  10  -3    3.80    3.10
   4   6   3    5.90    2.70
 -10   4   3    4.40    3.30
   6 -10   3    9.50    2.70
  -5  -6  -3   67.19    8.50
  -5  -6  -3   59.19    6.00
  -6  11  -3   47.80    6.50
 -11   5   3   66.09    7.60
   5   6   3   59.59    6.00
   6 -11   3   56.59    6.10
  -6  12  -3   18.10    4.50
  -6  -6  -3   22.60    6.10
 -12   6   3   19.80    5.30
   6   6   3   23.30    4.50
  12  -7  -3    3.90    4.60
  -5  12  -3    2.80    3.40
   7   5   3    5.70    3.60
  11  -7  -3   53.09    7.00
  -4  11  -3   37.80    5.20
  -7  -4  -3   44.60    6.60
 -11   7   3   45.90    6.50
   7   4   3   52.29    5.70
   7   4   3   36.30    4.70
   4 -11   3   45.70    6.20
  -7  -3  -3   19.80    4.30
  10  -7  -3   27.40    5.00
  -3  10  -3   21.20    3.40
   7   3   3   20.10    3.60
   7   3   3   19.80    3.30
 -10   7   3   19.50    4.50
   3 -10   3   17.20    4.40
  -7  -2  -3   86.49    7.50
   9  -7  -3   94.49    8.20
  -2   9  -3   75.39    6.60
   7   2   3   79.79    6.70
  -9   7   3   78.99    7.60
   7   2   3   79.19    6.70
   2  -9   3   80.69    7.90
  -1   8  -3  103.49    8.10
  -1   8  -3  112.59   10.30
   8  -7  -3  118.59    9.90
   8  -7  -3  122.49    8.20
  -7  -1  -3   98.79    8.60
   1  -8   3  120.49    9.30
   7   1   3  109.69    8.30
  -8   7   3  100.79    9.00
   7   1   3  113.79    8.10
   7  -7  -3   22.60    3.00
  -7   0  -3   20.60    3.30
   0   7  -3   18.50    2.60
   7  -7  -3   26.80    4.30
   0   7  -3   21.00    4.30
   0  -7   3   22.60    3.70
  -7   7   3   15.30    3.50
   7   0   3   20.30    2.90
  -7   1  -3   61.69    5.30
   6  -7  -3   64.59    5.20
   1   6  -3   61.59    6.10
   1   6  -3   58.59    4.80
   6  -7  -3   54.79    6.10
   7  -1   3   58.09    5.00
  -1  -6   3   56.09    5.70
  -6   7   3   55.39    5.80
   2   5  -3  413.36   25.80
   5  -7  -3  391.36   26.80
  -7   2  -3  436.06   25.60
   2   5  -3  383.36   25.00
  -5   7   3  426.26   25.10
   7  -2   3  399.96   25.90
  -2  -5   3  387.96   25.60
  -5   7   3  366.66   25.70
   4  -7  -3  331.77   21.90
   3   4  -3  313.37   20.40
  -7   3  -3  314.07   20.80
   3   4  -3  344.27   21.10
  -3  -4   3  342.97   21.10
  -4   7   3  308.97   20.60
   7  -3   3  319.17   21.30
   4   3  -3  319.87   21.50
   4   3  -3  320.87   21.20
  -7   4  -3  278.67   22.60
  -7   4  -3  355.06   21.80
   3  -7  -3  343.47   22.70
  -3   7   3  400.96   21.90
  -4  -3   3  313.37   21.80
  -3   7   3  359.16   21.70
   7  -4   3  356.46   22.30
  -7   5  -3  387.56   24.60
  -7   5  -3  323.67   25.60
   5   2  -3  384.16   24.40
   2  -7  -3  415.16   25.50
  -5  -2   3  402.96   24.30
  -5  -2   3  394.66   24.60
  -2   7   3  392.36   24.70
   7  -5   3  388.06   25.30
   6   1  -3   59.89    5.30
   1  -7  -3   58.29    5.40
  -7   6  -3   60.29    5.30
  -7   6  -3   58.19    6.70
  -1   7   3   64.29    6.00
  -6  -1   3   63.69    5.30
  -6  -1   3   61.79    5.10
   7  -6   3   68.59    5.70
   7   0  -3   19.20    3.10
   0  -7  -3   18.50    3.10
  -7   7  -3   30.60    4.50
  -7   7  -3   18.30    2.80
   0  -7  -3   19.10    3.80
  -7   0   3   31.40    3.30
   7  -7   3   14.70    3.30
  -7   0   3   19.30    2.90
   0   7   3   17.60    3.70
  -1  -7  -3  104.19    8.70
  -7   8  -3  111.79    9.70
   8  -1  -3  126.39    8.60
  -1  -7  -3  123.59    9.90
   7  -8   3  119.09    8.50
   7  -8   3  119.89    8.90
  -8   1   3  111.09    8.60
  -7   9  -3   77.09    7.80
  -2  -7  -3   82.89    8.70
   9  -2  -3   91.29    7.00
  -2  -7  -3   73.79    7.10
  -9   2   3   87.59    7.30
   7  -9   3   86.19    7.10
   2   7   3   92.89    7.60
   7  -9   3   93.19    6.90
  10  -3  -3   21.20    3.40
  -3  -7  -3   22.90    3.60
  -7  10  -3   33.40    4.90
  -3  -7  -3   28.60    5.70
 -10   3   3   20.50    4.30
   7 -10   3   20.90    3.60
   7 -10   3   20.40    3.30
   3   7   3   27.00    4.20
  -4  -7  -3   47.90    7.50
  -7  11  -3   37.40    5.70
   4   7   3   44.00    5.30
  -7  12  -3    0.60    3.40
  -5  -7  -3   -2.70    4.30
 -12   5   3    6.80    4.80
  12  -8  -3   17.70    5.50
  11  -8  -3   53.39    6.90
  -8  -3  -3   40.30    6.10
  -3  11  -3   31.20    4.50
   8   3   3   34.30    4.70
 -11   8   3   35.30    5.80
   3 -11   3   40.00    6.20
   8   3   3   43.10    5.30
  -8  -2  -3   24.50    4.50
  -2  10  -3   18.10    3.30
  10  -8  -3   26.90    5.20
   8   2   3   22.30    3.60
   2 -10   3   22.80    4.90
 -10   8   3   20.20    4.40
   8   2   3   28.20    3.90
   9  -8  -3  118.29    9.70
  -8  -1  -3  101.89    8.80
  -1   9  -3   92.59    7.70
  -9   8   3  102.99    9.20
   8   1   3  100.29    8.20
   1  -9   3  121.39    9.60
   8  -8  -3   -1.40    1.90
  -8   0  -3    3.40    2.50
   8  -8  -3   -2.10    2.80
   0   8  -3   -0.60    1.70
   0   8  -3   -6.40    3.30
  -8   8   3    2.60    3.00
   8   0   3    0.20    1.80
   0  -8   3    1.20    2.80
  -8   1  -3  113.79    8.90
   7  -8  -3   98.89    9.80
   1   7  -3  113.69    8.20
   1   7  -3  126.99   10.40
  -7   8   3  115.39    9.20
  -1  -7   3  115.09    9.20
  -7   8   3  122.19    8.40
   8  -1   3  117.79    8.80
   2   6  -3   87.79    7.80
   2   6  -3   76.79    5.70
   6  -8  -3   70.49    7.10
  -8   2  -3   71.39    6.20
   8  -2   3   64.79    6.10
  -6   8   3   77.79    6.00
  -2  -6   3   74.29    6.60
  -6   8   3   61.99    6.50
  -8   3  -3    7.50    2.20
   3   5  -3    3.60    2.80
   5  -8  -3    5.10    2.80
   3   5  -3    5.90    1.70
  -5   8   3    6.80    2.40
   8  -3   3    4.50    2.00
  -5   8   3    7.90    2.20
  -3  -5   3    8.70    2.60
  -8   4  -3   20.60    4.60
   4   4  -3   28.50    4.10
   4   4  -3   27.30    3.00
   4  -8  -3   25.00    4.00
  -8   4  -3   29.70    3.70
  -4   8   3   28.20    3.60
  -4  -4   3   28.00    3.90
  -4   8   3   35.90    3.90
   8  -4   3   28.70    3.70
   3  -8  -3    4.90    2.30
  -8   5  -3   -2.10    2.90
   5   3  -3    6.50    2.40
  -8   5  -3    6.50    2.10
  -5  -3   3    7.20    2.40
  -5  -3   3    7.50    1.90
   8  -5   3   10.20    2.50
  -3   8   3   13.60    2.80
  -8   6  -3   59.39    7.70
   2  -8  -3   73.99    6.70
  -8   6  -3   73.49    6.30
   6   2  -3   74.89    6.50
   8  -6   3   82.79    6.80
  -6  -2   3   91.89    6.80
  -2   8   3   84.39    7.10
  -6  -2   3   79.59    6.20
   7   1  -3  113.49    8.60
  -8   7  -3  102.59    8.20
   1  -8  -3  109.99    8.60
  -8   7  -3   96.09    9.50
   8  -7   3  107.19    9.00
  -7  -1   3  119.49    8.30
  -1   8   3  107.79    9.10
  -7  -1   3  126.89    8.60
   8   0  -3   -1.00    2.20
  -8   8  -3   -6.10    2.90
   0  -8  -3   -2.50    2.10
   8  -8   3    5.40    1.90
   0   8   3   -1.70    2.50
   8  -8   3   -0.10    2.30
  -8   0   3   -0.40    2.10
  -1  -8  -3  118.59   10.30
   9  -1  -3   95.69    7.80
  -8   9  -3  106.69    9.50
  -1  -8  -3   99.19    8.00
   1   8   3  111.09    8.70
   8  -9   3   96.39    7.60
  -9   1   3  103.99    8.40
   8  -9   3   90.49    8.00
  10  -2  -3   17.50    3.40
  -2  -8  -3   20.40    3.70
  -8  10  -3   19.60    4.40
  -2  -8  -3   25.50    5.50
 -10   2   3   24.80    4.40
   2   8   3   20.60    3.90
   8 -10   3   19.20    3.40
  11  -3  -3   36.10    4.70
  -3  -8  -3   46.30    7.50
  -8  11  -3   47.70    6.10
   3   8   3   40.80    5.60
   8 -11   3   42.10    5.20
 -12   4   3    4.50    4.60
  11  -9  -3    2.80    4.00
  -9  -2  -3    0.50    3.50
   9   2   3    5.40    3.00
   2 -11   3    3.00    4.10
 -11   9   3    0.20    3.50
  -9  -1  -3   24.90    4.70
  10  -9  -3   39.00    6.00
 -10   9   3   27.30    5.00
   1 -10   3   22.50    4.90
   9   1   3   28.70    4.30
   9  -9  -3   56.89    6.90
  -9   0  -3   50.79    6.10
   0   9  -3   76.29    9.20
   0  -9   3   58.59    6.90
  -9   9   3   60.69    6.80
   9   0   3   53.99    5.50
   1   8  -3  129.49   11.00
  -9   1  -3   89.19    8.10
   8  -9  -3   96.59    9.50
  -1  -8   3   93.29    8.70
   9  -1   3   96.09    8.10
  -8   9   3  105.09    8.70
  -9   2  -3   76.69    7.30
   2   7  -3  101.79    9.70
   7  -9  -3   74.19    8.30
   9  -2   3   86.89    7.40
  -7   9   3   93.49    6.90
  -7   9   3   93.09    7.50
  -2  -7   3   94.99    8.10
   6  -9  -3  169.38   12.90
   3   6  -3  200.38   13.20
  -9   3  -3  158.38   11.60
  -3  -6   3  166.48   12.00
   9  -3   3  149.39   11.60
  -6   9   3  148.79   11.00
  -6   9   3  150.08   11.40
  -9   4  -3   51.69    5.10
   5  -9  -3   47.60    5.80
   4   5  -3   65.69    6.30
  -5   9   3   46.00    5.10
  -5   9   3   46.50    5.00
   9  -4   3   46.20    5.10
  -4  -5   3   55.39    5.70
   4  -9  -3   43.90    5.40
   5   4  -3   56.59    5.60
  -9   5  -3   52.29    6.90
  -9   5  -3   53.59    5.30
  -4   9   3   58.59    5.60
  -5  -4   3   42.80    5.20
  -5  -4   3   47.00    4.60
   9  -5   3   49.30    5.20
  -9   6  -3  171.88   12.20
   6   3  -3  179.48   12.50
  -9   6  -3  206.18   14.20
   3  -9  -3  153.58   12.50
  -6  -3   3  146.79   11.50
  -3   9   3  196.48   12.70
  -6  -3   3  148.89   12.20
   9  -6   3  183.48   12.80
  -9   7  -3   85.09    7.10
   7   2  -3   87.79    7.30
  -9   7  -3   90.09    9.10
   2  -9  -3   78.89    7.30
  -7  -2   3   86.99    6.90
  -2   9   3   82.79    7.90
   9  -7   3   77.49    7.70
  -7  -2   3   94.19    7.50
  -9   8  -3  129.69   10.30
  -9   8  -3  106.69    8.00
   1  -9  -3   88.19    8.10
   8   1  -3   98.89    8.20
  -8  -1   3  101.19    8.10
   9  -8   3  103.79    8.60
   0  -9  -3   48.00    5.40
   9   0  -3   65.49    6.00
  -9   9  -3   52.99    6.70
   9  -9   3   51.39    5.40
   0   9   3   55.59    6.30
  10  -1  -3   24.60    3.90
  -1  -9  -3   20.80    3.80
  -9  10  -3   33.40    5.60
   9 -10   3   21.00    3.60
   1   9   3   24.90    4.50
  -9  11  -3    2.70    3.70
  11  -2  -3    2.50    2.80
   9 -11   3    1.80    2.60
   2   9   3    6.20    3.50
  10   1   3   19.70    4.20
   1 -11   3   23.90    5.80
 -10   0  -3    0.20    2.90
  10 -10  -3    0.00    4.00
   0 -10   3   -3.00    3.60
  10   0   3   -1.30    2.70
 -10  10   3    1.90    3.50
   9 -10  -3   24.70    5.50
   1   9  -3   39.60    7.30
 -10   1  -3   25.30    4.50
  -9  10   3   25.00    4.50
  10  -1   3   29.40    4.40
  -1  -9   3   24.60    5.00
   8 -10  -3   18.60    4.80
 -10   2  -3   20.00    4.00
   2   8  -3   23.00    6.10
  -2  -8   3   17.20    4.20
  -8  10   3   23.50    4.00
  10  -2   3   19.00    3.60
 -10   3  -3   19.30    3.80
   3   7  -3   26.40    5.90
   7 -10  -3   16.50    4.70
  10  -3   3   23.80    3.80
  -3  -7   3   23.80    4.20
  -7  10   3   22.60    3.80
   4   6  -3    7.90    4.00
 -10   4  -3    8.30    3.00
   6 -10  -3    8.90    3.70
  -6  10   3   10.30    2.70
  -4  -6   3    7.50    3.10
  -6  10   3   11.10    2.90
  10  -4   3    7.90    3.00
   5 -10  -3   14.30    3.90
   5   5  -3   16.30    4.20
 -10   5  -3   10.10    3.10
  -5  -5   3   16.00    3.90
  10  -5   3   10.90    3.20
  -5  10   3   17.10    3.40
 -10   6  -3    5.70    2.80
 -10   6  -3    6.20    4.40
   6   4  -3    7.60    3.50
   4 -10  -3    5.10    3.00
  10  -6   3    5.50    2.90
  -4  10   3    9.80    3.10
  -6  -4   3    7.70    3.40
   3 -10  -3   17.10    3.70
 -10   7  -3   21.90    3.70
   7   3  -3   23.50    4.20
 -10   7  -3   22.80    5.40
  10  -7   3   20.20    4.10
  -3  10   3   22.50    4.50
  -7  -3   3   24.50    4.20
 -10   8  -3   20.60    3.50
   8   2  -3   17.30    3.90
 -10   8  -3   30.50    5.50
   2 -10  -3   13.30    3.60
  -2  10   3   23.00    4.60
  -8  -2   3   19.30    3.70
  10  -8   3   22.70    4.10
   9   1  -3   23.10    4.30
   1 -10  -3   18.20    3.90
 -10   9  -3   34.90    5.60
  -1  10   3   29.90    4.90
  -9  -1   3   26.30    4.20
  10  -9   3   29.90    4.30
  10   0  -3   -0.30    2.80
   0 -10  -3   -1.70    2.60
 -10  10  -3   -0.70    3.60
  10 -10   3    0.70    2.70
   0  10   3   -4.00    3.20
  11  -1  -3   16.60    4.00
  10 -11   3   16.20    3.70
   1  10  -3   32.40    7.40
  11  -1   3   20.60    4.50
   9 -11  -3   -0.40    3.90
 -11   2  -3    3.50    3.00
   2   9  -3    3.60    5.60
  -9  11   3    1.20    3.20
  -2  -9   3    3.70    3.70
  11  -2   3    2.10    3.20
   8 -11  -3   39.20    6.70
   3   8  -3   62.49    8.60
 -11   3  -3   43.40    5.60
  -3  -8   3   32.30    5.70
  -8  11   3   49.20    5.70
  11  -3   3   43.80    5.60
   4   7  -3   51.99    7.80
   7 -11  -3   35.20    6.20
 -11   4  -3   38.80    5.30
  -7  11   3   46.90    5.30
  -4  -7   3   33.10    5.40
  11  -4   3   44.80    5.90
   6 -11  -3   48.30    6.90
 -11   5  -3   54.39    6.20
   5   6  -3   67.29    8.10
  -5  -6   3   57.69    6.60
  11  -5   3   56.49    6.60
   5 -11  -3   51.09    7.20
   6   5  -3   57.79    7.50
 -11   6  -3   66.79    6.80
  11  -6   3   71.39    7.30
  -6  -5   3   52.89    7.00
  -5  11   3   71.39    6.70
 -11   7  -3   61.29    7.80
 -11   7  -3   39.20    5.30
   4 -11  -3   36.10    5.70
   7   4  -3   43.70    6.10
  -4  11   3   52.99    6.10
  -7  -4   3   40.60    5.90
  11  -7   3   35.50    5.70
   3 -11  -3   31.10    5.10
   8   3  -3   36.90    5.60
 -11   8  -3   51.09    7.30
  -8  -3   3   35.80    5.40
  -3  11   3   46.70    5.70
  11  -8   3   34.90    5.60
 -11   9  -3   -1.60    4.30
   2 -11  -3   -2.20    2.60
   9   2  -3    0.10    3.30
  11  -9   3    5.00    3.20
  -9  -2   3    1.10    2.80
  -2  11   3    2.30    3.50
   1 -11  -3   11.80    3.80
  10   1  -3   19.40    4.20
  -8  12   3    2.90    3.00
 -12   5  -3    2.50    3.10
  12  -5   3    0.10    3.30
   6 -12  -3    8.50    4.80
  -6  -6   3   18.90    4.60
   5 -12  -3    0.40    3.60
  -7  -5   3    5.00    3.80
  -5  12   3    6.30    3.60
   4 -12  -3    0.40    3.60
   0   0  -4 6110.29  368.66
   0   0  -4 6060.49  385.56
   0   0  -4 6459.05  375.96
   0   1  -4 2891.81  178.58
  -1   0  -4 2914.31  171.28
   0   1  -4 3016.80  171.18
  -1   0  -4 2867.51  178.28
   1  -1  -4 2866.51  178.28
  -1   0  -4 2694.43  173.18
   1  -1  -4 2706.73  171.38
   0   1  -4 2896.51  173.88
  -1   0  -4 3064.19  173.78
   0  -1   4 2849.01  172.88
   0  -1  -4 2866.71  178.28
  -1   1  -4 3115.49  178.28
   0  -1  -4 2933.71  173.08
   1   0  -4 2813.92  178.48
  -1   1  -4 2746.43  171.18
   0  -1  -4 2892.01  173.78
  -1   1  -4 3046.80  173.88
   1   0  -4 2936.31  171.18
   1   0  -4 2829.12  173.88
  -1   1  -4 2790.22  173.18
   0  -1  -4 2638.54  171.38
  -1   0   4 2906.21  172.68
  -1   2  -4  404.96   24.80
   2  -1  -4  397.06   25.30
  -1   2  -4  408.06   24.60
   2  -1  -4  382.06   24.60
  -1  -1  -4  405.16   25.00
  -1  -1  -4  404.16   25.30
  -1  -1  -4  402.86   24.50
  -2   1   4  428.56   24.50
   1   1   4  393.76   24.80
   1  -2   4  385.86   25.10
   1  -2   4  389.96   25.20
  -2   1   4  408.76   24.70
  -2  -1  -4  823.22   51.49
  -1   3  -4  854.21   51.59
  -2  -1  -4  859.51   51.09
  -1   3  -4  916.41   50.79
   3  -2  -4  810.42   50.89
   3  -2  -4  869.31   53.09
   1  -3   4  811.22   52.49
  -3   2   4  847.42   51.49
   2   1   4  821.12   50.79
   1  -3   4  824.02   51.59
  -3   2   4  845.22   50.79
  -2   0  -4   86.09    5.60
   0   2  -4   87.09    5.90
  -2   0  -4   94.09    6.00
  -2   0  -4   81.79    6.30
   2  -2  -4   77.99    6.30
   0   2  -4   88.49    6.00
   0  -2   4   82.09    5.70
   2   0   4   90.69    6.00
  -2   2   4   88.89    5.70
  -2   2   4   84.49    5.80
   0  -2   4   94.39    6.30
   1  -2  -4  359.26   25.10
  -2   1  -4  421.46   24.90
   1   1  -4  401.56   24.90
  -2   1  -4  369.16   25.40
   1   1  -4  395.56   25.20
   1   1  -4  416.56   24.80
   1  -2  -4  410.06   25.70
   1  -2  -4  464.15   25.20
  -2   1  -4  413.06   24.70
  -1  -1   4  398.36   25.00
  -1   2   4  403.26   24.80
   2  -1   4  403.76   25.50
  -2   2  -4   93.39    6.20
   2   0  -4   85.29    5.90
   2   0  -4   82.69    6.20
  -2   2  -4   74.39    6.60
   0  -2  -4   95.99    6.30
   0  -2  -4   84.19    6.50
   0  -2  -4   95.89    6.50
  -2   2  -4  102.29    6.20
   2   0  -4   91.19    6.00
  -2   0   4   88.09    6.10
   0   2   4   78.09    6.50
   0   2   4   88.99    5.80
   2  -2   4  103.99    6.10
  -2   3  -4  846.92   53.49
  -1  -2  -4  867.81   54.69
  -2   3  -4  951.70   52.59
   3  -1  -4  853.91   52.69
   3  -1  -4  893.91   54.69
  -1  -2  -4  931.91   53.39
  -2   3  -4  920.91   53.69
  -3   1   4  861.01   52.89
   2  -3   4  788.32   53.49
   2  -3   4  877.21   54.59
  -3   1   4  849.72   53.29
   1   2   4  877.11   52.99
   1   2   4  856.41   52.89
   4  -2  -4 4501.75  273.27
  -2   4  -4 4601.24  278.17
  -2   4  -4 4951.30  273.07
  -2  -2  -4 4792.82  285.07
  -2  -2  -4 4655.53  276.17
   2   2   4 4189.28  273.27
   2  -4   4 4710.53  284.87
   2  -4   4 4351.76  276.27
  -4   2   4 4733.33  277.97
  -4   2   4 4504.35  275.37
   5  -3  -4 2286.67  137.99
  -2   5  -4 2442.36  137.89
   5  -3  -4 2348.86  144.59
  -3  -2  -4 2199.58  139.59
  -2   5  -4 2315.87  140.59
  -3  -2  -4 2472.15  143.89
   2  -5   4 2313.77  139.89
  -5   3   4 2410.26  140.39
   3   2   4 2172.58  138.09
   2  -5   4 2173.48  143.79
   4  -3  -4 1759.72  110.09
  -3  -1  -4 1870.21  109.49
  -1   4  -4 1922.61  106.99
   4  -3  -4 1627.24  105.19
  -1   4  -4 1885.61  105.09
  -3  -1  -4 1724.83  106.39
   3   1   4 1656.43  105.09
   1  -4   4 1713.13  106.49
  -4   3   4 1783.52  106.89
   1  -4   4 1656.33  109.29
  -3   0  -4  354.36   22.40
   0   3  -4  355.16   22.10
  -3   0  -4  364.06   21.70
   3  -3  -4  336.77   23.00
   0   3  -4  373.46   21.90
  -3   0  -4  353.96   22.50
   3  -3  -4  346.87   22.10
   3   0   4  346.17   21.70
   0  -3   4  359.76   22.30
   0  -3   4  343.07   22.20
  -3   3   4  366.36   22.10
  -3   1  -4  874.51   54.29
   1   2  -4  884.01   53.49
   1   2  -4  899.81   54.09
   2  -3  -4  860.71   53.79
   2  -3  -4  887.21   55.79
  -3   1  -4  888.31   53.99
   3  -1   4  953.60   53.19
   3  -1   4  881.61   55.49
  -2   3   4  892.11   54.09
  -1  -2   4  861.71   55.09
  -1  -2   4  886.51   53.99
   1  -3  -4  866.11   55.19
  -3   2  -4  811.12   53.79
   1  -3  -4  909.01   53.39
   2   1  -4  845.72   54.49
   2   1  -4  900.51   53.59
   2   1  -4  863.11   52.89
  -3   2  -4  928.41   53.69
   1  -3  -4  876.31   53.39
   3  -2   4  940.81   52.59
   3  -2   4  868.11   54.89
  -2  -1   4  857.71   53.39
  -1   3   4  885.51   53.49
  -3   3  -4  396.26   22.40
   0  -3  -4  364.66   23.70
  -3   3  -4  363.36   23.20
   3   0  -4  352.56   22.80
   3   0  -4  357.36   23.30
   0  -3  -4  373.66   23.10
   0   3   4  345.27   23.20
  -3   0   4  372.46   23.00
   3  -3   4  351.26   23.50
   0   3   4  387.36   22.80
  -3   0   4  408.06   23.10
  -3   4  -4 1963.60  108.19
  -3   4  -4 1705.63  108.59
   4  -1  -4 1658.23  111.09
  -1  -3  -4 1869.61  107.79
   4  -1  -4 1876.31  106.69
  -1  -3  -4 1739.83  111.09
  -4   1   4 1637.74  107.29
  -4   1   4 1752.42  108.29
   3  -4   4 1773.42  108.09
   3  -4   4 1956.50  111.09
   1   3   4 1705.53  106.79
   5  -2  -4 2368.26  136.89
   5  -2  -4 1975.20  142.99
  -3   5  -4 2299.37  139.59
  -2  -3  -4 2398.56  142.69
  -2  -3  -4 2326.37  138.49
  -5   2   4 2335.77  139.19
   2   3   4 2274.87  137.09
   3  -5   4 2498.55  142.79
   3  -5   4 2171.58  138.59
  -3   6  -4  326.77   21.20
  -3  -3  -4  307.67   21.10
   6  -3  -4  297.47   21.90
  -3  -3  -4  328.17   21.20
   6  -3  -4  374.16   20.60
  -6   3   4  340.37   20.90
   3   3   4  319.97   20.90
   3  -6   4  307.27   21.20
   3  -6   4  341.57   21.30
  -4  -3  -4   66.19    6.00
  -4  -3  -4   64.19    5.20
   7  -4  -4   61.59    5.30
   7  -4  -4   67.99    6.50
  -3   7  -4   64.09    5.70
   3  -7   4   69.99    6.00
  -7   4   4   62.29    5.50
   4   3   4   72.09    5.70
  -4  -2  -4  121.39    9.10
   6  -4  -4  118.49    8.60
  -2   6  -4  126.69    8.80
  -4  -2  -4  130.29    8.70
   6  -4  -4  125.89    9.70
   4   2   4  119.59    8.80
   2  -6   4  119.19    9.10
  -6   4   4  130.49    8.80
  -4  -1  -4  441.46   26.90
  -1   5  -4  406.96   26.00
   5  -4  -4  437.06   27.80
  -1   5  -4  436.16   26.40
   5  -4  -4  411.26   26.10
  -4  -1  -4  412.96   26.60
   4   1   4  445.16   26.90
  -5   4   4  416.06   26.40
   1  -5   4  418.66   26.60
   4   1   4  380.76   26.00
   4  -4  -4  172.18   11.60
   4  -4  -4  172.38   12.40
   0   4  -4  180.88   11.50
  -4   0  -4  180.18   11.90
   4   0   4  168.98   11.40
  -4   4   4  176.58   11.50
   0  -4   4  168.88   11.80
   4   0   4  184.78   11.70
   3  -4  -4 1815.62  115.09
  -4   1  -4 1835.42  111.49
   1   3  -4 1836.62  109.99
  -4   1  -4 1828.82  111.29
   1   3  -4 1812.52  111.59
   3  -4  -4 2010.00  110.39
  -1  -3   4 1798.82  111.09
   4  -1   4 1731.53  109.69
  -3   4   4 1918.31  111.79
   4  -1   4 1824.12  114.49
   2   2  -4 4770.52  287.07
   2  -4  -4 4567.24  282.67
  -4   2  -4 5058.49  287.27
   2   2  -4 4838.72  282.37
  -4   2  -4 4505.45  285.37
   2  -4  -4 4751.62  294.87
   4  -2   4 4856.51  281.87
   4  -2   4 4815.62  294.47
  -2  -2   4 4527.55  285.07
  -2   4   4 4821.22  287.07
   3   1  -4 1896.71  106.59
   3   1  -4 1791.72  104.99
  -4   3  -4 1676.33  106.29
   1  -4  -4 1769.52  105.79
   1  -4  -4 1842.32  109.59
  -4   3  -4 1817.72  106.89
  -1   4   4 1728.23  106.39
   4  -3   4 1749.62  109.29
  -3  -1   4 1709.63  105.99
  -1   4   4 1568.74  105.29
   4   0  -4  180.28   11.30
  -4   4  -4  157.78   11.60
   0  -4  -4  177.48   11.40
   0  -4  -4  175.78   11.60
  -4   4  -4  170.08   11.70
   0   4   4  161.98   11.60
  -4   0   4  176.68   11.10
  -4   0   4  165.98   11.20
   4  -4   4  177.58   11.50
   5  -1  -4  454.45   27.10
  -1  -4  -4  417.26   28.00
  -1  -4  -4  435.46   27.50
  -4   5  -4  438.26   27.90
   4  -5   4  471.95   27.80
   4  -5   4  489.55   28.10
   1   4   4  442.76   27.40
  -5   1   4  413.46   27.30
  -5   1   4  392.26   26.80
   6  -2  -4  130.09    8.80
  -2  -4  -4  127.89    9.30
  -4   6  -4  140.89    9.50
   6  -2  -4  106.59    9.30
  -2  -4  -4  124.89    9.00
   2   4   4  136.99    9.30
   4  -6   4  133.29    9.30
  -6   2   4  121.09    8.80
   4  -6   4  134.19    9.20
  -3  -4  -4   61.19    5.70
   7  -3  -4   53.79    5.90
  -4   7  -4   62.79    5.60
  -3  -4  -4   59.69    5.20
   7  -3  -4   63.89    5.10
   4  -7   4   60.49    5.50
  -7   3   4   65.99    5.40
   3   4   4   60.49    5.50
   4  -7   4   67.69    5.30
  -4  -4  -4  516.05   33.30
  -4   8  -4  548.85   33.30
  -4  -4  -4  494.95   33.20
   8  -4  -4  470.65   34.40
   8  -4  -4  533.95   32.10
  -8   4   4  530.65   32.90
   4   4   4  518.05   32.30
   4  -8   4  533.15   33.00
  -4   9  -4  525.35   34.50
  -5  -4  -4  542.75   35.10
   9  -5  -4  604.04   36.80
   9  -5  -4  517.35   33.60
  -5  -4  -4  547.25   34.90
   4  -9   4  535.35   34.50
  -9   5   4  538.45   34.60
   5   4   4  529.65   33.80
  -5  -3  -4  347.77   24.10
   8  -5  -4  347.07   25.20
  -5  -3  -4  386.26   24.00
   8  -5  -4  366.06   23.20
  -3   8  -4  364.36   23.80
   5   3   4  388.36   24.10
  -8   5   4  368.86   23.90
   3  -8   4  376.26   24.20
   5   3   4  361.16   23.30
  -2   7  -4  228.78   15.10
   7  -5  -4  213.68   16.20
   7  -5  -4  231.78   14.80
  -5  -2  -4  208.38   15.20
   5   2   4  220.88   15.00
  -7   5   4  223.78   15.10
   2  -7   4  242.58   15.50
   5   2   4  229.28   14.70
  -1   6  -4  299.47   19.60
  -1   6  -4  298.37   19.60
   6  -5  -4  307.37   19.40
   6  -5  -4  300.27   21.10
  -5  -1  -4  321.37   20.00
  -6   5   4  325.27   19.90
   1  -6   4  319.07   20.00
   5   1   4  297.17   19.90
   5   1   4  286.77   19.20
   0   5  -4   90.99    7.40
   5  -5  -4  105.29    8.30
   0   5  -4  109.69    7.30
   5  -5  -4  103.49    7.30
  -5   0  -4  105.09    7.70
   5   0   4  103.79    7.30
   0  -5   4  104.79    7.70
   5   0   4   91.59    7.00
  -5   5   4  104.79    7.50
  -5   1  -4  471.85   28.00
  -5   1  -4  426.26   27.30
   1   4  -4  424.46   27.40
   1   4  -4  438.76   27.50
   4  -5  -4  432.96   29.00
  -4   5   4  457.25   27.80
   5  -1   4  449.26   28.30
  -1  -4   4  442.06   27.80
   2   3  -4 2504.75  149.39
  -5   2  -4 2395.16  149.59
  -5   2  -4 2497.85  148.89
   3  -5  -4 2694.03  147.59
   2   3  -4 2308.07  147.09
   3  -5  -4 2608.74  153.98
  -3   5   4 2465.15  149.59
   5  -2   4 2404.16  153.28
  -3   5   4 2483.85  147.49
  -2  -3   4 2306.77  148.69
   3   2  -4 2345.27  141.79
   3   2  -4 2548.74  143.99
   2  -5  -4 2556.04  148.29
  -5   3  -4 2377.36  144.49
  -5   3  -4 2294.47  143.49
  -3  -2   4 2324.87  143.29
  -2   5   4 2231.68  143.99
   5  -3   4 2428.76  147.79
  -2   5   4 2277.87  142.19
  -5   4  -4  388.36   26.40
   1  -5  -4  418.86   26.00
   4   1  -4  427.76   26.00
   1  -5  -4  456.55   27.10
  -5   4  -4  376.06   26.70
   5  -4   4  421.36   26.80
  -4  -1   4  458.35   26.10
  -4  -1   4  446.46   26.20
  -1   5   4  362.56   26.10
   0  -5  -4  104.99    7.60
  -5   5  -4  103.39    7.70
   5   0  -4  109.09    7.50
  -5   5  -4   98.89    8.10
   0  -5  -4  102.59    7.70
  -5   0   4   96.99    7.20
   5  -5   4  112.39    7.60
  -5   0   4  101.09    7.20
   0   5   4  104.09    7.80
  -1  -5  -4  272.97   19.40
   6  -1  -4  298.37   18.80
  -5   6  -4  287.67   19.80
  -1  -5  -4  318.97   19.70
   5  -6   4  300.27   19.30
   1   5   4  295.87   19.40
   5  -6   4  296.17   19.60
  -6   1   4  307.57   19.00
   7  -2  -4  220.18   14.30
  -5   7  -4  221.58   15.30
  -2  -5  -4  233.78   14.90
  -2  -5  -4  200.68   15.00
   5  -7   4  209.38   14.80
   5  -7   4  220.48   14.70
  -7   2   4  226.68   14.50
   2   5   4  214.08   14.90
  -5   8  -4  424.06   26.40
  -3  -5  -4  378.36   26.20
   8  -3  -4  399.16   25.10
  -3  -5  -4  346.07   25.90
  -8   3   4  398.96   25.70
   5  -8   4  441.96   26.10
   3   5   4  393.86   25.60
   5  -8   4  423.36   25.80
  -4  -5  -4  581.24   36.10
   9  -4  -4  558.64   34.40
  -5   9  -4  563.44   35.60
  -4  -5  -4  491.25   35.60
   5  -9   4  601.24   35.20
   4   5   4  546.95   34.60
  -9   4   4  547.75   35.30
  -5  -5  -4  116.79   10.40
  -5  -5  -4  101.79    8.90
  -5  10  -4  111.79    9.50
  10  -5  -4  106.59    8.60
   5 -10   4  121.99    9.40
 -10   5   4  128.79    9.80
   5   5   4  127.69    9.10
  -6  -5  -4    4.80    4.20
  -5  11  -4    4.40    3.20
   6   5   4    6.90    3.10
   5 -11   4   11.70    3.70
   6   5   4    7.00    2.90
 -11   6   4   14.10    4.30
  -4  10  -4   86.79    7.40
  10  -6  -4  104.29    9.60
  10  -6  -4   81.59    7.10
  -6  -4  -4   85.39    8.40
 -10   6   4   76.49    7.90
   6   4   4   87.99    7.30
   4 -10   4   85.79    7.90
   6   4   4   75.49    7.00
  -6  -3  -4  226.38   16.40
   9  -6  -4  266.77   17.60
   9  -6  -4  232.08   15.40
  -3   9  -4  230.38   15.80
   6   3   4  223.38   15.70
  -9   6   4  215.48   16.00
   6   3   4  235.38   15.40
   3  -9   4  221.58   16.20
  -6  -2  -4  206.28   14.90
   8  -6  -4  211.48   14.20
  -2   8  -4  208.98   14.40
   8  -6  -4  194.08   15.80
  -8   6   4  229.98   15.00
   6   2   4  213.98   14.20
   6   2   4  209.88   14.50
   2  -8   4  225.58   15.20
   7  -6  -4  899.81   52.09
   7  -6  -4  840.42   55.39
  -1   7  -4  846.32   52.89
  -1   7  -4  819.52   52.59
  -6  -1  -4  860.01   53.09
   1  -7   4  901.81   53.29
   6   1   4  814.02   51.79
  -7   6   4  904.61   53.39
   6   1   4  821.32   54.09
  -6   0  -4 1184.38   70.89
   6  -6  -4 1166.98   73.69
   0   6  -4 1164.98   70.79
   0   6  -4 1077.09   70.09
   6  -6  -4 1209.58   69.79
   6   0   4 1131.19   72.49
   0  -6   4 1156.28   70.89
  -6   6   4 1153.08   71.09
  -6   1  -4  342.97   20.00
   5  -6  -4  310.77   20.90
   1   5  -4  305.57   19.30
   1   5  -4  279.77   19.60
   5  -6  -4  308.77   19.40
  -1  -5   4  301.47   19.90
  -5   6   4  282.77   19.70
   6  -1   4  305.47   19.90
  -6   2  -4  135.49    9.50
   2   4  -4  131.49    9.00
   4  -6  -4  140.19   10.30
  -6   2  -4  128.59    9.30
   2   4  -4  127.19    9.40
  -4   6   4  136.29    9.40
   6  -2   4  134.09    9.30
  -4   6   4  132.99    9.40
  -2  -4   4  129.09    9.70
   3  -6  -4  365.46   22.70
   3   3  -4  320.97   21.40
   3   3  -4  345.97   21.30
  -6   3  -4  324.67   22.00
  -6   3  -4  345.17   21.80
   6  -3   4  336.07   21.90
  -3  -3   4  350.36   21.80
  -3   6   4  312.37   21.50
  -3   6   4  346.87   21.60
   4   2  -4  153.88    9.50
   2  -6  -4  158.98   10.00
  -6   4  -4  118.29   10.00
  -6   4  -4  136.69    9.60
   6  -4   4  138.49    9.40
  -2   6   4  106.39    9.00
  -2   6   4  120.49    9.40
  -4  -2   4  136.29    9.50
  -4  -2   4  131.49    9.00
   1  -6  -4  299.27   20.90
  -6   5  -4  289.07   21.10
   5   1  -4  351.06   20.20
  -6   5  -4  315.07   20.40
  -1   6   4  336.27   20.60
  -5  -1   4  298.67   20.00
   6  -5   4  344.67   20.90
  -5  -1   4  297.37   20.10
   0  -6  -4 1200.48   73.59
   0  -6  -4 1093.39   71.39
  -6   6  -4 1187.08   72.69
  -6   6  -4 1116.49   71.19
   6   0  -4 1193.38   70.49
  -6   0   4 1163.38   70.89
   0   6   4 1162.78   70.99
  -6   0   4 1159.28   71.39
   6  -6   4 1234.78   73.59
  -1  -6  -4  888.61   53.09
   7  -1  -4  859.31   50.89
  -6   7  -4  833.32   52.69
  -1  -6  -4  766.22   51.89
  -7   1   4  833.72   51.59
   6  -7   4  847.02   51.49
   6  -7   4  797.92   53.09
   1   6   4  853.61   51.59
   8  -2  -4  212.98   14.10
  -6   8  -4  216.58   15.30
  -2  -6  -4  211.78   14.60
  -2  -6  -4  213.38   15.30
   6  -8   4  208.28   14.50
  -8   2   4  210.28   14.30
   2   6   4  203.78   14.50
   6  -8   4  210.38   14.30
  -6   9  -4  230.88   16.70
  -3  -6  -4  229.08   17.10
  -3  -6  -4  206.88   16.00
   9  -3  -4  254.27   15.70
   6  -9   4  260.97   16.00
   3   6   4  236.18   16.00
  -9   3   4  230.28   16.10
  -4  -6  -4   81.69    7.20
  -6  10  -4   80.79    7.80
  10  -4  -4   76.79    6.70
  -4  -6  -4   93.99    9.10
 -10   4   4   79.49    7.60
   4   6   4   84.49    7.30
   6 -10   4   84.49    7.00
  11  -5  -4    6.10    2.80
  -6  11  -4    5.50    3.20
  -5  -6  -4    6.10    3.00
  -5  -6  -4   10.40    4.60
   6 -11   4    7.10    3.00
   5   6   4    8.80    3.20
 -11   5   4    7.10    3.60
  -7  -4  -4   75.49    8.40
  11  -7  -4  101.89    9.90
  -4  11  -4   66.39    7.10
   4 -11   4   81.79    8.20
   7   4   4   78.59    7.20
 -11   7   4   71.29    8.20
   7   4   4   68.39    6.90
  -7  -3  -4   49.99    6.40
  -3  10  -4   45.10    5.30
  10  -7  -4   59.19    7.60
 -10   7   4   52.59    6.40
   7   3   4   51.39    5.40
   7   3   4   48.10    5.30
   3 -10   4   52.69    6.60
   9  -7  -4   28.70    3.80
   9  -7  -4   31.00    5.50
  -7  -2  -4   27.10    4.50
  -2   9  -4   23.00    3.50
   2  -9   4   24.20    4.60
  -9   7   4   22.80    4.20
   7   2   4   26.40    3.60
   7   2   4   25.20    3.60
  -1   8  -4  236.68   16.40
   8  -7  -4  263.77   16.40
   8  -7  -4  221.58   18.00
  -7  -1  -4  235.88   17.00
  -8   7   4  244.38   17.10
   1  -8   4  284.77   17.70
   7   1   4  250.67   16.80
   7  -7  -4  884.91   50.79
   7  -7  -4  843.92   54.19
   0   7  -4  848.62   51.49
  -7   0  -4  805.62   51.79
   0   7  -4  770.52   51.69
   0  -7   4  859.71   52.09
  -7   7   4  846.02   52.19
   7   0   4  807.02   52.79
   6  -7  -4  856.61   52.09
   6  -7  -4  940.11   55.59
   1   6  -4  820.92   52.89
   1   6  -4  864.71   52.79
  -7   1  -4  857.41   53.09
   7  -1   4  864.71   54.29
  -6   7   4  823.72   53.39
  -1  -6   4  831.42   53.19
   2   5  -4  220.38   15.10
  -7   2  -4  227.28   15.10
   2   5  -4  226.88   14.40
   5  -7  -4  257.57   16.30
   7  -2   4  219.38   15.00
  -5   7   4  205.68   14.50
  -5   7   4  203.28   15.00
  -2  -5   4  220.08   15.10
  -7   3  -4   62.09    6.20
   3   4  -4   59.59    5.70
   4  -7  -4   67.29    6.20
  -7   3  -4   73.09    5.80
   3   4  -4   60.99    4.90
  -4   7   4   56.19    5.50
   7  -3   4   63.89    5.40
  -4   7   4   63.59    5.60
  -3  -4   4   62.99    5.80
   4   3  -4   67.79    5.10
   4   3  -4   80.29    6.00
   3  -7  -4   66.29    6.10
  -7   4  -4   57.49    6.40
  -7   4  -4   62.49    5.60
  -3   7   4   66.09    5.70
  -3   7   4   50.89    5.30
  -4  -3   4   65.89    5.70
   7  -4   4   61.69    5.40
   2  -7  -4  235.88   16.20
  -7   5  -4  239.48   15.70
  -7   5  -4  224.58   16.80
   5   2  -4  224.08   15.50
  -5  -2   4  217.08   15.50
  -5  -2   4  217.58   15.10
  -2   7   4  256.67   16.00
   7  -5   4  261.27   16.00
  -7   6  -4  893.31   54.69
  -7   6  -4  885.11   56.29
   6   1  -4  879.61   54.19
   1  -7  -4  835.12   56.39
   7  -6   4  972.00   56.49
  -6  -1   4  834.92   54.59
  -6  -1   4  826.02   54.29
  -1   7   4  988.10   54.89
  -7   7  -4  839.52   52.89
  -7   7  -4  842.72   54.49
   7   0  -4  868.11   52.49
   0  -7  -4  869.61   54.69
   7  -7   4  891.61   54.79
   0   7   4  868.71   53.19
  -7   0   4  872.21   52.59
  -7   0   4  817.72   52.99
  -1  -7  -4  257.27   16.70
   8  -1  -4  248.18   16.10
  -7   8  -4  232.48   17.30
   1   7   4  247.58   16.80
   7  -8   4  226.08   15.90
  -8   1   4  246.68   16.20
   7  -8   4  235.38   16.60
  -2  -7  -4   22.20    3.60
   9  -2  -4   26.00    3.60
  -2  -7  -4   26.80    5.10
  -7   9  -4   19.00    4.20
  -9   2   4   28.20    4.00
   7  -9   4   27.40    3.70
   2   7   4   29.10    4.40
   7  -9   4   27.30    3.60
  -7  10  -4   46.60    6.10
  -3  -7  -4   46.20    5.50
  10  -3  -4   49.20    5.30
  -3  -7  -4   62.09    7.80
   7 -10   4   51.19    5.20
 -10   3   4   53.09    6.00
   3   7   4   54.39    5.50
  -4  -7  -4   61.49    6.50
  11  -4  -4   59.49    6.10
  -4  -7  -4   85.89    9.40
  -7  11  -4   54.29    6.80
   7 -11   4   60.29    6.10
   4   7   4   67.29    6.50
 -11   4   4   63.49    7.30
  -3  11  -4  114.99   10.10
  -8  -3  -4  133.19   11.90
   3 -11   4  154.48   12.20
 -11   8   4  141.09   11.80
   8   3   4  134.29   10.40
  -2  10  -4   62.09    6.20
  10  -8  -4   79.39    8.80
  -8  -2  -4   70.39    7.60
   8   2   4   64.89    6.40
 -10   8   4   67.99    7.30
   2 -10   4   83.99    8.30
   9  -8  -4   17.10    4.50
  -1   9  -4   12.90    2.70
  -8  -1  -4   16.30    3.60
   9  -8  -4   25.50    3.60
   8   1   4   12.90    2.90
   1  -9   4   19.20    4.20
  -9   8   4   13.00    3.90
   8  -8  -4   46.50    6.70
   8  -8  -4   58.09    5.30
   0   8  -4   57.79    7.50
  -8   0  -4   54.99    5.70
   0   8  -4   54.99    5.10
   0  -8   4   60.99    6.20
   8   0   4   48.30    5.00
  -8   8   4   51.69    5.90
  -8   1  -4  234.88   16.40
   1   7  -4  247.58   15.70
   7  -8  -4  239.28   17.60
   1   7  -4  270.77   17.60
   8  -1   4  236.28   16.30
  -7   8   4  205.28   16.30
  -1  -7   4  239.98   16.60
  -7   8   4  235.68   15.70
   2   6  -4  211.78   15.00
   6  -8  -4  227.28   15.70
   2   6  -4  208.28   13.70
  -8   2  -4  212.48   14.40
   8  -2   4  196.38   14.10
  -6   8   4  187.08   14.40
  -2  -6   4  207.48   14.50
  -6   8   4  200.78   13.80
   5  -8  -4  406.16   27.50
   3   5  -4  393.26   25.70
   3   5  -4  404.86   26.50
  -8   3  -4  453.45   26.50
  -5   8   4  383.96   26.20
  -3  -5   4  393.86   26.30
   8  -3   4  404.56   26.60
  -5   8   4  423.66   25.80
  -8   4  -4  570.94   34.40
   4   4  -4  542.65   33.70
  -8   4  -4  469.75   35.20
   4   4  -4  558.64   34.30
   4  -8  -4  562.44   35.60
  -4   8   4  550.14   33.70
   8  -4   4  555.44   35.00
  -4   8   4  506.85   34.00
  -4  -4   4  551.24   34.30
   3  -8  -4  472.25   27.10
   5   3  -4  401.46   25.90
  -8   5  -4  333.87   27.10
  -8   5  -4  402.86   26.00
   8  -5   4  376.36   26.40
  -5  -3   4  419.36   25.50
  -5  -3   4  423.26   26.00
  -3   8   4  387.36   25.70
  -8   6  -4  198.18   16.00
  -8   6  -4  214.98   14.60
   2  -8  -4  215.48   15.00
   6   2  -4  198.48   14.40
  -6  -2   4  210.58   14.40
   8  -6   4  221.98   14.90
  -2   8   4  237.68   15.10
  -6  -2   4  204.18   14.10
   7   1  -4  255.97   17.00
  -8   7  -4  250.87   16.90
  -8   7  -4  248.08   18.70
   1  -8  -4  244.98   17.60
   8  -7   4  295.77   18.00
  -1   8   4  281.17   17.80
  -7  -1   4  229.58   16.70
  -7  -1   4  239.28   16.70
   0  -8  -4   51.69    5.70
   8   0  -4   52.29    5.30
  -8   8  -4   54.39    7.10
   0   8   4   55.39    6.10
   8  -8   4   58.69    5.90
   8  -8   4   56.59    5.30
  -8   0   4   54.69    5.40
   9  -1  -4   22.60    3.70
  -8   9  -4    7.50    4.00
  -1  -8  -4   15.70    3.40
   8  -9   4   20.20    3.00
   8  -9   4   13.70    3.00
  -9   1   4   13.20    3.00
   1   8   4   16.00    3.70
  10  -2  -4   70.59    6.60
  -2  -8  -4   69.69    6.80
  -8  10  -4   74.99    7.70
   8 -10   4   66.79    6.20
   8 -10   4   66.49    6.30
   2   8   4   72.49    6.90
 -10   2   4   70.89    7.00
  -3  -8  -4  152.08   13.60
  -3  -8  -4  128.39   10.80
  -8  11  -4  116.59   11.20
  11  -3  -4  145.69   10.50
 -11   3   4  141.69   11.40
   3   8   4  133.29   10.90
  -2  11  -4   88.49    8.00
   9   2   4  103.89    8.50
  -9  -1  -4  117.79   10.10
  10  -9  -4  153.28   12.00
  -1  10  -4  105.59    8.80
 -10   9   4   97.29    9.80
   1 -10   4  135.89   10.90
   9   1   4  106.99    9.20
   0   9  -4   34.60    4.40
  -9   0  -4   37.60    5.30
   9  -9  -4   42.00    6.50
   9   0   4   40.90    4.60
   0  -9   4   47.60    6.20
  -9   9   4   36.40    5.50
   1   8  -4   13.20    5.20
   8  -9  -4    8.80    4.00
  -9   1  -4   15.60    3.70
   1   8  -4   16.40    2.90
   9  -1   4   14.90    3.10
  -8   9   4   15.00    3.00
  -1  -8   4   16.30    3.80
  -8   9   4   19.80    4.10
  -9   2  -4   28.70    4.40
   2   7  -4   26.50    3.40
   2   7  -4   26.30    5.60
   7  -9  -4   20.40    4.60
  -7   9   4   24.10    4.20
  -2  -7   4   25.70    4.20
  -7   9   4   28.20    3.70
   9  -2   4   30.80    4.00
   6  -9  -4  237.08   18.10
  -9   3  -4  249.88   17.00
   3   6  -4  243.18   16.20
  -6   9   4  278.67   16.40
   9  -3   4  223.98   16.90
  -6   9   4  265.17   16.90
  -3  -6   4  226.58   16.90
   4   5  -4  593.84   37.10
  -9   4  -4  600.14   36.90
   5  -9  -4  573.74   38.30
   4   5  -4  567.44   36.20
  -5   9   4  593.64   36.00
   9  -4   4  532.65   37.40
  -4  -5   4  601.74   37.00
   5   4  -4  587.64   36.90
   4  -9  -4  574.14   38.10
  -9   5  -4  583.44   36.90
  -4   9   4  573.54   36.20
   9  -5   4  537.55   37.60
  -5  -4   4  611.84   36.40
  -5  -4   4  592.74   36.80
   3  -9  -4  235.68   16.60
   6   3  -4  249.38   16.30
  -9   6  -4  186.28   17.40
  -9   6  -4  223.08   15.90
   9  -6   4  213.08   16.20
  -6  -3   4  244.18   15.60
  -3   9   4  236.98   16.00
  -6  -3   4  260.77   16.20
  -9   7  -4   14.10    5.00
   2  -9  -4   27.10    4.20
   7   2  -4   33.80    4.50
  -9   7  -4   23.20    3.70
  -7  -2   4   26.40    3.90
  -7  -2   4   22.30    3.40
  -2   9   4   27.00    4.40
   9  -7   4   26.80    4.10
   1  -9  -4   17.00    3.60
   8   1  -4   16.90    3.60
  -9   8  -4   13.50    4.80
  -9   8  -4   13.90    2.90
   9  -8   4   17.60    3.80
  -1   9   4   16.20    4.30
  -8  -1   4   16.70    3.20
   0  -9  -4   31.70    4.90
  -9   9  -4   39.40    6.50
   9   0  -4   54.99    5.60
   9  -9   4   44.90    5.30
   9  -9   4   43.70    4.80
  -9   0   4   41.60    5.10
   0   9   4   43.30    5.80
  -9  10  -4  148.49   11.80
  -1  -9  -4   97.39    9.70
  10  -1  -4  138.19   10.10
   9 -10   4  120.89    9.30
 -10   1   4  123.69   10.10
   9 -10   4  129.89    9.70
  11  -2  -4  115.99    9.60
  -2  -9  -4   96.19    9.50
 -11   2   4  134.59   10.60
   9 -11   4  117.09    9.40
  10 -10  -4  149.88   12.00
 -10  10   4  109.09   10.50
  10   0   4  109.89    9.70
 -10   1  -4  118.69   10.60
   9 -10  -4  127.89   12.00
   1   9  -4  157.18   13.60
  10  -1   4  118.79   10.10
  -9  10   4  126.59   10.40
  -1  -9   4  126.99   11.20
   8 -10  -4   56.19    8.00
   2   8  -4   84.19    9.70
 -10   2  -4   66.69    7.00
  10  -2   4   64.89    6.70
  -8  10   4   68.79    7.00
  -2  -8   4   75.29    7.60
   3   7  -4   67.39    7.80
 -10   3  -4   53.89    6.10
   7 -10  -4   52.49    7.20
  10  -3   4   55.89    5.70
  -7  10   4   50.59    5.70
  -7  10   4   52.09    5.20
  -3  -7   4   55.39    6.50
   6 -10  -4   78.99    8.60
 -10   4  -4   83.59    8.00
   4   6  -4  102.99    9.60
  -6  10   4   95.29    7.40
  10  -4   4   91.69    7.90
  -4  -6   4   88.19    8.00
   5 -10  -4  118.89   10.20
   5   5  -4  134.39   10.80
 -10   5  -4  120.29    9.80
  10  -5   4  108.09    9.50
  -5  -5   4  110.69    9.80
  -5  10   4  127.99    9.30
   4 -10  -4   90.39    8.70
   6   4  -4  100.19    9.10
 -10   6  -4   90.19    8.20
  -4  10   4   97.39    8.30
  -6  -4   4  109.09    8.80
  10  -6   4  101.79    8.40
 -10   7  -4   53.29    5.70
   7   3  -4   57.79    6.50
 -10   7  -4   45.90    7.70
   3 -10  -4   45.40    5.90
  -3  10   4   58.99    6.40
  -7  -3   4   45.30    5.70
  10  -7   4   50.19    6.10
   8   2  -4   72.39    7.20
 -10   8  -4   78.59    8.90
 -10   8  -4   74.49    6.90
   2 -10  -4   63.89    7.10
  -8  -2   4   78.99    7.10
  -2  10   4   83.29    8.00
  10  -8   4   70.59    7.30
   1 -10  -4  114.99   10.10
   9   1  -4  120.19   10.00
 -10   9  -4  139.49   11.80
  10  -9   4  115.39   10.00
  -1  10   4  138.29   10.70
  10  -9   4  122.29    9.60
  10   0  -4  123.99   10.10
 -10  10  -4  136.59   11.40
   0 -10  -4  101.09    9.60
  10 -10   4  112.69    9.60
   2   9  -4  159.28   14.60
  -9  11   4  132.69   11.20
 -11   3  -4  132.89   10.90
   8 -11  -4  123.59   12.10
   3   8  -4  164.68   14.00
  -3  -8   4  138.29   11.50
  -8  11   4  126.19   10.50
  11  -3   4  131.59   11.00
   7 -11  -4   66.29    8.60
 -11   4  -4   79.09    7.60
   4   7  -4   77.59    9.00
  11  -4   4   66.79    7.20
  -4  -7   4   64.39    7.20
   5   6  -4    6.30    4.80
 -11   5  -4    8.90    3.30
   6 -11  -4    7.00    4.40
  11  -5   4   10.70    3.50
  -6  11   4   13.90    3.30
  -5  -6   4    4.50    3.60
 -11   6  -4    7.70    3.40
   5 -11  -4    6.50    4.00
   6   5  -4    3.60    4.30
  -6  -5   4    7.30    3.50
  11  -6   4    7.40    3.30
  -5  11   4    8.20    3.30
   4 -11  -4   60.89    7.70
   7   4  -4   77.99    8.40
 -11   7  -4   73.09    7.40
  11  -7   4   87.49    8.20
  -4  11   4   90.79    7.70
  -7  -4   4   71.69    7.50
   3 -11  -4  114.09   11.30
   8   3  -4  145.89   12.10
 -11   8  -4  151.08   11.40
  -8  -3   4  139.59   11.40
  -3  11   4  183.38   12.30
  11  -8   4  158.48   12.20
   2 -11  -4  105.09    9.50
   0   0  -5    0.70    1.10
   0   0  -5   -0.10    0.60
   0   0  -5    0.20    1.20
   0   0  -5   -0.50    0.70
  -1   0  -5   76.39    5.30
   1  -1  -5   78.19    5.50
   0   1  -5   81.09    5.30
   1  -1  -5   89.89    5.80
  -1   0  -5   78.79    5.50
   1  -1  -5   96.59    6.40
  -1   0  -5   68.29    6.20
   0   1  -5   80.29    5.50
  -1   0  -5   77.29    6.00
   0   1  -5   75.69    6.00
  -1   1   5   76.69    5.40
   0  -1   5   76.99    5.90
   1   0  -5   77.89    5.40
   1   0  -5   79.09    5.40
  -1   1  -5   77.19    5.40
   1   0  -5   80.19    6.00
  -1   1  -5   77.69    6.00
   0  -1  -5   90.69    6.30
   0  -1  -5   81.19    5.30
  -1   1  -5   78.99    5.40
   0  -1  -5   72.39    6.10
   0  -1  -5   79.19    5.60
  -1   1  -5   81.09    6.30
  -1  -1  -5   51.49    5.00
  -1   2  -5   56.09    4.30
   2  -1  -5   62.79    4.20
  -1  -1  -5   53.09    4.30
   2  -1  -5   73.79    5.10
  -1   2  -5   59.29    4.70
  -1  -1  -5   56.39    4.00
  -2   1   5   61.59    4.20
  -2   1   5   57.59    4.20
   1   1   5   45.50    4.80
   1  -2   5   57.19    4.90
  -2  -1  -5  273.17   18.40
   3  -2  -5  287.57   18.30
  -2  -1  -5  273.27   17.70
  -2  -1  -5  291.77   18.70
  -1   3  -5  298.57   18.20
  -1   3  -5  288.47   18.20
   3  -2  -5  291.17   18.60
   1  -3   5  309.37   18.30
   1  -3   5  276.37   18.50
   2   1   5  284.17   18.10
  -3   2   5  286.67   18.00
   2  -2  -5 1398.56   88.59
   0   2  -5 1553.44   88.49
   2  -2  -5 1488.65   91.89
   0   2  -5 1458.15   89.59
  -2   0  -5 1473.85   91.79
  -2   0  -5 1516.15   89.39
  -2   0  -5 1356.16   89.59
   0  -2   5 1466.05   91.49
   0  -2   5 1427.66   89.29
   2   0   5 1480.55   88.29
  -2   2   5 1472.45   89.49
  -2   2   5 1600.44   88.79
  -2   1  -5   57.19    4.10
   1   1  -5   59.29    3.90
  -2   1  -5   59.99    4.60
   1  -2  -5   64.89    4.70
   1  -2  -5   52.09    5.00
   1  -2  -5   59.79    4.40
  -2   1  -5   47.10    4.90
   1   1  -5   55.49    4.20
   1   1  -5   57.39    4.60
   2  -1   5   56.39    4.20
  -1  -1   5   60.29    4.50
  -1   2   5   58.89    4.10
   2   0  -5 1449.06   88.89
   0  -2  -5 1454.05   92.29
  -2   2  -5 1382.56   90.09
  -2   2  -5 1485.35   89.99
   0  -2  -5 1386.56   89.09
   2   0  -5 1454.25   91.99
  -2   2  -5 1614.84   88.79
   0  -2  -5 1573.34   90.09
   2   0  -5 1520.85   89.99
   0   2   5 1463.05   89.79
   2  -2   5 1474.35   92.19
  -2   0   5 1530.05   89.39
  -1  -2  -5  292.77   18.90
   3  -1  -5  269.97   18.50
  -1  -2  -5  267.07   18.80
  -2   3  -5  329.67   18.50
  -2   3  -5  303.17   18.60
   3  -1  -5  298.47   18.70
  -3   1   5  309.77   18.40
  -3   1   5  295.47   18.30
   1   2   5  258.87   18.60
   2  -3   5  286.67   18.70
   1   2   5  307.77   18.10
   4  -2  -5    9.60    2.00
   2  -4   5   11.10    2.20
   5  -3  -5    4.20    1.80
  -2   5  -5    3.70    1.60
  -3  -2  -5    5.30    1.80
   5  -3  -5    4.30    1.70
  -3  -2  -5    5.20    1.50
   3   2   5    4.20    1.70
  -5   3   5    4.50    1.60
   2  -5   5    5.00    1.80
  -1   4  -5   33.90    3.50
  -3  -1  -5   39.40    3.30
  -1   4  -5   31.80    3.20
  -3  -1  -5   37.30    3.90
   4  -3  -5   33.10    3.50
   4  -3  -5   32.50    3.70
  -4   3   5   32.80    3.20
   1  -4   5   39.70    3.90
   3   1   5   32.20    3.40
   3  -3  -5  252.57   17.40
  -3   0  -5  251.97   17.30
  -3   0  -5  260.87   17.10
  -3   0  -5  263.77   16.40
   0   3  -5  283.37   16.90
   0   3  -5  267.17   16.80
   3  -3  -5  263.87   17.00
  -3   3   5  268.87   16.70
   0  -3   5  279.37   17.20
   3   0   5  251.47   16.50
   1   2  -5  309.07   18.40
   2  -3  -5  290.57   19.10
   2  -3  -5  291.27   18.90
  -3   1  -5  266.37   19.00
   1   2  -5  292.57   18.50
  -3   1  -5  313.47   18.30
  -1  -2   5  279.17   18.50
  -2   3   5  294.67   18.30
   3  -1   5  299.17   18.80
   3  -1   5  286.37   18.10
  -3   2  -5  277.87   18.10
   1  -3  -5  272.87   18.60
  -3   2  -5  285.57   18.90
   1  -3  -5  275.57   18.70
   2   1  -5  295.87   18.30
   2   1  -5  288.77   18.10
   3  -2   5  285.97   18.50
  -2  -1   5  287.57   18.20
   3  -2   5  314.27   17.90
  -1   3   5  297.27   18.00
  -3   3  -5  263.27   17.50
   3   0  -5  263.07   16.90
   0  -3  -5  258.87   17.20
   0  -3  -5  262.17   17.30
  -3   3  -5  265.57   17.00
   0   3   5  288.17   16.60
  -3   0   5  261.87   16.80
  -3   0   5  279.37   16.90
   0   3   5  255.77   17.30
   3  -3   5  257.67   17.10
  -1  -3  -5   37.30    3.40
   4  -1  -5   33.60    3.50
  -1  -3  -5   27.10    3.50
  -3   4  -5   38.40    3.60
   1   3   5   27.50    3.50
  -4   1   5   36.60    3.20
   3  -4   5   31.00    3.00
   3  -4   5   38.30    4.10
   5  -2  -5    4.80    1.70
  -2  -3  -5    6.20    1.90
  -3   5  -5    5.70    1.70
  -2  -3  -5    3.90    1.40
  -5   2   5    3.40    1.50
   3  -5   5    5.30    1.50
   3  -5   5    7.00    2.00
   2   3   5    8.10    2.00
  -3  -3  -5  100.29    7.60
  -3   6  -5   91.69    7.20
   6  -3  -5   98.99    7.10
  -3  -3  -5   94.69    6.90
   6  -3  -5   80.99    7.50
  -6   3   5   94.39    6.90
   3   3   5   91.49    7.20
   3  -6   5   89.09    7.50
   7  -4  -5  128.69   11.50
  -4  -3  -5  151.18   11.10
   7  -4  -5  169.78   10.60
  -4  -3  -5  136.19   10.40
  -3   7  -5  161.08   10.90
  -7   4   5  150.48   10.50
   3  -7   5  150.88   11.10
   4   3   5  148.79   10.50
   6  -4  -5  169.38   11.60
  -4  -2  -5  161.28   12.00
  -2   6  -5  165.38   11.70
   6  -4  -5  181.88   12.70
  -4  -2  -5  177.08   11.70
   2  -6   5  170.78   12.10
   4   2   5  163.28   11.60
  -6   4   5  176.68   11.60
   5  -4  -5  208.68   15.80
  -1   5  -5  221.98   14.90
   5  -4  -5  232.38   14.90
  -1   5  -5  237.48   14.90
  -4  -1  -5  245.98   15.50
  -4  -1  -5  225.78   15.10
   1  -5   5  237.08   15.40
  -5   4   5  237.38   14.90
   4   1   5  211.88   14.80
   4  -4  -5  593.14   36.50
   4  -4  -5  574.04   38.20
   0   4  -5  615.34   36.40
   0   4  -5  590.74   36.70
  -4   0  -5  587.34   37.10
   4   0   5  612.74   37.60
   4   0   5  568.74   36.10
  -4   4   5  593.54   36.70
   0  -4   5  603.64   36.90
   3  -4  -5   31.40    3.60
  -4   1  -5   31.90    3.80
  -4   1  -5   40.50    2.90
   1   3  -5   30.50    3.50
   3  -4  -5   28.80    3.50
  -1  -3   5   31.40    3.40
   4  -1   5   30.60    3.00
  -3   4   5   30.70    3.10
   2  -4  -5   -0.80    1.50
   2   2  -5    0.80    1.40
  -4   2  -5    0.90    1.10
   2  -4  -5    0.80    1.30
   2   2  -5    1.70    1.20
   4  -2   5    0.00    1.10
  -2  -2   5    0.70    1.30
  -2   4   5    3.00    1.20
   1  -4  -5   31.60    3.40
   3   1  -5   33.40    3.60
  -4   3  -5   38.10    4.00
   3   1  -5   33.40    3.10
  -4   3  -5   31.60    3.30
  -1   4   5   36.80    3.90
  -3  -1   5   34.30    3.50
   4  -3   5   32.40    3.20
  -1   4   5   39.70    3.10
   0  -4  -5  579.14   35.90
   0  -4  -5  594.64   36.90
  -4   4  -5  566.14   36.20
   4   0  -5  601.04   35.60
  -4   4  -5  581.54   36.20
   4  -4   5  604.64   36.70
   0   4   5  546.85   35.80
  -4   0   5  571.94   35.70
  -4   0   5  561.84   35.60
   5  -1  -5  228.78   14.70
  -1  -4  -5  250.87   15.30
  -1  -4  -5  214.58   15.10
  -4   5  -5  214.88   15.10
  -5   1   5  240.18   14.80
   1   4   5  210.98   14.90
   4  -5   5  224.28   15.00
   4  -5   5  226.58   15.30
  -2  -4  -5  169.88   11.90
   6  -2  -5  175.98   11.70
  -4   6  -5  170.98   12.30
  -2  -4  -5  177.58   12.30
   4  -6   5  189.68   12.10
   2   4   5  164.48   11.90
   4  -6   5  177.88   12.30
  -6   2   5  169.08   11.70
  -4   7  -5  147.59   10.60
  -3  -4  -5  149.69   10.30
  -3  -4  -5  145.69   10.80
   7  -3  -5  133.99   10.00
   4  -7   5  137.29   10.50
   3   4   5  136.19   10.40
  -7   3   5  156.28   10.20
  -4   8  -5    9.50    2.90
  -4  -4  -5   10.60    2.50
  -4  -4  -5    8.20    3.20
   8  -4  -5   10.70    2.70
  -8   4   5    8.40    2.70
   4  -8   5    9.80    2.80
   4   4   5    8.50    2.80
  -5  -4  -5   21.60    4.40
  -4   9  -5   20.20    3.70
  -5  -4  -5   23.40    3.50
   9  -5  -5   22.10    3.60
  -9   5   5   20.40    3.60
   5   4   5   27.80    3.80
   4  -9   5   20.00    3.80
  -3   8  -5   -0.90    2.00
  -5  -3  -5    7.00    2.70
  -5  -3  -5    2.80    1.90
   8  -5  -5    1.40    2.20
   8  -5  -5    1.40    2.90
   5   3   5    0.10    1.70
   3  -8   5    1.60    2.30
   5   3   5    2.80    2.20
  -8   5   5   -0.60    2.30
  -5  -2  -5  172.58   12.90
   7  -5  -5  186.78   13.90
  -2   7  -5  183.38   12.50
   7  -5  -5  176.88   12.20
   5   2   5  180.08   12.50
   5   2   5  177.78   12.20
   2  -7   5  181.18   12.90
  -7   5   5  178.08   12.40
  -5  -1  -5  100.59    8.20
  -1   6  -5  106.59    7.70
   6  -5  -5  114.29    9.00
   6  -5  -5   99.19    7.70
  -6   5   5  102.39    7.60
   5   1   5  103.99    7.60
   1  -6   5   94.29    8.00
   5   1   5  105.99    7.70
   0   5  -5  187.38   12.80
   0   5  -5  190.48   12.70
   5  -5  -5  196.68   14.00
   5  -5  -5  193.38   12.80
  -5   0  -5  177.98   13.10
  -5   5   5  184.58   12.70
   5   0   5  199.58   13.00
   0  -5   5  196.38   13.10
   1   4  -5  222.28   15.00
   4  -5  -5  230.58   15.10
   1   4  -5  239.08   14.80
  -5   1  -5  216.38   15.30
   4  -5  -5  242.88   16.00
  -1  -4   5  212.88   15.10
  -4   5   5  220.48   14.80
   5  -1   5  237.28   15.20
   2   3  -5    5.20    1.50
  -5   2  -5    4.30    1.80
   3  -5  -5    9.50    2.50
   3  -5  -5    4.90    2.00
   2   3  -5    5.30    1.80
  -5   2  -5    5.30    1.50
   5  -2   5    3.70    1.40
  -2  -3   5    9.60    2.00
   3   2  -5    4.20    1.30
  -5   3  -5    6.80    2.00
   3   2  -5    6.60    1.80
   2  -5  -5    4.80    1.80
   5  -3   5    4.80    1.60
  -2   5   5    3.90    1.40
  -2   5   5    5.10    2.00
  -3  -2   5    3.90    1.80
   4   1  -5  239.78   15.20
  -5   4  -5  254.97   15.80
  -5   4  -5  234.18   15.60
   1  -5  -5  206.28   15.70
  -1   5   5  257.67   15.70
  -4  -1   5  219.28   15.20
   5  -4   5  242.78   15.40
  -4  -1   5  216.48   14.90
   5   0  -5  182.28   12.40
  -5   5  -5  178.98   12.90
  -5   5  -5  177.08   12.70
   0  -5  -5  187.68   12.90
  -5   0   5  191.68   12.30
  -5   0   5  180.38   12.20
   0   5   5  184.08   12.80
   5  -5   5  201.18   12.70
  -5   6  -5   96.09    8.40
   6  -1  -5  114.99    8.00
  -1  -5  -5  100.69    8.00
  -1  -5  -5  101.79    8.40
   5  -6   5  128.99    8.20
   5  -6   5  118.39    8.40
  -6   1   5   96.19    7.70
   1   5   5  104.79    8.30
   7  -2  -5  188.48   12.40
  -2  -5  -5  176.28   13.10
  -2  -5  -5  179.58   12.80
  -5   7  -5  178.18   13.30
  -7   2   5  182.38   12.50
   5  -7   5  200.28   12.90
   2   5   5  173.78   12.80
   8  -3  -5    1.80    2.00
  -3  -5  -5    0.30    2.30
  -5   8  -5   12.70    3.00
  -3  -5  -5    1.70    2.00
   3   5   5    2.20    2.40
   5  -8   5    3.40    2.30
  -8   3   5    2.20    2.10
  -4  -5  -5   23.40    4.50
   9  -4  -5   25.00    3.60
  -4  -5  -5   17.20    3.20
  -5   9  -5   20.90    4.00
   5  -9   5   20.40    3.60
   4   5   5   19.10    3.50
  -9   4   5   22.50    3.70
  -5  -5  -5    3.50    3.50
  10  -5  -5    6.10    2.70
  -5  10  -5    3.30    3.00
  -5  -5  -5    4.70    2.70
   5   5   5    5.70    2.70
 -10   5   5    8.10    3.30
   5 -10   5    4.80    2.90
  -6  -5  -5   33.50    6.40
  11  -6  -5   29.60    4.60
   6   5   5   25.40    4.40
   6   5   5   27.90    4.40
   5 -11   5   27.60    4.70
  -6  -4  -5    2.80    3.30
  -4  10  -5    3.60    2.70
  10  -6  -5    7.80    2.90
   4 -10   5    0.90    3.00
 -10   6   5    8.90    3.40
   6   4   5    4.90    2.80
   6   4   5    6.40    2.60
   9  -6  -5   90.69    7.00
  -3   9  -5   74.49    7.00
   9  -6  -5   65.39    8.40
  -6  -3  -5   76.89    7.60
   6   3   5   86.29    6.90
  -9   6   5   77.59    7.30
   3  -9   5   81.19    7.70
   6   3   5   81.19    6.70
   8  -6  -5   31.50    3.80
  -6  -2  -5   26.50    4.30
   8  -6  -5   27.80    5.30
  -2   8  -5   29.80    3.90
   2  -8   5   33.20    4.70
  -8   6   5   26.70    4.00
   6   2   5   27.80    3.70
   7  -6  -5   22.10    4.30
  -1   7  -5   25.30    3.30
  -6  -1  -5   20.30    3.60
   7  -6  -5   22.40    3.30
   6   1   5   21.90    3.00
  -7   6   5   19.80    3.40
   1  -7   5   22.90    3.70
   0   6  -5    8.50    2.10
   6  -6  -5    7.60    3.00
   6  -6  -5    9.50    2.40
   0   6  -5    8.30    2.60
  -6   0  -5    8.80    2.60
   6   0   5    9.40    2.20
  -6   6   5    9.70    2.40
   0  -6   5    9.50    2.80
   5  -6  -5  118.89    8.30
  -6   1  -5  110.49    8.60
   1   5  -5  106.29    7.90
   1   5  -5  113.29    8.50
   5  -6  -5  104.39    9.30
  -5   6   5  113.09    8.30
   6  -1   5  110.49    8.20
  -1  -5   5  110.59    8.50
  -6   2  -5  177.78   12.70
   4  -6  -5  191.28   13.20
   2   4  -5  166.78   12.20
   2   4  -5  186.08   11.90
   4  -6  -5  194.48   12.50
  -2  -4   5  172.38   12.40
   6  -2   5  170.68   12.20
  -4   6   5  181.78   12.20
  -6   3  -5   95.29    7.80
   3   3  -5   96.79    7.10
   3  -6  -5  116.39    8.20
   3   3  -5   96.19    7.50
  -6   3  -5  101.09    7.50
  -3   6   5  100.19    7.70
  -3  -3   5   88.59    7.60
   6  -3   5   97.59    7.30
  -3   6   5   97.29    7.30
  -6   4  -5  185.18   12.70
   4   2  -5  171.08   12.20
  -6   4  -5  172.48   12.60
   2  -6  -5  188.38   12.90
  -2   6   5  168.68   12.40
  -4  -2   5  180.68   12.00
  -4  -2   5  189.68   12.50
   6  -4   5  184.88   12.40
   1  -6  -5  112.79    8.40
  -6   5  -5  104.79    8.10
   5   1  -5  101.49    7.90
  -6   5  -5  101.69    8.60
  -5  -1   5  112.59    7.90
   6  -5   5  102.19    7.80
  -1   6   5   93.19    8.10
  -5  -1   5  116.89    7.70
   6   0  -5    8.90    2.50
   0  -6  -5    8.10    2.40
  -6   6  -5    9.60    2.40
  -6   6  -5   11.10    3.10
   6  -6   5   10.60    2.50
   0   6   5    9.30    2.80
  -6   0   5   10.60    2.20
  -1  -6  -5   20.70    3.50
  -6   7  -5   25.80    4.50
   7  -1  -5   27.80    3.70
   1   6   5   25.60    3.90
   6  -7   5   32.40    3.90
  -7   1   5   21.70    3.20
   6  -7   5   27.80    3.70
   8  -2  -5   30.10    3.80
  -6   8  -5   24.60    4.40
  -2  -6  -5   30.60    4.80
  -2  -6  -5   34.30    4.10
   6  -8   5   33.30    4.10
   2   6   5   23.50    4.10
  -8   2   5   28.40    3.80
  -3  -6  -5   78.39    8.20
  -3  -6  -5   81.09    7.10
  -6   9  -5   89.19    7.80
   9  -3  -5   79.79    6.80
   3   6   5   67.89    6.90
   6  -9   5   78.59    7.00
  -9   3   5   86.29    7.20
  -4  -6  -5    2.50    3.40
  -4  -6  -5    4.20    2.60
  -6  10  -5    0.70    2.90
  10  -4  -5    2.70    2.60
 -10   4   5    0.50    2.80
   6 -10   5    2.20    2.50
   4   6   5    7.60    2.80
  11  -5  -5   26.10    4.30
  -5  -6  -5   26.40    5.90
  -5  -6  -5   22.80    4.40
   6 -11   5   24.10    4.30
   5   6   5   27.40    4.50
   7   4   5   17.20    3.90
  10  -7  -5    9.00    5.00
  10  -7  -5    8.00    3.00
  -7  -3  -5   12.30    4.10
  -3  10  -5    9.40    3.10
   7   3   5    9.60    2.90
 -10   7   5    9.40    3.80
   3 -10   5    7.40    3.70
  -7  -2  -5   42.50    5.80
   9  -7  -5   40.40    6.70
  -2   9  -5   38.80    4.80
   9  -7  -5   46.30    4.90
   2  -9   5   36.70    5.40
   7   2   5   37.60    4.40
  -9   7   5   41.80    5.40
   8  -7  -5   49.20    6.90
   8  -7  -5   55.49    5.30
  -7  -1  -5   46.00    5.50
  -1   8  -5   55.09    5.20
  -8   7   5   48.00    5.70
   7   1   5   51.19    4.90
   1  -8   5   49.30    5.80
   7  -7  -5    8.50    2.50
  -7   0  -5    7.40    2.70
   7  -7  -5    6.30    3.20
   0   7  -5    6.60    2.10
   0  -7   5    6.60    2.80
   7   0   5    8.10    2.30
  -7   7   5    7.20    2.60
   1   6  -5   26.20    4.20
   6  -7  -5   25.10    4.50
   6  -7  -5   30.70    3.80
   1   6  -5   27.40    3.60
  -7   1  -5   22.40    3.80
  -6   7   5   25.40    3.80
   7  -1   5   27.20    3.30
  -1  -6   5   25.60    4.00
   2   5  -5  190.78   12.80
   5  -7  -5  183.38   14.10
  -7   2  -5  185.88   13.50
   2   5  -5  191.58   13.50
  -2  -5   5  182.78   13.40
  -5   7   5  194.98   13.10
   7  -2   5  199.08   13.20
  -5   7   5  191.58   13.20
   3   4  -5  152.78   11.10
   4  -7  -5  171.38   11.90
   3   4  -5  162.18   10.50
  -7   3  -5  147.29   11.20
  -4   7   5  145.79   10.80
  -3  -4   5  149.99   11.10
  -4   7   5  137.49   10.70
   7  -3   5  158.28   10.90
   4   3  -5  159.28   11.50
   3  -7  -5  142.69   11.80
  -7   4  -5  161.78   11.70
  -7   4  -5  154.58   11.90
   4   3  -5  158.58   11.00
  -4  -3   5  163.78   11.50
   7  -4   5  172.08   11.50
  -3   7   5  180.68   11.60
   2  -7  -5  195.88   13.40
  -7   5  -5  165.58   13.40
   5   2  -5  180.38   12.70
  -7   5  -5  171.98   12.80
  -5  -2   5  204.88   12.90
  -5  -2   5  191.88   12.40
  -2   7   5  174.28   12.90
   7  -5   5  179.58   12.80
  -7   6  -5   22.60    3.50
  -7   6  -5   24.50    4.50
   6   1  -5   25.80    3.60
  -6  -1   5   25.80    3.20
  -6  -1   5   24.20    3.30
   7  -6   5   20.70    3.20
  -1   7   5   24.40    3.90
   7   0  -5    6.50    2.50
  -7   7  -5   10.60    2.60
  -7   7  -5    7.80    3.60
   0  -7  -5    9.00    2.80
   0   7   5    7.00    2.80
   7  -7   5   14.70    3.00
  -1  -7  -5   50.19    5.80
   8  -1  -5   59.49    5.60
  -7   8  -5   51.79    6.80
  -8   1   5   54.39    5.50
   1   7   5   72.99    6.70
   7  -8   5   60.59    5.70
   7  -8   5   67.99    6.10
  -7   9  -5   41.40    6.10
   9  -2  -5   48.70    5.30
  -2  -7  -5   48.50    5.40
   2   7   5   47.40    5.80
  -9   2   5   40.10    5.10
   7  -9   5   51.79    5.00
  -3  -7  -5    8.80    3.30
  10  -3  -5   11.90    3.30
  -7  10  -5    9.30    4.10
   3   7   5   12.50    3.40
   7 -10   5    9.50    2.90
 -10   3   5    9.70    3.30
  -4  -7  -5   13.50    5.70
  -4  -7  -5   18.10    4.00
  11  -4  -5   18.50    4.00
   7 -11   5   21.40    3.80
  10  -8  -5    5.00    5.00
  -8  -2  -5    6.50    3.90
  -2  10  -5    9.90    3.10
  10  -8  -5    9.80    3.30
   8   2   5   12.90    3.20
   2 -10   5   15.00    4.40
 -10   8   5   11.00    3.90
  -8  -1  -5   46.20    5.90
  -1   9  -5   46.30    5.20
   9  -8  -5   34.20    6.80
   9  -8  -5   56.59    5.50
  -9   8   5   45.80    5.90
   8   1   5   48.10    5.30
   1  -9   5   58.69    7.00
   8  -8  -5   -1.30    3.00
  -8   0  -5    1.10    2.40
   8  -8  -5    0.90    2.30
   0   8  -5    0.30    2.00
   0  -8   5    0.40    2.70
   8   0   5    0.30    1.90
  -8   8   5    5.30    2.90
   1   7  -5   54.89    5.30
   7  -8  -5   59.09    5.50
   7  -8  -5   54.39    7.00
  -8   1  -5   53.19    5.80
   1   7  -5   50.79    6.60
  -7   8   5   58.99    5.70
  -1  -7   5   58.99    6.10
   8  -1   5   49.40    5.10
  -7   8   5   64.69    6.30
   2   6  -5   27.20    4.80
  -8   2  -5   36.20    4.80
   2   6  -5   33.80    3.90
   6  -8  -5   38.00    5.50
  -2  -6   5   28.70    4.50
   8  -2   5   30.40    3.70
  -6   8   5   26.70    4.00
  -6   8   5   35.30    4.60
   3   5  -5    1.20    1.80
   5  -8  -5    1.30    2.80
  -8   3  -5    3.10    2.50
   3   5  -5    0.80    2.70
  -5   8   5    7.40    2.80
   8  -3   5    4.10    2.10
  -5   8   5    3.50    2.30
  -3  -5   5    2.30    2.50
  -8   4  -5   13.40    3.10
   4  -8  -5    9.80    3.30
   4   4  -5   21.70    3.80
   4   4  -5   10.80    2.20
  -4   8   5   13.10    2.80
   8  -4   5    8.30    2.50
  -4  -4   5   11.00    3.10
   3  -8  -5   -2.20    2.20
   5   3  -5   -0.90    2.40
  -8   5  -5    1.20    2.10
  -8   5  -5    0.40    2.90
  -5  -3   5    4.90    2.60
   8  -5   5    1.80    2.20
  -3   8   5    1.30    2.30
  -5  -3   5    2.70    2.00
  -8   6  -5   28.70    5.50
   6   2  -5   31.30    4.30
  -8   6  -5   29.20    4.20
   2  -8  -5   29.40    4.40
   8  -6   5   36.20    4.40
  -2   8   5   26.80    4.40
  -6  -2   5   44.10    4.50
  -6  -2   5   29.80    3.90
   7   1  -5   51.69    5.60
  -8   7  -5   45.50    5.00
  -8   7  -5   45.00    6.90
   1  -8  -5   59.59    5.90
  -7  -1   5   60.29    5.20
   8  -7   5   48.10    5.30
  -1   8   5   52.59    6.00
   8   0  -5    0.70    2.40
   0  -8  -5   -1.80    2.20
  -8   8  -5   -2.00    3.40
   8  -8   5    1.70    2.40
   8  -8   5    6.10    2.60
  -8   0   5   -1.00    2.20
   0   8   5   -1.70    2.50
   9  -1  -5   49.20    5.70
  -8   9  -5   48.40    7.00
  -1  -8  -5   54.09    6.00
  -9   1   5   46.40    5.60
   1   8   5   55.99    6.20
   8  -9   5   50.79    5.10
   8  -9   5   51.29    5.60
  10  -2  -5    8.40    3.40
  -2  -8  -5   11.40    3.70
  -8  10  -5    2.20    3.80
 -10   2   5    6.80    3.20
   8 -10   5    8.00    2.90
   2   8   5   11.20    3.70
  10  -9  -5   10.80    5.60
  -1  10  -5    8.80    3.10
   9   1   5   12.30    3.30
   9  -9  -5   18.80    5.40
  -9   0  -5   26.50    4.90
   0   9  -5   22.90    3.70
   9  -9  -5   28.70    4.20
   9   0   5   25.30    4.00
   0  -9   5   30.90    5.70
  -9   9   5   26.50    5.00
   1   8  -5   35.30    6.70
   1   8  -5   50.79    5.10
   8  -9  -5   46.20    6.90
  -9   1  -5   41.80    5.50
   9  -1   5   43.90    5.00
  -8   9   5   50.19    5.40
  -8   9   5   39.20    5.70
  -1  -8   5   54.59    6.20
   7  -9  -5   46.40    6.70
   2   7  -5   43.30    4.80
  -9   2  -5   45.60    5.80
   2   7  -5   42.70    6.70
  -7   9   5   45.20    5.40
  -7   9   5   45.70    5.10
  -2  -7   5   42.90    5.70
   9  -2   5   43.60    4.80
  -9   3  -5   87.69    7.50
   3   6  -5   80.39    8.40
   6  -9  -5   80.79    8.30
   3   6  -5   83.89    6.70
  -3  -6   5   78.29    7.50
  -6   9   5   74.59    6.70
  -6   9   5   72.99    7.20
   9  -3   5   72.29    6.70
   5  -9  -5   28.40    4.60
   4   5  -5   20.80    4.40
  -9   4  -5   24.10    4.10
   4   5  -5   25.40    3.30
  -4  -5   5   25.50    4.30
  -5   9   5   16.60    3.40
   9  -4   5   17.60    3.40
   4  -9  -5   21.30    4.10
   5   4  -5   20.50    4.10
  -9   5  -5   27.10    4.40
  -5  -4   5   22.00    4.20
   9  -5   5   24.20    3.80
  -4   9   5   29.40    4.10
  -5  -4   5   21.00    3.30
   3  -9  -5   76.29    7.40
  -9   6  -5   83.39    7.20
  -9   6  -5   60.99    8.60
   6   3  -5   73.79    7.30
  -6  -3   5   80.09    7.30
   9  -6   5   88.29    7.20
  -6  -3   5   72.79    6.70
  -3   9   5   99.29    7.50
   7   2  -5   45.60    5.60
   2  -9  -5   41.30    5.50
  -9   7  -5   43.10    4.90
  -9   7  -5   33.50    6.40
  -2   9   5   37.80    5.50
  -7  -2   5   45.00    5.20
  -7  -2   5   49.40    5.00
   9  -7   5   44.60    5.20
  -9   8  -5   41.30    7.20
   1  -9  -5   41.30    5.40
  -9   8  -5   54.39    5.40
   8   1  -5   47.30    5.60
  -1   9   5   58.39    6.70
  -8  -1   5   44.20    5.20
   9  -8   5   52.49    6.10
   9   0  -5   27.20    4.50
  -9   9  -5   19.40    5.70
   0  -9  -5   23.60    4.40
   9  -9   5   26.20    4.10
   0   9   5   27.90    5.30
  -9   0   5   22.20    4.00
   9  -9   5   30.00    4.60
  10  -1  -5   10.80    3.80
  -1  -9  -5   12.50    4.00
   9 -10   5   12.30    3.20
 -10   1   5   10.30    3.40
   9 -10   5   14.20    3.60
  -9  10   5    8.40    4.00
   2   8  -5    4.70    5.20
 -10   2  -5    8.80    3.50
   8 -10  -5    4.00    4.30
  -8  10   5    7.80    3.00
  -2  -8   5   10.00    4.20
  -8  10   5    8.60    3.40
  10  -2   5    8.20    3.10
   3   7  -5    6.10    4.90
   3   7  -5    7.50    2.80
   7 -10  -5    9.30    4.30
 -10   3  -5    8.50    3.60
  10  -3   5   11.70    3.20
  -7  10   5   10.40    2.80
  -3  -7   5   11.40    4.00
   6 -10  -5   -0.20    3.20
 -10   4  -5    3.20    2.90
   4   6  -5    1.00    4.00
   4   6  -5    5.50    2.50
  -6  10   5    4.10    2.60
  -4  -6   5    2.10    3.20
  10  -4   5    3.50    2.60
   5   5  -5    4.20    3.90
   5 -10  -5    5.00    3.60
 -10   5  -5    4.70    3.20
  10  -5   5    4.40    2.80
  -5  -5   5    5.10    3.00
  -5  -5   5    2.20    2.60
  -5  10   5    5.90    2.80
   4 -10  -5    1.70    3.20
   6   4  -5    1.00    3.40
  10  -6   5    5.10    2.90
  -6  -4   5    2.30    2.50
  -6  -4   5    3.10    2.90
  -4  10   5    5.10    3.00
 -10   7  -5    2.90    4.80
   7   3  -5   10.90    4.00
 -10   7  -5   13.50    3.40
   3 -10  -5    9.20    3.70
  -7  -3   5   12.20    3.10
  10  -7   5   14.00    3.60
  -7  -3   5   12.40    3.60
  -3  10   5    8.30    3.40
   2 -10  -5    7.30    3.40
 -10   8  -5   12.00    3.20
 -10   8  -5   -0.40    4.40
   8   2  -5    7.40    3.80
  10  -8   5    6.40    3.60
  -8  -2   5    7.30    3.10
  -2  10   5   12.50    4.30
   1 -10  -5    8.50    3.60
 -10   9  -5    4.40    5.30
  10  -9   5   19.00    3.90
  10  -9   5   14.80    4.20
  -9  -1   5   13.90    3.60
   4   7  -5   16.80    6.50
  -7  11   5   21.80    3.90
   5   6  -5   31.00    6.70
 -11   5  -5   29.30    5.20
  -6  11   5   30.10    4.50
  -5  -6   5   27.70    5.30
 -11   6  -5   29.20    5.10
  -6  -5   5   30.80    5.20
  -5  11   5   30.20    4.70
 -11   7  -5   23.00    4.40
  -7  -4   5   21.40    4.70
  -4  11   5   23.30    4.60
   0   0  -6  212.68   13.20
   0   0  -6  189.28   12.40
   0   0  -6  194.68   12.60
   0   0  -6  183.28   13.20
   0   1  -6  332.57   21.00
   0   1  -6  320.27   21.20
  -1   0  -6  341.57   21.20
   0   1  -6  335.17   20.70
   1  -1  -6  318.27   21.30
  -1   0  -6  341.97   21.70
   1  -1  -6  333.37   21.20
  -1   0  -6  329.27   21.10
  -1   0  -6  324.57   20.60
   0  -1   6  327.07   21.10
  -1   1   6  331.07   20.90
  -1   1   6  340.77   20.70
  -1   1  -6  340.67   21.30
   0  -1  -6  377.96   21.70
   1   0  -6  322.47   21.10
   1   0  -6  327.67   21.40
   0  -1  -6  318.87   21.40
  -1   1  -6  331.87   20.80
   0  -1  -6  321.67   20.70
  -1   1  -6  331.27   21.20
  -1   1  -6  345.87   21.70
   0  -1  -6  320.07   21.30
   1   0  -6  346.87   20.90
  -1   0   6  325.57   21.00
   1  -1   6  335.77   21.30
   2  -1  -6 1259.07   77.59
  -1  -1  -6 1233.18   77.79
  -1   2  -6 1390.36   77.59
   2  -1  -6 1308.57   79.89
  -1  -1  -6 1286.47   80.09
  -1   2  -6 1346.37   78.19
  -1  -1  -6 1265.87   77.39
  -1  -1  -6 1220.98   78.49
   1  -2   6 1283.97   79.89
  -2   1   6 1336.47   77.59
   1  -2   6 1199.28   78.19
  -2   1   6 1308.17   78.09
   1   1   6 1232.98   77.39
  -1   3  -6  785.32   49.00
  -2  -1  -6  746.23   49.50
  -2  -1  -6  791.72   50.09
   3  -2  -6  817.22   50.19
   3  -2  -6  807.52   48.90
  -1   3  -6  869.51   48.80
   2   1   6  776.02   48.50
  -3   2   6  798.82   48.90
   1  -3   6  784.12   49.30
   0   2  -6 1852.21  110.59
   2  -2  -6 1850.61  113.39
  -2   0  -6 1901.51  113.39
   0   2  -6 1832.22  109.39
  -2   0  -6 1826.92  110.29
  -2   0  -6 1632.54  110.69
   2  -2  -6 1834.42  109.49
  -2   2   6 1849.91  110.49
   0  -2   6 1775.72  110.19
   2   0   6 1849.02  109.09
   1  -2  -6 1203.48   76.69
   1   1  -6 1337.07   76.69
  -2   1  -6 1301.97   76.19
   1  -2  -6 1228.98   79.09
  -2   1  -6 1169.68   77.59
  -2   1  -6 1307.97   77.09
   1   1  -6 1311.17   77.19
  -1  -1   6 1233.78   76.89
   2  -1   6 1293.27   79.09
  -1   2   6 1281.77   76.99
   2   0  -6 1897.71  115.39
  -2   2  -6 1819.42  115.49
  -2   2  -6 1919.81  115.39
   0  -2  -6 2059.89  115.49
   0  -2  -6 1876.51  118.39
   2   0  -6 1848.22  114.09
  -2   2  -6 2026.90  113.89
   0  -2  -6 1833.02  114.29
  -2   0   6 1936.91  114.69
   0   2   6 1851.51  115.19
   2  -2   6 1850.41  118.19
  -1  -2  -6  724.03   48.90
  -1  -2  -6  814.42   49.70
   3  -1  -6  791.12   48.20
  -2   3  -6  837.02   48.50
   1   2   6  750.12   48.20
   2  -3   6  826.42   49.40
   2  -3   6  727.13   48.90
  -3   1   6  823.62   48.40
  -2   4  -6   18.50    2.50
   4  -2  -6   16.60    2.80
  -2  -2  -6   25.50    2.70
  -2  -2  -6   17.40    3.00
   2   2   6   15.60    2.60
  -4   2   6   13.80    2.10
   2  -4   6   16.70    3.00
  -3  -2  -6   63.19    5.50
  -3  -2  -6   84.19    6.60
  -2   5  -6   62.39    5.50
   5  -3  -6   74.49    5.90
   3   2   6   71.19    5.70
   2  -5   6   68.79    6.20
  -5   3   6   70.49    5.40
  -3  -1  -6  306.37   19.90
   4  -3  -6  311.97   19.40
  -1   4  -6  283.27   19.10
   4  -3  -6  293.77   19.70
  -3  -1  -6  284.17   19.40
  -4   3   6  303.87   19.00
   3   1   6  298.87   18.90
   1  -4   6  310.47   19.70
   0   3  -6 1054.49   62.89
   3  -3  -6 1028.20   62.49
  -3   0  -6  972.20   63.39
   0   3  -6 1046.70   62.39
   3  -3  -6 1053.59   64.69
  -3   0  -6 1041.00   64.39
   3   0   6  979.30   61.89
  -3   3   6 1013.50   62.79
   0  -3   6 1013.60   62.89
   3   0   6 1070.89   64.49
   2  -3  -6  819.72   51.49
   1   2  -6  829.42   49.99
  -3   1  -6  780.42   50.69
   1   2  -6  848.92   49.80
  -3   1  -6  844.32   49.80
   2  -3  -6  791.82   49.99
  -1  -2   6  757.32   49.90
  -2   3   6  820.42   49.90
   3  -1   6  841.72   51.29
  -3   2  -6  834.42   49.99
   1  -3  -6  807.82   51.49
   2   1  -6  850.91   50.09
   2   1  -6  840.12   49.80
   1  -3  -6  776.72   50.09
  -3   2  -6  794.12   50.69
  -1   3   6  816.12   49.90
   3  -2   6  800.42   51.19
  -2  -1   6  818.52   49.90
  -3   3  -6 1059.59   63.79
   0  -3  -6 1027.80   65.39
   3   0  -6 1030.50   63.09
   0  -3  -6 1148.79   64.19
  -3   3  -6 1025.20   64.19
  -3   0   6 1024.10   63.59
   3  -3   6 1035.30   65.19
  -3   0   6 1065.99   63.29
   0   3   6  955.80   63.29
  -3   4  -6  331.37   19.20
   4  -1  -6  287.87   19.00
  -1  -3  -6  256.47   19.30
  -1  -3  -6  321.77   19.40
   1   3   6  268.07   19.00
   3  -4   6  263.47   19.50
   3  -4   6  304.07   19.10
  -4   1   6  317.87   18.80
   5  -2  -6   76.69    6.00
  -2  -3  -6   61.99    6.20
  -3   5  -6   74.39    5.90
  -2  -3  -6   72.59    5.70
   3  -5   6   58.49    6.00
  -5   2   6   77.09    5.50
   2   3   6   72.69    6.00
  -3  -3  -6  397.66   25.40
   6  -3  -6  408.76   24.80
  -3   6  -6  412.86   25.10
  -3  -3  -6  381.86   25.20
  -6   3   6  381.56   24.60
   3   3   6  363.56   24.50
   3  -6   6  373.46   25.30
  -4  -3  -6  453.95   28.70
  -4  -3  -6  428.16   28.40
  -3   7  -6  440.36   28.20
   7  -4  -6  440.06   27.70
   3  -7   6  429.76   28.40
  -7   4   6  453.25   27.90
   4   3   6  414.86   27.60
  -4  -2  -6  534.35   34.20
   6  -4  -6  510.05   34.90
  -2   6  -6  533.75   33.70
  -4  -2  -6  538.85   34.10
   6  -4  -6  544.25   33.30
   4   2   6  494.85   33.10
  -6   4   6  550.24   33.50
   2  -6   6  563.14   34.20
   5  -4  -6  515.75   36.30
  -4  -1  -6  541.35   35.70
  -4  -1  -6  582.54   35.70
  -1   5  -6  569.54   35.10
   5  -4  -6  577.64   34.90
   1  -5   6  594.54   35.60
  -5   4   6  564.14   35.00
   4   1   6  549.54   34.60
   4   1   6  562.04   35.90
   4  -4  -6  843.42   56.99
   0   4  -6  925.91   55.39
   4  -4  -6  863.51   54.79
   0   4  -6  938.11   54.89
  -4   0  -6  880.21   55.79
  -4   4   6  923.31   55.29
   0  -4   6  877.11   55.39
   4   0   6  944.11   56.69
   3  -4  -6  292.87   19.90
  -4   1  -6  290.17   20.40
   1   3  -6  318.97   19.60
   1   3  -6  313.97   19.80
   3  -4  -6  328.47   20.50
   4  -1   6  320.27   20.00
  -3   4   6  305.77   19.40
  -1  -3   6  279.77   19.60
   2  -4  -6   16.20    2.60
   2   2  -6   16.90    2.80
   2  -4  -6   14.70    3.00
  -4   2  -6   15.70    2.10
  -4   2  -6   14.90    3.00
  -2   4   6   16.10    2.10
   4  -2   6   13.30    2.10
  -2  -2   6   24.20    2.80
  -4   3  -6  296.87   19.60
   1  -4  -6  284.97   20.30
   3   1  -6  297.77   19.50
   3   1  -6  311.47   19.80
  -4   3  -6  302.07   20.40
  -3  -1   6  340.97   19.80
  -1   4   6  324.57   20.40
   4  -3   6  313.07   20.00
   4   0  -6  895.21   53.99
  -4   4  -6  894.91   54.69
   0  -4  -6  922.11   56.09
   4  -4   6  924.01   55.79
   0   4   6  810.22   54.19
  -4   0   6  867.41   54.39
   5  -1  -6  542.95   35.50
  -4   5  -6  557.14   36.10
  -1  -4  -6  601.14   36.80
   4  -5   6  604.14   36.50
   4  -5   6  581.44   36.40
  -5   1   6  605.74   35.70
   1   4   6  518.95   35.60
  -2  -4  -6  572.84   34.60
  -4   6  -6  489.65   34.00
   6  -2  -6  560.84   33.50
  -2  -4  -6  538.85   34.30
   4  -6   6  553.84   34.20
   2   4   6  500.45   33.40
  -6   2   6  537.65   33.60
  -3  -4  -6  461.95   29.60
  -3  -4  -6  444.96   29.60
   7  -3  -6  485.45   28.80
  -4   7  -6  448.16   29.40
   3   4   6  422.46   28.70
   4  -7   6  468.75   29.50
  -7   3   6  449.06   28.80
   8  -4  -6   58.19    5.40
  -4  -4  -6   55.49    5.40
  -4   8  -6   49.60    5.60
  -4  -4  -6   59.99    6.50
  -8   4   6   52.39    5.10
   4  -8   6   58.99    5.90
   4   4   6   54.79    5.50
  -5  -4  -6   27.20    4.20
  -5  -4  -6   29.50    5.20
  -4   9  -6   33.00    4.80
   9  -5  -6   41.80    4.90
   4  -9   6   31.20    4.80
  -9   5   6   34.10    4.60
   5   4   6   42.00    4.60
   8  -5  -6  141.89    9.70
  -3   8  -6  124.59    9.70
  -5  -3  -6  117.29    9.30
  -5  -3  -6  122.99   10.30
   5   3   6  120.59    9.30
  -8   5   6  119.69    9.40
   3  -8   6  128.59   10.20
   5   3   6  120.69    9.30
  -2   7  -6  293.97   19.40
   7  -5  -6  301.17   19.20
   7  -5  -6  293.37   20.70
  -5  -2  -6  268.47   19.80
  -7   5   6  295.37   19.30
   5   2   6  294.97   19.60
   2  -7   6  300.07   20.00
  -1   6  -6  394.46   24.50
  -5  -1  -6  376.66   25.10
   6  -5  -6  387.46   25.90
   6  -5  -6  360.86   24.10
   1  -6   6  381.86   24.90
  -6   5   6  372.66   24.30
   5   1   6  388.86   24.90
   5  -5  -6  673.43   42.40
  -5   0  -6  703.03   43.50
   0   5  -6  698.63   42.60
   5  -5  -6  630.84   44.50
   0   5  -6  714.53   42.90
   0  -5   6  709.23   43.10
   5   0   6  697.13   43.90
  -5   5   6  689.33   42.80
   1   4  -6  558.64   35.50
   1   4  -6  592.14   35.60
   4  -5  -6  576.74   35.60
  -5   1  -6  550.04   36.20
   4  -5  -6  586.24   37.20
  -4   5   6  573.34   35.60
  -1  -4   6  562.74   35.80
   5  -1   6  570.04   36.50
   3  -5  -6   71.59    6.30
   2   3  -6   78.69    6.30
   2   3  -6   72.39    5.60
  -5   2  -6   65.49    6.60
   3  -5  -6   75.89    6.50
  -2  -3   6   70.89    5.90
   5  -2   6   74.59    5.80
  -3   5   6   76.09    5.70
   2  -5  -6   64.19    6.10
   3   2  -6   73.79    5.70
  -5   3  -6   70.79    5.80
  -5   3  -6   74.09    6.50
   3   2  -6   78.69    6.20
  -3  -2   6   77.29    6.20
   5  -3   6   77.89    5.90
  -2   5   6   79.89    6.70
  -5   4  -6  565.94   36.10
   4   1  -6  597.14   35.50
   1  -5  -6  549.05   36.70
  -5   4  -6  570.64   35.80
  -4  -1   6  559.64   35.50
  -1   5   6  553.94   35.80
  -4  -1   6  592.14   35.70
   5  -4   6  577.84   36.40
  -5   5  -6  665.93   42.20
   0  -5  -6  661.03   42.90
   5   0  -6  694.73   41.40
  -5   5  -6  648.64   42.00
   5  -5   6  720.83   42.70
   0   5   6  629.44   41.60
  -5   0   6  671.13   41.60
  -1  -5  -6  356.96   24.50
  -5   6  -6  351.56   24.40
   6  -1  -6  382.36   23.80
   1   5   6  385.56   24.20
   5  -6   6  415.36   24.60
  -6   1   6  352.76   23.70
  -2  -5  -6  283.17   19.30
  -5   7  -6  269.37   19.40
   7  -2  -6  281.17   18.70
   2   5   6  294.87   19.20
  -7   2   6  290.37   18.80
   5  -7   6  301.17   19.30
  -5   8  -6  124.79    9.90
   8  -3  -6  130.29    9.50
  -3  -5  -6  127.99   10.50
  -3  -5  -6  123.69    9.40
   3   5   6  111.69    9.50
  -8   3   6  122.19    9.30
   5  -8   6  120.39    9.70
   9  -4  -6   32.10    4.50
  -4  -5  -6   31.10    4.40
  -5   9  -6   29.90    4.80
  -4  -5  -6   31.50    5.40
   5  -9   6   31.50    4.60
   4   5   6   32.00    4.50
  -9   4   6   34.80    4.30
  -5  -5  -6   47.00    7.40
  -5  -5  -6   62.99    6.30
  10  -5  -6   63.29    6.40
  -5  10  -6   50.39    6.50
   5   5   6   57.49    6.00
 -10   5   6   53.49    6.00
   5 -10   6   57.49    6.20
  -4  10  -6   82.29    7.80
  -6  -4  -6   80.19    8.60
  10  -6  -6   77.79    7.20
   6   4   6   75.59    7.30
   4 -10   6   82.19    8.10
  -6  -3  -6   98.49    9.60
   9  -6  -6  113.29    8.70
  -3   9  -6  113.29    9.00
  -9   6   6  107.59    8.90
   6   3   6  104.19    8.70
  -6  -2  -6  121.19   10.60
   8  -6  -6  127.09    9.70
  -2   8  -6  132.79   10.00
   8  -6  -6  137.09   11.70
   2  -8   6  142.89   10.70
   6   2   6  131.19    9.90
  -8   6   6  122.49    9.70
   7  -6  -6  120.69    9.60
  -6  -1  -6   90.19    8.20
  -1   7  -6  102.39    7.70
   7  -6  -6   93.39    7.60
   1  -7   6   93.19    8.20
  -7   6   6   94.89    7.60
   6   1   6   92.29    7.60
  -6   0  -6   39.70    4.80
   0   6  -6   36.70    4.00
   6  -6  -6   38.60    4.30
   6  -6  -6   37.80    5.30
   6   0   6   36.70    4.00
  -6   6   6   37.10    4.30
   0  -6   6   43.30    4.90
  -6   1  -6  402.56   26.00
   1   5  -6  394.56   25.20
   5  -6  -6  412.76   25.20
   1   5  -6  383.56   25.40
   5  -6  -6  376.76   26.60
  -5   6   6  401.46   25.30
  -1  -5   6  416.96   25.60
   6  -1   6  371.36   25.70
   2   4  -6  546.85   35.40
   4  -6  -6  570.44   37.10
   2   4  -6  577.74   35.40
  -6   2  -6  552.94   36.10
   4  -6  -6  589.54   35.50
  -4   6   6  545.15   35.50
  -2  -4   6  574.74   35.80
  -4   6   6  576.44   35.50
   6  -2   6  567.34   36.30
  -6   3  -6  416.86   27.30
   3  -6  -6  425.56   27.80
   3   3  -6  416.36   26.40
   3   3  -6  433.96   26.70
  -3   6   6  424.26   26.90
  -3  -3   6  418.86   26.90
   6  -3   6  396.36   27.00
   2  -6  -6  567.54   36.60
  -6   4  -6  535.55   35.60
   4   2  -6  567.14   35.10
  -6   4  -6  551.84   35.40
  -4  -2   6  606.94   35.40
   6  -4   6  563.64   36.00
  -2   6   6  540.85   35.30
  -4  -2   6  560.74   35.10
   1  -6  -6  389.66   25.10
   5   1  -6  380.16   24.10
  -6   5  -6  373.86   24.60
  -6   5  -6  344.87   24.40
  -5  -1   6  387.26   24.00
   6  -5   6  382.36   24.60
  -1   6   6  375.76   24.50
  -6   6  -6   37.50    4.50
   6   0  -6   40.50    4.50
  -6   6  -6   32.90    4.70
   0  -6  -6   34.30    4.20
   6  -6   6   44.10    4.40
   0   6   6   36.40    4.80
  -6   0   6   34.20    3.80
   7  -1  -6  109.89    8.20
  -6   7  -6   92.19    8.50
  -1  -6  -6   88.29    8.00
   1   6   6  118.59    8.80
  -7   1   6   89.89    7.60
   6  -7   6  114.89    8.40
  -6   8  -6  130.39   10.70
  -2  -6  -6  123.49    9.80
   8  -2  -6  140.19    9.90
   6  -8   6  130.09    9.80
   2   6   6  125.09   10.20
  -8   2   6  121.69    9.40
  -3  -6  -6  105.79    8.80
   9  -3  -6  110.69    8.70
  -6   9  -6  101.99    9.40
   3   6   6   99.89    8.60
  -9   3   6  102.39    8.50
   6  -9   6  103.99    8.70
  10  -4  -6   80.49    7.60
  -4  -6  -6   77.19    7.40
   4   6   6   75.39    7.40
   6 -10   6   83.39    7.60
 -10   4   6   85.69    7.80
  10  -7  -6   84.69    7.30
  -7  -3  -6   72.29    8.30
  -2   9  -6  161.08   12.30
  -7  -2  -6  151.88   13.10
   9  -7  -6  184.48   12.40
  -9   7   6  161.78   12.70
   7   2   6  161.58   12.50
   2  -9   6  199.38   13.80
  -7  -1  -6  102.19    9.60
  -1   8  -6  114.59    9.00
   8  -7  -6  110.09    8.90
   8  -7  -6  139.59   11.30
   1  -8   6  119.39    9.80
  -8   7   6  114.49    9.10
   7   1   6  105.49    8.80
   7  -7  -6   11.50    2.90
   0   7  -6   11.40    2.80
  -7   0  -6   14.50    3.40
   7  -7  -6   12.10    3.90
   7   0   6   10.20    2.50
   0  -7   6   12.50    3.40
  -7   7   6   16.60    3.40
   1   6  -6  101.99    8.10
   1   6  -6  100.59    8.90
  -7   1  -6  117.59    9.30
   6  -7  -6   99.69    9.50
   6  -7  -6  108.39    8.20
  -6   7   6  112.09    8.50
   7  -1   6  105.49    8.30
  -7   2  -6  332.57   21.20
   5  -7  -6  318.47   21.80
   2   5  -6  290.37   20.60
   2   5  -6  308.37   20.10
  -5   7   6  323.47   20.50
  -5   7   6  306.87   20.40
   7  -2   6  305.87   20.70
  -2  -5   6  298.97   20.70
   3   4  -6  468.35   30.50
   4  -7  -6  501.45   32.00
   3   4  -6  498.75   30.30
  -7   3  -6  465.35   31.10
  -3  -4   6  465.15   30.70
  -4   7   6  474.55   30.40
   7  -3   6  477.05   31.00
   3  -7  -6  495.75   31.90
   4   3  -6  455.35   30.40
   4   3  -6  474.35   30.30
  -7   4  -6  494.65   31.10
   7  -4   6  469.15   31.10
  -4  -3   6  485.05   30.70
  -3   7   6  486.65   30.60
   5   2  -6  295.97   19.80
   2  -7  -6  331.47   20.80
  -7   5  -6  289.97   20.30
  -7   5  -6  279.97   19.90
  -5  -2   6  300.57   19.40
  -2   7   6  273.57   19.80
   7  -5   6  288.77   19.90
  -5  -2   6  333.37   19.90
  -7   6  -6   96.19    9.00
   6   1  -6  101.69    8.30
  -7   6  -6   91.29    8.10
   1  -7  -6  111.49    8.60
  -6  -1   6  107.09    7.90
   7  -6   6  105.19    8.10
  -1   7   6   96.99    8.40
   7   0  -6   10.60    2.90
  -7   7  -6   11.20    3.80
   0  -7  -6   10.30    3.00
   7  -7   6   15.50    3.20
   0   7   6   14.80    3.50
   7  -7   6   13.20    3.10
  -7   0   6   10.10    2.60
   8  -1  -6  134.39    9.40
  -1  -7  -6  101.79    9.30
  -7   8  -6  110.89   10.30
   7  -8   6  120.39    9.10
  -8   1   6  106.99    8.80
   9  -2  -6  167.78   12.20
  -7   9  -6  180.68   13.60
  -2  -7  -6  165.18   12.70
  -9   2   6  148.19   11.90
   7  -9   6  176.48   12.40
   2   7   6  160.98   12.70
  10  -3  -6  102.09    8.20
   7 -10   6   83.59    7.90
   3   7   6   89.49    8.40
  -8  -1  -6  147.79   12.80
   9  -8  -6  158.38   14.40
  -1   9  -6  147.69   11.70
   9  -8  -6  183.68   12.10
  -9   8   6  148.79   12.30
   8   1   6  158.08   12.10
   1  -9   6  183.18   13.60
  -8   0  -6  163.08   12.70
   8  -8  -6  147.89   11.20
   8  -8  -6  175.28   13.80
   0   8  -6  157.78   11.40
   0  -8   6  160.48   12.60
   8   0   6  150.78   11.70
  -8   8   6  147.69   12.00
  -8   1  -6  114.99   10.00
   7  -8  -6  112.79   10.90
   1   7  -6  121.09    9.20
   7  -8  -6  119.89    9.20
  -7   8   6  126.19    9.80
  -7   8   6  133.99    9.50
   8  -1   6  106.09    9.10
  -1  -7   6  123.79   10.30
  -8   2  -6  137.29   10.90
   2   6  -6  114.29   10.80
   6  -8  -6  144.69   11.70
   2   6  -6  137.89    9.90
   8  -2   6  125.89   10.10
  -2  -6   6  136.79   10.80
  -6   8   6  147.29   10.60
  -6   8   6  144.19   10.40
   5  -8  -6  136.99   10.80
   3   5  -6  110.79    9.90
   3   5  -6  126.49    9.20
  -8   3  -6  127.59   10.20
  -5   8   6  117.39    9.50
  -3  -5   6  128.19    9.90
   8  -3   6  122.99    9.40
  -8   4  -6   66.89    6.70
   4   4  -6   60.29    5.50
   4   4  -6   58.99    6.50
   4  -8  -6   60.39    6.80
  -4   8   6   64.29    6.10
   8  -4   6   64.89    5.80
  -4  -4   6   66.69    6.40
   5   3  -6  127.99   10.20
  -8   5  -6  134.59   10.20
   3  -8  -6  120.69   10.30
  -5  -3   6  132.19   10.10
  -3   8   6  139.39   10.00
   8  -5   6  129.19    9.80
  -5  -3   6  118.09    9.40
   6   2  -6  126.59   10.20
  -8   6  -6  119.69   10.10
  -8   6  -6  127.19   11.30
   2  -8  -6  132.99   10.60
  -2   8   6  141.19   10.60
  -6  -2   6  133.79    9.70
   8  -6   6  143.59   10.30
   7   1  -6  118.99    9.30
  -8   7  -6  106.09    8.90
   1  -8  -6  114.89    9.60
  -8   7  -6  102.99   10.50
  -1   8   6  116.29    9.70
   8  -7   6  115.29    9.30
  -7  -1   6  114.69    8.60
   0  -8  -6  148.59   12.00
  -8   8  -6  140.89   13.00
   8   0  -6  157.08   11.70
   8  -8   6  175.18   12.30
   8  -8   6  160.08   11.60
   0   8   6  170.68   12.60
  -8   0   6  138.99   11.30
   9  -1  -6  172.48   12.50
  -1  -8  -6  160.88   12.70
  -8   9  -6  163.98   13.70
  -9   1   6  147.09   12.00
   8  -9   6  162.58   12.00
   1   8   6  169.68   13.10
   0   9  -6   82.39    7.60
   9  -9  -6   75.89   10.10
   9  -9  -6   91.09    7.80
  -9   9   6   81.29    8.20
  -9   1  -6  157.38   13.10
   8  -9  -6  172.88   14.40
   1   8  -6  165.18   12.00
   9  -1   6  151.98   12.20
  -8   9   6  175.78   12.30
  -1  -8   6  190.08   13.60
  -8   9   6  137.49   12.40
  -9   2  -6  188.68   13.90
   7  -9  -6  183.78   14.50
   2   7  -6  172.08   12.60
   2   7  -6  157.68   14.10
  -2  -7   6  179.18   13.40
  -7   9   6  167.08   13.20
   9  -2   6  172.28   12.90
  -7   9   6  184.88   12.80
   3   6  -6  113.29    8.80
  -9   3  -6  116.89   10.00
   3   6  -6  104.79   10.20
   6  -9  -6  114.29   10.40
   9  -3   6  106.89    8.90
  -6   9   6  105.29    8.80
  -3  -6   6  111.59    9.50
   4   5  -6   32.00    5.50
   4   5  -6   40.40    4.30
   5  -9  -6   37.10    5.60
  -9   4  -6   31.90    5.20
  -5   9   6   27.90    4.30
   9  -4   6   33.60    4.50
  -4  -5   6   35.40    5.10
   5   4  -6   32.80    5.30
  -9   5  -6   37.40    5.10
   4  -9  -6   30.70    5.00
  -5  -4   6   31.70    4.90
  -5  -4   6   27.80    4.20
  -4   9   6   38.80    4.90
   9  -5   6   33.70    4.50
   6   3  -6  113.79    9.80
  -9   6  -6  127.89    9.90
   3  -9  -6  107.99   10.10
  -3   9   6  133.89    9.90
  -6  -3   6  103.99    9.00
   9  -6   6  130.89    9.70
  -6  -3   6  112.89    9.50
  -9   7  -6  134.49   14.10
   7   2  -6  165.08   13.10
   2  -9  -6  169.48   13.30
  -9   7  -6  160.78   12.50
  -2   9   6  193.48   13.50
   9  -7   6  190.18   13.10
  -7  -2   6  184.08   12.50
   8   1  -6  154.18   12.30
   1  -9  -6  157.18   12.50
  -9   8  -6  151.98   11.90
  -9   8  -6  140.89   14.10
   9  -8   6  186.28   13.00
   9  -8   6  169.18   12.20
  -1   9   6  178.18   13.20
  -8  -1   6  151.68   11.90
  -9   9  -6   76.79    9.60
   9  -9   6   92.09    8.00
   9  -9   6   95.79    8.30
  -9   0   6   79.19    7.80
   3   7  -6   78.79   10.20
   3   7  -6   89.09    7.80
  -7  10   6   90.19    7.70
 -10   4  -6   82.29    8.60
   4   6  -6   83.29    7.40
   4   6  -6   71.59    9.20
   6 -10  -6   82.99    8.90
  -6  10   6   75.19    7.20
  -4  -6   6   86.89    8.30
 -10   5  -6   61.49    7.10
   5   5  -6   62.79    8.00
   5 -10  -6   58.69    7.40
  -5  -5   6   58.29    6.40
  -5  10   6   59.19    6.30
  10  -5   6   52.29    6.00
  -5  -5   6   65.39    6.80
 -10   6  -6   89.19    8.40
   6   4  -6   76.89    8.80
   4 -10  -6   79.09    8.30
  10  -6   6   88.59    7.80
  -4  10   6   86.89    7.70
  -6  -4   6   86.89    8.20
  -6  -4   6   78.79    7.60
 -10   7  -6   79.89    7.90
  10  -7   6   94.99    8.50
  -7  -3   6   92.19    8.00
   0   0  -7   -0.50    1.80
   0   0  -7    0.60    1.10
   0   0  -7    0.90    1.10
   0   0   7    2.50    1.70
   0   1  -7   22.00    2.70
  -1   0  -7   23.30    3.50
  -1   0  -7   24.90    2.50
   0   1  -7   20.80    3.60
  -1   0  -7   17.10    3.20
   1  -1  -7   16.60    3.40
  -1   0  -7   23.70    2.60
   1  -1  -7   23.40    2.50
   0  -1   7   22.30    3.00
  -1   1   7   22.60    2.50
  -1   1  -7   21.10    2.60
   0  -1  -7   23.50    2.60
   1   0  -7   23.00    2.50
   0  -1  -7   23.10    3.30
   1   0  -7   19.00    3.50
  -1   1  -7   19.80    3.20
   0  -1  -7   29.50    3.90
  -1   1  -7   21.30    3.40
  -1   0   7   20.90    2.80
   1  -1   7   19.90    2.50
   1  -1   7   17.00    3.10
   0   1   7   23.90    2.60
  -1  -1  -7   17.70    2.20
  -1  -1  -7   20.60    2.50
  -1   2  -7   20.20    3.40
  -1   2  -7   15.00    2.20
   2  -1  -7   20.40    3.50
  -1  -1  -7   21.90    3.60
  -2   1   7   17.10    2.30
   1   1   7   14.30    3.00
   1  -2   7   18.70    3.10
  -2  -1  -7   91.29    6.80
   3  -2  -7   86.89    7.40
  -2  -1  -7   83.99    7.80
  -1   3  -7   87.79    6.60
   2   1   7   94.69    7.10
  -3   2   7   90.09    6.60
   1  -3   7   95.19    7.40
   0   2  -7  485.25   30.50
  -2   0  -7  502.55   30.60
   0   2  -7  482.15   30.00
   2  -2  -7  488.35   30.70
  -2   0  -7  504.55   29.70
  -2   0  -7  436.06   30.90
   2  -2  -7  478.15   30.50
   2   0   7  471.95   30.00
  -2   2   7  473.55   29.80
   0  -2   7  473.15   30.30
  -2   1  -7   15.50    3.30
   1  -2  -7   19.20    2.50
   1  -2  -7   15.00    3.30
   1   1  -7   22.90    3.50
  -2   1  -7   18.50    2.40
   1   1  -7   17.10    2.30
  -1  -1   7   20.00    2.70
  -1   2   7   18.00    2.30
   2  -1   7   18.80    2.50
   0  -2  -7  463.15   30.00
   2   0  -7  460.65   29.90
   0  -2  -7  473.45   30.20
  -2   2  -7  501.65   29.50
  -2   2  -7  470.35   30.40
   2  -2   7  495.25   30.10
   0   2   7  435.86   29.90
   3  -1  -7   90.59    7.60
  -1  -2  -7   92.69    6.80
  -2   3  -7   98.79    6.80
  -1  -2  -7   84.59    7.80
   1   2   7   94.49    7.40
  -3   1   7   99.69    6.70
   2  -3   7   75.79    7.40
  -2  -2  -7   -1.50    1.90
   4  -2  -7    2.60    2.10
  -2  -2  -7    0.70    1.40
  -2   4  -7    2.30    1.70
  -4   2   7    1.50    1.40
   2   2   7   -1.10    1.60
   2  -4   7    2.30    2.00
   5  -3  -7    4.60    2.50
  -3  -2  -7    4.00    1.90
  -2   5  -7    0.70    1.80
  -3  -2  -7   -0.50    2.10
  -5   3   7    1.10    1.70
   3   2   7    1.80    2.00
   2  -5   7    1.30    2.00
  -3  -1  -7   11.60    2.20
  -3  -1  -7   15.50    3.30
   4  -3  -7   10.10    2.80
  -1   4  -7    9.50    2.20
  -4   3   7   10.40    2.10
   3   1   7   11.40    2.40
   1  -4   7    9.60    2.50
   0   3  -7   84.69    7.40
   0   3  -7   87.39    6.60
   3  -3  -7   89.89    6.80
   3  -3  -7   93.39    7.30
  -3   0  -7   80.89    7.70
   0  -3   7   86.09    6.90
  -3   3   7   87.39    6.40
   3   0   7   87.29    6.70
   2  -3  -7   91.49    7.80
   2  -3  -7  100.99    7.30
   1   2  -7   94.99    7.80
   1   2  -7   97.69    7.00
  -3   1  -7   89.49    8.20
  -3   1  -7   96.29    6.70
  -1  -2   7   90.89    7.20
  -2   3   7   98.69    6.90
   3  -1   7   99.99    7.10
   2   1  -7  100.69    7.80
   1  -3  -7   93.09    7.20
   2   1  -7   87.39    6.80
  -3   2  -7   88.69    6.70
   1  -3  -7   90.49    7.90
  -3   2  -7   98.39    8.10
  -2  -1   7  105.19    7.10
   3  -2   7   95.19    6.90
  -3   3  -7   85.19    7.50
  -3   3  -7   84.09    6.50
   3   0  -7   88.89    7.30
   0  -3  -7   88.29    6.70
   3  -3   7   91.89    6.50
  -3   0   7   82.89    6.40
   0   3   7   81.19    7.30
  -3   4  -7   12.50    2.40
   4  -1  -7   10.90    2.90
  -1  -3  -7   11.90    2.30
   1   3   7    6.80    2.40
  -4   1   7   13.20    2.20
   3  -4   7    7.80    2.60
   5  -2  -7    5.00    2.40
  -2  -3  -7    1.80    2.30
  -3   5  -7    0.80    1.70
  -5   2   7    2.70    1.70
   2   3   7    1.10    1.90
   3  -5   7    0.30    2.10
   6  -3  -7   31.10    4.20
  -3  -3  -7   28.90    4.60
  -3  -3  -7   30.60    3.60
  -3   6  -7   27.40    3.90
   3  -6   7   26.70    4.20
   3   3   7   24.30    3.70
   7  -4  -7   53.19    5.70
  -4  -3  -7   61.59    6.50
  -3   7  -7   48.60    5.50
  -4  -3  -7   52.99    5.10
   3  -7   7   54.29    6.10
  -7   4   7   55.49    5.10
   4   3   7   50.49    5.40
  -4  -2  -7   57.99    6.40
   6  -4  -7   58.89    5.70
  -4  -2  -7   54.99    5.10
  -2   6  -7   60.19    5.50
  -6   4   7   56.09    5.20
   2  -6   7   57.59    6.10
   5  -4  -7   84.69    7.10
  -4  -1  -7   78.19    7.70
  -1   5  -7   76.89    6.60
   4   1   7   81.69    6.80
  -5   4   7   92.89    6.60
   1  -5   7   85.09    7.20
  -4   0  -7  176.98   13.70
   4  -4  -7  191.78   13.10
   0   4  -7  183.18   12.50
   4  -4  -7  178.48   12.90
   4   0   7  191.88   12.80
   0  -4   7  180.48   12.80
  -4   4   7  186.38   12.30
   3  -4  -7   10.90    2.90
  -4   1  -7    6.90    2.60
   1   3  -7    9.10    1.90
   1   3  -7   11.90    2.90
   3  -4  -7   12.20    2.60
  -3   4   7   10.20    2.00
  -1  -3   7    7.80    2.10
   4  -1   7    9.30    2.00
   2   2  -7    0.10    1.30
   2  -4  -7   -1.40    1.40
  -4   2  -7    0.50    1.30
   2  -4  -7    7.20    2.70
   2   2  -7   -0.60    2.00
  -4   2  -7    0.70    1.90
   4  -2   7    1.00    1.30
  -2  -2   7    2.20    1.60
   3   1  -7   11.80    2.90
  -4   3  -7   13.90    3.10
   1  -4  -7   16.70    2.70
  -3  -1   7    9.90    2.10
  -1   4   7    9.90    2.90
   4  -3   7   10.50    2.10
   0  -4  -7  198.08   13.10
  -4   4  -7  187.18   12.70
  -4   4  -7  181.38   13.30
   4   0  -7  181.08   12.90
   4  -4   7  202.08   12.70
  -4   0   7  184.58   12.40
   0   4   7  159.48   12.90
  -4   5  -7   81.49    6.60
   5  -1  -7   73.29    6.70
  -1  -4  -7   79.29    6.30
  -5   1   7   75.89    6.00
   4  -5   7   74.89    7.10
   1   4   7   71.59    6.70
   6  -2  -7   57.79    5.40
  -4   6  -7   49.80    5.20
  -2  -4  -7   53.39    5.00
   4  -6   7   52.59    5.80
  -6   2   7   55.19    4.90
   2   4   7   48.10    5.10
  -3  -4  -7   58.19    5.40
   7  -3  -7   50.09    5.40
  -4   7  -7   54.29    5.80
   3   4   7   53.69    5.60
   4  -7   7   49.70    5.90
  -7   3   7   52.49    5.00
  -4   8  -7    2.80    2.80
   8  -4  -7    6.30    2.90
  -4  -4  -7    3.10    2.50
  -4  -4  -7    5.10    3.10
  -8   4   7    3.80    2.50
   4  -8   7   -0.10    2.60
   4   4   7    4.70    2.50
  -5  -4  -7    5.60    3.80
   9  -5  -7   15.10    3.80
  -5  -4  -7    5.60    2.80
   5   4   7    6.30    2.80
  -3   8  -7   -0.40    2.20
   8  -5  -7    4.20    2.80
  -5  -3  -7    1.20    2.60
  -8   5   7    0.80    2.30
   3  -8   7    0.80    2.70
   5   3   7   -0.80    2.00
   7  -5  -7   64.49    6.20
  -2   7  -7   64.59    6.20
  -5  -2  -7   65.19    7.00
   5   2   7   65.19    6.00
  -7   5   7   65.39    6.00
   2  -7   7   67.89    6.70
  -1   6  -7   36.00    4.10
  -5  -1  -7   33.70    5.10
   6  -5  -7   35.40    4.60
   5   1   7   40.50    4.20
   1  -6   7   42.50    5.00
  -6   5   7   33.90    4.00
  -5   0  -7   65.79    6.90
   5  -5  -7   74.29    6.40
   5  -5  -7   63.69    6.50
   0   5  -7   61.69    5.70
   0  -5   7   74.89    6.30
  -5   5   7   68.79    5.70
   5   0   7   66.09    5.80
   4  -5  -7   84.99    7.00
   1   4  -7   84.19    7.20
   4  -5  -7   73.89    6.80
   1   4  -7   82.09    6.30
  -5   1  -7   73.29    7.50
   5  -1   7   82.49    6.50
  -1  -4   7   77.19    6.60
  -4   5   7   81.19    6.30
   3  -5  -7    5.70    2.60
  -5   2  -7    1.10    2.10
   2   3  -7    2.70    1.80
   2   3  -7    0.60    2.20
   3  -5  -7   -1.20    1.90
  -2  -3   7    1.50    1.90
  -3   5   7    3.80    2.30
   5  -2   7    1.40    1.70
   3   2  -7    1.10    1.70
  -5   3  -7    1.70    1.70
   3   2  -7    5.00    2.40
  -5   3  -7    1.20    2.20
   2  -5  -7   -0.90    2.00
  -2   5   7    1.00    2.30
   5  -3   7    2.50    1.70
  -3  -2   7    2.30    1.90
   4   1  -7   81.19    6.80
  -5   4  -7   70.49    6.30
   1  -5  -7   75.29    6.60
  -5   4  -7   83.49    7.10
  -4  -1   7   72.69    6.10
  -1   5   7   88.29    7.30
   5  -4   7   82.39    6.30
   5   0  -7   63.79    6.00
   0  -5  -7   65.29    6.10
  -5   5  -7   70.79    6.10
  -5   5  -7   65.39    6.20
  -5   0   7   65.99    5.40
   0   5   7   60.89    6.30
   5  -5   7   67.99    6.30
  -5   6  -7   33.60    4.60
   6  -1  -7   41.90    4.80
  -1  -5  -7   37.20    4.50
   5  -6   7   43.70    4.80
  -6   1   7   34.30    4.00
   1   5   7   34.70    4.50
   7  -2  -7   68.59    6.30
  -5   7  -7   57.49    6.20
  -2  -5  -7   58.79    5.80
   5  -7   7   69.29    6.40
   2   5   7   64.69    6.30
  -7   2   7   59.39    5.60
  -5   8  -7   -2.20    2.70
   8  -3  -7    5.00    2.90
  -3  -5  -7    0.20    2.10
   5  -8   7    2.90    2.80
  -8   3   7    0.00    2.20
   3   5   7    2.80    2.60
   9  -4  -7    7.10    3.30
  -4  -5  -7    7.80    3.20
   5  -9   7    5.20    3.20
   4   5   7    8.50    3.10
  -6  -3  -7   23.80    5.20
   9  -6  -7   32.40    4.70
   8  -6  -7    8.30    3.00
  -2   8  -7    9.30    3.10
  -6  -2  -7   12.70    3.80
   6   2   7    6.00    2.50
   2  -8   7   12.40    3.80
  -8   6   7    8.40    2.90
  -1   7  -7    9.30    2.80
  -6  -1  -7    8.10    3.30
   7  -6  -7    9.30    3.00
  -7   6   7    8.90    2.80
   1  -7   7   10.90    3.20
   6   1   7    6.70    2.40
   6  -6  -7    1.00    2.20
   6  -6  -7    0.30    2.50
  -6   0  -7    2.10    2.60
   0   6  -7    4.20    2.30
  -6   6   7    5.20    2.40
   0  -6   7    1.40    2.60
   6   0   7    8.70    2.50
   1   5  -7   34.10    4.00
  -6   1  -7   37.70    5.40
   5  -6  -7   41.10    4.80
   5  -6  -7   32.60    5.00
   6  -1   7   39.90    4.30
  -1  -5   7   44.60    4.70
  -5   6   7   41.20    4.50
   4  -6  -7   62.39    5.80
   4  -6  -7   55.49    6.20
   2   4  -7   56.09    6.10
   2   4  -7   60.19    5.30
  -6   2  -7   57.39    6.50
  -2  -4   7   63.09    5.90
   6  -2   7   54.09    5.20
  -4   6   7   60.99    5.90
   3   3  -7   32.90    3.70
   3   3  -7   26.70    4.20
  -6   3  -7   26.80    4.40
   3  -6  -7   27.40    4.40
  -3  -3   7   28.30    4.10
  -3   6   7   32.80    4.60
   6  -3   7   29.50    3.50
   4   2  -7   62.79    6.10
   2  -6  -7   52.99    5.80
  -6   4  -7   55.89    5.90
  -6   4  -7   60.09    5.40
  -2   6   7   56.39    5.90
  -4  -2   7   58.89    5.30
   6  -4   7   60.49    5.40
  -6   5  -7   26.10    4.20
   5   1  -7   39.10    4.90
  -6   5  -7   41.50    4.70
   1  -6  -7   33.80    4.60
   6  -5   7   33.10    4.20
  -1   6   7   28.70    4.50
  -5  -1   7   46.50    4.20
  -6   6  -7    9.60    3.00
   6   0  -7    6.80    2.70
   0  -6  -7    2.80    2.40
   0   6   7    1.70    2.40
   6  -6   7    3.90    2.50
  -6   0   7    4.10    2.10
  -6   7  -7    4.40    2.80
  -1  -6  -7    5.60    2.60
   7  -1  -7   10.60    3.10
  -7   1   7    8.50    2.50
   1   6   7   10.60    3.30
   6  -7   7   12.80    3.20
  -6   8  -7    5.80    3.60
   8  -2  -7    9.10    3.10
  -2  -6  -7   11.40    3.30
  -8   2   7    9.10    2.70
   6  -8   7   11.10    3.20
   2   6   7    6.90    3.10
   3   6   7   27.10    4.70
   8  -7  -7   20.80    3.90
  -7  -1  -7   19.90    4.70
  -1   8  -7   18.50    3.80
  -8   7   7   18.20    3.80
   7   1   7   19.10    3.60
   1  -8   7   20.60    4.60
   0   7  -7    2.80    2.50
   7  -7  -7    0.10    3.40
   7  -7  -7    2.40    2.40
  -7   0  -7    1.20    3.00
   7   0   7    1.70    2.30
   0  -7   7    5.10    3.20
  -7   7   7    1.00    2.60
   6  -7  -7   10.40    3.00
   1   6  -7    7.00    2.40
  -7   1  -7   14.30    3.60
   6  -7  -7    4.10    3.40
  -1  -6   7   10.40    3.30
   7  -1   7   13.40    2.90
  -6   7   7   10.30    2.90
  -7   2  -7   69.89    7.00
   5  -7  -7   62.39    7.10
   2   5  -7   64.09    6.80
   2   5  -7   70.59    6.00
  -2  -5   7   68.39    6.40
  -5   7   7   61.59    6.20
   7  -2   7   61.19    5.80
   4  -7  -7   72.09    6.90
  -7   3  -7   52.79    6.10
   3   4  -7   60.09    5.30
   3   4  -7   59.19    6.30
  -4   7   7   57.99    6.10
  -3  -4   7   53.59    5.70
   7  -3   7   54.49    5.50
   3  -7  -7   53.89    6.50
   4   3  -7   63.69    6.40
  -7   4  -7   64.69    6.30
  -3   7   7   68.49    6.40
   7  -4   7   58.79    5.60
  -4  -3   7   52.59    5.30
  -4  -3   7   62.79    6.20
  -7   5  -7   56.59    6.10
   2  -7  -7   65.89    6.70
   5   2  -7   64.09    6.50
  -2   7   7   60.79    6.50
   7  -5   7   64.99    5.80
  -5  -2   7   68.39    5.80
  -7   6  -7    7.10    3.20
   6   1  -7    8.50    3.10
   1  -7  -7    6.60    3.00
  -7   6  -7    7.40    2.80
   7  -6   7   10.30    2.90
  -1   7   7   13.70    3.40
  -6  -1   7    6.30    2.30
  -7   7  -7   -3.80    2.80
   0  -7  -7    1.00    2.90
   7   0  -7    3.80    2.70
   0   7   7    1.50    2.90
   7  -7   7    6.50    2.80
  -7   0   7    2.20    2.30
  -1  -7  -7   16.00    4.00
   8  -1  -7   15.90    4.00
  -7   8  -7   25.00    5.20
   1   7   7   15.60    4.10
   7  -8   7   19.20    3.80
  -8   1   7   13.60    3.20
   8  -8  -7   -3.40    3.80
   0   8  -7   -0.70    2.40
   8  -8  -7    2.00    2.90
  -8   8   7   -1.20    3.00
   7  -8  -7   14.80    5.00
   7  -8  -7   25.40    4.10
  -8   1  -7   21.60    4.70
   1   7  -7   23.40    3.90
   8  -1   7   20.40    3.70
  -1  -7   7   20.20    4.60
  -7   8   7   23.00    4.20
  -7   8   7   19.90    4.20
  -8   2  -7   29.60    4.90
   2   6  -7    8.40    2.70
   6  -8  -7   11.40    4.20
  -6   8   7   10.20    3.30
   8  -2   7    9.00    2.80
  -2  -6   7    9.30    3.60
   5  -8  -7   -0.50    3.20
   3   5  -7    3.50    2.40
  -8   3  -7    0.60    2.80
   3   5  -7    3.40    3.00
  -3  -5   7    1.40    2.70
   8  -3   7    1.50    2.20
  -5   8   7    1.90    2.70
   4  -8  -7    2.20    3.30
   4   4  -7    3.00    2.20
   4   4  -7    5.30    3.20
  -4  -4   7    5.00    2.90
  -4  -4   7   -2.00    2.50
   8  -4   7    7.60    2.60
  -4   8   7    5.60    2.80
   3  -8  -7   -0.10    2.80
   5   3  -7    1.00    2.80
  -8   5  -7    1.70    2.60
   8  -5   7    1.60    2.30
  -3   8   7   -0.70    2.60
  -5  -3   7   -2.70    2.30
   6   2  -7   11.10    3.60
  -8   6  -7    7.70    3.00
   2  -8  -7    7.90    3.40
  -6  -2   7    7.70    2.80
  -2   8   7   12.90    3.80
   8  -6   7   10.10    3.10
   7   1  -7   15.60    4.00
  -8   7  -7   16.70    4.70
   1  -8  -7   18.60    4.30
  -8   7  -7   14.50    3.40
   8  -7   7   17.10    3.70
  -7  -1   7   19.00    3.50
  -1   8   7   14.20    4.00
  -8   8  -7   -4.60    3.70
   3   6  -7   31.00    4.50
   6  -9  -7   33.50    5.90
   3   6  -7   26.60    5.80
  -3  -6   7   30.30    5.00
  -6   9   7   36.50    4.80
  -9   4  -7   11.10    3.80
   5  -9  -7    3.70    3.90
   4   5  -7    7.80    2.80
   4   5  -7   12.00    4.40
   9  -4   7    6.00    2.80
  -4  -5   7    7.80    3.50
  -5   9   7    4.10    2.80
   5   4  -7    9.50    3.80
  -9   5  -7   10.20    3.70
   4  -9  -7    5.20    3.80
  -5  -4   7    8.10    3.50
   9  -5   7    9.30    3.20
  -4   9   7    7.40    3.20
  -5  -4   7    6.60    3.20
   6   3  -7   27.20    5.30
   9  -6   7   39.90    5.10
  -6  -3   7   24.70    4.10
   0   0  -8 1465.15   92.29
   0   0  -8 1571.04   92.19
  -1   0  -8  606.14   37.20
  -1   0  -8  590.14   37.60
  -1   0  -8  635.64   37.90
   1  -1  -8  546.65   37.40
  -1   0  -8  594.54   36.60
   0   1  -8  600.54   36.80
   0   1  -8  619.24   37.60
  -1   1   8  593.94   36.80
   0  -1   8  551.54   37.10
   0  -1  -8  563.14   36.40
  -1   1  -8  623.14   35.80
   1   0  -8  559.74   36.60
   0  -1  -8  583.84   36.60
   0   1   8  607.24   35.80
  -1   0   8  588.74   35.90
   1  -1   8  492.95   36.20
   2  -1  -8  167.98   12.30
  -1  -1  -8  164.98   11.20
  -1   2  -8  167.68   11.10
   1  -2   8  143.29   11.60
   1   1   8  160.28   11.80
  -2   1   8  163.08   11.00
  -2  -1  -8  222.38   15.00
   3  -2  -8  235.08   15.80
  -1   3  -8  241.98   14.90
  -2  -1  -8  204.98   16.10
  -3   2   8  223.38   14.70
   1  -3   8  209.38   15.40
  -2   0  -8   78.99    6.20
   2  -2  -8   74.89    7.40
   0   2  -8   83.49    6.30
  -2   0  -8   79.29    7.60
  -2   2   8   77.29    6.10
   2   0   8   84.49    6.40
   0  -2   8   77.09    6.60
   1  -2  -8  163.88   11.50
   1   1  -8  160.58   12.50
   1   1  -8  157.98   11.20
  -2   1  -8  175.98   12.70
   1  -2  -8  157.78   12.30
  -2   1  -8  170.78   11.20
  -1   2   8  170.58   11.20
   2  -1   8  174.88   11.50
  -2   2  -8   84.99    6.10
   2   0  -8   85.39    7.40
   0  -2  -8   76.29    6.10
   2  -2   8   66.19    7.00
  -2   0   8   81.89    6.10
   0   2   8   63.99    6.90
  -1  -2  -8  221.18   14.70
  -2   3  -8  228.58   14.50
   3  -1  -8  223.88   15.40
   2  -3   8  195.38   15.10
  -3   1   8  216.28   14.30
   1   2   8  206.98   14.90
  -2   4  -8  812.12   48.10
   4  -2  -8  796.22   48.20
  -2  -2  -8  807.52   49.10
  -4   2   8  774.92   47.80
   2  -4   8  720.43   48.50
   2   2   8  714.63   47.40
  -3  -2  -8  387.56   28.70
   5  -3  -8  442.66   28.00
  -2   5  -8  441.86   27.80
  -3  -2  -8  442.86   28.20
  -5   3   8  443.36   27.50
   2  -5   8  421.96   28.40
  -3  -1  -8  370.76   23.90
  -1   4  -8  379.76   23.60
   4  -3  -8  377.06   24.10
  -3  -1  -8  308.87   24.50
  -4   3   8  378.66   23.30
   3   1   8  374.56   24.00
   1  -4   8  346.87   24.00
   0   3  -8  130.29    9.30
  -3   0  -8  127.99   10.80
   3  -3  -8  139.29   10.40
   0  -3   8  127.09    9.80
   3   0   8  130.59    9.60
  -3   3   8  130.99    9.20
   1   2  -8  221.48   14.90
   2  -3  -8  222.28   15.80
  -3   1  -8  205.98   16.10
   2  -3  -8  229.98   15.30
   1   2  -8  215.48   15.80
   3  -1   8  238.48   15.30
  -1  -2   8  216.48   15.00
  -2   3   8  237.88   14.80
   2   1  -8  211.08   15.70
  -3   2  -8  240.58   14.70
  -3   2  -8  196.98   15.70
   1  -3  -8  223.58   15.80
   2   1  -8  229.98   14.80
   1  -3  -8  237.38   15.30
  -1   3   8  194.78   15.50
   3  -2   8  228.78   15.00
   0  -3  -8  127.29    9.30
   3   0  -8  126.69   10.10
  -3   3  -8  140.39    9.10
   3  -3   8  107.19   10.00
   0   3   8  109.89    9.70
  -3   0   8  133.49    9.10
  -3   4  -8  365.06   22.50
   4  -1  -8  378.56   23.30
  -1  -3  -8  355.56   23.00
   1   3   8  333.37   22.70
  -4   1   8  334.37   22.20
   3  -4   8  322.47   23.30
   5  -2  -8  458.85   28.10
  -2  -3  -8  462.85   28.30
  -3   5  -8  433.06   27.80
  -5   2   8  427.46   27.40
   3  -5   8  397.46   28.30
   2   3   8  405.96   27.50
  -3  -3  -8  105.49    8.10
   6  -3  -8  104.09    8.80
  -3   6  -8   95.49    8.10
   3  -6   8  100.29    9.00
   3   3   8   97.49    8.20
  -6   3   8  103.49    7.90
  -3   7  -8   32.80    4.60
  -4  -3  -8   38.00    4.50
   7  -4  -8   36.80    5.10
   3  -7   8   38.40    5.40
  -7   4   8   34.90    4.20
  -4  -2  -8   63.49    6.00
  -4  -2  -8   65.69    7.50
  -2   6  -8   64.39    6.00
   6  -4  -8   73.39    6.70
   2  -6   8   63.99    6.60
  -6   4   8   64.99    5.90
   4   2   8   64.29    5.90
   5  -4  -8  121.59    9.40
  -4  -1  -8  111.09   10.10
  -1   5  -8  117.89    8.90
   4   1   8  119.39    9.00
  -5   4   8  118.99    8.80
   1  -5   8  116.49    9.60
   4  -4  -8   91.49    8.10
  -4   0  -8   83.19    8.40
   0   4  -8   84.29    7.10
   0  -4   8   89.09    7.50
  -4   4   8   89.99    6.90
   4   0   8   93.29    7.20
   3  -4  -8  390.16   24.50
  -4   1  -8  359.26   25.00
   1   3  -8  336.87   24.20
   1   3  -8  350.46   23.60
   3  -4  -8  357.46   24.50
   4  -1   8  377.76   24.30
  -3   4   8  409.76   23.70
  -1  -3   8  370.86   23.90
   2   2  -8  804.12   49.30
   2  -4  -8  785.42   49.30
  -4   2  -8  789.22   49.99
   2  -4  -8  807.32   50.39
   2   2  -8  784.62   48.90
  -2   4   8  731.43   49.20
   4  -2   8  813.62   50.09
   3   1  -8  370.36   23.90
  -4   3  -8  345.87   24.20
  -4   3  -8  381.56   23.10
   1  -4  -8  384.16   24.00
  -3  -1   8  363.66   23.10
  -1   4   8  304.97   23.60
   4   0  -8   97.69    8.10
   0  -4  -8   95.19    7.40
  -4   4  -8   88.49    7.00
  -4   0   8   80.69    6.70
   4  -4   8   82.89    7.90
   0   4   8   82.89    7.70
  -1  -4  -8  123.19    9.20
   5  -1  -8  127.89    9.90
  -4   5  -8  118.89    9.20
   1   4   8  112.49    9.30
  -5   1   8  115.39    8.70
   4  -5   8  121.59    9.90
   6  -2  -8   67.29    6.60
  -2  -4  -8   61.69    6.20
  -4   6  -8   66.09    6.50
   4  -6   8   81.19    7.20
  -6   2   8   65.89    5.80
   2   4   8   69.79    6.60
  -4   7  -8   33.60    5.00
  -3  -4  -8   34.70    4.60
   7  -3  -8   40.50    5.40
   4  -7   8   38.10    5.50
   3   4   8   38.40    5.00
  -7   3   8   41.60    4.70
  -5  -3  -8   94.09    9.70
   7  -5  -8   73.09    7.00
  -2   7  -8   64.49    6.70
  -5  -2  -8   65.69    7.90
   2  -7   8   79.49    7.50
  -7   5   8   72.89    6.30
   5   2   8   67.99    6.50
  -5  -1  -8   95.29    9.10
   6  -5  -8   98.59    7.90
  -1   6  -8   84.39    7.50
   5   1   8   85.59    7.40
  -6   5   8   86.49    7.30
   1  -6   8   93.29    8.10
   0   5  -8   55.09    5.60
   5  -5  -8   68.09    6.50
  -5   0  -8   57.49    7.10
  -5   5   8   64.49    5.70
   0  -5   8   74.89    6.50
   5   0   8   59.29    5.70
   4  -5  -8  131.69   10.30
   1   4  -8  132.59    9.60
   4  -5  -8  128.39   10.30
  -5   1  -8  124.19   10.90
  -1  -4   8  134.89   10.00
  -4   5   8  130.99    9.50
   5  -1   8  128.29    9.80
   2   3  -8  447.96   29.60
   3  -5  -8  457.05   30.90
  -5   2  -8  440.16   30.70
   2   3  -8  452.25   30.20
   5  -2   8  488.45   30.40
  -2  -3   8  471.55   29.80
  -3   5   8  511.75   30.60
   2  -5  -8  478.85   30.10
   3   2  -8  453.15   29.40
  -5   3  -8  435.16   29.80
  -2   5   8  422.96   29.40
   5  -3   8  469.35   29.50
   4   1  -8  128.99   10.00
  -5   4  -8  111.99   10.00
   1  -5  -8  135.09   10.00
  -5   4  -8  125.69    9.20
  -1   5   8  110.29    9.70
  -4  -1   8  125.59    9.10
  -5   5  -8   62.79    5.90
   5   0  -8   61.99    6.30
   0  -5  -8   65.29    6.20
   0   5   8   58.09    6.40
  -5   0   8   54.09    5.20
   5  -5   8   61.89    6.40
  -1  -5  -8   95.29    7.70
  -5   6  -8   88.69    7.90
   6  -1  -8   91.39    8.20
   5  -6   8   88.09    8.00
   1   5   8   84.69    7.90
  -6   1   8   84.79    7.20
  -5   7  -8   60.89    6.90
  -2  -5  -8   69.19    6.70
   7  -2  -8   70.59    7.10
  -7   2   8   67.89    6.30
   5  -7   8   68.79    7.00
   2   5   8   64.99    6.80
   3   5   8   91.09    8.40
  -1   7  -8  179.48   13.70
  -6  -1  -8  191.78   15.20
   7  -6  -8  191.78   13.80
  -7   6   8  181.68   13.50
   1  -7   8  220.28   14.90
   6   1   8  181.08   13.70
   0   6  -8  217.98   15.90
  -6   0  -8  229.38   17.40
   6  -6  -8  231.78   16.10
   6   0   8  225.58   16.20
  -6   6   8  234.48   15.90
   0  -6   8  258.47   16.80
  -6   1  -8   90.19    9.10
   5  -6  -8   95.59    8.20
   1   5  -8   95.09    7.80
   5  -6  -8   84.59    8.50
  -1  -5   8   95.79    8.00
   6  -1   8   99.19    7.70
   2   4  -8   68.29    7.10
   2   4  -8   63.59    5.90
  -6   2  -8   62.69    7.00
   4  -6  -8   70.19    7.10
  -4   6   8   62.29    6.60
  -2  -4   8   75.59    6.60
   3   3  -8  110.79    9.40
   3   3  -8  102.29    8.20
   3  -6  -8  108.49    9.10
  -6   3  -8   97.59    9.30
   6  -3   8  121.89    8.60
  -3   6   8  100.59    9.00
  -6   4  -8   64.29    6.70
   2  -6  -8   68.19    6.90
   4   2  -8   69.49    7.00
  -2   6   8   62.09    6.80
  -4  -2   8   67.29    6.10
   6  -4   8   70.99    6.20
   1  -6  -8   93.39    8.30
  -6   5  -8   94.49    8.30
   5   1  -8   91.49    8.30
  -6   5  -8   88.79    7.70
  -5  -1   8   85.39    7.30
  -1   6   8   94.29    8.40
   6   0  -8  230.48   16.00
  -6   6  -8  215.38   15.80
   0  -6  -8  233.38   16.20
  -6   0   8  208.08   15.00
   6  -6   8  237.78   16.30
   0   6   8  208.28   15.90
  -6   7  -8  163.28   13.40
  -1  -6  -8  190.48   13.40
   7  -1  -8  182.68   13.40
  -7   1   8  162.98   12.30
   6  -7   8  174.28   13.30
   1   6   8  173.18   13.30
  -7   7   8  178.58   13.10
   1   6  -8  194.18   13.80
  -7   1  -8  218.28   15.50
   6  -7  -8  192.68   15.10
   6  -7  -8  177.68   13.60
  -1  -6   8  187.98   14.20
   7  -1   8  185.38   13.90
   2   5  -8   71.09    6.40
   5  -7  -8   70.89    7.70
  -7   2  -8   65.99    7.80
  -2  -5   8   71.19    7.10
   7  -2   8   70.49    6.60
  -5   7   8   62.79    6.80
   3   4  -8   37.60    4.70
  -7   3  -8   42.90    6.00
   4  -7  -8   36.60    5.70
   3   4  -8   35.20    5.50
  -4   7   8   39.50    5.50
  -3  -4   8   40.90    5.00
   7  -3   8   39.20    4.70
   4   3  -8   37.10    5.40
   3  -7  -8   39.80    5.70
  -7   4  -8   40.80    5.60
  -4  -3   8   36.50    4.90
   7  -4   8   42.70    4.80
  -3   7   8   37.60    5.30
   2  -7  -8   65.89    7.50
  -7   5  -8   79.99    7.50
   5   2  -8   78.99    7.70
  -2   7   8   74.59    7.50
   7  -5   8   80.29    6.80
  -5  -2   8   62.19    6.30
   6   1  -8  180.08   13.60
  -7   6  -8  161.98   13.40
   1  -7  -8  180.18   14.10
  -7   6  -8  187.58   13.50
  -1   7   8  188.78   13.80
  -6  -1   8  172.88   12.90
   7  -6   8  198.28   13.90
  -7   7  -8  154.68   12.50
   3   5  -8   96.39    9.70
   5  -8  -8  101.49   10.00
  -3  -5   8  103.39    9.10
   4  -8  -8  134.29   11.50
   4   4  -8  126.59   11.20
   8  -4   8  125.59   10.00
   8  -5   8  105.99    8.90
   0   0   9    1.50    1.90
   0   1  -9    9.00    2.20
   1  -1  -9   13.60    3.90
  -1   1   9    7.30    2.20
   0  -1  -9    9.00    3.40
   1   0  -9    5.20    3.30
  -1   1  -9    8.00    2.10
  -1   0   9    8.90    2.40
  -1   2  -9    5.90    2.20
   2  -1  -9    5.80    3.40
   1  -2   9    2.90    2.30
  -2   1   9    5.40    2.10
   3  -2  -9   31.90    5.10
  -1   3  -9   32.50    4.00
  -2  -1  -9   23.30    3.50
   1  -3   9   26.80    4.30
  -3   2   9   33.70    3.80
   0   2  -9  109.19    8.20
   2  -2  -9  109.29    9.70
   0  -2   9  100.29    8.60
  -2   2   9  118.29    8.20
   1   1  -9    4.20    1.90
  -2   1  -9    7.10    3.10
   1  -2  -9    1.90    2.70
   1   1  -9    4.60    3.30
   2  -1   9    2.90    2.60
   0  -2  -9  112.79    8.20
  -2   2  -9  115.29    8.10
   2   0  -9  119.79    9.90
   2  -2   9   86.89    8.70
  -2   0   9  114.99    8.20
   0   2   9   89.49    8.60
   3  -1  -9   26.40    4.80
  -1  -2  -9   31.20    3.70
  -2   3  -9   30.70    3.80
  -3   1   9   23.30    3.30
   2  -3   9   25.00    4.40
   1   2   9   19.80    3.90
   4  -2  -9    0.90    2.80
  -2   4  -9    0.20    2.10
  -2  -2  -9    2.20    2.10
  -4   2   9    0.50    1.80
   2  -4   9   -0.70    2.30
   5  -3  -9    0.30    2.70
  -2   5  -9    0.90    2.10
  -3  -2  -9    2.80    2.30
  -5   3   9    0.50    2.10
   2  -5   9    2.50    2.70
   4  -3  -9    4.10    3.30
  -1   4  -9    4.30    2.40
  -4   3   9    2.50    2.10
   3   1   9    1.60    2.10
   1  -4   9    4.30    2.60
   0   3  -9   22.10    3.50
   3  -3  -9   29.00    5.00
  -3   0  -9   25.20    4.70
   3   0   9   27.60    3.70
  -3   3   9   30.90    3.70
   0  -3   9   27.90    4.00
  -3   1  -9   22.60    4.60
   1   2  -9   28.50    3.60
   2  -3  -9   29.70    5.00
   2   1  -9   23.30    4.80
  -3   2  -9   25.40    4.50
   1  -3  -9   26.00    3.50
   3  -2   9   15.80    3.80
  -2  -1   9   23.50    3.40
  -1   3   9   27.80    4.60
   0  -3  -9   23.40    3.50
  -3   3  -9   22.10    3.20
   3   0  -9   26.50    4.90
   3  -3   9   16.60    3.80
   0   3   9   16.80    3.90
  -3   0   9   28.20    3.50
  -1  -3  -9    4.70    2.40
   4  -1  -9    7.10    3.30
  -3   4  -9    3.20    2.30
   3  -4   9    2.80    2.50
   1   3   9    2.50    2.50
  -4   1   9    2.60    1.90
  -2  -3  -9    3.00    2.40
   5  -2  -9    0.50    2.90
  -3   5  -9    0.60    2.10
   3  -5   9    1.30    2.60
  -5   2   9    1.60    2.10
  -3   6  -9    8.80    3.00
  -3  -3  -9    8.70    2.80
  -6   3   9   10.30    2.80
   3  -6   9    7.00    3.30
  -6   4   9   13.40    3.00
   2  -6   9   14.60    3.90
   4   2   9   13.20    3.10
  -1   5  -9   24.10    3.80
  -4  -1  -9   14.60    4.20
   5  -4  -9   19.90    4.40
   4   1   9   18.10    3.40
  -5   4   9   20.60    3.30
   1  -5   9   24.70    4.20
   4  -4  -9   52.59    6.40
   0   4  -9   47.80    5.00
  -4   0  -9   41.60    6.50
  -4   4   9   52.69    5.20
   0  -4   9   55.49    5.70
   4   0   9   51.49    5.30
   1   3  -9    3.90    2.30
  -4   1  -9    2.80    3.00
   3  -4  -9    2.30    3.20
   4  -1   9    1.50    2.10
   2   2  -9    3.30    3.00
   2  -4  -9    1.20    2.30
  -4   2  -9   -0.40    2.40
   2   2  -9    2.00    2.10
  -2   4   9    2.40    2.70
   1  -4  -9    4.40    2.50
   3   1  -9    5.90    3.30
  -4   3  -9    4.90    3.00
   4  -3   9    3.60    2.70
  -3  -1   9    0.70    2.10
  -1   4   9    1.60    2.60
   0  -4  -9   45.80    5.20
   4   0  -9   50.99    6.30
  -4   4  -9   46.60    4.90
  -4   0   9   44.10    4.80
   0   4   9   37.20    5.50
   4  -4   9   48.50    5.80
  -4   5  -9   19.50    3.60
  -1  -4  -9   20.20    3.60
   5  -1  -9   19.90    4.50
   1   4   9   18.90    4.00
   4  -5   9   15.20    3.90
  -5   1   9   19.30    3.20
  -2  -4  -9   12.50    3.40
  -4   6  -9   15.20    3.60
   2   4   9   12.00    3.40
  -5   0  -9   18.00    4.50
   5  -5  -9   15.20    3.80
   0   5  -9   20.30    3.60
   5   0   9   16.80    3.40
  -5   5   9   15.20    3.20
   0  -5   9   14.20    3.60
   4  -5  -9   19.90    4.40
   1   4  -9   19.20    3.30
  -5   1  -9   16.20    4.50
   5  -1   9   20.60    3.50
  -1  -4   9   17.30    3.60
   2   3  -9    0.70    2.20
  -5   2  -9   -0.60    2.70
   3  -5  -9   -0.20    2.50
   5  -2   9    2.30    2.20
  -3   5   9    0.10    2.90
  -5   3  -9    1.00    2.70
   3   2  -9    2.20    3.10
   2  -5  -9   -1.10    2.50
  -3  -2   9   -2.70    2.20
  -2   5   9    2.50    3.10
   4   1  -9   21.50    4.70
  -5   4  -9   23.80    4.50
   1  -5  -9   19.50    3.90
   5  -4   9   25.40    4.50
  -4  -1   9   16.40    3.20
  -1   5   9   24.80    4.60
   5   0  -9   20.10    4.50
  -5   5  -9   14.80    3.40
   0  -5  -9   18.30    3.70
   0   5   9   15.20    3.80
   5  -5   9   16.30    3.90
   4  -6  -9   15.90    4.10
  -6   2  -9   12.90    4.10
   6  -2   9   17.30    3.30
   3  -6  -9    9.70    3.60
   3   3  -9    8.10    3.80
  -6   3  -9   10.10    3.80
   6  -3   9    8.70    2.80
   2  -6  -9   14.60    4.00
   4   2  -9   12.70    4.20
   0   1 -10   82.69    7.00
   1  -1 -10   84.19    8.70
  -1   0  10   91.19    7.60
  -1   2 -10  217.68   14.50
   2  -1 -10  192.88   16.00
  -2   1  10  213.98   14.50
   3  -2 -10  162.98   12.80
  -1   3 -10  137.79   10.60
  -3   2  10  141.09   10.70
   2  -2 -10  244.78   18.50
   0   2 -10  254.87   17.00
   1  -2 -10  203.88   16.10
  -1  -1  10  219.68   14.90
   2   0 -10  239.28   18.40
  -2   0  10  257.97   17.00
  -2   3 -10  153.38   10.60
   3  -1 -10  137.29   12.10
  -3   1  10  141.29   10.40
   2  -3  10  120.69   11.10
   2  -3 -10  141.89   12.30
   1   2 -10  142.59   10.70
   3  -2  10   90.09    9.50
  -2  -1  10  131.19    9.20
  -1   3  10  114.89   10.00

_computing_structure_solution     'SHELXT 2014/4 (Sheldrick, 2014)'
;
_shelx_hkl_checksum              9837
loop_
_space_group_symop_operation_xyz
'x, y, z'
'-y, x-y, z'
'-x+y, -x, z'
'-x, -y, z+1/2'
'y, -x+y, z+1/2'
'x-y, x, z+1/2'
'-x, -y, -z'
'y, -x+y, -z'
'x-y, x, -z'
'x, y, -z-1/2'
'-y, x-y, -z-1/2'
'-x+y, -x, -z-1/2'
loop_
_atom_site_label
_atom_site_type_symbol
_atom_site_fract_x
_atom_site_fract_y
_atom_site_fract_z
_atom_site_U_iso_or_equiv
_atom_site_adp_type
_atom_site_occupancy
_atom_site_site_symmetry_order
_atom_site_calc_flag
_atom_site_refinement_flags_posn
_atom_site_refinement_flags_adp
_atom_site_refinement_flags_occupancy
_atom_site_disorder_assembly
_atom_site_disorder_group
Pb01 Pb 0.0000 0.0000 0.5000 0.0405(2) Uani 1 6 d S T P . .
N1 N 0.3333 0.6667 0.7500 0.042(3) Uani 1 6 d DS T P . .
I002 I 0.29949(9) 0.17206(11) 0.7500 0.0545(3) Uani 1 2 d S T P . .
C1 C 0.467(3) 0.647(4) 0.715(6) 0.058(19) Uani 0.25 1 d D U P A -1
H1A H 0.4398 0.5704 0.6272 0.087 Uiso 0.25 1 calc R U P A -1
H1B H 0.4957 0.6126 0.8143 0.087 Uiso 0.25 1 calc R U P A -1
H1C H 0.5539 0.7462 0.6785 0.087 Uiso 0.25 1 calc R U P A -1
C2 C 0.245(6) 0.582(6) 0.601(4) 0.081(14) Uani 0.25 1 d D U P A -1
H2A H 0.3156 0.6073 0.5077 0.122 Uiso 0.25 1 calc R U P A -1
H2B H 0.1678 0.6122 0.5752 0.122 Uiso 0.25 1 calc R U P A -1
H2C H 0.1926 0.4706 0.6219 0.122 Uiso 0.25 1 calc R U P A -1
loop_
_atom_site_aniso_label
_atom_site_aniso_U_11
_atom_site_aniso_U_22
_atom_site_aniso_U_33
_atom_site_aniso_U_23
_atom_site_aniso_U_13
_atom_site_aniso_U_12
Pb01 0.0451(3) 0.0451(3) 0.0312(3) 0.000 0.000 0.02257(14)
N1 0.036(4) 0.036(4) 0.055(8) 0.000 0.000 0.018(2)
I002 0.0397(4) 0.0570(5) 0.0572(4) 0.000 0.000 0.0168(3)
C1 0.029(11) 0.055(16) 0.10(6) 0.03(2) 0.04(2) 0.026(11)
C2 0.09(3) 0.13(5) 0.035(14) -0.02(2) -0.024(17) 0.06(3)
loop_
_atom_type_symbol
_atom_type_description
_atom_type_scat_dispersion_real
_atom_type_scat_dispersion_imag
_atom_type_scat_source
C C 0.0033 0.0016 'International Tables Vol C Tables 4.2.6.8 and 6.1.1.4'
H H 0.0000 0.0000 'International Tables Vol C Tables 4.2.6.8 and 6.1.1.4'
N N 0.0061 0.0033 'International Tables Vol C Tables 4.2.6.8 and 6.1.1.4'
I I -0.4742 1.8119 'International Tables Vol C Tables 4.2.6.8 and 6.1.1.4'
Pb Pb -3.3944 10.1111 'International Tables Vol C Tables 4.2.6.8 and 6.1.1.4'
loop_
_geom_angle_atom_site_label_1
_geom_angle_atom_site_label_2
_geom_angle_atom_site_label_3
_geom_angle
_geom_angle_site_symmetry_1
_geom_angle_site_symmetry_3
I002 Pb01 I002 180.00(2) 9_556 3
I002 Pb01 I002 86.17(2) 9_556 7_556
I002 Pb01 I002 93.83(2) 3 7_556
I002 Pb01 I002 93.83(2) 9_556 .
I002 Pb01 I002 86.17(2) 3 .
I002 Pb01 I002 180.0 7_556 .
I002 Pb01 I002 86.16(2) 9_556 8_556
I002 Pb01 I002 93.84(2) 3 8_556
I002 Pb01 I002 86.16(2) 7_556 8_556
I002 Pb01 I002 93.83(2) . 8_556
I002 Pb01 I002 93.84(2) 9_556 2
I002 Pb01 I002 86.16(2) 3 2
I002 Pb01 I002 93.84(2) 7_556 2
I002 Pb01 I002 86.17(2) . 2
I002 Pb01 I002 180.0 8_556 2
C1 N1 C2 95(3) . .
Pb01 I002 Pb01 75.87(3) . 4
N1 C1 H1A 109.5 . .
N1 C1 H1B 109.5 . .
H1A C1 H1B 109.5 . .
N1 C1 H1C 109.5 . .
H1A C1 H1C 109.5 . .
H1B C1 H1C 109.5 . .
N1 C2 H2A 109.5 . .
N1 C2 H2B 109.5 . .
H2A C2 H2B 109.5 . .
N1 C2 H2C 109.5 . .
H2A C2 H2C 109.5 . .
H2B C2 H2C 109.5 . .
loop_
_geom_bond_atom_site_label_1
_geom_bond_atom_site_label_2
_geom_bond_distance
_geom_bond_site_symmetry_2
Pb01 I002 3.2340(10) 9_556
Pb01 I002 3.2340(10) 3
Pb01 I002 3.2340(10) 7_556
Pb01 I002 3.2341(10) .
Pb01 I002 3.2341(10) 8_556
Pb01 I002 3.2341(10) 2
N1 C1 1.44(2) .
N1 C2 1.46(2) .
I002 Pb01 3.2341(10) 4
C1 H1A 0.9600 .
C1 H1B 0.9600 .
C1 H1C 0.9600 .
C2 H2A 0.9600 .
C2 H2B 0.9600 .
C2 H2C 0.9600 .
