#------------------------------------------------------------------------------
#$Date: 2019-11-23 10:33:18 +0200 (Sat, 23 Nov 2019) $
#$Revision: 232887 $
#$URL: file:///home/coder/svn-repositories/cod/cif/4/34/83/4348364.cif $
#------------------------------------------------------------------------------
#
# This file is available in the Crystallography Open Database (COD),
# http://www.crystallography.net/
#
# All data on this site have been placed in the public domain by the
# contributors.
#
data_4348364
loop_
_publ_author_name
'Qi, Xiao-Lin'
'Ye, Jia-Wen'
'Lin, Rui-Biao'
'Liao, Pei-Qin'
'Liu, Si-Yang'
'He, Chun-Ting'
'Zhang, Jie-Peng'
'Chen, Xiao-Ming'
_publ_section_title
;
 Syntheses, structures and gas sorption properties of two coordination
 polymers with a unique type of supramolecular isomerism
;
_journal_issue                   2
_journal_name_full               'Inorganic Chemistry Frontiers'
_journal_page_first              136
_journal_paper_doi               10.1039/C4QI00190G
_journal_volume                  2
_journal_year                    2015
_chemical_formula_moiety         'C12 H13 N5 O5 Zn2'
_chemical_formula_sum            'C12 H13 N5 O5 Zn2'
_chemical_formula_weight         438.01
_space_group_crystal_system      orthorhombic
_space_group_IT_number           51
_space_group_name_Hall           '-P 2a 2a'
_space_group_name_H-M_alt        'P m m a'
_atom_sites_solution_hydrogens   mixed
_audit_creation_method           SHELXL-2013
_audit_update_record
;
2014-10-29 deposited with the CCDC.
2014-12-05 downloaded from the CCDC.
;
_cell_angle_alpha                90
_cell_angle_beta                 90
_cell_angle_gamma                90
_cell_formula_units_Z            2
_cell_length_a                   14.214(3)
_cell_length_b                   7.4339(16)
_cell_length_c                   7.5208(16)
_cell_measurement_temperature    93(2)
_cell_volume                     794.7(3)
_computing_structure_refinement  'SHELXL-2013 (Sheldrick, 2013)'
_diffrn_ambient_temperature      93(2)
_diffrn_measured_fraction_theta_full 0.991
_diffrn_measured_fraction_theta_max 0.991
_diffrn_measurement_device_type  '/w scan'
_diffrn_radiation_type           MoK\a
_diffrn_radiation_wavelength     0.71073
_diffrn_reflns_av_R_equivalents  0.0337
_diffrn_reflns_av_unetI/netI     0.0397
_diffrn_reflns_Laue_measured_fraction_full 0.991
_diffrn_reflns_Laue_measured_fraction_max 0.991
_diffrn_reflns_limit_h_max       8
_diffrn_reflns_limit_h_min       -17
_diffrn_reflns_limit_k_max       6
_diffrn_reflns_limit_k_min       -9
_diffrn_reflns_limit_l_max       9
_diffrn_reflns_limit_l_min       -9
_diffrn_reflns_number            2801
_diffrn_reflns_point_group_measured_fraction_full 0.991
_diffrn_reflns_point_group_measured_fraction_max 0.991
_diffrn_reflns_theta_full        25.242
_diffrn_reflns_theta_max         25.990
_diffrn_reflns_theta_min         2.708
_diffrn_source                   CCD
_exptl_absorpt_coefficient_mu    3.052
_exptl_absorpt_correction_T_max  0.737
_exptl_absorpt_correction_T_min  0.700
_exptl_absorpt_correction_type   multi-scan
_exptl_absorpt_process_details   SADABS
_exptl_crystal_density_diffrn    1.831
_exptl_crystal_F_000             440
_exptl_crystal_size_max          0.300
_exptl_crystal_size_mid          0.100
_exptl_crystal_size_min          0.100
_refine_diff_density_max         0.472
_refine_diff_density_min         -0.505
_refine_diff_density_rms         0.122
_refine_ls_extinction_method     none
_refine_ls_goodness_of_fit_ref   1.086
_refine_ls_hydrogen_treatment    constr
_refine_ls_matrix_type           full
_refine_ls_number_parameters     131
_refine_ls_number_reflns         870
_refine_ls_number_restraints     64
_refine_ls_restrained_S_all      1.077
_refine_ls_R_factor_all          0.0441
_refine_ls_R_factor_gt           0.0364
_refine_ls_shift/su_max          0.000
_refine_ls_shift/su_mean         0.000
_refine_ls_structure_factor_coef Fsqd
_refine_ls_weighting_details
;
 w=1/[\s^2^(Fo^2^)+(0.0459P)^2^+1.4542P]
 where P=(Fo^2^+2Fc^2^)/3
;
_refine_ls_weighting_scheme      calc
_refine_ls_wR_factor_gt          0.0906
_refine_ls_wR_factor_ref         0.0941
_reflns_Friedel_coverage         0.000
_reflns_number_gt                755
_reflns_number_total             870
_reflns_threshold_expression     'I > 2\s(I)'
_cod_data_source_file            c4qi00190g2.cif
_cod_data_source_block           2
_cod_database_code               4348364
_shelx_space_group_comment
;
The symmetry employed for this shelxl refinement is uniquely defined
by the following loop, which should always be used as a source of
symmetry information in preference to the above space-group names.
They are only intended as comments.
;
_shelx_estimated_absorpt_t_min   0.461
_shelx_estimated_absorpt_t_max   0.750
_shelxl_version_number           2013-2
_shelx_res_file
;
TITL Znm in Pmma
CELL 0.71073  14.2139   7.4339   7.5208  90.000  90.000  90.000
ZERR   2.00   0.0030   0.0016   0.0016   0.000   0.000   0.000
LATT  1
SYMM 0.5-X, -Y, Z
SYMM -X, Y, -Z
SYMM 0.5+X, -Y, -Z
EQIV $1 -X,+Y,1-Z
SFAC C H N O ZN
UNIT 24 26 10 10 4
ACTA
L.S. 150
PLAN 3
SIZE 0.3 0.1 0.1
TEMP -180
BOND $H
fmap 2
acta
omit -3 52.01
REM simu 0.005 N1 > O1
REM  delu 0.005 N1 > O1
SADI C1 N1 C1' N1'
REM SADI C2 C3 C2' C3'
ISOR 0.01 0.1  N1' > O1
REM ISOR C8 C10
SADI N3 C8 N3 C9 C7 C10

WGHT    0.045900    1.454200
FVAR       0.57547   0.34016
ZN1   5    0.380471    0.000000    0.092997    10.50000    0.01277    0.02755 =
         0.01505    0.00000    0.00057    0.00000
PART   1
N1'   3    0.298942    0.000000    0.302184    20.50000    0.02675    0.03973 =
         0.02262    0.00000   -0.00642    0.00000
C1'   1    0.330566    0.000000    0.468011    20.50000    0.03308    0.05329 =
         0.02208    0.00000   -0.00872    0.00000
AFIX  43
H1'   2    0.394695    0.000000    0.503597    20.50000   -1.20000
AFIX   0
C2'   1    0.250000    0.000000    0.584653    20.25000    0.03180    0.04392 =
         0.03405    0.00000    0.00000    0.00000
C3'   1    0.250000    0.000000    0.784383    20.25000    0.03514    0.04279 =
         0.02961    0.00000    0.00000    0.00000
O1'   4    0.324311    0.000000    0.858016    20.50000    0.04165    0.07744 =
         0.03744    0.00000   -0.00842    0.00000
PART   2
N1    3    0.298216    0.000000    0.880766   -20.50000    0.01997    0.05167 =
         0.01652    0.00000   -0.00598    0.00000
C1    1    0.327383    0.000000    0.711019   -20.50000    0.01576    0.03911 =
         0.01760    0.00000   -0.00264    0.00000
AFIX  43
H1    2    0.391254    0.000000    0.673812   -20.50000   -1.20000
AFIX   0
C2    1    0.250000    0.000000    0.597792   -20.25000    0.01224    0.03824 =
         0.00939    0.00000    0.00000    0.00000
C3    1    0.250000    0.000000    0.404389   -20.25000    0.01969    0.03774 =
         0.00704    0.00000    0.00000    0.00000
O1    4    0.328520    0.000000    0.330091   -20.50000    0.01708    0.06610 =
         0.01687    0.00000   -0.00086    0.00000
PART   0
N2    3    0.460407    0.785859    0.056278    10.50000    0.02272
C4    1    0.438226    0.612321    0.089147    10.50000    0.01785    0.03256 =
         0.01895    0.00205   -0.00141   -0.00162
AFIX   3
H4    2    0.385536    0.572890    0.159357    10.50000   -1.20000
AFIX   0
C5    1    0.500000    0.500000    0.000000    10.25000    0.01192    0.02330 =
         0.03279    0.00000   -0.00174    0.00000
C6    1    0.500000    0.300747    0.000000    10.25000    0.02524    0.02337 =
         0.02352    0.00000   -0.01709    0.00000
O2    4    0.451504    0.224079    0.116061    10.50000    0.02252    0.03166 =
         0.03184    0.00155    0.00066   -0.00906
O3    4    0.750000    0.500000    0.680294    10.25000    0.03344    0.13892 =
         0.03900    0.00000    0.00000    0.00000
C7    1    0.780406    0.500000    0.521502    10.25000    0.02687    0.08432 =
         0.03395    0.00000    0.00519    0.00000
N3    3    0.716824    0.500000    0.392048    10.25000    0.02937    0.06863 =
         0.04755    0.00000   -0.00308    0.00000
C8    1    0.618677    0.436293    0.440518    10.25000    0.05567    0.07202 =
         0.10491   -0.04393   -0.03881    0.02380
AFIX   3
H8A   2    0.608097    0.424563    0.566059    10.25000   -1.50000
H8B   2    0.580866    0.532712    0.394678    10.25000   -1.50000
H8C   2    0.601836    0.326073    0.382118    10.25000   -1.50000
AFIX   0
C9    1    0.750000    0.523447    0.204617    10.25000    0.03896    0.03645 =
         0.04538    0.00138    0.00000    0.00000
AFIX   3
H9A   2    0.817520    0.500000    0.201727    10.25000   -1.50000
H9B   2    0.726770    0.378007    0.145437    10.25000   -1.50000
H9C   2    0.726770    0.588887    0.145437    10.25000   -1.50000
AFIX   0
C10   1    0.881695    0.529303    0.466171    10.25000    0.01307    0.04231 =
         0.04908    0.02175   -0.00549    0.00115
AFIX   3
H10A  2    0.918945    0.523863    0.572502    10.25000   -1.50000
H10B  2    0.905295    0.444053    0.381291    10.25000   -1.50000
H10C  2    0.885075    0.648223    0.416811    10.25000   -1.50000

AFIX   0
HKLF 4

REM  Znm in Pmma
REM R1 =  0.0364 for     755 Fo > 4sig(Fo)  and  0.0441 for all     870 data
REM    131 parameters refined using     64 restraints

END

WGHT      0.0447      0.4532

REM Highest difference peak  0.472,  deepest hole -0.505,  1-sigma level  0.122
Q1    1   0.3796 -0.1288  0.0804  11.00000  0.05    0.47
Q2    1   0.3521  0.0000  0.2343  10.50000  0.05    0.35
Q3    1   0.6021  0.3118  0.5560  11.00000  0.05    0.31
;
_shelx_res_checksum              60476
_shelx_hkl_file
;
   0  -1   0 2761.90  104.66
   0  -2   0 9987.58  374.46
   0  -3   0 3743.31  142.96
   0  -4   0 8270.69  312.57
   0  -5   0 3368.52  131.59
   0  -6   0 1624.28   68.21
   0  -7   0  457.31   26.01
   0  -8   0  672.50   35.94
   0  -9   0  285.79   22.51
   0   0   1 2599.97   95.98
   0   1   1 3365.26  122.04
   0  -1  -1 3343.37  118.29
   0  -1   1 3262.54  121.91
   0  -2  -1   24.03    3.97
   0  -2   1   44.33    4.64
   0  -2   1   38.31    3.34
   0   2   1   33.49    3.27
   0  -2  -1   34.51    3.55
   0  -3   1 1497.64   58.69
   0  -3  -1 1460.51   58.89
   0  -4   1 1175.34   45.89
   0  -4  -1 1014.65   45.65
   0  -5   1 1390.91   56.89
   0  -5  -1 1329.45   57.10
   0  -6  -1  307.29   19.79
   0  -6   1  348.35   20.50
   0  -7  -1  145.86   14.19
   0  -7   1  150.00   14.52
   0  -8  -1  211.67   17.99
   0  -9  -1  122.43   16.77
   0  -9   1  121.75   16.80
   0   0  -2 1988.04   70.85
   0   0   2 1904.65   73.42
   0   1   2    9.98    3.47
   0  -1   2   16.73    3.46
   0  -1  -2    6.53    2.16
   0  -2   2   70.72    5.33
   0   2   2   60.60    5.59
   0  -2   2   63.65    5.75
   0  -2  -2   56.91    4.56
   0  -3   2   54.10    5.11
   0  -3  -2   42.72    5.89
   0  -3  -2   42.16    4.45
   0   3   2   52.99    5.04
   0  -3   2   62.95    6.59
   0  -4   2  307.53   15.28
   0  -4  -2  230.16   12.50
   0   4   2  256.83   12.67
   0  -4  -2  244.18   14.78
   0  -5  -2   83.58    8.15
   0  -5   2  163.34   11.72
   0  -5  -2  108.18   11.14
   0  -6  -2   66.78   10.12
   0  -6   2   88.36   11.20
   0  -7   2   33.03    9.68
   0  -7  -2   22.97    8.57
   0  -8   2   35.27   11.30
   0  -8  -2   28.57   10.07
   0  -9   2   41.18   12.34
   0  -9  -2   27.06   10.61
   0   0  -3   22.60    4.04
   0   0   3   16.69    4.33
   0  -1   3   20.11    4.53
   0  -1  -3   25.63    3.98
   0   1   3   21.17    4.99
   0  -2  -3   25.98    3.77
   0  -2   3   17.11    4.41
   0   2   3   27.88    5.21
   0  -2   3   17.47    4.28
   0  -3   3    9.54    4.01
   0  -3  -3   16.83    3.50
   0  -3   3   14.67    3.84
   0   3   3   19.56    4.83
   0  -4   3    5.59    4.41
   0  -4  -3    4.53    3.26
   0   4   3    4.24    4.16
   0  -4   3    1.30    3.37
   0  -5   3   47.50    8.26
   0  -6  -3    2.24    5.80
   0  -6   3    0.46    6.20
   0  -7  -3   10.74    7.46
   0  -7   3   -2.47    7.41
   0  -8   3    2.82    9.32
   0  -8  -3   10.67    7.97
   0   0  -4 2269.15   85.41
   0   0   4 2336.55   88.78
   0  -1   4 1791.27   71.22
   0   1   4 1824.23   71.38
   0  -1  -4 1851.92   68.37
   0   2   4  898.65   37.34
   0  -2   4  854.04   36.71
   0  -2  -4  868.60   34.70
   0  -3   4  985.51   41.25
   0   3   4  975.89   41.14
   0  -3  -4  959.54   38.10
   0  -3   4  960.71   40.03
   0  -4   4  650.59   28.65
   0  -4  -4  691.21   27.54
   0  -4   4  616.42   29.97
   0   4   4  659.90   30.05
   0  -5   4  852.58   38.85
   0  -6   4  159.00   14.09
   0  -7   4  104.71   13.67
   0  -8   4  126.00   15.98
   0   0  -5 3107.96  116.54
   0   0   5 3197.38  120.87
   0  -1   5 2423.61   94.17
   0  -1  -5 2369.15   90.33
   0   1   5 2462.37   94.25
   0  -2  -5 1401.01   55.82
   0   2   5 1472.71   58.90
   0  -2   5 1440.62   58.71
   0  -3  -5 1410.89   55.60
   0   3   5 1497.18   59.15
   0  -3   5 1415.36   59.52
   0  -3   5 1405.69   58.16
   0  -4   5  967.01   40.94
   0  -4   5  942.24   42.19
   0   4   5  956.91   41.94
   0  -5   5 1269.01   55.02
   0  -6   5  305.99   20.14
   0  -7   5  251.49   18.92
   0  -8   5  219.24   19.08
   0   0   6 1052.32   45.92
   0  -1   6 1115.09   47.34
   0   1   6 1062.13   46.88
   0  -1  -6 1079.39   44.79
   0  -2   6  544.42   27.93
   0   2   6  568.14   28.15
   0  -2  -6  566.64   26.14
   0  -3   6  685.04   33.07
   0   3   6  726.45   33.77
   0  -4   6  387.88   21.58
   0  -4   6  382.48   21.99
   0   4   6  386.10   22.30
   0  -5   6  652.89   32.68
   0  -6   6  203.22   17.18
   0  -7   6  142.03   16.70
   0   0   7  187.26   15.04
   0   1   7  120.80   12.95
   0  -1   7  125.82   13.78
   0   2   7  119.78   13.12
   0  -2   7  122.29   13.57
   0  -2  -7  135.30   11.75
   0  -3   7   77.12   11.73
   0  -3   7   96.59   11.95
   0   3   7   88.63   11.82
   0   4   7   56.08   10.19
   0  -4   7   68.70   10.97
   0  -4   7   48.52   10.19
   0  -5   7  145.62   15.53
   0  -6   7   42.92   12.16
   0   0   8   -0.45    7.83
   0  -1   8    3.18    8.01
   0   1   8    8.50    7.44
   0   2   8    0.34    7.09
   0  -2   8    3.83    8.16
   0   3   8    2.17    7.68
   0  -3   8   16.18    9.96
   0  -3   8    5.77    8.34
   0  -4   8   -3.28    8.59
   0  -4   8    0.29    8.75
   0   4   8    5.13    7.89
   0  -5   8   15.03   10.01
   0   0   9  166.21   17.30
   0   1   9   87.19   12.91
   0  -1   9   71.01   13.24
   0  -2   9  115.45   15.21
   0   2   9  104.59   14.29
   0  -3   9   80.96   14.02
  -1   0   0   -0.33    0.26
  -1  -1   0   -4.58    1.49
   1  -1   0   -4.48    1.49
  -1  -2   0    0.77    2.57
   1  -2   0    6.90    2.90
  -1  -3   0   -1.58    3.08
   1  -3   0   -1.36    3.10
   1  -4   0    2.74    4.20
  -1  -4   0    4.51    4.05
  -1  -5   0    1.71    4.41
   1  -5   0   -2.26    4.88
  -1  -6   0    3.20    6.03
   1  -6   0    4.02    6.12
  -1  -7   0    2.66    6.81
   1  -7   0    4.21    7.62
   1  -8   0    3.93   10.16
  -1  -8   0   -1.39    7.69
  -1  -9   0   -1.96    9.94
   1  -9   0    3.96   10.32
  -1   0  -1  356.95   13.86
   1   0   1  350.32   14.21
  -1   0   1  357.77   14.21
   1  -1   1  461.58   18.57
  -1  -1   1  454.76   18.64
   1  -1   1  465.25   18.89
   1   1   1  462.61   18.57
  -1  -1  -1  495.36   19.01
  -1  -1  -1  475.84   18.11
   1  -1  -1  472.68   17.27
  -1  -2  -1   75.98    5.67
   1   2   1   87.82    5.52
  -1  -2   1   90.70    6.32
   1  -2   1   90.93    6.28
  -1  -2   1   92.21    4.80
   1  -2  -1   73.20    6.18
  -1  -2  -1   85.41    6.50
   1  -3   1  259.98   13.84
   1  -3  -1  292.62   14.36
  -1  -3   1  261.70   13.96
  -1  -3  -1  278.63   14.23
   1  -4  -1  154.17   11.53
  -1  -4  -1  173.22   11.53
  -1  -4   1  164.45   11.18
   1  -4   1  169.65   11.12
  -1  -5   1  175.36   13.28
   1  -5  -1  227.13   14.68
  -1  -5  -1  205.46   13.75
   1  -5   1  206.08   13.88
  -1  -6   1   53.91    9.86
   1  -6   1   49.97    9.31
  -1  -6  -1   67.73   10.20
   1  -6  -1   53.66    9.79
   1  -7   1   57.95   10.74
   1  -7  -1   68.72   11.41
  -1  -7   1   41.93   10.34
  -1  -7  -1   66.17   10.94
   1  -8   1   35.54   11.04
   1  -8  -1   51.35   11.75
  -1  -8  -1   35.37   10.85
  -1  -8   1   29.92   10.49
   1  -9  -1   28.43   11.82
   1  -9   1   35.59   11.99
  -1  -9  -1   30.49   11.72
  -1  -9   1   26.65   11.41
   1   0   2  824.36   32.51
  -1   0  -2  822.96   31.42
  -1   0   2  825.61   32.57
  -1  -1   2  290.17   13.82
  -1   1  -2  311.77   13.56
  -1  -1  -2  311.19   12.86
  -1   1   2  312.23   13.61
   1  -1   2  310.67   13.62
   1  -1  -2  302.54   12.45
   1   1   2  269.09   13.85
  -1  -2   2  179.73    9.43
   1  -2   2  179.34    9.46
  -1   2   2  191.27    9.56
   1  -2  -2  185.80    8.26
   1  -2   2  184.54    9.73
  -1  -2   2  174.18   10.08
  -1  -2  -2  186.75    9.27
   1   2   2  184.42   10.18
   1   3   2  307.87   14.52
  -1  -3  -2  281.10   13.72
  -1  -3   2  304.48   15.23
  -1  -3  -2  295.22   15.25
  -1  -3   2  315.43   13.44
   1  -3   2  305.35   15.17
  -1   3   2  295.80   13.91
   1  -3  -2  298.74   12.93
   1  -4   2  344.17   17.39
  -1  -4  -2  339.32   17.76
   1  -4  -2  340.87   17.99
   1   4   2  341.55   15.91
  -1   4   2  329.06   15.40
  -1  -4   2  332.81   17.41
   1  -4  -2  323.79   14.66
  -1  -4  -2  312.13   15.49
   1  -5  -2  314.93   15.80
   1  -5  -2  363.02   19.64
  -1  -5  -2  295.29   16.49
  -1  -5  -2  341.06   19.16
  -1   5   2  344.19   16.15
   1  -5   2  344.04   18.84
  -1  -5   2  381.23   19.54
  -1  -6   2  145.35   13.00
   1  -6  -2  159.41   13.29
  -1  -6  -2  144.45   12.90
   1  -6   2  145.45   12.91
  -1  -6  -2  133.85   10.81
  -1  -7  -2   86.38   12.54
   1  -7   2   82.35   12.44
   1  -7  -2  123.01   13.65
  -1  -7   2   86.67   12.82
  -1  -8   2   81.69   14.08
   1  -8  -2  122.74   15.14
  -1  -8  -2   98.59   14.22
   1  -8   2   78.84   13.51
  -1  -9  -2   61.88   13.26
   1  -9   2   53.38   13.11
  -1  -9   2   58.20   13.07
   1  -9  -2   82.29   14.23
   1   0   3 1223.94   48.78
  -1   0  -3 1238.69   46.93
  -1   0   3 1245.10   48.93
   1  -1  -3 1252.82   45.72
   1  -1   3 1203.15   47.77
  -1   1   3 1189.39   47.86
  -1  -1   3 1222.55   48.03
  -1   1  -3 1199.63   46.56
   1   1   3 1201.30   48.18
  -1  -1  -3 1237.95   45.89
   1  -2   3  453.61   21.14
   1   2   3  509.11   21.98
  -1  -2  -3  478.61   19.95
  -1   2   3  483.63   21.14
  -1  -2   3  467.47   21.16
   1  -2  -3  483.91   19.43
   1  -2   3  462.43   20.89
  -1  -3  -3  784.01   30.76
   1  -3   3  783.13   32.80
   1   3   3  786.43   32.56
  -1  -3   3  779.57   31.46
  -1   3   3  745.76   31.68
   1  -3   3  796.74   31.71
   1  -3  -3  742.08   29.61
  -1  -3   3  722.65   32.86
   1  -4   3  479.19   23.21
  -1   4   3  467.88   21.84
  -1  -4   3  472.53   23.38
  -1  -4  -3  510.79   21.65
  -1  -4   3  470.98   21.13
   1   4   3  503.31   22.74
   1  -4  -3  488.63   20.43
  -1  -5  -3  534.59   23.85
  -1  -5  -3  519.75   26.42
   1  -5   3  546.10   26.35
  -1  -5   3  527.24   26.35
  -1   5   3  520.72   23.90
   1  -6   3  194.59   15.10
  -1  -6   3  196.92   15.10
  -1  -6  -3  220.25   15.53
   1  -7   3  109.43   13.66
  -1  -7   3  129.00   14.52
  -1  -7  -3  128.52   14.29
   1  -8   3  111.40   14.88
  -1  -8   3   85.32   13.69
  -1  -8  -3  107.77   14.02
   1   0   4 1718.86   67.30
  -1   0  -4 1690.60   64.56
  -1   0   4 1715.33   67.11
  -1   1  -4  357.61   17.64
   1  -1  -4  364.78   16.72
  -1  -1  -4  342.40   16.85
   1   1   4  383.56   18.86
  -1   1   4  331.55   18.27
  -1  -1   4  367.88   18.30
   1  -1   4  361.37   18.31
   1  -2   4  929.60   36.88
  -1  -2  -4  816.03   34.66
   1  -2  -4  860.48   34.51
  -1  -2   4  902.94   36.89
  -1   2   4  837.35   36.82
   1   2   4  889.12   37.37
  -1  -3  -4  243.79   13.78
  -1  -3   4  300.59   15.38
  -1  -3   4  282.45   15.85
   1  -3   4  297.80   15.31
   1  -3   4  308.58   15.50
   1   3   4  270.39   16.16
  -1   3   4  256.56   15.50
   1  -3  -4  263.45   13.41
  -1  -4  -4  396.57   20.18
   1  -4   4  462.46   21.31
  -1   4   4  439.67   21.95
  -1  -4   4  424.91   22.41
   1  -4   4  475.03   22.67
   1   4   4  444.31   22.45
  -1  -4   4  453.01   21.00
   1  -5   4  213.12   14.85
  -1   5   4  206.49   14.21
  -1  -5   4  208.41   15.00
  -1  -6   4  161.04   14.15
   1  -6   4  165.65   14.15
   1  -7   4   61.59   11.75
  -1  -7   4   66.83   11.90
   1  -8   4   64.12   12.68
  -1  -8   4   57.65   12.23
  -1   0   5   42.58    7.08
  -1   0  -5   43.00    6.70
   1   0   5   33.14    7.09
  -1   1   5   58.85    8.00
   1  -1  -5   63.69    7.50
   1   1   5   55.07    8.28
  -1  -1   5   67.63    8.37
   1  -1   5   56.22    8.48
  -1  -1  -5   59.19    7.41
   1  -2   5   23.78    6.59
  -1  -2   5   22.12    6.14
   1   2   5   22.00    6.68
  -1  -2  -5    9.07    4.90
   1  -2  -5   15.23    4.93
  -1   2   5   13.26    5.57
   1  -3   5   26.97    6.94
  -1   3   5   21.53    6.96
  -1  -3   5   30.59    7.09
   1  -3  -5   32.88    6.06
  -1  -3   5   36.32    7.89
   1  -3   5   32.70    7.24
  -1  -3  -5   28.74    5.81
   1   3   5   23.61    6.92
   1   4   5   13.39    6.69
   1  -4   5   12.87    5.72
  -1  -4  -5    7.44    4.88
  -1  -4   5    9.49    5.58
  -1   4   5   13.35    6.54
  -1  -4   5   19.79    6.97
   1  -4   5   19.53    6.93
  -1   5   5    6.02    6.50
  -1  -5   5   25.93    8.08
   1  -5   5   14.83    7.12
   1  -5   5   13.72    5.94
   1  -6   5   14.79    8.10
  -1  -6   5   11.82    7.84
  -1  -7   5    0.82    8.56
   1  -7   5    6.25    8.88
   1  -8   5    5.38    9.01
   1   0   6   98.97   11.38
  -1   0  -6  109.48   10.11
  -1   0   6  100.23   11.05
  -1  -1   6   -0.48    5.84
   1  -1   6    2.49    6.67
   1   1   6   11.19    6.62
  -1   1   6    5.50    5.85
  -1  -1  -6    4.17    4.98
  -1   2   6   56.24    8.98
  -1  -2  -6   66.54    8.55
   1  -2   6   53.56    9.73
   1  -2  -6   77.45    8.47
   1   2   6   70.10   10.09
  -1  -2   6   68.96    9.96
  -1  -3   6    0.46    6.41
  -1   3   6    3.71    6.07
  -1  -3  -6    1.77    5.16
   1   3   6    9.99    6.82
  -1  -3   6    4.03    7.05
   1  -3   6   10.91    6.92
   1  -3   6    8.73    7.02
   1   4   6   54.79    9.99
   1  -4   6   38.67    8.82
  -1   4   6   31.88    8.55
   1  -4   6   45.38    8.73
  -1  -4   6   45.65    8.82
  -1  -4   6   37.50    9.59
   1  -5   6    3.92    7.41
   1  -5   6   -0.98    6.01
  -1   5   6    7.60    7.31
  -1  -5   6   10.27    7.94
  -1  -6   6   16.92    9.06
   1  -6   6   12.99    8.14
   1  -7   6    3.05    9.84
  -1  -7   6   -0.90    8.61
  -1   0   7   71.87   10.63
   1   0   7   92.95   11.78
   1  -1   7  140.70   14.21
  -1  -1   7  125.11   13.11
  -1   1   7  128.45   13.20
  -1  -1  -7  116.58   12.00
   1   1   7  138.11   14.04
  -1  -2   7   46.38   10.20
  -1   2   7   49.33    9.73
   1   2   7   63.64   10.25
   1  -2   7   59.33   10.49
  -1  -2  -7   50.22    8.59
  -1  -3   7   72.64   11.74
  -1   3   7  127.34   13.20
   1  -3   7  111.05   13.06
   1   3   7  106.67   12.95
   1  -3   7   95.06   12.71
  -1  -3   7   91.17   13.17
   1  -4   7   54.80   10.68
   1  -4   7   42.78    9.69
  -1  -4   7   29.14    8.79
  -1   4   7   24.00    9.07
   1   4   7   33.46    9.47
  -1  -4   7   43.43   10.51
   1  -5   7   86.92   13.22
  -1  -5   7   86.91   13.31
  -1  -6   7   30.77   10.63
   1  -6   7   47.79   11.79
   1   0   8  486.25   27.50
  -1   0   8  471.18   26.89
   1  -1   8  319.47   21.55
  -1  -1   8  350.76   21.90
   1   1   8  308.59   21.31
  -1   1   8  285.99   20.40
   1   2   8  308.74   21.91
   1  -2   8  330.96   21.95
  -1   2   8  349.73   22.05
  -1  -2   8  349.58   22.11
  -1  -2  -8  338.67   20.64
   1  -3   8  244.82   18.95
  -1  -3   8  215.18   17.93
  -1   3   8  253.47   18.43
   1   3   8  242.47   19.05
  -1   4   8  174.43   16.30
  -1  -4   8  175.87   16.09
   1   4   8  185.71   17.17
  -1  -4   8  177.93   16.99
   1  -4   8  189.53   16.95
  -1  -5   8  132.82   16.64
  -1   0   9  151.05   16.81
   1   0   9  143.78   15.78
   1  -1   9  112.39   15.16
   1   1   9  126.05   14.94
  -1  -1   9  122.21   15.69
  -1   1   9  146.01   15.30
   1   2   9  152.61   16.11
  -1   2   9   76.63   12.81
  -1  -2   9   91.18   14.40
   1  -2   9   95.27   14.34
  -1  -3   9   99.28   15.62
  -1  -3   9  112.63   15.00
  -2   0   0  222.12    8.86
   2  -1   0  384.61   16.31
  -2  -1   0  405.62   16.31
   2  -2   0 4296.13  161.22
  -2  -2   0 4232.83  161.13
   2  -3   0  210.10   11.70
  -2  -3   0  193.63   11.31
  -2  -4   0  129.09    9.82
   2  -4   0  126.83   10.07
   2  -5   0    6.04    5.01
  -2  -5   0    1.97    4.93
  -2  -6   0  100.59   11.69
   2  -6   0  100.67   12.09
   2  -7   0   32.95    9.97
  -2  -7   0   49.23   10.06
  -2  -8   0   -0.09    7.93
   2  -8   0    7.48    9.03
  -2  -9   0   -5.23    8.92
   2  -9   0   -4.39    8.73
  -2   0  -1 3873.12  137.95
   2   0   1 3874.14  142.07
  -2  -1  -1   46.87    4.03
   2   1   1   41.15    3.70
  -2  -1   1   37.80    3.70
   2  -1   1   43.19    3.65
  -2  -1  -1   39.02    3.81
  -2   1  -1   40.53    3.89
   2  -2  -1    3.69    2.94
  -2  -2  -1    8.73    2.80
  -2  -2   1    2.79    1.98
  -2  -2   1    7.13    2.99
   2  -2   1    4.53    2.63
  -2  -2  -1    3.78    2.72
   2   2   1    5.83    1.91
  -2  -3   1   47.09    5.86
   2  -3   1   40.08    5.40
  -2  -3  -1   33.66    5.10
   2  -3  -1   40.90    5.64
  -2  -4  -1  272.72   15.33
   2  -4  -1  280.67   15.73
  -2  -4   1  272.26   15.27
   2  -4   1  280.77   15.41
  -2  -5  -1   32.39    6.69
   2  -5  -1   19.21    6.58
   2  -5   1   36.71    7.32
  -2  -5   1   43.73    7.28
  -2  -6  -1   18.91    7.54
   2  -6   1    7.53    6.19
  -2  -6   1   12.08    6.55
   2  -6  -1   13.25    7.34
  -2  -7  -1    3.23    7.65
  -2  -7   1    7.04    7.31
   2  -7   1    9.92    8.13
   2  -7  -1    2.66    7.71
  -2  -8  -1   22.69    9.79
   2  -8  -1    5.27    9.73
   2  -8   1   18.57   10.39
  -2  -8   1    0.65    8.82
   2  -9   1    0.79   10.62
  -2  -9   1   -8.17    8.75
   2  -9  -1   -6.28   10.25
  -2  -9  -1    1.60    9.97
  -2   0   2 1198.61   46.15
  -2   0  -2 1215.25   44.98
   2   0   2 1202.52   46.16
  -2  -1  -2   21.40    3.40
  -2   1   2   21.75    3.63
   2  -1   2   20.91    3.48
  -2  -1   2   13.27    3.50
   2   1   2   20.36    3.70
   2  -1   2   18.81    3.03
  -2   1  -2   13.69    3.51
  -2  -2   2    4.14    3.59
   2  -2   2   17.39    3.47
  -2  -2  -2    9.47    3.08
   2  -2  -2    9.70    1.90
  -2  -2  -2   15.17    3.34
   2   2   2   11.35    3.35
   2  -2   2   12.41    3.19
  -2  -2   2    8.98    3.14
  -2   2   2    6.86    3.32
  -2  -3   2    1.34    3.43
  -2  -3  -2    3.83    3.48
   2  -3   2    0.08    2.98
   2  -3  -2    3.23    1.83
   2   3   2    2.54    3.17
  -2  -3   2    3.50    2.61
  -2  -3  -2    2.92    2.90
  -2  -4   2   73.09    7.94
   2  -4   2   86.18    7.76
   2  -4  -2   58.29    7.58
   2   4   2   54.26    5.94
   2  -4  -2   54.79    4.97
  -2  -4   2   66.21    5.46
  -2  -4  -2   56.55    6.59
  -2  -4  -2   58.40    7.45
  -2  -5   2    9.09    5.96
   2  -5  -2    3.22    5.06
   2  -5   2   12.31    5.78
  -2  -5  -2   -2.07    4.74
  -2  -5  -2    6.33    4.66
   2  -6  -2   13.79    6.95
  -2  -6   2    5.64    6.58
   2  -6   2   11.55    6.96
  -2  -6  -2   -1.97    5.85
  -2  -6  -2   14.15    5.47
  -2  -7   2   -3.64    6.97
   2  -7  -2    3.40    7.11
   2  -7   2    3.92    7.27
  -2  -7  -2    2.68    7.09
   2  -8  -2   12.45    9.28
  -2  -8  -2    6.41    8.03
   2  -8   2   -8.53    8.16
  -2  -8   2    0.00    8.83
  -2  -9  -2  -10.44    9.50
   2  -9   2   10.11   10.65
   2   0   3    4.23    3.53
  -2   0   3    1.28    3.27
  -2   0  -3    2.94    3.18
  -2   1   3   45.77    5.57
  -2   1  -3   46.83    5.52
   2  -1   3   52.02    5.69
   2   1   3   40.08    5.95
  -2  -1   3   47.88    6.03
  -2  -1  -3   40.64    5.02
  -2  -2  -3    6.23    3.16
   2   2   3    0.55    4.03
  -2  -2   3    4.16    3.28
  -2   2   3    6.24    3.52
   2  -2  -3    1.15    2.54
   2  -2   3    3.09    3.02
   2  -2   3    4.75    3.40
   2  -3  -3    8.97    2.61
  -2  -3   3   12.12    4.55
   2  -3   3    8.61    3.99
  -2  -3   3   12.26    3.81
   2  -3   3   12.75    4.02
  -2   3   3   12.04    4.12
   2   3   3   12.30    4.61
  -2  -3  -3    7.88    3.62
   2  -4   3    2.73    4.16
  -2  -4   3    4.85    4.77
  -2  -4  -3    5.18    4.75
   2   4   3    3.53    4.74
  -2  -4  -3    2.44    3.45
  -2   4   3    4.03    4.05
  -2  -4   3    5.13    3.37
  -2  -5  -3   38.89    7.39
   2  -5   3   23.20    6.80
  -2   5   3   35.22    6.31
  -2  -5  -3   19.64    5.36
  -2  -5   3   35.63    7.61
  -2  -6   3    2.15    6.85
  -2  -6  -3    9.37    6.61
  -2  -6  -3    2.81    4.69
   2  -6   3    0.13    6.17
   2  -7   3    0.60    7.83
  -2  -7  -3    7.71    7.28
  -2  -7   3    8.35    8.67
  -2  -8   3    4.55    8.95
  -2  -8  -3    6.57    8.45
   2  -8   3   -5.83    8.22
   2   0   4   23.15    5.77
  -2   0   4   16.41    4.93
  -2   0  -4   17.60    4.72
  -2  -1   4   10.00    4.50
   2  -1   4   15.28    4.61
  -2   1   4   15.14    4.86
  -2  -1  -4    8.96    4.06
   2   1   4   12.42    5.09
  -2   1  -4   15.20    4.77
  -2  -2   4   87.76    8.41
   2   2   4   85.24    9.05
  -2  -2  -4   83.90    7.50
   2  -2   4   97.61    8.55
   2  -2   4   71.22    7.34
  -2   2   4   90.92    8.46
   2  -2  -4   83.20    7.01
  -2  -3   4   20.57    5.40
   2  -3   4    5.80    4.20
  -2  -3   4   17.96    6.20
   2  -3   4   21.23    5.40
   2   3   4    6.05    5.56
   2  -3  -4   22.04    4.33
  -2  -3  -4   13.96    4.56
  -2   3   4   16.28    5.22
   2   4   4   17.07    6.36
  -2  -4  -4   18.42    5.07
  -2  -4   4   16.82    4.87
   2  -4   4   12.05    5.33
  -2  -4   4   14.86    5.95
   2  -4   4    5.57    5.10
  -2   4   4    8.41    5.12
  -2  -5   4   26.31    7.32
   2  -5   4   15.18    6.69
  -2  -5  -4   32.91    6.14
  -2   5   4   28.22    6.40
  -2  -6   4    7.34    7.51
   2  -6   4    8.50    7.10
  -2  -7   4    3.49    8.17
   2  -7   4   -0.19    7.55
  -2  -8   4   -1.54    8.90
   2  -8   4   -2.49    8.87
  -2   0   5   16.55    5.57
  -2   0  -5   17.32    5.10
   2   0   5   13.34    6.04
  -2  -1   5    3.76    4.85
   2  -1   5   -2.91    4.84
  -2  -1  -5    6.52    4.93
  -2   1   5    3.57    4.74
  -2   1  -5    3.03    4.38
   2   1   5    2.62    5.67
   2  -2   5   17.47    6.08
  -2  -2   5   32.96    6.80
   2   2   5   26.67    6.99
  -2  -2  -5   15.16    5.35
   2  -2   5   16.87    5.53
  -2   2   5   22.19    6.22
   2  -2  -5   18.24    5.15
   2   3   5    1.70    5.67
   2  -3   5   -1.03    4.98
   2  -3   5    0.54    4.62
  -2  -3  -5   10.21    4.73
  -2   3   5   -1.48    5.53
  -2  -3   5    7.42    6.10
  -2  -3   5    0.15    5.49
   2   4   5    7.00    6.36
  -2  -4   5   -0.77    6.11
   2  -4   5   -0.11    5.15
   2  -4   5    2.46    5.18
  -2   4   5   -4.95    5.57
  -2  -4   5   -2.29    5.21
  -2  -4  -5    0.24    4.23
  -2  -5   5   45.23    9.16
  -2   5   5   32.87    8.26
   2  -5   5   40.30    8.20
   2  -6   5   -0.04    7.19
  -2  -6   5    3.53    7.48
  -2  -7   5   -1.14    7.92
   2  -7   5   -5.29    7.49
   2  -8   5    1.00    8.94
  -2   0   6   49.14    8.49
   2   0   6   33.85    8.21
  -2   0  -6   34.81    7.19
   2  -1   6    2.80    6.31
   2   1   6   17.20    7.41
  -2  -1   6   14.15    6.57
  -2  -1  -6   13.29    5.88
  -2   1   6    7.38    6.11
   2   2   6    1.06    6.50
  -2  -2  -6    7.50    6.07
  -2   2   6    4.40    5.86
   2  -2   6   -1.39    5.78
  -2  -2   6    7.93    6.13
  -2   3   6    4.22    6.69
  -2  -3  -6   12.04    6.11
   2  -3   6    6.07    6.31
  -2  -3   6    5.76    6.44
  -2  -3   6   10.77    7.61
   2  -3   6   18.60    7.03
   2   3   6   -6.41    5.69
  -2  -3  -6   12.14    6.11
   2  -4   6    7.93    6.80
   2   4   6   -1.42    6.73
  -2   4   6   -4.74    6.88
  -2  -4   6   -8.97    5.85
   2  -4   6   15.69    6.84
  -2  -4   6   15.57    8.06
  -2  -4  -6   -3.37    5.23
   2  -5   6   16.49    7.44
   2  -5   6   27.30    8.62
  -2   5   6   11.86    8.17
  -2  -5   6   20.12    9.06
  -2  -6   6    5.93    9.23
   2  -6   6   -2.34    8.33
   2  -7   6   -1.36    8.44
  -2  -7   6    1.53    9.36
   2   0   7   11.02    7.76
  -2   0   7   15.99    7.20
  -2   0  -7   15.92    6.94
   2  -1   7   50.40    9.98
   2   1   7   58.33   10.49
  -2   1   7   33.99    8.69
  -2  -1   7   57.99    9.79
  -2  -1  -7   44.93    8.37
  -2   2   7    4.89    6.87
  -2  -2   7    6.54    6.96
   2   2   7    3.93    7.28
   2  -2   7   -0.85    6.74
  -2  -2  -7    6.60    6.54
   2   3   7   24.03    9.29
   2  -3   7   29.01    8.65
   2  -3   7   13.54    8.04
  -2   3   7   10.32    7.86
  -2  -3  -7   22.84    7.31
  -2  -3   7   14.79    8.40
  -2  -3   7   17.66    8.39
  -2   4   7    2.17    7.46
   2   4   7   -3.13    7.36
  -2  -4   7   -8.95    6.74
   2  -4   7   -2.69    6.96
  -2  -4   7   -2.88    7.65
  -2  -5   7   26.67   10.97
   2  -5   7   43.07    9.32
  -2   5   7   33.93    9.98
  -2  -6   7    0.84    8.99
   2   0   8   -1.01    8.04
  -2   0   8   -3.25    7.01
  -2  -1   8   -0.07    7.48
   2  -1   8    0.37    7.98
  -2   1   8    7.29    7.60
   2   1   8   12.04    8.48
  -2  -1  -8   12.69    7.47
   2   2   8    5.11    8.30
  -2  -2   8   -7.29    7.44
   2  -2   8  -15.49    6.74
  -2   2   8    0.33    6.71
  -2  -2  -8    3.04    6.96
   2  -3   8   -6.69    7.71
   2   3   8    7.78    8.79
  -2  -3   8    4.96    9.03
  -2  -3   8  -23.72    6.88
  -2   3   8   -5.46    7.40
  -2   4   8    5.59    7.95
   2  -4   8   -7.27    7.85
  -2  -4   8    2.87    9.09
   2   4   8   13.20    8.90
  -2  -4   8  -17.85    6.87
  -2  -5   8   16.46   11.02
  -2   5   8    6.31    9.03
  -2   0   9    6.56    8.53
   2   0   9    0.30    8.04
   2   1   9    0.22    8.59
   2  -1   9   -5.10    8.06
  -2   1   9    0.86    7.30
  -2  -1   9   -0.04    9.18
   2   2   9    4.92    8.63
   2  -2   9  -12.52    9.38
  -2   2   9   -1.08    7.57
  -2  -2   9  -12.83    8.30
  -2  -3   9  -17.16    8.81
  -2  -3   9    2.16   10.66
  -3   0   0    0.90    1.66
  -3  -1   0   -0.20    2.06
  -3   1   0   -1.25    1.32
   3  -2   0    1.58    2.56
  -3  -2   0    0.44    2.39
  -3  -3   0    1.90    3.23
   3  -3   0    2.11    3.41
   3  -4   0    5.96    4.55
  -3  -4   0    5.07    4.01
   3  -5   0    8.25    5.40
  -3  -5   0   -0.19    4.73
  -3  -6   0   -4.46    5.49
   3  -6   0   17.53    7.81
   3  -7   0   -1.70    7.61
  -3  -7   0    2.79    6.77
  -3  -8   0   11.02    9.02
   3  -8   0    4.56    9.45
  -3  -9   0    2.57   10.00
   3  -9   0    9.08   10.05
  -3   0  -1 2404.30   86.62
  -3   1  -1  753.67   29.10
  -3  -1  -1  749.73   29.38
  -3  -1  -1  785.58   29.85
   3  -1   1  776.13   29.81
   3  -2   1  295.03   14.35
  -3  -2  -1  330.82   14.70
   3   2   1  316.23   13.02
  -3  -2   1  312.87   13.15
  -3  -2   1  317.97   15.01
  -3  -2  -1  344.47   14.70
   3  -3  -1  410.88   19.43
  -3  -3   1  398.44   19.17
  -3  -3  -1  415.60   19.06
   3  -3   1  407.53   18.91
  -3  -4   1  402.06   20.71
  -3  -4  -1  458.65   21.11
   3  -4   1  389.85   20.49
   3  -4  -1  446.46   21.51
  -3  -5  -1  384.82   20.98
   3  -5   1  378.13   20.64
   3  -5  -1  461.33   22.33
  -3  -5   1  356.88   20.54
   3  -6   1  100.93   11.65
  -3  -6   1  107.10   11.97
   3  -6  -1  119.09   12.93
  -3  -6  -1  117.61   12.13
   3  -7  -1   57.82   11.12
   3  -7   1   32.42    9.40
  -3  -7  -1   61.27   11.05
  -3  -7   1   36.34    9.30
  -3  -8  -1   94.21   14.00
   3  -8  -1   99.06   14.44
  -3  -8   1   58.06   12.16
   3  -8   1   58.47   12.50
   3  -9  -1   35.33   12.36
  -3  -9  -1   57.52   13.32
   3  -9   1   38.06   13.34
  -3  -9   1   35.04   11.52
   3   0   2 6786.40  249.53
  -3   0  -2 6828.06  242.39
  -3   0   2 6814.22  249.57
  -3  -1   2 1235.31   46.95
   3  -1   2 1255.91   47.15
  -3  -1  -2 1232.10   46.14
   3  -1   2 1220.23   47.19
   3   1   2 1216.92   46.86
  -3   1  -2 1195.12   46.27
   3   2   2 1359.27   50.64
  -3  -2   2 1342.38   51.04
   3  -2   2 1320.71   51.90
  -3  -2   2 1327.22   53.15
  -3  -2  -2 1312.53   50.27
  -3   2  -2 1327.18   50.38
  -3  -2  -2 1315.40   52.10
  -3  -3   2  943.03   37.54
   3   3   2 1017.07   37.73
   3  -3   2  951.72   39.51
  -3  -3  -2  960.97   39.84
  -3  -3  -2  986.79   38.33
  -3  -3   2  947.43   40.22
  -3  -4   2 1102.65   44.00
   3  -4   2 1140.91   47.76
  -3  -4   2 1153.87   48.56
  -3  -4  -2 1203.66   46.05
   3   4   2 1172.66   44.59
  -3  -4  -2 1187.72   48.49
  -3  -5  -2 1043.51   42.55
  -3  -5  -2 1055.07   45.18
   3  -5   2 1033.51   44.63
   3  -5  -2 1032.50   45.82
  -3  -5   2 1019.63   45.02
  -3  -6  -2  288.52   18.22
   3  -6   2  281.03   17.98
  -3  -6  -2  278.02   16.50
   3  -6  -2  275.67   18.58
  -3  -6   2  280.25   17.89
  -3  -7  -2  139.45   12.39
   3  -7  -2  157.74   15.16
  -3  -7   2  143.61   13.61
  -3  -7  -2  153.18   14.08
   3  -7   2  147.91   14.13
  -3  -8  -2  221.33   17.44
   3  -8  -2  174.70   17.20
   3  -8   2  189.67   16.96
  -3  -8   2  175.83   16.49
   3  -9   2   71.38   14.38
  -3  -9  -2  127.67   16.31
  -3   0   3 3734.99  140.02
  -3   0  -3 3742.13  136.16
   3   0   3 3809.42  140.12
  -3  -1  -3 1769.97   66.82
   3   1   3 1844.12   68.95
   3  -1   3 1775.90   68.74
  -3   1   3 1785.09   68.74
  -3  -1   3 1813.08   68.84
  -3   1  -3 1777.69   67.36
   3  -2   3  826.15   33.64
  -3   2   3  823.27   33.92
   3   2   3  855.01   34.03
  -3   2  -3  797.32   33.55
  -3  -2  -3  808.31   33.07
  -3  -2   3  829.55   34.09
   3  -2   3  835.14   33.82
   3  -3   3 1051.74   44.24
  -3  -3  -3 1064.16   42.95
  -3  -3   3 1102.80   45.71
  -3   3   3 1110.23   43.93
   3   3   3 1122.84   43.93
  -3  -3   3 1083.05   43.31
  -3  -4   3  921.35   38.97
   3  -4   3  883.13   37.77
  -3  -4   3  887.76   35.50
   3   4   3  855.56   36.51
  -3  -4  -3  921.76   36.66
  -3   4   3  845.46   36.61
  -3  -4  -3  870.48   38.26
  -3   5   3  968.72   40.17
   3  -5   3  957.30   42.05
  -3  -5  -3  933.78   42.41
  -3  -5   3  966.66   42.94
  -3  -5  -3 1002.88   40.17
  -3  -6  -3  286.93   16.42
   3  -6   3  292.08   18.09
  -3  -6   3  264.81   18.28
  -3  -6  -3  271.22   17.82
   3  -7   3  145.30   14.23
  -3  -7  -3  151.10   13.79
  -3  -7   3  146.82   14.48
  -3  -8   3  194.25   17.50
   3  -8   3  197.29   17.41
  -3  -8  -3  202.98   16.74
  -3   0  -4  788.47   32.61
  -3   0   4  772.23   33.29
   3   0   4  789.64   33.49
  -3  -1   4  595.58   26.35
  -3   1  -4  590.08   25.63
   3  -1   4  580.01   26.03
  -3  -1  -4  595.33   25.18
   3   1   4  554.53   26.24
  -3   1   4  562.92   25.77
   3   2   4  150.19   11.84
   3  -2   4  179.21   11.56
  -3  -2   4  157.79   11.33
  -3  -2  -4  191.28   11.02
   3  -2   4  181.19   10.35
  -3   2   4  166.28   11.30
   3   3   4  295.96   19.05
  -3  -3   4  379.17   18.79
  -3  -3   4  382.90   20.26
   3  -3   4  407.70   19.07
  -3   3   4  387.25   19.14
  -3  -3  -4  365.87   18.31
   3  -3   4  400.00   18.58
  -3  -4   4  225.76   13.02
   3   4   4  157.02   13.64
  -3  -4  -4  199.19   13.16
  -3   4   4  235.37   13.91
   3  -4   4  243.29   14.03
  -3  -4   4  246.01   15.10
   3  -5   4  379.94   20.15
  -3  -5   4  343.31   20.42
  -3   5   4  345.92   19.10
  -3  -5  -4  357.72   18.96
   3  -6   4   95.27   11.45
  -3  -6   4   75.03   11.40
   3  -7   4   82.44   12.28
  -3  -7   4   64.33   12.27
   3  -8   4   66.59   13.25
  -3  -8   4   67.03   13.05
  -3   0   5   60.03    8.04
  -3   0  -5   55.59    7.57
   3   0   5   54.98    8.30
   3  -1   5   49.77    7.76
  -3  -1   5   57.24    7.99
  -3  -1  -5   48.65    7.20
   3   1   5   48.75    8.31
  -3   1   5   47.28    7.51
  -3   1  -5   49.14    7.27
  -3  -2  -5   17.09    5.46
   3   2   5   14.24    6.65
   3  -2   5   17.60    5.82
  -3   2   5   21.50    6.35
  -3  -2   5    7.22    5.35
   3  -2   5   17.52    5.39
  -3  -3  -5   35.52    6.75
  -3   3   5   21.56    6.85
  -3  -3   5   33.88    7.09
   3  -3   5   43.55    6.66
  -3  -3   5   27.71    7.75
   3  -3   5   53.62    8.07
   3   3   5   29.21    8.05
   3   4   5   16.85    7.26
  -3  -4   5   11.94    6.78
  -3  -4   5    9.07    6.08
  -3   4   5   14.72    6.30
  -3  -4  -5    3.37    5.05
   3  -4   5   18.02    6.36
   3  -4   5   18.49    6.54
  -3  -5   5   24.01    8.77
   3  -5   5   21.60    7.58
  -3   5   5   22.18    7.13
  -3  -5  -5   15.99    6.24
  -3  -6   5   11.07    7.98
   3  -6   5   12.15    7.19
  -3  -7   5   14.26    9.06
   3  -7   5    9.24    8.78
   3  -8   5    3.24    8.95
  -3   0  -6   32.62    7.32
   3   0   6   35.35    8.52
  -3   0   6   44.68    8.28
  -3   1  -6  175.78   13.33
   3   1   6  178.88   14.77
  -3  -1   6  200.13   14.39
   3  -1   6  169.00   14.04
  -3  -1  -6  199.05   13.74
  -3   1   6  180.34   14.34
   3   2   6   30.53    8.57
   3  -2   6   25.46    6.78
  -3   2   6   25.80    7.92
  -3  -2   6   15.87    6.86
   3  -2   6   12.36    7.17
  -3  -2  -6   25.60    6.95
   3  -3   6  129.59   11.67
  -3   3   6  136.23   13.23
   3  -3   6  136.98   12.56
  -3  -3   6  158.18   13.34
   3   3   6  175.93   14.79
  -3  -3  -6  138.74   12.20
   3   4   6   44.14    9.80
  -3  -4   6   22.57    8.13
   3  -4   6   27.75    7.75
  -3  -4  -6   31.35    7.39
  -3   4   6   20.49    7.89
   3  -4   6   22.76    7.81
  -3  -4   6   22.50    8.96
  -3  -5   6   74.68   12.21
  -3   5   6   62.02   11.04
   3  -5   6   65.94   10.52
  -3  -6   6    5.77    8.52
   3   0   7  687.36   34.17
  -3   0   7  665.53   33.21
  -3   0  -7  698.11   32.60
   3   1   7  234.50   17.71
  -3  -1  -7  240.14   16.23
  -3   1   7  228.25   16.79
  -3  -1   7  223.33   16.54
   3  -1   7  226.44   17.07
   3   2   7  473.51   25.77
   3  -2   7  351.32   23.32
  -3  -2  -7  419.91   22.98
  -3  -2   7  429.16   24.13
  -3   2   7  407.31   23.92
  -3  -3   7  219.54   16.96
   3  -3   7  194.98   16.33
  -3  -3  -7  224.75   16.24
  -3   3   7  214.70   17.18
   3   3   7  233.55   17.84
  -3  -4   7  234.46   17.68
  -3   4   7  233.65   18.52
   3   4   7  269.60   19.56
  -3  -4   7  227.37   18.62
   3  -4   7  245.30   17.93
  -3   5   7  141.05   15.88
  -3  -5   7  168.17   17.58
  -3  -6   7   90.46   15.08
  -3   0   8  331.50   21.99
   3   0   8  356.07   23.02
  -3   0  -8  368.05   22.16
  -3  -1  -8  321.73   20.71
  -3   1   8  311.14   21.04
  -3  -1   8  337.81   21.74
   3  -1   8  302.84   21.86
   3   1   8  371.37   23.12
   3  -2   8  217.72   18.66
  -3  -2   8  271.84   19.02
  -3   2   8  223.75   18.22
  -3  -2  -8  261.77   18.14
   3   2   8  273.48   19.93
   3   3   8  298.73   21.70
  -3   3   8  234.06   19.45
  -3  -3   8  317.11   20.83
   3  -3   8  283.82   20.73
  -3   4   8  121.59   14.89
   3   4   8  134.59   15.80
  -3  -4   8  120.96   16.73
   3  -4   8  152.68   16.09
  -3   5   8  154.81   16.41
  -3   0   9  154.03   17.05
   3   0   9  192.38   17.07
  -3  -1   9   87.24   13.63
  -3   1   9   78.12   11.85
   3  -1   9   93.12   14.59
   3   1   9   67.60   12.45
  -3  -1  -9   62.71   12.29
   3   2   9  152.11   17.16
  -3  -2  -9  151.49   15.76
  -3  -2   9  151.50   17.37
  -3  -3   9  113.10   15.64
  -4   0   0  786.30   29.60
  -4  -1   0 4884.98  182.41
  -4   1   0 4814.36  172.35
   4  -2   0 2733.52  103.80
  -4  -2   0 2697.82  103.70
  -4  -3   0 3239.76  125.46
   4  -3   0 3303.17  125.65
  -4  -4   0  550.13   26.21
   4  -4   0  600.36   26.78
  -4  -5   0 1225.86   51.89
   4  -5   0 1229.80   52.15
  -4  -6   0  486.23   25.24
   4  -6   0  441.91   24.74
   4  -7   0  642.14   33.70
  -4  -7   0  690.66   34.28
   4  -8   0  225.45   18.18
  -4  -8   0  205.87   17.76
   4  -9   0  156.25   18.29
  -4  -9   0  144.45   17.58
  -4   0  -1  832.97   31.76
  -4   1  -1 3221.16  116.76
  -4  -1  -1 3220.54  117.25
  -4  -1  -1 3275.40  122.38
   4  -1   1 3286.92  122.40
  -4   2  -1 2737.05   99.60
   4  -2   1 2724.44  104.79
  -4  -2  -1 2767.15  104.87
  -4  -2  -1 2810.92  100.57
  -4  -2   1 2728.84  105.56
   4  -3   1 1902.43   72.31
  -4  -3  -1 1808.65   69.62
  -4  -3  -1 1793.23   72.31
  -4  -3   1 1883.34   72.79
   4  -4   1  805.35   34.76
   4  -4  -1  803.28   35.50
  -4  -4  -1  818.07   35.08
  -4  -4   1  794.42   35.07
  -4  -5   1  725.01   32.49
   4  -5  -1  674.57   32.70
   4  -5   1  738.76   32.43
  -4  -5  -1  656.07   31.91
  -4  -6  -1  518.19   26.91
   4  -6  -1  530.26   27.51
  -4  -6   1  505.13   26.61
   4  -6   1  506.66   26.53
   4  -7   1  419.52   24.05
  -4  -7  -1  371.28   23.02
  -4  -7   1  400.46   23.68
   4  -7  -1  372.74   23.69
  -4  -8   1  231.00   18.87
   4  -8  -1  209.99   18.41
  -4  -8  -1  219.85   18.34
   4  -8   1  238.32   19.08
  -4  -9  -1  119.29   16.17
   4  -9   1  118.46   16.66
  -4  -9   1   97.96   15.42
   4   0   2  224.97   11.31
  -4   0  -2  228.99   11.22
  -4   1  -2  163.69    9.29
  -4  -1  -2  158.82    9.25
   4   1   2  154.94    8.76
  -4  -1   2  173.65    8.94
   4  -1   2  164.25    7.60
  -4  -2  -2  603.92   26.53
  -4  -2  -2  606.82   26.52
   4  -2   2  678.81   26.51
  -4   2  -2  670.21   26.66
  -4  -2   2  681.19   26.25
   4   2   2  632.00   25.88
  -4  -3  -2  155.41   10.10
  -4  -3  -2  126.31    9.83
  -4  -3   2  175.55    9.24
  -4  -3   2  179.55   11.03
   4  -3   2  181.58    9.96
   4   3   2  162.88    8.64
  -4  -4  -2   95.96    9.24
  -4  -4   2  145.50   10.31
   4  -4   2  147.45    9.90
  -4  -4  -2   84.78    9.21
  -4  -5  -2  113.40   10.57
  -4  -5  -2  119.70   10.90
   4  -5   2  142.36   11.21
  -4  -5   2  152.36   11.45
   4  -6   2   78.62   10.02
  -4  -6   2   75.33   10.26
  -4  -6  -2   57.11    9.87
  -4  -6  -2   58.96    9.17
   4  -7   2   86.48   11.79
  -4  -7  -2   41.28    9.52
  -4  -7  -2   63.97    9.95
   4  -7  -2   68.48   12.28
  -4  -7   2   86.03   11.71
  -4  -8  -2   20.50    9.25
   4  -8  -2    8.11    9.30
  -4  -8   2   28.82   10.07
   4  -8   2   40.43   10.78
  -4  -9  -2   38.97   10.98
   4  -9   2   19.63   10.81
  -4   0   3  336.92   16.01
   4   0   3  339.27   16.05
  -4   0  -3  327.67   15.82
  -4   1  -3    1.71    3.20
   4   1   3    3.52    3.37
   4  -1   3    7.52    3.57
  -4   1   3    4.20    3.86
  -4  -1   3    9.28    3.70
   4  -1   3    5.29    2.38
  -4  -1  -3    1.43    3.24
   4  -2   3   98.45    6.83
  -4   2   3   94.91    8.50
   4   2   3  122.39    8.18
  -4   2  -3   99.82    8.29
  -4  -2  -3  112.21    8.26
  -4  -2   3  100.35    8.13
   4   3   3   10.10    4.00
   4  -3   3    5.93    3.47
  -4  -3   3   -0.30    3.35
  -4  -3   3   11.44    5.02
  -4  -3  -3   16.40    4.70
  -4   3   3    2.11    4.42
  -4  -4  -3   85.93    8.26
  -4  -4  -3   88.65    8.40
  -4  -4   3   57.79    7.99
  -4   4   3   49.75    7.61
   4  -4   3   60.63    7.57
  -4  -5   3    2.55    4.89
  -4  -5  -3    1.51    4.72
   4  -5   3    1.98    5.13
  -4   5   3    4.96    5.02
  -4  -5  -3    9.40    5.49
  -4  -6  -3   37.09    7.52
  -4  -6  -3   25.57    7.90
   4  -6   3   16.64    7.57
  -4  -6   3   21.28    7.62
  -4  -7   3    6.84    7.54
  -4  -7  -3    7.14    7.03
   4  -7   3    5.10    7.87
   4  -8   3    1.76    8.13
  -4  -8  -3    5.79    7.68
  -4  -8   3   -4.19    7.50
  -4   0   4  718.03   31.65
   4   0   4  758.99   31.97
  -4   0  -4  743.81   31.31
   4  -1   4  520.81   24.61
  -4  -1   4  547.18   24.88
  -4   1  -4  542.50   24.56
   4   1   4  574.75   25.11
  -4  -1  -4  542.75   24.03
  -4   1   4  523.39   24.54
   4  -2   4  601.76   27.48
  -4   2  -4  652.78   27.94
   4   2   4  638.53   28.05
  -4  -2  -4  621.31   27.06
   4  -2   4  617.55   26.41
  -4   2   4  620.15   27.79
  -4  -2   4  582.46   27.70
   4   3   4  555.54   25.08
  -4  -3   4  510.18   24.11
  -4   3   4  532.46   24.69
  -4  -3   4  532.14   26.15
   4  -3   4  491.06   23.61
  -4  -3  -4  529.97   24.23
  -4  -4   4  371.72   21.37
  -4  -4  -4  411.95   20.23
  -4   4   4  405.30   20.42
   4  -4   4  380.29   19.81
   4  -5   4  134.10   11.78
  -4  -5  -4  160.13   11.97
  -4   5   4  161.89   12.06
  -4  -5   4  129.18   13.46
  -4  -6   4  215.69   16.88
   4  -6   4  210.97   15.93
  -4  -6  -4  268.20   16.11
   4  -7   4   88.78   13.00
  -4  -7   4  110.94   14.49
  -4  -8   4   44.40   12.00
   4  -8   4   80.72   13.13
  -4   0   5 1837.57   74.34
  -4   0  -5 1897.44   72.51
   4   0   5 1881.53   74.61
  -4   1  -5 1376.76   54.76
  -4  -1  -5 1355.45   54.34
  -4   1   5 1393.50   56.00
   4  -1   5 1390.75   56.14
  -4  -1   5 1332.95   56.16
   4   1   5 1350.92   56.36
  -4   2   5 1649.53   65.67
  -4  -2  -5 1663.49   63.62
  -4   2  -5 1669.70   64.51
   4   2   5 1522.35   65.81
  -4  -2   5 1625.22   65.55
   4  -2   5 1625.86   64.81
   4  -2   5 1627.71   65.57
   4  -3   5 1178.77   48.95
  -4   3   5 1174.75   49.35
  -4  -3   5 1200.09   49.08
   4  -3   5 1171.97   48.40
  -4  -3  -5 1227.53   47.98
   4   3   5 1061.56   49.51
   4  -4   5  928.29   39.15
   4   4   5  776.95   39.24
  -4  -4  -5  897.43   38.10
  -4   4   5  943.06   39.72
  -4  -4   5  876.24   40.99
  -4  -5   5  420.99   24.62
  -4  -5  -5  426.97   22.67
   4  -5   5  441.25   23.23
  -4   5   5  447.43   23.52
  -4  -6   5  476.26   27.50
   4  -6   5  492.27   26.39
  -4  -7   5  269.04   20.34
  -4   0  -6  799.37   35.18
  -4   0   6  800.48   36.49
   4   0   6  740.84   36.22
   4  -1   6  385.16   21.95
  -4   1   6  394.29   22.11
  -4   1  -6  391.55   21.17
  -4  -1   6  396.11   21.76
   4   1   6  368.77   22.10
  -4  -1  -6  391.34   21.16
  -4  -2   6  692.98   32.65
   4  -2   6  723.43   33.30
  -4   2   6  690.42   33.34
  -4  -2  -6  684.01   31.74
   4   2   6  651.11   33.49
  -4   3   6  424.07   23.74
   4   3   6  387.92   23.90
  -4  -3   6  442.12   23.17
   4  -3   6  410.66   22.83
  -4  -3  -6  414.52   22.18
  -4  -4  -6  439.03   22.84
   4   4   6  377.45   23.93
  -4   4   6  415.48   23.79
  -4  -4   6  419.50   24.60
  -4   5   6  143.23   15.02
  -4  -5   6  174.95   17.11
  -4  -6   6  238.80   18.83
  -4   0   7  244.79   17.64
   4   0   7  263.72   18.85
  -4   0  -7  289.53   17.86
  -4  -1   7  257.31   17.25
  -4  -1  -7  257.45   17.00
   4  -1   7  213.63   17.07
  -4   1  -7  240.52   16.56
  -4   1   7  226.64   17.26
   4   1   7  217.01   17.43
  -4  -2  -7  205.20   15.37
  -4  -2   7  185.87   15.22
  -4   2   7  178.99   15.98
   4  -2   7  204.44   16.45
   4   2   7  212.10   17.02
  -4   3   7  215.27   17.74
   4  -3   7  223.74   17.08
  -4  -3   7  257.76   17.58
   4   3   7  216.79   18.11
  -4  -3  -7  233.71   16.91
  -4   4   7  121.91   14.98
   4  -4   7  149.00   14.20
  -4  -4   7  175.57   16.17
  -4  -4  -7  137.77   14.17
  -4   5   7   77.39   13.21
  -4  -5   7  101.71   14.65
  -4   0  -8    0.53    7.18
   4   0   8   12.43    8.98
  -4   0   8   11.26    7.81
   4  -1   8   -1.33    7.82
   4   1   8   14.78    9.36
  -4  -1   8    5.23    7.97
  -4  -1  -8   -3.62    6.82
  -4   1   8    1.07    7.20
  -4  -2  -8    8.07    8.35
  -4   2   8   -0.79    7.51
   4   2   8   -5.20    7.75
  -4  -2   8   15.48    8.63
   4  -2   8    4.08    8.32
   4  -3   8    0.97    8.36
  -4  -3  -8    9.28    8.63
  -4   3   8    0.30    7.74
   4   3   8   -8.59    8.06
  -4  -3   8    4.99    8.92
  -4   4   8   -0.55    8.21
   4  -4   8   17.84    9.63
  -4  -4   8    8.66   10.59
  -4   0   9   61.37   12.51
   4   0   9   97.72   14.76
   4   1   9  118.51   15.78
  -4  -1   9  128.40   15.69
  -4  -1  -9  108.44   13.86
  -4  -2   9   80.09   13.82
  -4  -2  -9   81.39   12.52
  -5   0   0    0.78    1.84
  -5  -1   0    1.01    2.16
  -5   1   0    0.04    1.57
  -5   2   0    5.57    2.15
  -5  -2   0    0.52    2.51
  -5  -3   0    1.91    3.21
   5  -3   0    0.95    3.42
   5  -4   0    0.85    4.34
  -5  -4   0   -2.62    3.58
   5  -5   0   -1.41    5.30
  -5  -5   0   -0.48    4.48
   5  -6   0   -0.90    6.01
  -5  -6   0    4.09    6.04
  -5  -7   0    6.37    7.31
   5  -7   0   -5.83    7.28
  -5  -8   0   -1.50    7.84
   5  -8   0   -7.74    7.85
  -5  -9   0    5.53    9.58
   5  -9   0    6.61   10.44
  -5   0  -1   13.34    3.01
  -5   1   1  439.95   16.75
  -5  -1  -1  440.50   18.74
  -5   1  -1  430.24   18.07
  -5  -1  -1  440.89   17.72
  -5   2  -1  659.00   27.31
  -5  -2  -1  706.69   28.18
   5  -2   1  671.37   28.17
  -5  -2   1  691.20   29.23
  -5  -2  -1  722.40   28.53
  -5  -3   1  318.57   16.60
  -5  -3  -1  331.51   16.34
  -5  -3  -1  353.66   17.17
   5  -3   1  343.43   16.53
  -5  -4   1   88.99    9.04
  -5  -4  -1   98.29    8.74
   5  -4   1   87.24    8.61
   5  -5  -1   22.85    7.01
  -5  -5  -1   18.63    6.26
  -5  -5   1   21.81    6.25
   5  -5   1   32.01    7.16
   5  -6   1  117.23   12.37
   5  -6  -1  131.06   12.41
  -5  -6   1  101.00   11.90
  -5  -6  -1  118.62   11.63
   5  -7  -1   90.02   12.62
  -5  -7   1   73.08   11.67
  -5  -7  -1   83.35   11.64
   5  -7   1   80.96   12.16
  -5  -8   1   40.68   11.33
  -5  -8  -1   17.75    9.26
   5  -8  -1   28.32   10.30
  -5  -8  -1   33.16   10.09
   5  -8   1   10.56    9.16
  -5  -9  -1   10.21    9.90
   5  -9   1    5.66    9.13
  -5   0  -2   35.24    4.36
  -5   1  -2  257.61   12.83
  -5  -1  -2  263.41   13.04
  -5  -2  -2 1370.80   52.24
  -5  -2  -2 1369.67   52.88
  -5   2  -2 1343.74   51.84
  -5  -2   2 1360.85   51.91
   5  -2   2 1331.40   52.71
  -5  -3   2  372.31   16.90
  -5  -3  -2  391.19   18.19
   5  -3   2  380.59   17.84
  -5  -3  -2  388.04   18.66
  -5  -3   2  377.18   19.10
  -5  -4  -2  195.24   12.62
  -5  -4   2  206.19   12.92
   5  -4   2  192.38   12.14
  -5  -4  -2  197.56   12.71
  -5  -5  -2   39.53    7.52
  -5  -5  -2   35.25    7.54
   5  -5   2   40.76    7.31
  -5  -5   2   46.87    7.87
  -5  -6   2  249.33   17.03
  -5  -6  -2  260.02   16.74
  -5  -6  -2  267.87   17.39
   5  -6   2  232.47   16.01
  -5  -7  -2  200.84   15.27
  -5  -7   2  183.93   15.71
  -5  -7  -2  194.07   15.62
   5  -7   2  193.51   15.60
  -5  -8   2   42.68   11.24
   5  -8   2   38.75   10.95
  -5  -8  -2   45.65   10.48
  -5  -8  -2   64.62   10.88
   5  -9   2   25.29   11.03
  -5  -9  -2   31.41   11.14
  -5   0  -3   72.92    6.58
  -5   0   3   71.38    6.86
   5   0   3   66.62    6.49
  -5   1  -3 1027.39   40.96
  -5  -1   3 1021.96   41.12
   5  -1   3  985.12   39.75
  -5  -1  -3 1063.18   40.81
   5   1   3 1040.82   41.06
  -5   2  -3 1358.78   52.05
   5   2   3 1342.11   51.98
  -5  -2  -3 1321.01   51.84
  -5  -2   3 1322.11   52.15
   5  -2   3 1305.65   51.88
  -5  -3   3  804.72   35.19
  -5  -3  -3  795.90   33.50
  -5  -3   3  769.79   32.88
   5   3   3  813.30   32.37
   5  -3   3  752.29   32.62
   5  -4   3  288.27   15.48
  -5  -4   3  294.74   16.93
  -5  -4  -3  276.67   15.73
  -5  -4  -3  286.59   16.23
  -5  -5   3   94.35   10.89
   5  -5   3  104.10   10.41
  -5  -5  -3  106.74    9.96
  -5  -5  -3  103.24   10.29
  -5  -6  -3  251.89   17.34
  -5  -6   3  279.44   18.11
  -5  -6  -3  277.38   17.11
   5  -6   3  260.96   17.37
  -5   6   3  289.50   16.41
  -5  -7   3  263.26   18.04
   5  -7   3  211.59   16.72
  -5  -7  -3  247.54   16.72
  -5  -7  -3  203.70   16.61
  -5  -8  -3   48.23   10.92
  -5  -8   3   65.33   12.41
   5  -8   3   44.71   10.54
  -5   0   4   15.70    4.72
  -5   0  -4   10.97    4.67
   5   0   4   12.51    4.57
   5  -1   4  470.86   20.06
   5   1   4  477.92   22.24
  -5   1   4  478.71   22.34
  -5   1  -4  454.11   22.16
  -5  -1   4  472.02   22.11
  -5  -1  -4  456.38   21.70
   5  -1   4  475.63   22.11
  -5   2   4  355.20   18.49
  -5  -2   4  357.00   18.45
  -5  -2  -4  362.18   18.12
   5  -2   4  356.86   16.51
   5  -2   4  345.17   18.24
  -5   2  -4  356.31   18.56
   5   2   4  374.75   18.53
  -5  -3  -4  315.84   17.19
   5  -3   4  328.89   16.12
   5   3   4  313.46   17.15
  -5  -3   4  319.41   18.59
  -5  -3   4  329.80   17.22
  -5   3   4  310.34   17.39
  -5  -4  -4   82.94    9.39
  -5   4   4  103.00   10.39
   5  -4   4   98.98    8.94
  -5  -4   4  111.46   11.54
  -5   5   4   26.73    7.22
  -5  -5   4   40.33    8.39
  -5  -5  -4   40.81    7.69
   5  -5   4   39.30    7.65
  -5   6   4   78.98    9.90
   5  -6   4   92.36   11.21
  -5  -6  -4   62.96    9.42
  -5  -6   4   75.99   11.32
   5  -7   4   89.12   12.52
  -5  -7   4   83.08   12.51
  -5   0  -5    9.84    5.43
  -5   0   5   16.78    5.53
   5   0   5   11.82    5.65
  -5  -1   5   40.28    7.18
  -5  -1  -5   26.74    6.39
  -5   1  -5   36.92    6.96
  -5   1   5   34.91    6.79
   5   1   5   40.69    7.65
   5  -1   5   30.42    6.98
  -5   2   5   21.67    6.68
  -5   2  -5   20.16    6.50
  -5  -2   5   25.35    6.95
   5  -2   5   25.55    6.36
   5   2   5   24.97    7.51
  -5  -2  -5   19.84    5.97
   5   3   5    4.49    6.67
  -5  -3  -5   16.33    5.69
  -5  -3   5   28.56    6.68
  -5   3   5   22.54    6.78
  -5  -4  -5    9.93    5.84
  -5  -4   5    7.81    7.70
  -5   4   5   16.67    6.47
  -5   5   5    0.99    6.10
  -5  -5   5    0.86    7.40
  -5  -5  -5   -6.65    5.51
  -5  -6  -5    1.77    6.60
  -5  -6   5    9.34    8.48
  -5  -7   5   11.66    9.01
   5   0   6    6.61    5.87
  -5   0  -6   -3.24    5.67
  -5   0   6    8.01    6.23
   5  -1   6   65.94    9.87
  -5   1  -6   62.65    9.31
   5   1   6   76.43   10.71
  -5  -1   6   66.18    9.74
  -5  -1  -6   57.59    9.08
  -5   1   6   71.23   10.02
   5  -2   6    4.43    6.17
  -5   2  -6   -0.17    5.39
  -5  -2  -6   -6.19    5.79
  -5  -2   6    8.28    6.08
   5   2   6    6.29    6.94
  -5   2   6    9.13    6.60
   5   3   6   13.56    8.68
  -5  -3   6   42.96    8.44
  -5  -3  -6   39.70    8.38
  -5   3   6   26.42    8.21
   5  -3   6   26.14    8.08
  -5   4   6   -0.17    7.30
  -5  -4  -6    8.84    6.63
  -5  -4   6   12.80    8.66
  -5  -5  -6   26.72    7.99
  -5   5   6   17.92    8.68
  -5  -5   6   16.87    9.14
  -5  -6   6    9.15    9.15
  -5   0  -7   86.82   11.31
   5   0   7   90.04   12.76
  -5   0   7  102.90   12.27
  -5  -1  -7   81.10   11.28
  -5  -1   7   78.27   11.09
   5   1   7   88.99   12.66
   5  -1   7   73.13   12.12
  -5   1   7   83.30   12.18
  -5   1  -7   83.03   11.40
  -5   2   7  129.83   14.62
   5  -2   7  113.04   13.66
  -5  -2   7  146.51   13.55
   5   2   7  152.09   15.71
  -5  -2  -7  146.23   13.57
   5  -3   7   40.87    9.85
  -5  -3  -7   71.03   11.29
  -5  -3   7   51.45   10.03
   5   3   7   31.37   10.55
  -5   3   7   61.71   11.51
  -5  -4   7  118.78   16.25
  -5   4   7  121.36   14.39
  -5  -4  -7  118.61   13.94
  -5   5   7   20.09    9.60
  -5  -5   7   35.50   11.48
  -5   0  -8  199.66   16.07
  -5   0   8  183.16   16.39
   5   0   8  196.00   17.37
  -5  -1   8  349.29   22.04
   5  -1   8  317.39   22.33
   5   1   8  335.83   22.67
  -5   1   8  306.76   21.56
  -5  -1  -8  302.36   20.71
  -5   1  -8  326.27   21.46
   5   2   8  203.44   18.29
   5  -2   8  185.50   17.14
  -5  -2  -8  199.72   16.51
  -5   2   8  172.96   16.34
  -5  -2   8  200.02   16.75
   5  -3   8  134.76   16.30
   5   3   8  150.67   17.80
  -5   3   8  147.11   16.74
  -5  -3   8  181.61   15.75
  -5  -3  -8  163.50   16.54
  -5   4   8  138.06   16.41
  -5  -4   8  153.82   18.76
  -5   0  -9   53.49   11.89
  -5  -1  -9   78.74   12.60
  -5  -2  -9   49.06   11.05
  -6   0   0  185.70    9.33
  -6  -1   0  243.98   12.06
  -6  -1   0  243.50   11.61
  -6   1   0  246.80   10.93
  -6  -2   0   64.04    5.90
  -6   2   0   67.97    5.06
  -6  -3   0   12.89    3.85
   6  -4   0   11.20    5.06
  -6  -4   0   10.67    4.55
  -6  -5   0   39.88    7.51
   6  -5   0   49.22    8.24
   6  -6   0    6.77    6.84
  -6  -6   0    1.65    6.19
  -6  -7   0    1.46    6.98
   6  -7   0    7.79    8.21
   6  -8   0   16.19    9.37
  -6  -8   0   19.57    9.42
  -6   0  -1    2.82    2.48
  -6  -1  -1  241.34   10.68
  -6  -1  -1  239.60   12.22
  -6   1   1  245.27   10.34
  -6   1  -1  243.68   11.68
  -6  -2   1    1.29    3.52
   6  -2   1    1.98    2.66
  -6  -2  -1    3.84    2.49
  -6   2  -1   -0.02    2.57
  -6  -2  -1    2.12    3.06
  -6  -3   1  109.49    8.68
  -6  -3  -1  109.25    8.32
   6  -3   1  109.54    8.51
  -6  -3  -1  130.58    9.63
   6  -4   1    1.82    4.31
  -6  -4  -1    0.01    4.02
  -6  -4  -1    3.13    4.80
  -6  -4   1    0.19    4.00
  -6  -5   1  107.50   11.19
   6  -5   1  105.11   10.24
  -6  -5  -1  100.28   10.92
  -6  -5  -1  109.20   10.52
  -6  -6  -1   -1.56    5.52
   6  -6  -1    9.01    7.14
  -6  -6  -1    3.55    6.57
  -6  -6   1    2.15    5.73
   6  -6   1    2.56    5.96
   6  -7  -1    7.34    8.20
  -6  -7  -1   15.01    7.64
   6  -7   1    2.31    7.59
  -6  -7   1    7.48    7.52
  -6  -7  -1   16.15    8.23
   6  -8  -1    7.71    8.96
   6  -8   1   22.18    9.29
  -6  -8  -1    3.78    7.34
  -6  -8   1    3.42    8.72
  -6  -8  -1    8.77    8.37
  -6  -9  -1  -12.91    8.21
  -6   0  -2   31.12    4.58
  -6   1  -2  254.91   13.19
  -6  -1  -2  275.07   13.63
   6  -2   2   53.85    5.34
  -6   2  -2   61.86    6.41
  -6  -2  -2   58.33    6.69
  -6  -2  -2   51.76    5.07
  -6  -2   2   62.88    5.92
  -6  -3  -2  104.70    8.34
  -6  -3   2  129.58    9.79
  -6  -3   2  112.42    7.63
  -6   3  -2  110.67    9.03
   6  -3   2  113.48    8.20
  -6  -3  -2  110.17    9.43
  -6  -4   2    4.07    4.50
   6  -4   2    5.70    4.24
  -6  -4  -2    1.98    4.27
  -6  -4  -2    7.70    4.93
  -6  -5   2   82.90    9.97
  -6  -5  -2   76.44    9.56
   6  -5   2   93.90    9.72
  -6  -5  -2   95.47   10.52
   6  -6   2   -8.96    5.64
  -6  -6   2    8.57    6.94
  -6  -6  -2    8.85    6.83
  -6  -6  -2   -4.04    6.03
  -6  -7   2   13.83    8.23
   6  -7   2   17.55    8.63
  -6  -7  -2   30.25    8.85
  -6  -7  -2    6.31    7.25
  -6  -8  -2    9.42    8.41
   6  -8   2    3.94    8.55
  -6  -8   2   12.26    9.28
  -6  -8  -2   13.38    7.95
  -6   0   3  131.31    9.59
  -6   0  -3  133.57    9.27
  -6   1  -3    1.83    3.45
  -6  -1  -3    8.80    3.95
  -6  -1   3   13.74    4.12
  -6  -2   3   12.41    4.33
  -6  -2  -3    8.65    4.38
  -6   2  -3   15.25    4.98
   6  -2   3   16.26    3.14
   6   2   3   16.48    4.10
  -6  -3  -3   17.34    4.48
  -6  -3   3   24.88    6.50
   6   3   3   20.50    4.34
  -6  -3   3   16.23    4.68
  -6   3  -3   24.58    5.98
  -6  -3  -3   13.74    5.18
   6  -3   3   21.98    4.28
  -6  -4   3   53.16    8.23
  -6  -4  -3   31.97    6.81
  -6  -4  -3   29.60    6.36
   6  -4   3   41.61    6.43
  -6  -5  -3    2.89    5.52
  -6  -5   3    6.67    5.75
   6  -5   3   -0.69    4.56
  -6  -5  -3   -3.02    4.67
  -6  -6  -3    8.00    6.92
   6  -6   3   10.64    6.19
  -6  -6  -3   17.46    6.67
  -6  -6   3   10.27    6.84
  -6  -7   3    5.22    7.37
  -6  -7  -3   -1.20    6.76
   6  -7   3    4.25    6.64
  -6  -7  -3   -3.99    6.25
  -6  -8   3   -7.59    8.26
   6  -8   3    3.47    8.01
  -6  -8  -3   -6.98    7.27
   6   0   4  184.31   11.88
  -6   0   4  174.37   11.90
  -6   0  -4  188.34   12.00
  -6  -1   4    9.82    4.73
  -6   1   4    4.26    4.47
   6   1   4    7.63    4.41
  -6   1  -4    3.81    4.13
  -6  -1  -4    4.24    4.22
   6   2   4   13.82    5.20
  -6  -2   4   14.06    5.21
  -6   2   4   28.17    6.44
  -6  -2  -4   33.19    6.18
  -6   2  -4   15.73    5.69
   6   3   4   37.17    6.30
  -6  -3   4   28.00    6.27
  -6  -3   4   26.25    7.54
  -6   3   4   37.01    7.12
  -6  -3  -4   37.51    6.94
  -6  -4  -4   49.18    8.15
  -6  -4   4   41.64    8.78
  -6   4   4   32.66    7.22
  -6   5   4    6.15    6.20
  -6  -5   4   11.42    6.99
  -6  -5  -4   23.31    7.19
  -6   6   4   24.58    7.34
  -6  -6  -4   20.71    7.72
  -6  -6   4   22.93    8.25
  -6  -7   4    7.88    8.69
  -6  -7  -4    9.26    7.76
  -6   0   5   53.55    7.99
  -6   0  -5   65.33    8.76
   6   0   5   59.25    8.34
  -6   1  -5   45.61    7.67
   6  -1   5   43.64    7.47
  -6   1   5   49.69    7.96
  -6  -1  -5   38.71    7.51
  -6  -1   5   56.34    8.18
   6   1   5   52.89    8.36
  -6  -2  -5   20.72    6.61
  -6  -2   5   19.59    6.64
  -6   2   5   20.37    6.75
  -6   2  -5   18.94    6.39
   6   2   5   23.21    6.97
  -6  -3   5   11.89    5.93
  -6  -3  -5   16.08    6.39
   6   3   5    6.92    6.36
  -6   3   5    9.30    6.15
  -6  -4   5    3.33    6.28
  -6  -4  -5   11.70    6.36
  -6   4   5   11.21    6.91
  -6   5   5    1.23    6.16
  -6  -5   5   -1.64    6.50
  -6  -5  -5    1.46    5.97
  -6   6   5    3.30    6.79
  -6  -6  -5    6.28    6.70
  -6  -6   5   10.10    8.34
  -6  -7   5   14.70    9.01
   6   0   6  220.16   16.21
  -6   0  -6  255.68   16.65
  -6   0   6  216.38   15.97
   6   1   6  106.67   12.21
  -6  -1   6   99.36   11.38
   6  -1   6  115.30   12.12
  -6  -1  -6  106.76   11.75
  -6   1  -6   99.16   11.14
  -6   1   6  122.28   12.13
  -6   2  -6   84.13   10.81
  -6  -2  -6   78.16   10.72
  -6   2   6  110.94   12.08
  -6  -2   6   88.65   10.92
   6   2   6  103.41   12.17
   6  -2   6   91.92   11.00
  -6  -3  -6  131.62   13.09
  -6   3   6  133.15   13.64
   6   3   6  124.75   13.59
  -6  -3   6  141.03   12.67
  -6  -4   6   56.59   11.93
  -6   4   6   46.24    9.97
  -6  -4  -6   65.13   10.18
  -6  -5  -6   38.61    9.29
  -6   5   6   29.02    9.55
  -6  -5   6   43.33   11.14
  -6   6   6   20.88    8.70
  -6  -6   6   33.35   11.14
  -6   0   7   71.19   11.50
   6   0   7   45.82   10.74
  -6   0  -7   52.05   10.18
  -6  -1  -7   15.18    8.27
   6   1   7   11.21    8.66
   6  -1   7   13.11    8.39
  -6   1   7    1.00    7.32
  -6   1  -7    9.79    7.56
  -6  -1   7   10.87    7.52
   6   2   7   16.99    9.37
   6  -2   7   15.16    7.91
  -6   2  -7   36.27    9.17
  -6   2   7   34.54    9.69
  -6  -2   7   23.00    8.61
  -6  -2  -7   27.32    9.14
  -6  -3   7   26.22    8.78
   6   3   7    8.94    8.40
  -6   3   7    7.75    8.50
  -6  -3  -7   17.87    8.42
  -6  -4  -7   16.50    8.37
  -6   4   7    1.29    7.93
  -6  -4   7   26.81   10.96
  -6   5   7    0.25    8.43
  -6  -5   7   -8.03    9.75
  -6  -5  -7   -7.25    7.55
   6   0   8    0.09    8.63
  -6   0  -8   14.89    8.74
  -6   0   8    0.82    7.59
  -6  -1  -8   15.22    9.09
  -6  -1   8   38.79    9.94
  -6   1   8   13.49    8.81
   6  -1   8   20.70    9.61
  -6   1  -8   10.27    8.66
   6   1   8   30.69   10.57
  -6  -2   8   -4.78    7.99
   6   2   8   -4.23    9.07
  -6   2   8   -8.95    7.25
  -6  -2  -8    7.93    8.56
   6  -2   8    2.93    7.75
  -6  -3   8   -0.70    8.12
  -6  -3  -8    0.12    8.93
  -6   3   8    4.42    8.65
   6   3   8   -4.46    9.10
  -6  -4  -8   17.35    9.25
  -7   0   0    5.10    2.44
  -7  -1   0    0.08    2.55
  -7   1   0    3.36    2.09
  -7  -2   0   -0.89    2.57
  -7   2   0   -0.21    2.03
  -7  -3   0    0.03    3.35
  -7  -4   0   -0.31    3.98
  -7  -5   0    0.20    4.84
   7  -5   0   -0.43    5.17
   7  -6   0    0.44    6.37
  -7  -6   0   -7.38    5.42
  -7  -7   0   -2.95    7.25
   7  -7   0   -1.56    7.55
   7  -8   0   -2.49    7.77
  -7  -8   0   -0.03    8.67
  -7   0  -1  164.04    9.42
  -7  -1  -1  432.94   17.29
  -7  -1  -1  438.31   18.95
  -7   1  -1  393.85   17.95
  -7   1   1  410.70   16.85
  -7   2  -1  709.00   29.05
  -7  -2  -1  733.41   30.22
  -7  -2   1  696.54   30.76
  -7  -2  -1  732.39   29.41
  -7  -3   1  412.64   20.54
   7  -3   1  399.58   19.73
  -7   3  -1  409.39   18.95
  -7  -3  -1  442.27   19.89
  -7  -3  -1  473.71   21.26
  -7  -4  -1  143.25   10.83
  -7  -4  -1  171.59   12.32
  -7  -4   1  144.90   11.13
   7  -4   1  148.31   11.12
   7  -5   1   88.47   10.51
  -7  -5  -1  105.38   10.46
  -7  -5   1  117.62   10.82
  -7  -5  -1   98.27   11.14
  -7  -6  -1  119.08   13.14
  -7  -6  -1  168.54   13.15
   7  -6   1  133.71   12.51
  -7  -6   1  126.28   12.51
  -7  -7  -1  151.06   14.12
  -7  -7   1  126.63   14.08
  -7  -7  -1  158.10   14.56
   7  -7   1  143.55   14.78
  -7  -8  -1   49.49   10.77
  -7  -8   1   25.80   10.29
  -7  -8  -1   42.33   10.97
   7  -8   1   47.80   10.80
  -7   0  -2 1165.34   45.48
  -7  -1  -2 2283.25   84.30
  -7   1  -2 2227.28   83.62
  -7  -2  -2 2661.32  100.88
   7  -2   2 2689.98  103.19
  -7   2  -2 2709.28  100.39
  -7  -2  -2 2787.43  103.31
   7  -3   2 1786.71   70.14
  -7   3  -2 1794.03   68.24
  -7  -3  -2 1811.88   70.14
  -7  -3  -2 1837.64   69.26
  -7  -3   2 1757.94   71.96
  -7  -3   2 1734.35   67.96
  -7  -4   2  665.20   31.03
  -7  -4  -2  655.21   29.64
  -7  -4  -2  709.82   30.82
   7  -4   2  633.17   29.55
  -7  -5  -2  410.34   21.39
  -7  -5  -2  452.38   22.66
  -7  -5   2  376.19   21.80
   7  -5   2  385.52   21.00
   7  -6   2  450.81   24.74
  -7  -6  -2  521.30   26.18
  -7  -6   2  450.56   25.71
  -7  -6  -2  486.16   25.84
   7  -7   2  352.60   22.45
  -7  -7   2  391.92   23.89
  -7  -7  -2  408.38   23.93
  -7  -7  -2  413.17   23.88
   7  -8   2  130.72   14.96
  -7  -8  -2  137.69   15.25
  -7  -8  -2  168.09   15.36
  -7  -8   2  124.96   15.68
  -7   0  -3  471.31   21.66
  -7  -1  -3 1392.10   54.81
  -7   1  -3 1395.80   54.68
  -7  -1   3 1411.32   55.38
  -7   2  -3 1635.17   63.10
  -7  -2  -3 1623.48   63.15
  -7  -2   3 1599.02   63.03
  -7  -3  -3 1158.12   48.65
  -7  -3   3 1231.51   51.17
  -7  -3   3 1177.34   47.59
  -7   3  -3 1204.67   48.53
  -7  -4   3  490.36   24.97
  -7  -4  -3  480.38   24.46
  -7  -5  -3  234.20   16.08
  -7  -5   3  250.46   16.41
  -7  -6  -3  389.29   22.08
  -7  -6   3  352.29   21.95
  -7  -7   3  308.34   20.99
  -7  -7  -3  286.30   19.71
  -7  -8   3  129.60   16.96
  -7  -8  -3  150.20   15.46
  -7   0   4  393.82   20.15
  -7   0  -4  410.88   20.32
  -7   1   4  281.86   16.04
  -7  -1  -4  272.20   15.54
  -7   1  -4  265.08   15.70
  -7  -1   4  262.64   15.32
  -7  -2  -4  889.79   38.01
  -7   2  -4  891.54   38.33
  -7  -2   4  886.80   37.82
   7   2   4  887.70   37.59
  -7  -3   4  294.42   18.60
  -7   3   4  303.30   17.69
  -7   3  -4  320.13   18.03
   7   3   4  292.47   16.09
  -7  -3   4  302.88   16.97
  -7  -3  -4  298.52   17.64
  -7  -4  -4  292.55   17.99
  -7  -4   4  302.70   18.92
  -7  -5   4  103.15   12.24
  -7   5   4   98.74   10.58
  -7  -5  -4   80.53   11.03
  -7  -6  -4  168.74   14.81
  -7   6   4  177.26   14.11
  -7  -6   4  205.54   16.12
  -7  -7  -4  139.60   14.70
  -7  -7   4  161.25   15.49
  -7   0   5   -0.88    5.18
  -7   0  -5   -2.21    4.50
   7   0   5    1.85    5.30
  -7  -1  -5   66.86    9.40
   7   1   5   91.62   10.12
  -7   1  -5   74.03    9.58
  -7  -1   5  104.70   10.20
  -7   1   5   84.97   10.04
  -7  -2  -5   22.47    6.63
  -7   2   5   20.10    6.56
  -7   2  -5   29.85    7.36
   7   2   5   28.65    7.29
  -7  -2   5   25.47    6.94
   7   3   5   79.60    9.57
  -7   3  -5   70.06    9.86
  -7  -3   5   52.81    8.96
  -7   3   5   70.62    9.63
  -7  -3  -5   49.45    8.74
  -7   4   5    3.86    6.20
  -7  -4   5   16.03    7.94
  -7  -4  -5    6.38    6.39
  -7  -5   5   13.95    7.81
  -7  -5  -5    4.16    6.71
  -7   5   5    9.05    7.42
  -7   6   5   11.88    7.93
  -7  -6  -5    7.79    7.21
  -7  -6   5   20.33    8.76
  -7   0  -6  140.18   13.60
   7   0   6  133.99   12.70
  -7   0   6  146.38   12.86
  -7  -1   6  112.86   12.41
  -7  -1  -6  106.63   12.31
   7   1   6  116.05   12.77
  -7   1  -6   89.19   11.29
   7  -1   6  100.23   11.88
  -7   1   6  124.49   12.53
   7   2   6  136.08   13.89
  -7  -2   6  123.67   13.10
  -7   2   6  131.35   13.73
  -7   2  -6  123.73   12.85
  -7  -2  -6  137.72   12.91
  -7   3   6   96.02   12.00
  -7  -3  -6   72.18   10.82
  -7  -3   6   87.80   11.21
   7   3   6   94.68   12.21
  -7  -4   6  102.05   13.79
  -7  -4  -6   88.89   11.66
  -7   4   6  100.50   12.64
  -7   5   6   32.25    9.69
  -7  -5   6   48.15   10.83
  -7  -5  -6   60.12   10.40
  -7  -6  -6   73.16   11.13
  -7   6   6   41.61   10.26
  -7  -6   6   39.06   10.95
  -7   0  -7  345.96   21.87
  -7   0   7  358.70   22.36
   7   0   7  336.21   22.17
   7  -1   7  390.71   24.30
  -7  -1   7  410.98   24.90
   7   1   7  403.71   25.19
  -7  -1  -7  455.68   25.29
  -7   1  -7  422.08   24.24
  -7   1   7  438.84   25.55
  -7  -2   7  305.16   20.99
  -7   2   7  337.64   22.09
  -7   2  -7  351.02   21.52
  -7  -2  -7  375.16   22.44
   7   2   7  328.19   22.73
   7   3   7  218.33   19.52
  -7   3   7  250.79   19.42
  -7  -3   7  273.99   18.68
  -7  -3  -7  311.76   19.83
  -7  -4  -7  222.64   17.75
  -7   4   7  222.49   18.23
  -7  -4   7  202.71   19.08
  -7  -5  -7  151.98   15.59
  -7   5   7  150.59   16.48
   7   0   8  162.81   17.23
  -7   0   8  150.13   16.33
  -7   0  -8  139.17   15.49
  -7   1  -8  162.48   16.88
  -7  -1  -8  172.00   17.53
   7  -1   8  195.79   17.51
   7   1   8  179.77   17.38
  -7  -1   8  215.53   17.58
  -7   1   8  204.84   18.13
   7   2   8  113.75   16.10
  -7   2   8  140.80   16.28
  -7  -2  -8  144.93   16.26
  -7  -2   8  145.12   15.73
   7  -2   8  137.06   16.28
   7   3   8   59.49   14.25
  -7  -3  -8  153.72   16.14
  -7  -4  -8  153.19   17.08
  -8   0   0 1331.73   50.39
  -8   1   0  496.21   20.90
  -8  -1   0  514.75   22.04
  -8  -2   0 2448.84   91.91
  -8   2   0 2504.44   89.87
  -8  -2   0 2442.38   95.05
  -8  -3   0  603.11   26.78
  -8  -4   0 1018.25   43.32
  -8  -5   0  141.87   11.81
  -8  -6   0  653.19   32.10
   8  -7   0  336.06   21.97
  -8  -7   0  374.19   23.03
   8  -8   0  130.00   14.90
  -8  -8   0  105.17   14.74
  -8   0   1  457.83   19.06
  -8   0  -1  442.77   19.93
  -8  -1  -1 1281.36   50.56
  -8  -1  -1 1327.52   50.49
  -8   1   1 1312.29   48.62
  -8   1  -1 1316.17   49.86
  -8   2  -1 1084.99   42.24
  -8  -2   1 1117.25   44.76
  -8  -2  -1 1088.78   43.43
  -8  -2  -1 1037.04   42.85
  -8  -3  -1  948.57   39.36
  -8  -3   1  931.22   39.92
  -8   3  -1  950.77   37.52
  -8  -3  -1  931.04   38.78
  -8  -4   1  640.65   28.41
  -8  -4  -1  554.97   27.80
   8  -4   1  638.77   27.98
  -8  -4  -1  550.93   27.13
   8  -5   1  190.96   13.24
  -8  -5  -1  143.88   13.24
  -8  -5  -1  181.90   13.19
  -8  -5   1  193.34   13.67
  -8  -6  -1  414.69   23.77
  -8  -6   1  447.13   24.58
  -8  -6  -1  418.33   24.21
   8  -6   1  465.76   24.24
  -8  -7   1  253.70   17.86
   8  -7   1  232.18   17.34
  -8  -7  -1  207.05   16.92
  -8  -7  -1  230.33   17.80
  -8  -8  -1   84.23   13.05
  -8  -8  -1   90.56   13.26
   8  -8   1  106.34   13.61
  -8  -8   1  100.17   14.24
  -8   0  -2  455.47   20.82
  -8   1  -2  399.29   17.97
  -8  -1  -2  348.56   18.01
  -8   1   2  369.54   15.54
  -8   2  -2  470.04   21.67
  -8  -2  -2  461.06   22.08
  -8  -3   2  329.10   17.75
  -8  -3  -2  286.47   17.02
  -8   3  -2  316.36   16.51
  -8  -3   2  322.54   15.24
  -8  -4   2  289.41   16.35
  -8  -4  -2  220.48   15.69
  -8  -5  -2   55.76    9.89
  -8  -5   2   76.70   10.17
  -8  -6  -2  140.58   14.26
  -8  -6   2  143.99   13.31
  -8  -7   2   80.43   12.25
  -8  -7  -2   75.26   11.85
  -8  -8   2   24.30   10.38
  -8  -8  -2   27.82    9.76
  -8   0  -3    8.90    4.32
  -8   1  -3   95.01    8.80
  -8  -1  -3  115.18    9.17
  -8   2  -3   83.19    8.93
  -8  -2  -3   91.43    9.03
  -8  -2   3   62.26    7.41
  -8  -3  -3   62.58    8.61
  -8  -3   3   42.11    6.28
  -8   3  -3   39.03    7.29
  -8  -3   3   35.12    8.09
  -8  -4   3   13.33    5.92
  -8  -4  -3   14.46    6.67
  -8  -5   3   35.93    8.54
  -8  -5  -3   60.13    9.72
  -8  -6  -3   12.83    8.17
  -8  -6   3   11.35    7.32
  -8  -7   3   14.68    8.64
  -8  -7  -3   22.81    9.12
  -8  -8  -3   12.35    8.42
  -8   0  -4  160.56   11.66
  -8   0   4  153.75   11.76
  -8   1  -4  734.73   32.75
  -8  -1   4  752.22   32.57
  -8  -1  -4  707.07   32.29
  -8  -2  -4  535.73   25.62
  -8   2  -4  511.37   25.57
  -8  -2   4  511.78   24.55
  -8  -3  -4  413.20   22.56
  -8  -3   4  442.12   21.60
  -8   3  -4  431.63   22.80
  -8  -3   4  427.74   23.85
  -8  -4  -4  209.11   15.18
  -8  -4   4  202.02   15.40
  -8  -5  -4  216.49   16.20
  -8  -5   4  208.02   16.19
  -8   6   4  147.90   13.67
  -8  -6   4  129.36   14.98
  -8  -6  -4  189.73   15.52
  -8  -7   4  121.91   15.40
  -8  -7  -4  161.23   16.08
  -8   0  -5  158.62   12.39
  -8   0   5  132.29   11.78
  -8  -1  -5  546.76   26.28
  -8  -1   5  497.10   25.69
  -8   1  -5  527.04   26.53
  -8   1   5  521.19   26.22
  -8   2   5  475.67   24.58
  -8  -2  -5  455.44   24.24
  -8   2  -5  494.21   24.95
  -8  -2   5  452.87   23.78
  -8   3  -5  306.61   18.81
  -8  -3   5  292.59   18.07
  -8  -3  -5  278.06   18.02
  -8   3   5  299.47   18.45
  -8   4   5  230.63   15.95
  -8  -4  -5  185.41   15.35
  -8  -4   5  215.22   17.06
  -8  -5   5  163.54   15.29
  -8   5   5  165.48   14.34
  -8  -5  -5  189.09   15.49
  -8   6   5  149.07   13.76
  -8  -6  -5  172.60   15.27
  -8  -6   5  121.91   15.19
  -8  -7  -5  164.59   15.41
  -8   0   6  449.18   24.20
  -8   0  -6  421.93   24.00
  -8   1   6 1122.30   49.87
  -8   1  -6 1109.71   49.24
  -8  -1   6 1190.35   50.20
   8   1   6 1127.44   49.80
  -8  -1  -6 1121.34   49.12
  -8  -2   6  716.67   34.52
  -8   2  -6  671.22   33.63
  -8   2   6  664.08   34.04
  -8  -2  -6  667.14   33.66
   8   2   6  788.06   35.04
  -8   3   6  616.80   31.02
   8   3   6  595.72   30.68
  -8  -3  -6  588.46   30.50
  -8  -4   6  406.90   25.19
  -8   4   6  384.70   23.36
  -8  -5   6  277.26   20.79
  -8  -5  -6  285.71   19.66
  -8   5   6  297.56   19.93
  -8   6   6  202.94   16.87
  -8  -6  -6  181.60   16.08
  -8   0   7  152.28   15.63
  -8   0  -7  120.19   14.26
   8   0   7  157.68   15.96
  -8  -1   7  286.57   20.04
  -8   1   7  274.19   19.92
  -8  -1  -7  282.91   19.84
  -8   1  -7  269.26   19.09
   8   1   7  296.77   20.70
  -8  -2   7  163.18   15.31
  -8   2   7  166.40   15.69
  -8  -2  -7  170.92   15.27
   8   2   7  171.16   15.87
  -8   2  -7  152.53   15.48
  -8   3   7   94.05   13.38
  -8  -3  -7  112.68   14.15
  -8   4   7  122.80   14.98
  -8  -4   7  115.75   15.47
  -8  -4  -7  129.66   15.16
  -8  -5  -7   87.43   13.31
   8   0   8    2.34    9.06
  -8   0  -8   11.18    8.76
  -8   0   8    2.77    8.63
  -8   1   8   13.52    9.63
   8   1   8   -2.54    8.72
  -8   1  -8   -0.51    8.00
  -8  -1  -8  -12.26    8.03
  -8  -1   8    1.92    8.53
  -8  -2   8   10.40    9.17
  -8  -2  -8   -3.01    9.05
   8   2   8    1.10    8.85
  -9   0   0    4.57    2.74
  -9  -1   0    1.12    3.06
  -9   1   0    5.76    2.67
  -9  -2   0    1.98    3.32
  -9  -2   0   -0.22    3.48
  -9   2   0    3.50    2.43
  -9  -3   0    0.01    4.38
  -9  -3   0   -0.75    3.78
  -9  -4   0    3.56    5.05
  -9  -5   0   -5.21    4.92
  -9  -6   0   -1.36    5.55
  -9  -7   0   -2.42    7.00
  -9  -8   0    2.75    8.78
  -9  -8   0   -0.88    8.45
  -9   0   1  239.64   12.00
  -9   0  -1  237.60   12.84
  -9   1   1  120.99    7.24
  -9   1  -1  115.34    8.17
  -9  -1  -1  118.09    8.76
  -9  -2   1   58.02    7.23
  -9   2  -1   62.58    6.43
  -9  -2  -1   70.84    7.66
  -9  -3   1   52.81    7.44
  -9  -3  -1   46.83    7.25
  -9  -4  -1   92.06   10.53
  -9  -4   1  108.25    9.80
  -9  -5   1   60.86    9.11
  -9  -5  -1   68.79   10.32
  -9  -6  -1   27.83    8.87
  -9  -6   1   25.33    8.45
  -9  -7  -1   26.36    8.85
  -9  -7   1    6.69    7.90
  -9  -8   1    5.50    9.68
  -9  -8  -1   14.05    9.92
  -9   0  -2  656.17   28.43
  -9   1  -2  740.69   31.75
  -9  -1  -2  779.24   32.63
  -9   2  -2  191.13   12.15
  -9  -2  -2  176.69   12.19
  -9  -3   2  297.22   16.89
  -9  -3  -2  289.29   16.60
  -9   3  -2  265.31   15.56
  -9  -4  -2  320.08   18.53
  -9  -4   2  288.67   17.66
  -9  -5  -2  246.00   17.01
  -9  -5   2  238.70   16.37
  -9  -6   2   83.84   11.79
  -9  -6  -2  102.93   13.07
  -9  -7   2   48.71   10.70
  -9  -7  -2   46.39   10.70
  -9  -8  -2   42.42   11.51
  -9  -8   2   30.06   10.82
  -9   0  -3  564.53   25.93
  -9   1  -3  491.44   23.08
  -9  -1  -3  471.18   23.18
  -9  -2   3  170.55   11.59
  -9  -2  -3  179.32   12.59
  -9   2  -3  178.64   12.51
  -9   3  -3  174.30   12.41
  -9  -3   3  147.70   12.42
  -9  -3  -3  140.50   12.08
  -9  -4  -3  281.61   18.38
  -9  -4   3  320.18   18.93
  -9  -5  -3  154.51   14.06
  -9  -5   3  181.87   14.26
  -9  -6  -3   87.73   12.00
  -9  -6   3   75.95   11.67
  -9  -7   3   29.75   10.95
  -9  -7  -3   29.36    9.97
  -9   0  -4  316.59   17.62
  -9   0   4  298.46   17.72
  -9   1  -4   42.77    7.74
  -9   1   4   55.03    9.15
  -9  -1  -4   69.20    8.71
  -9  -1   4   61.99    8.62
  -9   2  -4   84.34   10.00
  -9  -2  -4   97.32   10.45
  -9  -2   4   98.16    9.80
  -9  -3   4   21.78    7.69
  -9  -3  -4   17.71    7.01
  -9   3  -4   17.27    6.74
  -9  -4  -4  117.75   13.24
  -9  -4   4  168.61   13.95
  -9  -5  -4   56.61   10.75
  -9  -5   4   49.55   10.19
  -9  -6   4   39.00   10.72
  -9  -6  -4   44.33   10.14
  -9   6   4   41.50    9.19
  -9  -7  -4    9.97    8.58
  -9  -7   4   15.42    9.73
  -9   0   5   -3.17    5.23
  -9   0  -5    2.53    5.35
  -9   1   5   19.78    6.96
  -9  -1   5   12.69    6.32
  -9   1  -5   21.10    7.05
  -9  -1  -5    0.43    5.37
  -9  -2   5    8.53    5.80
  -9   2   5   -7.73    5.43
  -9   2  -5   -0.21    5.97
  -9  -2  -5    8.91    6.95
  -9   3  -5    3.89    6.40
  -9   3   5   10.79    6.65
  -9  -3  -5    1.61    6.35
  -9  -4   5    8.94    7.35
  -9  -4  -5   -0.97    6.67
  -9   4   5    1.65    7.49
  -9  -5   5   12.62    8.37
  -9  -5  -5    2.41    6.95
  -9   5   5   13.65    7.61
  -9   6   5    1.11    6.87
  -9  -6  -5   -6.64    7.59
  -9  -6   5   -5.02    7.62
  -9   0  -6   28.01    8.43
  -9   0   6   33.93    8.74
  -9  -1  -6   19.03    8.52
  -9   1  -6   29.46    8.15
  -9   1   6    4.09    7.32
  -9  -1   6   33.75    8.08
  -9  -2  -6   41.39   10.15
  -9   2   6   49.79    9.59
  -9  -2   6   45.10    9.72
  -9   2  -6   43.83    9.38
  -9   3  -6   20.10    8.49
  -9   3   6   14.70    8.41
  -9  -3  -6   26.99    8.96
  -9   4   6   19.64    8.53
  -9  -4  -6    8.23    8.07
  -9  -4   6   26.10   10.34
  -9   5   6   18.42    8.77
  -9  -5  -6    9.62    7.97
  -9  -5   6   16.77    9.44
  -9   0   7   87.31   12.63
  -9   0  -7   96.40   13.09
  -9  -1  -7  101.76   13.80
  -9   1   7  118.78   13.75
  -9  -1   7   93.17   13.34
  -9   1  -7   97.54   12.58
  -9  -2  -7  113.74   14.18
  -9   2  -7   85.56   12.58
  -9   2   7  120.56   14.10
  -9  -2   7   96.03   13.29
  -9  -3  -7   92.32   13.36
  -9   3   7   56.09   10.99
  -9  -4  -7   67.60   12.66
  -9   0   8   45.97   12.33
  -9  -1   8   74.65   13.06
  -9  -2   8   47.79   11.28
 -10   0   0   16.78    4.16
 -10   1   0  111.44    7.63
 -10  -1   0   96.34    8.13
 -10  -2   0  389.00   19.33
 -10  -3   0  203.23   13.28
 -10  -4   0   46.72    7.94
 -10  -4   0   61.12    8.14
 -10  -5   0   14.71    6.79
 -10  -5   0   -0.15    5.08
 -10  -6   0   83.32   12.26
 -10  -7   0   88.71   13.09
 -10   0   1   52.77    5.66
 -10   0  -1   48.79    6.25
 -10  -1  -1  257.56   14.18
 -10   1   1  243.92   12.21
 -10  -1   1  242.53   13.33
 -10   1  -1  253.14   13.30
 -10   2  -1  421.17   19.73
 -10  -2   1  432.26   20.92
 -10  -2  -1  417.79   20.87
 -10  -3  -1  255.36   15.79
 -10  -3   1  279.52   15.74
 -10  -4  -1  114.72   10.86
 -10  -4   1  120.56   10.68
 -10  -5   1    3.42    6.04
 -10  -5  -1   15.99    7.52
 -10  -6  -1  124.47   14.06
 -10  -6   1  124.94   12.48
 -10  -7  -1   93.08   13.49
 -10  -7   1  105.96   13.50
 -10  -8   1   26.90   11.16
 -10   0  -2   56.16    6.93
 -10  -1  -2   16.04    5.02
 -10   1  -2   13.82    4.63
 -10   2  -2  115.11    9.75
 -10  -2  -2  114.79    9.95
 -10  -3  -2   -0.22    4.49
 -10   3  -2    3.55    4.86
 -10  -3   2    2.08    5.00
 -10  -4  -2   35.86    8.29
 -10  -4   2   45.42    8.35
 -10  -5   2   14.23    7.35
 -10  -5  -2   15.60    7.65
 -10  -6   2   26.39    8.35
 -10  -6  -2   22.43    9.21
 -10  -7   2   11.62    8.33
 -10  -7  -2    5.51    8.50
 -10   0  -3    3.50    4.45
 -10  -1  -3   17.12    5.82
 -10   1  -3   18.63    5.76
 -10   2  -3   28.06    6.88
 -10  -2   3    7.73    5.56
 -10  -2  -3   48.73    7.81
 -10  -3  -3   13.03    5.96
 -10   3  -3    0.08    5.28
 -10  -3   3   16.00    6.87
 -10  -4  -3   12.78    6.91
 -10  -4   3    1.61    6.16
 -10  -5  -3   30.91    9.01
 -10  -5   3   11.01    6.96
 -10  -6   3   -0.69    6.88
 -10  -6  -3   -5.13    7.23
 -10  -7   3    2.32    8.54
 -10  -7  -3   18.77    9.91
 -10   0   4   -5.98    5.48
 -10   0  -4    1.92    4.89
 -10  -1  -4  107.22   10.83
 -10  -1   4   71.79    9.87
 -10   1  -4  112.16   11.07
 -10   2  -4  100.04   10.90
 -10  -2   4   86.55    9.77
 -10  -2  -4  104.76   11.14
 -10  -3  -4   57.10    9.69
 -10  -3   4   48.91    9.62
 -10   3  -4   49.69    8.59
 -10  -4   4   -2.49    6.45
 -10  -4  -4   13.18    7.62
 -10  -5  -4   26.26    8.44
 -10  -5   4   18.35    7.98
 -10  -6  -4   24.49    9.59
 -10  -6   4   16.77    9.23
 -10   0  -5   32.73    8.02
 -10   0   5   41.97    8.77
 -10   1   5  272.17   18.02
 -10  -1   5  278.40   17.41
 -10   1  -5  279.48   18.18
 -10  -1  -5  274.15   17.78
 -10   2   5  226.45   16.53
 -10  -2  -5  253.54   17.16
 -10  -2   5  226.08   15.68
 -10   2  -5  213.17   16.21
 -10   3   5  153.93   14.05
 -10  -3  -5  160.65   14.21
 -10   3  -5  163.27   14.23
 -10  -4   5  100.57   13.50
 -10  -4  -5   80.72   12.28
 -10   4   5   86.03   11.68
 -10  -5  -5   75.95   12.46
 -10   5   5   78.96   11.67
 -10  -5   5   80.60   12.95
 -10  -6  -5   65.40   12.17
 -10   6   5   59.86   11.06
 -10   0  -6    5.73    6.61
 -10   0   6   -3.39    6.45
 -10   1   6   37.01    9.40
 -10  -1   6   44.72    9.27
 -10   1  -6   53.99   10.03
 -10  -1  -6   40.76    9.47
 -10  -2   6   62.53   10.43
 -10  -2  -6   48.89   10.48
 -10   2  -6   52.79    9.84
 -10   2   6   66.73   11.08
 -10   3   6   21.32    8.64
 -10   3  -6   28.47    9.08
 -10  -3  -6   20.02    9.27
 -10  -4   6   14.52    9.56
 -10  -4  -6   25.19    9.34
 -10   4   6   24.06    9.24
 -10   5   6   10.11    8.77
 -10  -5  -6    9.39    8.94
 -10   0  -7    0.18    7.38
 -10   0   7   11.79    8.08
 -10   1  -7   36.02    9.63
 -10   1   7   25.54    9.36
 -10  -1  -7   38.32   10.97
 -10  -1   7   20.39    9.76
 -10  -2   7   16.83    8.11
 -10   2   7   10.13    8.85
 -10  -2  -7   12.65    8.72
 -10   2  -7   12.99    8.62
 -10  -3  -7   10.64    9.74
 -11   0   0   -3.84    2.73
 -11  -1   0    1.96    3.79
 -11   1   0   -1.45    2.96
 -11  -2   0   -1.89    3.70
 -11  -3   0   -4.94    4.26
 -11  -4   0   -3.84    5.10
 -11  -5   0   -0.04    5.68
 -11  -6   0   -2.07    7.36
 -11  -7   0   10.17    8.92
 -11   0   1  190.07   11.11
 -11   0  -1  185.63   11.78
 -11  -1  -1  462.40   21.61
 -11   1  -1  438.05   20.49
 -11  -1   1  416.42   20.46
 -11  -2   1  193.93   13.04
 -11  -2  -1  234.09   13.98
 -11  -2   1  219.00   13.60
 -11  -3  -1  247.87   15.54
 -11  -3   1  241.58   14.88
 -11  -4   1  174.25   12.85
 -11  -4  -1  184.44   13.64
 -11  -5  -1  128.33   13.27
 -11  -5   1  116.72   12.45
 -11  -6  -1  106.51   13.53
 -11  -7  -1   66.52   12.49
 -11   0  -2  902.24   38.12
 -11  -1  -2  588.00   27.66
 -11   1  -2  614.68   27.20
 -11   2  -2  859.79   35.91
 -11  -2  -2  808.13   36.57
 -11  -3  -2  361.68   20.04
 -11  -3   2  331.39   19.34
 -11  -4   2  564.14   28.75
 -11  -4  -2  601.47   29.19
 -11  -5   2  215.98   15.68
 -11  -5  -2  201.55   16.43
 -11  -6   2  243.34   18.44
 -11  -6  -2  280.58   20.05
 -11  -7   2  122.66   15.36
 -11  -7  -2  155.10   16.80
 -11   0  -3  421.87   21.72
 -11  -1  -3  868.69   38.20
 -11   1  -3  875.98   37.77
 -11   2  -3  439.34   22.64
 -11  -2  -3  425.17   22.72
 -11  -3   3  449.19   24.23
 -11   3  -3  428.03   23.28
 -11  -3  -3  467.15   24.49
 -11  -4  -3  390.69   23.61
 -11  -4   3  428.19   23.46
 -11  -5  -3  269.40   19.36
 -11  -5   3  256.37   18.01
 -11  -6   3  229.35   17.51
 -11  -6  -3  203.46   18.00
 -11  -7   3  141.16   16.92
 -11   0   4  255.19   17.53
 -11   0  -4  293.26   17.30
 -11   1  -4  427.61   23.05
 -11  -1  -4  403.55   22.70
 -11  -1   4  460.57   23.25
 -11  -2   4  222.16   14.83
 -11   2  -4  236.30   16.10
 -11  -2  -4  199.71   15.22
 -11   3  -4  200.88   15.02
 -11  -3  -4  203.99   15.54
 -11  -4   4  256.38   17.81
 -11  -4  -4  217.75   17.63
 -11  -5  -4  152.78   16.26
 -11  -5   4  151.03   14.57
 -11  -6  -4  105.61   14.77
 -11  -6   4   97.65   14.10
 -11   0   5   58.87   10.07
 -11   0  -5   68.99   10.13
 -11  -1   5   62.81    9.57
 -11   1   5   53.36   10.13
 -11   1  -5   62.82   10.05
 -11  -1  -5   55.96    9.41
 -11  -2   5   17.73    7.36
 -11   2   5   14.68    8.87
 -11   2  -5   25.03    8.04
 -11  -2  -5   13.62    7.31
 -11   3   5   27.40    9.01
 -11   3  -5   19.33    7.87
 -11  -3  -5   16.25    8.01
 -11  -4  -5   49.95   10.94
 -11   4   5   26.31    9.68
 -11  -4   5   57.56   11.45
 -11  -5   5   24.16    9.20
 -11  -5  -5   13.32    9.28
 -11   5   5   16.58    8.82
 -11   0  -6   16.37    8.15
 -11   0   6   -3.14    6.56
 -11   1   6   68.26   11.47
 -11  -1   6   74.64   10.99
 -11  -1  -6   70.13   11.26
 -11   1  -6   67.10   10.86
 -11   2   6   54.47   10.50
 -11  -2  -6   32.27    9.69
 -11   2  -6   45.17    9.92
 -11  -2   6   40.37    9.25
 -11   3  -6   44.28   10.35
 -11   3   6   48.30   10.60
 -11  -3  -6   38.77   10.13
 -11  -4   6   11.20    9.43
 -11  -4  -6   12.28    9.31
 -11   4   6   12.92    8.75
 -11   0  -7  153.27   16.73
 -11   0   7  178.26   16.38
 -11   1   7  191.26   17.82
 -11   1  -7  203.54   17.74
 -11  -1  -7  219.16   18.15
 -11  -1   7  224.25   18.26
 -11   2  -7  208.22   17.64
 -11  -2   7  218.44   18.20
 -12   0   0  889.80   36.90
 -12  -1   0  599.16   26.95
 -12  -2   0  232.56   14.38
 -12  -3   0  232.89   15.14
 -12  -4   0  391.48   21.60
 -12  -5   0  446.46   24.41
 -12  -6   0   98.45   12.32
 -12   0  -1  960.48   39.90
 -12   0   1  962.27   38.95
 -12  -1   1 1316.94   52.94
 -12   1  -1 1375.57   52.92
 -12  -1  -1 1329.73   53.83
 -12  -2   1  355.74   18.81
 -12  -2  -1  373.70   19.68
 -12  -3  -1  602.45   28.98
 -12  -4  -1  452.58   24.29
 -12  -5  -1  656.46   32.57
 -12  -6  -1  147.91   15.69
 -12   0  -2  339.35   18.40
 -12  -1  -2  101.32   10.24
 -12   1  -2  100.87    9.35
 -12  -1   2  110.71    9.45
 -12  -2   2  159.00   11.94
 -12  -2  -2  150.15   12.37
 -12   2  -2  166.38   11.89
 -12  -3  -2   29.77    7.49
 -12  -3   2   39.51    7.54
 -12  -4  -2   81.18   11.09
 -12  -4   2  146.30   12.02
 -12  -5  -2   95.63   12.83
 -12  -5   2  104.82   12.16
 -12  -6  -2   36.46   10.27
 -12   0  -3  160.79   12.48
 -12   1  -3   15.92    5.95
 -12  -1  -3   20.09    6.51
 -12   2  -3   60.03    8.79
 -12  -2  -3   72.49    9.52
 -12  -3  -3   37.59    8.67
 -12  -3   3   30.19    8.04
 -12  -4  -3   89.99   11.97
 -12  -4   3   72.93   10.76
 -12  -5   3   13.80    7.70
 -12  -5  -3   16.27    9.15
 -12  -6  -3   22.19    9.91
 -12  -6   3   25.65    9.84
 -12   0  -4  470.09   24.58
 -12   1  -4  228.44   16.03
 -12  -1  -4  238.73   16.31
 -12  -1   4  224.12   16.38
 -12  -2  -4  196.63   14.98
 -12  -2   4  203.38   14.63
 -12   2  -4  173.35   14.71
 -12  -3  -4  194.84   15.34
 -12  -3   4  164.74   14.37
 -12   3  -4  173.25   14.47
 -12  -4   4  227.30   17.28
 -12  -4  -4  238.61   18.27
 -12  -5  -4  112.27   14.23
 -12  -5   4  104.70   13.86
 -12  -6   4  102.24   14.96
 -12   0  -5  749.41   36.06
 -12   0   5  759.95   36.52
 -12  -1  -5  471.41   26.05
 -12   1  -5  467.87   26.16
 -12   1   5  472.75   26.77
 -12  -1   5  516.06   26.42
 -12   2  -5  363.03   22.12
 -12  -2   5  355.80   21.15
 -12  -2  -5  363.54   22.27
 -12   3  -5  320.84   21.15
 -12  -3  -5  354.08   22.23
 -12  -4  -5  391.70   24.56
 -12  -4   5  349.55   23.21
 -12  -5   5  205.75   17.84
 -12   0   6  548.37   30.43
 -12   0  -6  587.49   30.98
 -12  -1   6  275.87   19.05
 -12  -1  -6  229.69   18.69
 -12   1  -6  271.03   19.22
 -12   1   6  282.50   19.65
 -12   2  -6  270.96   19.73
 -12   2   6  270.94   20.49
 -12  -2  -6  306.69   20.63
 -12  -3  -6  180.93   16.90
 -12   3  -6  194.41   17.00
 -12   3   6  185.97   16.51
 -12   0   7  181.87   17.08
 -12  -1   7   98.47   13.81
 -13   0   0    2.81    3.92
 -13  -1   0    5.65    4.15
 -13  -2   0    7.61    4.78
 -13  -3   0    3.07    4.97
 -13  -4   0    8.41    5.77
 -13  -5   0    2.00    6.42
 -13  -6   0    3.40    7.09
 -13   0  -1   64.68    7.90
 -13  -1  -1   48.60    7.38
 -13  -1   1   42.20    6.79
 -13  -2  -1    9.46    5.40
 -13  -2   1    8.69    5.04
 -13  -3  -1   33.30    7.40
 -13  -3   1   32.64    6.96
 -13  -4  -1   21.16    6.76
 -13  -4   1    7.42    6.12
 -13  -5  -1   42.73    9.37
 -13  -5   1   28.07    8.41
 -13  -6  -1    3.98    7.34
 -13  -6   1   -8.68    6.22
 -13   0  -2  266.85   16.05
 -13   1  -2   22.31    5.81
 -13  -1  -2   17.48    5.99
 -13  -2   2   67.74    9.15
 -13  -2  -2   66.30    9.40
 -13  -3  -2   30.94    7.47
 -13  -4  -2   61.57   10.16
 -13  -5  -2   43.27    9.68
 -13   0  -3   90.29   10.37
 -13   1  -3   34.46    7.40
 -13  -1  -3   35.97    7.53
 -13  -2  -3   30.89    7.84
 -13   2  -3   21.71    6.95
 -13  -3   3   37.62    8.47
 -13  -3  -3   35.54    8.67
 -13  -4  -3    8.00    7.02
 -13  -4   3   25.55    7.65
 -13  -5  -3   45.18   10.66
 -13   0  -4   35.76    8.14
 -13   1  -4   26.12    7.70
 -13  -1  -4   22.32    7.50
 -13  -1   4   16.85    8.90
 -13   2  -4   16.01    7.45
 -13  -2  -4   19.06    7.47
 -13  -3   4   36.19    8.96
 -13  -3  -4   38.86    9.04
 -13  -4   4   13.35    7.72
 -13  -4  -4   -6.75    7.12
 -13  -5   4   40.50   10.09
 -13   0  -5   27.63    8.43
 -13   0   5    3.49    8.14
 -13   1   5   -2.92    8.47
 -13   1  -5    0.19    6.81
 -13  -1  -5    5.33    7.06
 -13  -1   5    8.22    7.46
 -13  -2  -5   32.46    9.24
 -13   2   5   16.77   10.35
 -13   2  -5   39.14    9.22
 -13  -3   5   15.84    8.23
 -13  -3  -5   16.47    8.59
 -13   3  -5    5.35    7.08
 -13   3   5    2.88    9.97
 -13  -4   5    0.42    8.00
 -13   0  -6   14.03    9.23
 -13   0   6   12.70    8.49
 -13  -1  -6    1.64    7.65
 -13  -1   6   -8.78    7.09
 -13   1  -6   -5.80    7.49
 -13   1   6   10.01    9.15
 -13   2  -6   -0.04    8.15
 -13   3  -6    7.96    8.53
 -14  -1   0  485.99   24.03
 -14  -2   0  183.46   13.34
 -14  -3   0  129.79   11.55
 -14  -4   0  249.28   16.93
 -14  -5   0  201.67   15.93
 -14   0  -1   35.82    6.75
 -14  -1  -1   93.15   10.21
 -14  -2   1   13.95    5.72
 -14  -2  -1   10.11    5.69
 -14  -3  -1    6.87    5.45
 -14  -3   1   14.86    6.28
 -14  -4   1   51.96    9.04
 -14  -4  -1   51.76    9.41
 -14  -5  -1   59.56   10.25
 -14  -5   1   56.21   10.06
 -14   0  -2    7.79    5.14
 -14  -1  -2   74.85    9.59
 -14  -2   2   18.65    6.63
 -14  -2  -2    4.60    5.66
 -14  -3  -2   11.39    6.72
 -14  -3   2   11.19    6.92
 -14  -4  -2    7.74    6.85
 -14  -4   2    3.17    6.15
 -14  -5  -2   45.61   10.19
 -14   0  -3   -4.09    4.74
 -14  -1  -3   12.67    5.98
 -14   1  -3   14.88    5.97
 -14  -2  -3   13.04    6.44
 -14  -3  -3   -5.61    5.41
 -14  -4  -3    5.54    6.99
 -14   0  -4   79.21   10.46
 -14   1  -4   44.37    9.31
 -14  -1   4   25.44    9.97
 -14  -1  -4   57.76   10.01
 -14  -2  -4   33.37    9.00
 -14   2  -4   52.17    9.18
 -14  -3  -4   32.06    9.26
 -14  -3   4   26.05    8.17
 -14   0   5  116.35   15.30
 -14   0  -5  136.40   14.39
 -14   1  -5   66.89   11.06
 -14   1   5   51.41   13.91
 -14  -1   5   73.14   11.82
 -14  -1  -5   64.15   11.11
 -14   2   5   52.03   14.28
 -14   2  -5   55.02   10.47
 -14  -2  -5   55.63   10.99
 -14  -3   5   41.79    9.95
 -14   0   6   75.10   13.68
 -14  -1   6   61.20   12.25
 -15  -1   0    4.65    4.74
 -15  -2   0    5.98    5.76
 -15  -3   0    3.56    5.30
 -15  -4   0    2.79    6.32
 -15  -5   0    8.28    8.26
 -15  -1  -1  120.00   10.83
 -15  -2   1   80.60   10.04
 -15  -2  -1   79.11   10.03
 -15  -3   1  107.54   11.64
 -15  -3  -1   96.64   11.36
 -15  -4  -1   85.29   11.59
 -15  -4   1  105.16   12.05
 -15  -5   1   71.67   11.49
 -15   0  -2  542.40   26.88
 -15  -1  -2  433.27   23.54
 -15  -2  -2  248.04   16.71
 -15  -3   2  354.73   21.00
 -15  -3  -2  306.47   20.18
 -15  -4  -2  261.05   18.86
 -15  -4   2  276.34   18.94
 -15   0  -3  700.04   33.45
 -15  -1  -3  485.20   25.78
 -15  -2  -3  320.67   20.46
 -15  -3  -3  308.15   20.64
 -15   0  -4  383.26   22.67
 -15   1  -4  146.44   13.89
 -15  -1   4  134.18   16.92
 -15  -1  -4  136.39   14.08
 -15  -2  -4  218.30   16.98
 -15  -3  -4   89.76   12.88
 -15   0  -5   -0.77    7.02
 -15   0   5  -10.61   10.08
 -15  -1   5   19.90   10.67
 -15  -1  -5   47.99   10.25
 -15   1   5   24.33   14.98
 -15   1  -5   41.01   10.24
 -15   2  -5   22.98    8.56
 -16  -2   0  515.19   26.75
 -16  -3   0  398.57   22.71
 -16  -4   0  223.92   16.97
 -16  -1  -1  104.74   11.37
 -16  -2  -1  230.96   16.35
 -16  -3  -1  176.36   14.29
 -16  -3   1  190.70   15.09
 -16  -4  -1   99.89   12.44
 -16  -4   1  101.92   12.92
 -16  -1  -2   42.77    8.38
 -16  -2  -2   45.50    8.89
 -16  -3  -2   53.49   10.08
 -16  -4   2   19.25    8.51
 -16   0  -3    3.52    6.02
 -16  -1  -3   19.84    7.45
 -16  -2  -3   12.70    7.33
 -16  -3  -3   10.75    7.57
 -16  -4   3   19.50   12.15
 -16   0  -4  120.36   13.35
 -16  -1  -4  176.87   15.65
 -17  -3   0    6.03    6.26
 -17  -2  -1   15.53    7.01
 -17  -3  -1   13.35    7.70
 -17  -1  -2   13.29    7.18
 -17  -2  -2   13.11    7.59
 -17  -1  -3   -2.33    6.21
 -17   0  -4   16.82    8.08
   0   0   0    0.00    0.00
;
_shelx_hkl_checksum              48296
loop_
_space_group_symop_operation_xyz
'x, y, z'
'-x+1/2, -y, z'
'-x, y, -z'
'x+1/2, -y, -z'
'-x, -y, -z'
'x-1/2, y, -z'
'x, -y, z'
'-x-1/2, y, z'
loop_
_atom_site_label
_atom_site_type_symbol
_atom_site_fract_x
_atom_site_fract_y
_atom_site_fract_z
_atom_site_U_iso_or_equiv
_atom_site_adp_type
_atom_site_occupancy
_atom_site_site_symmetry_order
_atom_site_calc_flag
_atom_site_refinement_flags_posn
_atom_site_refinement_flags_adp
_atom_site_refinement_flags_occupancy
_atom_site_disorder_assembly
_atom_site_disorder_group
Zn1 Zn 0.38047(4) 0.0000 0.09300(7) 0.0185(2) Uani 1 2 d S T P . .
N1' N 0.2989(18) 0.0000 0.302(3) 0.030(6) Uani 0.340(14) 2 d DS TU P A 1
C1' C 0.3306(14) 0.0000 0.468(2) 0.036(5) Uani 0.340(14) 2 d DS TU P A 1
H1' H 0.3947 0.0000 0.5036 0.043 Uiso 0.340(14) 2 calc R U P A 1
C2' C 0.2500 0.0000 0.585(17) 0.04(4) Uani 0.340(14) 4 d S TU P A 1
C3' C 0.2500 0.0000 0.784(4) 0.036(7) Uani 0.340(14) 4 d S TU P A 1
O1' O 0.3243(17) 0.0000 0.858(4) 0.052(9) Uani 0.340(14) 2 d S TU P A 1
N1 N 0.2982(11) 0.0000 0.8808(19) 0.029(3) Uani 0.660(14) 2 d DS TU P A 2
C1 C 0.3274(6) 0.0000 0.7110(11) 0.024(2) Uani 0.660(14) 2 d DS TU P A 2
H1 H 0.3913 0.0000 0.6738 0.029 Uiso 0.660(14) 2 calc R U P A 2
C2 C 0.2500 0.0000 0.598(7) 0.020(12) Uani 0.660(14) 4 d S TU P A 2
C3 C 0.2500 0.0000 0.4044(15) 0.021(3) Uani 0.660(14) 4 d S TU P A 2
O1 O 0.3285(6) 0.0000 0.3301(13) 0.033(3) Uani 0.660(14) 2 d S TU P A 2
N2 N 0.4604(8) 0.7859(16) 0.0563(12) 0.023(3) Uiso 0.5 1 d . . P . .
C4 C 0.4382(5) 0.6123(10) 0.0891(9) 0.0231(16) Uani 0.5 1 d . . P . .
H4 H 0.3855 0.5729 0.1594 0.028 Uiso 0.5 1 d R U P . .
C5 C 0.5000 0.5000 0.0000 0.0227(17) Uani 1 4 d S T P A .
C6 C 0.5000 0.3007(17) 0.0000 0.024(2) Uani 0.5 2 d S T P . .
O2 O 0.4515(5) 0.2241(11) 0.1161(10) 0.0287(17) Uani 0.5 1 d . . P A .
O3 O 0.7500 0.5000 0.6803(10) 0.070(3) Uani 1 4 d S T P . .
C7 C 0.7804(8) 0.5000 0.522(2) 0.048(4) Uani 0.5 2 d DS T P . .
N3 N 0.7168(8) 0.5000 0.3920(15) 0.049(3) Uani 0.5 2 d DS T P . .
C8 C 0.6187(19) 0.436(12) 0.441(8) 0.08(2) Uani 0.25 1 d D . P . .
H8A H 0.6081 0.4246 0.5661 0.116 Uiso 0.25 1 d R U P . .
H8B H 0.5809 0.5327 0.3947 0.116 Uiso 0.25 1 d R U P . .
H8C H 0.6018 0.3261 0.3821 0.116 Uiso 0.25 1 d R U P . .
C9 C 0.7500 0.523(11) 0.2046(15) 0.040(12) Uani 0.5 2 d DS T P . .
H9A H 0.8175 0.5000 0.2017 0.060 Uiso 0.5 2 d R U P . .
H9B H 0.7268 0.3780 0.1454 0.060 Uiso 0.25 1 d R U P . .
H9C H 0.7268 0.5889 0.1454 0.060 Uiso 0.25 1 d R U P . .
C10 C 0.8817(14) 0.529(9) 0.466(6) 0.035(19) Uani 0.25 1 d D . P . .
H10A H 0.9189 0.5239 0.5725 0.052 Uiso 0.25 1 d R U P . .
H10B H 0.9053 0.4441 0.3813 0.052 Uiso 0.25 1 d R U P . .
H10C H 0.8851 0.6482 0.4168 0.052 Uiso 0.25 1 d R U P . .
loop_
_atom_site_aniso_label
_atom_site_aniso_U_11
_atom_site_aniso_U_22
_atom_site_aniso_U_33
_atom_site_aniso_U_23
_atom_site_aniso_U_13
_atom_site_aniso_U_12
Zn1 0.0128(3) 0.0276(4) 0.0151(3) 0.000 0.0006(2) 0.000
N1' 0.027(10) 0.040(8) 0.023(9) 0.000 -0.006(8) 0.000
C1' 0.033(8) 0.053(9) 0.022(8) 0.000 -0.009(6) 0.000
C2' 0.03(4) 0.04(4) 0.03(4) 0.000 0.000 0.000
C3' 0.035(10) 0.043(10) 0.030(10) 0.000 0.000 0.000
O1' 0.042(13) 0.077(11) 0.037(12) 0.000 -0.008(8) 0.000
N1 0.020(5) 0.052(6) 0.017(5) 0.000 -0.006(5) 0.000
C1 0.016(4) 0.039(5) 0.018(4) 0.000 -0.003(3) 0.000
C2 0.012(13) 0.038(16) 0.009(11) 0.000 0.000 0.000
C3 0.020(6) 0.038(6) 0.007(5) 0.000 0.000 0.000
O1 0.017(5) 0.066(5) 0.017(5) 0.000 -0.001(3) 0.000
C4 0.018(4) 0.033(5) 0.019(3) 0.002(3) -0.001(3) -0.002(3)
C5 0.012(4) 0.023(4) 0.033(4) 0.000 -0.002(3) 0.000
C6 0.025(6) 0.023(6) 0.024(6) 0.000 -0.017(5) 0.000
O2 0.023(4) 0.032(4) 0.032(5) 0.002(4) 0.001(3) -0.009(3)
O3 0.033(4) 0.139(8) 0.039(4) 0.000 0.000 0.000
C7 0.027(8) 0.084(11) 0.034(7) 0.000 0.005(5) 0.000
N3 0.029(7) 0.069(8) 0.048(8) 0.000 -0.003(5) 0.000
C8 0.06(3) 0.07(4) 0.10(3) -0.04(2) -0.04(2) 0.024(18)
C9 0.039(6) 0.04(4) 0.045(6) 0.001(8) 0.000 0.000
C10 0.013(11) 0.04(6) 0.049(11) 0.02(2) -0.005(9) 0.001(12)
loop_
_atom_type_symbol
_atom_type_description
_atom_type_scat_dispersion_real
_atom_type_scat_dispersion_imag
_atom_type_scat_source
C C 0.0033 0.0016 'International Tables Vol C Tables 4.2.6.8 and 6.1.1.4'
H H 0.0000 0.0000 'International Tables Vol C Tables 4.2.6.8 and 6.1.1.4'
N N 0.0061 0.0033 'International Tables Vol C Tables 4.2.6.8 and 6.1.1.4'
O O 0.0106 0.0060 'International Tables Vol C Tables 4.2.6.8 and 6.1.1.4'
Zn Zn 0.2839 1.4301 'International Tables Vol C Tables 4.2.6.8 and 6.1.1.4'
loop_
_geom_angle_atom_site_label_1
_geom_angle_atom_site_label_2
_geom_angle_atom_site_label_3
_geom_angle
_geom_angle_site_symmetry_1
_geom_angle_site_symmetry_3
O1' Zn1 N1' 119.3(9) 1_554 .
O1 Zn1 O2 96.6(3) . .
O1' Zn1 O2 107.1(4) 1_554 .
N1' Zn1 O2 103.6(4) . .
O1 Zn1 O2 96.6(3) . 7
O1' Zn1 O2 107.1(4) 1_554 7
N1' Zn1 O2 103.6(4) . 7
O2 Zn1 O2 116.8(5) . 7
O1 Zn1 N2 110.4(3) . 7_565
O1' Zn1 N2 96.3(5) 1_554 7_565
N1' Zn1 N2 117.0(4) . 7_565
O2 Zn1 N2 13.8(3) . 7_565
O2 Zn1 N2 113.7(3) 7 7_565
O1 Zn1 N2 110.4(3) . 1_545
O1' Zn1 N2 96.3(5) 1_554 1_545
N1' Zn1 N2 117.0(4) . 1_545
O2 Zn1 N2 113.7(3) . 1_545
O2 Zn1 N2 13.8(3) 7 1_545
N2 Zn1 N2 107.4(6) 7_565 1_545
O1 Zn1 N1 121.3(5) . 1_554
O2 Zn1 N1 112.1(3) . 1_554
O2 Zn1 N1 112.1(3) 7 1_554
N2 Zn1 N1 103.1(4) 7_565 1_554
N2 Zn1 N1 103.1(4) 1_545 1_554
C1' N1' N1' 109.8(14) . 2
C1' N1' Zn1 123.8(18) . .
N1' N1' Zn1 126.4(6) 2 .
N1' C1' C2' 108(4) . .
N1' C1' H1' 126.2 . .
C2' C1' H1' 126.2 . .
C1' C2' C1' 105(8) . 2
C1' C2' C3' 127(4) . .
C1' C2' C3' 127(4) 2 .
O1' C3' O1' 125(4) 2 .
O1' C3' C2' 117.7(18) 2 .
O1' C3' C2' 117.7(18) . .
C3' O1' Zn1 142(2) . 1_556
C1 N1 N1 108.0(7) . 2
C1 N1 Zn1 125.8(10) . 1_556
N1 N1 Zn1 126.2(4) 2 1_556
N1 C1 C2 109.8(19) . .
N1 C1 H1 125.1 . .
C2 C1 H1 125.1 . .
C1 C2 C1 105(4) . 2
C1 C2 C3 127.7(18) . .
C1 C2 C3 127.7(18) 2 .
O1 C3 O1 126.8(13) . 2
O1 C3 C2 116.6(7) . .
O1 C3 C2 116.6(7) 2 .
C3 O1 Zn1 139.1(8) . .
O2 N2 C6 118(3) 7_565 5_665
O2 N2 C4 67(2) 7_565 .
C6 N2 C4 64.8(8) 5_665 .
O2 N2 N2 142(3) 7_565 3_655
C6 N2 N2 42.4(8) 5_665 3_655
C4 N2 N2 107.2(6) . 3_655
O2 N2 O2 150(2) 7_565 5_665
C6 N2 O2 40.9(8) 5_665 5_665
C4 N2 O2 104.7(9) . 5_665
N2 N2 O2 9.3(6) 3_655 5_665
O2 N2 Zn1 81(2) 7_565 1_565
C6 N2 Zn1 160.9(9) 5_665 1_565
C4 N2 Zn1 127.6(8) . 1_565
N2 N2 Zn1 122.9(3) 3_655 1_565
O2 N2 Zn1 122.2(7) 5_665 1_565
O2 C4 C6 59.3(6) 7_565 5_665
O2 C4 N2 20.5(5) 7_565 .
C6 C4 N2 42.4(6) 5_665 .
O2 C4 C5 124.8(7) 7_565 .
C6 C4 C5 67.4(6) 5_665 .
N2 C4 C5 109.8(7) . .
O2 C4 C4 167.2(5) 7_565 7_565
C6 C4 C4 120.3(6) 5_665 7_565
N2 C4 C4 162.7(6) . 7_565
C5 C4 C4 52.9(3) . 7_565
O2 C4 H4 109.0 7_565 .
C6 C4 H4 167.3 5_665 .
N2 C4 H4 125.0 . .
C5 C4 H4 125.1 . .
C4 C4 H4 72.3 7_565 .
C4 C5 C4 74.2(6) . 7_565
C4 C5 C4 105.8(6) . 3_655
C4 C5 C4 180.0(5) 7_565 3_655
C4 C5 C4 180.0 . 5_665
C4 C5 C4 105.8(6) 7_565 5_665
C4 C5 C4 74.2(6) 3_655 5_665
C4 C5 C6 52.9(3) . 5_665
C4 C5 C6 127.1(3) 7_565 5_665
C4 C5 C6 52.9(3) 3_655 5_665
C4 C5 C6 127.1(3) 5_665 5_665
C4 C5 C6 127.1(3) . .
C4 C5 C6 52.9(3) 7_565 .
C4 C5 C6 127.1(3) 3_655 .
C4 C5 C6 52.9(3) 5_665 .
C6 C5 C6 180.0 5_665 .
N2 C6 N2 95.1(17) 7_565 5_665
N2 C6 O2 109.1(12) 7_565 3_655
N2 C6 O2 19.5(7) 5_665 3_655
N2 C6 O2 19.5(7) 7_565 .
N2 C6 O2 109.1(12) 5_665 .
O2 C6 O2 125.7(14) 3_655 .
N2 C6 C4 167.9(13) 7_565 5_665
N2 C6 C4 72.8(7) 5_665 5_665
O2 C6 C4 59.1(5) 3_655 5_665
O2 C6 C4 167.0(6) . 5_665
N2 C6 C4 72.8(7) 7_565 7_565
N2 C6 C4 167.9(13) 5_665 7_565
O2 C6 C4 167.0(6) 3_655 7_565
O2 C6 C4 59.1(5) . 7_565
C4 C6 C4 119.3(12) 5_665 7_565
N2 C6 C5 132.4(8) 7_565 .
N2 C6 C5 132.4(8) 5_665 .
O2 C6 C5 117.1(7) 3_655 .
O2 C6 C5 117.1(7) . .
C4 C6 C5 59.7(6) 5_665 .
C4 C6 C5 59.7(6) 7_565 .
N2 O2 C4 92(2) 7_565 7_565
N2 O2 C6 42(2) 7_565 .
C4 O2 C6 61.7(7) 7_565 .
N2 O2 N2 29(2) 7_565 5_665
C4 O2 N2 91.6(8) 7_565 5_665
C6 O2 N2 30.0(6) . 5_665
N2 O2 Zn1 85(2) 7_565 .
C4 O2 Zn1 137.6(6) 7_565 .
C6 O2 Zn1 127.7(8) . .
N2 O2 Zn1 105.1(7) 5_665 .
C7 O3 C7 39.8(12) . 2_665
C7 C7 N3 92.3(11) 2_665 2_665
C7 C7 O3 70.1(6) 2_665 .
N3 C7 O3 162.4(16) 2_665 .
C7 C7 N3 47.1(6) 2_665 .
N3 C7 N3 45.2(13) 2_665 .
O3 C7 N3 117.2(9) . .
C7 C7 C10 161.9(19) 2_665 .
N3 C7 C10 71.8(17) 2_665 .
O3 C7 C10 125.6(19) . .
N3 C7 C10 116.4(18) . .
C7 C7 C10 161.9(19) 2_665 7_565
N3 C7 C10 71.8(17) 2_665 7_565
O3 C7 C10 125.6(19) . 7_565
N3 C7 C10 116.4(18) . 7_565
C10 C7 C10 17(5) . 7_565
C7 C7 C8 152(3) 2_665 2_665
N3 C7 C8 66(2) 2_665 2_665
O3 C7 C8 131(2) . 2_665
N3 C7 C8 109(2) . 2_665
C10 C7 C8 11(4) . 2_665
C10 C7 C8 26(3) 7_565 2_665
C7 C7 C8 152(3) 2_665 8_755
N3 C7 C8 66(2) 2_665 8_755
O3 C7 C8 131(2) . 8_755
N3 C7 C8 109(2) . 8_755
C10 C7 C8 26(3) . 8_755
C10 C7 C8 11(4) 7_565 8_755
C8 C7 C8 34(6) 2_665 8_755
N3 N3 C7 87.7(11) 2_665 2_665
N3 N3 C7 47.1(6) 2_665 .
C7 N3 C7 40.6(12) 2_665 .
N3 N3 C9 71.6(5) 2_665 2_665
C7 N3 C9 158.2(16) 2_665 2_665
C7 N3 C9 118.4(9) . 2_665
N3 N3 C9 71.6(5) 2_665 .
C7 N3 C9 158.2(17) 2_665 .
C7 N3 C9 118.4(9) . .
C9 N3 C9 13(6) 2_665 .
N3 N3 C8 157(3) 2_665 .
C7 N3 C8 78(2) 2_665 .
C7 N3 C8 117(2) . .
C9 N3 C8 119(3) 2_665 .
C9 N3 C8 124(3) . .
N3 N3 C8 157(3) 2_665 7_565
C7 N3 C8 78(2) 2_665 7_565
C7 N3 C8 117(2) . 7_565
C9 N3 C8 124(3) 2_665 7_565
C9 N3 C8 119(3) . 7_565
C8 N3 C8 36(7) . 7_565
N3 N3 C10 156.9(18) 2_665 2_665
C7 N3 C10 70.8(17) 2_665 2_665
C7 N3 C10 110.9(19) . 2_665
C9 N3 C10 128(2) 2_665 2_665
C9 N3 C10 130.6(18) . 2_665
C8 N3 C10 12(5) . 2_665
C8 N3 C10 27(4) 7_565 2_665
N3 N3 C10 156.9(18) 2_665 8_755
C7 N3 C10 70.8(17) 2_665 8_755
C7 N3 C10 110.9(19) . 8_755
C9 N3 C10 130.6(18) 2_665 8_755
C9 N3 C10 128(2) . 8_755
C8 N3 C10 27(4) . 8_755
C8 N3 C10 12(5) 7_565 8_755
C10 N3 C10 16(5) 2_665 8_755
C10 C8 C10 21(10) 2_665 8_755
C10 C8 C8 37(10) 2_665 7_565
C10 C8 C8 16(7) 8_755 7_565
C10 C8 N3 85(6) 2_665 .
C10 C8 N3 77(3) 8_755 .
C8 C8 N3 72(3) 7_565 .
C10 C8 C7 64(8) 2_665 2_665
C10 C8 C7 68(4) 8_755 2_665
C8 C8 C7 73(3) 7_565 2_665
N3 C8 C7 35.9(8) . 2_665
C10 C8 H8A 58.5 2_665 .
C10 C8 H8A 79.7 8_755 .
C8 C8 H8A 95.2 7_565 .
N3 C8 H8A 114.1 . .
C7 C8 H8A 78.3 2_665 .
C10 C8 H8B 67.1 2_665 .
C10 C8 H8B 51.2 8_755 .
C8 C8 H8B 41.7 7_565 .
N3 C8 H8B 101.3 . .
C7 C8 H8B 114.2 2_665 .
H8A C8 H8B 109.5 . .
C10 C8 H8C 162.3 2_665 .
C10 C8 H8C 160.6 8_755 .
C8 C8 H8C 148.6 7_565 .
N3 C8 H8C 112.7 . .
C7 C8 H8C 129.7 2_665 .
H8A C8 H8C 109.5 . .
H8B C8 H8C 109.5 . .
C9 C9 N3 83(3) 2_665 2_665
C9 C9 N3 83(3) 2_665 .
N3 C9 N3 36.7(9) 2_665 .
C9 C9 H9A 79.7 2_665 .
N3 C9 H9A 72.0 2_665 .
N3 C9 H9A 108.1 . .
C9 C9 H9B 27.1 2_665 .
N3 C9 H9B 109.1 2_665 .
N3 C9 H9B 99.0 . .
H9A C9 H9B 95.8 . .
C9 C9 H9C 131.3 2_665 .
N3 C9 H9C 141.9 2_665 .
N3 C9 H9C 120.3 . .
H9A C9 H9C 123.0 . .
H9B C9 H9C 104.1 . .
C8 C10 C10 143(10) 2_665 7_565
C8 C10 C8 127(10) 2_665 8_755
C10 C10 C8 16(7) 7_565 8_755
C8 C10 C7 105(10) 2_665 .
C10 C10 C7 82(3) 7_565 .
C8 C10 C7 86(4) 8_755 .
C8 C10 N3 83(7) 2_665 2_665
C10 C10 N3 82(3) 7_565 2_665
C8 C10 N3 76(3) 8_755 2_665
C7 C10 N3 37.4(8) . 2_665
C8 C10 H10A 123.0 2_665 .
C10 C10 H10A 87.6 7_565 .
C8 C10 H10A 100.8 8_755 .
C7 C10 H10A 106.8 . .
N3 C10 H10A 143.7 2_665 .
C8 C10 H10B 97.6 2_665 .
C10 C10 H10B 48.7 7_565 .
C8 C10 H10B 35.7 8_755 .
C7 C10 H10B 114.8 . .
N3 C10 H10B 89.1 2_665 .
H10A C10 H10B 109.5 . .
C8 C10 H10C 14.7 2_665 .
C10 C10 H10C 157.1 7_565 .
C8 C10 H10C 141.6 8_755 .
C7 C10 H10C 106.6 . .
N3 C10 H10C 92.1 2_665 .
H10A C10 H10C 109.5 . .
H10B C10 H10C 109.5 . .
loop_
_geom_bond_atom_site_label_1
_geom_bond_atom_site_label_2
_geom_bond_distance
_geom_bond_site_symmetry_2
Zn1 O1 1.930(10) .
Zn1 O1' 1.94(3) 1_554
Zn1 N1' 1.95(3) .
Zn1 O2 1.956(8) .
Zn1 O2 1.956(8) 7
Zn1 N2 1.975(12) 7_565
Zn1 N2 1.975(12) 1_545
Zn1 N1 1.979(15) 1_554
N1' C1' 1.33(2) .
N1' N1' 1.39(5) 2
C1' C2' 1.44(8) .
C1' H1' 0.9500 .
C2' C1' 1.44(8) 2
C2' C3' 1.50(13) .
C3' O1' 1.19(3) 2
C3' O1' 1.19(3) .
O1' Zn1 1.94(3) 1_556
N1 C1 1.342(16) .
N1 N1 1.37(3) 2
N1 Zn1 1.979(15) 1_556
C1 C2 1.39(4) .
C1 H1 0.9500 .
C2 C1 1.39(4) 2
C2 C3 1.45(6) .
C3 O1 1.248(11) .
C3 O1 1.248(11) 2
N2 O2 0.473(11) 7_565
N2 C6 0.954(12) 5_665
N2 C4 1.351(14) .
N2 N2 1.41(2) 3_655
N2 O2 1.804(12) 5_665
N2 Zn1 1.975(12) 1_565
C4 O2 1.247(11) 7_565
C4 C6 1.280(9) 5_665
C4 C5 1.385(8) .
C4 C4 1.670(16) 7_565
C4 H4 0.9621 .
C5 C4 1.385(8) 7_565
C5 C4 1.385(8) 3_655
C5 C4 1.385(8) 5_665
C5 C6 1.481(12) 5_665
C5 C6 1.481(12) .
C6 N2 0.954(12) 7_565
C6 N2 0.954(12) 5_665
C6 O2 1.250(9) 3_655
C6 O2 1.250(9) .
C6 C4 1.280(9) 5_665
C6 C4 1.280(9) 7_565
O2 N2 0.473(11) 7_565
O2 C4 1.247(11) 7_565
O2 N2 1.804(12) 5_665
O3 C7 1.270(17) .
O3 C7 1.270(17) 2_665
C7 C7 0.86(2) 2_665
C7 N3 0.974(16) 2_665
C7 N3 1.328(15) .
C7 C10 1.51(2) .
C7 C10 1.51(2) 7_565
C7 C8 1.63(4) 2_665
C7 C8 1.63(4) 8_755
N3 N3 0.94(2) 2_665
N3 C7 0.974(16) 2_665
N3 C9 1.497(15) 2_665
N3 C9 1.497(15) .
N3 C8 1.52(2) .
N3 C8 1.52(2) 7_565
N3 C10 1.52(2) 2_665
N3 C10 1.52(2) 8_755
C8 C10 0.32(12) 2_665
C8 C10 0.72(10) 8_755
C8 C8 0.95(18) 7_565
C8 C7 1.63(4) 2_665
C8 H8A 0.9600 .
C8 H8B 0.9599 .
C8 H8C 0.9600 .
C9 C9 0.35(16) 2_665
C9 N3 1.497(15) 2_665
C9 H9A 0.9757 .
C9 H9B 1.2149 .
C9 H9C 0.7374 .
C10 C8 0.32(12) 2_665
C10 C10 0.44(13) 7_565
C10 C8 0.72(10) 8_755
C10 N3 1.52(2) 2_665
C10 H10A 0.9599 .
C10 H10B 0.9600 .
C10 H10C 0.9600 .
