#------------------------------------------------------------------------------
#$Date: 2019-11-23 13:02:49 +0200 (Sat, 23 Nov 2019) $
#$Revision: 233405 $
#$URL: file:///home/coder/svn-repositories/cod/cif/4/34/88/4348822.cif $
#------------------------------------------------------------------------------
#
# This file is available in the Crystallography Open Database (COD),
# http://www.crystallography.net/
#
# All data on this site have been placed in the public domain by the
# contributors.
#
data_4348822
loop_
_publ_author_name
'Falaise, Cl\'ement'
'Delille, Jason'
'Volkringer, Christophe'
'Vezin, Herv\'e'
'Rabu, Pierre'
'Loiseau, Thierry'
_publ_section_title
;
 Series of Hydrated Heterometallic Uranyl-Cobalt(II) Coordination Polymers
 with Aromatic Polycarboxylate Ligands: Formation of U&#x2550;O-Co Bonding
 upon Dehydration Process.
;
_journal_issue                   20
_journal_name_full               'Inorganic chemistry'
_journal_page_first              10453
_journal_page_last               10466
_journal_paper_doi               10.1021/acs.inorgchem.6b01697
_journal_volume                  55
_journal_year                    2016
_chemical_formula_sum            'C12 Co O26 U2'
_chemical_formula_weight         1095.11
_space_group_IT_number           2
_space_group_name_Hall           '-P 1'
_space_group_name_H-M_alt        'P -1'
_symmetry_cell_setting           triclinic
_symmetry_space_group_name_H-M   'P -1'
_atom_sites_solution_primary     direct
_atom_sites_solution_secondary   difmap
_audit_creation_method           SHELXL-97
_cell_angle_alpha                95.411(2)
_cell_angle_beta                 90.800(2)
_cell_angle_gamma                108.870(2)
_cell_formula_units_Z            1
_cell_length_a                   6.8850(3)
_cell_length_b                   8.5229(4)
_cell_length_c                   11.3840(5)
_cell_measurement_reflns_used    9974
_cell_measurement_temperature    293(2)
_cell_measurement_theta_max      30.495
_cell_measurement_theta_min      2.539
_cell_volume                     628.59(5)
_computing_structure_refinement  'SHELXL-97 (Sheldrick, 2008)'
_diffrn_ambient_temperature      293(2)
_diffrn_measured_fraction_theta_full 0.997
_diffrn_measured_fraction_theta_max 0.997
_diffrn_measurement_device_type  'Bruker APEX-II CCD'
_diffrn_measurement_method       '\f and \w scans'
_diffrn_radiation_monochromator  graphite
_diffrn_radiation_source         'fine-focus sealed tube'
_diffrn_radiation_type           MoK\a
_diffrn_radiation_wavelength     0.71073
_diffrn_reflns_av_R_equivalents  0.0261
_diffrn_reflns_av_sigmaI/netI    0.0225
_diffrn_reflns_limit_h_max       9
_diffrn_reflns_limit_h_min       -9
_diffrn_reflns_limit_k_max       12
_diffrn_reflns_limit_k_min       -12
_diffrn_reflns_limit_l_max       14
_diffrn_reflns_limit_l_min       -16
_diffrn_reflns_number            16305
_diffrn_reflns_theta_full        30.51
_diffrn_reflns_theta_max         30.51
_diffrn_reflns_theta_min         1.80
_exptl_absorpt_coefficient_mu    13.617
_exptl_absorpt_correction_T_max  0.7461
_exptl_absorpt_correction_T_min  0.5851
_exptl_absorpt_correction_type   empirical
_exptl_absorpt_process_details   sadabs
_exptl_crystal_colour            yellow
_exptl_crystal_density_diffrn    2.893
_exptl_crystal_density_method    'not measured'
_exptl_crystal_description       block
_exptl_crystal_F_000             491
_exptl_crystal_size_max          0.131
_exptl_crystal_size_mid          0.087
_exptl_crystal_size_min          0.064
_refine_diff_density_max         1.668
_refine_diff_density_min         -0.869
_refine_diff_density_rms         0.138
_refine_ls_extinction_method     none
_refine_ls_goodness_of_fit_ref   1.010
_refine_ls_matrix_type           full
_refine_ls_number_parameters     181
_refine_ls_number_reflns         3827
_refine_ls_number_restraints     0
_refine_ls_restrained_S_all      1.010
_refine_ls_R_factor_all          0.0201
_refine_ls_R_factor_gt           0.0174
_refine_ls_shift/su_max          0.001
_refine_ls_shift/su_mean         0.000
_refine_ls_structure_factor_coef Fsqd
_refine_ls_weighting_details
'calc w=1/[\s^2^(Fo^2^)+(0.0255P)^2^+0.7331P] where P=(Fo^2^+2Fc^2^)/3'
_refine_ls_weighting_scheme      calc
_refine_ls_wR_factor_gt          0.0445
_refine_ls_wR_factor_ref         0.0457
_reflns_d_resolution_high        0.6999
_reflns_number_gt                3520
_reflns_number_total             3827
_reflns_threshold_expression     >2\s(I)
_cod_data_source_file            ic6b01697_si_005.cif
_cod_data_source_block           essai
_cod_original_sg_symbol_H-M      P-1
_cod_database_code               4348822
_shelx_title                     ' shelx'
_shelx_refln_list_code           4
_shelx_f_calc_maximum            206.88
loop_
_symmetry_equiv_pos_as_xyz
'x, y, z'
'-x, -y, -z'
loop_
_atom_site_label
_atom_site_type_symbol
_atom_site_fract_x
_atom_site_fract_y
_atom_site_fract_z
_atom_site_U_iso_or_equiv
_atom_site_adp_type
_atom_site_occupancy
_atom_site_symmetry_multiplicity
_atom_site_calc_flag
_atom_site_refinement_flags
U1 U 0.342966(14) 0.169883(11) 0.329208(8) 0.01169(4) Uani 1 1 d .
Co1 Co 0.0000 0.5000 0.0000 0.02204(12) Uani 1 2 d S
O6 O 0.9718(3) 0.0904(3) 0.3467(2) 0.0190(4) Uani 1 1 d .
OU1 O 0.3780(4) 0.2801(3) 0.4714(2) 0.0256(5) Uani 1 1 d .
OU2 O 0.3083(4) 0.0617(3) 0.1865(2) 0.0269(5) Uani 1 1 d .
OW1 O 0.6081(4) 0.4133(4) 0.2706(4) 0.0563(10) Uani 1 1 d .
O1 O 0.2409(4) -0.0836(3) 0.4105(2) 0.0210(4) Uani 1 1 d .
O5 O 0.6612(3) 0.1124(3) 0.3434(2) 0.0187(4) Uani 1 1 d .
OW4 O 0.7234(5) 0.7561(4) 0.2441(3) 0.0504(8) Uiso 1 1 d .
O4 O 0.2085(3) 0.3549(3) 0.22965(18) 0.0204(4) Uani 1 1 d .
OW2 O -0.2113(6) 0.6279(5) 0.0207(3) 0.0551(9) Uani 1 1 d .
O3 O -0.0247(3) 0.4687(3) 0.18059(18) 0.0199(4) Uani 1 1 d .
C2 C 0.8836(4) 0.3684(3) 0.5609(2) 0.0108(5) Uani 1 1 d .
O2 O 0.3292(4) -0.2634(3) 0.28419(19) 0.0230(5) Uani 1 1 d .
C3 C 0.9529(4) 0.5315(3) 0.6161(2) 0.0101(5) Uani 1 1 d .
OW3 O 0.2452(5) 0.7198(4) 0.0416(2) 0.0489(8) Uani 1 1 d .
C1 C 0.2404(4) -0.2291(3) 0.3712(2) 0.0128(5) Uani 1 1 d .
C6 C 0.8475(4) 0.1662(3) 0.3764(2) 0.0113(5) Uani 1 1 d .
C4 C 0.0838(4) 0.4312(3) 0.2548(2) 0.0119(5) Uani 1 1 d .
C5 C 0.9306(4) 0.3376(3) 0.4442(2) 0.0097(4) Uani 1 1 d .
OW5 O 0.1363(17) 0.9620(12) -0.0647(9) 0.082(3) Uiso 0.50 1 d P
OW6 O 0.2680(15) 0.9777(11) -0.0757(8) 0.073(2) Uiso 0.50 1 d P
loop_
_atom_site_aniso_label
_atom_site_aniso_U_11
_atom_site_aniso_U_22
_atom_site_aniso_U_33
_atom_site_aniso_U_23
_atom_site_aniso_U_13
_atom_site_aniso_U_12
U1 0.01034(5) 0.01082(5) 0.01470(5) 0.00333(4) 0.00125(3) 0.00398(4)
Co1 0.0352(3) 0.0262(3) 0.0098(2) 0.0029(2) 0.0017(2) 0.0168(3)
O6 0.0125(9) 0.0150(10) 0.0291(12) -0.0036(8) 0.0027(8) 0.0056(8)
OU1 0.0302(13) 0.0226(12) 0.0227(11) -0.0053(9) -0.0056(9) 0.0091(10)
OU2 0.0374(14) 0.0331(13) 0.0160(11) -0.0021(9) -0.0010(9) 0.0208(11)
OW1 0.0240(14) 0.0396(17) 0.114(3) 0.0485(19) 0.0238(16) 0.0106(12)
O1 0.0279(12) 0.0109(9) 0.0241(11) 0.0059(8) 0.0085(9) 0.0048(9)
O5 0.0107(9) 0.0139(10) 0.0300(12) -0.0004(8) -0.0026(8) 0.0027(8)
O4 0.0280(12) 0.0277(11) 0.0149(10) 0.0072(8) 0.0061(8) 0.0205(10)
OW2 0.085(3) 0.081(2) 0.0284(15) 0.0092(15) 0.0058(15) 0.066(2)
O3 0.0242(11) 0.0295(12) 0.0114(9) 0.0046(8) 0.0002(8) 0.0156(9)
C2 0.0123(12) 0.0093(11) 0.0110(11) 0.0012(9) 0.0009(9) 0.0035(9)
O2 0.0276(12) 0.0195(11) 0.0188(10) 0.0041(8) 0.0118(9) 0.0023(9)
C3 0.0095(11) 0.0116(11) 0.0091(11) 0.0025(9) 0.0013(8) 0.0031(9)
OW3 0.069(2) 0.0406(17) 0.0245(14) 0.0040(12) -0.0041(13) 0.0010(15)
C1 0.0125(12) 0.0123(12) 0.0123(12) 0.0045(9) 0.0006(9) 0.0013(10)
C6 0.0113(12) 0.0102(11) 0.0127(12) 0.0044(9) 0.0017(9) 0.0030(9)
C4 0.0144(12) 0.0100(11) 0.0101(11) 0.0030(9) 0.0008(9) 0.0016(9)
C5 0.0099(11) 0.0083(11) 0.0108(11) 0.0024(9) 0.0017(8) 0.0022(9)
loop_
_atom_type_symbol
_atom_type_description
_atom_type_scat_dispersion_real
_atom_type_scat_dispersion_imag
_atom_type_scat_source
C C 0.0033 0.0016 'International Tables Vol C Tables 4.2.6.8 and 6.1.1.4'
H H 0.0000 0.0000 'International Tables Vol C Tables 4.2.6.8 and 6.1.1.4'
O O 0.0106 0.0060 'International Tables Vol C Tables 4.2.6.8 and 6.1.1.4'
Co Co 0.3494 0.9721 'International Tables Vol C Tables 4.2.6.8 and 6.1.1.4'
U U -9.6767 9.6646 'International Tables Vol C Tables 4.2.6.8 and 6.1.1.4'
loop_
_geom_angle_atom_site_label_1
_geom_angle_atom_site_label_2
_geom_angle_atom_site_label_3
_geom_angle
_geom_angle_site_symmetry_1
_geom_angle_site_symmetry_3
OU2 U1 OU1 179.42(10) . .
OU2 U1 O1 89.76(10) . .
OU1 U1 O1 90.81(10) . .
OU2 U1 O5 86.34(10) . .
OU1 U1 O5 93.88(10) . .
O1 U1 O5 78.27(8) . .
OU2 U1 O4 82.31(9) . .
OU1 U1 O4 97.17(9) . .
O1 U1 O4 142.13(8) . .
O5 U1 O4 137.43(7) . .
OU2 U1 O6 90.61(10) . 1_455
OU1 U1 O6 89.45(10) . 1_455
O1 U1 O6 73.24(8) . 1_455
O5 U1 O6 151.36(7) . 1_455
O4 U1 O6 69.90(8) . 1_455
OU2 U1 OW1 93.50(14) . .
OU1 U1 OW1 86.05(13) . .
O1 U1 OW1 151.43(9) . .
O5 U1 OW1 73.63(8) . .
O4 U1 OW1 66.34(9) . .
O6 U1 OW1 135.01(9) 1_455 .
OW3 Co1 OW3 180.00(15) 2_565 .
OW3 Co1 OW2 88.67(16) 2_565 .
OW3 Co1 OW2 91.33(16) . .
OW3 Co1 OW2 91.33(16) 2_565 2_565
OW3 Co1 OW2 88.67(16) . 2_565
OW2 Co1 OW2 180.0 . 2_565
OW3 Co1 O3 90.49(10) 2_565 .
OW3 Co1 O3 89.51(10) . .
OW2 Co1 O3 87.23(10) . .
OW2 Co1 O3 92.77(10) 2_565 .
OW3 Co1 O3 89.51(10) 2_565 2_565
OW3 Co1 O3 90.49(10) . 2_565
OW2 Co1 O3 92.77(10) . 2_565
OW2 Co1 O3 87.23(10) 2_565 2_565
O3 Co1 O3 180.0 . 2_565
C6 O6 U1 135.32(18) . 1_655
C1 O1 U1 132.16(18) . .
C6 O5 U1 146.88(18) . .
C4 O4 U1 134.82(18) . .
C4 O3 Co1 133.49(19) . .
C5 C2 C3 119.4(2) . .
C5 C2 C1 121.3(2) . 2_656
C3 C2 C1 119.4(2) . 2_656
C2 C3 C5 120.6(2) . 2_766
C2 C3 C4 121.0(2) . 2_666
C5 C3 C4 118.3(2) 2_766 2_666
O2 C1 O1 126.0(3) . .
O2 C1 C2 118.7(2) . 2_656
O1 C1 C2 115.3(2) . 2_656
O6 C6 O5 122.7(3) . .
O6 C6 C5 118.6(2) . .
O5 C6 C5 118.4(2) . .
O3 C4 O4 124.5(3) . .
O3 C4 C3 116.8(2) . 2_666
O4 C4 C3 118.4(2) . 2_666
C2 C5 C3 120.0(2) . 2_766
C2 C5 C6 122.0(2) . .
C3 C5 C6 117.8(2) 2_766 .
loop_
_geom_bond_atom_site_label_1
_geom_bond_atom_site_label_2
_geom_bond_distance
_geom_bond_site_symmetry_2
U1 OU2 1.763(2) .
U1 OU1 1.766(2) .
U1 O1 2.330(2) .
U1 O5 2.402(2) .
U1 O4 2.425(2) .
U1 O6 2.439(2) 1_455
U1 OW1 2.434(3) .
Co1 OW3 2.085(3) 2_565
Co1 OW3 2.085(3) .
Co1 OW2 2.085(3) .
Co1 OW2 2.085(3) 2_565
Co1 O3 2.100(2) .
Co1 O3 2.100(2) 2_565
O6 C6 1.261(3) .
O6 U1 2.439(2) 1_655
O1 C1 1.277(3) .
O5 C6 1.253(3) .
O4 C4 1.255(3) .
O3 C4 1.250(3) .
C2 C5 1.392(4) .
C2 C3 1.397(4) .
C2 C1 1.507(4) 2_656
O2 C1 1.233(3) .
C3 C5 1.393(3) 2_766
C3 C4 1.517(4) 2_666
C1 C2 1.507(4) 2_656
C6 C5 1.514(4) .
C4 C3 1.517(4) 2_666
C5 C3 1.393(3) 2_766
OW5 OW6 0.886(11) .
loop_
_refln_index_h
_refln_index_k
_refln_index_l
_refln_F_squared_calc
_refln_F_squared_meas
_refln_F_squared_sigma
_refln_observed_status
1 0 0 464.37 551.84 8.33 o
2 0 0 6867.79 7788.81 64.12 o
3 0 0 31599.96 32176.03 234.78 o
4 0 0 2940.65 2805.37 32.58 o
5 0 0 44.98 56.93 6.54 o
6 0 0 6673.68 6410.07 82.58 o
7 0 0 3475.32 3536.83 76.51 o
8 0 0 9.34 31.59 19.56 o
9 0 0 2191.76 2167.45 75.94 o
-9 1 0 1718.94 1690.90 67.72 o
-8 1 0 3382.51 3471.82 99.30 o
-7 1 0 65.60 65.36 13.81 o
-6 1 0 4532.73 4565.78 74.80 o
-5 1 0 13170.66 12990.23 124.75 o
-4 1 0 199.70 182.31 9.53 o
-3 1 0 3849.12 3851.62 43.61 o
-2 1 0 42800.83 42239.98 406.85 o
-1 1 0 83.30 71.39 5.39 o
0 1 0 1326.41 1225.21 15.98 o
1 1 0 30019.56 30422.42 239.82 o
2 1 0 1607.63 1574.22 20.25 o
3 1 0 1130.18 1170.99 16.52 o
4 1 0 9505.49 9336.69 87.80 o
5 1 0 2706.10 2736.55 40.74 o
6 1 0 159.47 184.00 21.09 o
7 1 0 3520.46 3431.24 70.71 o
8 1 0 2171.21 2184.03 73.60 o
-9 2 0 14.47 50.34 21.80 o
-8 2 0 2374.75 2457.31 104.00 o
-7 2 0 5225.91 5067.85 86.79 o
-6 2 0 325.64 341.04 25.29 o
-5 2 0 3603.74 3521.95 48.09 o
-4 2 0 20117.05 20136.70 191.95 o
-3 2 0 38.91 66.41 8.25 o
-2 2 0 1278.28 1062.13 26.87 o
-1 2 0 28250.20 29130.78 398.31 o
0 2 0 3618.37 3954.78 38.18 o
1 2 0 668.66 766.81 11.33 o
2 2 0 35325.88 36265.16 289.56 o
3 2 0 4547.90 4396.96 46.27 o
4 2 0 174.48 190.34 10.40 o
5 2 0 8340.74 8391.51 106.00 o
6 2 0 2011.40 1958.97 44.94 o
7 2 0 44.61 38.09 14.91 o
8 2 0 2078.69 2080.81 69.65 o
-9 3 0 3378.83 3295.80 96.39 o
-8 3 0 48.57 66.12 21.87 o
-7 3 0 2457.29 2411.43 73.79 o
-6 3 0 11260.42 10957.17 150.40 o
-5 3 0 276.63 248.63 13.27 o
-4 3 0 2805.82 2809.01 42.33 o
-3 3 0 31033.30 31549.30 289.58 o
-2 3 0 595.64 571.55 14.73 o
-1 3 0 1185.55 1234.64 19.70 o
0 3 0 17716.14 17463.81 162.42 o
1 3 0 2909.27 2900.80 32.83 o
2 3 0 73.08 88.79 6.38 o
3 3 0 11128.14 10973.62 99.93 o
4 3 0 2884.53 2834.53 50.93 o
5 3 0 5.25 -7.18 7.18 o
6 3 0 4707.20 4793.01 84.94 o
7 3 0 1735.46 1791.89 56.63 o
8 3 0 0.57 -15.92 15.92 o
-9 4 0 2210.28 2137.30 89.51 o
-8 4 0 5041.19 4939.98 117.40 o
-7 4 0 7.05 6.39 14.89 o
-6 4 0 2959.63 3020.46 57.67 o
-5 4 0 7012.45 7114.96 89.94 o
-4 4 0 833.44 873.59 21.83 o
-3 4 0 989.41 1040.68 24.30 o
-2 4 0 13901.86 14315.18 148.47 o
-1 4 0 3425.45 3378.55 47.75 o
0 4 0 1396.99 1432.83 21.30 o
1 4 0 15013.12 14935.47 127.94 o
2 4 0 2176.24 2133.59 39.26 o
3 4 0 24.63 18.83 5.83 o
4 4 0 11017.89 10885.53 130.23 o
5 4 0 1750.96 1765.29 61.28 o
6 4 0 0.97 -10.41 12.00 o
7 4 0 2690.08 2689.80 71.24 o
-9 5 0 12.45 26.97 22.43 o
-8 5 0 2522.60 2593.44 81.27 o
-7 5 0 5461.49 5551.08 121.76 o
-6 5 0 103.21 110.32 14.12 o
-5 5 0 1660.21 1730.83 38.88 o
-4 5 0 10440.88 10428.19 123.82 o
-3 5 0 649.62 715.85 17.82 o
-2 5 0 1388.04 1357.80 25.71 o
-1 5 0 18415.72 18676.30 191.84 o
0 5 0 876.56 864.56 18.44 o
1 5 0 604.06 634.46 14.20 o
2 5 0 11365.97 11617.42 114.57 o
3 5 0 536.13 568.20 22.08 o
4 5 0 70.11 69.30 11.28 o
5 5 0 3980.50 3964.20 86.78 o
6 5 0 1916.49 1963.26 58.75 o
7 5 0 0.09 16.43 17.61 o
-9 6 0 2424.90 2617.04 104.58 o
-8 6 0 130.85 94.50 40.86 o
-7 6 0 1114.48 1215.70 53.21 o
-6 6 0 8456.70 8453.58 203.87 o
-5 6 0 288.24 271.98 20.04 o
-4 6 0 2238.60 2237.08 37.21 o
-3 6 0 5171.35 4990.62 66.32 o
-2 6 0 1049.21 1084.21 26.15 o
-1 6 0 116.25 124.27 10.38 o
0 6 0 7276.63 7405.77 82.38 o
1 6 0 2018.88 2076.06 33.76 o
2 6 0 17.71 33.88 8.95 o
3 6 0 5655.09 5587.98 80.06 o
4 6 0 2713.16 2711.19 51.92 o
5 6 0 1.14 -2.70 13.95 o
6 6 0 2443.82 2335.92 54.90 o
-9 7 0 1223.23 1498.78 97.05 o
-8 7 0 4065.88 3755.62 133.52 o
-7 7 0 168.70 147.00 23.97 o
-6 7 0 2248.44 2169.52 57.89 o
-5 7 0 8427.12 8329.86 142.31 o
-4 7 0 241.33 251.69 17.84 o
-3 7 0 1784.69 1657.53 39.49 o
-2 7 0 10881.30 10751.84 124.08 o
-1 7 0 1284.77 1365.01 32.94 o
0 7 0 261.40 291.02 18.24 o
1 7 0 10785.16 10465.70 126.18 o
2 7 0 3016.94 2925.67 52.27 o
3 7 0 129.18 140.68 14.93 o
4 7 0 5252.74 5123.41 86.86 o
5 7 0 1535.05 1612.91 49.99 o
-9 8 0 63.39 55.93 36.42 o
-8 8 0 1360.25 1358.00 123.03 o
-7 8 0 3781.59 3934.35 101.67 o
-6 8 0 72.88 113.23 22.10 o
-5 8 0 795.42 917.63 43.79 o
-4 8 0 9200.75 9307.53 144.34 o
-3 8 0 630.31 679.25 32.61 o
-2 8 0 1298.93 1252.29 38.81 o
-1 8 0 7111.57 6931.96 99.53 o
0 8 0 1388.09 1365.75 41.40 o
1 8 0 391.48 383.24 24.42 o
2 8 0 4003.66 4041.28 66.92 o
3 8 0 1717.04 1666.15 54.77 o
4 8 0 73.60 53.37 26.67 o
-8 9 0 47.41 78.76 32.53 o
-7 9 0 899.37 889.95 54.49 o
-6 9 0 4013.03 4072.93 101.99 o
-5 9 0 692.15 594.54 40.73 o
-4 9 0 948.91 1050.41 55.08 o
-3 9 0 6814.38 6803.10 120.49 o
-2 9 0 1334.46 1246.00 41.89 o
-1 9 0 833.35 777.66 48.47 o
0 9 0 4948.65 5052.80 119.76 o
1 9 0 1759.27 1737.99 109.09 o
2 9 0 164.11 183.47 29.72 o
3 9 0 2077.52 2087.23 62.19 o
-7 10 0 111.60 72.85 24.52 o
-6 10 0 1337.06 1264.04 65.00 o
-5 10 0 4858.42 5069.97 314.32 o
-4 10 0 509.87 544.73 40.60 o
-3 10 0 436.97 428.50 34.90 o
-2 10 0 6128.30 6001.71 127.86 o
-1 10 0 1318.00 1212.64 66.88 o
0 10 0 334.51 367.76 42.72 o
1 10 0 2643.18 2795.67 80.53 o
2 10 0 1593.65 1586.18 48.30 o
-6 11 0 418.43 374.93 38.00 o
-5 11 0 973.16 868.84 62.07 o
-4 11 0 3891.60 3822.22 100.36 o
-3 11 0 789.16 814.53 50.37 o
-2 11 0 432.70 411.14 71.15 o
-1 11 0 2764.07 2814.11 82.39 o
0 11 0 1611.33 1583.34 62.23 o
-4 12 0 616.87 596.07 50.46 o
-3 12 0 2547.69 2485.21 80.60 o
-2 12 0 596.98 603.86 58.47 o
2 -12 1 3220.60 3112.61 69.16 o
3 -12 1 155.89 136.18 25.43 o
4 -12 1 546.49 532.19 41.44 o
-1 -11 1 1132.00 1145.27 37.31 o
0 -11 1 3442.09 3398.06 76.74 o
1 -11 1 21.20 14.69 13.22 o
2 -11 1 711.37 638.87 41.81 o
3 -11 1 3492.72 3498.16 90.72 o
4 -11 1 807.21 777.78 53.72 o
5 -11 1 422.78 448.55 39.11 o
6 -11 1 3376.09 3325.88 94.83 o
-2 -10 1 3117.01 3175.36 90.57 o
-1 -10 1 170.28 157.08 19.83 o
0 -10 1 1241.31 1200.67 41.16 o
1 -10 1 4883.43 5021.02 82.20 o
2 -10 1 718.21 739.52 31.14 o
3 -10 1 730.90 744.08 41.80 o
4 -10 1 4575.14 4564.37 105.96 o
5 -10 1 1187.03 1114.74 51.67 o
6 -10 1 180.35 160.54 35.23 o
7 -10 1 3326.12 3243.17 94.17 o
-3 -9 1 9.75 12.02 11.44 o
-2 -9 1 2087.43 2072.96 43.76 o
-1 -9 1 4527.58 4489.73 74.62 o
0 -9 1 81.71 76.55 12.59 o
1 -9 1 1547.32 1509.48 37.89 o
2 -9 1 7347.06 7399.08 106.07 o
3 -9 1 428.50 471.19 29.62 o
4 -9 1 922.94 848.48 40.00 o
5 -9 1 5709.67 5634.61 196.20 o
6 -9 1 1083.73 1088.40 100.76 o
7 -9 1 252.13 218.47 30.53 o
8 -9 1 3414.74 3486.62 100.11 o
-4 -8 1 1818.89 1874.58 46.99 o
-3 -8 1 2501.54 2582.29 49.33 o
-2 -8 1 195.35 190.48 15.96 o
-1 -8 1 1634.79 1652.61 55.86 o
0 -8 1 5991.72 5897.97 78.68 o
1 -8 1 1322.66 1334.70 33.53 o
2 -8 1 1993.06 1936.15 51.34 o
3 -8 1 6191.71 6213.44 90.85 o
4 -8 1 827.35 840.50 33.38 o
5 -8 1 440.01 429.03 28.79 o
6 -8 1 3465.74 3341.45 86.74 o
7 -8 1 922.83 919.63 50.59 o
8 -8 1 7.36 3.46 20.39 o
9 -8 1 1883.95 1835.34 99.35 o
-5 -7 1 2554.09 2598.86 62.89 o
-4 -7 1 402.15 397.38 21.48 o
-3 -7 1 2354.42 2381.76 45.71 o
-2 -7 1 6890.83 6937.91 92.86 o
-1 -7 1 766.26 756.90 20.73 o
0 -7 1 3879.42 3787.92 60.32 o
1 -7 1 6732.18 6662.05 91.14 o
2 -7 1 461.16 515.62 28.20 o
3 -7 1 595.55 480.49 25.75 o
4 -7 1 8538.75 8667.57 116.36 o
5 -7 1 634.82 681.15 32.39 o
6 -7 1 28.97 32.95 15.85 o
7 -7 1 5246.87 5245.83 118.19 o
8 -7 1 1641.26 1672.85 65.12 o
9 -7 1 2.55 19.59 29.34 o
-6 -6 1 17.90 33.44 11.99 o
-5 -6 1 1998.37 1927.23 54.71 o
-4 -6 1 4766.70 4613.08 69.94 o
-3 -6 1 63.54 60.87 9.89 o
-2 -6 1 5005.65 4987.79 69.11 o
-1 -6 1 5478.14 5459.17 65.79 o
0 -6 1 593.82 597.54 24.11 o
1 -6 1 1722.30 1614.77 32.24 o
2 -6 1 11222.41 11182.24 107.47 o
3 -6 1 1865.91 1882.65 39.03 o
4 -6 1 290.61 306.16 16.76 o
5 -6 1 11308.31 11553.17 135.23 o
6 -6 1 2096.68 2059.45 52.79 o
7 -6 1 221.83 231.99 26.54 o
8 -6 1 3990.99 3935.16 166.78 o
9 -6 1 1309.85 1159.61 87.00 o
-7 -5 1 1744.49 1821.03 46.74 o
-6 -5 1 2837.91 2807.68 67.98 o
-5 -5 1 14.18 17.29 9.79 o
-4 -5 1 3415.12 3435.98 65.82 o
-3 -5 1 4150.80 4149.30 60.52 o
-2 -5 1 2561.91 2589.59 50.60 o
-1 -5 1 4358.13 4296.98 45.91 o
0 -5 1 12991.73 12760.77 117.97 o
1 -5 1 1290.33 1335.13 26.56 o
2 -5 1 1886.40 1828.96 26.09 o
3 -5 1 14338.64 14369.17 132.43 o
4 -5 1 1339.84 1343.88 26.16 o
5 -5 1 477.51 542.63 23.40 o
6 -5 1 9423.92 9395.13 127.61 o
7 -5 1 1479.72 1378.80 46.00 o
8 -5 1 38.04 27.42 19.62 o
9 -5 1 3656.60 3679.62 136.72 o
-7 -4 1 26.54 17.04 11.33 o
-6 -4 1 2040.03 2057.55 41.89 o
-5 -4 1 3229.70 3388.94 53.18 o
-4 -4 1 23.68 36.84 8.05 o
-3 -4 1 2581.27 2597.16 38.87 o
-2 -4 1 8074.58 7923.39 88.62 o
-1 -4 1 153.85 171.36 7.72 o
0 -4 1 2133.22 2123.01 26.58 o
1 -4 1 20882.50 21365.90 234.16 o
2 -4 1 844.21 746.04 14.20 o
3 -4 1 1493.31 1480.57 33.38 o
4 -4 1 16783.01 16502.73 151.57 o
5 -4 1 2053.69 2050.10 40.43 o
6 -4 1 60.47 62.17 12.38 o
7 -4 1 7030.85 6914.98 119.31 o
8 -4 1 2257.86 2188.96 89.27 o
9 -4 1 1.01 -18.91 18.91 o
-8 -3 1 1693.01 1686.70 45.32 o
-7 -3 1 2598.83 2573.96 55.05 o
-6 -3 1 12.19 9.96 8.75 o
-5 -3 1 2720.22 2700.13 44.61 o
-4 -3 1 8219.15 8194.60 92.79 o
-3 -3 1 1087.53 1092.06 23.57 o
-2 -3 1 2060.06 2039.42 25.22 o
-1 -3 1 22771.08 23016.78 176.96 o
0 -3 1 16411.24 17780.81 163.88 o
1 -3 1 4219.03 4359.24 77.71 o
2 -3 1 37124.83 37964.22 341.95 o
3 -3 1 6641.40 7042.37 80.59 o
4 -3 1 1428.36 1564.06 34.62 o
5 -3 1 10187.62 9917.14 116.48 o
6 -3 1 4018.88 3963.39 63.61 o
7 -3 1 6.81 0.26 12.23 o
8 -3 1 4956.82 5048.74 119.56 o
9 -3 1 1833.59 1948.84 75.39 o
-8 -2 1 16.50 9.14 12.63 o
-7 -2 1 2390.09 2527.73 47.66 o
-6 -2 1 5853.65 5928.12 91.67 o
-5 -2 1 136.24 121.30 11.11 o
-4 -2 1 5596.87 5589.38 55.35 o
-3 -2 1 19373.56 19462.44 162.05 o
-2 -2 1 32.17 71.24 4.83 o
-1 -2 1 7217.52 7344.89 62.32 o
0 -2 1 33102.75 32826.43 512.55 o
1 -2 1 2018.92 2085.89 28.99 o
2 -2 1 5577.16 5493.45 56.49 o
3 -2 1 26349.76 27726.88 276.82 o
4 -2 1 5159.36 5364.10 67.68 o
5 -2 1 953.23 938.87 26.34 o
6 -2 1 14230.53 14404.51 151.29 o
7 -2 1 1482.50 1464.48 55.80 o
8 -2 1 8.88 1.02 30.92 o
9 -2 1 3918.73 4072.84 110.55 o
-9 -1 1 1252.35 1334.76 58.42 o
-8 -1 1 2797.60 2669.56 69.32 o
-7 -1 1 81.28 74.17 11.91 o
-6 -1 1 3240.79 3256.27 51.57 o
-5 -1 1 8942.37 8898.66 98.52 o
-4 -1 1 305.85 350.73 12.03 o
-3 -1 1 3607.10 3647.01 36.79 o
-2 -1 1 25987.46 25854.20 197.74 o
-1 -1 1 630.08 690.69 9.40 o
0 -1 1 4307.65 3983.84 48.05 o
1 -1 1 17993.78 18860.74 182.33 o
2 -1 1 21081.24 23568.54 178.50 o
3 -1 1 1025.15 1120.88 21.17 o
4 -1 1 20030.03 19939.22 192.21 o
5 -1 1 3226.31 3171.90 41.74 o
6 -1 1 88.15 113.96 12.54 o
7 -1 1 5002.58 5175.30 114.41 o
8 -1 1 1336.24 1457.89 60.67 o
9 -1 1 22.60 40.35 22.49 o
-9 0 1 1.39 33.92 21.71 o
-8 0 1 3634.23 3634.74 82.72 o
-7 0 1 4958.29 5062.11 67.39 o
-6 0 1 16.87 12.47 7.31 o
-5 0 1 3395.15 3320.03 39.19 o
-4 0 1 17524.32 18262.46 148.12 o
-3 0 1 3210.91 3236.00 32.95 o
-2 0 1 6157.83 6453.46 59.49 o
-1 0 1 35750.89 33393.45 276.48 o
0 0 1 7954.58 6283.83 351.56 o
1 0 1 5339.94 4867.67 41.18 o
2 0 1 16781.86 15477.13 128.12 o
3 0 1 3023.57 2831.20 32.04 o
4 0 1 29.21 36.10 5.04 o
5 0 1 9554.68 9579.64 93.09 o
6 0 1 2465.93 2471.92 49.08 o
7 0 1 34.22 26.52 15.45 o
8 0 1 4054.79 4164.25 107.02 o
9 0 1 1281.68 1312.02 65.76 o
-9 1 1 2313.21 2338.85 109.48 o
-8 1 1 0.22 9.26 14.07 o
-7 1 1 2866.72 2872.46 58.82 o
-6 1 1 9705.08 9618.50 143.94 o
-5 1 1 67.44 68.47 7.12 o
-4 1 1 3590.53 3503.92 41.41 o
-3 1 1 22560.74 22176.67 192.30 o
-2 1 1 296.45 266.65 7.22 o
-1 1 1 3792.60 3899.42 44.17 o
0 1 1 39982.30 38395.44 689.93 o
1 1 1 866.97 789.08 11.94 o
2 1 1 492.36 470.35 12.05 o
3 1 1 15355.88 15401.39 139.38 o
4 1 1 3210.52 3181.04 39.21 o
5 1 1 66.70 65.12 8.06 o
6 1 1 6849.91 6673.73 95.57 o
7 1 1 2788.16 2762.06 73.16 o
8 1 1 1.21 12.64 18.21 o
-9 2 1 2106.60 2088.00 81.66 o
-8 2 1 4695.27 4860.66 99.65 o
-7 2 1 29.90 36.08 12.51 o
-6 2 1 5666.84 5769.91 86.83 o
-5 2 1 14644.60 15127.79 141.54 o
-4 2 1 201.17 175.51 9.13 o
-3 2 1 6710.32 6788.55 65.90 o
-2 2 1 22953.11 23772.99 190.25 o
-1 2 1 1960.43 2284.09 28.29 o
0 2 1 716.11 753.75 13.54 o
1 2 1 22206.21 22749.26 211.01 o
2 2 1 2642.85 2436.43 28.80 o
3 2 1 361.68 411.25 14.25 o
4 2 1 8690.23 8540.25 83.72 o
5 2 1 2642.11 2520.28 48.49 o
6 2 1 185.92 238.40 19.63 o
7 2 1 2767.88 2819.95 80.82 o
8 2 1 1961.64 1980.00 101.61 o
-9 3 1 0.86 7.64 19.12 o
-8 3 1 2442.74 2468.13 75.89 o
-7 3 1 4962.77 5192.10 98.62 o
-6 3 1 168.46 171.76 15.55 o
-5 3 1 3226.15 3163.56 44.68 o
-4 3 1 13772.24 13952.07 138.34 o
-3 3 1 932.72 1197.34 19.28 o
-2 3 1 745.49 711.92 16.80 o
-1 3 1 11011.52 10075.90 105.65 o
0 3 1 148.61 241.16 14.79 o
1 3 1 206.81 335.02 13.05 o
2 3 1 16499.50 16337.09 148.56 o
3 3 1 1178.07 1155.65 22.42 o
4 3 1 306.46 276.13 13.98 o
5 3 1 4789.98 4788.58 75.35 o
6 3 1 2355.62 2439.94 102.97 o
7 3 1 13.56 20.31 20.00 o
8 3 1 1799.32 1813.80 62.34 o
-9 4 1 2937.20 2888.58 119.83 o
-8 4 1 5.93 -6.64 16.11 o
-7 4 1 1411.66 1508.84 55.07 o
-6 4 1 8812.87 8637.76 136.82 o
-5 4 1 356.43 368.12 17.28 o
-4 4 1 1603.78 1504.61 26.73 o
-3 4 1 20868.54 20901.23 215.63 o
-2 4 1 1042.57 916.78 23.77 o
-1 4 1 516.78 413.04 16.19 o
0 4 1 23416.47 23746.54 222.23 o
1 4 1 1668.02 1558.42 26.15 o
2 4 1 88.03 94.45 8.05 o
3 4 1 7496.41 7439.22 80.58 o
4 4 1 4994.88 5045.36 95.15 o
5 4 1 153.92 173.79 17.14 o
6 4 1 2761.46 2822.87 71.62 o
7 4 1 2216.41 2186.40 87.57 o
-9 5 1 2125.74 1999.61 74.52 o
-8 5 1 4683.22 4827.07 127.39 o
-7 5 1 4.72 8.26 15.77 o
-6 5 1 2525.58 2461.12 51.91 o
-5 5 1 7674.27 7754.02 97.88 o
-4 5 1 1165.29 1151.20 24.42 o
-3 5 1 1729.20 1770.60 33.69 o
-2 5 1 23865.54 24115.07 269.61 o
-1 5 1 171.72 138.07 9.73 o
0 5 1 2524.15 2634.92 45.05 o
1 5 1 11481.84 11443.41 111.51 o
2 5 1 1372.76 1384.54 26.41 o
3 5 1 535.36 555.87 23.05 o
4 5 1 5736.13 5780.42 94.97 o
5 5 1 2085.41 2038.03 59.34 o
6 5 1 13.71 25.20 16.87 o
7 5 1 2360.11 2225.08 68.34 o
-9 6 1 37.10 34.07 23.01 o
-8 6 1 1101.05 1106.84 57.63 o
-7 6 1 4634.69 4689.59 110.32 o
-6 6 1 12.50 15.74 10.40 o
-5 6 1 974.17 942.87 28.00 o
-4 6 1 10546.22 10729.70 126.24 o
-3 6 1 173.81 160.82 11.00 o
-2 6 1 970.55 962.87 23.62 o
-1 6 1 14914.15 14708.49 159.47 o
0 6 1 952.20 932.96 22.03 o
1 6 1 557.99 547.08 18.91 o
2 6 1 8336.65 8375.86 106.63 o
3 6 1 1752.88 1777.34 46.37 o
4 6 1 6.31 18.36 15.07 o
5 6 1 3179.09 3067.37 86.49 o
6 6 1 1920.33 1909.66 85.85 o
-9 7 1 2705.67 2854.18 93.04 o
-8 7 1 86.96 131.94 26.19 o
-7 7 1 1748.46 1792.12 65.97 o
-6 7 1 7905.50 7772.22 129.66 o
-5 7 1 179.94 180.42 26.73 o
-4 7 1 2245.30 2214.15 42.94 o
-3 7 1 7843.77 7927.50 109.10 o
-2 7 1 1558.91 1507.30 41.01 o
-1 7 1 294.32 311.19 17.37 o
0 7 1 9703.33 9686.36 128.85 o
1 7 1 3115.74 3149.92 61.34 o
2 7 1 191.46 189.23 18.34 o
3 7 1 5692.57 5565.66 107.59 o
4 7 1 1739.01 1756.37 63.15 o
5 7 1 13.63 25.96 18.76 o
-9 8 1 1209.91 1162.60 67.99 o
-8 8 1 3131.89 3031.26 94.20 o
-7 8 1 90.39 80.68 21.99 o
-6 8 1 1218.51 1252.25 55.33 o
-5 8 1 6912.03 6628.07 115.56 o
-4 8 1 391.46 441.67 34.14 o
-3 8 1 597.28 581.07 30.84 o
-2 8 1 9765.25 9635.40 147.86 o
-1 8 1 1551.37 1529.30 44.55 o
0 8 1 306.32 367.04 31.40 o
1 8 1 8190.23 7983.58 153.29 o
2 8 1 1373.07 1302.11 73.65 o
3 8 1 17.82 5.56 16.95 o
4 8 1 3593.82 3511.06 98.84 o
-8 9 1 1275.35 1302.04 135.03 o
-7 9 1 3835.23 3735.34 133.97 o
-6 9 1 179.47 166.73 27.64 o
-5 9 1 794.91 820.75 63.43 o
-4 9 1 9804.04 9596.91 179.32 o
-3 9 1 785.87 740.57 58.98 o
-2 9 1 1346.39 1350.08 52.62 o
-1 9 1 6690.81 6729.81 136.82 o
0 9 1 1196.12 1145.06 50.61 o
1 9 1 149.01 184.03 38.98 o
2 9 1 3948.86 4002.51 101.56 o
3 9 1 1148.94 1141.30 56.80 o
-7 10 1 928.80 898.53 75.81 o
-6 10 1 4009.99 4174.67 109.41 o
-5 10 1 153.88 151.27 32.92 o
-4 10 1 548.27 589.50 42.98 o
-3 10 1 4558.88 4218.20 142.06 o
-2 10 1 726.50 617.19 46.84 o
-1 10 1 304.12 309.35 32.78 o
0 10 1 3632.81 3543.56 132.96 o
1 10 1 623.02 491.41 39.99 o
2 10 1 23.10 26.07 19.75 o
-6 11 1 526.20 528.25 45.16 o
-5 11 1 3964.78 3799.49 103.77 o
-4 11 1 296.55 261.84 32.37 o
-3 11 1 179.30 175.56 28.59 o
-2 11 1 4018.26 3969.05 104.22 o
-1 11 1 760.12 717.70 63.22 o
0 11 1 60.51 56.75 22.58 o
-3 12 1 341.22 325.32 56.49 o
2 -12 2 532.97 569.86 100.83 o
3 -12 2 1398.33 1414.97 70.22 o
4 -12 2 3035.90 3096.34 87.43 o
-1 -11 2 2599.04 2328.75 173.22 o
0 -11 2 97.02 87.94 53.74 o
1 -11 2 1552.42 1501.36 41.64 o
2 -11 2 3242.49 3294.88 73.92 o
3 -11 2 312.46 311.62 29.11 o
4 -11 2 666.10 647.12 33.65 o
5 -11 2 3243.11 3100.78 153.77 o
6 -11 2 603.04 594.54 43.50 o
-2 -10 2 67.44 20.43 54.19 o
-1 -10 2 1367.06 1366.03 82.92 o
0 -10 2 4135.23 4183.32 66.87 o
1 -10 2 182.57 207.85 16.50 o
2 -10 2 1377.23 1409.92 36.54 o
3 -10 2 3620.12 3691.37 65.91 o
4 -10 2 744.17 793.13 34.40 o
5 -10 2 442.84 469.95 36.29 o
6 -10 2 3205.61 3197.57 126.58 o
7 -10 2 1171.46 1264.16 114.83 o
-3 -9 2 2195.94 2227.70 88.77 o
-2 -9 2 3488.86 3420.72 103.31 o
-1 -9 2 98.04 100.03 13.07 o
0 -9 2 1519.96 1539.94 35.12 o
1 -9 2 5625.78 5740.13 84.24 o
2 -9 2 905.96 869.55 28.41 o
3 -9 2 826.30 790.52 28.34 o
4 -9 2 6242.67 6142.69 92.78 o
5 -9 2 1033.70 1086.28 41.37 o
6 -9 2 380.56 340.53 39.43 o
7 -9 2 3071.73 3079.26 87.79 o
8 -9 2 1284.92 1322.13 62.10 o
-4 -8 2 2346.94 2298.36 89.05 o
-3 -8 2 6.20 -14.47 18.82 o
-2 -8 2 1053.41 1026.97 25.97 o
-1 -8 2 5491.83 5571.02 84.85 o
0 -8 2 327.10 346.75 16.45 o
1 -8 2 670.32 682.24 34.65 o
2 -8 2 10447.06 10459.45 192.53 o
3 -8 2 384.64 381.84 20.36 o
4 -8 2 1301.95 1324.85 34.90 o
5 -8 2 5326.72 5175.65 94.01 o
6 -8 2 1280.35 1287.93 61.21 o
7 -8 2 474.35 450.14 37.06 o
8 -8 2 2743.27 2768.24 85.21 o
9 -8 2 1497.46 1465.79 69.14 o
-5 -7 2 9.53 31.04 22.06 o
-4 -7 2 2484.02 2470.49 113.50 o
-3 -7 2 3924.37 4080.06 80.58 o
-2 -7 2 37.09 44.46 9.60 o
-1 -7 2 2725.62 2745.79 40.61 o
0 -7 2 9248.25 9271.27 116.56 o
1 -7 2 46.49 43.71 10.64 o
2 -7 2 1474.80 1512.68 32.46 o
3 -7 2 7439.21 7334.56 89.64 o
4 -7 2 2461.67 2299.59 44.97 o
5 -7 2 1223.01 1211.89 38.34 o
6 -7 2 5058.96 4917.86 92.03 o
7 -7 2 2248.12 2238.88 79.43 o
8 -7 2 189.42 140.74 26.50 o
9 -7 2 2570.65 2621.44 120.29 o
-6 -6 2 2093.09 2082.91 87.86 o
-5 -6 2 2272.26 2202.85 70.57 o
-4 -6 2 102.80 105.85 10.44 o
-3 -6 2 1989.20 2043.90 36.81 o
-2 -6 2 7741.83 7856.26 87.45 o
-1 -6 2 17.60 23.50 5.47 o
0 -6 2 407.06 411.94 14.67 o
1 -6 2 9030.63 9156.37 102.40 o
2 -6 2 1406.70 1395.37 26.47 o
3 -6 2 318.43 318.99 13.73 o
4 -6 2 9075.72 9271.22 108.26 o
5 -6 2 2635.91 2657.16 50.35 o
6 -6 2 343.83 407.06 28.08 o
7 -6 2 5727.65 5610.72 121.85 o
8 -6 2 1710.23 1635.48 63.33 o
9 -6 2 44.63 19.84 29.24 o
-7 -5 2 1897.57 1905.34 85.72 o
-6 -5 2 3.17 5.95 17.27 o
-5 -5 2 2398.50 2426.00 51.34 o
-4 -5 2 5907.04 6025.00 78.97 o
-3 -5 2 13.45 17.10 6.26 o
-2 -5 2 2764.42 2769.50 35.85 o
-1 -5 2 12055.55 12158.12 113.72 o
0 -5 2 1140.44 1127.66 19.71 o
1 -5 2 3560.83 3533.90 42.72 o
2 -5 2 19677.75 19922.93 186.09 o
3 -5 2 3692.94 3641.20 55.00 o
4 -5 2 1855.41 1932.28 29.70 o
5 -5 2 12608.02 12340.50 145.30 o
6 -5 2 4499.95 4501.28 99.11 o
7 -5 2 394.13 341.75 34.61 o
8 -5 2 5004.29 4818.01 115.51 o
9 -5 2 2218.85 2174.17 107.04 o
-7 -4 2 2678.01 2694.83 95.46 o
-6 -4 2 2963.39 3056.29 48.82 o
-5 -4 2 55.59 65.85 9.56 o
-4 -4 2 5442.49 5480.78 67.92 o
-3 -4 2 6333.44 6320.73 67.12 o
-2 -4 2 429.82 442.07 11.39 o
-1 -4 2 5555.52 5623.15 56.46 o
0 -4 2 19823.43 20505.46 189.17 o
1 -4 2 2487.29 2500.46 30.16 o
2 -4 2 4315.97 4429.18 48.81 o
3 -4 2 18591.31 18562.65 191.61 o
4 -4 2 2022.57 2056.14 32.10 o
5 -4 2 462.84 475.82 26.48 o
6 -4 2 9530.50 9796.33 131.68 o
7 -4 2 1608.26 1641.98 67.92 o
8 -4 2 42.70 70.06 20.92 o
9 -4 2 3066.79 2883.85 125.03 o
-8 -3 2 2116.15 2333.11 115.57 o
-7 -3 2 2.91 14.58 8.89 o
-6 -3 2 2475.06 2514.07 45.71 o
-5 -3 2 5758.40 5781.51 93.24 o
-4 -3 2 238.11 257.80 12.13 o
-3 -3 2 3532.17 3563.87 41.40 o
-2 -3 2 16090.56 16153.03 135.01 o
-1 -3 2 1058.62 1025.13 13.57 o
0 -3 2 6871.57 7481.10 66.70 o
1 -3 2 19615.41 19006.33 171.18 o
2 -3 2 1012.59 861.12 15.78 o
3 -3 2 454.03 452.65 13.84 o
4 -3 2 18621.83 19157.97 184.87 o
5 -3 2 1498.46 1452.34 28.64 o
6 -3 2 17.29 13.32 8.29 o
7 -3 2 5618.44 5600.87 115.01 o
8 -3 2 3019.81 3079.54 128.91 o
9 -3 2 26.49 1.69 32.65 o
-8 -2 2 2150.36 2222.29 48.29 o
-7 -2 2 2860.04 2797.29 48.27 o
-6 -2 2 64.37 60.37 9.77 o
-5 -2 2 5485.79 5373.92 67.52 o
-4 -2 2 12238.72 12154.09 104.43 o
-3 -2 2 818.41 877.20 14.53 o
-2 -2 2 20227.98 20532.41 166.66 o
-1 -2 2 20272.08 20822.69 192.22 o
0 -2 2 3095.62 3419.35 46.67 o
1 -2 2 5925.79 6203.31 58.20 o
2 -2 2 28560.72 30305.56 293.31 o
3 -2 2 3167.43 3106.79 36.12 o
4 -2 2 50.78 35.42 5.82 o
5 -2 2 11547.17 11551.90 113.25 o
6 -2 2 3630.81 3518.96 51.08 o
7 -2 2 30.64 17.84 13.81 o
8 -2 2 3343.70 3191.55 92.23 o
9 -2 2 1952.67 1950.27 76.41 o
-8 -1 2 3.96 2.26 11.71 o
-7 -1 2 3391.61 3220.92 52.52 o
-6 -1 2 7911.36 7932.86 88.51 o
-5 -1 2 344.69 409.95 14.73 o
-4 -1 2 7819.31 7818.16 70.95 o
-3 -1 2 19250.81 19128.33 150.90 o
-2 -1 2 2240.61 2579.52 24.64 o
-1 -1 2 6791.39 6723.52 76.60 o
0 -1 2 31233.01 30560.86 537.80 o
1 -1 2 834.01 737.52 12.24 o
2 -1 2 58.98 79.32 5.23 o
3 -1 2 22687.48 22862.59 187.66 o
4 -1 2 2039.59 1967.34 31.12 o
5 -1 2 120.00 158.36 11.28 o
6 -1 2 8877.20 8855.52 160.76 o
7 -1 2 1603.08 1576.36 59.77 o
8 -1 2 18.98 13.16 18.61 o
9 -1 2 2180.41 2206.84 81.18 o
-9 0 2 2264.79 2103.90 57.63 o
-8 0 2 3701.39 3725.05 62.85 o
-7 0 2 94.46 82.52 11.63 o
-6 0 2 4531.21 4485.15 57.99 o
-5 0 2 7651.22 7562.73 71.72 o
-4 0 2 83.09 81.70 5.75 o
-3 0 2 7651.11 7610.74 64.36 o
-2 0 2 19791.48 19810.82 150.08 o
-1 0 2 1193.26 990.05 14.49 o
0 0 2 6849.64 7534.76 129.59 o
1 0 2 35240.31 35590.74 297.84 o
2 0 2 2290.68 2256.48 29.61 o
3 0 2 3990.48 4107.21 45.93 o
4 0 2 12156.78 11860.77 114.72 o
5 0 2 1727.62 1662.58 31.86 o
6 0 2 228.20 202.23 15.68 o
7 0 2 3643.46 3617.91 94.65 o
8 0 2 1707.03 1811.53 69.46 o
9 0 2 2.01 2.58 21.90 o
-9 1 2 18.86 21.74 14.76 o
-8 1 2 3007.99 2987.34 55.13 o
-7 1 2 3367.32 3350.34 56.28 o
-6 1 2 165.53 152.86 12.47 o
-5 1 2 3218.30 3135.39 38.19 o
-4 1 2 12269.88 11972.75 104.53 o
-3 1 2 3717.57 4169.89 40.71 o
-2 1 2 3049.07 3067.94 29.22 o
-1 1 2 27720.62 29072.40 329.24 o
0 1 2 4415.04 4853.90 47.87 o
1 1 2 3821.16 4015.35 40.40 o
2 1 2 9986.16 9840.33 86.67 o
3 1 2 687.13 715.47 18.91 o
4 1 2 26.41 32.41 6.46 o
5 1 2 5054.50 5114.85 63.42 o
6 1 2 1930.95 1947.28 49.01 o
7 1 2 105.07 132.44 20.92 o
8 1 2 3614.36 3612.83 99.47 o
-9 2 2 2760.68 2697.20 79.50 o
-8 2 2 46.95 60.79 14.61 o
-7 2 2 2383.84 2456.13 47.04 o
-6 2 2 10220.17 9935.13 130.06 o
-5 2 2 387.14 407.35 13.80 o
-4 2 2 3233.77 3180.41 43.18 o
-3 2 2 19425.15 19907.54 173.35 o
-2 2 2 1251.38 1226.85 20.96 o
-1 2 2 3449.90 4018.25 45.52 o
0 2 2 22715.66 23149.68 197.25 o
1 2 2 1808.72 1671.02 26.74 o
2 2 2 1302.56 1262.16 22.44 o
3 2 2 13359.51 13172.76 146.25 o
4 2 2 3788.41 3716.96 55.69 o
5 2 2 154.66 123.97 13.16 o
6 2 2 7532.28 7459.06 185.53 o
7 2 2 1449.53 1511.06 53.65 o
8 2 2 62.34 51.06 21.43 o
-9 3 2 2101.27 2214.05 73.56 o
-8 3 2 2945.63 2960.02 64.37 o
-7 3 2 1.37 -11.93 11.93 o
-6 3 2 4946.74 4697.74 80.64 o
-5 3 2 6032.00 5817.39 68.79 o
-4 3 2 149.66 170.82 8.90 o
-3 3 2 4583.00 4618.86 46.29 o
-2 3 2 14776.96 14615.23 138.11 o
-1 3 2 1823.29 1978.12 26.23 o
0 3 2 4670.84 4896.76 64.18 o
1 3 2 13081.38 12869.03 160.40 o
2 3 2 4517.27 4631.89 62.10 o
3 3 2 1586.25 1673.36 28.47 o
4 3 2 9353.99 9120.03 104.74 o
5 3 2 1133.29 1136.70 33.95 o
6 3 2 7.31 20.89 14.96 o
7 3 2 3650.33 3568.49 86.17 o
8 3 2 1123.49 1158.58 61.41 o
-9 4 2 0.19 8.71 25.82 o
-8 4 2 2593.10 2623.39 68.55 o
-7 4 2 3599.09 3480.20 94.38 o
-6 4 2 305.02 268.53 18.45 o
-5 4 2 2124.75 2154.27 33.36 o
-4 4 2 10392.84 10250.88 100.10 o
-3 4 2 272.34 276.52 15.92 o
-2 4 2 702.35 670.95 23.52 o
-1 4 2 10647.70 11020.41 130.65 o
0 4 2 2599.47 2622.22 42.65 o
1 4 2 130.18 138.21 9.73 o
2 4 2 14170.72 14033.79 135.96 o
3 4 2 2148.79 2183.41 38.44 o
4 4 2 36.38 42.20 11.91 o
5 4 2 7092.03 7046.23 113.17 o
6 4 2 1412.53 1471.30 52.53 o
7 4 2 1.00 -11.16 28.59 o
-9 5 2 2244.82 2155.60 75.10 o
-8 5 2 2.35 -12.14 16.46 o
-7 5 2 2575.16 2722.54 78.28 o
-6 5 2 4741.29 4668.85 89.19 o
-5 5 2 92.59 74.45 9.02 o
-4 5 2 1876.34 1757.78 32.84 o
-3 5 2 10534.39 10537.98 127.89 o
-2 5 2 2037.40 2164.61 39.43 o
-1 5 2 1529.51 1575.85 34.06 o
0 5 2 18247.73 18183.26 232.65 o
1 5 2 3120.84 3030.01 41.27 o
2 5 2 930.13 917.41 33.34 o
3 5 2 8581.01 8633.81 123.92 o
4 5 2 2581.05 2545.22 65.51 o
5 5 2 55.07 46.36 18.26 o
6 5 2 2694.06 2615.55 73.06 o
-9 6 2 2207.93 2366.08 89.29 o
-8 6 2 2822.11 2934.60 86.65 o
-7 6 2 139.55 152.00 24.62 o
-6 6 2 2546.83 2636.92 64.18 o
-5 6 2 8039.33 7864.94 112.19 o
-4 6 2 1508.32 1457.06 32.43 o
-3 6 2 2387.63 2378.45 40.71 o
-2 6 2 16792.84 16881.53 199.63 o
-1 6 2 1449.18 1516.30 34.55 o
0 6 2 1079.52 1060.94 24.42 o
1 6 2 9694.28 9797.29 110.47 o
2 6 2 1958.32 2115.46 49.16 o
3 6 2 13.83 18.20 11.82 o
4 6 2 4859.22 4755.37 171.73 o
5 6 2 2265.09 2114.62 153.38 o
6 6 2 0.77 5.32 17.77 o
-9 7 2 4.71 -19.59 19.59 o
-8 7 2 1835.39 1875.87 112.82 o
-7 7 2 5606.53 5646.28 137.27 o
-6 7 2 16.35 21.00 16.36 o
-5 7 2 2659.50 2691.92 50.74 o
-4 7 2 9038.18 9076.46 147.64 o
-3 7 2 102.02 98.93 12.48 o
-2 7 2 1284.22 1265.67 45.20 o
-1 7 2 9271.63 9305.37 124.80 o
0 7 2 1488.11 1546.50 38.89 o
1 7 2 325.46 319.80 24.47 o
2 7 2 7826.31 7840.57 134.99 o
3 7 2 1792.37 1753.98 62.68 o
4 7 2 280.54 324.61 34.23 o
5 7 2 2236.36 2246.76 77.84 o
-8 8 2 4.72 32.43 20.44 o
-7 8 2 1632.86 1679.44 70.47 o
-6 8 2 5101.06 5159.09 119.59 o
-5 8 2 237.32 243.35 28.62 o
-4 8 2 1820.41 1914.68 52.40 o
-3 8 2 5405.82 5296.13 141.49 o
-2 8 2 1774.92 1704.81 48.16 o
-1 8 2 514.87 476.20 29.76 o
0 8 2 6520.33 6314.61 129.99 o
1 8 2 1477.00 1539.02 57.68 o
2 8 2 146.23 137.95 24.84 o
3 8 2 2349.31 2341.11 99.79 o
4 8 2 1339.94 1417.29 63.99 o
-8 9 2 4003.93 4185.16 115.43 o
-7 9 2 117.69 106.49 35.10 o
-6 9 2 1397.84 1405.99 51.23 o
-5 9 2 5880.89 5719.46 329.57 o
-4 9 2 864.29 870.01 59.75 o
-3 9 2 1197.30 1263.47 67.67 o
-2 9 2 6702.83 6509.41 135.65 o
-1 9 2 681.52 690.62 45.40 o
0 9 2 158.01 104.03 22.90 o
1 9 2 4031.82 3924.84 101.35 o
2 9 2 1361.26 1192.04 90.53 o
3 9 2 18.85 -6.67 18.47 o
-7 10 2 2779.29 2725.34 119.12 o
-6 10 2 167.45 96.02 35.21 o
-5 10 2 1283.34 1214.31 84.80 o
-4 10 2 4341.26 4209.73 127.00 o
-3 10 2 488.41 457.59 51.95 o
-2 10 2 952.99 1057.03 55.09 o
-1 10 2 3470.81 3432.82 94.29 o
0 10 2 743.41 771.90 94.10 o
1 10 2 247.87 259.32 33.51 o
2 10 2 2103.31 2019.44 75.47 o
-6 11 2 2610.92 2609.71 118.19 o
-5 11 2 300.49 287.41 34.97 o
-4 11 2 634.42 653.50 48.46 o
-3 11 2 2916.36 2968.33 90.87 o
-2 11 2 483.28 597.23 47.65 o
-1 11 2 214.17 201.40 31.71 o
0 11 2 2237.16 2121.38 79.13 o
2 -12 3 492.09 439.28 91.50 o
3 -12 3 3797.03 3592.84 205.65 o
4 -12 3 243.51 232.74 71.95 o
-1 -11 3 35.54 7.11 52.41 o
0 -11 3 1343.96 1313.04 91.82 o
1 -11 3 2973.20 2999.69 128.81 o
2 -11 3 227.70 212.03 39.91 o
3 -11 3 844.82 809.57 28.35 o
4 -11 3 3852.74 3634.71 69.49 o
5 -11 3 538.87 481.76 27.99 o
6 -11 3 470.52 447.25 35.77 o
-2 -10 3 1535.01 1558.46 92.65 o
-1 -10 3 3898.11 3964.81 151.46 o
0 -10 3 47.84 46.13 25.68 o
1 -10 3 1510.58 1501.17 173.22 o
2 -10 3 4232.34 4200.38 74.14 o
3 -10 3 323.20 372.20 28.21 o
4 -10 3 387.23 425.10 22.91 o
5 -10 3 3921.50 4132.26 79.55 o
6 -10 3 1094.57 1116.23 55.58 o
7 -10 3 228.01 300.35 32.25 o
-3 -9 3 2725.66 2738.98 96.47 o
-2 -9 3 7.19 35.11 22.83 o
-1 -9 3 1379.05 1378.08 73.04 o
0 -9 3 3771.12 3765.81 118.67 o
1 -9 3 137.35 146.75 21.31 o
2 -9 3 1558.32 1540.40 33.12 o
3 -9 3 2968.87 2981.40 60.51 o
4 -9 3 1035.65 1038.34 48.54 o
5 -9 3 709.62 762.98 30.09 o
6 -9 3 4044.23 3818.38 93.30 o
7 -9 3 967.76 983.48 51.43 o
8 -9 3 165.38 120.69 37.97 o
-4 -8 3 34.47 7.78 21.40 o
-3 -8 3 1269.35 1267.75 131.73 o
-2 -8 3 3895.57 3966.40 104.49 o
-1 -8 3 133.72 149.32 21.14 o
0 -8 3 1437.43 1366.41 40.57 o
1 -8 3 5909.41 6054.75 83.27 o
2 -8 3 2306.14 2296.81 41.18 o
3 -8 3 2324.10 2486.44 41.77 o
4 -8 3 6988.74 7023.28 98.06 o
5 -8 3 939.16 912.22 40.99 o
6 -8 3 93.67 87.06 16.48 o
7 -8 3 4554.79 4652.34 108.63 o
8 -8 3 1465.09 1617.68 64.20 o
-5 -7 3 1409.90 1564.90 70.98 o
-4 -7 3 5088.92 5170.87 196.31 o
-3 -7 3 17.76 46.48 19.68 o
-2 -7 3 2155.03 2172.72 71.63 o
-1 -7 3 7977.19 7782.23 110.67 o
0 -7 3 759.19 813.65 29.01 o
1 -7 3 3443.49 3349.00 49.29 o
2 -7 3 10412.74 10624.38 109.10 o
3 -7 3 864.88 900.25 22.27 o
4 -7 3 1832.49 1801.05 34.49 o
5 -7 3 7613.65 7600.11 108.82 o
6 -7 3 1203.74 1234.07 41.15 o
7 -7 3 276.54 287.71 29.64 o
8 -7 3 4099.12 4117.16 105.29 o
9 -7 3 1659.57 1528.84 67.79 o
-6 -6 3 2040.35 2194.21 100.01 o
-5 -6 3 6.44 -2.71 17.54 o
-4 -6 3 2127.39 2213.69 74.54 o
-3 -6 3 5394.36 5365.84 97.61 o
-2 -6 3 18.50 20.52 10.94 o
-1 -6 3 5726.70 5429.47 73.00 o
0 -6 3 7026.36 7195.62 124.09 o
1 -6 3 50.50 71.12 6.38 o
2 -6 3 2517.44 2523.22 34.33 o
3 -6 3 8220.42 8073.25 86.33 o
4 -6 3 3006.28 3086.61 48.86 o
5 -6 3 1260.69 1282.44 39.41 o
6 -6 3 8014.02 7884.13 126.72 o
7 -6 3 1789.86 1805.59 61.16 o
8 -6 3 208.08 216.57 29.69 o
9 -6 3 2484.46 2490.31 83.72 o
-7 -5 3 54.13 77.86 31.04 o
-6 -5 3 2186.35 2242.92 72.49 o
-5 -5 3 4051.50 4008.39 92.14 o
-4 -5 3 6.96 9.71 11.20 o
-3 -5 3 3248.48 3418.34 60.27 o
-2 -5 3 13550.48 13383.64 138.29 o
-1 -5 3 276.32 273.24 15.11 o
0 -5 3 3323.11 3158.66 72.38 o
1 -5 3 19168.51 18976.59 174.64 o
2 -5 3 1731.84 1854.67 26.19 o
3 -5 3 783.45 738.69 17.46 o
4 -5 3 13760.07 13921.78 139.46 o
5 -5 3 3095.11 3152.53 74.99 o
6 -5 3 523.63 509.78 29.64 o
7 -5 3 4892.02 4890.46 110.61 o
8 -5 3 2108.68 1989.33 71.69 o
9 -5 3 56.89 45.57 38.36 o
-7 -4 3 2492.02 2662.94 91.16 o
-6 -4 3 12.09 29.56 21.29 o
-5 -4 3 2593.30 2700.40 65.02 o
-4 -4 3 7436.21 7483.67 106.81 o
-3 -4 3 146.20 132.11 12.59 o
-2 -4 3 2918.77 2874.09 49.69 o
-1 -4 3 20400.91 20220.64 209.56 o
0 -4 3 1160.74 1186.39 22.41 o
1 -4 3 6463.68 6323.92 76.80 o
2 -4 3 21273.87 21916.93 199.68 o
3 -4 3 1241.73 1270.22 21.38 o
4 -4 3 2852.40 2918.20 37.68 o
5 -4 3 6161.65 6148.08 73.24 o
6 -4 3 5204.45 5223.22 92.46 o
7 -4 3 737.35 758.72 53.52 o
8 -4 3 3598.11 3647.03 99.35 o
9 -4 3 1799.82 1777.20 70.90 o
-8 -3 3 32.47 45.71 28.61 o
-7 -3 3 2755.75 2742.27 78.78 o
-6 -3 3 4527.95 4607.08 85.03 o
-5 -3 3 56.78 67.14 13.21 o
-4 -3 3 5514.61 5431.35 68.55 o
-3 -3 3 11297.84 11396.55 139.40 o
-2 -3 3 395.90 375.71 12.35 o
-1 -3 3 3772.81 3689.77 50.32 o
0 -3 3 38738.16 40291.33 455.98 o
1 -3 3 5013.29 5530.82 72.67 o
2 -3 3 5793.40 5885.57 83.44 o
3 -3 3 24450.19 24209.74 222.05 o
4 -3 3 3754.46 3817.82 45.63 o
5 -3 3 1989.96 1967.71 40.21 o
6 -3 3 5605.54 5467.48 95.33 o
7 -3 3 2341.85 2235.01 68.28 o
8 -3 3 21.95 24.80 17.75 o
9 -3 3 2857.59 2696.49 116.94 o
-8 -2 3 2576.27 2568.82 94.69 o
-7 -2 3 261.29 243.59 36.67 o
-6 -2 3 2640.56 2751.48 41.26 o
-5 -2 3 7795.17 7675.82 83.60 o
-4 -2 3 123.99 124.51 10.69 o
-3 -2 3 3859.97 3900.67 49.02 o
-2 -2 3 24130.13 24839.00 238.39 o
-1 -2 3 123.34 91.65 6.40 o
0 -2 3 1988.53 1954.32 25.98 o
1 -2 3 22800.51 22737.07 240.13 o
2 -2 3 2038.83 1946.75 22.59 o
3 -2 3 4393.62 4360.20 46.80 o
4 -2 3 7308.41 6887.46 71.32 o
5 -2 3 1587.27 1636.93 30.81 o
6 -2 3 512.27 463.80 24.48 o
7 -2 3 3345.06 3395.58 131.29 o
8 -2 3 1942.46 1979.84 70.02 o
9 -2 3 43.60 76.05 72.40 o
-8 -1 3 1485.16 1510.36 64.73 o
-7 -1 3 3726.53 3765.77 51.80 o
-6 -1 3 248.95 261.85 13.21 o
-5 -1 3 3700.79 3672.15 43.21 o
-4 -1 3 12683.42 12681.41 105.71 o
-3 -1 3 301.40 329.14 11.29 o
-2 -1 3 6981.36 7699.41 127.42 o
-1 -1 3 11793.01 11908.72 154.85 o
0 -1 3 2598.25 2544.52 76.84 o
1 -1 3 1087.58 1171.68 17.23 o
2 -1 3 10996.26 10365.94 92.98 o
3 -1 3 9813.49 10302.57 85.96 o
4 -1 3 359.48 367.37 16.77 o
5 -1 3 10753.35 10559.91 106.81 o
6 -1 3 3283.19 3219.58 60.68 o
7 -1 3 164.60 161.29 22.00 o
8 -1 3 2835.49 2813.90 113.08 o
9 -1 3 1423.25 1366.29 107.71 o
-9 0 3 2604.53 2613.25 167.89 o
-8 0 3 126.90 137.72 18.54 o
-7 0 3 4482.78 4686.53 63.97 o
-6 0 3 7303.66 7033.82 79.09 o
-5 0 3 106.54 118.38 8.21 o
-4 0 3 4439.43 4437.14 43.77 o
-3 0 3 15420.14 15315.22 163.81 o
-2 0 3 3538.12 3588.38 65.87 o
0 0 3 39848.43 40479.25 1266.97 o
1 0 3 2006.02 2180.63 20.26 o
2 0 3 1619.75 1579.88 18.54 o
3 0 3 18411.49 18301.35 138.74 o
4 0 3 1895.10 1773.11 28.33 o
5 0 3 561.67 562.44 19.73 o
6 0 3 6801.72 6881.03 102.93 o
7 0 3 1504.34 1521.17 51.04 o
8 0 3 45.19 41.20 21.39 o
9 0 3 1679.85 1690.04 143.02 o
-9 1 3 1943.91 1983.12 47.60 o
-8 1 3 3252.51 3363.93 56.99 o
-7 1 3 84.12 81.82 11.45 o
-6 1 3 2961.64 2953.34 44.72 o
-5 1 3 5210.84 5163.35 57.40 o
-4 1 3 111.94 116.69 7.15 o
-3 1 3 1891.01 1826.84 22.49 o
-2 1 3 11560.25 10820.60 101.11 o
-1 1 3 414.24 464.43 22.57 o
0 1 3 5794.34 5978.94 51.38 o
1 1 3 8066.64 7579.46 79.79 o
2 1 3 788.68 667.03 13.17 o
3 1 3 780.03 759.96 16.98 o
4 1 3 7964.38 7948.36 107.86 o
5 1 3 2565.04 2585.28 43.53 o
6 1 3 102.99 104.04 17.82 o
7 1 3 3659.47 3826.71 130.92 o
8 1 3 2723.17 2659.30 183.50 o
-9 2 3 6.90 7.66 11.70 o
-8 2 3 2778.42 2953.58 56.31 o
-7 2 3 4146.88 4162.56 64.41 o
-6 2 3 11.69 16.40 7.45 o
-5 2 3 4504.30 4602.38 53.03 o
-4 2 3 10102.42 9937.88 88.49 o
-3 2 3 21.32 37.87 5.44 o
-2 2 3 2706.49 2355.96 26.21 o
-1 2 3 10011.73 9477.82 90.29 o
0 2 3 5769.73 6164.37 62.62 o
1 2 3 337.74 296.75 9.77 o
2 2 3 22229.00 22020.43 183.70 o
3 2 3 2306.44 2073.43 31.79 o
4 2 3 75.56 86.52 10.14 o
5 2 3 7564.35 7573.19 101.47 o
6 2 3 2802.77 2880.12 71.09 o
7 2 3 83.47 103.24 21.82 o
8 2 3 1937.35 1875.49 75.73 o
-9 3 3 1946.30 1967.82 52.48 o
-8 3 3 0.11 4.23 12.75 o
-7 3 3 1901.10 1953.04 44.26 o
-6 3 3 9259.37 9641.14 126.83 o
-5 3 3 21.30 6.15 4.51 o
-4 3 3 2902.70 2930.86 34.47 o
-3 3 3 14147.41 13813.21 125.10 o
-2 3 3 247.41 200.21 9.07 o
-1 3 3 1721.10 1621.84 25.92 o
0 3 3 13948.00 13667.26 149.31 o
1 3 3 1897.72 1831.05 26.66 o
2 3 3 434.43 429.05 41.26 o
3 3 3 10318.70 10180.17 121.26 o
4 3 3 3395.40 3351.01 52.17 o
5 3 3 223.03 208.86 19.72 o
6 3 3 3817.77 3784.54 85.76 o
7 3 3 2460.19 2497.83 72.32 o
-9 4 3 1978.92 2002.03 68.14 o
-8 4 3 3410.78 3657.05 81.49 o
-7 4 3 4.49 -4.39 9.44 o
-6 4 3 3029.30 3197.99 57.74 o
-5 4 3 9265.63 9538.80 113.06 o
-4 4 3 292.74 316.02 12.09 o
-3 4 3 6765.88 7076.08 66.95 o
-2 4 3 14010.92 13601.23 179.27 o
-1 4 3 1496.63 1370.52 32.11 o
0 4 3 2631.10 2590.84 39.05 o
1 4 3 14666.95 14559.92 136.47 o
2 4 3 5680.08 5349.37 67.32 o
3 4 3 874.70 865.96 26.61 o
4 4 3 9368.25 9453.72 133.82 o
5 4 3 2484.89 2414.30 75.50 o
6 4 3 104.08 120.54 27.82 o
7 4 3 2658.07 2693.99 77.23 o
-9 5 3 65.99 59.54 22.06 o
-8 5 3 2664.68 2680.79 104.95 o
-7 5 3 4308.81 4635.46 92.37 o
-6 5 3 22.48 28.73 10.36 o
-5 5 3 2306.39 2362.93 46.90 o
-4 5 3 11075.73 11144.47 109.72 o
-3 5 3 762.70 701.21 18.03 o
-2 5 3 2570.62 2607.03 40.43 o
-1 5 3 18654.98 18313.28 191.77 o
0 5 3 1032.87 1060.74 26.65 o
1 5 3 1902.39 1927.13 34.52 o
2 5 3 8728.16 8895.13 111.41 o
3 5 3 1010.31 1057.54 33.24 o
4 5 3 142.97 140.92 27.67 o
5 5 3 3167.04 3021.99 88.40 o
6 5 3 1058.16 1127.17 81.35 o
-9 6 3 2244.49 2131.89 89.11 o
-8 6 3 44.44 80.10 25.82 o
-7 6 3 1777.96 1676.81 103.05 o
-6 6 3 6061.73 6255.08 111.77 o
-5 6 3 688.79 716.94 33.89 o
-4 6 3 2336.21 2428.29 43.68 o
-3 6 3 11305.64 11399.64 129.82 o
-2 6 3 1904.57 1806.24 34.50 o
-1 6 3 2423.13 2516.88 43.44 o
0 6 3 9504.94 9390.60 124.68 o
1 6 3 1563.70 1534.84 32.80 o
2 6 3 249.99 275.08 19.08 o
3 6 3 3743.39 3644.24 93.15 o
4 6 3 2692.22 2469.04 77.94 o
5 6 3 7.88 -1.36 18.27 o
6 6 3 2385.37 2240.44 79.94 o
-9 7 3 1895.39 1812.04 71.80 o
-8 7 3 3488.26 3450.73 95.61 o
-7 7 3 296.32 317.78 33.28 o
-6 7 3 4594.61 4637.66 93.88 o
-5 7 3 7548.31 7710.08 114.13 o
-4 7 3 453.53 463.50 29.11 o
-3 7 3 2744.64 2765.32 60.52 o
-2 7 3 11603.21 11665.45 166.19 o
-1 7 3 790.35 799.23 28.52 o
0 7 3 589.73 666.02 37.51 o
1 7 3 7801.60 7850.41 128.85 o
2 7 3 1744.20 1645.67 75.39 o
3 7 3 168.33 108.22 25.16 o
4 7 3 3900.06 3774.26 135.73 o
5 7 3 800.15 859.58 67.71 o
-8 8 3 2285.05 2282.70 79.65 o
-7 8 3 2992.09 3029.90 149.35 o
-6 8 3 225.58 210.89 27.73 o
-5 8 3 1832.02 1928.30 54.99 o
-4 8 3 6818.43 6661.99 136.35 o
-3 8 3 121.59 145.79 18.06 o
-2 8 3 437.75 459.85 31.03 o
-1 8 3 6040.16 6058.96 107.48 o
0 8 3 1029.99 1017.57 50.79 o
1 8 3 336.47 383.01 35.62 o
2 8 3 3927.13 3856.79 152.04 o
3 8 3 745.86 645.23 48.33 o
4 8 3 61.99 79.56 26.22 o
-8 9 3 185.57 174.23 57.76 o
-7 9 3 1756.87 1604.50 100.75 o
-6 9 3 3156.01 3117.74 91.55 o
-5 9 3 338.92 270.49 31.15 o
-4 9 3 1027.60 1060.93 54.66 o
-3 9 3 5088.99 5120.01 156.98 o
-2 9 3 698.37 681.55 44.50 o
-1 9 3 451.95 460.19 38.53 o
0 9 3 4444.81 4407.25 109.23 o
1 9 3 808.19 835.02 58.63 o
2 9 3 119.09 173.27 29.92 o
3 9 3 2115.77 2031.78 77.97 o
-7 10 3 49.40 31.67 24.72 o
-6 10 3 778.92 819.97 51.80 o
-5 10 3 3452.24 3594.50 131.08 o
-4 10 3 361.27 323.49 48.05 o
-3 10 3 381.79 364.40 48.62 o
-2 10 3 4462.84 4504.55 113.38 o
-1 10 3 373.83 392.00 39.27 o
0 10 3 139.25 178.37 28.86 o
1 10 3 2475.92 2502.74 129.47 o
-6 11 3 163.12 207.18 74.40 o
-5 11 3 753.02 718.40 70.59 o
-4 11 3 2852.96 2836.10 155.01 o
-3 11 3 483.64 464.20 61.07 o
-2 11 3 687.29 671.16 64.50 o
-1 11 3 2367.94 2355.72 83.70 o
0 11 3 652.40 638.39 51.02 o
3 -12 4 60.98 48.86 49.75 o
0 -11 4 2662.89 2969.01 200.10 o
1 -11 4 45.02 18.48 26.28 o
2 -11 4 561.80 461.07 51.74 o
3 -11 4 3783.65 3758.33 129.47 o
4 -11 4 246.00 286.39 44.83 o
5 -11 4 309.02 274.49 69.29 o
6 -11 4 2969.24 2918.38 78.05 o
-2 -10 4 2599.80 2563.67 173.22 o
-1 -10 4 169.67 165.15 36.93 o
0 -10 4 1600.45 1635.63 153.24 o
1 -10 4 3874.47 3968.50 102.34 o
2 -10 4 234.62 214.04 35.42 o
3 -10 4 633.29 608.21 54.99 o
4 -10 4 5793.97 5721.05 160.61 o
5 -10 4 247.49 224.54 16.72 o
6 -10 4 209.47 223.21 20.49 o
7 -10 4 3789.28 3667.19 76.72 o
-3 -9 4 8.86 -19.71 20.53 o
-2 -9 4 2601.60 2661.88 99.25 o
-1 -9 4 3804.66 3769.39 122.92 o
0 -9 4 11.47 0.30 14.83 o
1 -9 4 1944.02 1850.44 76.74 o
2 -9 4 6730.10 6811.55 196.10 o
3 -9 4 32.92 10.17 14.31 o
4 -9 4 133.60 134.66 12.35 o
5 -9 4 7866.13 7901.06 109.48 o
6 -9 4 893.68 927.14 35.26 o
7 -9 4 482.08 423.25 54.85 o
8 -9 4 3515.56 3430.54 92.74 o
-4 -8 4 1853.33 1886.87 83.11 o
-3 -8 4 2069.62 2097.20 78.26 o
-2 -8 4 113.85 73.94 21.36 o
-1 -8 4 1289.90 1297.98 50.35 o
0 -8 4 6333.20 6277.72 176.74 o
1 -8 4 368.48 413.81 30.11 o
2 -8 4 809.72 857.69 35.67 o
3 -8 4 9170.71 9012.05 103.14 o
4 -8 4 506.47 556.74 21.37 o
5 -8 4 671.31 638.47 25.42 o
6 -8 4 5153.32 5276.25 100.07 o
7 -8 4 1091.95 1083.08 49.78 o
8 -8 4 238.94 274.48 31.74 o
-5 -7 4 1680.98 1633.65 65.22 o
-4 -7 4 13.48 16.17 19.34 o
-3 -7 4 1934.81 1970.49 135.20 o
-2 -7 4 5607.66 5612.40 204.45 o
-1 -7 4 174.28 180.37 16.67 o
0 -7 4 2351.48 2300.40 44.21 o
1 -7 4 14187.43 13945.86 188.72 o
2 -7 4 248.21 268.74 16.50 o
3 -7 4 2794.91 2772.97 47.14 o
4 -7 4 10532.94 10589.48 144.97 o
5 -7 4 485.91 490.14 22.71 o
6 -7 4 143.44 145.54 15.48 o
7 -7 4 5325.48 5149.25 113.26 o
8 -7 4 1828.00 1807.42 65.30 o
9 -7 4 17.39 13.30 20.85 o
-6 -6 4 38.28 93.56 25.22 o
-5 -6 4 2096.63 2224.43 70.56 o
-4 -6 4 5948.27 5752.52 121.89 o
-3 -6 4 53.19 50.72 18.13 o
-2 -6 4 3481.56 3449.06 71.17 o
-1 -6 4 10436.53 10319.33 120.48 o
0 -6 4 236.18 235.23 15.12 o
1 -6 4 1337.66 1395.35 28.79 o
2 -6 4 15037.22 15016.62 196.89 o
3 -6 4 2708.69 2625.90 35.47 o
4 -6 4 1143.52 1134.61 28.67 o
5 -6 4 10482.09 10286.29 131.60 o
6 -6 4 1725.96 1756.07 51.64 o
7 -6 4 253.55 287.24 42.37 o
8 -6 4 4330.81 4200.88 105.00 o
9 -6 4 1034.68 1075.54 58.59 o
-7 -5 4 2051.43 1941.39 75.33 o
-6 -5 4 2893.74 2922.39 94.37 o
-5 -5 4 28.39 42.06 17.60 o
-4 -5 4 3210.41 3182.65 74.57 o
-3 -5 4 7519.49 7473.84 119.82 o
-2 -5 4 90.97 99.01 10.45 o
-1 -5 4 4840.03 4877.25 71.18 o
0 -5 4 11997.74 11675.51 141.59 o
1 -5 4 870.11 881.92 19.64 o
2 -5 4 2917.98 3054.93 51.64 o
3 -5 4 14668.38 14311.82 132.37 o
4 -5 4 2490.12 2406.95 35.42 o
5 -5 4 1896.72 1901.24 35.78 o
6 -5 4 9908.61 9808.98 130.78 o
7 -5 4 528.65 544.80 37.51 o
8 -5 4 33.66 -5.87 27.09 o
9 -5 4 3201.24 3174.69 94.50 o
-7 -4 4 140.68 83.29 27.47 o
-6 -4 4 2353.52 2417.59 71.11 o
-5 -4 4 3937.79 4075.73 88.71 o
-4 -4 4 43.54 46.68 11.41 o
-3 -4 4 3471.47 3398.02 49.50 o
-2 -4 4 13761.69 14331.55 154.69 o
-1 -4 4 56.27 52.54 6.30 o
0 -4 4 3248.91 3361.26 42.96 o
1 -4 4 13772.35 13841.12 171.19 o
2 -4 4 1392.51 1273.89 22.16 o
3 -4 4 285.89 309.32 10.72 o
4 -4 4 11932.00 11753.71 118.31 o
5 -4 4 1990.52 1857.36 45.67 o
6 -4 4 23.67 25.21 9.31 o
7 -4 4 6709.12 6591.27 133.65 o
8 -4 4 944.52 988.52 52.36 o
9 -4 4 17.27 37.01 22.03 o
-8 -3 4 2389.99 2470.13 81.84 o
-7 -3 4 3365.39 3412.68 88.95 o
-6 -3 4 1.21 24.96 16.32 o
-5 -3 4 4307.99 4359.25 88.45 o
-4 -3 4 9022.84 9141.51 99.80 o
-3 -3 4 201.33 231.04 13.82 o
-2 -3 4 1280.57 1309.04 22.39 o
-1 -3 4 21056.17 20978.58 213.71 o
0 -3 4 7874.64 8231.92 78.91 o
1 -3 4 5758.93 6275.48 85.14 o
2 -3 4 18537.50 18112.17 181.87 o
3 -3 4 1367.66 1314.91 24.53 o
4 -3 4 588.85 598.70 15.93 o
5 -3 4 8333.08 8452.95 101.20 o
6 -3 4 2197.18 2165.43 52.86 o
7 -3 4 123.76 116.56 21.36 o
8 -3 4 3709.11 3816.82 99.94 o
9 -3 4 1557.72 1606.14 70.16 o
-8 -2 4 23.57 27.29 21.28 o
-7 -2 4 3363.54 3487.91 87.16 o
-6 -2 4 4298.85 4316.81 81.76 o
-5 -2 4 48.67 50.72 9.08 o
-4 -2 4 4969.62 4818.45 56.65 o
-3 -2 4 11712.52 11842.81 120.42 o
-2 -2 4 27.45 36.82 4.81 o
-1 -2 4 7604.29 7962.84 95.50 o
0 -2 4 22757.80 22492.86 281.50 o
1 -2 4 381.69 458.47 11.16 o
2 -2 4 3508.15 3776.74 58.53 o
3 -2 4 12422.44 12871.32 124.26 o
4 -2 4 570.12 526.62 16.25 o
5 -2 4 201.58 222.29 13.27 o
6 -2 4 6143.17 6227.10 105.91 o
7 -2 4 2121.88 2128.10 67.01 o
8 -2 4 16.40 -0.18 18.16 o
9 -2 4 3020.67 3096.25 120.29 o
-8 -1 4 2259.87 2413.81 72.60 o
-7 -1 4 16.55 -6.82 13.52 o
-6 -1 4 2966.84 2952.42 55.13 o
-5 -1 4 10374.78 10174.71 113.73 o
-4 -1 4 53.33 37.22 6.98 o
-3 -1 4 5807.55 5701.39 63.53 o
-2 -1 4 13743.07 13285.75 119.30 o
-1 -1 4 846.31 901.33 28.12 o
0 -1 4 220.20 362.29 36.20 o
1 -1 4 8429.07 7839.56 80.48 o
2 -1 4 5761.81 6035.28 57.32 o
3 -1 4 313.20 365.02 12.31 o
4 -1 4 10278.87 10011.10 87.83 o
5 -1 4 2523.90 2416.93 61.69 o
6 -1 4 491.75 461.55 28.88 o
7 -1 4 3404.18 3488.84 91.11 o
8 -1 4 1897.57 1842.54 70.05 o
9 -1 4 57.07 95.50 50.19 o
-9 0 4 32.76 36.81 30.88 o
-8 0 4 2533.96 2657.12 86.20 o
-7 0 4 3997.15 4195.43 80.11 o
-6 0 4 14.17 34.38 10.96 o
-5 0 4 3136.29 3164.41 44.04 o
-4 0 4 10559.24 10909.25 156.37 o
-3 0 4 126.98 128.41 9.39 o
-2 0 4 6027.16 6076.74 81.92 o
0 0 4 236.30 181.78 9.30 o
1 0 4 1499.38 1540.91 20.87 o
2 0 4 13138.88 12786.20 108.18 o
3 0 4 2700.52 2590.17 29.50 o
4 0 4 1282.83 1322.30 24.82 o
5 0 4 7261.33 7069.36 91.06 o
6 0 4 2769.78 2698.20 61.92 o
7 0 4 201.62 223.49 55.74 o
8 0 4 2676.65 2651.06 116.39 o
-9 1 4 2180.20 2076.75 82.08 o
-8 1 4 230.77 236.20 32.59 o
-7 1 4 1998.88 1939.56 35.03 o
-6 1 4 5788.32 5896.03 70.21 o
-5 1 4 26.69 19.35 4.11 o
-4 1 4 2044.26 1974.79 35.86 o
-3 1 4 16085.20 16057.52 163.72 o
-2 1 4 1419.65 1518.14 26.13 o
-1 1 4 4670.08 5140.09 77.72 o
0 1 4 30086.89 29572.35 320.15 o
1 1 4 617.64 567.72 9.93 o
2 1 4 1041.35 1143.36 19.33 o
3 1 4 11861.11 11722.04 105.59 o
4 1 4 4658.61 4664.27 53.33 o
5 1 4 363.99 384.23 23.04 o
6 1 4 5621.75 5363.31 100.22 o
7 1 4 2295.96 2389.35 106.41 o
8 1 4 1.73 29.47 31.87 o
-9 2 4 1315.38 1394.70 105.83 o
-8 2 4 4771.08 4702.63 68.93 o
-7 2 4 161.41 146.10 13.10 o
-6 2 4 3327.53 3357.58 50.47 o
-5 2 4 7018.03 6928.71 71.61 o
-4 2 4 795.23 870.45 20.05 o
-3 2 4 4247.15 4389.44 44.88 o
-2 2 4 20666.08 20904.42 189.09 o
-1 2 4 3800.09 3799.28 84.38 o
0 2 4 11559.29 12379.86 110.41 o
1 2 4 21016.73 20688.97 170.83 o
2 2 4 1137.89 1142.32 20.47 o
3 2 4 3549.03 3437.43 42.50 o
4 2 4 6955.98 6799.86 83.46 o
5 2 4 2426.36 2442.75 48.55 o
6 2 4 251.04 193.02 35.26 o
7 2 4 3624.62 3296.14 128.23 o
8 2 4 1389.66 1280.54 94.89 o
-9 3 4 168.98 149.59 21.51 o
-8 3 4 1295.92 1314.59 35.57 o
-7 3 4 3800.37 3704.74 62.79 o
-6 3 4 70.79 93.01 12.08 o
-5 3 4 4443.67 4355.77 54.91 o
-4 3 4 8157.60 8101.67 80.05 o
-3 3 4 53.81 70.55 6.17 o
-2 3 4 3386.86 3528.85 36.09 o
-1 3 4 15148.62 15152.20 143.49 o
0 3 4 1803.14 1778.55 26.69 o
1 3 4 2166.19 2332.43 31.96 o
2 3 4 13505.17 13599.45 129.56 o
3 3 4 1714.61 1632.02 34.81 o
4 3 4 158.84 230.27 21.07 o
5 3 4 5136.80 5144.82 95.86 o
6 3 4 1784.22 1772.39 97.51 o
7 3 4 2.79 -6.40 27.76 o
-9 4 4 2657.41 2653.71 55.92 o
-8 4 4 0.10 -7.01 10.31 o
-7 4 4 2011.68 1961.64 44.18 o
-6 4 4 9841.06 9209.49 122.80 o
-5 4 4 310.94 357.39 17.26 o
-4 4 4 4733.75 4593.97 49.60 o
-3 4 4 16363.21 16815.31 150.92 o
-2 4 4 1823.66 1798.37 30.00 o
-1 4 4 2046.99 2058.78 28.60 o
0 4 4 16677.26 17174.53 165.75 o
1 4 4 5410.05 5522.96 62.38 o
2 4 4 830.92 845.07 21.00 o
3 4 4 10186.55 10310.70 136.72 o
4 4 4 2972.68 2933.77 73.62 o
5 4 4 279.97 248.65 53.72 o
6 4 4 2989.68 2870.42 78.20 o
7 4 4 1511.52 1486.13 78.42 o
-9 5 4 2392.45 2372.01 58.96 o
-8 5 4 3337.54 3140.04 64.11 o
-7 5 4 14.42 21.67 10.84 o
-6 5 4 3108.47 3090.41 60.80 o
-5 5 4 7328.20 7211.25 100.98 o
-4 5 4 561.96 576.16 20.97 o
-3 5 4 4779.14 4705.55 70.95 o
-2 5 4 13264.15 13728.45 137.21 o
-1 5 4 900.75 991.65 21.86 o
0 5 4 2695.35 2720.50 65.68 o
1 5 4 9189.10 9439.05 98.39 o
2 5 4 2552.20 2521.76 43.83 o
3 5 4 934.81 968.25 38.57 o
4 5 4 5340.80 5120.01 100.11 o
5 5 4 1040.05 1092.27 94.24 o
6 5 4 54.58 13.75 18.45 o
-9 6 4 115.91 122.85 25.37 o
-8 6 4 2067.57 2126.68 69.71 o
-7 6 4 3718.31 3656.47 159.06 o
-6 6 4 22.30 34.07 13.46 o
-5 6 4 845.35 811.50 28.97 o
-4 6 4 11151.53 10765.21 127.13 o
-3 6 4 774.85 746.24 27.60 o
-2 6 4 1714.90 1756.05 36.91 o
-1 6 4 10954.24 10916.38 126.70 o
0 6 4 1762.17 1761.49 49.57 o
1 6 4 1191.31 1248.08 35.68 o
2 6 4 5020.72 5125.90 96.03 o
3 6 4 1170.62 1123.70 53.27 o
4 6 4 31.65 10.87 17.58 o
5 6 4 2225.52 2175.03 79.31 o
-9 7 4 2446.57 2445.45 80.21 o
-8 7 4 4.14 36.69 19.55 o
-7 7 4 1738.25 1874.13 65.78 o
-6 7 4 6899.82 6906.72 122.84 o
-5 7 4 12.37 8.37 11.99 o
-4 7 4 1564.81 1542.94 59.90 o
-3 7 4 5930.98 5958.54 120.46 o
-2 7 4 1442.74 1475.01 51.02 o
-1 7 4 1882.97 1783.43 48.65 o
0 7 4 4158.08 4405.61 85.71 o
1 7 4 1407.01 1538.55 48.38 o
2 7 4 334.50 375.84 30.15 o
3 7 4 2555.76 2521.83 81.54 o
4 7 4 1629.66 1657.82 115.00 o
5 7 4 94.26 87.43 56.31 o
-8 8 4 3749.96 3875.60 105.00 o
-7 8 4 7.77 27.68 20.23 o
-6 8 4 1602.47 1601.60 61.45 o
-5 8 4 4939.58 4856.69 94.25 o
-4 8 4 95.06 98.28 21.07 o
-3 8 4 889.16 897.63 76.31 o
-2 8 4 4236.43 4054.87 97.57 o
-1 8 4 1383.39 1404.52 55.45 o
0 8 4 336.28 318.54 36.09 o
1 8 4 4359.56 4520.64 111.58 o
2 8 4 1476.45 1514.85 63.78 o
3 8 4 184.64 235.75 34.33 o
4 8 4 2220.77 2275.72 97.01 o
-7 9 4 3449.22 3505.13 100.05 o
-6 9 4 46.17 41.96 20.97 o
-5 9 4 1399.55 1513.68 51.21 o
-4 9 4 4582.56 4558.49 134.10 o
-3 9 4 211.93 238.58 29.66 o
-2 9 4 966.61 868.01 52.14 o
-1 9 4 3461.58 3431.95 95.02 o
0 9 4 856.72 834.61 71.49 o
1 9 4 521.16 426.29 45.62 o
2 9 4 2478.54 2527.84 86.51 o
3 9 4 770.73 743.36 55.76 o
-7 10 4 881.51 841.03 79.09 o
-6 10 4 1893.94 1846.62 73.58 o
-5 10 4 179.42 147.24 32.40 o
-4 10 4 810.16 790.59 78.10 o
-3 10 4 2601.74 2646.27 85.09 o
-2 10 4 297.57 331.75 49.45 o
-1 10 4 309.53 279.96 46.09 o
0 10 4 2448.60 2422.79 144.35 o
1 10 4 529.29 518.70 47.78 o
-5 11 4 2592.83 2359.19 85.52 o
-4 11 4 331.78 338.66 53.39 o
-3 11 4 314.74 318.46 57.07 o
-2 11 4 4149.08 4380.50 155.59 o
-1 11 4 201.45 170.68 46.26 o
0 -11 5 7.72 27.10 26.63 o
1 -11 5 679.80 715.85 72.84 o
2 -11 5 3460.01 3539.62 101.72 o
3 -11 5 85.81 92.69 31.98 o
4 -11 5 808.87 807.87 68.39 o
5 -11 5 2879.90 2675.19 168.34 o
6 -11 5 463.72 405.97 81.28 o
-2 -10 5 2.97 16.44 45.97 o
-1 -10 5 1168.83 1197.42 104.60 o
0 -10 5 4642.23 4783.54 145.68 o
1 -10 5 11.98 24.74 18.46 o
2 -10 5 1094.15 1246.75 71.73 o
3 -10 5 4645.07 4671.17 138.89 o
4 -10 5 697.61 615.08 52.81 o
5 -10 5 1164.97 1094.16 70.01 o
6 -10 5 2853.27 2899.50 171.00 o
7 -10 5 932.23 816.55 32.77 o
-3 -9 5 2125.86 2122.36 83.80 o
-2 -9 5 3856.82 3900.33 109.03 o
-1 -9 5 22.72 39.39 23.33 o
0 -9 5 1631.80 1741.28 76.18 o
1 -9 5 4346.70 4396.41 103.63 o
2 -9 5 333.09 285.99 35.40 o
3 -9 5 910.53 1005.28 83.26 o
4 -9 5 4886.65 4929.76 138.21 o
5 -9 5 1307.26 1310.57 69.51 o
6 -9 5 504.21 538.15 23.91 o
7 -9 5 4640.67 4502.45 82.61 o
8 -9 5 784.47 735.87 35.32 o
-4 -8 5 2244.00 2143.28 73.79 o
-3 -8 5 102.07 80.49 25.00 o
-2 -8 5 1475.35 1407.77 58.94 o
-1 -8 5 5179.04 5033.35 111.61 o
0 -8 5 68.25 62.36 14.63 o
1 -8 5 1757.15 1706.49 66.80 o
2 -8 5 9365.45 9577.00 165.89 o
3 -8 5 554.41 536.28 33.62 o
4 -8 5 1134.77 1168.50 37.91 o
5 -8 5 9082.27 9297.13 119.66 o
6 -8 5 983.09 1004.48 31.69 o
7 -8 5 513.48 496.29 28.27 o
8 -8 5 3987.01 3996.12 98.87 o
-5 -7 5 201.90 221.47 32.62 o
-4 -7 5 2487.17 2510.65 74.59 o
-3 -7 5 3695.87 3634.70 111.47 o
-2 -7 5 17.67 21.42 10.87 o
-1 -7 5 3515.37 3567.16 111.25 o
0 -7 5 9516.40 9478.67 141.85 o
1 -7 5 177.58 196.32 32.98 o
2 -7 5 2615.74 2625.95 53.88 o
3 -7 5 9351.89 9592.13 160.03 o
4 -7 5 439.34 467.06 25.75 o
5 -7 5 527.14 561.36 21.17 o
6 -7 5 5379.27 5430.51 121.50 o
7 -7 5 1038.94 988.36 41.41 o
8 -7 5 127.59 100.66 22.96 o
-6 -6 5 1603.04 1594.18 67.09 o
-5 -6 5 2862.59 2987.39 91.04 o
-4 -6 5 33.58 44.35 17.40 o
-3 -6 5 2552.91 2553.26 68.24 o
-2 -6 5 7061.90 6990.73 102.02 o
-1 -6 5 70.33 106.74 12.23 o
0 -6 5 1410.03 1277.19 34.34 o
1 -6 5 12622.62 12919.80 170.11 o
2 -6 5 272.36 280.17 13.83 o
3 -6 5 736.17 736.05 21.98 o
4 -6 5 10834.06 10935.32 119.53 o
5 -6 5 445.48 476.21 24.26 o
6 -6 5 50.38 59.11 11.12 o
7 -6 5 5065.35 5026.62 95.10 o
8 -6 5 1649.12 1747.03 76.04 o
9 -6 5 121.64 79.82 25.16 o
-6 -5 5 46.70 41.34 21.47 o
-5 -5 5 2733.59 2716.16 74.06 o
-4 -5 5 8139.43 7694.21 116.33 o
-3 -5 5 95.64 81.47 12.12 o
-2 -5 5 5347.97 4954.98 78.68 o
-1 -5 5 15231.40 14966.33 178.23 o
0 -5 5 51.84 81.20 8.44 o
1 -5 5 3691.56 3699.76 58.30 o
2 -5 5 18172.92 18656.14 207.68 o
3 -5 5 419.06 434.29 22.31 o
4 -5 5 563.38 562.43 15.51 o
5 -5 5 9908.59 9909.85 114.47 o
6 -5 5 1579.09 1526.49 37.27 o
7 -5 5 427.29 433.69 31.80 o
8 -5 5 2533.13 2516.15 76.64 o
9 -5 5 1734.02 1654.37 66.28 o
-7 -4 5 2345.96 2473.51 106.88 o
-6 -4 5 3654.92 3691.86 90.14 o
-5 -4 5 123.81 113.23 19.72 o
-4 -4 5 3486.11 3573.57 65.41 o
-3 -4 5 9068.93 8877.27 99.50 o
-2 -4 5 10.56 0.95 6.18 o
-1 -4 5 4195.01 4160.07 87.01 o
0 -4 5 10647.76 10270.69 120.71 o
1 -4 5 32.69 45.76 5.76 o
2 -4 5 234.33 198.65 14.31 o
3 -4 5 11948.98 12471.14 148.33 o
4 -4 5 805.23 801.88 17.87 o
5 -4 5 752.31 754.69 29.36 o
6 -4 5 5909.24 5913.88 88.33 o
7 -4 5 945.32 989.76 40.69 o
8 -4 5 156.29 158.87 25.93 o
9 -4 5 2371.76 2340.38 79.82 o
-7 -3 5 176.77 178.09 27.81 o
-6 -3 5 1855.55 1933.30 60.88 o
-5 -3 5 5717.26 5611.11 83.91 o
-4 -3 5 55.23 69.67 9.45 o
-3 -3 5 1697.64 1652.71 29.15 o
-2 -3 5 15905.52 15624.09 174.63 o
-1 -3 5 28.91 33.19 3.85 o
0 -3 5 2250.21 2070.39 31.91 o
1 -3 5 18952.26 18948.31 207.68 o
2 -3 5 107.62 139.74 8.75 o
3 -3 5 858.24 793.71 13.57 o
4 -3 5 11040.45 11217.23 113.66 o
5 -3 5 1046.74 1018.89 25.25 o
6 -3 5 157.79 148.69 17.83 o
7 -3 5 4805.56 4795.41 107.89 o
8 -3 5 1300.78 1401.82 60.20 o
9 -3 5 21.45 67.01 23.85 o
-8 -2 5 1995.00 2012.40 72.14 o
-7 -2 5 3001.52 3033.99 72.05 o
-6 -2 5 182.37 192.00 21.64 o
-5 -2 5 2811.10 2937.72 53.27 o
-4 -2 5 8376.76 8413.62 94.95 o
-3 -2 5 64.54 51.27 6.96 o
-2 -2 5 2198.70 2139.04 26.20 o
-1 -2 5 18805.21 18102.38 256.69 o
0 -2 5 1301.14 1326.54 35.97 o
1 -2 5 3239.78 3047.12 35.24 o
2 -2 5 14043.84 14067.34 177.49 o
3 -2 5 534.17 497.71 11.51 o
4 -2 5 352.61 328.56 13.81 o
5 -2 5 6382.76 6334.36 81.51 o
6 -2 5 2048.52 1998.21 51.27 o
7 -2 5 38.80 32.39 17.62 o
8 -2 5 3759.96 3580.66 97.78 o
9 -2 5 1299.83 1484.11 84.13 o
-8 -1 5 8.78 18.65 18.87 o
-7 -1 5 2062.71 2133.22 58.39 o
-6 -1 5 5584.33 5703.41 96.67 o
-5 -1 5 23.23 26.77 8.72 o
-4 -1 5 2541.42 2563.45 40.99 o
-3 -1 5 12844.95 12452.22 123.87 o
-2 -1 5 106.29 99.16 5.04 o
-1 -1 5 1019.76 943.86 40.36 o
0 -1 5 28511.72 28953.12 512.82 o
1 -1 5 257.48 207.54 9.74 o
2 -1 5 2074.35 1921.75 25.92 o
3 -1 5 18459.91 17963.07 164.48 o
4 -1 5 1212.51 1266.06 26.57 o
5 -1 5 431.14 399.71 21.33 o
6 -1 5 9026.36 8788.04 139.52 o
7 -1 5 1310.04 1277.01 104.38 o
8 -1 5 12.08 15.81 23.65 o
-8 0 5 2223.93 2363.77 82.72 o
-7 0 5 155.40 173.66 23.46 o
-6 0 5 3350.96 3554.38 76.69 o
-5 0 5 6925.23 6690.17 74.59 o
-4 0 5 485.96 490.84 17.49 o
-3 0 5 4418.23 4252.93 52.47 o
-2 0 5 14623.62 14745.03 139.07 o
-1 0 5 546.52 652.92 46.64 o
0 0 5 554.22 467.37 11.41 o
1 0 5 23280.17 23397.51 403.83 o
2 0 5 2965.56 2921.87 44.02 o
3 0 5 2501.68 2406.42 29.08 o
4 0 5 13900.34 13797.88 130.08 o
5 0 5 1153.92 1181.43 30.59 o
6 0 5 410.39 390.82 28.10 o
7 0 5 3817.92 3779.16 99.16 o
8 0 5 1238.31 1187.08 62.40 o
-9 1 5 46.04 44.74 24.99 o
-8 1 5 2878.92 2772.85 123.44 o
-7 1 5 1991.89 1945.41 68.23 o
-6 1 5 114.53 94.71 13.84 o
-5 1 5 2123.18 2020.66 36.57 o
-4 1 5 9604.36 9386.04 104.23 o
-3 1 5 314.97 296.32 13.01 o
-2 1 5 373.86 333.00 11.09 o
-1 1 5 23356.99 23834.49 301.25 o
0 1 5 1805.14 1789.39 32.02 o
1 1 5 901.63 867.68 14.14 o
2 1 5 17963.45 17469.50 147.00 o
3 1 5 2244.20 2196.76 28.98 o
4 1 5 315.41 270.40 21.01 o
5 1 5 8042.17 8034.73 118.52 o
6 1 5 1875.94 1837.92 63.46 o
7 1 5 35.11 17.14 19.69 o
8 1 5 2288.79 2275.45 89.09 o
-9 2 5 1741.41 1826.20 124.85 o
-8 2 5 1.42 -17.84 17.84 o
-7 2 5 3370.33 3444.41 125.03 o
-6 2 5 6303.90 6200.33 104.93 o
-5 2 5 80.82 96.31 10.02 o
-4 2 5 1881.87 1764.34 49.00 o
-3 2 5 25774.85 26045.54 287.74 o
-2 2 5 49.67 54.44 6.77 o
-1 2 5 5553.52 5545.69 77.72 o
0 2 5 30049.86 30413.56 326.50 o
1 2 5 367.70 349.66 12.97 o
2 2 5 791.00 756.32 15.62 o
3 2 5 14534.00 14403.07 129.48 o
4 2 5 3351.45 3309.38 60.56 o
5 2 5 358.56 410.49 25.26 o
6 2 5 5276.78 5120.11 152.27 o
7 2 5 1868.97 1839.65 72.36 o
-9 3 5 2426.98 2552.38 90.57 o
-8 3 5 2874.75 3158.09 115.89 o
-7 3 5 146.69 158.00 11.72 o
-6 3 5 3948.93 4113.83 70.68 o
-5 3 5 7304.56 7104.02 84.42 o
-4 3 5 7.91 25.30 4.61 o
-3 3 5 2845.49 2821.14 35.29 o
-2 3 5 17073.12 16532.43 154.99 o
-1 3 5 1078.80 1087.31 19.16 o
0 3 5 2206.29 2181.86 34.21 o
1 3 5 15025.72 15077.94 138.52 o
2 3 5 2000.62 2026.76 30.00 o
3 3 5 1034.60 1027.68 27.25 o
4 3 5 5753.99 5604.30 101.07 o
5 3 5 1703.24 1709.45 51.97 o
6 3 5 95.46 95.32 23.73 o
7 3 5 2211.23 2175.92 126.14 o
-9 4 5 11.98 26.33 29.03 o
-8 4 5 1825.31 1827.34 42.30 o
-7 4 5 5421.62 5551.80 82.39 o
-6 4 5 24.99 28.83 8.91 o
-5 4 5 3940.04 4299.69 59.74 o
-4 4 5 11456.39 11334.24 108.87 o
-3 4 5 19.13 27.11 5.66 o
-2 4 5 1951.46 1939.21 36.97 o
-1 4 5 12434.39 12323.64 122.90 o
0 4 5 1173.90 1192.50 21.92 o
1 4 5 588.00 548.79 16.51 o
2 4 5 10851.89 10773.59 122.42 o
3 4 5 1109.48 1171.58 39.44 o
4 4 5 68.45 67.44 19.20 o
5 4 5 4249.04 4213.59 107.25 o
6 4 5 1378.45 1227.29 90.39 o
-9 5 5 2715.35 2715.76 62.01 o
-8 5 5 66.50 49.16 16.75 o
-7 5 5 2294.72 2346.87 64.39 o
-6 5 5 7460.27 7737.20 107.90 o
-5 5 5 8.96 16.41 7.36 o
-4 5 5 4289.49 4367.93 61.56 o
-3 5 5 6774.70 7013.88 84.94 o
-2 5 5 661.02 595.63 17.46 o
-1 5 5 784.61 835.96 20.45 o
0 5 5 9367.08 9503.48 111.86 o
1 5 5 1760.73 1712.98 36.43 o
2 5 5 208.74 254.09 22.79 o
3 5 5 6225.10 5849.30 125.12 o
4 5 5 1372.40 1446.89 59.61 o
5 5 5 225.58 155.85 40.20 o
6 5 5 1505.86 1398.06 100.96 o
-9 6 5 1851.60 1796.08 52.13 o
-8 6 5 3119.07 3206.98 63.16 o
-7 6 5 2.09 -3.81 10.82 o
-6 6 5 2165.89 2202.39 48.20 o
-5 6 5 5499.92 5837.93 88.39 o
-4 6 5 1768.58 1782.08 43.95 o
-3 6 5 3564.69 3641.39 67.88 o
-2 6 5 10042.45 10337.71 149.49 o
-1 6 5 453.70 374.15 23.00 o
0 6 5 1108.49 1119.08 43.75 o
1 6 5 6719.29 6366.74 128.48 o
2 6 5 585.41 643.38 43.06 o
3 6 5 127.50 115.14 24.20 o
4 6 5 3208.98 3063.26 122.26 o
5 6 5 970.52 925.81 82.60 o
-8 7 5 1500.54 1510.91 72.62 o
-7 7 5 3100.41 3109.33 75.22 o
-6 7 5 30.20 54.63 16.29 o
-5 7 5 2387.73 2456.10 62.11 o
-4 7 5 5809.58 5863.14 101.55 o
-3 7 5 63.17 54.63 16.87 o
-2 7 5 1852.43 1804.66 65.43 o
-1 7 5 5676.24 5731.44 119.55 o
0 7 5 94.85 90.17 16.84 o
1 7 5 302.53 293.30 38.77 o
2 7 5 3555.05 3575.77 96.80 o
3 7 5 694.62 584.73 69.73 o
4 7 5 57.87 46.15 33.92 o
-8 8 5 20.27 13.40 20.33 o
-7 8 5 1867.29 1831.33 100.93 o
-6 8 5 2717.74 2798.06 93.34 o
-5 8 5 91.64 119.01 20.15 o
-4 8 5 908.68 993.94 49.87 o
-3 8 5 3309.47 3363.42 87.50 o
-2 8 5 921.05 937.59 47.87 o
-1 8 5 532.79 508.39 39.45 o
0 8 5 3856.39 3873.12 99.96 o
1 8 5 886.39 866.17 54.43 o
2 8 5 231.63 201.92 42.90 o
3 8 5 2077.46 1903.79 116.37 o
-7 9 5 24.04 45.41 22.94 o
-6 9 5 1255.92 1218.44 68.34 o
-5 9 5 3764.51 3704.59 98.47 o
-4 9 5 91.12 106.88 31.34 o
-3 9 5 818.90 911.19 53.83 o
-2 9 5 4123.42 4144.44 105.03 o
-1 9 5 551.13 536.82 43.45 o
0 9 5 498.22 572.99 46.18 o
1 9 5 3123.27 2915.81 122.17 o
2 9 5 971.60 947.45 81.18 o
-6 10 5 14.90 39.90 22.99 o
-5 10 5 770.20 762.48 44.58 o
-4 10 5 3207.34 3318.33 153.68 o
-3 10 5 196.77 179.87 29.26 o
-2 10 5 759.22 743.29 53.50 o
-1 10 5 2165.80 2175.09 85.63 o
0 10 5 1240.40 1288.04 95.62 o
1 10 5 655.76 635.91 72.76 o
-4 11 5 691.87 679.80 63.39 o
-3 11 5 2499.18 2578.80 89.94 o
-2 11 5 667.84 655.13 79.51 o
0 -11 6 1309.43 1285.18 82.31 o
1 -11 6 2306.43 2495.86 103.84 o
2 -11 6 477.94 501.61 45.70 o
3 -11 6 1674.21 1741.58 86.25 o
4 -11 6 3555.32 3478.10 124.43 o
5 -11 6 299.52 299.65 46.73 o
-2 -10 6 1551.48 1701.37 179.22 o
-1 -10 6 3034.85 3164.62 117.60 o
0 -10 6 118.72 113.57 32.93 o
1 -10 6 2206.59 2286.75 76.18 o
2 -10 6 4153.75 4103.80 127.24 o
3 -10 6 168.68 191.82 46.64 o
4 -10 6 854.90 936.00 67.34 o
5 -10 6 4981.79 5206.95 154.64 o
6 -10 6 213.50 177.94 38.63 o
7 -10 6 267.82 246.51 69.73 o
-3 -9 6 2200.23 2166.85 83.58 o
-2 -9 6 0.96 -5.58 21.27 o
-1 -9 6 2625.51 2557.14 81.17 o
0 -9 6 3506.38 3463.58 92.04 o
1 -9 6 10.13 14.39 16.05 o
2 -9 6 1577.73 1430.40 66.28 o
3 -9 6 4577.81 4682.09 104.47 o
4 -9 6 467.75 434.27 45.96 o
5 -9 6 700.79 752.66 92.61 o
6 -9 6 4421.30 4574.74 141.85 o
7 -9 6 831.55 995.81 120.37 o
-4 -8 6 1.22 6.39 20.00 o
-3 -8 6 2801.81 2865.39 111.79 o
-2 -8 6 4297.80 4242.55 94.05 o
-1 -8 6 79.63 82.99 16.34 o
0 -8 6 2305.34 2275.24 57.13 o
1 -8 6 7626.34 7808.57 126.11 o
2 -8 6 771.52 854.04 40.45 o
3 -8 6 1448.10 1505.54 50.10 o
4 -8 6 7044.29 7050.49 136.22 o
5 -8 6 1084.34 1305.53 65.32 o
6 -8 6 437.47 454.85 60.63 o
7 -8 6 4207.94 4217.06 82.11 o
8 -8 6 785.10 770.90 35.25 o
-5 -7 6 2327.07 2320.45 76.70 o
-4 -7 6 2821.24 2830.83 78.92 o
-3 -7 6 35.24 34.37 15.75 o
-2 -7 6 2104.38 2136.26 60.38 o
-1 -7 6 6916.67 6746.74 100.84 o
0 -7 6 229.91 204.62 18.89 o
1 -7 6 3162.72 3107.90 59.30 o
2 -7 6 10724.96 10520.96 148.00 o
3 -7 6 123.04 129.20 20.00 o
4 -7 6 2016.59 1973.66 57.31 o
5 -7 6 5806.17 5819.57 101.14 o
6 -7 6 718.51 736.66 31.16 o
7 -7 6 458.70 428.45 22.84 o
8 -7 6 3174.78 3141.53 67.75 o
-6 -6 6 1566.58 1649.09 88.60 o
-5 -6 6 51.00 69.89 21.07 o
-4 -6 6 2691.45 2720.52 81.80 o
-3 -6 6 3847.16 3742.41 64.45 o
-2 -6 6 166.70 148.66 15.20 o
-1 -6 6 4477.00 4267.46 68.27 o
0 -6 6 9144.94 8984.35 130.52 o
1 -6 6 193.78 158.57 12.95 o
2 -6 6 2362.74 2318.54 46.02 o
3 -6 6 8182.79 7967.53 163.71 o
4 -6 6 1060.20 1094.67 42.57 o
5 -6 6 1052.21 1084.26 26.65 o
6 -6 6 4208.58 4240.43 66.81 o
7 -6 6 925.02 892.19 30.97 o
8 -6 6 31.77 48.04 19.42 o
-6 -5 6 2334.92 2335.58 74.06 o
-5 -5 6 3400.01 3464.44 84.56 o
-4 -5 6 69.72 68.00 14.41 o
-3 -5 6 4698.86 4624.73 90.31 o
-2 -5 6 7422.38 7602.95 93.73 o
-1 -5 6 32.66 18.05 5.84 o
0 -5 6 1537.50 1624.76 43.53 o
1 -5 6 9905.10 9699.29 147.26 o
2 -5 6 646.26 576.18 19.50 o
3 -5 6 750.86 757.67 18.75 o
4 -5 6 8913.16 8633.37 112.30 o
5 -5 6 605.38 611.41 20.66 o
6 -5 6 222.08 227.14 16.21 o
7 -5 6 4951.67 4799.45 79.18 o
8 -5 6 590.20 544.63 39.86 o
9 -5 6 7.67 -4.39 19.43 o
-7 -4 6 1818.31 1809.88 67.41 o
-6 -4 6 7.14 12.49 16.45 o
-5 -4 6 2716.84 2760.02 70.10 o
-4 -4 6 4240.50 4424.16 74.80 o
-3 -4 6 31.91 27.02 7.16 o
-2 -4 6 3025.18 3093.63 42.09 o
-1 -4 6 8804.26 8731.25 106.70 o
0 -4 6 283.96 261.91 13.10 o
1 -4 6 2018.80 2051.36 35.03 o
2 -4 6 11683.40 11520.89 133.55 o
3 -4 6 904.50 857.49 19.47 o
4 -4 6 569.49 498.26 24.22 o
5 -4 6 8926.79 8862.40 103.76 o
6 -4 6 1590.14 1582.66 37.54 o
7 -4 6 265.15 245.64 19.91 o
8 -4 6 3626.28 3633.97 94.56 o
9 -4 6 1129.98 1071.70 57.93 o
-7 -3 6 3276.68 3396.97 89.09 o
-6 -3 6 3053.77 3214.56 79.88 o
-5 -3 6 52.62 77.85 12.96 o
-4 -3 6 4993.71 4794.29 70.24 o
-3 -3 6 6863.24 6867.57 74.19 o
-2 -3 6 94.58 133.88 8.77 o
-1 -3 6 3126.00 3167.38 42.44 o
0 -3 6 13537.45 13246.68 207.84 o
1 -3 6 888.02 853.81 15.65 o
2 -3 6 1079.34 1149.00 28.87 o
3 -3 6 15778.53 15307.66 161.37 o
4 -3 6 1078.29 992.08 19.24 o
5 -3 6 746.60 748.95 21.70 o
6 -3 6 8186.94 8149.26 138.34 o
7 -3 6 788.24 839.26 41.93 o
8 -3 6 151.33 166.23 26.67 o
9 -3 6 2509.87 2354.43 96.79 o
-8 -2 6 1776.10 1802.08 93.70 o
-7 -2 6 320.96 301.97 28.08 o
-6 -2 6 2139.46 2237.67 56.54 o
-5 -2 6 3403.14 3494.19 73.53 o
-4 -2 6 115.71 106.05 11.40 o
-3 -2 6 915.31 937.78 20.90 o
-2 -2 6 8665.40 8727.26 82.38 o
-1 -2 6 69.70 49.65 18.93 o
0 -2 6 1242.01 1067.29 46.86 o
1 -2 6 16417.20 16628.71 145.05 o
2 -2 6 103.31 85.31 7.39 o
3 -2 6 1712.67 1764.54 30.72 o
4 -2 6 9515.23 9031.54 95.30 o
5 -2 6 608.70 623.85 27.38 o
6 -2 6 108.84 110.18 15.45 o
7 -2 6 4331.55 4223.20 121.36 o
8 -2 6 1743.97 1699.26 81.95 o
-8 -1 6 1389.01 1415.90 66.33 o
-7 -1 6 2800.44 2779.19 67.75 o
-6 -1 6 2.49 14.77 12.35 o
-5 -1 6 2628.63 2574.35 47.72 o
-4 -1 6 11021.39 10886.78 136.03 o
-3 -1 6 7.45 4.96 4.58 o
-2 -1 6 5129.74 4961.91 78.90 o
0 -1 6 749.76 825.68 29.10 o
1 -1 6 3198.32 3175.82 45.07 o
2 -1 6 12011.59 11919.65 116.86 o
3 -1 6 2994.43 2997.95 41.11 o
4 -1 6 102.70 131.80 12.50 o
5 -1 6 9944.04 9945.96 129.76 o
6 -1 6 3030.32 3019.55 75.78 o
7 -1 6 158.63 174.21 26.68 o
8 -1 6 3306.21 3492.96 98.54 o
-8 0 6 68.01 87.30 25.11 o
-7 0 6 2717.16 2679.92 70.41 o
-6 0 6 8015.92 7767.65 114.70 o
-5 0 6 671.08 665.43 23.29 o
-4 0 6 3919.38 4011.01 54.96 o
-3 0 6 12948.32 12764.69 166.77 o
-2 0 6 82.67 122.78 6.89 o
-1 0 6 3890.24 3854.52 78.91 o
0 0 6 15613.32 16037.68 309.02 o
1 0 6 1015.12 1023.29 21.84 o
2 0 6 948.48 935.73 19.16 o
3 0 6 19534.04 19818.62 188.78 o
4 0 6 1414.88 1358.06 31.70 o
5 0 6 860.23 834.57 25.86 o
6 0 6 6426.42 6264.04 112.10 o
7 0 6 1074.21 1165.45 104.58 o
8 0 6 19.86 8.42 22.43 o
-9 1 6 1473.32 1478.17 120.81 o
-8 1 6 2833.12 2838.39 113.34 o
-7 1 6 518.51 477.02 34.54 o
-6 1 6 1401.53 1419.08 45.44 o
-5 1 6 8048.73 8453.30 114.68 o
-4 1 6 31.47 41.72 7.46 o
-3 1 6 4170.37 4088.52 55.34 o
-2 1 6 15622.49 15431.64 218.63 o
-1 1 6 190.72 216.69 11.86 o
0 1 6 4118.62 4157.14 57.63 o
1 1 6 16704.85 16126.16 170.29 o
2 1 6 1631.43 1504.18 26.97 o
3 1 6 1458.35 1460.37 26.99 o
4 1 6 8140.26 8144.47 92.37 o
5 1 6 1766.77 1785.72 49.94 o
6 1 6 106.74 111.16 22.61 o
7 1 6 3277.28 3170.24 92.91 o
8 1 6 1171.86 1123.98 66.50 o
-9 2 6 144.59 116.57 34.39 o
-8 2 6 2197.67 2192.35 79.58 o
-7 2 6 4470.17 4505.71 133.47 o
-6 2 6 38.82 39.35 14.82 o
-5 2 6 4009.78 4045.52 72.82 o
-4 2 6 12451.19 12496.53 135.24 o
-3 2 6 36.77 50.27 7.60 o
-2 2 6 4000.22 4320.74 75.07 o
-1 2 6 17837.39 18483.25 229.56 o
0 2 6 1087.48 1051.52 22.35 o
1 2 6 1593.51 1654.69 25.61 o
2 2 6 13278.75 13343.20 125.65 o
3 2 6 1165.28 1080.62 27.20 o
4 2 6 199.21 178.71 16.42 o
5 2 6 5786.44 5703.21 196.33 o
6 2 6 1111.45 1214.50 88.92 o
7 2 6 41.59 39.52 30.36 o
-9 3 6 2322.35 2335.00 87.76 o
-8 3 6 78.07 71.54 30.43 o
-7 3 6 2125.95 2078.18 85.89 o
-6 3 6 6557.51 6670.59 112.54 o
-5 3 6 1.76 8.30 7.81 o
-4 3 6 1627.78 1594.28 30.53 o
-3 3 6 17338.95 17723.51 201.20 o
-2 3 6 328.72 367.79 17.92 o
-1 3 6 2194.63 2358.80 28.19 o
0 3 6 20161.76 20654.15 195.85 o
1 3 6 131.59 128.05 9.57 o
2 3 6 785.68 836.15 25.09 o
3 3 6 6243.41 6041.20 93.07 o
4 3 6 1525.33 1526.37 55.45 o
5 3 6 121.46 107.99 22.71 o
6 3 6 2547.05 2619.60 151.89 o
7 3 6 1312.12 1290.11 68.65 o
-9 4 6 1854.68 1918.91 111.26 o
-8 4 6 2973.89 3071.30 131.03 o
-7 4 6 1.07 -0.73 19.61 o
-6 4 6 3846.10 3776.47 77.04 o
-5 4 6 9404.55 9511.11 108.23 o
-4 4 6 22.92 34.21 6.14 o
-3 4 6 4175.21 4065.61 49.06 o
-2 4 6 16437.91 17144.83 175.73 o
-1 4 6 30.50 31.04 6.47 o
0 4 6 1375.16 1474.34 30.33 o
1 4 6 9050.02 9439.63 111.32 o
2 4 6 1413.29 1438.49 39.16 o
3 4 6 815.58 811.84 35.67 o
4 4 6 4078.58 4014.20 99.00 o
5 4 6 1391.06 1359.79 90.29 o
6 4 6 135.39 110.91 27.32 o
-9 5 6 30.88 56.28 52.19 o
-8 5 6 2259.80 2254.44 111.71 o
-7 5 6 3578.18 3500.45 74.40 o
-6 5 6 26.39 22.99 8.94 o
-5 5 6 2009.87 1948.39 36.32 o
-4 5 6 7787.91 8043.87 104.80 o
-3 5 6 309.31 292.76 16.50 o
-2 5 6 113.67 118.61 11.38 o
-1 5 6 9844.59 9907.66 162.55 o
0 5 6 288.90 337.53 19.52 o
1 5 6 516.12 490.93 24.22 o
2 5 6 5748.18 5905.25 105.09 o
3 5 6 603.81 552.56 41.68 o
4 5 6 390.67 398.32 37.26 o
5 5 6 2071.35 2031.25 89.53 o
6 5 6 592.98 578.57 69.10 o
-8 6 6 3.62 20.73 10.70 o
-7 6 6 1397.85 1311.83 35.21 o
-6 6 6 4615.02 4530.68 73.69 o
-5 6 6 5.12 11.98 9.12 o
-4 6 6 496.44 510.81 25.00 o
-3 6 6 9271.51 9285.96 120.04 o
-2 6 6 283.02 301.93 20.58 o
-1 6 6 785.29 759.78 29.73 o
0 6 6 6536.08 6991.36 156.17 o
1 6 6 936.35 948.03 39.39 o
2 6 6 446.10 444.79 36.85 o
3 6 6 3064.76 3072.25 88.48 o
4 6 6 1424.68 1336.53 75.28 o
5 6 6 119.40 109.27 30.65 o
-8 7 6 2079.25 1963.88 53.91 o
-7 7 6 14.43 11.98 11.47 o
-6 7 6 1218.46 1152.76 59.22 o
-5 7 6 5275.14 5085.42 139.89 o
-4 7 6 56.24 60.43 13.30 o
-3 7 6 1325.46 1274.75 54.56 o
-2 7 6 6468.25 6560.56 130.48 o
-1 7 6 154.83 169.95 29.56 o
0 7 6 590.91 589.03 35.28 o
1 7 6 4645.06 4788.81 185.16 o
2 7 6 718.99 796.77 52.18 o
3 7 6 212.65 221.48 32.76 o
4 7 6 2792.78 2623.28 120.38 o
-8 8 6 903.65 922.21 71.29 o
-7 8 6 2614.49 2661.51 107.81 o
-6 8 6 13.98 8.21 15.39 o
-5 8 6 783.79 825.91 41.75 o
-4 8 6 4166.01 4139.42 96.55 o
-3 8 6 79.48 63.70 19.19 o
-2 8 6 603.64 607.47 41.94 o
-1 8 6 4642.73 4877.25 113.79 o
0 8 6 421.35 409.13 38.02 o
1 8 6 323.93 338.31 36.61 o
2 8 6 3499.15 3670.09 206.35 o
3 8 6 501.39 494.88 49.05 o
-7 9 6 1200.77 1320.83 120.58 o
-6 9 6 2419.08 2354.53 77.04 o
-5 9 6 36.06 32.97 19.26 o
-4 9 6 1129.22 1114.12 53.44 o
-3 9 6 2713.61 2753.14 83.02 o
-2 9 6 526.23 506.53 42.02 o
-1 9 6 524.88 486.37 50.57 o
0 9 6 3858.72 3810.57 105.84 o
1 9 6 356.04 412.63 41.87 o
2 9 6 61.80 -19.59 33.09 o
-6 10 6 889.26 867.58 60.80 o
-5 10 6 2317.60 2330.42 84.77 o
-4 10 6 200.48 172.77 48.16 o
-3 10 6 523.76 450.86 41.57 o
-2 10 6 3404.21 3276.11 98.16 o
-1 10 6 263.48 286.70 61.40 o
0 10 6 45.96 32.72 25.53 o
1 -11 7 67.27 56.98 28.80 o
2 -11 7 714.51 785.60 63.89 o
3 -11 7 3712.05 4006.97 135.69 o
4 -11 7 201.30 179.58 37.73 o
5 -11 7 756.41 814.26 70.23 o
-1 -10 7 22.64 4.58 24.28 o
0 -10 7 1548.41 1526.68 64.69 o
1 -10 7 4268.23 4524.58 113.62 o
2 -10 7 357.32 338.91 35.75 o
3 -10 7 2332.94 2411.45 94.54 o
4 -10 7 4629.07 4658.79 245.40 o
5 -10 7 355.19 394.41 48.05 o
6 -10 7 902.46 947.66 74.20 o
-3 -9 7 30.59 4.60 18.87 o
-2 -9 7 2320.62 2412.97 99.07 o
-1 -9 7 4164.32 4289.06 106.81 o
0 -9 7 3.20 5.26 16.01 o
1 -9 7 2602.00 2705.02 78.31 o
2 -9 7 4293.48 4583.96 128.44 o
3 -9 7 231.70 280.06 28.57 o
4 -9 7 774.44 794.90 46.75 o
5 -9 7 4804.27 5003.69 377.98 o
6 -9 7 528.81 510.28 52.99 o
7 -9 7 412.84 432.61 83.06 o
-4 -8 7 1877.62 1993.96 74.40 o
-3 -8 7 2903.52 2913.56 81.53 o
-2 -8 7 0.31 -7.44 13.63 o
-1 -8 7 2478.57 2597.28 63.58 o
0 -8 7 3852.01 4161.30 91.42 o
1 -8 7 73.69 84.40 14.71 o
2 -8 7 1083.43 1123.99 36.61 o
3 -8 7 4740.40 4544.51 97.46 o
4 -8 7 1116.09 1090.60 45.28 o
5 -8 7 965.76 1008.18 58.18 o
6 -8 7 4859.04 4759.95 142.80 o
7 -8 7 485.33 485.67 158.34 o
8 -8 7 278.80 347.78 78.17 o
-5 -7 7 1066.40 998.05 57.65 o
-4 -7 7 35.14 31.78 18.86 o
-3 -7 7 2403.67 2372.10 52.83 o
-2 -7 7 3947.21 4019.27 74.58 o
-1 -7 7 30.07 33.34 11.02 o
0 -7 7 2154.88 2251.58 52.12 o
1 -7 7 8440.27 8326.55 111.57 o
2 -7 7 348.74 367.94 21.80 o
3 -7 7 2180.78 2239.42 67.68 o
4 -7 7 5373.03 5343.06 108.50 o
5 -7 7 473.79 462.06 86.61 o
6 -7 7 106.60 98.87 48.64 o
7 -7 7 4206.50 4244.72 137.54 o
8 -7 7 747.61 666.25 28.36 o
-5 -6 7 2809.30 2731.76 77.79 o
-4 -6 7 3858.34 3760.20 77.19 o
-3 -6 7 27.48 11.53 10.52 o
-2 -6 7 1732.98 1734.94 41.33 o
-1 -6 7 8063.96 8005.12 108.97 o
0 -6 7 201.04 254.00 17.89 o
1 -6 7 1781.20 1822.26 38.61 o
2 -6 7 8126.78 8409.59 118.61 o
3 -6 7 415.47 394.47 21.95 o
4 -6 7 793.04 851.18 30.67 o
5 -6 7 5526.24 5488.23 113.06 o
6 -6 7 946.11 850.67 61.77 o
7 -6 7 273.82 291.49 18.97 o
8 -6 7 3146.15 3053.76 71.03 o
-6 -5 7 1441.88 1493.94 61.53 o
-5 -5 7 69.90 54.16 20.42 o
-4 -5 7 2981.02 2878.11 75.95 o
-3 -5 7 4418.10 4395.42 67.74 o
-2 -5 7 104.86 72.36 9.27 o
-1 -5 7 3199.43 3119.43 45.22 o
0 -5 7 6357.06 6497.66 83.17 o
1 -5 7 174.69 243.19 13.03 o
2 -5 7 2494.37 2497.28 44.26 o
3 -5 7 9035.17 9248.21 116.97 o
4 -5 7 507.44 473.65 30.64 o
5 -5 7 1607.59 1554.48 51.39 o
6 -5 7 4419.08 4474.38 66.16 o
7 -5 7 791.31 739.64 44.58 o
8 -5 7 120.68 120.18 17.51 o
-7 -4 7 42.87 32.98 22.15 o
-6 -4 7 1756.95 1813.23 90.46 o
-5 -4 7 3350.59 3366.12 68.64 o
-4 -4 7 7.72 9.15 9.38 o
-3 -4 7 3452.22 3405.04 56.45 o
-2 -4 7 8468.84 8106.63 83.58 o
-1 -4 7 98.51 100.55 6.98 o
0 -4 7 1852.85 1731.18 27.01 o
1 -4 7 6693.16 6771.47 102.92 o
2 -4 7 311.25 333.20 23.67 o
3 -4 7 176.94 191.24 12.99 o
4 -4 7 7537.91 7909.80 122.04 o
5 -4 7 1379.04 1363.04 48.21 o
6 -4 7 198.32 229.04 22.09 o
7 -4 7 4489.42 4410.88 73.96 o
8 -4 7 1041.23 883.40 55.90 o
-7 -3 7 2515.54 2652.21 77.95 o
-6 -3 7 2.90 7.92 14.05 o
-5 -3 7 3550.55 3433.53 61.40 o
-4 -3 7 5467.28 5523.78 70.84 o
-3 -3 7 15.31 19.06 5.63 o
-2 -3 7 3724.84 3709.39 41.92 o
-1 -3 7 9294.63 8947.79 131.91 o
0 -3 7 384.17 385.85 24.68 o
1 -3 7 3215.52 3274.25 48.06 o
2 -3 7 11374.85 10938.16 279.23 o
3 -3 7 1361.55 1479.34 50.65 o
4 -3 7 1056.46 1063.76 34.11 o
5 -3 7 10030.38 10247.72 116.61 o
6 -3 7 1736.31 1694.18 42.36 o
7 -3 7 623.74 651.69 32.16 o
8 -3 7 3297.92 3267.65 89.58 o
-7 -2 7 2927.39 2909.44 71.76 o
-6 -2 7 1831.27 1807.69 50.97 o
-5 -2 7 116.04 116.68 13.88 o
-4 -2 7 3693.83 3663.50 50.94 o
-3 -2 7 4958.11 4799.50 54.00 o
-2 -2 7 885.92 816.84 19.01 o
-1 -2 7 7021.14 6658.46 124.43 o
0 -2 7 19365.22 19121.45 371.90 o
1 -2 7 27.96 35.54 3.93 o
2 -2 7 3335.05 3114.24 46.36 o
3 -2 7 13368.61 13549.31 185.64 o
4 -2 7 303.44 320.71 20.76 o
5 -2 7 367.30 377.34 23.37 o
6 -2 7 5695.35 5669.56 101.20 o
7 -2 7 1225.17 1268.74 53.37 o
8 -2 7 16.30 6.19 24.49 o
-8 -1 7 1879.49 1875.19 93.08 o
-7 -1 7 65.47 42.33 19.62 o
-6 -1 7 2744.24 2762.83 55.15 o
-5 -1 7 4810.56 4758.52 75.94 o
-4 -1 7 313.25 294.04 14.08 o
-3 -1 7 5913.30 5705.36 63.53 o
-2 -1 7 10921.24 10463.37 138.96 o
-1 -1 7 173.55 160.08 21.94 o
0 -1 7 1750.59 1712.84 55.96 o
1 -1 7 20556.19 19993.22 188.61 o
2 -1 7 506.37 501.74 20.07 o
3 -1 7 1394.91 1415.49 32.41 o
4 -1 7 9741.91 9449.34 107.48 o
5 -1 7 1178.60 1172.66 32.99 o
6 -1 7 157.89 144.19 15.96 o
7 -1 7 4517.92 4380.21 176.16 o
8 -1 7 1088.77 1069.28 66.23 o
-8 0 7 1743.68 1805.87 88.28 o
-7 0 7 2275.02 2314.66 65.85 o
-6 0 7 96.08 110.09 15.48 o
-5 0 7 6079.86 6176.62 91.33 o
-4 0 7 5714.88 5690.27 76.50 o
-3 0 7 70.10 77.00 7.67 o
-2 0 7 5870.47 5927.49 71.68 o
-1 0 7 13002.60 13090.62 237.98 o
0 0 7 880.53 871.10 22.97 o
1 0 7 2612.01 2547.57 41.19 o
2 0 7 17623.52 17414.59 228.96 o
3 0 7 992.54 935.94 17.71 o
4 0 7 758.30 729.86 21.30 o
5 0 7 7253.41 7204.59 102.90 o
6 0 7 931.17 1041.56 51.67 o
7 0 7 59.51 32.94 19.92 o
8 0 7 1973.96 2089.40 76.94 o
-8 1 7 46.63 82.44 42.97 o
-7 1 7 3200.82 3289.01 79.07 o
-6 1 7 4473.88 4555.94 84.92 o
-5 1 7 80.06 59.94 11.68 o
-4 1 7 4483.07 4206.93 76.41 o
-3 1 7 15185.53 14943.83 217.14 o
-2 1 7 353.22 392.79 15.49 o
-1 1 7 3465.28 3469.89 79.23 o
0 1 7 19376.00 19856.02 225.16 o
1 1 7 838.38 913.06 20.37 o
2 1 7 467.83 470.53 16.67 o
3 1 7 13305.97 13309.27 124.99 o
4 1 7 1332.00 1346.75 29.81 o
5 1 7 300.02 315.07 30.25 o
6 1 7 4627.63 4616.66 109.50 o
7 1 7 848.07 956.54 56.69 o
-8 2 7 2419.86 2414.39 85.76 o
-7 2 7 183.51 265.72 30.94 o
-6 2 7 3342.18 3152.38 79.51 o
-5 2 7 5746.38 5619.40 92.53 o
-4 2 7 16.12 29.11 7.11 o
-3 2 7 3772.25 3706.47 59.84 o
-2 2 7 13450.51 13768.14 203.47 o
-1 2 7 478.51 491.81 18.25 o
0 2 7 4994.40 5032.75 63.96 o
1 2 7 10833.78 10658.90 122.24 o
2 2 7 729.74 740.09 17.09 o
3 2 7 1623.17 1582.26 29.75 o
4 2 7 5987.66 5938.26 90.02 o
5 2 7 571.36 534.66 32.52 o
6 2 7 146.34 186.26 28.53 o
7 2 7 2544.30 2511.40 84.94 o
-8 3 7 2284.27 2078.14 94.54 o
-7 3 7 2768.96 2786.97 101.76 o
-6 3 7 61.53 88.68 33.05 o
-5 3 7 2237.56 2348.52 53.07 o
-4 3 7 6567.50 6337.96 87.77 o
-3 3 7 207.29 174.67 15.38 o
-2 3 7 1772.77 1715.54 36.81 o
-1 3 7 9507.19 9478.80 118.81 o
0 3 7 966.42 966.01 19.77 o
1 3 7 1421.70 1301.42 24.58 o
2 3 7 5564.57 5772.03 71.92 o
3 3 7 503.92 574.93 24.58 o
4 3 7 28.97 23.23 12.19 o
5 3 7 4159.29 4239.00 104.45 o
6 3 7 584.43 588.41 46.06 o
-8 4 7 25.66 40.27 26.94 o
-7 4 7 1950.57 1911.73 84.47 o
-6 4 7 7159.31 6969.32 143.23 o
-5 4 7 58.63 71.31 16.27 o
-4 4 7 2160.58 2143.85 47.42 o
-3 4 7 7934.49 7983.37 117.45 o
-2 4 7 433.10 414.81 21.71 o
-1 4 7 1846.86 1758.19 29.85 o
0 4 7 6477.82 6654.33 88.58 o
1 4 7 1220.07 1236.84 28.45 o
2 4 7 452.52 401.19 24.20 o
3 4 7 6088.45 6056.45 107.75 o
4 4 7 875.03 844.77 47.04 o
5 4 7 74.74 69.45 22.86 o
6 4 7 2896.52 2894.52 174.18 o
-8 5 7 2562.93 2545.23 110.15 o
-7 5 7 80.14 58.40 62.63 o
-6 5 7 2298.53 2426.66 93.25 o
-5 5 7 4614.54 4647.08 87.96 o
-4 5 7 6.43 4.01 5.75 o
-3 5 7 3127.66 3081.72 48.99 o
-2 5 7 3356.46 3443.36 48.54 o
-1 5 7 389.85 394.55 19.39 o
0 5 7 733.99 716.70 25.23 o
1 5 7 5677.26 5645.87 97.91 o
2 5 7 910.10 1026.72 39.60 o
3 5 7 438.74 424.91 35.54 o
4 5 7 4046.38 4167.11 127.09 o
5 5 7 504.13 516.25 45.41 o
-8 6 7 1290.96 1224.16 87.30 o
-7 6 7 2591.01 2529.00 105.14 o
-6 6 7 10.37 8.56 10.10 o
-5 6 7 1285.84 1399.84 32.96 o
-4 6 7 4829.07 4885.32 80.38 o
-3 6 7 67.88 78.93 12.09 o
-2 6 7 720.42 656.07 27.02 o
-1 6 7 6339.95 6416.58 103.73 o
0 6 7 430.94 420.81 26.03 o
1 6 7 517.64 538.73 33.03 o
2 6 7 4993.78 5050.61 115.57 o
3 6 7 496.02 593.82 81.98 o
4 6 7 153.94 114.17 28.07 o
-8 7 7 19.91 -26.21 26.21 o
-7 7 7 1136.52 1184.72 81.17 o
-6 7 7 2723.95 2842.83 54.45 o
-5 7 7 29.51 17.22 11.87 o
-4 7 7 1054.21 1066.41 41.34 o
-3 7 7 5177.82 5066.96 77.94 o
-2 7 7 157.07 170.92 18.22 o
-1 7 7 1206.75 1180.66 49.51 o
0 7 7 4121.64 4095.35 85.69 o
1 7 7 352.57 387.28 35.82 o
2 7 7 271.76 221.56 33.59 o
3 7 7 2100.87 2079.86 81.80 o
4 7 7 1238.09 1270.60 68.22 o
-7 8 7 0.29 -2.40 12.55 o
-6 8 7 1275.47 1323.61 47.70 o
-5 8 7 3651.90 3705.78 79.65 o
-4 8 7 64.97 34.59 13.86 o
-3 8 7 802.35 889.08 46.02 o
-2 8 7 5696.95 5790.18 125.33 o
-1 8 7 181.93 161.65 27.02 o
0 8 7 307.69 301.73 33.26 o
1 8 7 3719.51 3637.10 100.69 o
2 8 7 1100.22 1264.33 65.18 o
-6 9 7 5.03 -1.44 18.10 o
-5 9 7 1119.56 1246.24 56.88 o
-4 9 7 4141.70 4235.78 88.02 o
-3 9 7 13.89 15.36 18.89 o
-2 9 7 537.29 520.76 66.54 o
-1 9 7 3972.60 3820.71 103.06 o
0 9 7 408.31 398.70 40.24 o
1 9 7 752.55 784.99 56.51 o
-5 10 7 8.21 12.97 26.51 o
-4 10 7 558.82 573.26 37.63 o
-3 10 7 2540.85 2545.24 84.53 o
-2 10 7 275.61 265.23 37.36 o
-1 10 7 350.27 356.27 39.87 o
2 -11 8 2467.75 2467.90 87.70 o
3 -11 8 61.94 31.28 22.09 o
-1 -10 8 1415.93 1402.82 76.16 o
0 -10 8 3360.24 3540.26 99.78 o
1 -10 8 117.45 95.22 24.98 o
2 -10 8 1452.32 1516.43 70.86 o
3 -10 8 4710.21 4943.07 129.18 o
4 -10 8 123.66 144.54 32.37 o
5 -10 8 894.74 867.95 116.37 o
6 -10 8 2095.62 2021.08 96.02 o
-2 -9 8 2784.15 3016.49 127.03 o
-1 -9 8 0.45 -9.62 16.96 o
0 -9 8 1968.57 1981.63 68.36 o
1 -9 8 3351.62 3417.00 78.43 o
2 -9 8 134.25 140.21 19.84 o
3 -9 8 1419.08 1455.06 53.87 o
4 -9 8 3341.49 3391.54 88.31 o
5 -9 8 338.07 332.73 69.29 o
6 -9 8 408.51 396.93 52.19 o
7 -9 8 2396.39 2439.68 115.70 o
-3 -8 8 195.22 193.94 29.79 o
-2 -8 8 2443.66 2324.07 56.57 o
-1 -8 8 3985.47 3926.94 120.65 o
0 -8 8 3.18 17.13 12.04 o
1 -8 8 2265.18 2145.43 54.12 o
2 -8 8 4517.79 4735.54 78.17 o
3 -8 8 530.30 559.26 31.10 o
4 -8 8 894.70 1035.03 45.06 o
5 -8 8 5811.80 5966.79 146.44 o
6 -8 8 551.81 633.27 56.77 o
7 -8 8 818.71 829.04 69.62 o
-4 -7 8 1292.57 1335.42 57.08 o
-3 -7 8 3198.51 3175.37 62.13 o
-2 -7 8 5.87 9.08 9.88 o
-1 -7 8 3127.80 3048.39 64.74 o
0 -7 8 3685.56 3829.75 100.78 o
1 -7 8 113.92 120.94 12.52 o
2 -7 8 1983.38 2000.98 47.18 o
3 -7 8 3637.79 3551.66 68.02 o
4 -7 8 427.51 513.41 34.64 o
5 -7 8 945.94 888.29 46.55 o
6 -7 8 2899.85 3017.70 107.44 o
7 -7 8 678.42 548.08 57.89 o
8 -7 8 325.53 413.96 85.72 o
-5 -6 8 2457.80 2439.86 84.18 o
-4 -6 8 23.17 37.37 14.52 o
-3 -6 8 1852.13 1782.80 42.26 o
-2 -6 8 3570.10 3624.16 64.96 o
-1 -6 8 287.52 215.36 20.48 o
0 -6 8 2488.07 2474.61 46.04 o
1 -6 8 6937.23 6938.06 92.61 o
2 -6 8 274.98 285.93 17.97 o
3 -6 8 1822.63 1690.04 52.25 o
4 -6 8 4804.85 4876.79 85.83 o
5 -6 8 890.36 942.62 42.96 o
6 -6 8 248.00 302.94 39.96 o
7 -6 8 4225.46 4078.53 314.02 o
8 -6 8 956.43 906.98 116.81 o
-6 -5 8 317.95 364.10 35.80 o
-5 -5 8 2346.25 2350.46 90.34 o
-4 -5 8 3776.23 3748.33 82.64 o
-3 -5 8 48.55 50.74 11.92 o
-2 -5 8 2726.17 2649.23 78.37 o
-1 -5 8 7996.02 7834.67 92.58 o
0 -5 8 360.21 333.42 18.98 o
1 -5 8 4209.95 4037.53 57.28 o
2 -5 8 9134.73 8597.74 106.47 o
3 -5 8 310.73 301.17 17.16 o
4 -5 8 1955.69 1829.60 51.86 o
5 -5 8 4950.00 5034.01 107.61 o
6 -5 8 968.95 1058.31 70.38 o
7 -5 8 391.87 331.52 43.76 o
8 -5 8 2791.65 3087.82 183.00 o
-6 -4 8 1812.34 1794.64 62.19 o
-5 -4 8 5.51 21.85 11.74 o
-4 -4 8 2518.32 2534.30 49.21 o
-3 -4 8 4774.35 4806.98 63.80 o
-2 -4 8 8.35 17.11 5.86 o
-1 -4 8 3031.67 3200.48 40.16 o
0 -4 8 5490.93 5433.58 98.43 o
1 -4 8 364.26 310.50 10.74 o
2 -4 8 1681.37 1621.20 27.16 o
3 -4 8 9082.91 9015.01 114.54 o
4 -4 8 1259.71 1251.19 42.67 o
5 -4 8 1893.27 1870.81 58.67 o
6 -4 8 4573.98 4679.08 272.49 o
7 -4 8 1063.37 1102.45 37.69 o
8 -4 8 158.56 131.52 18.96 o
-7 -3 8 87.62 156.76 26.77 o
-6 -3 8 2199.88 2255.23 59.65 o
-5 -3 8 3510.27 3491.75 62.19 o
-4 -3 8 75.03 80.23 10.02 o
-3 -3 8 3402.84 3408.07 47.31 o
-2 -3 8 9655.30 9383.27 107.50 o
-1 -3 8 216.90 211.09 23.39 o
0 -3 8 1600.64 1483.02 35.92 o
1 -3 8 12345.44 12060.86 124.38 o
2 -3 8 1706.60 1679.81 28.93 o
3 -3 8 2400.98 2379.77 43.26 o
4 -3 8 9530.46 9407.39 160.69 o
5 -3 8 1654.48 1579.05 44.46 o
6 -3 8 996.36 928.53 25.15 o
7 -3 8 3961.64 3967.48 68.11 o
8 -3 8 729.30 703.85 43.08 o
-7 -2 8 1562.81 1650.78 66.38 o
-6 -2 8 92.04 79.42 16.06 o
-5 -2 8 2631.66 2689.14 51.03 o
-4 -2 8 5189.24 5207.33 82.04 o
-3 -2 8 1.13 -3.23 4.56 o
-2 -2 8 1568.20 1572.57 41.86 o
-1 -2 8 14183.43 13751.57 717.99 o
0 -2 8 687.93 679.29 47.97 o
1 -2 8 4120.38 4183.13 47.28 o
2 -2 8 8513.81 8499.69 98.64 o
3 -2 8 2309.67 2212.43 52.09 o
4 -2 8 1527.36 1482.69 38.90 o
5 -2 8 5982.77 6035.38 104.30 o
6 -2 8 1766.84 1765.21 39.27 o
7 -2 8 407.87 370.52 25.29 o
8 -2 8 2113.30 2269.26 73.20 o
-8 -1 8 22.52 24.37 24.56 o
-7 -1 8 3075.04 3286.92 82.64 o
-6 -1 8 2935.36 2936.25 63.48 o
-5 -1 8 112.40 118.87 14.05 o
-4 -1 8 2363.38 2339.42 36.87 o
-3 -1 8 11021.77 11089.34 112.07 o
-2 -1 8 239.35 249.79 24.35 o
-1 -1 8 4993.32 5160.73 193.66 o
0 -1 8 21004.99 20595.21 305.43 o
1 -1 8 416.17 399.39 13.37 o
2 -1 8 4684.53 4687.02 57.10 o
3 -1 8 9531.54 9232.92 98.48 o
4 -1 8 1267.59 1336.34 38.44 o
5 -1 8 649.61 659.92 27.04 o
6 -1 8 4812.98 4897.80 78.74 o
7 -1 8 1357.68 1347.06 44.80 o
8 -1 8 128.91 104.44 27.13 o
-8 0 8 1618.57 1696.25 73.54 o
-7 0 8 192.64 225.55 26.28 o
-6 0 8 3208.63 3256.96 63.91 o
-5 0 8 6557.54 6668.35 87.96 o
-4 0 8 460.24 464.09 22.08 o
-3 0 8 4760.69 4985.19 58.34 o
-2 0 8 8562.66 8284.89 110.73 o
-1 0 8 14.86 24.23 4.99 o
0 0 8 2419.68 2436.70 42.15 o
1 0 8 9619.57 9600.90 135.01 o
2 0 8 781.80 786.88 21.56 o
3 0 8 1379.65 1337.85 32.53 o
4 0 8 5137.32 5242.25 77.50 o
5 0 8 961.50 970.19 36.04 o
6 0 8 299.31 297.26 34.50 o
7 0 8 2262.48 2210.91 72.31 o
-8 1 8 1883.77 2032.53 79.56 o
-7 1 8 2908.66 2971.92 101.81 o
-6 1 8 29.21 34.14 13.05 o
-5 1 8 4347.66 4340.67 99.95 o
-4 1 8 6258.00 6375.16 84.55 o
-3 1 8 22.30 15.88 5.83 o
-2 1 8 2969.80 3030.76 55.64 o
-1 1 8 6418.30 6406.03 151.75 o
0 1 8 1366.63 1374.23 33.07 o
1 1 8 576.59 642.00 33.24 o
2 1 8 10183.06 10268.55 111.09 o
3 1 8 1127.08 1074.81 21.03 o
4 1 8 361.11 358.75 23.27 o
5 1 8 4520.30 4531.72 88.78 o
6 1 8 983.24 945.65 64.90 o
7 1 8 88.62 141.00 27.29 o
-8 2 8 113.31 62.82 25.27 o
-7 2 8 2963.25 2928.53 128.63 o
-6 2 8 4227.10 4268.93 97.10 o
-5 2 8 2.50 3.60 8.29 o
-4 2 8 4559.26 4581.77 67.51 o
-3 2 8 9699.82 9567.40 149.72 o
-2 2 8 8.85 3.85 7.92 o
-1 2 8 3564.06 3760.01 63.00 o
0 2 8 8878.96 8631.20 112.73 o
1 2 8 47.44 56.97 10.10 o
2 2 8 132.61 148.43 13.89 o
3 2 8 8189.57 8137.07 91.82 o
4 2 8 777.55 787.33 28.65 o
5 2 8 379.57 327.64 20.01 o
6 2 8 2617.06 2765.41 82.41 o
7 2 8 970.67 981.08 56.67 o
-8 3 8 1944.07 2134.06 96.89 o
-7 3 8 153.74 148.08 25.37 o
-6 3 8 2609.15 2748.66 75.81 o
-5 3 8 2878.49 2983.44 62.19 o
-4 3 8 362.38 336.66 21.36 o
-3 3 8 2914.86 2852.03 54.07 o
-2 3 8 6791.96 6783.57 117.23 o
-1 3 8 121.53 153.04 15.48 o
0 3 8 1018.16 1046.08 30.40 o
1 3 8 7517.38 7790.42 97.00 o
2 3 8 211.93 227.01 12.75 o
3 3 8 472.99 444.73 23.06 o
4 3 8 3526.69 3293.04 62.92 o
5 3 8 929.76 976.82 51.76 o
6 3 8 224.35 190.70 30.44 o
-8 4 8 1810.79 1798.37 135.25 o
-7 4 8 2100.76 2310.67 180.55 o
-6 4 8 15.54 5.38 14.57 o
-5 4 8 2793.66 2699.82 98.89 o
-4 4 8 4363.63 4508.34 92.81 o
-3 4 8 90.80 57.89 21.64 o
-2 4 8 1541.95 1612.43 45.39 o
-1 4 8 9783.46 10121.63 168.64 o
0 4 8 28.47 27.56 7.10 o
1 4 8 1058.96 1129.35 26.56 o
2 4 8 4808.89 4802.62 75.70 o
3 4 8 261.24 251.71 19.24 o
4 4 8 72.21 55.62 19.70 o
5 4 8 2815.30 2866.94 86.21 o
6 4 8 866.05 834.78 56.66 o
-8 5 8 4.74 -1.86 37.09 o
-7 5 8 1979.34 1929.66 92.83 o
-6 5 8 3877.04 3944.91 224.30 o
-5 5 8 34.44 21.80 15.14 o
-4 5 8 1876.73 1943.39 73.17 o
-3 5 8 4218.21 4480.98 93.75 o
-2 5 8 57.92 74.40 15.79 o
-1 5 8 527.86 551.39 19.69 o
0 5 8 5228.29 5323.59 86.65 o
1 5 8 837.50 808.02 28.22 o
2 5 8 345.23 338.77 22.57 o
3 5 8 4298.45 4225.69 102.30 o
4 5 8 951.62 1002.00 55.11 o
5 5 8 189.59 169.83 30.73 o
-8 6 8 1525.10 1565.88 90.29 o
-7 6 8 0.91 -10.62 23.53 o
-6 6 8 1792.60 1777.03 84.62 o
-5 6 8 3802.34 3795.40 123.43 o
-4 6 8 92.57 78.20 23.87 o
-3 6 8 1946.10 1970.18 56.96 o
-2 6 8 5393.83 5578.14 77.64 o
-1 6 8 572.13 571.68 25.69 o
0 6 8 1310.10 1412.42 40.52 o
1 6 8 5969.79 5844.08 121.54 o
2 6 8 708.22 719.00 64.15 o
3 6 8 673.14 618.09 45.29 o
4 6 8 3025.01 2918.14 121.97 o
-7 7 8 1654.39 1589.53 160.34 o
-6 7 8 1.16 4.01 22.50 o
-5 7 8 1192.33 1068.39 83.72 o
-4 7 8 4827.75 5015.28 82.99 o
-3 7 8 19.10 31.27 14.31 o
-2 7 8 1638.94 1656.23 43.90 o
-1 7 8 4010.47 4231.00 80.47 o
0 7 8 245.95 290.85 28.93 o
1 7 8 648.74 669.80 50.99 o
2 7 8 2854.79 2890.52 95.40 o
3 7 8 358.51 296.06 42.76 o
-7 8 8 1238.40 1063.57 112.15 o
-6 8 8 2083.79 2066.65 100.96 o
-5 8 8 88.09 118.50 15.91 o
-4 8 8 880.95 817.20 33.09 o
-3 8 8 3700.94 3678.75 74.86 o
-2 8 8 722.58 805.35 35.96 o
-1 8 8 1192.68 1269.71 64.63 o
0 8 8 2952.65 3065.59 88.07 o
1 8 8 644.46 671.03 49.19 o
2 8 8 132.65 96.02 68.34 o
-5 9 8 2728.33 2707.95 68.93 o
-4 9 8 104.31 100.28 18.26 o
-3 9 8 1101.26 1169.64 50.97 o
-2 9 8 3362.40 3471.44 94.72 o
-1 9 8 236.40 238.42 31.41 o
0 9 8 367.40 392.12 39.85 o
0 -10 9 9.32 -20.88 20.88 o
1 -10 9 1383.10 1505.37 89.12 o
2 -10 9 3829.36 3841.05 103.77 o
3 -10 9 9.51 26.75 16.66 o
4 -10 9 898.94 1059.88 126.59 o
5 -10 9 3164.70 3154.02 260.95 o
-2 -9 9 0.30 -12.69 23.87 o
-1 -9 9 1745.19 1803.99 124.37 o
0 -9 9 3135.19 3242.63 85.82 o
1 -9 9 4.54 10.49 14.89 o
2 -9 9 922.04 963.41 37.39 o
3 -9 9 4385.36 4492.53 119.91 o
4 -9 9 40.97 27.17 16.51 o
5 -9 9 494.71 521.31 53.12 o
6 -9 9 2140.72 2296.14 99.84 o
-3 -8 9 3064.35 3116.36 147.00 o
-2 -8 9 2648.94 2723.09 69.70 o
-1 -8 9 1.83 20.76 15.00 o
0 -8 9 1363.53 1423.64 66.14 o
1 -8 9 4996.19 5156.59 139.27 o
2 -8 9 48.33 31.59 11.04 o
3 -8 9 649.49 674.60 33.92 o
4 -8 9 4763.34 4733.64 105.12 o
5 -8 9 382.78 394.98 34.42 o
6 -8 9 464.87 516.72 54.89 o
7 -8 9 3207.38 3404.92 185.88 o
-4 -7 9 1194.09 1227.71 60.98 o
-3 -7 9 65.53 47.78 15.16 o
-2 -7 9 1826.88 1866.12 47.27 o
-1 -7 9 3824.89 3994.65 78.90 o
0 -7 9 107.59 125.81 17.84 o
1 -7 9 1084.45 1212.54 35.25 o
2 -7 9 5819.80 5725.33 85.73 o
3 -7 9 109.32 126.96 17.95 o
4 -7 9 851.51 885.38 34.59 o
5 -7 9 5875.78 5880.37 124.26 o
6 -7 9 321.23 331.28 44.27 o
7 -7 9 555.61 423.83 52.03 o
-5 -6 9 83.48 97.03 26.12 o
-4 -6 9 1881.98 1905.80 56.89 o
-3 -6 9 2874.45 2856.88 60.63 o
-2 -6 9 9.77 7.61 9.44 o
-1 -6 9 2218.53 2162.66 55.07 o
0 -6 9 6009.93 5956.59 127.07 o
1 -6 9 90.55 92.88 11.72 o
2 -6 9 1431.44 1417.09 32.76 o
3 -6 9 6258.36 6293.65 98.82 o
4 -6 9 534.06 478.25 28.02 o
5 -6 9 832.77 883.38 54.32 o
6 -6 9 4189.00 4339.85 150.79 o
7 -6 9 793.53 808.07 68.90 o
-5 -5 9 2104.06 2106.52 61.50 o
-4 -5 9 104.10 68.55 23.42 o
-3 -5 9 2085.26 2050.61 46.24 o
-2 -5 9 4152.19 4109.51 59.11 o
-1 -5 9 1.97 8.02 5.34 o
0 -5 9 2006.61 2092.82 36.06 o
1 -5 9 7150.60 7376.08 94.13 o
2 -5 9 166.45 183.11 11.13 o
3 -5 9 1709.03 1801.04 41.74 o
4 -5 9 6175.77 6123.87 117.90 o
5 -5 9 523.96 522.87 37.72 o
6 -5 9 294.74 319.45 41.91 o
7 -5 9 4403.53 4395.03 141.90 o
8 -5 9 683.96 741.31 110.15 o
-6 -4 9 168.12 223.60 33.27 o
-5 -4 9 1652.66 1610.02 47.06 o
-4 -4 9 4225.43 4213.89 89.22 o
-3 -4 9 63.15 57.29 8.76 o
-2 -4 9 2610.98 2517.99 36.83 o
-1 -4 9 7379.61 7256.72 85.78 o
0 -4 9 665.63 709.50 18.21 o
1 -4 9 4360.15 4365.46 54.33 o
2 -4 9 8746.63 8787.22 101.19 o
3 -4 9 733.08 688.49 22.68 o
4 -4 9 1044.35 1014.68 40.02 o
5 -4 9 6672.76 6864.36 135.53 o
6 -4 9 997.55 1006.56 72.02 o
7 -4 9 209.24 247.82 41.82 o
8 -4 9 2781.41 2951.02 181.66 o
-6 -3 9 3323.01 3363.62 93.23 o
-5 -3 9 159.60 181.78 19.62 o
-4 -3 9 4200.32 4129.27 62.52 o
-3 -3 9 6657.71 6487.82 76.55 o
-2 -3 9 23.78 24.95 6.28 o
-1 -3 9 6890.25 7032.49 139.43 o
0 -3 9 5336.94 5553.42 89.22 o
1 -3 9 477.19 498.13 18.11 o
2 -3 9 2317.53 2440.48 42.97 o
3 -3 9 9622.10 9747.09 140.19 o
4 -3 9 627.93 662.31 37.87 o
5 -3 9 987.95 1085.61 46.17 o
6 -3 9 5382.94 5390.88 155.90 o
7 -3 9 519.77 558.61 58.98 o
8 -3 9 178.20 108.82 58.63 o
-7 -2 9 484.37 582.99 50.33 o
-6 -2 9 1504.91 1570.87 42.66 o
-5 -2 9 3534.82 3403.49 65.54 o
-4 -2 9 175.46 153.85 12.57 o
-3 -2 9 3249.65 3165.66 42.77 o
-2 -2 9 5302.40 5189.18 88.71 o
-1 -2 9 76.69 85.03 18.36 o
0 -2 9 2505.54 2503.75 57.09 o
1 -2 9 9054.48 9051.47 102.11 o
2 -2 9 674.56 642.73 24.25 o
3 -2 9 1362.31 1428.87 33.87 o
4 -2 9 7073.48 7324.54 135.86 o
5 -2 9 524.46 500.75 36.55 o
6 -2 9 281.92 301.19 41.37 o
7 -2 9 2585.19 2654.78 76.53 o
-7 -1 9 2408.37 2451.56 99.56 o
-6 -1 9 80.65 79.20 14.99 o
-5 -1 9 2962.47 3004.36 57.11 o
-4 -1 9 6398.12 6318.88 86.76 o
-3 -1 9 433.97 364.61 13.37 o
-2 -1 9 5693.29 5737.25 218.53 o
-1 -1 9 13473.87 12846.73 277.41 o
0 -1 9 202.45 199.40 8.73 o
1 -1 9 4476.88 4311.83 52.03 o
2 -1 9 6001.91 5991.89 77.12 o
3 -1 9 826.50 934.60 51.76 o
4 -1 9 469.92 575.47 37.76 o
5 -1 9 4091.59 4175.26 124.97 o
6 -1 9 1447.45 1487.31 39.56 o
7 -1 9 188.09 143.53 18.40 o
-7 0 9 2719.79 2778.12 74.00 o
-6 0 9 3504.49 3548.03 67.87 o
-5 0 9 156.54 162.68 18.11 o
-4 0 9 3351.20 3320.43 51.25 o
-3 0 9 7258.48 7055.39 85.97 o
-2 0 9 19.25 16.90 5.59 o
-1 0 9 3077.55 2942.53 47.75 o
0 0 9 8678.68 8885.67 109.84 o
1 0 9 97.00 119.38 11.15 o
2 0 9 1429.80 1417.75 30.78 o
3 0 9 5688.04 5847.69 99.28 o
4 0 9 882.63 878.05 37.74 o
5 0 9 732.81 709.33 25.68 o
6 0 9 2811.71 2859.79 55.14 o
7 0 9 708.14 702.13 35.16 o
-8 1 9 1721.89 1750.51 88.45 o
-7 1 9 150.83 106.12 21.65 o
-6 1 9 2216.82 2229.23 51.65 o
-5 1 9 5007.59 5034.76 85.55 o
-4 1 9 55.01 66.40 8.98 o
-3 1 9 2384.71 2320.62 42.18 o
-2 1 9 8084.63 7710.35 120.87 o
-1 1 9 171.44 171.60 11.82 o
0 1 9 1796.27 1703.84 34.44 o
1 1 9 8307.11 8560.10 113.76 o
2 1 9 792.85 782.60 29.72 o
3 1 9 2515.32 2388.98 54.60 o
4 1 9 2321.18 2365.51 58.55 o
5 1 9 1053.83 1185.62 32.75 o
6 1 9 277.21 281.70 29.75 o
7 1 9 1895.85 1980.95 69.15 o
-8 2 9 1580.95 1536.85 73.48 o
-7 2 9 2311.28 2213.51 71.62 o
-6 2 9 1.07 10.23 21.46 o
-5 2 9 3143.59 3005.72 61.38 o
-4 2 9 5378.69 5323.27 77.30 o
-3 2 9 149.20 105.87 11.27 o
-2 2 9 1470.88 1465.06 39.02 o
-1 2 9 5102.39 5245.62 216.17 o
0 2 9 412.54 457.18 27.70 o
1 2 9 1433.33 1437.00 61.32 o
2 2 9 3833.53 4019.63 66.80 o
3 2 9 1402.81 1429.22 38.19 o
4 2 9 874.57 856.36 32.38 o
5 2 9 3080.52 3033.34 59.25 o
6 2 9 555.92 514.68 43.00 o
-8 3 9 150.47 142.09 36.11 o
-7 3 9 1579.40 1547.03 60.69 o
-6 3 9 2793.69 2616.53 92.03 o
-5 3 9 17.34 9.11 12.12 o
-4 3 9 822.34 771.24 28.84 o
-3 3 9 7253.31 7395.77 127.49 o
-2 3 9 203.51 267.33 24.07 o
-1 3 9 1631.20 1660.44 48.01 o
0 3 9 6636.40 6927.05 155.59 o
1 3 9 958.75 966.13 63.68 o
2 3 9 1302.82 1332.95 36.39 o
3 3 9 4708.53 4846.91 74.15 o
4 3 9 931.61 966.97 32.96 o
5 3 9 400.91 387.93 26.80 o
6 3 9 1994.72 2013.98 70.73 o
-8 4 9 1440.01 1424.25 94.16 o
-7 4 9 139.68 176.56 42.42 o
-6 4 9 1593.99 1587.93 63.77 o
-5 4 9 3650.34 3567.60 87.57 o
-4 4 9 121.97 104.99 17.22 o
-3 4 9 3188.04 3219.59 74.37 o
-2 4 9 6490.15 6460.64 163.90 o
-1 4 9 103.30 78.23 19.63 o
0 4 9 2957.22 2939.02 70.61 o
1 4 9 4129.35 4430.56 84.52 o
2 4 9 496.09 531.04 21.79 o
3 4 9 712.23 729.29 28.85 o
4 4 9 2951.57 2985.91 82.71 o
5 4 9 959.21 910.99 51.68 o
-7 5 9 2130.80 2083.86 95.46 o
-6 5 9 41.47 68.48 26.62 o
-5 5 9 1825.53 1825.87 62.59 o
-4 5 9 2693.76 2604.51 88.37 o
-3 5 9 16.14 24.98 17.61 o
-2 5 9 849.63 827.69 51.32 o
-1 5 9 4732.28 4494.48 104.27 o
0 5 9 423.71 446.84 18.06 o
1 5 9 566.18 547.20 23.07 o
2 5 9 4690.21 4884.01 79.61 o
3 5 9 519.58 544.38 31.79 o
4 5 9 180.91 200.94 29.36 o
-7 6 9 1624.14 1875.57 93.43 o
-6 6 9 2986.15 3021.49 114.14 o
-5 6 9 7.87 5.55 20.35 o
-4 6 9 1511.57 1520.37 106.60 o
-3 6 9 3947.17 4056.54 181.22 o
-2 6 9 490.13 574.75 75.95 o
-1 6 9 1081.40 1047.04 24.99 o
0 6 9 5632.40 5759.59 94.51 o
1 6 9 625.75 727.39 29.57 o
2 6 9 476.00 419.75 32.05 o
3 6 9 3257.78 3243.39 172.82 o
-7 7 9 7.17 -21.51 32.87 o
-6 7 9 1411.01 1442.29 82.43 o
-5 7 9 3241.84 3290.14 121.23 o
-4 7 9 49.64 -8.88 31.54 o
-3 7 9 1983.59 1831.28 125.25 o
-2 7 9 3537.12 3437.57 63.33 o
-1 7 9 173.89 184.47 18.04 o
0 7 9 457.99 380.46 24.29 o
1 7 9 3923.38 4038.93 83.77 o
2 7 9 438.86 509.66 42.40 o
-6 8 9 0.31 -26.69 26.69 o
-5 8 9 1133.53 1139.29 85.27 o
-4 8 9 3569.04 3418.28 183.00 o
-3 8 9 53.85 68.13 23.83 o
-2 8 9 882.74 856.93 29.05 o
-1 8 9 3575.53 3549.10 75.59 o
0 8 9 175.37 172.52 27.22 o
1 8 9 379.45 350.83 36.00 o
-4 9 9 893.61 894.74 34.95 o
-3 9 9 2427.83 2419.58 63.70 o
-2 9 9 141.32 121.25 21.67 o
-1 9 9 720.34 739.57 48.99 o
1 -10 10 3295.81 3374.44 119.10 o
2 -10 10 49.48 21.86 33.31 o
3 -10 10 1421.75 1514.91 55.86 o
4 -10 10 2568.14 2654.77 162.69 o
-1 -9 10 3565.59 3641.88 84.31 o
0 -9 10 17.21 -7.28 16.37 o
1 -9 10 1222.08 1353.57 57.01 o
2 -9 10 3125.15 3175.52 86.10 o
3 -9 10 44.96 57.38 16.78 o
4 -9 10 918.54 1021.47 52.88 o
5 -9 10 2546.76 2569.22 101.43 o
-2 -8 10 322.85 303.83 27.37 o
-1 -8 10 1564.81 1549.48 49.41 o
0 -8 10 2797.87 2800.31 65.60 o
1 -8 10 17.77 4.96 11.11 o
2 -8 10 991.08 1006.50 36.88 o
3 -8 10 3544.98 3576.37 67.93 o
4 -8 10 316.61 332.50 30.58 o
5 -8 10 821.92 919.01 52.56 o
6 -8 10 3115.86 3275.78 175.22 o
-3 -7 10 1623.03 1677.15 47.85 o
-2 -7 10 2861.63 2798.24 68.05 o
-1 -7 10 32.62 37.37 12.86 o
0 -7 10 1272.22 1238.09 38.73 o
1 -7 10 4846.62 4777.57 82.39 o
2 -7 10 93.32 116.74 15.00 o
3 -7 10 972.71 1065.36 49.81 o
4 -7 10 4783.42 4719.85 88.16 o
5 -7 10 362.84 353.56 56.11 o
6 -7 10 432.19 499.84 54.19 o
7 -7 10 3141.88 2887.26 154.79 o
-4 -6 10 2570.16 2516.38 64.86 o
-3 -6 10 22.18 18.96 11.96 o
-2 -6 10 1810.82 1821.90 42.54 o
-1 -6 10 6115.30 5947.74 98.01 o
0 -6 10 20.83 15.61 9.28 o
1 -6 10 1933.10 1899.00 38.21 o
2 -6 10 7147.01 7230.59 110.48 o
3 -6 10 24.44 26.22 13.98 o
4 -6 10 670.34 674.73 37.31 o
5 -6 10 5907.25 6041.90 126.70 o
6 -6 10 584.30 607.31 58.01 o
7 -6 10 574.81 564.00 60.46 o
-5 -5 10 302.31 363.22 30.54 o
-4 -5 10 2426.26 2479.32 60.51 o
-3 -5 10 2491.09 2428.07 50.80 o
-2 -5 10 49.33 55.22 10.78 o
-1 -5 10 2581.73 2457.44 48.26 o
0 -5 10 7164.83 7066.84 90.60 o
1 -5 10 14.78 16.31 6.57 o
2 -5 10 1537.39 1533.55 34.54 o
3 -5 10 9112.39 8869.97 128.65 o
4 -5 10 60.33 54.72 16.52 o
5 -5 10 1067.43 1073.40 48.00 o
6 -5 10 3185.42 3189.50 113.10 o
7 -5 10 695.32 717.49 72.18 o
-6 -4 10 1426.64 1462.66 65.54 o
-5 -4 10 2196.34 2168.95 54.99 o
-4 -4 10 12.29 10.26 14.83 o
-3 -4 10 2433.25 2449.98 40.43 o
-2 -4 10 6732.60 6395.98 73.35 o
-1 -4 10 1.64 -12.72 12.72 o
0 -4 10 1434.24 1420.53 45.45 o
1 -4 10 11960.81 11457.71 127.48 o
2 -4 10 69.61 64.69 9.26 o
3 -4 10 690.33 666.62 32.04 o
4 -4 10 5745.99 6005.55 124.06 o
5 -4 10 481.02 476.63 55.58 o
6 -4 10 260.22 210.83 39.09 o
7 -4 10 2642.61 2597.92 108.36 o
-6 -3 10 29.48 34.42 15.37 o
-5 -3 10 3324.18 3377.62 67.44 o
-4 -3 10 4647.93 4512.24 66.47 o
-3 -3 10 218.07 227.36 13.39 o
-2 -3 10 3427.14 3381.64 67.66 o
-1 -3 10 8883.39 8496.91 163.59 o
0 -3 10 177.77 231.16 14.84 o
1 -3 10 1302.96 1229.49 23.50 o
2 -3 10 8997.84 8533.08 111.57 o
3 -3 10 579.50 628.25 29.59 o
4 -3 10 1015.90 1073.49 72.56 o
5 -3 10 5718.11 5580.69 157.30 o
6 -3 10 765.88 737.79 84.39 o
7 -3 10 535.96 522.10 58.67 o
-7 -2 10 2373.06 2503.88 85.87 o
-6 -2 10 1769.73 1799.34 54.87 o
-5 -2 10 208.38 199.33 18.93 o
-4 -2 10 2404.70 2486.94 43.02 o
-3 -2 10 5624.55 5480.14 65.12 o
-2 -2 10 8.22 9.79 7.92 o
-1 -2 10 1859.96 1808.33 78.35 o
0 -2 10 9626.74 9069.97 158.43 o
1 -2 10 185.68 181.12 10.85 o
2 -2 10 1424.58 1364.84 32.20 o
3 -2 10 8030.24 8008.67 130.78 o
4 -2 10 204.34 245.75 23.16 o
5 -2 10 676.75 632.46 42.26 o
6 -2 10 3048.30 3002.70 165.67 o
7 -2 10 362.47 323.35 75.95 o
-7 -1 10 349.30 330.26 48.83 o
-6 -1 10 1556.83 1650.80 50.47 o
-5 -1 10 3966.55 4046.65 126.78 o
-4 -1 10 72.67 77.10 10.23 o
-3 -1 10 2087.60 2101.80 35.05 o
-2 -1 10 7993.71 8031.66 140.90 o
-1 -1 10 5.12 3.86 8.53 o
0 -1 10 1900.78 1911.41 33.96 o
1 -1 10 7952.10 7958.64 97.02 o
2 -1 10 89.71 101.91 9.66 o
3 -1 10 918.95 953.60 34.26 o
4 -1 10 4529.91 4544.01 88.71 o
5 -1 10 384.29 455.42 39.23 o
6 -1 10 138.05 146.88 34.62 o
7 -1 10 2739.05 2237.69 158.12 o
-7 0 10 1862.08 1801.18 59.68 o
-6 0 10 172.81 190.22 21.37 o
-5 0 10 2254.68 2267.46 53.61 o
-4 0 10 3782.02 3830.27 65.40 o
-3 0 10 8.18 6.07 5.60 o
-2 0 10 1737.67 1717.39 40.99 o
-1 0 10 5927.17 6185.32 89.85 o
0 0 10 402.43 400.44 16.62 o
1 0 10 1785.74 1924.71 34.96 o
2 0 10 5017.56 4774.85 75.36 o
3 0 10 381.14 404.93 27.31 o
4 0 10 205.92 219.13 22.37 o
5 0 10 4461.90 4330.62 107.11 o
6 0 10 363.70 347.86 46.23 o
7 0 10 75.69 98.60 58.19 o
-7 1 10 2071.80 2096.45 63.95 o
-6 1 10 3384.66 3352.57 66.33 o
-5 1 10 89.34 142.44 16.32 o
-4 1 10 1920.41 1918.41 37.47 o
-3 1 10 6521.13 6562.70 93.56 o
-2 1 10 18.14 5.18 16.99 o
-1 1 10 2268.14 2217.05 40.67 o
0 1 10 6138.88 6183.49 86.78 o
1 1 10 178.79 208.34 22.74 o
2 1 10 526.21 521.57 29.84 o
3 1 10 6943.63 6990.79 117.83 o
4 1 10 253.48 225.11 27.14 o
5 1 10 151.57 141.07 35.16 o
6 1 10 3272.80 3240.17 188.33 o
-7 2 10 184.14 214.97 26.38 o
-6 2 10 1844.05 1921.04 58.92 o
-5 2 10 3554.37 3576.07 70.12 o
-4 2 10 284.63 305.73 20.55 o
-3 2 10 2491.93 2322.76 46.91 o
-2 2 10 3343.71 3432.06 69.85 o
-1 2 10 12.99 13.16 7.93 o
0 2 10 1104.71 1152.35 42.31 o
1 2 10 5658.18 5804.96 98.76 o
2 2 10 333.34 338.39 25.47 o
3 2 10 814.34 800.07 55.41 o
4 2 10 4160.64 4166.10 131.84 o
5 2 10 489.74 497.91 22.12 o
6 2 10 311.42 307.41 34.46 o
-7 3 10 1659.05 1818.41 69.83 o
-6 3 10 30.40 23.64 19.29 o
-5 3 10 1660.44 1796.26 48.38 o
-4 3 10 3327.53 3456.13 77.35 o
-3 3 10 27.83 21.91 11.33 o
-2 3 10 1047.73 1067.50 47.77 o
-1 3 10 5936.52 6048.18 139.97 o
0 3 10 273.31 273.18 30.84 o
1 3 10 777.54 717.12 43.71 o
2 3 10 5143.17 5225.60 113.97 o
3 3 10 584.86 663.83 60.63 o
4 3 10 320.87 251.53 21.94 o
5 3 10 2697.25 2741.75 65.45 o
-7 4 10 1379.90 1310.02 75.51 o
-6 4 10 2674.95 2675.58 78.51 o
-5 4 10 13.50 26.22 14.33 o
-4 4 10 1463.60 1551.92 51.71 o
-3 4 10 6530.12 6412.94 122.06 o
-2 4 10 9.33 6.89 15.15 o
-1 4 10 1865.56 1765.40 72.40 o
0 4 10 5864.13 5760.46 198.10 o
1 4 10 253.83 263.20 28.53 o
2 4 10 806.58 782.02 60.78 o
3 4 10 3434.24 3352.43 61.66 o
4 4 10 954.97 927.91 44.56 o
5 4 10 301.71 311.09 29.48 o
-7 5 10 31.53 25.04 51.08 o
-6 5 10 1683.82 1705.20 165.01 o
-5 5 10 3252.86 3426.79 90.80 o
-4 5 10 11.23 33.63 19.31 o
-3 5 10 2374.38 2595.11 89.68 o
-2 5 10 4562.51 4659.87 128.53 o
-1 5 10 107.01 98.64 38.86 o
0 5 10 1260.85 1229.00 100.83 o
1 5 10 3713.38 3751.85 135.03 o
2 5 10 702.39 688.80 37.25 o
3 5 10 648.22 617.34 31.60 o
4 5 10 1839.21 1722.94 70.26 o
-7 6 10 2156.76 2087.35 100.66 o
-6 6 10 18.76 19.09 25.03 o
-5 6 10 2073.76 1984.97 98.83 o
-4 6 10 3146.34 3269.93 163.90 o
-3 6 10 7.47 16.43 33.31 o
-2 6 10 952.07 1029.13 107.93 o
-1 6 10 4706.82 4767.20 211.42 o
0 6 10 279.28 417.07 76.40 o
1 6 10 903.10 849.57 28.95 o
2 6 10 2583.79 2612.69 78.49 o
3 6 10 445.37 461.50 32.83 o
-6 7 10 1765.89 1701.78 91.39 o
-5 7 10 15.90 13.18 26.16 o
-4 7 10 1247.43 1125.51 114.59 o
-3 7 10 3013.97 2837.31 160.34 o
-2 7 10 192.33 78.62 46.19 o
-1 7 10 978.47 1120.62 120.81 o
0 7 10 2330.91 2311.69 54.47 o
1 7 10 444.72 417.92 28.41 o
2 7 10 344.58 333.43 28.25 o
-5 8 10 2329.20 2356.99 109.92 o
-4 8 10 100.63 97.72 52.86 o
-3 8 10 1285.18 1058.88 118.59 o
-2 8 10 2504.30 2406.48 159.45 o
-1 8 10 188.50 193.25 18.67 o
0 8 10 392.07 383.19 27.45 o
0 -9 11 1695.83 1747.04 56.22 o
1 -9 11 2870.11 2756.70 68.98 o
2 -9 11 16.60 3.35 13.40 o
3 -9 11 1372.43 1479.54 102.50 o
4 -9 11 2761.99 2871.57 77.08 o
-2 -8 11 2165.84 2122.56 66.19 o
-1 -8 11 2571.88 2572.33 64.63 o
0 -8 11 10.31 -2.91 11.35 o
1 -8 11 1546.57 1604.94 42.30 o
2 -8 11 3972.32 4021.24 79.72 o
3 -8 11 76.03 107.05 17.59 o
4 -8 11 975.74 961.81 47.36 o
5 -8 11 4161.51 3969.25 101.78 o
-3 -7 11 1914.59 1879.51 53.33 o
-2 -7 11 72.73 70.57 16.54 o
-1 -7 11 1674.16 1713.70 47.40 o
0 -7 11 2877.67 2928.34 62.91 o
1 -7 11 2.61 4.20 8.91 o
2 -7 11 1158.48 1243.32 38.61 o
3 -7 11 4090.67 4029.89 145.46 o
4 -7 11 266.69 259.26 23.57 o
5 -7 11 1203.37 1072.09 53.71 o
6 -7 11 2772.52 2684.09 145.46 o
-4 -6 11 54.78 45.74 20.39 o
-3 -6 11 1961.15 2024.79 48.88 o
-2 -6 11 3898.78 4038.99 68.44 o
-1 -6 11 42.18 66.94 12.89 o
0 -6 11 1858.13 1896.85 51.81 o
1 -6 11 5475.10 5375.74 85.75 o
2 -6 11 137.23 89.14 16.16 o
3 -6 11 1357.79 1300.94 47.76 o
4 -6 11 4211.45 4302.71 96.42 o
5 -6 11 854.29 758.70 46.73 o
6 -6 11 527.20 488.09 52.26 o
-5 -5 11 1999.50 2064.85 94.18 o
-4 -5 11 2192.49 2296.35 57.58 o
-3 -5 11 245.04 268.15 19.49 o
-2 -5 11 1210.95 1225.83 26.98 o
-1 -5 11 6564.37 6361.41 97.41 o
0 -5 11 5.74 1.99 5.75 o
1 -5 11 2725.56 2699.72 49.30 o
2 -5 11 5416.62 5192.83 76.09 o
3 -5 11 247.59 261.70 25.73 o
4 -5 11 1482.19 1560.41 53.40 o
5 -5 11 3958.11 3962.30 98.06 o
6 -5 11 305.49 320.26 44.75 o
7 -5 11 263.42 226.79 43.97 o
-5 -4 11 153.46 141.45 19.89 o
-4 -4 11 1573.51 1466.57 67.47 o
-3 -4 11 3994.70 4041.07 56.04 o
-2 -4 11 31.56 27.83 8.70 o
-1 -4 11 2363.06 2280.06 89.97 o
0 -4 11 5755.13 5556.27 121.51 o
1 -4 11 170.69 167.86 11.07 o
2 -4 11 2454.08 2514.06 52.63 o
3 -4 11 5227.68 5320.23 93.65 o
4 -4 11 142.01 107.74 17.76 o
5 -4 11 521.26 584.34 41.47 o
6 -4 11 2875.76 2886.29 155.24 o
7 -4 11 453.00 402.49 74.62 o
-6 -3 11 1688.38 1673.25 54.05 o
-5 -3 11 3250.89 3222.74 72.94 o
-4 -3 11 271.01 296.06 20.21 o
-3 -3 11 3142.44 3052.61 43.41 o
-2 -3 11 4598.22 4598.23 113.81 o
-1 -3 11 130.66 147.46 24.82 o
0 -3 11 1223.06 1219.43 42.34 o
1 -3 11 6256.46 6137.21 84.86 o
2 -3 11 96.80 103.05 11.97 o
3 -3 11 684.93 797.30 33.76 o
4 -3 11 4946.63 4825.09 93.05 o
5 -3 11 235.59 251.66 32.31 o
6 -3 11 248.73 296.54 44.57 o
7 -3 11 2365.33 2476.64 238.29 o
-6 -2 11 98.03 114.16 19.28 o
-5 -2 11 2205.81 2245.45 55.54 o
-4 -2 11 3498.45 3433.40 56.24 o
-3 -2 11 64.72 75.10 8.10 o
-2 -2 11 1969.25 1942.98 88.70 o
-1 -2 11 5113.17 5250.24 152.26 o
0 -2 11 4.79 11.96 6.35 o
1 -2 11 640.39 690.98 19.46 o
2 -2 11 5469.93 5441.02 67.98 o
3 -2 11 416.44 433.73 27.74 o
4 -2 11 422.19 380.51 27.94 o
5 -2 11 4171.37 4268.89 91.34 o
6 -2 11 471.76 535.66 46.98 o
-6 -1 11 1743.39 1809.95 53.48 o
-5 -1 11 174.05 173.90 18.79 o
-4 -1 11 2085.58 1961.73 39.81 o
-3 -1 11 5248.13 5064.78 80.39 o
-2 -1 11 14.50 18.02 16.18 o
-1 -1 11 2425.99 2462.36 47.19 o
0 -1 11 7655.41 7760.96 102.27 o
1 -1 11 85.61 89.56 9.72 o
2 -1 11 640.24 700.26 23.03 o
3 -1 11 6165.54 6288.36 108.37 o
4 -1 11 158.27 172.13 21.06 o
5 -1 11 510.21 516.41 43.70 o
6 -1 11 2388.58 2428.03 139.91 o
-7 0 11 384.77 382.50 38.48 o
-6 0 11 1164.15 1103.71 60.33 o
-5 0 11 2902.27 2874.00 83.23 o
-4 0 11 161.18 175.94 13.88 o
-3 0 11 1348.91 1405.69 30.62 o
-2 0 11 5175.07 4866.26 88.03 o
-1 0 11 88.47 99.03 10.80 o
0 0 11 893.51 984.91 39.23 o
1 0 11 6117.87 6074.06 79.25 o
2 0 11 47.52 57.48 13.78 o
3 0 11 436.78 465.07 30.00 o
4 0 11 2720.57 2817.97 69.37 o
5 0 11 786.02 793.40 68.05 o
6 0 11 413.83 445.59 56.21 o
-7 1 11 2253.41 2149.87 83.93 o
-6 1 11 110.10 113.07 18.33 o
-5 1 11 1888.09 1789.32 51.62 o
-4 1 11 3503.93 3399.99 70.92 o
-3 1 11 20.51 17.96 8.86 o
-2 1 11 1165.13 1104.95 58.19 o
-1 1 11 6312.26 6006.27 85.04 o
0 1 11 81.65 100.35 12.29 o
1 1 11 971.51 996.84 37.82 o
2 1 11 5754.22 5968.40 103.67 o
3 1 11 470.24 522.48 33.05 o
4 1 11 612.54 567.23 83.06 o
5 1 11 2856.17 2942.57 114.17 o
6 1 11 687.93 620.94 100.83 o
-7 2 11 1117.55 1138.50 52.14 o
-6 2 11 3047.71 3073.95 82.27 o
-5 2 11 178.31 159.74 17.80 o
-4 2 11 1750.50 1749.71 43.67 o
-3 2 11 5780.24 5719.68 104.03 o
-2 2 11 167.04 139.19 16.29 o
-1 2 11 1326.40 1401.48 131.03 o
0 2 11 5930.67 5991.17 119.03 o
1 2 11 122.94 156.09 18.93 o
2 2 11 849.06 854.99 39.47 o
3 2 11 4953.75 4865.97 140.28 o
4 2 11 375.48 448.04 149.68 o
5 2 11 314.90 215.40 43.05 o
-7 3 11 190.27 147.20 27.06 o
-6 3 11 1117.03 1121.12 50.29 o
-5 3 11 3589.31 3568.06 73.70 o
-4 3 11 42.37 41.20 13.50 o
-3 3 11 1746.71 1647.72 66.55 o
-2 3 11 4881.32 4869.74 120.66 o
-1 3 11 68.47 85.79 20.48 o
0 3 11 1223.27 1217.77 57.14 o
1 3 11 5466.46 5612.62 188.30 o
2 3 11 527.41 584.56 43.13 o
3 3 11 906.56 947.32 70.62 o
4 3 11 3348.16 3531.25 126.78 o
5 3 11 342.92 470.37 88.83 o
-7 4 11 1320.32 1283.55 76.94 o
-6 4 11 93.35 85.24 22.33 o
-5 4 11 1131.04 1097.35 50.30 o
-4 4 11 4026.54 4023.87 113.95 o
-3 4 11 10.70 9.63 12.58 o
-2 4 11 1477.69 1448.71 90.17 o
-1 4 11 6760.47 7083.20 167.97 o
0 4 11 30.31 34.12 20.02 o
1 4 11 1343.79 1290.22 165.67 o
2 4 11 3339.45 3486.52 119.27 o
3 4 11 149.42 218.32 41.58 o
4 4 11 103.03 95.50 54.63 o
-6 5 11 2745.72 2639.63 106.15 o
-5 5 11 53.19 54.87 23.29 o
-4 5 11 853.68 896.82 62.10 o
-3 5 11 5381.01 5428.33 144.29 o
-2 5 11 7.24 34.82 19.85 o
-1 5 11 1027.79 958.51 63.96 o
0 5 11 3490.44 3471.13 174.11 o
1 5 11 284.12 299.32 42.47 o
2 5 11 198.67 143.84 43.53 o
3 5 11 2660.96 2596.13 174.56 o
-6 6 11 1539.59 1393.28 81.02 o
-5 6 11 3152.58 2962.85 127.47 o
-4 6 11 83.76 121.70 47.53 o
-3 6 11 1059.94 1010.92 111.04 o
-2 6 11 3411.66 3270.37 169.67 o
-1 6 11 166.87 233.19 58.19 o
0 6 11 689.73 681.18 104.60 o
1 6 11 3546.86 3645.03 130.32 o
2 6 11 203.12 275.38 72.84 o
-5 7 11 727.42 571.87 83.06 o
-4 7 11 2669.05 2533.51 155.46 o
-3 7 11 33.04 3.11 35.09 o
-2 7 11 384.90 390.42 75.51 o
-1 7 11 2604.65 2389.15 156.79 o
0 7 11 44.04 103.05 55.96 o
1 7 11 265.47 181.22 66.18 o
-3 8 11 2064.16 1889.03 141.69 o
-2 8 11 56.49 104.82 55.08 o
2 -9 12 1186.38 1228.20 61.10 o
-1 -8 12 1.33 -2.00 12.81 o
0 -8 12 1810.28 1772.63 51.09 o
1 -8 12 3039.13 3027.41 66.35 o
2 -8 12 25.45 30.11 13.49 o
3 -8 12 1502.94 1531.02 109.24 o
4 -8 12 2906.48 2873.11 84.97 o
-2 -7 12 2018.77 2044.40 55.13 o
-1 -7 12 2121.76 2331.25 56.47 o
0 -7 12 3.47 4.68 11.65 o
1 -7 12 1667.18 1571.47 41.19 o
2 -7 12 3469.32 3472.26 69.50 o
3 -7 12 109.56 102.98 16.65 o
4 -7 12 795.57 824.37 61.99 o
5 -7 12 4468.86 4432.95 108.18 o
-3 -6 12 2417.63 2308.02 51.66 o
-2 -6 12 11.36 15.89 11.10 o
-1 -6 12 3026.74 2873.87 98.47 o
0 -6 12 2486.02 2340.00 43.09 o
1 -6 12 57.87 80.01 11.69 o
2 -6 12 1206.37 1185.89 36.17 o
3 -6 12 4767.66 4698.87 102.58 o
4 -6 12 51.26 38.88 17.38 o
5 -6 12 464.35 492.71 40.17 o
6 -6 12 3175.62 3369.27 141.47 o
-4 -5 12 104.79 90.73 16.48 o
-3 -5 12 2262.29 2200.10 63.49 o
-2 -5 12 2310.07 2231.41 41.42 o
-1 -5 12 1.27 1.49 9.96 o
0 -5 12 2141.05 1996.79 41.16 o
1 -5 12 4100.23 4058.65 67.27 o
2 -5 12 14.25 10.83 10.02 o
3 -5 12 472.55 405.18 31.80 o
4 -5 12 4115.12 4104.23 86.19 o
5 -5 12 185.15 201.60 27.57 o
6 -5 12 253.14 316.93 45.11 o
-5 -4 12 1815.29 1849.13 51.40 o
-4 -4 12 1921.12 1835.21 44.50 o
-3 -4 12 1.46 -3.44 6.86 o
-2 -4 12 1670.95 1606.27 67.52 o
-1 -4 12 5978.31 5957.13 135.76 o
0 -4 12 32.92 38.30 26.82 o
1 -4 12 2201.25 2178.02 37.90 o
2 -4 12 5125.47 4951.52 85.69 o
3 -4 12 25.73 43.41 15.33 o
4 -4 12 585.11 605.68 36.52 o
5 -4 12 2930.72 3067.52 88.54 o
6 -4 12 325.06 345.35 46.79 o
-5 -3 12 62.34 78.38 16.45 o
-4 -3 12 2523.36 2517.48 50.85 o
-3 -3 12 3245.07 3114.21 49.09 o
-2 -3 12 116.29 117.71 26.55 o
-1 -3 12 2511.17 2535.67 135.25 o
0 -3 12 4119.61 4001.39 86.58 o
1 -3 12 20.29 34.18 7.52 o
2 -3 12 1515.42 1354.70 41.97 o
3 -3 12 3400.39 3329.09 80.65 o
4 -3 12 67.33 72.02 17.00 o
5 -3 12 439.70 457.23 70.32 o
6 -3 12 2290.83 2208.94 81.50 o
-6 -2 12 1495.72 1527.88 59.62 o
-5 -2 12 2214.59 2160.48 47.15 o
-4 -2 12 189.10 205.65 15.16 o
-3 -2 12 1972.66 1959.27 32.69 o
-2 -2 12 2644.51 2455.03 104.10 o
-1 -2 12 43.49 66.09 27.37 o
0 -2 12 376.66 406.39 26.61 o
1 -2 12 4834.05 4702.24 64.32 o
2 -2 12 371.00 430.29 29.85 o
3 -2 12 906.13 898.54 36.86 o
4 -2 12 3778.62 3910.98 84.45 o
5 -2 12 226.39 254.05 28.10 o
6 -2 12 256.48 236.86 35.56 o
-6 -1 12 65.16 114.93 19.10 o
-5 -1 12 1977.41 1946.66 50.15 o
-4 -1 12 2529.33 2521.41 45.57 o
-3 -1 12 6.41 5.86 7.29 o
-2 -1 12 1988.72 1977.81 105.22 o
-1 -1 12 5409.52 5443.43 76.06 o
0 -1 12 8.78 11.23 8.47 o
1 -1 12 1627.39 1569.68 32.93 o
2 -1 12 4096.67 4226.65 91.10 o
3 -1 12 381.61 395.42 28.35 o
4 -1 12 803.49 794.34 42.10 o
5 -1 12 3443.23 3609.27 101.30 o
6 -1 12 210.06 167.79 110.37 o
-6 0 12 839.89 867.28 39.40 o
-5 0 12 11.48 8.68 16.28 o
-4 0 12 1550.89 1537.88 44.94 o
-3 0 12 3831.04 3620.91 55.92 o
-2 0 12 13.33 8.49 7.49 o
-1 0 12 1900.77 1848.49 40.63 o
0 0 12 4645.39 4801.64 80.76 o
1 0 12 19.80 3.51 9.98 o
2 0 12 707.94 697.65 33.66 o
3 0 12 4819.62 4911.58 94.87 o
4 0 12 253.24 220.36 26.07 o
5 0 12 254.06 276.67 44.30 o
-6 1 12 1745.94 1789.02 53.82 o
-5 1 12 1926.16 1816.44 53.22 o
-4 1 12 26.01 28.67 11.67 o
-3 1 12 1382.95 1457.41 40.08 o
-2 1 12 4932.61 5094.28 95.52 o
-1 1 12 107.86 114.52 20.49 o
0 1 12 1876.23 1921.29 56.37 o
1 1 12 6812.78 6990.89 114.89 o
2 1 12 20.73 22.01 12.65 o
3 1 12 842.42 913.77 43.47 o
4 1 12 3269.21 3425.06 118.68 o
5 1 12 290.66 319.55 48.75 o
-6 2 12 20.40 22.67 21.45 o
-5 2 12 2320.52 2327.39 70.67 o
-4 2 12 2404.50 2430.34 65.40 o
-3 2 12 38.16 20.60 13.49 o
-2 2 12 1474.99 1571.45 78.17 o
-1 2 12 4248.01 4033.25 134.14 o
0 2 12 31.01 47.51 16.23 o
1 2 12 782.21 765.74 37.85 o
2 2 12 4168.17 4137.77 85.59 o
3 2 12 238.03 265.85 39.20 o
4 2 12 199.56 163.73 37.28 o
5 2 12 2521.92 2392.26 162.12 o
-6 3 12 2610.45 2459.57 75.19 o
-5 3 12 119.34 124.23 23.55 o
-4 3 12 1720.04 1735.77 54.40 o
-3 3 12 3947.88 3855.32 85.53 o
-2 3 12 1.67 -5.90 19.77 o
-1 3 12 803.76 882.12 51.78 o
0 3 12 5123.09 4904.29 130.47 o
1 3 12 450.81 483.86 37.66 o
2 3 12 514.28 487.89 50.11 o
3 3 12 4874.74 4712.55 166.56 o
4 3 12 235.60 225.29 41.22 o
-6 4 12 957.09 999.65 77.51 o
-5 4 12 2807.02 2770.14 101.47 o
-4 4 12 1.24 14.10 19.79 o
-3 4 12 2387.39 2320.09 83.47 o
-2 4 12 3538.09 3563.44 107.41 o
-1 4 12 13.74 24.94 19.19 o
0 4 12 1395.34 1370.56 67.92 o
1 4 12 3185.11 3059.17 108.64 o
2 4 12 66.63 52.84 44.42 o
3 4 12 405.93 371.04 50.86 o
-6 5 12 88.09 92.80 32.64 o
-5 5 12 1025.88 1058.94 56.55 o
-4 5 12 2514.39 2517.53 94.32 o
-3 5 12 22.37 28.42 22.93 o
-2 5 12 1188.74 1095.08 61.42 o
-1 5 12 2847.39 2553.49 145.24 o
0 5 12 23.62 -33.76 33.76 o
1 5 12 270.93 283.52 55.96 o
2 5 12 1834.15 1706.03 89.66 o
-5 6 12 59.37 37.30 29.02 o
-4 6 12 937.46 1057.11 112.37 o
-3 6 12 2345.16 2294.99 141.24 o
-2 6 12 58.26 59.07 43.97 o
-1 6 12 782.01 775.51 99.94 o
0 6 12 2170.84 2076.70 96.18 o
1 6 12 145.98 80.42 32.72 o
-3 7 12 689.63 781.28 103.05 o
-2 7 12 1495.15 1544.80 127.03 o
-1 7 12 71.00 47.08 45.30 o
1 -8 13 28.01 30.51 13.66 o
2 -8 13 1265.90 1248.85 42.61 o
3 -8 13 2636.40 2664.33 65.97 o
-1 -7 13 1.59 15.82 12.24 o
0 -7 13 1061.25 956.07 37.44 o
1 -7 13 3453.00 3352.15 65.41 o
2 -7 13 13.42 15.77 19.04 o
3 -7 13 1055.32 1137.49 53.78 o
4 -7 13 2295.61 2149.32 72.13 o
-2 -6 13 2010.48 1953.87 61.93 o
-1 -6 13 3321.73 3291.81 63.42 o
0 -6 13 81.65 91.08 14.24 o
1 -6 13 1560.42 1524.95 73.15 o
2 -6 13 3207.61 3151.30 72.64 o
3 -6 13 89.64 87.54 19.89 o
4 -6 13 1177.78 1199.50 54.92 o
5 -6 13 2224.77 2249.62 91.41 o
-3 -5 13 1719.41 1679.32 39.03 o
-2 -5 13 150.98 169.84 39.46 o
-1 -5 13 1725.71 1768.86 156.79 o
0 -5 13 1905.15 1880.11 43.14 o
1 -5 13 52.22 35.53 10.32 o
2 -5 13 1009.91 914.72 38.89 o
3 -5 13 2844.33 2782.83 75.99 o
4 -5 13 212.99 216.58 28.32 o
5 -5 13 791.10 784.08 45.90 o
-4 -4 13 48.13 52.56 12.61 o
-3 -4 13 1102.81 1099.93 24.71 o
-2 -4 13 2711.98 2742.60 91.18 o
-1 -4 13 83.56 68.24 49.97 o
0 -4 13 1720.70 1812.10 232.96 o
1 -4 13 3934.26 3733.07 65.07 o
2 -4 13 20.92 36.44 13.52 o
3 -4 13 915.43 863.61 49.80 o
4 -4 13 2655.36 2661.82 103.00 o
5 -4 13 145.91 127.96 22.34 o
-4 -3 13 1884.30 1874.71 52.66 o
-3 -3 13 74.17 87.51 16.46 o
-2 -3 13 1914.64 1883.32 171.67 o
-1 -3 13 3405.41 3380.15 162.12 o
0 -3 13 14.90 21.59 25.07 o
1 -3 13 1672.74 1696.21 33.05 o
2 -3 13 2602.60 2641.26 68.18 o
3 -3 13 123.85 88.56 20.52 o
4 -3 13 397.56 346.13 37.28 o
5 -3 13 3101.95 3146.31 80.76 o
-5 -2 13 119.32 138.50 27.76 o
-4 -2 13 1623.74 1561.43 39.32 o
-3 -2 13 2291.25 2289.16 53.48 o
-2 -2 13 48.43 36.13 27.89 o
-1 -2 13 1082.74 1009.41 78.35 o
0 -2 13 3203.29 3420.13 56.80 o
1 -2 13 259.39 286.00 16.42 o
2 -2 13 1163.83 1307.55 64.40 o
3 -2 13 4642.03 4592.74 104.88 o
4 -2 13 62.64 56.26 17.63 o
5 -2 13 475.76 442.62 42.19 o
-5 -1 13 2181.11 2041.10 51.63 o
-4 -1 13 319.84 338.79 31.96 o
-3 -1 13 1549.40 1466.92 33.59 o
-2 -1 13 3052.00 3009.39 65.80 o
-1 -1 13 33.35 30.70 8.18 o
0 -1 13 1258.42 1423.66 34.31 o
1 -1 13 4359.25 4551.17 83.80 o
2 -1 13 32.37 11.10 13.14 o
3 -1 13 810.90 958.52 43.43 o
4 -1 13 3162.47 3124.14 76.85 o
5 -1 13 258.49 365.56 48.05 o
-5 0 13 1199.69 1205.89 67.38 o
-4 0 13 2429.17 2456.33 61.87 o
-3 0 13 19.08 14.21 7.89 o
-2 0 13 1489.64 1604.81 60.78 o
-1 0 13 3722.72 3700.53 66.61 o
0 0 13 27.71 28.55 17.20 o
1 0 13 915.46 1063.44 38.20 o
2 0 13 3620.13 3707.38 89.95 o
3 0 13 535.10 631.60 37.66 o
4 0 13 617.63 646.92 46.25 o
5 0 13 2605.44 2850.79 114.17 o
-6 1 13 1399.98 1396.45 54.69 o
-5 1 13 68.00 95.37 16.81 o
-4 1 13 1455.97 1429.07 44.60 o
-3 1 13 4604.39 4674.94 176.78 o
-2 1 13 5.81 16.88 17.77 o
-1 1 13 2328.65 2291.91 77.94 o
0 1 13 5044.26 5016.48 132.22 o
1 1 13 8.06 -2.83 11.32 o
2 1 13 1005.79 998.62 42.92 o
3 1 13 3441.29 3586.61 93.20 o
4 1 13 219.13 258.09 43.44 o
-5 2 13 1912.29 1798.53 56.59 o
-4 2 13 86.32 84.09 17.24 o
-3 2 13 1883.32 1903.25 64.06 o
-2 2 13 3169.62 3130.46 121.26 o
-1 2 13 9.72 21.76 22.21 o
0 2 13 1113.30 1164.37 56.16 o
1 2 13 3526.38 3537.45 101.20 o
2 2 13 47.01 29.20 22.75 o
3 2 13 472.14 491.96 83.06 o
4 2 13 1743.74 1748.64 178.33 o
-5 3 13 2527.40 2666.68 91.89 o
-4 3 13 1749.53 1792.31 57.18 o
-3 3 13 0.16 5.05 15.15 o
-2 3 13 883.71 921.34 65.29 o
-1 3 13 4035.67 3849.72 111.28 o
0 3 13 45.07 46.37 29.09 o
1 3 13 523.82 494.29 38.71 o
2 3 13 3145.12 3160.37 113.17 o
3 3 13 165.37 189.92 38.51 o
-5 4 13 3.02 11.86 18.33 o
-4 4 13 1467.85 1408.35 67.98 o
-3 4 13 3001.96 3002.38 99.40 o
-2 4 13 53.14 16.00 46.64 o
-1 4 13 561.48 550.15 50.59 o
0 4 13 3258.98 3354.77 110.67 o
1 4 13 30.71 66.96 27.62 o
2 4 13 327.67 285.73 46.73 o
-4 5 13 5.74 76.17 26.61 o
-3 5 13 1181.80 1148.26 66.15 o
-2 5 13 2552.06 2823.28 102.05 o
-1 5 13 4.77 -4.00 35.53 o
0 5 13 468.51 415.85 50.59 o
1 5 13 1985.46 1957.92 103.49 o
-3 6 13 9.39 -32.42 32.42 o
-2 6 13 546.90 514.79 87.06 o
-1 6 13 2000.55 2103.56 144.35 o
1 -7 14 17.60 6.99 14.17 o
2 -7 14 1107.05 1056.97 37.49 o
-1 -6 14 38.18 48.93 22.43 o
0 -6 14 1390.23 1362.98 66.55 o
1 -6 14 2276.78 2177.85 49.94 o
2 -6 14 2.59 11.14 13.25 o
3 -6 14 568.41 590.40 54.78 o
-2 -5 14 1317.86 1325.66 83.55 o
-1 -5 14 1907.75 2169.29 161.23 o
0 -5 14 43.75 27.98 47.53 o
1 -5 14 733.83 711.58 30.70 o
2 -5 14 2487.51 2697.65 70.11 o
3 -5 14 88.53 100.46 31.43 o
4 -5 14 633.92 669.25 47.88 o
-3 -4 14 1641.44 1880.30 107.24 o
-2 -4 14 4.49 9.57 29.36 o
-1 -4 14 1651.35 1558.48 91.09 o
0 -4 14 2619.70 2780.13 117.77 o
1 -4 14 13.91 19.70 7.86 o
2 -4 14 1316.10 1298.77 47.68 o
3 -4 14 2655.56 2724.26 76.92 o
4 -4 14 55.06 57.26 21.33 o
-4 -3 14 119.17 136.38 15.96 o
-3 -3 14 1455.55 1452.12 52.03 o
-2 -3 14 1784.37 1808.99 100.72 o
-1 -3 14 0.20 -26.36 26.36 o
0 -3 14 1547.75 1553.58 49.03 o
1 -3 14 2846.88 2879.49 62.57 o
2 -3 14 5.68 11.19 14.99 o
3 -3 14 682.24 753.17 56.71 o
4 -3 14 2013.78 2106.88 88.62 o
-4 -2 14 1601.64 1626.93 67.58 o
-3 -2 14 2.42 -1.73 9.75 o
-2 -2 14 1987.70 1984.99 172.78 o
-1 -2 14 2541.52 2568.73 64.31 o
0 -2 14 26.98 29.42 8.12 o
1 -2 14 1351.18 1414.75 52.31 o
2 -2 14 2975.21 2891.63 75.90 o
3 -2 14 331.19 342.91 33.32 o
4 -2 14 869.89 903.21 48.02 o
-4 -1 14 2189.99 2264.13 49.81 o
-3 -1 14 1927.15 1856.14 35.31 o
-2 -1 14 19.46 15.24 8.96 o
-1 -1 14 2148.68 2195.56 42.78 o
0 -1 14 2811.49 2772.06 52.52 o
1 -1 14 89.89 119.06 19.21 o
2 -1 14 1479.76 1503.37 54.82 o
3 -1 14 3308.94 3713.65 133.17 o
4 -1 14 88.73 107.54 21.57 o
-5 0 14 1552.35 1531.63 52.25 o
-4 0 14 43.56 41.95 11.85 o
-3 0 14 1518.11 1481.49 41.11 o
-2 0 14 2578.13 2553.87 63.06 o
-1 0 14 11.46 5.83 10.86 o
0 0 14 1488.84 1472.27 96.66 o
1 0 14 3114.72 3265.08 81.02 o
2 0 14 88.88 113.08 21.65 o
3 0 14 738.14 841.55 44.80 o
4 0 14 2070.07 2056.34 118.15 o
-5 1 14 1437.66 1345.09 45.15 o
-4 1 14 2078.07 2047.13 51.65 o
-3 1 14 0.91 0.67 12.56 o
-2 1 14 1695.17 1741.12 82.61 o
-1 1 14 3473.85 3407.62 125.70 o
0 1 14 53.02 72.26 23.91 o
1 1 14 1465.67 1486.54 64.72 o
2 1 14 2272.85 2303.84 62.58 o
3 1 14 300.22 348.71 36.31 o
-5 2 14 113.15 115.28 20.77 o
-4 2 14 915.24 907.37 40.92 o
-3 2 14 3381.97 3551.15 177.44 o
-2 2 14 33.80 59.07 25.76 o
-1 2 14 1303.01 1403.11 82.61 o
0 2 14 2463.52 2477.99 115.04 o
1 2 14 90.98 108.62 21.59 o
2 2 14 832.87 838.73 52.03 o
3 2 14 1593.12 1637.58 83.69 o
-4 3 14 292.27 329.26 30.04 o
-3 3 14 1042.55 872.63 51.59 o
-2 3 14 1960.65 1948.10 99.94 o
-1 3 14 34.25 32.87 26.65 o
0 3 14 977.54 1055.18 81.52 o
1 3 14 1671.18 1685.49 64.43 o
2 3 14 233.62 263.25 40.47 o
-4 4 14 1316.42 1398.67 95.50 o
-3 4 14 10.01 14.21 26.21 o
-2 4 14 592.79 567.03 52.43 o
-1 4 14 1703.38 1688.77 77.22 o
0 4 14 75.85 78.33 30.08 o
1 4 14 596.44 623.34 59.70 o
-2 5 14 0.82 -32.42 32.42 o
-1 5 14 580.95 510.34 81.73 o
-1 -5 15 139.70 80.39 55.52 o
0 -5 15 645.53 674.24 109.26 o
1 -5 15 2066.77 2045.51 53.95 o
2 -5 15 1.39 -9.28 14.33 o
-2 -4 15 898.78 927.87 88.71 o
-1 -4 15 3125.96 2945.19 294.26 o
0 -4 15 80.35 121.70 65.29 o
1 -4 15 741.95 733.38 26.98 o
2 -4 15 3097.16 2924.83 75.74 o
3 -4 15 53.60 77.54 21.13 o
-2 -3 15 86.59 62.55 37.00 o
-1 -3 15 1081.20 1174.91 133.69 o
0 -3 15 3434.35 3501.90 63.81 o
1 -3 15 82.64 88.70 13.84 o
2 -3 15 1139.14 1165.95 72.97 o
3 -3 15 2187.86 2234.96 124.15 o
-3 -2 15 1030.91 1009.74 35.74 o
-2 -2 15 2370.51 2322.06 112.93 o
-1 -2 15 52.51 61.27 18.00 o
0 -2 15 632.15 640.02 21.49 o
1 -2 15 3656.79 3590.96 83.10 o
2 -2 15 9.40 31.84 17.36 o
3 -2 15 522.95 625.49 66.82 o
-3 -1 15 131.44 122.51 11.55 o
-2 -1 15 1202.56 1146.88 24.51 o
-1 -1 15 2743.29 2821.89 61.43 o
0 -1 15 0.47 -7.20 11.42 o
1 -1 15 950.54 1004.54 44.76 o
2 -1 15 3123.71 3193.32 85.12 o
3 -1 15 67.67 45.85 29.44 o
-3 0 15 2265.79 2286.23 51.04 o
-2 0 15 64.28 54.25 14.28 o
-1 0 15 1391.33 1433.37 55.20 o
0 0 15 2057.98 2195.77 57.27 o
1 0 15 24.78 -15.12 18.94 o
2 0 15 452.42 383.33 35.54 o
3 0 15 2553.82 2703.20 82.98 o
-3 1 15 1401.59 1356.16 49.04 o
-2 1 15 1748.52 1760.22 85.28 o
-1 1 15 20.10 40.42 25.32 o
0 1 15 1240.07 1268.98 50.91 o
1 1 15 2343.20 2506.31 74.78 o
2 1 15 5.52 -9.08 16.77 o
-3 2 15 59.65 62.78 20.26 o
-2 2 15 1504.03 1392.01 82.17 o
-1 2 15 1677.12 1469.74 87.94 o
0 2 15 3.04 -2.82 28.65 o
1 2 15 493.18 529.12 48.21 o
-2 3 15 5.92 -21.76 21.76 o
-1 3 15 545.28 514.79 64.40 o
0 3 15 1688.43 1777.85 76.46 o
0 -3 16 101.10 91.37 41.53 o
1 -3 16 1125.46 1131.29 43.78 o
-1 -2 16 1021.55 983.12 33.07 o
0 -2 16 2506.68 2547.60 75.55 o
1 -2 16 1.51 -4.01 14.39 o
-1 -1 16 85.61 87.46 16.14 o
0 -1 16 644.85 619.16 36.81 o
1 -1 16 2741.75 2901.02 88.30 o
-1 0 16 2157.01 2079.73 77.58 o
0 0 16 50.53 49.29 18.20 o
