#------------------------------------------------------------------------------
#$Date: 2019-11-23 13:02:17 +0200 (Sat, 23 Nov 2019) $
#$Revision: 233402 $
#$URL: file:///home/coder/svn-repositories/cod/cif/4/34/88/4348820.cif $
#------------------------------------------------------------------------------
#
# This file is available in the Crystallography Open Database (COD),
# http://www.crystallography.net/
#
# All data on this site have been placed in the public domain by the
# contributors.
#
data_4348820
loop_
_publ_author_name
'Falaise, Cl\'ement'
'Delille, Jason'
'Volkringer, Christophe'
'Vezin, Herv\'e'
'Rabu, Pierre'
'Loiseau, Thierry'
_publ_section_title
;
 Series of Hydrated Heterometallic Uranyl-Cobalt(II) Coordination Polymers
 with Aromatic Polycarboxylate Ligands: Formation of U&#x2550;O-Co Bonding
 upon Dehydration Process.
;
_journal_issue                   20
_journal_name_full               'Inorganic chemistry'
_journal_page_first              10453
_journal_page_last               10466
_journal_paper_doi               10.1021/acs.inorgchem.6b01697
_journal_volume                  55
_journal_year                    2016
_chemical_formula_sum            'C6 Co O14 U'
_chemical_formula_weight         593.02
_space_group_IT_number           2
_space_group_name_Hall           '-P 1'
_space_group_name_H-M_alt        'P -1'
_symmetry_cell_setting           triclinic
_symmetry_space_group_name_H-M   'P -1'
_atom_sites_solution_hydrogens   none
_atom_sites_solution_primary     direct
_atom_sites_solution_secondary   difmap
_audit_creation_method           SHELXL-97
_cell_angle_alpha                96.5640(10)
_cell_angle_beta                 102.9380(10)
_cell_angle_gamma                94.1990(10)
_cell_formula_units_Z            2
_cell_length_a                   8.2965(2)
_cell_length_b                   8.5833(2)
_cell_length_c                   9.8760(2)
_cell_measurement_reflns_used    6799
_cell_measurement_temperature    293(2)
_cell_measurement_theta_max      28.24
_cell_measurement_theta_min      2.401
_cell_volume                     677.38(3)
_computing_structure_refinement  'SHELXL-97 (Sheldrick, 2008)'
_diffrn_ambient_temperature      293(2)
_diffrn_measured_fraction_theta_full 0.994
_diffrn_measured_fraction_theta_max 0.994
_diffrn_measurement_device_type  'Bruker APEX-II CCD'
_diffrn_measurement_method       '\f and \w scans'
_diffrn_radiation_monochromator  graphite
_diffrn_radiation_source         'fine-focus sealed tube'
_diffrn_radiation_type           MoK\a
_diffrn_radiation_wavelength     0.71073
_diffrn_reflns_av_R_equivalents  0.0274
_diffrn_reflns_av_sigmaI/netI    0.0335
_diffrn_reflns_limit_h_max       11
_diffrn_reflns_limit_h_min       -10
_diffrn_reflns_limit_k_max       11
_diffrn_reflns_limit_k_min       -11
_diffrn_reflns_limit_l_max       13
_diffrn_reflns_limit_l_min       -13
_diffrn_reflns_number            12285
_diffrn_reflns_theta_full        28.31
_diffrn_reflns_theta_max         28.31
_diffrn_reflns_theta_min         2.14
_exptl_absorpt_coefficient_mu    13.237
_exptl_absorpt_correction_T_max  0.7457
_exptl_absorpt_correction_T_min  0.6744
_exptl_absorpt_correction_type   empirical
_exptl_absorpt_process_details   sadabs
_exptl_crystal_colour            yellow
_exptl_crystal_density_diffrn    2.907
_exptl_crystal_density_method    'not measured'
_exptl_crystal_description       block
_exptl_crystal_F_000             534
_exptl_crystal_size_max          0.092
_exptl_crystal_size_mid          0.048
_exptl_crystal_size_min          0.047
_refine_diff_density_max         2.933
_refine_diff_density_min         -2.522
_refine_diff_density_rms         0.190
_refine_ls_extinction_method     none
_refine_ls_goodness_of_fit_ref   0.999
_refine_ls_hydrogen_treatment    none
_refine_ls_matrix_type           full
_refine_ls_number_parameters     197
_refine_ls_number_reflns         3356
_refine_ls_number_restraints     0
_refine_ls_restrained_S_all      0.999
_refine_ls_R_factor_all          0.0371
_refine_ls_R_factor_gt           0.0305
_refine_ls_shift/su_max          0.000
_refine_ls_shift/su_mean         0.000
_refine_ls_structure_factor_coef Fsqd
_refine_ls_weighting_details
'calc w=1/[\s^2^(Fo^2^)+(0.0226P)^2^+5.4398P] where P=(Fo^2^+2Fc^2^)/3'
_refine_ls_weighting_scheme      calc
_refine_ls_wR_factor_gt          0.0624
_refine_ls_wR_factor_ref         0.0661
_reflns_d_resolution_high        0.7493
_reflns_number_gt                3009
_reflns_number_total             3356
_reflns_threshold_expression     >2\s(I)
_cod_data_source_file            ic6b01697_si_008.cif
_cod_data_source_block           essai
_cod_original_sg_symbol_H-M      P-1
_cod_original_formula_sum        'C6 Co O14 U '
_cod_database_code               4348820
_shelx_title                     ' pmoin1 in P-1'
_shelx_refln_list_code           4
_shelx_f_calc_maximum            211.35
loop_
_symmetry_equiv_pos_as_xyz
'x, y, z'
'-x, -y, -z'
loop_
_atom_site_label
_atom_site_type_symbol
_atom_site_fract_x
_atom_site_fract_y
_atom_site_fract_z
_atom_site_U_iso_or_equiv
_atom_site_adp_type
_atom_site_occupancy
_atom_site_symmetry_multiplicity
_atom_site_calc_flag
_atom_site_refinement_flags
Co1 Co 0.0000 0.5000 0.5000 0.0230(2) Uani 1 2 d S
Co2 Co 0.0000 1.0000 0.0000 0.0271(3) Uani 1 2 d S
OU1 O 0.2277(7) 0.4378(6) 0.0790(5) 0.0539(15) Uani 1 1 d .
OU2 O 0.6090(6) 0.6532(6) 0.2543(7) 0.0526(15) Uani 1 1 d .
O4 O 0.1772(5) 0.6954(5) 0.5177(4) 0.0276(9) Uani 1 1 d .
O3 O 0.3132(6) 0.5912(5) 0.3681(4) 0.0321(10) Uani 1 1 d .
C3 C 0.3994(6) 0.8560(6) 0.4745(5) 0.0118(9) Uani 1 1 d .
C4 C 0.2887(6) 0.7028(6) 0.4514(5) 0.0159(10) Uani 1 1 d .
O2 O 0.2828(5) 0.7782(5) 0.1536(4) 0.0286(10) Uani 1 1 d .
O1 O 0.1733(6) 1.0016(5) 0.1917(4) 0.0378(12) Uani 1 1 d .
C2 C 0.3959(6) 0.9503(6) 0.3680(5) 0.0136(10) Uani 1 1 d .
C1 C 0.2757(7) 0.9065(6) 0.2266(5) 0.0175(10) Uani 1 1 d .
O5 O 0.4721(6) 0.3322(5) 0.2996(4) 0.0297(10) Uani 1 1 d .
C5 C 0.5027(6) 0.9077(6) 0.6075(5) 0.0135(10) Uani 1 1 d .
O6 O 0.5144(8) 0.1242(6) 0.1625(5) 0.0519(15) Uani 1 1 d .
C6 C 0.4958(7) 0.1898(6) 0.2739(5) 0.0197(11) Uani 1 1 d .
OW2 O 0.1609(6) 0.3307(5) 0.4566(5) 0.0396(11) Uani 1 1 d .
OW1 O 0.0797(6) 0.4966(7) 0.7165(5) 0.0439(12) Uani 1 1 d .
OW3 O 0.0359(7) 0.7702(6) -0.0781(5) 0.0549(16) Uani 1 1 d .
OW4 O 0.1965(9) 1.0832(8) -0.0807(6) 0.0713(19) Uani 1 1 d .
O7 O 0.4314(10) 0.6210(7) -0.0475(6) 0.081(3) Uani 1 1 d .
OW5 O 0.1000(13) 0.9945(12) -0.3654(11) 0.122(3) Uiso 1 1 d .
U1 U 0.42066(3) 0.54345(2) 0.16583(2) 0.02369(8) Uani 1 1 d .
loop_
_atom_site_aniso_label
_atom_site_aniso_U_11
_atom_site_aniso_U_22
_atom_site_aniso_U_33
_atom_site_aniso_U_23
_atom_site_aniso_U_13
_atom_site_aniso_U_12
Co1 0.0203(6) 0.0184(5) 0.0300(5) 0.0033(4) 0.0071(4) -0.0037(4)
Co2 0.0277(6) 0.0196(6) 0.0242(5) -0.0019(4) -0.0138(4) 0.0080(5)
OU1 0.071(4) 0.033(3) 0.039(3) -0.007(2) -0.018(3) -0.005(3)
OU2 0.026(3) 0.049(3) 0.094(4) 0.040(3) 0.020(3) 0.006(2)
O4 0.026(2) 0.022(2) 0.038(2) -0.0019(17) 0.0190(18) -0.0048(18)
O3 0.047(3) 0.019(2) 0.034(2) -0.0059(17) 0.026(2) -0.006(2)
C3 0.013(2) 0.009(2) 0.013(2) 0.0018(17) 0.0043(17) 0.0003(19)
C4 0.019(3) 0.011(2) 0.018(2) 0.0032(18) 0.0051(19) -0.002(2)
O2 0.035(2) 0.021(2) 0.0205(19) -0.0049(15) -0.0108(16) 0.0130(18)
O1 0.045(3) 0.028(2) 0.027(2) -0.0045(17) -0.0194(19) 0.020(2)
C2 0.015(2) 0.013(2) 0.013(2) 0.0032(17) 0.0021(18) 0.0041(19)
C1 0.020(3) 0.017(3) 0.014(2) 0.0023(19) -0.0012(19) 0.002(2)
O5 0.053(3) 0.018(2) 0.0239(19) 0.0117(16) 0.0138(19) 0.0094(19)
C5 0.015(2) 0.012(2) 0.014(2) 0.0055(18) 0.0035(18) 0.0030(19)
O6 0.115(5) 0.027(3) 0.025(2) 0.0105(19) 0.033(3) 0.017(3)
C6 0.028(3) 0.015(3) 0.018(2) 0.0053(19) 0.005(2) 0.003(2)
OW2 0.042(3) 0.027(2) 0.057(3) 0.009(2) 0.024(2) 0.006(2)
OW1 0.030(3) 0.065(4) 0.033(2) 0.007(2) 0.0032(19) 0.001(2)
OW3 0.053(3) 0.049(3) 0.046(3) -0.011(2) -0.021(2) 0.023(3)
OW4 0.077(5) 0.075(5) 0.054(4) -0.006(3) 0.016(3) -0.019(4)
O7 0.175(7) 0.053(4) 0.065(4) 0.049(3) 0.091(5) 0.078(4)
U1 0.04085(14) 0.01849(12) 0.01942(10) 0.01023(7) 0.01605(9) 0.01323(9)
loop_
_atom_type_symbol
_atom_type_description
_atom_type_scat_dispersion_real
_atom_type_scat_dispersion_imag
_atom_type_scat_source
C C 0.0033 0.0016 'International Tables Vol C Tables 4.2.6.8 and 6.1.1.4'
H H 0.0000 0.0000 'International Tables Vol C Tables 4.2.6.8 and 6.1.1.4'
O O 0.0106 0.0060 'International Tables Vol C Tables 4.2.6.8 and 6.1.1.4'
Co Co 0.3494 0.9721 'International Tables Vol C Tables 4.2.6.8 and 6.1.1.4'
U U -9.6767 9.6646 'International Tables Vol C Tables 4.2.6.8 and 6.1.1.4'
loop_
_geom_angle_atom_site_label_1
_geom_angle_atom_site_label_2
_geom_angle_atom_site_label_3
_geom_angle
_geom_angle_site_symmetry_1
_geom_angle_site_symmetry_3
OW1 Co1 OW1 180.000(1) 2_566 .
OW1 Co1 O4 91.01(18) 2_566 .
OW1 Co1 O4 88.99(18) . .
OW1 Co1 O4 88.99(18) 2_566 2_566
OW1 Co1 O4 91.01(18) . 2_566
O4 Co1 O4 180.0 . 2_566
OW1 Co1 OW2 88.2(2) 2_566 .
OW1 Co1 OW2 91.8(2) . .
O4 Co1 OW2 94.57(17) . .
O4 Co1 OW2 85.43(17) 2_566 .
OW1 Co1 OW2 91.8(2) 2_566 2_566
OW1 Co1 OW2 88.2(2) . 2_566
O4 Co1 OW2 85.43(17) . 2_566
O4 Co1 OW2 94.57(17) 2_566 2_566
OW2 Co1 OW2 180.0(3) . 2_566
OW4 Co2 OW4 180.000(1) 2_575 .
OW4 Co2 OW3 88.3(3) 2_575 2_575
OW4 Co2 OW3 91.7(3) . 2_575
OW4 Co2 OW3 91.7(3) 2_575 .
OW4 Co2 OW3 88.3(3) . .
OW3 Co2 OW3 180.0 2_575 .
OW4 Co2 O1 87.6(2) 2_575 2_575
OW4 Co2 O1 92.4(2) . 2_575
OW3 Co2 O1 93.90(17) 2_575 2_575
OW3 Co2 O1 86.10(17) . 2_575
OW4 Co2 O1 92.4(2) 2_575 .
OW4 Co2 O1 87.6(2) . .
OW3 Co2 O1 86.10(17) 2_575 .
OW3 Co2 O1 93.90(17) . .
O1 Co2 O1 180.000(1) 2_575 .
C4 O4 Co1 125.6(4) . .
C4 O3 U1 140.5(4) . .
C2 C3 C5 119.2(4) . .
C2 C3 C4 121.4(4) . .
C5 C3 C4 119.3(4) . .
O3 C4 O4 123.6(5) . .
O3 C4 C3 118.8(5) . .
O4 C4 C3 117.6(4) . .
C1 O2 U1 140.9(3) . .
C1 O1 Co2 129.3(4) . .
C5 C2 C3 120.4(4) 2_676 .
C5 C2 C1 118.4(4) 2_676 .
C3 C2 C1 121.2(5) . .
O1 C1 O2 124.3(5) . .
O1 C1 C2 116.3(5) . .
O2 C1 C2 119.4(4) . .
C6 O5 U1 135.5(3) . .
C2 C5 C3 120.4(4) 2_676 .
C2 C5 C6 119.4(4) 2_676 2_666
C3 C5 C6 120.2(4) . 2_666
O6 C6 O5 126.1(5) . .
O6 C6 C5 118.1(5) . 2_666
O5 C6 C5 115.8(4) . 2_666
U1 O7 U1 111.24(19) . 2_665
OU2 U1 OU1 178.2(3) . .
OU2 U1 O7 93.9(3) . .
OU1 U1 O7 86.4(3) . .
OU2 U1 O7 88.9(3) . 2_665
OU1 U1 O7 92.9(3) . 2_665
O7 U1 O7 68.76(19) . 2_665
OU2 U1 O3 90.4(2) . .
OU1 U1 O3 88.3(2) . .
O7 U1 O3 145.46(17) . .
O7 U1 O3 145.67(15) 2_665 .
OU2 U1 O5 92.95(19) . .
OU1 U1 O5 87.8(2) . .
O7 U1 O5 142.46(16) . .
O7 U1 O5 74.54(15) 2_665 .
O3 U1 O5 71.23(15) . .
OU2 U1 O2 90.93(19) . .
OU1 U1 O2 87.4(2) . .
O7 U1 O2 74.22(16) . .
O7 U1 O2 142.87(15) 2_665 .
O3 U1 O2 71.45(15) . .
O5 U1 O2 142.49(15) . .
OU2 U1 U1 91.7(2) . 2_665
OU1 U1 U1 89.6(2) . 2_665
O7 U1 U1 34.56(12) . 2_665
O7 U1 U1 34.20(11) 2_665 2_665
O3 U1 U1 177.91(11) . 2_665
O5 U1 U1 108.42(10) . 2_665
O2 U1 U1 108.74(10) . 2_665
loop_
_geom_bond_atom_site_label_1
_geom_bond_atom_site_label_2
_geom_bond_distance
_geom_bond_site_symmetry_2
Co1 OW1 2.096(5) 2_566
Co1 OW1 2.096(5) .
Co1 O4 2.112(4) .
Co1 O4 2.112(4) 2_566
Co1 OW2 2.115(5) .
Co1 OW2 2.115(5) 2_566
Co2 OW4 2.084(7) 2_575
Co2 OW4 2.084(7) .
Co2 OW3 2.101(5) 2_575
Co2 OW3 2.101(5) .
Co2 O1 2.103(4) 2_575
Co2 O1 2.103(4) .
OU1 U1 1.765(5) .
OU2 U1 1.754(5) .
O4 C4 1.249(6) .
O3 C4 1.248(6) .
O3 U1 2.370(4) .
C3 C2 1.396(6) .
C3 C5 1.401(6) .
C3 C4 1.512(7) .
O2 C1 1.259(6) .
O2 U1 2.390(4) .
O1 C1 1.241(6) .
C2 C5 1.394(7) 2_676
C2 C1 1.512(6) .
O5 C6 1.258(6) .
O5 U1 2.372(4) .
C5 C2 1.394(7) 2_676
C5 C6 1.514(6) 2_666
O6 C6 1.224(7) .
C6 C5 1.514(6) 2_666
O7 U1 2.299(4) .
O7 U1 2.320(5) 2_665
U1 O7 2.320(5) 2_665
U1 U1 3.8125(4) 2_665
loop_
_refln_index_h
_refln_index_k
_refln_index_l
_refln_F_squared_calc
_refln_F_squared_meas
_refln_F_squared_sigma
_refln_observed_status
1 0 0 15941.76 13663.52 100.07 o
2 0 0 15062.79 15241.02 116.87 o
3 0 0 21.52 48.08 6.47 o
4 0 0 34.86 32.98 6.76 o
5 0 0 8939.67 9014.78 111.56 o
6 0 0 1474.78 1519.25 38.06 o
7 0 0 5106.85 5329.15 89.36 o
8 0 0 155.37 163.01 39.80 o
9 0 0 7.04 -9.43 44.79 o
10 0 0 720.80 541.29 105.62 o
-10 1 0 76.76 -41.02 41.02 o
-9 1 0 0.91 -36.78 36.78 o
-8 1 0 211.85 191.52 39.56 o
-7 1 0 2355.71 2346.44 61.69 o
-6 1 0 6585.92 6399.74 85.54 o
-5 1 0 8022.61 8080.05 102.47 o
-4 1 0 2487.14 2472.59 40.13 o
-3 1 0 1291.53 1417.42 25.92 o
-2 1 0 241.36 145.25 11.05 o
-1 1 0 5503.51 6173.90 48.41 o
0 1 0 19674.06 19889.38 135.40 o
1 1 0 29480.40 29136.54 221.74 o
2 1 0 11884.66 12116.97 110.73 o
3 1 0 146.50 145.83 11.09 o
4 1 0 1703.45 1766.11 37.72 o
5 1 0 1584.19 1754.85 40.89 o
6 1 0 3300.57 3666.02 62.45 o
7 1 0 2420.91 2603.20 113.45 o
8 1 0 2193.72 2484.43 115.00 o
9 1 0 691.74 1097.66 142.39 o
10 1 0 0.30 -49.04 49.51 o
-10 2 0 1052.81 1217.42 157.48 o
-9 2 0 10.84 -33.01 33.01 o
-8 2 0 0.26 8.04 20.94 o
-7 2 0 3518.91 3424.36 75.31 o
-6 2 0 3188.08 3133.58 55.51 o
-5 2 0 12828.82 12914.38 134.41 o
-4 2 0 4020.60 4019.72 55.11 o
-3 2 0 4753.03 5071.98 71.25 o
-2 2 0 2527.98 2618.50 33.60 o
-1 2 0 435.08 355.71 10.82 o
0 2 0 31849.94 31891.68 275.57 o
1 2 0 4101.13 3941.33 42.65 o
2 2 0 18130.48 17327.89 224.67 o
3 2 0 320.76 197.95 12.55 o
4 2 0 511.44 535.56 32.58 o
5 2 0 3965.76 4454.24 76.40 o
6 2 0 849.66 692.12 34.08 o
7 2 0 2056.76 2001.31 105.62 o
8 2 0 199.68 196.64 44.23 o
9 2 0 1298.56 1558.79 173.51 o
10 2 0 6.42 34.89 58.94 o
-10 3 0 704.72 697.82 119.76 o
-9 3 0 346.96 349.86 84.87 o
-8 3 0 63.20 -10.04 51.63 o
-7 3 0 119.64 104.35 26.41 o
-6 3 0 5639.42 5441.19 85.95 o
-5 3 0 4388.84 4318.90 90.95 o
-4 3 0 6155.71 6249.37 91.46 o
-3 3 0 14156.23 14736.58 191.50 o
-2 3 0 2167.66 2478.19 31.10 o
-1 3 0 2350.66 2285.92 33.44 o
0 3 0 3436.67 3558.06 45.83 o
1 3 0 11247.46 10233.24 102.41 o
2 3 0 24427.12 24895.48 240.54 o
3 3 0 5421.85 5566.72 71.32 o
4 3 0 2015.68 1810.84 39.22 o
5 3 0 2.92 1.07 8.92 o
6 3 0 1034.72 1046.82 56.04 o
7 3 0 1363.64 1374.38 97.85 o
8 3 0 748.67 649.73 103.73 o
9 3 0 642.43 852.95 130.61 o
10 3 0 46.30 -0.94 68.84 o
-10 4 0 1320.82 1170.27 151.82 o
-9 4 0 200.34 288.56 81.10 o
-8 4 0 617.17 538.93 92.41 o
-7 4 0 935.29 1056.54 66.83 o
-6 4 0 645.37 516.18 31.33 o
-5 4 0 9786.72 9674.84 123.54 o
-4 4 0 5170.77 5201.52 77.46 o
-3 4 0 21818.96 22259.42 205.81 o
-2 4 0 1903.00 1974.34 29.70 o
-1 4 0 9202.68 10004.87 97.87 o
0 4 0 6468.33 6308.98 74.62 o
1 4 0 286.09 313.77 20.81 o
2 4 0 17268.13 17289.67 182.53 o
3 4 0 3021.53 2913.33 55.46 o
4 4 0 4714.41 5108.96 75.87 o
5 4 0 162.57 177.79 31.92 o
6 4 0 5.05 -12.12 24.59 o
7 4 0 1575.35 1432.90 148.52 o
8 4 0 296.79 237.17 75.44 o
9 4 0 925.34 817.11 128.72 o
-10 5 0 758.76 751.10 124.95 o
-9 5 0 1333.04 1135.85 142.87 o
-8 5 0 1207.03 1041.68 143.81 o
-7 5 0 92.70 56.00 24.34 o
-6 5 0 723.85 603.87 82.42 o
-5 5 0 3082.20 3015.43 61.40 o
-4 5 0 6580.24 6280.46 84.65 o
-3 5 0 7821.28 8112.18 91.07 o
-2 5 0 6067.16 5986.78 65.53 o
-1 5 0 1277.13 1250.38 29.27 o
0 5 0 808.65 980.21 30.65 o
1 5 0 5190.07 5383.31 73.23 o
2 5 0 8569.90 8800.28 105.10 o
3 5 0 9171.18 9459.48 124.80 o
4 5 0 2673.18 2675.23 60.45 o
5 5 0 357.27 358.34 78.27 o
6 5 0 11.68 26.88 49.51 o
7 5 0 336.01 225.85 75.91 o
8 5 0 524.78 467.73 101.37 o
9 5 0 184.27 159.84 77.80 o
-9 6 0 907.96 878.88 129.19 o
-8 6 0 2193.61 2179.29 165.97 o
-7 6 0 80.78 65.42 26.62 o
-6 6 0 212.69 175.09 27.90 o
-5 6 0 3871.81 3724.33 81.42 o
-4 6 0 5020.22 4996.64 84.49 o
-3 6 0 8955.27 9247.56 109.78 o
-2 6 0 1959.26 1902.06 35.19 o
-1 6 0 6058.18 6013.22 77.69 o
0 6 0 790.55 834.34 42.49 o
1 6 0 64.65 63.43 12.53 o
2 6 0 9369.32 9597.98 142.60 o
3 6 0 3338.20 3406.47 82.36 o
4 6 0 4159.82 4374.59 150.51 o
5 6 0 41.57 126.83 56.58 o
6 6 0 586.76 685.09 114.58 o
7 6 0 318.69 314.49 93.83 o
8 6 0 64.86 74.97 68.37 o
-9 7 0 1788.19 1888.37 199.92 o
-8 7 0 1957.51 1968.53 164.55 o
-7 7 0 1646.89 1644.13 164.55 o
-6 7 0 144.90 205.09 36.86 o
-5 7 0 83.12 68.17 25.59 o
-4 7 0 2775.57 2612.32 76.80 o
-3 7 0 6380.88 6458.08 105.99 o
-2 7 0 4661.71 4797.73 72.64 o
-1 7 0 2548.12 2569.89 49.02 o
0 7 0 596.16 607.14 34.50 o
1 7 0 44.09 18.07 18.04 o
2 7 0 2375.20 2174.34 85.52 o
3 7 0 2561.60 2176.46 152.77 o
4 7 0 3114.52 2912.47 185.30 o
5 7 0 958.94 766.66 117.88 o
6 7 0 129.40 150.41 79.21 o
7 7 0 1.01 -30.65 47.62 o
-8 8 0 2412.48 2647.02 201.80 o
-7 8 0 766.12 840.69 124.01 o
-6 8 0 1100.60 913.77 132.49 o
-5 8 0 622.54 516.71 67.50 o
-4 8 0 194.06 96.38 29.58 o
-3 8 0 5492.37 5414.83 141.31 o
-2 8 0 1914.42 1921.84 124.92 o
-1 8 0 6246.20 6322.60 136.30 o
0 8 0 659.35 559.76 70.49 o
1 8 0 1291.07 1017.03 124.01 o
2 8 0 1580.39 1555.02 153.71 o
3 8 0 145.74 253.67 78.27 o
4 8 0 1998.44 1780.40 177.29 o
5 8 0 518.87 452.17 102.79 o
6 8 0 702.09 644.54 123.53 o
-7 9 0 2224.89 2632.40 201.33 o
-6 9 0 890.56 1184.42 148.52 o
-5 9 0 76.38 77.47 41.79 o
-4 9 0 998.83 865.31 85.64 o
-3 9 0 3616.17 3337.09 142.70 o
-2 9 0 3877.69 3974.88 171.16 o
-1 9 0 3158.86 3259.42 140.69 o
0 9 0 3245.03 3015.60 135.02 o
1 9 0 693.99 644.89 78.47 o
2 9 0 63.98 -44.32 44.32 o
3 9 0 455.66 612.01 115.99 o
4 9 0 1032.40 1130.66 152.77 o
5 9 0 651.42 563.92 118.82 o
-6 10 0 3066.89 3002.06 217.36 o
-5 10 0 597.02 807.21 137.21 o
-4 10 0 188.64 151.23 51.63 o
-3 10 0 1322.34 1231.05 253.67 o
-2 10 0 1453.23 1471.44 234.81 o
-1 10 0 4653.38 4543.81 179.70 o
0 10 0 750.36 719.82 84.24 o
1 10 0 1818.67 1549.77 120.86 o
2 10 0 1.48 96.19 63.65 o
3 10 0 9.15 -52.81 52.81 o
4 10 0 1607.29 1673.36 196.15 o
-3 11 0 184.04 251.31 88.17 o
-2 11 0 1081.03 890.72 98.14 o
-1 11 0 2358.48 2444.28 142.19 o
0 11 0 1409.52 1341.29 221.61 o
1 11 0 621.09 690.40 90.34 o
-2 -11 1 119.42 188.07 58.08 o
-1 -11 1 103.83 135.95 53.93 o
0 -11 1 1067.62 1047.44 107.26 o
1 -11 1 721.96 670.05 144.99 o
2 -11 1 3337.92 3622.56 235.28 o
3 -11 1 1557.62 1488.54 180.59 o
-4 -10 1 664.25 736.02 140.51 o
-3 -10 1 1861.33 2383.45 197.56 o
-2 -10 1 1402.62 1667.71 189.07 o
-1 -10 1 270.78 322.80 46.07 o
0 -10 1 55.46 -6.17 32.71 o
1 -10 1 755.96 782.27 90.16 o
2 -10 1 2433.17 2371.20 127.35 o
3 -10 1 3912.65 4013.91 231.98 o
4 -10 1 3160.49 3509.40 217.36 o
5 -10 1 1342.34 1328.70 165.03 o
-5 -9 1 641.99 652.56 128.72 o
-4 -9 1 278.67 263.57 93.36 o
-3 -9 1 3375.50 3510.34 223.49 o
-2 -9 1 1257.83 1287.67 148.52 o
-1 -9 1 3811.38 4164.31 224.44 o
0 -9 1 132.15 75.87 27.61 o
1 -9 1 171.36 185.18 32.04 o
2 -9 1 2394.11 2286.02 114.80 o
3 -9 1 1015.89 1087.13 144.99 o
4 -9 1 6140.53 6382.63 209.23 o
5 -9 1 1118.71 1100.02 138.62 o
6 -9 1 953.20 1047.68 144.28 o
7 -9 1 247.29 316.85 88.17 o
-7 -8 1 301.12 193.32 93.83 o
-6 -8 1 56.21 101.37 70.73 o
-5 -8 1 138.94 71.67 63.18 o
-4 -8 1 558.55 528.08 98.54 o
-3 -8 1 3152.04 2923.32 190.49 o
-2 -8 1 3409.06 3342.96 196.15 o
-1 -8 1 4331.12 4900.33 235.75 o
0 -8 1 1460.57 1557.94 63.36 o
1 -8 1 389.74 423.90 35.03 o
2 -8 1 2902.98 2892.33 68.27 o
3 -8 1 5284.01 5279.63 116.59 o
4 -8 1 4480.23 4187.81 122.98 o
5 -8 1 4305.12 3930.21 148.16 o
6 -8 1 1082.88 1064.18 128.72 o
7 -8 1 148.72 171.16 68.84 o
8 -8 1 392.83 354.10 92.89 o
-8 -7 1 789.22 652.09 129.19 o
-7 -7 1 192.32 260.74 94.30 o
-6 -7 1 1296.29 1282.02 167.86 o
-5 -7 1 4.55 50.92 48.09 o
-4 -7 1 21.63 96.66 53.28 o
-3 -7 1 3770.10 3437.26 189.54 o
-2 -7 1 1962.59 1922.89 95.31 o
-1 -7 1 9024.25 9038.10 140.38 o
0 -7 1 1123.76 1140.19 48.95 o
1 -7 1 1499.06 1515.45 48.42 o
2 -7 1 1360.84 1535.10 40.24 o
3 -7 1 2643.51 2474.91 46.44 o
4 -7 1 10167.62 9919.35 149.39 o
5 -7 1 2368.68 2323.04 100.59 o
6 -7 1 3867.34 3656.06 111.16 o
7 -7 1 140.10 120.42 40.86 o
8 -7 1 94.34 151.35 66.01 o
-8 -6 1 502.83 491.78 113.16 o
-7 -6 1 940.70 1047.68 143.34 o
-6 -6 1 817.36 744.03 116.46 o
-5 -6 1 15.34 33.01 47.62 o
-4 -6 1 6.85 22.85 26.16 o
-3 -6 1 1903.03 1726.83 54.97 o
-2 -6 1 7795.21 8059.05 134.18 o
-1 -6 1 7399.32 7131.24 114.32 o
0 -6 1 2805.85 2960.35 58.45 o
1 -6 1 2657.45 2492.91 52.59 o
2 -6 1 4.00 21.18 7.46 o
3 -6 1 2550.49 2719.10 42.92 o
4 -6 1 2847.64 3001.59 48.50 o
5 -6 1 4516.57 4319.32 105.01 o
6 -6 1 2753.17 2721.83 115.73 o
7 -6 1 360.23 375.64 55.12 o
8 -6 1 38.67 39.88 31.69 o
9 -6 1 91.51 96.66 63.65 o
-9 -5 1 85.88 118.35 68.84 o
-8 -5 1 1207.07 1233.92 165.03 o
-7 -5 1 409.65 339.01 81.57 o
-6 -5 1 3642.68 3638.59 204.16 o
-5 -5 1 44.05 15.28 29.70 o
-4 -5 1 1119.27 1169.85 48.36 o
-3 -5 1 3474.47 3398.58 67.67 o
-2 -5 1 2437.33 2039.26 46.55 o
-1 -5 1 21027.56 21753.81 205.89 o
0 -5 1 3665.90 3609.64 54.98 o
1 -5 1 13913.91 14203.78 124.14 o
2 -5 1 32.33 20.58 6.09 o
3 -5 1 45.65 30.33 7.69 o
4 -5 1 5195.01 5427.63 81.82 o
5 -5 1 1490.18 1513.57 42.19 o
6 -5 1 6730.04 6768.98 113.02 o
7 -5 1 832.00 700.84 68.34 o
8 -5 1 784.20 1000.35 83.73 o
9 -5 1 168.89 148.05 65.54 o
-9 -4 1 60.41 144.28 70.25 o
-8 -4 1 719.76 708.20 113.16 o
-7 -4 1 1180.86 864.27 118.35 o
-6 -4 1 1913.95 2107.64 286.44 o
-5 -4 1 1148.24 1021.70 50.40 o
-4 -4 1 1767.00 1854.59 46.35 o
-3 -4 1 187.42 150.17 13.92 o
-2 -4 1 2363.90 2624.85 44.61 o
-1 -4 1 10432.42 9863.16 112.43 o
0 -4 1 14586.50 15412.81 178.64 o
1 -4 1 9642.22 9851.90 88.00 o
2 -4 1 4793.28 4426.56 59.50 o
3 -4 1 49.59 40.71 8.14 o
4 -4 1 364.51 395.36 22.36 o
5 -4 1 4976.54 5048.09 77.80 o
6 -4 1 3438.03 3455.52 65.74 o
7 -4 1 3304.49 3450.08 87.64 o
8 -4 1 898.58 999.59 124.95 o
9 -4 1 26.87 14.15 46.21 o
10 -4 1 49.92 6.13 51.39 o
-10 -3 1 12.49 -11.32 57.52 o
-9 -3 1 224.83 85.81 67.90 o
-8 -3 1 1005.40 1127.84 140.98 o
-7 -3 1 381.26 326.95 75.44 o
-6 -3 1 4048.90 4086.23 77.65 o
-5 -3 1 1941.00 1991.49 48.91 o
-4 -3 1 6534.40 6807.34 94.20 o
-3 -3 1 804.03 857.85 25.04 o
-2 -3 1 1136.38 1718.64 35.31 o
-1 -3 1 9830.21 9595.03 96.25 o
0 -3 1 16977.90 17168.92 153.40 o
1 -3 1 27155.49 27327.33 286.11 o
2 -3 1 2287.36 2149.11 30.45 o
3 -3 1 2914.16 2814.58 43.20 o
4 -3 1 4381.62 4584.66 65.85 o
5 -3 1 779.13 695.64 29.39 o
6 -3 1 8348.67 8169.34 108.97 o
7 -3 1 2706.36 2727.29 63.52 o
8 -3 1 3444.73 3422.82 127.59 o
9 -3 1 10.80 -10.84 41.49 o
10 -3 1 157.60 225.85 79.68 o
-10 -2 1 252.50 164.55 86.29 o
-9 -2 1 143.91 94.77 66.01 o
-8 -2 1 94.58 99.96 57.05 o
-7 -2 1 1079.77 1110.59 112.98 o
-6 -2 1 2347.81 2581.63 63.57 o
-5 -2 1 5889.09 5845.41 80.10 o
-4 -2 1 5939.79 5929.72 75.47 o
-3 -2 1 76.37 78.24 12.68 o
-2 -2 1 62.21 103.79 10.89 o
-1 -2 1 9153.64 9227.42 94.39 o
0 -2 1 20085.62 19701.04 154.12 o
1 -2 1 27758.75 28051.83 202.45 o
2 -2 1 13157.07 12931.37 107.73 o
3 -2 1 3166.27 2980.87 40.44 o
4 -2 1 1.62 10.50 6.45 o
5 -2 1 2090.32 2057.56 39.09 o
6 -2 1 2407.12 2288.92 49.47 o
7 -2 1 2022.71 1912.27 52.42 o
8 -2 1 1910.96 1908.19 94.62 o
9 -2 1 376.45 412.26 58.17 o
10 -2 1 17.28 26.40 55.64 o
-10 -1 1 347.50 331.00 96.66 o
-9 -1 1 1237.35 1055.70 136.74 o
-8 -1 1 134.38 205.07 48.31 o
-7 -1 1 228.27 309.14 28.93 o
-6 -1 1 10770.30 11006.37 187.35 o
-5 -1 1 3554.31 3726.36 58.72 o
-4 -1 1 23632.08 23950.40 218.00 o
-3 -1 1 2728.08 2627.67 39.43 o
-2 -1 1 9581.59 10099.53 95.56 o
-1 -1 1 10257.94 10962.68 84.81 o
0 -1 1 2927.25 2708.37 22.21 o
1 -1 1 44667.60 46394.82 342.83 o
2 -1 1 4206.17 4197.52 40.78 o
3 -1 1 4132.16 3873.82 43.19 o
4 -1 1 143.26 239.68 13.74 o
5 -1 1 3.96 2.23 6.49 o
6 -1 1 7128.02 6884.67 88.15 o
7 -1 1 1034.92 1077.47 44.87 o
8 -1 1 2194.82 2141.81 99.56 o
9 -1 1 177.09 128.72 40.68 o
10 -1 1 410.27 554.02 107.50 o
-10 0 1 231.44 459.24 106.56 o
-9 0 1 298.40 225.38 70.25 o
-8 0 1 325.15 201.33 66.48 o
-7 0 1 151.67 187.01 22.90 o
-6 0 1 5044.80 5331.94 77.76 o
-5 0 1 7873.53 7625.86 86.35 o
-4 0 1 8033.25 7885.81 82.96 o
-3 0 1 4686.20 4425.54 54.12 o
-2 0 1 7699.52 7797.87 75.70 o
-1 0 1 1332.47 1016.85 17.22 o
0 0 1 3775.56 4269.12 32.12 o
1 0 1 22565.92 21729.88 195.88 o
2 0 1 24468.49 25853.23 199.79 o
3 0 1 3728.28 3164.70 38.33 o
4 0 1 7272.30 6780.50 76.70 o
5 0 1 9.94 16.64 7.87 o
6 0 1 261.37 263.26 19.01 o
7 0 1 948.01 853.44 42.89 o
8 0 1 1958.51 2067.40 99.21 o
9 0 1 1111.24 1185.36 143.34 o
10 0 1 333.09 519.12 108.92 o
-10 1 1 612.55 740.73 124.95 o
-9 1 1 1250.26 1410.27 157.01 o
-8 1 1 167.66 127.36 30.17 o
-7 1 1 797.88 817.18 38.24 o
-6 1 1 4021.08 4029.70 65.38 o
-5 1 1 2556.51 2448.85 49.63 o
-4 1 1 15232.81 15335.51 148.63 o
-3 1 1 2607.11 2368.92 36.55 o
-2 1 1 3795.81 3381.45 44.16 o
-1 1 1 4970.08 4547.59 36.79 o
0 1 1 81.12 78.54 4.97 o
1 1 1 22467.13 24150.44 226.59 o
2 1 1 18254.57 18405.45 159.67 o
3 1 1 30348.77 30235.48 258.40 o
4 1 1 2007.05 1922.63 42.60 o
5 1 1 4158.51 3944.35 59.62 o
6 1 1 441.88 472.34 25.21 o
7 1 1 163.00 197.87 38.25 o
8 1 1 1051.62 898.49 63.75 o
9 1 1 81.45 132.02 65.07 o
10 1 1 943.72 978.84 140.51 o
-10 2 1 643.70 669.06 113.16 o
-9 2 1 1425.99 1525.53 111.02 o
-8 2 1 1487.71 1564.33 73.93 o
-7 2 1 374.38 380.03 28.02 o
-6 2 1 27.93 19.18 8.50 o
-5 2 1 3376.43 3239.46 75.21 o
-4 2 1 17554.82 17054.92 194.36 o
-3 2 1 12186.73 11598.38 136.57 o
-2 2 1 33683.20 36006.02 301.57 o
-1 2 1 7027.31 7400.34 74.50 o
0 2 1 20.53 19.29 4.93 o
1 2 1 2401.46 2472.70 34.13 o
2 2 1 4074.16 4076.51 61.56 o
3 2 1 20967.09 21552.95 195.29 o
4 2 1 11476.04 10909.02 138.38 o
5 2 1 397.68 334.19 20.25 o
6 2 1 21.79 14.45 10.24 o
7 2 1 506.87 444.85 73.07 o
8 2 1 1246.24 935.85 84.32 o
9 2 1 421.99 290.45 82.51 o
10 2 1 476.80 513.00 114.10 o
-10 3 1 184.85 132.49 66.95 o
-9 3 1 2669.18 3076.25 270.17 o
-8 3 1 909.91 1019.70 98.54 o
-7 3 1 3709.25 3663.92 93.03 o
-6 3 1 53.04 52.03 14.44 o
-5 3 1 109.06 165.17 21.91 o
-4 3 1 10497.79 10060.61 105.43 o
-3 3 1 3437.05 3167.16 52.54 o
-2 3 1 36058.79 37714.73 299.78 o
-1 3 1 1317.48 1170.96 23.19 o
0 3 1 2960.31 3112.64 43.23 o
1 3 1 1145.30 1026.52 23.95 o
2 3 1 1489.83 1597.35 31.77 o
3 3 1 18253.56 18056.53 173.32 o
4 3 1 3338.28 3515.41 61.39 o
5 3 1 5665.87 5769.39 82.43 o
6 3 1 123.87 131.03 20.15 o
7 3 1 78.89 117.03 29.25 o
8 3 1 992.66 1038.72 133.91 o
9 3 1 35.07 -16.97 43.38 o
-10 4 1 441.63 554.96 110.80 o
-9 4 1 2265.97 2399.95 175.87 o
-8 4 1 3976.37 4022.86 123.02 o
-7 4 1 2399.98 2428.06 89.40 o
-6 4 1 1169.49 1297.85 43.96 o
-5 4 1 196.60 218.74 14.28 o
-4 4 1 4865.06 4695.24 74.53 o
-3 4 1 10781.23 10231.09 112.15 o
-2 4 1 16886.93 17078.45 140.76 o
-1 4 1 14106.29 14407.09 132.97 o
0 4 1 2730.50 2493.01 41.95 o
1 4 1 6.27 9.54 7.18 o
2 4 1 1639.34 1722.22 36.62 o
3 4 1 2905.91 3437.37 56.73 o
4 4 1 6029.18 5968.24 90.24 o
5 4 1 1611.31 1730.15 49.31 o
6 4 1 441.05 449.80 45.20 o
7 4 1 101.34 35.83 48.56 o
8 4 1 108.11 14.62 46.21 o
9 4 1 79.13 -8.02 53.75 o
-10 5 1 20.03 50.92 56.11 o
-9 5 1 1067.29 1142.45 148.99 o
-8 5 1 1738.35 1529.94 109.20 o
-7 5 1 6557.86 6678.84 184.37 o
-6 5 1 470.24 384.42 34.37 o
-5 5 1 643.04 853.63 70.66 o
-4 5 1 2733.70 2548.52 64.48 o
-3 5 1 4270.30 4430.01 62.95 o
-2 5 1 19695.51 19377.89 183.36 o
-1 5 1 3641.52 3545.88 58.34 o
0 5 1 19370.95 19939.34 192.88 o
1 5 1 852.56 727.97 47.94 o
2 5 1 49.79 29.90 10.82 o
3 5 1 3859.80 4160.88 74.35 o
4 5 1 428.67 502.22 35.59 o
5 5 1 4402.91 4562.29 154.41 o
6 5 1 171.80 150.88 60.82 o
7 5 1 716.71 1121.71 148.52 o
8 5 1 206.55 155.12 77.33 o
-9 6 1 373.21 556.37 110.80 o
-8 6 1 1668.15 1850.18 182.00 o
-7 6 1 2837.24 2759.04 125.83 o
-6 6 1 3506.75 3550.36 111.83 o
-5 6 1 2121.89 2155.92 155.64 o
-4 6 1 164.03 167.48 24.13 o
-3 6 1 3091.49 2823.84 56.25 o
-2 6 1 4987.06 4829.65 69.12 o
-1 6 1 3388.61 3357.07 60.18 o
0 6 1 7673.67 7239.75 89.52 o
1 6 1 2682.46 2657.02 59.74 o
2 6 1 146.59 115.29 18.31 o
3 6 1 599.95 595.24 40.81 o
4 6 1 2186.28 1888.29 445.33 o
5 6 1 1800.97 1776.15 149.47 o
6 6 1 820.28 807.68 130.61 o
7 6 1 531.07 672.36 120.70 o
8 6 1 80.75 117.88 75.44 o
-9 7 1 511.87 536.57 116.93 o
-8 7 1 365.69 508.28 104.67 o
-7 7 1 3514.66 3484.35 149.03 o
-6 7 1 1334.20 1414.48 107.16 o
-5 7 1 5123.42 5240.52 139.74 o
-4 7 1 57.67 82.53 26.88 o
-3 7 1 7.86 4.21 14.02 o
-2 7 1 8115.43 8201.89 104.75 o
-1 7 1 2273.85 2298.15 58.90 o
0 7 1 7065.77 7331.04 113.23 o
1 7 1 1591.84 1507.54 73.36 o
2 7 1 2620.18 2236.81 155.12 o
3 7 1 303.98 284.32 77.80 o
4 7 1 127.19 228.21 69.31 o
5 7 1 2494.83 2407.49 179.17 o
6 7 1 478.66 423.88 99.49 o
7 7 1 556.94 386.63 103.26 o
-8 8 1 1013.93 1036.36 148.05 o
-7 8 1 1832.41 2007.66 170.21 o
-6 8 1 4656.57 4815.93 179.70 o
-5 8 1 3453.82 3518.31 146.85 o
-4 8 1 1382.53 1389.66 104.35 o
-3 8 1 189.12 147.42 41.82 o
-2 8 1 474.70 586.05 135.32 o
-1 8 1 3810.64 3879.90 146.58 o
0 8 1 2894.95 3267.45 232.69 o
1 8 1 1691.16 1683.98 106.80 o
2 8 1 627.51 661.05 107.97 o
3 8 1 8.85 40.55 54.22 o
4 8 1 116.15 95.24 62.24 o
5 8 1 558.59 398.89 100.90 o
6 8 1 886.66 908.59 137.21 o
-7 9 1 1612.78 1736.07 189.54 o
-6 9 1 1869.82 1589.42 160.78 o
-5 9 1 4901.09 4911.06 184.18 o
-4 9 1 985.44 840.84 120.70 o
-3 9 1 1125.45 1184.74 177.52 o
-2 9 1 1016.57 1130.22 98.66 o
-1 9 1 739.00 805.90 86.03 o
0 9 1 5395.74 5300.28 186.83 o
1 9 1 1434.25 1413.54 111.02 o
2 9 1 2625.77 2341.96 185.30 o
3 9 1 30.31 10.37 53.28 o
4 9 1 150.27 103.73 77.80 o
5 9 1 538.96 394.65 105.62 o
-6 10 1 1314.47 1489.01 185.30 o
-5 10 1 2041.19 2160.53 148.74 o
-4 10 1 1649.36 1636.20 166.20 o
-3 10 1 715.06 674.40 168.56 o
-2 10 1 1.56 6.17 40.82 o
-1 10 1 550.06 537.97 75.45 o
0 10 1 1803.16 2028.51 142.40 o
1 10 1 1376.92 1247.83 112.66 o
2 10 1 975.86 977.07 103.90 o
3 10 1 686.49 521.01 116.93 o
-3 11 1 1730.97 2065.37 151.30 o
-2 11 1 11.83 10.12 41.51 o
-1 11 1 23.94 66.87 49.81 o
0 11 1 1605.42 1897.52 147.71 o
-2 -11 2 1300.83 1413.08 112.46 o
-1 -11 2 1920.51 2140.56 150.86 o
0 -11 2 1048.75 1134.91 157.95 o
1 -11 2 4.93 10.37 57.52 o
2 -11 2 436.24 450.29 110.80 o
3 -11 2 1509.15 1522.01 175.87 o
-4 -10 2 186.40 213.12 91.00 o
-3 -10 2 112.97 20.27 63.18 o
-2 -10 2 2955.87 2988.98 134.91 o
-1 -10 2 1628.65 1720.73 88.83 o
0 -10 2 3219.67 3268.48 116.02 o
1 -10 2 157.08 142.08 47.19 o
2 -10 2 124.71 3.77 48.09 o
3 -10 2 1580.03 1882.71 183.41 o
4 -10 2 1129.60 1004.77 138.62 o
5 -10 2 3956.48 3937.05 235.28 o
-6 -9 2 579.69 614.37 127.31 o
-5 -9 2 258.37 441.33 110.33 o
-4 -9 2 1.14 -41.49 49.04 o
-3 -9 2 116.67 116.93 60.82 o
-2 -9 2 2266.90 2296.69 175.87 o
-1 -9 2 4871.23 4761.07 154.03 o
0 -9 2 3793.42 3953.11 113.46 o
1 -9 2 1414.46 1375.62 69.96 o
2 -9 2 24.18 23.80 25.49 o
3 -9 2 608.12 671.08 74.00 o
4 -9 2 2339.05 2381.09 164.55 o
5 -9 2 2861.65 2692.28 182.00 o
6 -9 2 2737.88 2554.60 180.11 o
7 -9 2 840.12 836.45 128.25 o
-7 -8 2 1005.73 1070.31 164.08 o
-6 -8 2 445.74 414.45 109.86 o
-5 -8 2 1053.01 1196.20 148.99 o
-4 -8 2 31.12 67.42 53.75 o
-3 -8 2 28.78 45.74 52.34 o
-2 -8 2 4192.78 4256.26 219.25 o
-1 -8 2 2923.55 2982.83 94.21 o
0 -8 2 10799.53 11157.19 204.25 o
1 -8 2 5682.30 5693.68 101.35 o
2 -8 2 3382.42 3331.79 73.24 o
3 -8 2 736.36 841.05 50.65 o
4 -8 2 186.93 203.81 42.37 o
5 -8 2 4258.60 4439.37 124.43 o
6 -8 2 1500.20 1557.90 79.05 o
7 -8 2 3002.99 3038.37 191.90 o
8 -8 2 195.94 182.94 75.91 o
-8 -7 2 124.42 12.73 61.77 o
-7 -7 2 666.94 597.39 120.70 o
-6 -7 2 775.85 683.68 119.76 o
-5 -7 2 1559.80 1568.69 163.14 o
-4 -7 2 324.44 474.80 94.30 o
-3 -7 2 5.35 29.11 64.60 o
-2 -7 2 1054.26 1095.07 67.76 o
-1 -7 2 3852.27 3707.90 72.13 o
0 -7 2 6035.90 6064.41 85.70 o
1 -7 2 5284.71 5206.59 72.18 o
2 -7 2 5169.29 5054.70 66.55 o
3 -7 2 790.61 787.45 29.21 o
4 -7 2 849.01 943.27 46.05 o
5 -7 2 2096.39 2249.26 81.25 o
6 -7 2 1951.61 1809.92 76.01 o
7 -7 2 2355.46 2363.90 90.67 o
8 -7 2 1537.18 1716.74 174.46 o
-8 -6 2 7.39 -6.60 62.24 o
-7 -6 2 1818.70 2112.33 180.11 o
-6 -6 2 494.54 614.37 108.92 o
-5 -6 2 5523.58 5437.84 254.61 o
-4 -6 2 1190.12 1290.20 86.33 o
-3 -6 2 3741.44 3778.70 81.20 o
-2 -6 2 727.47 647.09 34.31 o
-1 -6 2 452.79 518.61 28.04 o
0 -6 2 10126.80 10118.90 114.56 o
1 -6 2 4306.79 4224.74 55.34 o
2 -6 2 9927.69 10229.55 106.76 o
3 -6 2 574.07 480.03 29.45 o
4 -6 2 176.84 142.99 13.96 o
5 -6 2 3545.06 3572.75 62.65 o
6 -6 2 1778.02 1884.85 79.74 o
7 -6 2 4549.30 4523.21 155.12 o
8 -6 2 591.02 655.01 70.80 o
9 -6 2 771.27 923.67 129.19 o
-9 -5 2 168.03 78.27 63.18 o
-8 -5 2 4.63 -33.01 48.09 o
-7 -5 2 363.15 337.60 82.51 o
-6 -5 2 523.58 418.22 84.40 o
-5 -5 2 4339.55 4312.93 119.46 o
-4 -5 2 3612.35 3366.55 75.55 o
-3 -5 2 2541.93 2844.71 58.05 o
-2 -5 2 2304.15 2174.63 43.44 o
-1 -5 2 1124.12 1044.00 32.92 o
0 -5 2 6844.03 6782.37 80.45 o
1 -5 2 12056.23 12423.05 110.85 o
2 -5 2 12155.12 11513.64 104.27 o
3 -5 2 9368.07 9310.93 94.93 o
4 -5 2 539.75 552.23 24.40 o
5 -5 2 32.47 79.79 13.95 o
6 -5 2 1385.90 1468.29 53.08 o
7 -5 2 3130.06 2906.25 114.67 o
8 -5 2 1937.19 1935.87 100.86 o
9 -5 2 485.17 457.36 92.89 o
-9 -4 2 145.48 20.27 57.52 o
-8 -4 2 552.01 727.53 117.88 o
-7 -4 2 1366.44 1328.22 151.82 o
-6 -4 2 819.33 707.93 70.18 o
-5 -4 2 7087.01 6802.56 115.72 o
-4 -4 2 3427.47 3442.72 59.01 o
-3 -4 2 15618.61 15040.85 172.89 o
-2 -4 2 113.21 144.61 12.28 o
-1 -4 2 1876.87 1969.40 42.55 o
0 -4 2 4955.79 5205.64 58.19 o
1 -4 2 13076.39 12958.98 132.76 o
2 -4 2 23849.56 24293.13 220.35 o
3 -4 2 1455.67 1317.72 36.07 o
4 -4 2 7806.57 7456.99 114.18 o
5 -4 2 262.42 287.81 19.71 o
6 -4 2 39.10 26.40 12.73 o
7 -4 2 3742.97 3808.97 132.50 o
8 -4 2 512.17 500.41 59.65 o
9 -4 2 1920.65 2019.15 107.13 o
-10 -3 2 427.80 372.02 101.84 o
-9 -3 2 457.41 247.54 81.10 o
-8 -3 2 1011.33 1125.48 140.98 o
-7 -3 2 1.74 -25.93 40.55 o
-6 -3 2 1068.36 1059.43 51.92 o
-5 -3 2 7522.91 7265.16 104.44 o
-4 -3 2 7609.26 7138.60 89.32 o
-3 -3 2 7302.70 7707.81 97.43 o
-2 -3 2 3124.61 2926.68 43.77 o
-1 -3 2 3319.23 3380.87 44.49 o
0 -3 2 100.75 86.02 6.84 o
1 -3 2 12215.44 13528.23 107.49 o
2 -3 2 18770.88 19052.77 155.23 o
3 -3 2 7592.54 7449.75 73.22 o
4 -3 2 3694.22 3751.88 47.71 o
5 -3 2 526.33 538.70 24.53 o
6 -3 2 28.28 19.34 10.35 o
7 -3 2 664.20 607.15 39.86 o
8 -3 2 1348.22 1396.39 81.56 o
9 -3 2 896.38 1097.58 91.80 o
10 -3 2 325.21 479.99 100.90 o
-10 -2 2 1123.32 1169.33 165.97 o
-9 -2 2 192.73 97.60 61.30 o
-8 -2 2 2438.02 2225.97 166.44 o
-7 -2 2 3.83 -3.46 22.09 o
-6 -2 2 110.70 101.78 15.79 o
-5 -2 2 7023.52 7078.69 99.89 o
-4 -2 2 2848.42 2849.37 48.04 o
-3 -2 2 23057.82 23198.27 208.96 o
-2 -2 2 531.86 583.29 17.29 o
-1 -2 2 3223.10 3250.34 36.69 o
0 -2 2 29.70 6.40 3.83 o
1 -2 2 2613.02 2897.58 27.94 o
2 -2 2 18921.28 18926.74 159.25 o
3 -2 2 8384.88 8018.88 73.67 o
4 -2 2 13350.14 13528.68 119.95 o
5 -2 2 193.96 212.00 14.74 o
6 -2 2 392.06 589.38 27.83 o
7 -2 2 978.13 819.59 53.97 o
8 -2 2 60.96 42.22 27.80 o
9 -2 2 1890.67 1904.87 102.85 o
10 -2 2 272.57 167.38 72.14 o
-10 -1 2 570.20 717.16 132.49 o
-9 -1 2 1122.81 1019.39 135.32 o
-8 -1 2 1565.33 1421.58 147.58 o
-7 -1 2 916.43 946.53 56.88 o
-6 -1 2 929.64 915.75 52.26 o
-5 -1 2 1383.57 1297.19 44.85 o
-4 -1 2 4970.14 4657.42 59.20 o
-3 -1 2 3882.65 3658.09 49.54 o
-2 -1 2 21281.33 22322.00 180.29 o
-1 -1 2 6660.48 6777.76 53.71 o
0 -1 2 598.99 711.75 10.56 o
1 -1 2 547.39 774.71 14.20 o
2 -1 2 1499.87 1356.20 19.20 o
3 -1 2 14299.66 15061.03 117.30 o
4 -1 2 11252.61 11124.57 103.05 o
5 -1 2 5093.07 5335.56 72.76 o
6 -1 2 902.06 988.02 51.18 o
7 -1 2 316.92 199.88 23.96 o
8 -1 2 307.61 140.71 60.82 o
9 -1 2 407.52 399.55 60.41 o
10 -1 2 576.97 614.37 109.86 o
-10 0 2 744.05 968.47 146.64 o
-9 0 2 508.57 365.89 87.23 o
-8 0 2 2949.48 2829.96 179.17 o
-7 0 2 743.54 674.57 37.85 o
-6 0 2 3263.72 3219.04 65.33 o
-5 0 2 4129.80 3989.19 62.05 o
-4 0 2 841.51 794.87 22.22 o
-3 0 2 17004.96 15692.31 173.30 o
-2 0 2 7918.28 7586.65 82.02 o
-1 0 2 38413.27 38101.16 335.19 o
0 0 2 826.00 616.28 8.72 o
1 0 2 5324.49 5559.68 49.90 o
2 0 2 2420.33 2531.85 29.56 o
3 0 2 1552.31 1431.22 22.80 o
4 0 2 13187.40 13086.71 125.99 o
5 0 2 613.58 633.58 24.90 o
6 0 2 4336.64 4491.44 72.75 o
7 0 2 384.92 332.08 25.28 o
8 0 2 8.65 64.98 54.22 o
9 0 2 1113.29 982.67 87.38 o
10 0 2 58.29 -29.70 52.81 o
-11 1 2 54.31 74.50 70.73 o
-10 1 2 134.41 213.59 75.44 o
-9 1 2 1057.93 1127.25 95.52 o
-8 1 2 2607.81 2721.55 190.96 o
-7 1 2 2952.80 2860.94 64.60 o
-6 1 2 5019.47 4977.25 86.34 o
-5 1 2 35.29 38.11 9.43 o
-4 1 2 2756.68 2585.66 56.24 o
-3 1 2 16105.99 15844.02 176.21 o
-2 1 2 27775.36 27992.33 252.47 o
-1 1 2 20235.98 19458.91 136.60 o
0 1 2 7109.17 7510.92 58.06 o
1 1 2 1241.82 1039.69 19.31 o
2 1 2 1017.23 1058.32 19.87 o
3 1 2 6820.35 7132.99 75.80 o
4 1 2 9872.29 9767.34 103.00 o
5 1 2 5068.27 4866.34 67.44 o
6 1 2 1112.30 1024.06 35.49 o
7 1 2 67.57 103.97 20.78 o
8 1 2 22.00 -1.23 20.48 o
9 1 2 227.68 95.19 40.79 o
10 1 2 230.45 96.19 70.25 o
-10 2 2 231.99 449.45 119.76 o
-9 2 2 106.86 151.56 48.47 o
-8 2 2 4826.67 5029.61 168.70 o
-7 2 2 2047.25 2117.86 62.89 o
-6 2 2 6782.85 6636.83 100.45 o
-5 2 2 102.14 200.49 18.66 o
-4 2 2 1386.13 1553.78 51.72 o
-3 2 2 18216.50 19218.82 185.63 o
-2 2 2 6551.73 5926.31 56.82 o
-1 2 2 28154.88 28633.44 227.51 o
0 2 2 6587.03 6793.41 65.67 o
1 2 2 3008.97 2775.25 37.58 o
2 2 2 3.66 15.84 5.71 o
3 2 2 74.65 72.35 10.00 o
4 2 2 12616.10 12224.80 127.07 o
5 2 2 2973.91 2765.67 50.74 o
6 2 2 4903.20 4680.35 80.19 o
7 2 2 312.48 336.74 39.44 o
8 2 2 669.29 759.35 66.96 o
9 2 2 359.88 188.13 72.14 o
-10 3 2 8.25 -48.09 48.09 o
-9 3 2 277.39 350.48 60.84 o
-8 3 2 2134.08 2335.84 261.68 o
-7 3 2 4353.53 4237.30 119.04 o
-6 3 2 3388.62 3628.11 79.14 o
-5 3 2 1939.51 1951.77 51.91 o
-4 3 2 80.64 41.65 11.80 o
-3 3 2 4175.59 3874.86 56.18 o
-2 3 2 15693.77 16693.79 143.02 o
-1 3 2 6190.12 5826.48 64.22 o
0 3 2 12111.58 12192.32 112.01 o
1 3 2 3569.40 3296.22 47.23 o
2 3 2 448.12 454.65 20.23 o
3 3 2 34.93 25.29 9.41 o
4 3 2 1065.08 1100.77 31.69 o
5 3 2 1740.92 1836.42 43.37 o
6 3 2 1611.28 1673.62 60.64 o
7 3 2 401.92 330.94 42.90 o
8 3 2 233.74 386.63 90.53 o
9 3 2 17.05 28.76 55.17 o
-10 4 2 15.88 98.07 71.20 o
-9 4 2 24.22 13.78 34.17 o
-8 4 2 2374.01 2476.60 122.48 o
-7 4 2 2084.59 2156.74 86.77 o
-6 4 2 9850.00 9620.90 165.43 o
-5 4 2 2973.88 3008.53 69.80 o
-4 4 2 7116.10 7463.66 103.57 o
-3 4 2 1470.48 1429.59 37.81 o
-2 4 2 324.54 264.52 17.19 o
-1 4 2 20912.14 21609.78 233.62 o
0 4 2 3701.53 3571.42 50.26 o
1 4 2 11091.88 11037.27 117.98 o
2 4 2 687.24 477.29 22.80 o
3 4 2 816.12 800.14 34.08 o
4 4 2 3607.10 3646.98 70.76 o
5 4 2 313.39 300.69 30.66 o
6 4 2 4176.13 4430.61 141.83 o
7 4 2 271.83 384.27 90.06 o
8 4 2 755.93 974.13 138.15 o
9 4 2 65.66 -9.90 54.69 o
-10 5 2 120.41 219.72 84.40 o
-9 5 2 1.82 -5.69 32.32 o
-8 5 2 283.42 276.71 63.89 o
-7 5 2 1872.85 1669.75 376.50 o
-6 5 2 7649.47 7550.29 203.91 o
-5 5 2 5308.53 5517.03 92.59 o
-4 5 2 5013.00 5043.06 84.30 o
-3 5 2 1046.02 1101.04 36.05 o
-2 5 2 1196.68 1061.97 32.43 o
-1 5 2 3661.52 3722.45 55.95 o
0 5 2 5749.90 5675.13 78.56 o
1 5 2 11710.11 11274.92 126.48 o
2 5 2 5578.81 5351.06 77.92 o
3 5 2 173.29 93.84 15.53 o
4 5 2 58.91 43.87 15.41 o
5 5 2 202.91 192.51 42.15 o
6 5 2 1627.57 1584.25 160.78 o
7 5 2 805.07 619.55 102.79 o
8 5 2 356.04 319.68 90.06 o
-9 6 2 303.84 225.85 79.68 o
-8 6 2 416.99 494.89 67.97 o
-7 6 2 118.65 200.57 61.06 o
-6 6 2 6490.70 6328.38 270.64 o
-5 6 2 5354.94 5461.23 171.17 o
-4 6 2 10283.60 10392.00 155.99 o
-3 6 2 297.44 282.11 22.01 o
-2 6 2 142.72 128.70 15.84 o
-1 6 2 5579.26 5994.29 86.95 o
0 6 2 2377.01 2476.58 59.88 o
1 6 2 8185.32 8601.22 120.45 o
2 6 2 3114.64 2839.05 63.23 o
3 6 2 3144.69 3062.89 109.91 o
4 6 2 144.54 183.60 43.50 o
5 6 2 33.69 -24.05 42.44 o
6 6 2 976.89 948.66 136.74 o
7 6 2 43.64 29.70 64.60 o
-9 7 2 460.70 514.41 117.40 o
-8 7 2 21.01 41.87 41.58 o
-7 7 2 524.00 616.34 77.35 o
-6 7 2 1501.64 1579.56 220.43 o
-5 7 2 3902.59 3920.68 149.70 o
-4 7 2 6675.44 6592.30 495.79 o
-3 7 2 4491.83 4602.34 126.67 o
-2 7 2 77.62 56.72 22.39 o
-1 7 2 685.13 701.83 56.42 o
0 7 2 3682.10 3820.59 99.29 o
1 7 2 3795.97 3619.54 133.74 o
2 7 2 2192.75 2298.11 160.31 o
3 7 2 1694.17 1767.19 144.75 o
4 7 2 573.01 400.31 89.59 o
5 7 2 1.01 18.39 50.45 o
6 7 2 534.15 314.49 91.94 o
7 7 2 296.17 170.68 82.04 o
-8 8 2 84.73 109.86 76.85 o
-7 8 2 13.86 -7.86 40.01 o
-6 8 2 1669.32 1704.87 214.30 o
-5 8 2 1560.85 1602.15 214.30 o
-4 8 2 6765.05 6544.20 204.20 o
-3 8 2 1189.16 1228.05 101.35 o
-2 8 2 4697.57 4787.81 167.46 o
-1 8 2 109.63 117.87 40.91 o
0 8 2 841.81 1042.51 131.55 o
1 8 2 4531.42 4568.25 165.78 o
2 8 2 375.29 392.29 85.34 o
3 8 2 2432.40 2629.10 190.02 o
4 8 2 114.00 191.43 71.20 o
5 8 2 444.45 569.58 110.33 o
6 8 2 174.47 68.84 71.20 o
-7 9 2 56.57 140.04 83.46 o
-6 9 2 297.22 210.00 56.81 o
-5 9 2 1493.41 1550.04 152.06 o
-4 9 2 3504.27 3519.82 162.90 o
-3 9 2 3569.23 3834.02 160.79 o
-2 9 2 2523.13 2324.56 124.64 o
-1 9 2 1194.34 1054.93 96.35 o
0 9 2 4.67 -31.75 31.75 o
1 9 2 769.18 862.69 101.84 o
2 9 2 1051.63 1191.78 182.94 o
3 9 2 617.70 577.59 115.05 o
4 9 2 391.57 423.41 100.90 o
-5 10 2 294.79 266.16 60.06 o
-4 10 2 2390.01 2339.23 156.73 o
-3 10 2 1320.09 1322.52 117.27 o
-2 10 2 3076.71 3143.99 154.20 o
-1 10 2 160.55 207.20 58.58 o
0 10 2 136.63 113.41 66.48 o
1 10 2 789.55 730.66 91.28 o
2 10 2 374.52 407.25 74.39 o
3 10 2 1275.36 1489.84 144.75 o
-2 11 2 2110.24 2039.00 152.69 o
-1 11 2 1071.84 1048.49 124.48 o
-2 -11 3 22.68 7.07 45.74 o
-1 -11 3 1371.21 1413.09 171.16 o
0 -11 3 1435.00 1469.20 175.87 o
1 -11 3 3756.15 3860.67 237.64 o
2 -11 3 327.18 479.52 109.39 o
3 -11 3 179.60 54.69 64.60 o
-4 -10 3 515.48 441.80 107.03 o
-3 -10 3 55.29 102.52 47.80 o
-2 -10 3 154.11 172.49 45.02 o
-1 -10 3 1330.03 1558.84 150.65 o
0 -10 3 2376.59 2453.34 110.33 o
1 -10 3 2562.11 2635.23 181.53 o
2 -10 3 2196.50 1908.64 159.84 o
3 -10 3 406.68 520.54 101.37 o
4 -10 3 66.74 87.70 55.17 o
5 -10 3 870.09 929.33 135.79 o
-6 -9 3 1264.30 929.80 145.22 o
-5 -9 3 839.50 932.16 144.28 o
-4 -9 3 2157.76 2203.33 182.47 o
-3 -9 3 296.85 309.31 83.46 o
-2 -9 3 786.58 919.26 94.30 o
-1 -9 3 1477.06 1449.90 125.42 o
0 -9 3 1798.30 1880.20 78.73 o
1 -9 3 6165.53 5996.44 168.06 o
2 -9 3 2139.66 2035.62 123.10 o
3 -9 3 4097.53 3976.48 118.93 o
4 -9 3 33.53 64.02 26.27 o
5 -9 3 14.48 27.63 26.12 o
6 -9 3 2129.24 2341.96 169.74 o
-7 -8 3 21.32 88.17 75.91 o
-6 -8 3 741.77 575.23 117.40 o
-5 -8 3 1656.10 1605.47 168.80 o
-4 -8 3 2362.85 2576.29 181.53 o
-3 -8 3 1513.96 1644.60 157.95 o
-2 -8 3 1196.51 1308.17 83.29 o
-1 -8 3 4.05 23.42 22.41 o
0 -8 3 774.72 732.90 48.54 o
1 -8 3 3160.62 3377.17 74.93 o
2 -8 3 5900.88 5942.27 103.14 o
3 -8 3 3576.47 3482.99 82.85 o
4 -8 3 788.24 671.33 52.23 o
5 -8 3 10.12 9.37 25.10 o
6 -8 3 343.47 398.68 46.27 o
7 -8 3 1566.70 1334.91 98.68 o
-8 -7 3 23.03 -11.32 63.18 o
-7 -7 3 112.94 152.30 75.91 o
-6 -7 3 859.85 735.54 120.23 o
-5 -7 3 428.46 498.38 98.54 o
-4 -7 3 4752.14 5323.74 251.78 o
-3 -7 3 1602.18 1604.56 98.07 o
-2 -7 3 1966.93 2065.31 67.51 o
-1 -7 3 842.74 816.00 43.62 o
0 -7 3 794.13 933.40 42.07 o
1 -7 3 10463.95 10453.72 113.51 o
2 -7 3 6535.84 6590.31 82.21 o
3 -7 3 13109.10 13321.55 134.96 o
4 -7 3 1850.13 1853.75 47.07 o
5 -7 3 830.15 854.11 50.34 o
6 -7 3 539.32 494.87 45.78 o
7 -7 3 156.32 146.03 30.34 o
8 -7 3 1540.22 1474.39 148.99 o
-8 -6 3 578.82 524.31 114.58 o
-7 -6 3 247.47 179.64 71.67 o
-6 -6 3 296.02 354.10 86.76 o
-5 -6 3 727.48 548.36 93.36 o
-4 -6 3 4798.25 4839.41 157.51 o
-3 -6 3 8292.26 8471.73 155.53 o
-2 -6 3 3647.18 3893.99 64.84 o
-1 -6 3 2172.83 2158.23 41.59 o
0 -6 3 1.86 15.76 7.72 o
1 -6 3 4584.30 4877.97 60.06 o
2 -6 3 9944.46 10082.13 104.22 o
3 -6 3 7810.18 7692.38 86.47 o
4 -6 3 6021.65 6086.97 80.87 o
5 -6 3 1662.01 1683.33 54.90 o
6 -6 3 71.49 103.82 21.28 o
7 -6 3 821.66 803.76 70.25 o
8 -6 3 1283.29 1249.01 131.55 o
-9 -5 3 965.38 808.63 133.44 o
-8 -5 3 320.44 394.65 93.36 o
-7 -5 3 1198.83 989.68 129.66 o
-6 -5 3 485.88 547.42 94.30 o
-5 -5 3 212.05 150.21 33.39 o
-4 -5 3 7568.06 7718.14 112.30 o
-3 -5 3 4592.41 4360.71 68.14 o
-2 -5 3 10800.10 10978.73 130.75 o
-1 -5 3 1288.53 1261.95 30.75 o
0 -5 3 3565.27 3370.68 47.40 o
1 -5 3 3709.12 3606.40 48.25 o
2 -5 3 780.36 753.43 19.70 o
3 -5 3 13852.31 13404.04 124.31 o
4 -5 3 1614.21 1555.68 38.40 o
5 -5 3 4674.83 4607.65 90.03 o
6 -5 3 10.11 18.00 24.57 o
7 -5 3 100.84 141.96 28.04 o
8 -5 3 1370.94 1399.44 83.86 o
9 -5 3 218.62 245.18 76.38 o
-10 -4 3 182.98 82.98 80.16 o
-9 -4 3 1216.68 1234.87 164.08 o
-8 -4 3 1238.75 1430.54 162.67 o
-7 -4 3 2245.54 2144.40 165.03 o
-6 -4 3 173.97 165.97 58.94 o
-5 -4 3 159.96 94.64 19.98 o
-4 -4 3 4305.40 4007.98 70.94 o
-3 -4 3 6854.93 6908.09 86.81 o
-2 -4 3 8274.59 7753.76 89.56 o
-1 -4 3 7114.40 7153.68 87.15 o
0 -4 3 2957.13 2953.10 39.49 o
1 -4 3 20.86 44.35 6.52 o
2 -4 3 6183.15 6381.11 65.68 o
3 -4 3 7000.55 6914.00 80.73 o
4 -4 3 5983.12 5849.40 66.00 o
5 -4 3 5252.74 5424.86 84.60 o
6 -4 3 1610.60 1647.16 91.67 o
7 -4 3 5.69 5.09 14.13 o
8 -4 3 45.31 -10.07 23.94 o
9 -4 3 551.36 563.92 95.24 o
-10 -3 3 5.94 5.66 58.47 o
-9 -3 3 1120.74 1149.52 152.77 o
-8 -3 3 87.33 163.14 72.14 o
-7 -3 3 3904.35 4121.88 218.78 o
-6 -3 3 860.48 991.31 74.18 o
-5 -3 3 42.92 118.14 16.97 o
-4 -3 3 7445.69 7681.63 112.88 o
-3 -3 3 3292.18 2998.62 48.26 o
-2 -3 3 23330.25 23957.01 213.76 o
-1 -3 3 13762.64 14322.26 123.75 o
0 -3 3 19260.20 19133.16 165.87 o
1 -3 3 3719.88 3952.14 38.70 o
2 -3 3 1633.26 1642.22 24.59 o
3 -3 3 12497.22 12935.14 99.25 o
4 -3 3 2321.29 2455.58 35.00 o
5 -3 3 7694.43 7799.64 104.28 o
6 -3 3 1249.35 1357.34 45.35 o
7 -3 3 1328.62 1659.68 69.62 o
8 -3 3 363.82 307.31 46.84 o
9 -3 3 37.27 39.84 31.01 o
-10 -2 3 27.51 91.94 68.37 o
-9 -2 3 809.93 818.06 125.42 o
-8 -2 3 731.83 620.50 107.03 o
-7 -2 3 2566.04 2639.23 115.46 o
-6 -2 3 3358.74 3317.22 84.98 o
-5 -2 3 2932.19 2902.36 53.49 o
-4 -2 3 31.18 9.89 8.36 o
-3 -2 3 9302.03 9450.80 100.90 o
-2 -2 3 12391.43 11850.17 106.48 o
-1 -2 3 15314.15 15304.51 184.32 o
0 -2 3 11456.54 12071.99 108.07 o
1 -2 3 8195.72 7988.43 88.67 o
2 -2 3 319.63 285.99 8.68 o
3 -2 3 1345.20 1353.63 18.74 o
4 -2 3 6877.08 7177.09 76.72 o
5 -2 3 10891.23 11434.69 126.94 o
6 -2 3 1941.66 2223.45 66.90 o
7 -2 3 601.93 837.58 45.50 o
8 -2 3 147.87 252.42 63.42 o
9 -2 3 32.48 38.30 30.36 o
-10 -1 3 190.73 134.38 76.85 o
-9 -1 3 907.75 813.34 119.76 o
-8 -1 3 579.89 446.04 87.23 o
-7 -1 3 5795.03 5837.66 157.41 o
-6 -1 3 1883.68 1905.74 49.92 o
-5 -1 3 8526.18 8538.49 96.73 o
-4 -1 3 4.75 0.20 6.82 o
-3 -1 3 116.40 132.87 10.47 o
-2 -1 3 15850.46 15812.52 125.66 o
-1 -1 3 15219.48 16195.95 123.06 o
0 -1 3 27152.22 27543.67 255.36 o
1 -1 3 1599.18 2093.47 87.23 o
2 -1 3 8789.48 9119.67 117.71 o
3 -1 3 1991.38 2176.62 30.49 o
4 -1 3 1014.61 924.50 19.46 o
5 -1 3 12811.66 12610.80 135.66 o
6 -1 3 1552.25 1615.69 53.42 o
7 -1 3 2800.79 3119.16 76.54 o
8 -1 3 69.23 60.80 30.40 o
9 -1 3 44.51 77.19 36.23 o
-11 0 3 113.84 22.16 64.60 o
-10 0 3 94.02 89.59 62.71 o
-9 0 3 104.41 154.65 66.48 o
-8 0 3 1500.53 1366.66 121.18 o
-7 0 3 7137.80 6848.19 121.03 o
-6 0 3 4695.09 4557.94 86.70 o
-5 0 3 9297.36 9138.10 107.54 o
-4 0 3 2547.13 2776.69 51.05 o
-3 0 3 631.11 594.33 36.17 o
-2 0 3 3305.05 3044.92 40.39 o
-1 0 3 16005.93 16215.53 139.44 o
0 0 3 22110.35 21907.76 167.96 o
1 0 3 8380.15 7975.74 83.20 o
2 0 3 129.51 83.92 6.91 o
3 0 3 293.70 338.78 12.01 o
4 0 3 918.38 924.14 20.77 o
5 0 3 3241.81 3208.84 53.50 o
6 0 3 2422.23 2403.57 55.61 o
7 0 3 1452.95 1553.41 49.20 o
8 0 3 591.09 778.18 72.17 o
9 0 3 28.25 9.34 30.67 o
-11 1 3 119.05 4.72 57.99 o
-10 1 3 645.82 664.70 103.02 o
-9 1 3 155.07 212.71 55.87 o
-8 1 3 21.25 30.78 37.01 o
-7 1 3 5101.88 5104.39 101.16 o
-6 1 3 3731.90 3534.11 87.16 o
-5 1 3 13100.04 13323.62 155.54 o
-4 1 3 2385.62 2678.86 56.38 o
-3 1 3 3844.96 4043.77 52.64 o
-2 1 3 1595.37 1187.73 25.45 o
-1 1 3 6685.88 6988.98 61.75 o
0 1 3 17535.12 17149.80 123.08 o
1 1 3 4242.78 3796.51 45.38 o
2 1 3 19405.91 19828.90 172.27 o
3 1 3 11.84 17.02 5.94 o
4 1 3 448.29 472.28 19.84 o
5 1 3 2970.48 2771.38 51.75 o
6 1 3 371.97 357.85 26.84 o
7 1 3 3014.51 3208.38 82.45 o
8 1 3 136.99 200.24 41.04 o
9 1 3 449.90 570.16 58.57 o
-11 2 3 433.15 412.09 105.15 o
-10 2 3 349.45 270.49 55.96 o
-9 2 3 20.79 12.35 31.88 o
-8 2 3 24.23 21.07 48.56 o
-7 2 3 1655.61 1897.42 79.37 o
-6 2 3 4043.21 3884.48 82.52 o
-5 2 3 4217.45 4180.72 83.42 o
-4 2 3 5255.52 4830.19 68.48 o
-3 2 3 1987.44 2058.92 35.35 o
-2 2 3 1286.23 1395.12 28.05 o
-1 2 3 6329.57 6970.74 65.19 o
0 2 3 3532.28 2989.39 37.79 o
1 2 3 13188.65 13301.16 177.43 o
2 2 3 10105.09 9897.26 99.70 o
3 2 3 1572.14 1670.39 32.45 o
4 2 3 869.90 999.07 27.82 o
5 2 3 266.23 214.32 18.53 o
6 2 3 594.05 530.80 30.42 o
7 2 3 1035.25 960.55 62.78 o
8 2 3 640.47 611.76 71.30 o
9 2 3 251.28 162.20 74.97 o
-10 3 3 1576.74 1408.93 116.52 o
-9 3 3 19.78 20.30 33.93 o
-8 3 3 468.07 389.40 59.68 o
-7 3 3 1603.30 1426.86 189.31 o
-6 3 3 1840.00 1855.75 44.69 o
-5 3 3 13076.85 12566.30 164.90 o
-4 3 3 5337.41 5812.32 71.27 o
-3 3 3 15487.22 15407.85 139.57 o
-2 3 3 821.49 999.85 27.02 o
-1 3 3 792.69 885.76 22.52 o
0 3 3 12355.87 12983.49 119.82 o
1 3 3 3171.25 3179.96 56.45 o
2 3 3 20045.14 19843.69 185.36 o
3 3 3 347.47 370.38 19.92 o
4 3 3 1839.98 1785.03 39.93 o
5 3 3 1252.11 1184.43 39.42 o
6 3 3 156.60 67.29 38.98 o
7 3 3 2103.83 1952.55 81.54 o
8 3 3 153.74 140.51 66.01 o
9 3 3 579.92 574.76 109.86 o
-10 4 3 1415.67 1239.21 157.72 o
-9 4 3 1176.65 1298.39 137.91 o
-8 4 3 623.95 529.26 166.44 o
-7 4 3 70.00 -8.49 28.34 o
-6 4 3 456.89 360.65 42.48 o
-5 4 3 3895.01 4091.79 101.78 o
-4 4 3 8794.32 8222.36 112.74 o
-3 4 3 8358.40 8661.58 103.38 o
-2 4 3 3671.46 3716.44 58.60 o
-1 4 3 155.04 213.74 14.78 o
0 4 3 2502.94 2702.23 43.76 o
1 4 3 6977.89 7271.82 95.36 o
2 4 3 5253.17 5218.62 93.33 o
3 4 3 5390.01 5256.81 75.48 o
4 4 3 1490.97 1470.80 42.84 o
5 4 3 152.18 132.57 23.34 o
6 4 3 51.53 16.74 24.84 o
7 4 3 636.64 612.10 76.15 o
8 4 3 441.72 493.19 103.73 o
-10 5 3 1864.03 1930.33 207.46 o
-9 5 3 873.62 788.61 88.94 o
-8 5 3 1471.56 1493.55 117.88 o
-7 5 3 241.32 221.67 49.48 o
-6 5 3 152.08 75.20 27.75 o
-5 5 3 7148.37 6830.56 120.22 o
-4 5 3 5173.43 5188.81 97.32 o
-3 5 3 8099.29 7849.95 94.98 o
-2 5 3 1944.97 1977.71 44.51 o
-1 5 3 2292.61 2266.36 47.19 o
0 5 3 2874.61 2810.55 48.95 o
1 5 3 1296.21 1305.90 35.90 o
2 5 3 6434.54 6390.27 96.40 o
3 5 3 339.01 292.47 23.83 o
4 5 3 2305.74 2375.10 83.58 o
5 5 3 14.67 41.21 23.62 o
6 5 3 341.30 313.55 81.10 o
7 5 3 720.75 497.91 101.84 o
8 5 3 31.88 -28.29 55.64 o
-9 6 3 1847.43 1840.46 135.84 o
-8 6 3 1003.92 961.16 94.14 o
-7 6 3 171.58 223.27 51.13 o
-6 6 3 33.49 30.91 33.65 o
-5 6 3 2778.35 2574.15 117.64 o
-4 6 3 8777.40 8719.70 172.04 o
-3 6 3 8161.44 8389.62 123.53 o
-2 6 3 6922.05 7044.11 108.65 o
-1 6 3 2717.53 2638.07 55.41 o
0 6 3 3.47 -0.77 10.20 o
1 6 3 917.32 1021.23 49.65 o
2 6 3 2543.69 2414.74 85.50 o
3 6 3 2304.22 2448.50 143.57 o
4 6 3 1410.21 1155.07 88.77 o
5 6 3 173.16 209.35 69.31 o
6 6 3 51.25 -43.38 43.38 o
7 6 3 70.98 -44.79 44.79 o
-9 7 3 930.18 928.86 148.52 o
-8 7 3 2926.06 3036.49 181.76 o
-7 7 3 242.46 292.77 78.74 o
-6 7 3 310.12 347.91 87.23 o
-5 7 3 1147.96 1037.24 91.83 o
-4 7 3 609.39 698.83 74.67 o
-3 7 3 9230.47 8939.11 235.02 o
-2 7 3 3082.71 3177.10 129.53 o
-1 7 3 5469.14 5488.37 140.61 o
0 7 3 38.08 12.74 22.39 o
1 7 3 0.61 10.26 19.94 o
2 7 3 2955.01 3301.01 135.65 o
3 7 3 152.54 283.37 75.44 o
4 7 3 3104.24 3235.93 205.10 o
5 7 3 508.31 411.62 94.30 o
6 7 3 498.81 590.79 120.70 o
-8 8 3 2176.93 1915.90 140.06 o
-7 8 3 1900.19 2110.38 252.96 o
-6 8 3 394.40 306.62 61.56 o
-5 8 3 60.34 46.56 43.38 o
-4 8 3 879.42 871.04 86.38 o
-3 8 3 2089.75 2220.79 116.81 o
-2 8 3 4170.74 3884.84 153.75 o
-1 8 3 3190.72 2899.49 247.07 o
0 8 3 1393.74 1104.25 94.58 o
1 8 3 67.76 100.10 49.74 o
2 8 3 645.11 703.21 79.19 o
3 8 3 767.06 802.50 128.72 o
4 8 3 641.01 784.11 128.25 o
5 8 3 423.13 520.54 120.70 o
-7 9 3 1656.04 1518.09 176.11 o
-6 9 3 1831.38 1729.10 135.30 o
-5 9 3 4.26 -3.68 35.55 o
-4 9 3 21.00 81.23 43.51 o
-3 9 3 2672.59 2508.38 131.61 o
-2 9 3 1466.96 1562.87 318.50 o
-1 9 3 3898.59 3625.77 157.20 o
0 9 3 938.99 922.85 95.72 o
1 9 3 925.66 816.60 161.02 o
2 9 3 497.60 659.06 85.26 o
3 9 3 79.66 112.99 49.51 o
4 9 3 1176.35 1084.93 155.60 o
-5 10 3 598.41 657.14 91.66 o
-4 10 3 20.30 47.96 46.32 o
-3 10 3 398.93 464.93 76.47 o
-2 10 3 1799.64 1735.60 356.46 o
-1 10 3 2617.57 2621.72 203.93 o
0 10 3 1152.18 982.80 105.32 o
1 10 3 592.58 468.84 78.03 o
2 10 3 104.53 61.22 52.09 o
-1 -11 4 18.78 108.00 41.46 o
0 -11 4 286.82 396.53 90.53 o
1 -11 4 1407.78 1209.41 148.05 o
2 -11 4 3075.98 2681.44 195.67 o
-4 -10 4 772.35 694.78 117.17 o
-3 -10 4 3155.90 3320.26 224.44 o
-2 -10 4 752.65 820.89 112.22 o
-1 -10 4 734.06 902.46 112.22 o
0 -10 4 369.06 396.52 73.79 o
1 -10 4 158.27 152.77 64.60 o
2 -10 4 3607.74 3802.20 216.89 o
3 -10 4 2210.99 1981.26 158.43 o
4 -10 4 3651.09 3454.70 205.58 o
-6 -9 4 22.99 57.52 74.97 o
-5 -9 4 96.07 112.22 75.44 o
-4 -9 4 795.54 800.20 86.20 o
-3 -9 4 2412.56 2439.43 125.66 o
-2 -9 4 1874.86 1899.29 137.68 o
-1 -9 4 1800.96 1779.59 106.56 o
0 -9 4 54.48 68.06 39.37 o
1 -9 4 828.61 805.44 50.51 o
2 -9 4 1737.55 1726.60 62.67 o
3 -9 4 3456.87 3415.35 107.52 o
4 -9 4 3882.22 3583.56 130.73 o
5 -9 4 2006.80 1866.93 158.19 o
6 -9 4 107.26 169.27 45.06 o
-7 -8 4 132.14 248.48 99.49 o
-6 -8 4 185.19 147.58 75.91 o
-5 -8 4 673.76 607.30 114.58 o
-4 -8 4 958.94 1125.01 139.56 o
-3 -8 4 5855.90 5439.13 172.15 o
-2 -8 4 2723.78 2791.59 94.90 o
-1 -8 4 5015.29 5097.42 109.94 o
0 -8 4 250.87 255.35 28.96 o
1 -8 4 189.30 166.09 24.32 o
2 -8 4 3153.12 3247.61 75.81 o
3 -8 4 1700.55 1727.86 58.60 o
4 -8 4 4183.26 4254.63 223.76 o
5 -8 4 764.85 764.72 56.16 o
6 -8 4 1177.99 1206.24 90.93 o
7 -8 4 94.77 60.91 34.41 o
-8 -7 4 924.30 949.14 157.01 o
-7 -7 4 776.68 721.40 126.83 o
-6 -7 4 489.17 408.79 93.83 o
-5 -7 4 16.31 29.70 48.09 o
-4 -7 4 1089.01 807.68 110.33 o
-3 -7 4 4985.71 5001.37 128.90 o
-2 -7 4 6929.11 7141.08 108.03 o
-1 -7 4 6482.04 6628.38 99.46 o
0 -7 4 2705.07 2732.61 52.91 o
1 -7 4 664.33 591.03 25.92 o
2 -7 4 711.97 740.99 34.99 o
3 -7 4 3493.23 3557.91 65.16 o
4 -7 4 4324.14 4243.86 73.34 o
5 -7 4 2911.87 3014.31 76.95 o
6 -7 4 1088.96 1155.18 66.20 o
7 -7 4 166.29 379.56 74.50 o
-8 -6 4 938.69 890.20 141.45 o
-7 -6 4 735.39 612.01 110.80 o
-6 -6 4 2767.90 2729.53 187.66 o
-5 -6 4 22.25 -29.70 29.70 o
-4 -6 4 62.16 71.11 41.92 o
-3 -6 4 3108.24 3005.12 70.65 o
-2 -6 4 2095.65 2050.29 42.44 o
-1 -6 4 6541.37 6429.38 79.29 o
0 -6 4 527.28 567.25 25.65 o
1 -6 4 4884.86 4697.75 61.66 o
2 -6 4 1897.33 2082.48 37.75 o
3 -6 4 903.02 911.69 30.46 o
4 -6 4 6702.21 6807.00 93.24 o
5 -6 4 3144.37 3007.81 72.38 o
6 -6 4 5579.28 5350.06 106.07 o
7 -6 4 432.60 595.51 91.00 o
8 -6 4 589.96 444.63 81.57 o
-9 -5 4 140.14 89.59 72.61 o
-8 -5 4 761.11 946.78 146.17 o
-7 -5 4 1070.99 1069.84 134.85 o
-6 -5 4 2415.97 2518.77 168.33 o
-5 -5 4 1046.04 1086.00 85.65 o
-4 -5 4 3.85 19.60 10.29 o
-3 -5 4 3100.69 2999.84 59.80 o
-2 -5 4 7775.19 7833.57 88.76 o
-1 -5 4 10110.88 9962.74 101.60 o
0 -5 4 7207.72 7455.38 79.66 o
1 -5 4 4500.00 4116.79 54.38 o
2 -5 4 704.16 726.26 19.03 o
3 -5 4 623.84 691.94 24.59 o
4 -5 4 2329.40 2386.74 50.72 o
5 -5 4 4401.83 4403.55 84.97 o
6 -5 4 1794.32 1851.21 56.14 o
7 -5 4 1251.98 1354.18 60.43 o
8 -5 4 9.70 10.84 39.13 o
-10 -4 4 1.23 -24.05 66.01 o
-9 -4 4 32.81 29.70 58.94 o
-8 -4 4 1254.63 1546.06 176.81 o
-7 -4 4 752.36 856.25 117.40 o
-6 -4 4 5746.20 5732.65 407.38 o
-5 -4 4 3493.09 3686.24 88.88 o
-4 -4 4 3968.66 4047.53 66.04 o
-3 -4 4 786.10 728.41 40.67 o
-2 -4 4 747.21 680.45 39.67 o
-1 -4 4 16755.48 17306.94 151.02 o
0 -4 4 11174.06 10972.08 95.04 o
1 -4 4 13446.80 13860.61 112.57 o
2 -4 4 87.23 96.97 8.09 o
3 -4 4 1551.89 1533.92 28.30 o
4 -4 4 4059.92 3994.78 58.63 o
5 -4 4 2343.15 2408.75 82.89 o
6 -4 4 6933.68 6878.68 103.00 o
7 -4 4 814.11 961.04 44.33 o
8 -4 4 980.92 1114.63 115.99 o
9 -4 4 125.57 71.67 47.15 o
-10 -3 4 8.62 73.55 58.47 o
-9 -3 4 2.21 61.30 59.41 o
-8 -3 4 893.12 1035.89 134.38 o
-7 -3 4 1684.56 1740.32 145.69 o
-6 -3 4 4458.66 4681.62 95.46 o
-5 -3 4 9366.38 9300.25 125.28 o
-4 -3 4 3325.20 3617.64 59.17 o
-3 -3 4 8.23 4.01 6.41 o
-2 -3 4 637.24 744.98 23.44 o
-1 -3 4 12127.65 11271.82 100.61 o
0 -3 4 13456.25 13855.34 109.27 o
1 -3 4 12153.50 11409.12 94.73 o
2 -3 4 4048.56 4059.49 48.35 o
3 -3 4 1074.31 1022.92 19.13 o
4 -3 4 843.04 907.62 23.08 o
5 -3 4 1608.99 1523.42 41.28 o
6 -3 4 2088.28 2020.49 54.07 o
7 -3 4 2635.36 2696.43 109.39 o
8 -3 4 636.09 735.07 81.81 o
9 -3 4 171.35 241.41 45.80 o
-10 -2 4 156.04 117.40 74.50 o
-9 -2 4 433.75 378.15 95.24 o
-8 -2 4 967.68 814.29 118.35 o
-7 -2 4 470.66 377.67 79.68 o
-6 -2 4 5975.42 5843.88 106.63 o
-5 -2 4 4142.17 4476.61 76.37 o
-4 -2 4 12506.96 12420.54 144.18 o
-3 -2 4 89.20 92.11 9.49 o
-2 -2 4 342.59 354.33 16.24 o
-1 -2 4 24849.95 27236.13 213.20 o
0 -2 4 13049.96 13148.63 114.01 o
1 -2 4 31007.97 32342.29 491.07 o
2 -2 4 2549.56 2422.54 37.03 o
3 -2 4 11753.89 11580.48 141.49 o
4 -2 4 19.87 58.88 8.59 o
5 -2 4 189.67 199.88 17.98 o
6 -2 4 3357.93 3481.35 72.24 o
7 -2 4 223.86 239.44 26.17 o
8 -2 4 1144.41 1249.69 68.23 o
9 -2 4 42.30 116.70 39.51 o
-10 -1 4 413.98 259.33 91.94 o
-9 -1 4 487.84 471.50 97.60 o
-8 -1 4 8.05 -11.79 41.49 o
-7 -1 4 1007.10 1004.89 69.90 o
-6 -1 4 5169.43 5023.10 96.52 o
-5 -1 4 5442.57 5331.84 84.15 o
-4 -1 4 5984.72 5997.38 72.75 o
-3 -1 4 14033.03 14716.89 152.68 o
-2 -1 4 1168.78 979.05 20.73 o
-1 -1 4 6155.15 6259.29 81.06 o
0 -1 4 8032.07 7687.82 82.38 o
1 -1 4 10515.64 10778.56 284.32 o
2 -1 4 8341.16 8277.69 131.03 o
3 -1 4 2614.28 2334.09 39.83 o
4 -1 4 1819.91 1890.88 32.44 o
5 -1 4 55.51 77.54 13.32 o
6 -1 4 1006.38 980.54 42.26 o
7 -1 4 2355.40 2432.88 65.97 o
8 -1 4 674.35 775.74 69.99 o
9 -1 4 452.20 509.28 63.43 o
-11 0 4 1106.41 1159.43 172.57 o
-10 0 4 326.74 400.31 99.96 o
-9 0 4 1449.41 1444.62 117.02 o
-8 0 4 145.78 153.50 42.97 o
-7 0 4 70.75 43.97 41.37 o
-6 0 4 4523.38 4475.88 89.46 o
-5 0 4 2181.41 2128.56 49.47 o
-4 0 4 13778.42 13605.76 138.73 o
-3 0 4 6932.60 6953.37 74.17 o
-2 0 4 6750.78 6851.50 84.00 o
-1 0 4 77.80 79.93 6.89 o
0 0 4 791.70 831.38 15.05 o
1 0 4 28694.31 28485.74 374.03 o
2 0 4 2826.21 2897.50 53.43 o
3 0 4 11213.95 11644.27 98.59 o
4 0 4 255.60 308.97 14.85 o
5 0 4 1124.01 1305.61 36.06 o
6 0 4 1295.35 1171.45 38.58 o
7 0 4 102.01 51.56 16.02 o
8 0 4 2348.53 1999.14 96.94 o
9 0 4 188.17 250.89 50.46 o
-11 1 4 538.16 484.71 119.76 o
-10 1 4 709.19 736.97 89.42 o
-9 1 4 1072.94 1255.58 115.52 o
-8 1 4 450.60 533.58 117.40 o
-7 1 4 90.74 109.65 28.67 o
-6 1 4 927.15 959.08 48.99 o
-5 1 4 6311.14 6405.15 84.45 o
-4 1 4 8916.25 8807.87 100.12 o
-3 1 4 17567.46 18044.03 181.56 o
-2 1 4 17901.45 18614.02 168.27 o
-1 1 4 509.86 474.65 15.33 o
0 1 4 146.72 225.53 9.16 o
1 1 4 2762.52 2716.92 30.54 o
2 1 4 7734.24 8190.25 80.10 o
3 1 4 10118.88 9844.76 97.44 o
4 1 4 971.92 1161.77 27.35 o
5 1 4 258.13 351.80 23.68 o
6 1 4 28.54 31.81 13.51 o
7 1 4 555.53 478.76 45.87 o
8 1 4 469.36 482.61 48.52 o
9 1 4 546.71 535.09 65.78 o
-10 2 4 647.11 597.75 83.35 o
-9 2 4 3900.44 3717.13 159.20 o
-8 2 4 642.23 656.02 75.63 o
-7 2 4 1352.43 1315.13 59.86 o
-6 2 4 521.48 508.65 36.65 o
-5 2 4 1097.29 1052.44 35.51 o
-4 2 4 21569.38 21742.58 219.32 o
-3 2 4 8201.81 8134.29 91.60 o
-2 2 4 20115.46 20035.91 182.37 o
-1 2 4 1402.03 1417.70 24.72 o
0 2 4 932.04 749.36 18.61 o
1 2 4 7136.86 7376.71 73.69 o
2 2 4 1411.68 1441.73 28.33 o
3 2 4 13021.40 13409.63 132.40 o
4 2 4 804.13 935.26 30.44 o
5 2 4 1474.86 1665.68 46.83 o
6 2 4 54.95 39.89 15.00 o
7 2 4 18.51 34.54 22.32 o
8 2 4 598.07 479.01 51.11 o
-10 3 4 793.98 791.30 90.64 o
-9 3 4 2777.00 2879.98 142.62 o
-8 3 4 1703.96 1752.88 113.50 o
-7 3 4 1480.30 1374.20 127.31 o
-6 3 4 695.50 783.79 47.51 o
-5 3 4 698.02 715.90 27.86 o
-4 3 4 2707.54 2421.53 43.65 o
-3 3 4 11595.34 11487.95 120.87 o
-2 3 4 13511.08 13314.27 127.90 o
-1 3 4 3960.29 3621.74 49.85 o
0 3 4 55.14 36.76 7.66 o
1 3 4 151.00 190.97 12.87 o
2 3 4 4071.55 4233.56 59.58 o
3 3 4 6464.52 6247.24 86.45 o
4 3 4 3582.09 3665.61 65.09 o
5 3 4 1335.57 1577.31 49.10 o
6 3 4 465.31 670.22 53.12 o
7 3 4 42.47 -19.49 19.49 o
8 3 4 113.70 51.87 54.69 o
-10 4 4 160.35 138.64 115.05 o
-9 4 4 2733.73 2919.70 166.44 o
-8 4 4 1611.73 1645.10 118.49 o
-7 4 4 1791.74 1735.90 102.52 o
-6 4 4 134.03 94.08 26.80 o
-5 4 4 94.82 120.89 24.31 o
-4 4 4 3628.04 3759.15 70.91 o
-3 4 4 3873.45 3687.22 67.27 o
-2 4 4 11707.23 11248.04 117.42 o
-1 4 4 3815.40 3918.26 56.59 o
0 4 4 7635.01 7329.30 92.49 o
1 4 4 1937.65 1917.61 37.85 o
2 4 4 18.97 17.04 9.42 o
3 4 4 2575.47 2523.84 54.20 o
4 4 4 265.51 232.30 22.16 o
5 4 4 3526.76 3611.34 104.66 o
6 4 4 25.96 42.81 24.16 o
7 4 4 331.35 477.31 131.79 o
8 4 4 233.44 144.75 78.27 o
-10 5 4 308.20 324.88 113.63 o
-9 5 4 1448.03 1570.97 127.87 o
-8 5 4 3830.20 3986.65 167.62 o
-7 5 4 5350.98 5239.79 182.20 o
-6 5 4 1878.42 2057.99 108.52 o
-5 5 4 126.12 118.28 24.76 o
-4 5 4 198.95 119.36 20.16 o
-3 5 4 2386.37 2522.40 64.42 o
-2 5 4 4401.85 4476.61 72.23 o
-1 5 4 4656.21 4436.80 97.06 o
0 5 4 5952.32 6142.25 86.55 o
1 5 4 21.40 26.33 10.31 o
2 5 4 1447.31 1503.93 41.86 o
3 5 4 1819.80 1783.64 65.54 o
4 5 4 1080.67 1071.79 65.93 o
5 5 4 1177.90 1203.55 73.31 o
6 5 4 659.05 918.49 125.89 o
7 5 4 103.34 213.12 75.91 o
-9 6 4 899.09 929.33 101.85 o
-8 6 4 929.11 1037.77 99.91 o
-7 6 4 4427.44 4464.91 436.85 o
-6 6 4 1376.88 1363.71 110.10 o
-5 6 4 2927.73 3046.02 142.16 o
-4 6 4 498.25 583.30 110.10 o
-3 6 4 453.22 554.33 51.73 o
-2 6 4 5023.04 5205.60 91.93 o
-1 6 4 2549.14 2690.78 62.31 o
0 6 4 9741.72 9508.74 123.78 o
1 6 4 777.79 683.17 39.68 o
2 6 4 744.76 670.86 46.86 o
3 6 4 1325.75 1117.28 136.50 o
4 6 4 239.20 203.89 45.44 o
5 6 4 1574.21 1533.80 163.61 o
6 6 4 78.50 85.81 63.18 o
-8 7 4 1237.13 1332.21 122.22 o
-7 7 4 2410.60 2074.73 274.18 o
-6 7 4 2793.48 3169.97 148.05 o
-5 7 4 597.58 539.75 110.57 o
-4 7 4 38.87 89.52 40.66 o
-3 7 4 735.71 878.29 82.15 o
-2 7 4 2842.99 2874.30 124.33 o
-1 7 4 5380.66 5375.95 172.83 o
0 7 4 3367.45 3374.04 135.26 o
1 7 4 2128.05 1974.07 126.36 o
2 7 4 480.25 376.02 57.30 o
3 7 4 4.48 -0.86 34.18 o
4 7 4 179.75 94.30 60.35 o
5 7 4 387.81 364.94 94.77 o
-8 8 4 421.39 518.19 152.53 o
-7 8 4 2964.48 3271.33 270.88 o
-6 8 4 2850.37 2872.76 184.83 o
-5 8 4 3595.29 3682.27 201.33 o
-4 8 4 72.20 93.74 43.66 o
-3 8 4 275.08 317.34 55.91 o
-2 8 4 1592.94 1665.76 221.37 o
-1 8 4 1377.82 1473.56 120.94 o
0 8 4 4405.73 4171.51 161.44 o
1 8 4 530.57 517.78 68.51 o
2 8 4 1607.83 1494.96 128.96 o
3 8 4 296.57 395.45 100.43 o
4 8 4 13.53 67.42 68.84 o
-6 9 4 2180.67 2388.74 171.63 o
-5 9 4 1998.42 2022.95 276.07 o
-4 9 4 1101.72 1070.07 164.55 o
-3 9 4 122.73 154.80 48.70 o
-2 9 4 202.38 243.17 58.12 o
-1 9 4 879.40 1004.97 97.35 o
0 9 4 1637.38 1623.89 124.16 o
1 9 4 1314.30 1254.88 110.42 o
2 9 4 831.43 965.43 159.84 o
3 9 4 221.97 325.81 103.26 o
-4 10 4 924.47 1044.51 151.12 o
-3 10 4 959.89 1156.97 210.76 o
-2 10 4 26.29 47.19 46.07 o
-1 10 4 42.52 71.18 49.98 o
0 10 4 1599.35 1766.38 200.39 o
1 10 4 337.85 592.68 132.96 o
0 -11 5 1827.58 2116.11 176.34 o
-4 -10 5 67.46 29.70 56.11 o
-3 -10 5 886.04 741.20 113.16 o
-2 -10 5 3615.97 3565.03 200.86 o
-1 -10 5 3038.91 3257.61 184.83 o
0 -10 5 1653.26 1811.97 113.40 o
1 -10 5 629.70 574.21 64.86 o
2 -10 5 5.54 -21.51 27.98 o
3 -10 5 766.60 911.81 88.60 o
4 -10 5 2420.53 2450.11 120.69 o
-5 -9 5 491.94 512.22 147.34 o
-4 -9 5 57.87 51.66 41.58 o
-3 -9 5 64.91 27.15 50.92 o
-2 -9 5 3571.91 3273.17 183.89 o
-1 -9 5 1991.90 2063.80 144.52 o
0 -9 5 4838.55 4714.96 173.24 o
1 -9 5 559.38 533.05 62.13 o
2 -9 5 294.71 262.77 31.57 o
3 -9 5 774.64 681.91 54.35 o
4 -9 5 483.67 476.91 76.15 o
5 -9 5 3296.30 3246.56 160.31 o
-7 -8 5 1294.82 1557.85 194.73 o
-6 -8 5 1629.71 2104.32 207.93 o
-5 -8 5 1471.29 1766.10 125.50 o
-4 -8 5 296.59 312.07 57.01 o
-3 -8 5 14.29 16.07 29.84 o
-2 -8 5 2078.71 2106.35 71.12 o
-1 -8 5 2706.29 2687.72 93.17 o
0 -8 5 4282.27 4304.24 111.31 o
1 -8 5 3739.42 3635.45 77.98 o
2 -8 5 880.82 918.05 45.01 o
3 -8 5 158.54 174.98 22.31 o
4 -8 5 1066.69 1116.66 65.54 o
5 -8 5 1526.69 1313.19 81.90 o
6 -8 5 2388.06 2284.59 104.33 o
-8 -7 5 23.53 30.18 73.55 o
-7 -7 5 846.92 825.60 138.62 o
-6 -7 5 624.18 744.50 124.01 o
-5 -7 5 3862.30 3998.35 224.44 o
-4 -7 5 361.75 312.66 55.30 o
-3 -7 5 403.46 402.43 35.59 o
-2 -7 5 1834.87 1777.82 54.97 o
-1 -7 5 1415.36 1625.48 42.30 o
0 -7 5 10993.74 10744.26 124.10 o
1 -7 5 3755.61 3752.80 86.47 o
2 -7 5 7139.72 6666.58 95.48 o
3 -7 5 439.61 356.03 23.75 o
4 -7 5 6.01 1.94 10.53 o
5 -7 5 1991.81 2018.18 50.02 o
6 -7 5 812.97 790.00 54.87 o
7 -7 5 2545.84 2764.89 158.90 o
-8 -6 5 66.42 32.53 62.24 o
-7 -6 5 554.20 544.11 107.50 o
-6 -6 5 1384.01 1500.32 165.03 o
-5 -6 5 4348.22 4265.69 221.13 o
-4 -6 5 2155.86 2266.16 63.94 o
-3 -6 5 482.58 455.24 38.87 o
-2 -6 5 431.59 416.85 23.85 o
-1 -6 5 3304.91 3188.66 56.42 o
0 -6 5 5737.76 5853.74 76.89 o
1 -6 5 6801.68 6687.21 89.27 o
2 -6 5 4999.25 4926.08 72.44 o
3 -6 5 1661.87 1620.45 38.69 o
4 -6 5 25.19 54.79 13.35 o
5 -6 5 319.14 275.66 23.64 o
6 -6 5 1940.24 1929.07 59.56 o
7 -6 5 953.38 976.06 73.18 o
8 -6 5 659.21 778.92 96.66 o
-9 -5 5 52.32 120.70 83.93 o
-8 -5 5 4.79 41.02 60.82 o
-7 -5 5 896.16 890.20 130.13 o
-6 -5 5 648.82 618.61 98.07 o
-5 -5 5 7818.24 7490.89 205.85 o
-4 -5 5 4680.78 4730.81 78.11 o
-3 -5 5 6332.70 6162.21 79.56 o
-2 -5 5 240.24 226.04 15.73 o
-1 -5 5 306.54 425.20 19.83 o
0 -5 5 14273.01 13931.43 136.97 o
1 -5 5 3888.14 3842.92 48.41 o
2 -5 5 8868.35 8821.88 92.92 o
3 -5 5 1125.05 1002.00 30.24 o
4 -5 5 1184.76 1224.61 35.02 o
5 -5 5 2107.47 1974.07 51.24 o
6 -5 5 959.31 912.09 40.94 o
7 -5 5 3682.14 3469.84 142.82 o
8 -5 5 391.69 355.51 68.37 o
-9 -4 5 347.85 304.12 92.89 o
-8 -4 5 241.23 170.68 77.33 o
-7 -4 5 294.79 227.74 73.55 o
-6 -4 5 1336.73 1303.71 134.38 o
-5 -4 5 2474.75 2549.00 60.15 o
-4 -4 5 3272.47 3338.01 59.82 o
-3 -4 5 6466.86 6858.53 81.62 o
-2 -4 5 585.52 611.66 23.34 o
-1 -4 5 131.59 111.76 9.88 o
0 -4 5 5836.48 5999.37 58.90 o
1 -4 5 10128.71 10670.57 94.41 o
2 -4 5 6618.81 6279.89 67.73 o
3 -4 5 2739.51 2755.17 67.38 o
4 -4 5 2728.47 2710.91 78.65 o
5 -4 5 638.06 669.57 27.19 o
6 -4 5 689.73 559.95 36.37 o
7 -4 5 665.02 567.57 36.71 o
8 -4 5 1076.60 1079.31 62.97 o
-10 -3 5 1220.80 1089.17 161.25 o
-9 -3 5 304.62 298.93 96.19 o
-8 -3 5 1039.54 961.87 133.91 o
-7 -3 5 412.94 538.93 97.13 o
-6 -3 5 845.92 858.07 61.01 o
-5 -3 5 7507.81 7491.39 119.28 o
-4 -3 5 4690.47 4844.24 71.73 o
-3 -3 5 14656.87 14086.00 133.81 o
-2 -3 5 508.59 667.61 19.94 o
-1 -3 5 5538.78 5122.63 52.52 o
0 -3 5 4126.33 4286.91 41.46 o
1 -3 5 3088.98 3083.93 49.63 o
2 -3 5 9739.63 9994.24 122.09 o
3 -3 5 1715.52 1692.58 34.73 o
4 -3 5 2634.95 2637.29 39.85 o
5 -3 5 13.42 2.33 8.03 o
6 -3 5 77.37 109.80 23.41 o
7 -3 5 985.88 901.84 43.42 o
8 -3 5 353.66 342.13 38.02 o
-10 -2 5 810.86 930.28 144.28 o
-9 -2 5 725.51 922.26 140.51 o
-8 -2 5 942.48 943.95 128.25 o
-7 -2 5 153.61 114.10 55.64 o
-6 -2 5 278.26 262.41 25.80 o
-5 -2 5 2988.55 2816.69 50.59 o
-4 -2 5 6869.82 6788.83 80.87 o
-3 -2 5 13063.55 13334.83 118.78 o
-2 -2 5 12340.96 11951.00 109.69 o
-1 -2 5 2703.84 2726.29 33.94 o
0 -2 5 94.46 115.46 8.40 o
1 -2 5 2981.36 3216.12 135.32 o
2 -2 5 6526.73 6344.07 212.18 o
3 -2 5 10157.62 10158.62 143.83 o
4 -2 5 4469.10 4200.70 75.78 o
5 -2 5 1347.66 1470.44 41.19 o
6 -2 5 36.91 9.95 11.50 o
7 -2 5 107.23 38.00 15.74 o
8 -2 5 530.77 385.90 39.16 o
9 -2 5 663.91 649.69 66.66 o
-10 -1 5 1054.50 1053.81 148.05 o
-9 -1 5 1043.75 1054.28 140.98 o
-8 -1 5 2496.47 2668.48 132.96 o
-7 -1 5 427.98 535.19 71.90 o
-6 -1 5 418.93 412.10 30.86 o
-5 -1 5 3814.76 3582.85 67.63 o
-4 -1 5 1830.85 1795.35 36.17 o
-3 -1 5 16768.61 15995.15 166.67 o
-2 -1 5 9145.89 9243.80 84.22 o
-1 -1 5 17426.32 17037.47 140.21 o
0 -1 5 2593.74 2760.46 34.15 o
1 -1 5 106.00 67.90 32.53 o
2 -1 5 11534.13 11245.82 317.32 o
3 -1 5 4994.60 5131.24 72.42 o
4 -1 5 8798.81 8427.21 96.68 o
5 -1 5 869.41 851.04 44.10 o
6 -1 5 2272.43 2454.86 59.19 o
7 -1 5 354.59 347.39 29.62 o
8 -1 5 5.92 -5.67 24.16 o
9 -1 5 541.81 465.66 60.61 o
-10 0 5 673.65 647.37 125.42 o
-9 0 5 1695.96 1785.18 215.71 o
-8 0 5 2559.51 2871.06 133.36 o
-7 0 5 2376.58 2632.36 118.35 o
-6 0 5 1273.70 1375.61 49.24 o
-5 0 5 752.52 705.63 46.13 o
-4 0 5 3285.76 3313.28 50.46 o
-3 0 5 10671.09 10790.58 122.07 o
-2 0 5 15159.17 15246.36 154.33 o
-1 0 5 14571.12 14266.12 113.87 o
0 0 5 1355.52 1431.74 18.35 o
1 0 5 1.02 11.81 4.73 o
2 0 5 3179.15 3311.98 62.41 o
3 0 5 6222.54 6383.48 63.54 o
4 0 5 3864.84 3859.33 93.48 o
5 0 5 2069.68 2221.62 46.89 o
6 0 5 213.34 321.80 24.92 o
7 0 5 172.98 336.61 27.94 o
8 0 5 158.31 99.21 34.07 o
-10 1 5 816.69 774.50 92.02 o
-9 1 5 1265.15 1286.13 204.87 o
-8 1 5 5581.32 5454.60 135.34 o
-7 1 5 2477.92 2440.00 82.49 o
-6 1 5 3494.10 3483.35 68.97 o
-5 1 5 46.40 43.23 10.62 o
-4 1 5 22.84 18.94 8.33 o
-3 1 5 14169.58 13972.74 163.49 o
-2 1 5 5239.53 5096.44 63.51 o
-1 1 5 17095.92 17103.14 136.78 o
0 1 5 923.11 841.94 16.02 o
1 1 5 2972.98 2679.50 32.50 o
2 1 5 2835.41 2853.53 37.37 o
3 1 5 1969.94 1956.79 40.65 o
4 1 5 5002.10 5132.65 112.72 o
5 1 5 812.46 901.35 33.34 o
6 1 5 1718.59 1969.56 71.07 o
7 1 5 2.14 11.75 16.41 o
8 1 5 87.31 136.93 37.86 o
-10 2 5 72.04 49.11 46.33 o
-9 2 5 666.09 608.62 78.09 o
-8 2 5 3662.61 3688.67 105.43 o
-7 2 5 4505.42 4540.36 172.65 o
-6 2 5 2346.32 2405.51 56.01 o
-5 2 5 1782.49 1741.92 62.73 o
-4 2 5 318.96 377.03 21.37 o
-3 2 5 6783.71 6563.81 106.77 o
-2 2 5 8735.57 8871.42 97.39 o
-1 2 5 13403.44 13030.81 113.07 o
0 2 5 16204.06 16798.98 137.72 o
1 2 5 2924.63 2864.30 39.42 o
2 2 5 90.06 71.35 9.34 o
3 2 5 353.85 369.11 27.36 o
4 2 5 1965.79 1918.07 46.93 o
5 2 5 1854.81 1876.55 50.31 o
6 2 5 464.67 525.52 33.88 o
7 2 5 380.43 338.74 39.87 o
8 2 5 3.21 41.68 35.51 o
-10 3 5 94.66 25.19 38.46 o
-9 3 5 177.26 274.28 56.92 o
-8 3 5 3400.85 3539.18 152.87 o
-7 3 5 2872.67 3037.91 132.49 o
-6 3 5 5561.39 5323.37 94.59 o
-5 3 5 1317.31 1493.03 37.84 o
-4 3 5 3014.90 3021.76 52.77 o
-3 3 5 2664.82 2572.85 50.83 o
-2 3 5 1031.90 988.26 30.55 o
-1 3 5 14079.61 14325.64 135.42 o
0 3 5 2063.78 2087.19 36.97 o
1 3 5 12397.71 12476.14 120.11 o
2 3 5 6.87 3.93 8.43 o
3 3 5 107.00 94.39 13.91 o
4 3 5 1890.62 2000.67 56.42 o
5 3 5 322.68 347.72 28.27 o
6 3 5 2605.26 2669.32 90.67 o
7 3 5 72.12 110.58 30.59 o
8 3 5 421.11 560.15 103.26 o
-10 4 5 183.27 158.61 69.78 o
-9 4 5 23.18 56.97 42.54 o
-8 4 5 1613.91 1577.27 159.84 o
-7 4 5 4109.37 3640.44 149.52 o
-6 4 5 5586.59 5981.02 185.68 o
-5 4 5 3019.80 3024.13 75.91 o
-4 4 5 988.12 1004.94 43.41 o
-3 4 5 57.86 38.51 11.50 o
-2 4 5 1159.03 1307.94 36.31 o
-1 4 5 7129.36 6719.18 82.73 o
0 4 5 8732.97 8843.29 98.53 o
1 4 5 4509.44 4489.73 63.22 o
2 4 5 507.27 523.84 26.50 o
3 4 5 14.30 28.72 11.43 o
4 4 5 93.02 40.98 17.70 o
5 4 5 953.20 832.47 59.43 o
6 4 5 578.71 429.82 46.50 o
7 4 5 374.36 372.02 90.06 o
-9 5 5 404.72 416.24 73.46 o
-8 5 5 142.90 116.30 46.63 o
-7 5 5 850.86 897.03 88.51 o
-6 5 5 8545.11 8341.50 235.02 o
-5 5 5 2548.98 2686.32 121.34 o
-4 5 5 3052.27 3007.71 90.99 o
-3 5 5 7.75 3.56 11.93 o
-2 5 5 10.92 17.91 10.43 o
-1 5 5 5447.69 5671.07 84.54 o
0 5 5 2471.94 2583.26 53.67 o
1 5 5 12532.62 12782.28 157.55 o
2 5 5 1543.18 1495.31 50.41 o
3 5 5 343.16 350.54 34.49 o
4 5 5 338.50 321.61 40.59 o
5 5 5 7.45 -6.49 21.54 o
6 5 5 1185.35 922.73 125.42 o
-9 6 5 25.85 60.13 48.18 o
-8 6 5 128.71 140.95 52.84 o
-7 6 5 1155.27 921.42 91.38 o
-6 6 5 3456.83 3677.19 152.14 o
-5 6 5 6936.23 6749.22 207.28 o
-4 6 5 3993.73 3672.33 385.22 o
-3 6 5 979.03 930.78 97.57 o
-2 6 5 89.45 22.38 22.97 o
-1 6 5 91.02 81.51 23.02 o
0 6 5 1075.55 1222.76 53.72 o
1 6 5 1492.84 1443.91 62.84 o
2 6 5 1371.02 1322.83 65.38 o
3 6 5 702.00 722.26 75.49 o
4 6 5 9.50 -27.82 44.32 o
5 6 5 345.33 297.52 84.87 o
6 6 5 136.66 -34.89 50.45 o
-8 7 5 5.74 50.97 43.43 o
-7 7 5 137.13 183.46 117.17 o
-6 7 5 2881.22 2845.56 159.84 o
-5 7 5 2293.09 2218.55 121.01 o
-4 7 5 5901.87 5961.16 196.37 o
-3 7 5 552.51 533.12 213.12 o
-2 7 5 812.78 932.50 86.28 o
-1 7 5 1961.27 2032.35 108.19 o
0 7 5 520.90 489.79 113.63 o
1 7 5 3461.18 3582.19 142.80 o
2 7 5 492.47 534.26 68.80 o
3 7 5 2337.80 2538.10 179.64 o
4 7 5 3.68 -25.46 48.09 o
5 7 5 14.01 -35.83 53.28 o
-7 8 5 17.12 8.96 42.46 o
-6 8 5 475.80 526.96 84.87 o
-5 8 5 2185.86 2208.94 128.35 o
-4 8 5 3166.44 3276.09 151.12 o
-3 8 5 1724.46 1669.73 147.58 o
-2 8 5 1029.67 1084.07 172.10 o
-1 8 5 23.57 -7.98 33.30 o
0 8 5 792.35 838.23 88.18 o
1 8 5 1001.31 938.09 91.19 o
2 8 5 1132.82 977.43 143.34 o
3 8 5 1207.83 1320.68 161.73 o
4 8 5 537.07 551.19 114.58 o
-6 9 5 801.65 778.58 99.94 o
-5 9 5 716.55 746.49 93.05 o
-4 9 5 2940.33 2938.38 189.07 o
-3 9 5 1467.19 1690.18 130.90 o
-2 9 5 1859.84 1711.67 213.12 o
-1 9 5 4.14 15.38 40.28 o
0 9 5 51.39 4.47 37.59 o
1 9 5 796.11 833.02 198.50 o
2 9 5 158.15 176.81 86.29 o
-2 10 5 881.34 970.17 107.68 o
-3 -10 6 7.99 35.83 57.99 o
-2 -10 6 24.24 28.76 54.69 o
-1 -10 6 3107.84 3403.31 195.67 o
0 -10 6 2390.64 2306.60 243.53 o
1 -10 6 4697.00 4921.28 165.50 o
2 -10 6 1865.16 1930.22 103.68 o
3 -10 6 1500.22 1355.72 133.67 o
-5 -9 6 1377.32 1362.17 158.43 o
-4 -9 6 1656.46 1727.12 172.57 o
-3 -9 6 512.37 768.55 121.65 o
-2 -9 6 121.42 133.44 60.82 o
-1 -9 6 876.61 904.09 65.20 o
0 -9 6 3123.19 3310.90 103.66 o
1 -9 6 4405.05 4296.66 123.66 o
2 -9 6 4088.06 4001.44 97.27 o
3 -9 6 1596.42 1812.60 92.34 o
4 -9 6 212.36 167.31 68.13 o
5 -9 6 178.54 195.51 43.96 o
-6 -8 6 816.06 705.67 140.74 o
-5 -8 6 1132.68 835.51 86.39 o
-4 -8 6 5005.46 5016.17 289.03 o
-3 -8 6 1663.67 1496.55 147.58 o
-2 -8 6 1779.17 1674.95 73.72 o
-1 -8 6 348.23 387.20 41.75 o
0 -8 6 468.25 479.14 44.77 o
1 -8 6 5575.25 5521.34 99.35 o
2 -8 6 3841.64 3782.14 71.48 o
3 -8 6 3949.21 3587.54 69.30 o
4 -8 6 173.04 187.10 27.70 o
5 -8 6 100.44 119.53 34.17 o
6 -8 6 1029.79 1008.07 77.61 o
-7 -7 6 16.45 39.16 41.53 o
-6 -7 6 733.96 651.87 80.72 o
-5 -7 6 1346.74 1246.81 101.22 o
-4 -7 6 5114.34 5041.27 137.68 o
-3 -7 6 4042.38 4321.37 102.23 o
-2 -7 6 2122.82 1989.81 64.91 o
-1 -7 6 241.47 292.25 26.09 o
0 -7 6 754.63 846.45 40.36 o
1 -7 6 3314.49 3333.89 62.19 o
2 -7 6 4312.57 4080.42 76.37 o
3 -7 6 3153.88 3119.94 63.44 o
4 -7 6 2139.62 2093.14 48.35 o
5 -7 6 61.16 55.12 15.88 o
6 -7 6 72.68 14.97 19.80 o
-8 -6 6 314.23 466.79 109.86 o
-7 -6 6 209.85 245.65 87.23 o
-6 -6 6 948.44 871.28 85.79 o
-5 -6 6 532.87 508.87 63.77 o
-4 -6 6 8041.77 8175.76 204.78 o
-3 -6 6 5001.19 4973.75 94.47 o
-2 -6 6 6706.69 6591.40 89.51 o
-1 -6 6 229.74 216.46 18.90 o
0 -6 6 246.12 225.94 20.15 o
1 -6 6 5748.83 5453.05 77.77 o
2 -6 6 3181.80 3276.42 58.16 o
3 -6 6 7066.30 6924.46 90.27 o
4 -6 6 1491.70 1477.38 36.97 o
5 -6 6 2225.93 2276.73 54.25 o
6 -6 6 220.48 149.05 27.10 o
7 -6 6 14.53 39.13 36.78 o
-9 -5 6 996.61 1062.30 162.20 o
-8 -5 6 615.78 583.25 123.06 o
-7 -5 6 428.53 287.15 92.41 o
-6 -5 6 23.19 18.96 31.15 o
-5 -5 6 162.50 151.66 30.62 o
-4 -5 6 3114.17 3019.76 71.23 o
-3 -5 6 3880.23 4280.05 68.71 o
-2 -5 6 8584.37 8350.68 100.05 o
-1 -5 6 4666.98 4711.30 64.48 o
0 -5 6 182.28 171.33 14.47 o
1 -5 6 608.05 622.60 24.64 o
2 -5 6 2668.86 2766.07 60.20 o
3 -5 6 3968.41 3930.78 64.68 o
4 -5 6 5834.63 5851.64 83.57 o
5 -5 6 1919.90 2111.90 50.35 o
6 -5 6 668.92 805.53 45.44 o
7 -5 6 68.68 -24.99 25.93 o
-9 -4 6 1358.69 1096.72 154.18 o
-8 -4 6 673.64 537.04 105.15 o
-7 -4 6 2142.24 2115.16 162.67 o
-6 -4 6 125.91 95.29 28.34 o
-5 -4 6 127.77 137.91 18.20 o
-4 -4 6 3032.17 3170.07 54.75 o
-3 -4 6 1256.25 1280.52 31.54 o
-2 -4 6 12885.59 13050.35 134.15 o
-1 -4 6 3118.05 3099.41 45.26 o
0 -4 6 3597.16 3510.86 49.91 o
1 -4 6 744.37 861.82 20.45 o
2 -4 6 1610.77 1661.10 27.44 o
3 -4 6 4876.89 5148.77 66.61 o
4 -4 6 956.55 999.02 30.82 o
5 -4 6 4181.59 4128.31 62.53 o
6 -4 6 214.26 333.33 25.14 o
7 -4 6 176.91 300.76 38.91 o
8 -4 6 506.72 307.89 66.01 o
-10 -3 6 146.71 215.48 85.34 o
-9 -3 6 1307.36 1420.64 176.34 o
-8 -3 6 1736.90 1692.22 178.23 o
-7 -3 6 4222.59 4252.02 150.64 o
-6 -3 6 2804.60 2767.62 93.80 o
-5 -3 6 139.86 130.15 19.94 o
-4 -3 6 1983.10 1914.87 40.08 o
-3 -3 6 2198.49 2291.47 40.62 o
-2 -3 6 9055.95 8874.36 119.60 o
-1 -3 6 11387.92 11689.92 113.63 o
0 -3 6 4622.30 4405.80 48.36 o
1 -3 6 824.56 822.46 66.95 o
2 -3 6 1496.33 1624.33 107.97 o
3 -3 6 5374.30 5282.72 209.82 o
4 -3 6 5922.93 5915.50 92.98 o
5 -3 6 1948.97 2061.29 50.58 o
6 -3 6 1047.04 1082.82 36.47 o
7 -3 6 340.19 449.89 31.34 o
8 -3 6 9.36 -15.45 23.03 o
-10 -2 6 5.03 -1.41 62.24 o
-9 -2 6 1208.32 1082.57 145.22 o
-8 -2 6 1165.70 1177.81 144.28 o
-7 -2 6 4984.49 4959.14 158.03 o
-6 -2 6 1059.08 1143.07 55.13 o
-5 -2 6 2693.44 2886.06 61.88 o
-4 -2 6 893.23 851.96 28.30 o
-3 -2 6 1030.97 970.07 25.87 o
-2 -2 6 16178.24 15896.58 133.29 o
-1 -2 6 3815.69 3933.01 50.92 o
0 -2 6 13494.55 13119.50 158.20 o
1 -2 6 866.05 1014.20 96.19 o
2 -2 6 1825.03 1834.15 113.63 o
3 -2 6 2658.35 2492.37 138.62 o
4 -2 6 1437.94 1497.14 40.09 o
5 -2 6 5176.32 5224.78 115.63 o
6 -2 6 119.19 185.79 19.58 o
7 -2 6 894.95 1089.25 42.86 o
8 -2 6 9.75 -11.04 20.83 o
-10 -1 6 15.66 -20.44 41.73 o
-9 -1 6 490.82 592.90 86.76 o
-8 -1 6 2409.91 2509.18 95.10 o
-7 -1 6 3976.90 4251.21 118.10 o
-6 -1 6 2046.00 2103.42 54.51 o
-5 -1 6 2509.99 2548.95 52.29 o
-4 -1 6 590.14 493.45 22.76 o
-3 -1 6 2231.64 2328.12 39.48 o
-2 -1 6 8180.02 7996.57 81.52 o
-1 -1 6 13785.98 14001.33 133.46 o
0 -1 6 9055.49 8336.60 95.31 o
1 -1 6 2674.20 2633.34 130.61 o
2 -1 6 277.65 197.09 46.68 o
3 -1 6 15.84 23.13 7.46 o
4 -1 6 3005.57 2751.82 54.27 o
5 -1 6 1163.35 1146.11 33.76 o
6 -1 6 1311.69 1387.76 43.10 o
7 -1 6 315.22 369.08 30.42 o
8 -1 6 39.27 60.31 30.29 o
-10 0 6 197.46 145.87 39.73 o
-9 0 6 286.80 311.49 44.20 o
-8 0 6 924.81 908.19 66.46 o
-7 0 6 6216.67 6204.11 144.74 o
-6 0 6 2052.93 2216.47 58.44 o
-5 0 6 5983.78 5949.78 78.87 o
-4 0 6 61.99 79.36 11.55 o
-3 0 6 2.68 20.03 9.42 o
-2 0 6 8732.35 8662.50 93.17 o
-1 0 6 4930.41 5096.62 51.63 o
0 0 6 15790.49 15970.32 128.32 o
1 0 6 4107.15 3938.90 66.60 o
2 0 6 3562.24 3537.05 110.32 o
3 0 6 335.82 334.97 13.99 o
4 0 6 155.35 125.57 12.72 o
5 0 6 3514.67 3227.16 57.64 o
6 0 6 545.64 608.04 31.43 o
7 0 6 2010.14 2108.93 62.65 o
8 0 6 21.04 57.63 36.31 o
-10 1 6 446.27 374.63 80.86 o
-9 1 6 10.51 -22.76 22.76 o
-8 1 6 554.79 588.49 76.56 o
-7 1 6 3405.88 3302.97 98.98 o
-6 1 6 5429.04 5491.36 92.74 o
-5 1 6 5508.00 5552.25 87.30 o
-4 1 6 1923.54 1931.46 45.86 o
-3 1 6 841.10 850.02 32.26 o
-2 1 6 1157.25 1260.78 29.40 o
-1 1 6 3590.33 3694.80 44.07 o
0 1 6 6039.45 5878.64 58.10 o
1 1 6 8975.22 9094.96 84.49 o
2 1 6 2755.83 2527.03 38.72 o
3 1 6 130.18 137.37 13.11 o
4 1 6 112.83 118.49 18.04 o
5 1 6 405.53 425.69 25.99 o
6 1 6 1152.74 1199.54 41.58 o
7 1 6 782.45 887.43 56.98 o
8 1 6 176.04 330.91 78.27 o
-10 2 6 780.11 690.66 90.34 o
-9 2 6 16.52 47.25 39.17 o
-8 2 6 91.39 106.83 41.34 o
-7 2 6 3268.47 3244.65 109.09 o
-6 2 6 4220.85 4171.96 93.74 o
-5 2 6 11113.70 10897.95 137.51 o
-4 2 6 2085.19 2301.37 50.93 o
-3 2 6 5006.04 4474.91 65.66 o
-2 2 6 2005.81 1847.65 35.15 o
-1 2 6 53.02 62.01 8.79 o
0 2 6 8217.84 8461.81 82.07 o
1 2 6 4765.62 4706.89 60.02 o
2 2 6 8683.83 8501.10 100.05 o
3 2 6 26.46 45.25 11.89 o
4 2 6 323.87 431.89 26.53 o
5 2 6 951.65 816.66 38.90 o
6 2 6 83.63 58.31 17.96 o
7 2 6 1241.01 1079.60 114.58 o
-10 3 6 1157.86 1182.62 199.68 o
-9 3 6 353.91 527.90 132.73 o
-8 3 6 20.28 67.87 38.80 o
-7 3 6 899.23 759.43 79.45 o
-6 3 6 4039.08 4188.26 92.71 o
-5 3 6 9096.13 9005.57 121.14 o
-4 3 6 6603.89 6298.24 86.46 o
-3 3 6 3744.36 3899.50 62.55 o
-2 3 6 15.65 37.42 9.62 o
-1 3 6 972.31 1091.51 28.45 o
0 3 6 1977.37 2022.91 40.57 o
1 3 6 6539.19 6812.07 84.30 o
2 3 6 3966.80 3791.66 63.37 o
3 3 6 2429.73 2347.15 55.30 o
4 3 6 73.95 88.50 16.90 o
5 3 6 6.46 13.90 16.66 o
6 3 6 369.40 293.09 38.32 o
7 3 6 150.88 111.39 38.50 o
-10 4 6 1503.51 1404.57 124.02 o
-9 4 6 853.99 738.58 90.28 o
-8 4 6 710.97 804.24 89.95 o
-7 4 6 607.45 475.32 66.66 o
-6 4 6 1160.54 1239.65 115.99 o
-5 4 6 10785.41 10611.00 259.73 o
-4 4 6 6064.88 6481.76 104.37 o
-3 4 6 7607.61 7187.31 106.86 o
-2 4 6 1064.12 1128.12 33.54 o
-1 4 6 814.07 765.51 40.88 o
0 4 6 4217.40 4411.58 68.40 o
1 4 6 1329.65 1348.94 37.73 o
2 4 6 4068.36 4144.55 73.37 o
3 4 6 981.57 936.95 51.67 o
4 4 6 1504.58 1512.61 67.46 o
5 4 6 205.08 56.79 24.71 o
6 4 6 2.43 -15.09 26.80 o
-9 5 6 1199.19 1362.85 180.35 o
-8 5 6 710.52 648.99 87.90 o
-7 5 6 190.23 249.56 55.34 o
-6 5 6 202.52 173.27 46.79 o
-5 5 6 3432.45 3500.83 221.37 o
-4 5 6 4324.43 4035.85 118.28 o
-3 5 6 3125.81 3378.48 109.43 o
-2 5 6 1398.29 1290.59 48.96 o
-1 5 6 386.75 311.87 28.76 o
0 5 6 175.98 203.18 27.96 o
1 5 6 1448.89 1607.79 52.69 o
2 5 6 2372.61 2461.70 85.32 o
3 5 6 1940.72 1952.34 90.31 o
4 5 6 795.72 934.01 109.01 o
5 5 6 274.93 372.02 47.37 o
6 5 6 4.02 36.78 57.05 o
-9 6 6 1467.07 1261.16 118.80 o
-8 6 6 2080.35 1970.34 141.47 o
-7 6 6 133.53 153.30 50.41 o
-6 6 6 230.05 307.11 73.08 o
-5 6 6 2618.28 2314.11 121.01 o
-4 6 6 2524.83 2804.75 126.19 o
-3 6 6 7076.50 7187.03 208.01 o
-2 6 6 793.11 804.03 61.30 o
-1 6 6 1681.87 1709.40 143.43 o
0 6 6 720.32 832.18 52.14 o
1 6 6 41.37 60.46 23.11 o
2 6 6 1576.66 1535.24 77.15 o
3 6 6 625.05 611.54 69.50 o
4 6 6 1935.58 1873.28 157.48 o
5 6 6 11.69 -21.69 49.98 o
-8 7 6 1818.67 1691.97 139.09 o
-7 7 6 1142.83 1102.64 110.83 o
-6 7 6 61.86 45.81 43.13 o
-5 7 6 221.86 261.00 56.14 o
-4 7 6 1629.94 1617.61 121.37 o
-3 7 6 5598.73 5599.26 289.50 o
-2 7 6 5054.59 4677.59 169.84 o
-1 7 6 1736.15 1761.41 110.19 o
0 7 6 672.02 431.16 144.04 o
1 7 6 36.70 6.60 49.51 o
2 7 6 182.35 281.49 82.98 o
3 7 6 488.06 467.73 99.49 o
4 7 6 525.12 529.50 100.90 o
-7 8 6 872.23 840.69 145.69 o
-6 8 6 776.53 670.41 88.75 o
-5 8 6 61.51 60.63 39.66 o
-4 8 6 134.17 120.60 77.80 o
-3 8 6 2495.90 2467.04 158.66 o
-2 8 6 1087.79 1279.02 196.85 o
-1 8 6 2395.95 2531.68 130.14 o
0 8 6 44.23 14.38 35.09 o
1 8 6 120.19 75.91 62.24 o
2 8 6 368.68 309.31 92.89 o
3 8 6 48.67 21.69 62.24 o
-5 9 6 21.02 53.50 49.07 o
-4 9 6 205.87 157.91 89.11 o
-3 9 6 1336.56 1389.30 122.71 o
-2 9 6 2147.60 2118.42 148.82 o
-1 9 6 1438.72 1431.15 242.12 o
0 9 6 526.09 764.31 141.92 o
-2 -10 7 1815.06 1922.32 182.94 o
-1 -10 7 595.73 645.02 108.45 o
0 -10 7 26.51 26.77 33.24 o
1 -10 7 866.49 991.91 74.71 o
-5 -9 7 471.36 460.66 101.84 o
-4 -9 7 906.16 780.34 125.89 o
-3 -9 7 3484.70 3632.93 211.23 o
-2 -9 7 1069.49 1212.71 140.98 o
-1 -9 7 1375.42 1207.42 73.40 o
0 -9 7 141.11 202.14 30.28 o
1 -9 7 802.73 805.64 58.94 o
2 -9 7 3869.57 3818.34 161.95 o
3 -9 7 2239.55 2310.49 84.32 o
4 -9 7 3962.25 3762.40 130.17 o
-6 -8 7 81.77 5.19 49.51 o
-5 -8 7 207.08 123.06 62.71 o
-4 -8 7 1057.51 1257.03 144.75 o
-3 -8 7 3559.28 3717.68 224.20 o
-2 -8 7 4011.71 4022.17 116.56 o
-1 -8 7 2629.09 2583.70 89.06 o
0 -8 7 488.07 507.36 50.57 o
1 -8 7 108.62 106.95 17.28 o
2 -8 7 1623.39 1650.68 55.90 o
3 -8 7 2940.82 3002.05 68.40 o
4 -8 7 2297.43 2295.76 67.93 o
5 -8 7 1691.57 1591.32 115.99 o
-7 -7 7 663.58 753.34 160.08 o
-6 -7 7 812.95 777.24 89.72 o
-5 -7 7 283.08 157.01 66.01 o
-4 -7 7 102.92 107.18 39.42 o
-3 -7 7 3688.16 3852.78 112.06 o
-2 -7 7 3477.61 3644.54 104.17 o
-1 -7 7 7063.85 6848.71 112.04 o
0 -7 7 1316.25 1269.92 43.29 o
1 -7 7 654.72 713.64 33.11 o
2 -7 7 1732.35 1686.56 60.03 o
3 -7 7 870.12 857.08 34.29 o
4 -7 7 3816.64 3806.01 72.50 o
5 -7 7 999.43 1059.26 61.74 o
6 -7 7 1608.01 1781.91 83.81 o
-8 -6 7 980.09 1052.71 104.25 o
-7 -6 7 1301.04 1227.72 106.16 o
-6 -6 7 1935.76 2238.03 117.46 o
-5 -6 7 62.98 136.07 41.99 o
-4 -6 7 57.92 82.37 22.17 o
-3 -6 7 1927.57 1987.27 64.68 o
-2 -6 7 5350.49 5426.45 95.28 o
-1 -6 7 6921.36 6907.13 106.65 o
0 -6 7 6601.30 6419.70 97.90 o
1 -6 7 2387.41 2251.28 45.17 o
2 -6 7 0.58 -7.07 7.59 o
3 -6 7 1668.85 1715.35 37.25 o
4 -6 7 1833.97 1866.69 44.09 o
5 -6 7 2857.48 3357.88 112.54 o
6 -6 7 1105.20 1222.14 94.77 o
-9 -5 7 84.66 157.87 54.15 o
-8 -5 7 1721.35 1581.81 121.41 o
-7 -5 7 1134.20 1234.45 100.45 o
-6 -5 7 3460.02 3317.96 213.59 o
-5 -5 7 209.17 250.22 30.36 o
-4 -5 7 176.27 177.48 23.38 o
-3 -5 7 2383.00 2292.50 49.00 o
-2 -5 7 2874.36 3021.57 57.95 o
-1 -5 7 12456.85 12084.51 151.15 o
0 -5 7 6032.16 6156.56 88.83 o
1 -5 7 4810.24 4624.66 74.89 o
2 -5 7 129.89 128.46 11.17 o
3 -5 7 89.09 93.44 12.10 o
4 -5 7 3686.05 3745.59 66.20 o
5 -5 7 1004.09 997.08 46.04 o
6 -5 7 2570.84 2723.40 128.25 o
7 -5 7 179.98 400.31 65.54 o
-9 -4 7 3.83 14.90 42.36 o
-8 -4 7 1581.72 1265.50 139.09 o
-7 -4 7 2644.04 2660.73 124.13 o
-6 -4 7 5455.60 5611.69 145.15 o
-5 -4 7 3181.01 3258.51 86.05 o
-4 -4 7 600.26 632.41 30.67 o
-3 -4 7 370.63 418.85 23.01 o
-2 -4 7 1959.95 1999.07 39.65 o
-1 -4 7 7731.94 7595.60 92.37 o
0 -4 7 10825.83 10673.71 126.18 o
1 -4 7 4833.21 4694.95 56.22 o
2 -4 7 673.49 637.00 86.29 o
3 -4 7 74.39 108.92 47.15 o
4 -4 7 1138.24 991.44 38.20 o
5 -4 7 1944.39 1969.46 62.84 o
6 -4 7 1633.67 1716.97 67.85 o
7 -4 7 743.43 824.52 116.70 o
-9 -3 7 193.62 218.72 70.96 o
-8 -3 7 730.49 745.88 79.14 o
-7 -3 7 481.55 480.29 99.02 o
-6 -3 7 5883.49 6216.54 223.55 o
-5 -3 7 2837.08 2950.59 87.52 o
-4 -3 7 3596.21 3483.10 66.05 o
-3 -3 7 303.06 313.38 21.07 o
-2 -3 7 24.94 33.71 9.25 o
-1 -3 7 7386.16 7153.26 78.06 o
0 -3 7 4583.54 4513.58 61.63 o
1 -3 7 9743.14 9743.61 311.66 o
2 -3 7 2760.05 2556.49 144.28 o
3 -3 7 2220.80 2506.04 149.94 o
4 -3 7 1816.16 1702.13 130.13 o
5 -3 7 229.70 207.98 23.34 o
6 -3 7 1772.66 1702.69 98.54 o
7 -3 7 384.47 431.59 45.68 o
-10 -2 7 136.39 168.66 53.46 o
-9 -2 7 41.52 30.49 68.13 o
-8 -2 7 749.38 759.40 78.89 o
-7 -2 7 2002.57 1769.68 196.62 o
-6 -2 7 5478.22 5680.76 99.76 o
-5 -2 7 4482.30 4678.83 76.25 o
-4 -2 7 6376.42 6352.62 84.62 o
-3 -2 7 1854.53 1858.47 39.20 o
-2 -2 7 448.33 556.72 21.09 o
-1 -2 7 1185.28 1236.54 26.70 o
0 -2 7 3100.54 3221.60 63.28 o
2 -2 7 3920.24 4150.64 188.13 o
3 -2 7 650.91 579.01 82.98 o
5 -2 7 1022.79 890.62 40.12 o
6 -2 7 943.48 924.45 38.07 o
7 -2 7 523.42 529.43 49.31 o
-10 -1 7 413.66 327.15 60.56 o
-9 -1 7 895.05 833.36 91.24 o
-8 -1 7 10.19 31.72 36.98 o
-7 -1 7 248.81 250.15 37.98 o
-6 -1 7 7309.84 7246.07 112.00 o
-5 -1 7 3615.58 3877.89 67.77 o
-4 -1 7 11011.91 11014.72 116.98 o
-3 -1 7 3279.33 3309.12 50.10 o
-2 -1 7 1833.71 1832.75 34.64 o
-1 -1 7 2297.55 2365.67 35.89 o
0 -1 7 2180.36 2316.56 33.65 o
1 -1 7 9023.50 8730.35 285.73 o
3 -1 7 5318.97 5203.98 224.44 o
4 -1 7 27.63 13.15 8.10 o
5 -1 7 197.23 284.37 24.02 o
6 -1 7 1665.33 1476.41 50.80 o
7 -1 7 184.44 175.07 34.16 o
-10 0 7 677.88 844.55 304.36 o
-9 0 7 1068.04 973.96 73.71 o
-8 0 7 391.69 422.54 48.56 o
-7 0 7 7.14 33.45 23.03 o
-6 0 7 2249.62 2250.14 63.59 o
-5 0 7 2702.75 2619.77 54.18 o
-4 0 7 6603.71 6441.63 80.79 o
-3 0 7 4706.96 4727.81 62.77 o
-2 0 7 435.66 415.42 20.03 o
-1 0 7 71.23 93.32 8.80 o
0 0 7 1518.57 1539.06 25.83 o
1 0 7 7279.72 7439.77 100.40 o
2 0 7 6839.83 6895.15 91.71 o
3 0 7 3151.57 3098.90 45.48 o
4 0 7 1293.90 1467.79 32.53 o
5 0 7 173.78 279.36 19.54 o
6 0 7 81.38 15.98 13.95 o
7 0 7 365.10 312.23 38.36 o
-10 1 7 614.74 721.28 92.16 o
-9 1 7 2174.20 2211.20 129.47 o
-8 1 7 211.28 249.21 39.66 o
-7 1 7 452.88 395.74 43.08 o
-6 1 7 2627.23 2542.61 84.30 o
-5 1 7 3543.61 3327.83 62.16 o
-4 1 7 11851.23 11934.08 125.85 o
-3 1 7 1884.57 1827.62 39.95 o
-2 1 7 6567.31 6252.91 127.36 o
-1 1 7 31.88 29.69 7.70 o
0 1 7 177.37 259.32 15.93 o
1 1 7 4244.30 4214.64 58.95 o
2 1 7 2490.12 2382.64 43.63 o
3 1 7 5397.31 5445.99 77.07 o
4 1 7 37.70 37.32 11.55 o
5 1 7 682.95 809.32 34.21 o
6 1 7 167.76 77.98 19.44 o
7 1 7 37.42 -10.81 24.33 o
-10 2 7 1001.14 1028.55 251.31 o
-9 2 7 2098.16 2096.16 202.51 o
-8 2 7 1153.55 1061.52 182.00 o
-7 2 7 1058.18 1116.29 80.63 o
-6 2 7 24.27 8.35 17.02 o
-5 2 7 2716.45 2870.16 62.37 o
-4 2 7 8026.80 7755.95 100.70 o
-3 2 7 6667.70 6770.09 88.64 o
-2 2 7 2361.38 2376.64 45.15 o
-1 2 7 1449.73 1366.60 32.53 o
0 2 7 0.61 10.31 7.55 o
1 2 7 499.61 533.77 27.73 o
2 2 7 4048.84 3906.54 66.78 o
3 2 7 2447.04 2353.85 51.40 o
4 2 7 1474.34 1597.91 44.68 o
5 2 7 190.65 241.07 23.06 o
6 2 7 19.36 57.38 23.40 o
7 2 7 30.37 -22.56 38.66 o
-10 3 7 773.15 846.49 99.34 o
-9 3 7 2758.53 2850.42 149.12 o
-8 3 7 850.74 823.80 89.95 o
-7 3 7 1866.93 1888.27 110.23 o
-6 3 7 7.51 9.35 28.05 o
-5 3 7 105.81 41.29 16.71 o
-4 3 7 7540.46 7817.07 103.32 o
-3 3 7 4476.55 4546.07 71.51 o
-2 3 7 8174.41 8337.44 102.24 o
-1 3 7 579.02 676.54 28.49 o
0 3 7 590.73 498.37 24.57 o
1 3 7 714.67 679.57 33.24 o
2 3 7 87.18 94.87 16.11 o
3 3 7 3778.40 3843.41 93.10 o
4 3 7 585.25 610.03 35.49 o
5 3 7 1708.80 1943.03 104.67 o
6 3 7 152.94 71.78 35.78 o
-9 4 7 1452.74 1565.13 133.34 o
-8 4 7 2141.75 2122.03 136.48 o
-7 4 7 1722.78 1773.53 116.95 o
-6 4 7 120.78 121.90 42.34 o
-5 4 7 3.48 -2.97 22.64 o
-4 4 7 2074.75 1953.97 61.15 o
-3 4 7 6068.78 6205.88 123.13 o
-2 4 7 6383.53 6440.38 109.61 o
-1 4 7 4681.66 4607.47 73.67 o
0 4 7 1429.86 1333.89 38.05 o
1 4 7 50.52 37.88 14.79 o
2 4 7 251.44 235.29 24.23 o
3 4 7 286.82 267.49 29.65 o
4 4 7 1369.06 1379.27 68.29 o
5 4 7 1090.93 1074.15 83.34 o
6 4 7 199.17 167.96 44.10 o
-9 5 7 1477.53 1341.94 123.53 o
-8 5 7 1346.59 1297.18 116.16 o
-7 5 7 3545.55 3569.90 174.69 o
-6 5 7 280.72 274.55 55.63 o
-5 5 7 351.22 344.61 56.27 o
-4 5 7 2116.28 2252.02 112.19 o
-3 5 7 1760.29 1708.62 77.63 o
-2 5 7 6591.52 6756.54 150.06 o
-1 5 7 2288.90 2333.97 81.20 o
0 5 7 3250.86 2916.64 155.64 o
1 5 7 9.76 -1.42 18.60 o
2 5 7 2.08 -16.55 17.84 o
3 5 7 765.62 675.29 56.74 o
4 5 7 69.44 48.74 27.45 o
5 5 7 979.57 948.90 85.65 o
-8 6 7 1883.05 1672.67 147.58 o
-7 6 7 3016.81 3103.40 153.68 o
-6 6 7 2404.11 2433.65 131.66 o
-5 6 7 1020.39 967.38 94.83 o
-4 6 7 2.21 9.31 32.50 o
-3 6 7 1228.60 1242.94 98.55 o
-2 6 7 2743.89 2791.77 197.32 o
-1 6 7 3811.68 3824.74 138.38 o
0 6 7 1118.83 1234.27 97.31 o
1 6 7 399.10 283.95 41.19 o
2 6 7 6.15 28.87 30.93 o
3 6 7 216.33 204.91 49.31 o
4 6 7 772.41 579.95 107.50 o
-7 7 7 2862.69 2530.25 147.86 o
-6 7 7 1736.34 1736.93 135.00 o
-5 7 7 1821.65 2032.01 313.08 o
-4 7 7 25.68 14.57 33.55 o
-3 7 7 74.21 44.60 45.50 o
-2 7 7 2384.54 2545.82 161.25 o
-1 7 7 1100.22 1145.42 136.97 o
0 7 7 2181.42 2316.49 174.93 o
1 7 7 247.70 317.79 88.17 o
2 7 7 613.12 540.81 103.73 o
3 7 7 218.19 130.13 72.61 o
-6 8 7 2097.21 2146.08 298.93 o
-5 8 7 1616.60 1654.50 141.22 o
-4 8 7 294.00 307.44 74.50 o
-3 8 7 5.60 53.07 40.34 o
-2 8 7 719.45 926.86 99.85 o
-1 8 7 1715.10 1969.94 196.15 o
0 8 7 1124.84 1268.34 163.14 o
1 8 7 622.99 549.30 107.03 o
-4 -9 8 29.15 -39.13 48.09 o
-3 -9 8 663.90 577.12 109.39 o
-2 -9 8 2626.90 2729.53 189.07 o
-1 -9 8 3217.18 3021.55 129.29 o
0 -9 8 3470.96 3536.84 114.56 o
1 -9 8 1307.56 1341.05 76.98 o
2 -9 8 28.52 24.16 22.94 o
-5 -8 8 1436.54 1394.23 157.95 o
-4 -8 8 38.97 122.12 61.30 o
-3 -8 8 16.35 9.13 22.88 o
-2 -8 8 1813.66 1693.54 98.82 o
-1 -8 8 2105.21 1970.00 84.78 o
0 -8 8 5241.65 5223.69 159.03 o
1 -8 8 1320.36 1243.97 47.32 o
2 -8 8 1009.06 985.93 43.48 o
3 -8 8 482.11 427.94 48.41 o
4 -8 8 379.67 422.27 44.85 o
-7 -7 8 1253.83 1328.22 167.38 o
-6 -7 8 1841.88 2061.88 196.62 o
-5 -7 8 2495.91 2574.41 182.00 o
-4 -7 8 411.61 437.82 64.10 o
-3 -7 8 6.77 40.07 22.38 o
-2 -7 8 517.06 543.13 49.80 o
-1 -7 8 3044.89 3058.87 90.69 o
0 -7 8 5957.55 5851.66 112.09 o
1 -7 8 4489.29 4343.69 71.81 o
2 -7 8 1489.70 1618.66 45.49 o
3 -7 8 121.31 124.47 23.91 o
4 -7 8 421.35 368.27 44.67 o
5 -7 8 710.93 647.33 48.70 o
-7 -6 8 1254.74 1198.09 145.69 o
-6 -6 8 2047.68 2107.62 163.61 o
-5 -6 8 6211.51 6383.21 282.43 o
-4 -6 8 1426.17 1323.05 69.45 o
-3 -6 8 819.78 815.01 57.60 o
-2 -6 8 450.59 465.23 31.99 o
-1 -6 8 795.54 886.08 38.16 o
0 -6 8 5403.92 5516.51 88.96 o
1 -6 8 2633.43 2647.55 48.72 o
2 -6 8 5625.29 5391.53 91.43 o
3 -6 8 112.24 144.22 17.18 o
4 -6 8 47.86 67.62 19.24 o
5 -6 8 1415.22 1446.77 77.70 o
-8 -5 8 1.88 24.79 89.82 o
-7 -5 8 1054.30 1000.90 96.92 o
-6 -5 8 2029.01 2104.46 115.78 o
-5 -5 8 4577.24 4620.68 127.60 o
-4 -5 8 4104.79 4241.76 116.35 o
-3 -5 8 1576.05 1493.15 61.07 o
-2 -5 8 54.95 65.08 14.53 o
-1 -5 8 1774.96 1739.76 44.73 o
0 -5 8 4873.46 4883.63 76.15 o
1 -5 8 4857.73 4582.56 61.22 o
2 -5 8 3864.13 3861.22 98.00 o
3 -5 8 2437.24 2361.87 77.50 o
4 -5 8 386.29 453.70 41.06 o
5 -5 8 194.13 219.72 39.61 o
6 -5 8 754.89 788.35 79.68 o
-9 -4 8 123.52 161.78 55.62 o
-8 -4 8 553.81 551.24 79.92 o
-7 -4 8 551.99 528.73 70.75 o
-6 -4 8 1141.92 1045.24 248.95 o
-5 -4 8 5437.74 5682.94 119.77 o
-4 -4 8 4079.55 3981.37 83.97 o
-3 -4 8 6660.85 6523.33 105.14 o
-2 -4 8 271.82 227.92 20.38 o
-1 -4 8 76.14 62.09 11.76 o
0 -4 8 4470.26 4440.26 66.85 o
1 -4 8 3782.07 3848.69 71.42 o
2 -4 8 7957.73 7393.17 281.49 o
3 -4 8 1417.47 1621.03 154.18 o
4 -4 8 2521.80 2766.31 173.98 o
5 -4 8 23.61 1.44 13.99 o
6 -4 8 90.72 75.29 22.41 o
-9 -3 8 334.16 384.43 67.85 o
-8 -3 8 651.81 695.95 81.45 o
-7 -3 8 27.92 12.69 31.49 o
-6 -3 8 668.18 711.13 58.71 o
-5 -3 8 3225.57 3107.87 91.74 o
-4 -3 8 6108.39 6338.14 96.46 o
-3 -3 8 5741.59 5627.46 84.21 o
-2 -3 8 2652.69 2547.43 53.40 o
-1 -3 8 112.66 106.21 12.53 o
0 -3 8 288.58 358.02 29.97 o
1 -3 8 2422.71 2285.85 142.87 o
2 -3 8 4025.25 4288.32 202.75 o
3 -3 8 4138.77 4112.45 206.52 o
4 -3 8 1129.56 1306.53 142.87 o
5 -3 8 164.00 195.10 24.28 o
6 -3 8 4.29 10.97 17.31 o
-9 -2 8 1361.00 1366.32 108.57 o
-8 -2 8 2733.61 2653.68 126.65 o
-7 -2 8 261.41 370.15 55.79 o
-6 -2 8 47.96 14.39 16.17 o
-5 -2 8 3352.65 3388.32 79.78 o
-4 -2 8 3842.05 3662.01 63.39 o
-3 -2 8 10409.32 10208.37 115.44 o
-2 -2 8 3023.12 2939.16 51.78 o
-1 -2 8 1667.87 1591.25 40.84 o
0 -2 8 1620.10 1661.19 30.83 o
1 -2 8 521.77 540.81 83.93 o
2 -2 8 8290.21 7911.35 290.45 o
3 -2 8 1854.02 2016.15 143.34 o
5 -2 8 26.69 97.49 19.12 o
6 -2 8 139.09 199.80 29.98 o
7 -2 8 575.88 365.54 92.18 o
-10 -1 8 657.22 806.62 146.64 o
-9 -1 8 899.05 949.14 75.47 o
-8 -1 8 1704.43 1756.20 89.04 o
-7 -1 8 945.90 943.27 67.44 o
-6 -1 8 203.27 263.28 29.26 o
-5 -1 8 2108.57 2100.79 54.32 o
-4 -1 8 5157.00 5170.42 77.15 o
-3 -1 8 9323.04 9020.67 105.37 o
-2 -1 8 12220.30 12186.12 136.05 o
-1 -1 8 5058.00 4954.41 73.79 o
0 -1 8 759.60 727.18 18.90 o
1 -1 8 48.71 -31.12 31.12 o
2 -1 8 1471.47 1294.75 130.13 o
4 -1 8 1345.51 1384.74 44.66 o
5 -1 8 706.65 732.07 41.48 o
6 -1 8 117.33 232.85 96.89 o
7 -1 8 10.69 28.06 23.56 o
-10 0 8 1287.54 1112.21 110.48 o
-9 0 8 1116.16 1059.63 77.33 o
-8 0 8 3116.67 3208.13 110.80 o
-7 0 8 839.38 1016.73 69.86 o
-6 0 8 1395.39 1374.37 66.74 o
-5 0 8 557.48 551.19 32.47 o
-4 0 8 1737.78 1756.29 39.87 o
-3 0 8 9810.57 9812.97 113.15 o
-2 0 8 3923.88 3835.43 62.31 o
-1 0 8 5974.65 5949.84 114.96 o
0 0 8 409.52 384.94 19.99 o
1 0 8 286.39 273.83 15.54 o
2 0 8 2292.92 2227.35 40.63 o
3 0 8 396.23 460.97 27.29 o
4 0 8 2977.56 2972.83 60.84 o
5 0 8 371.04 524.23 33.10 o
6 0 8 710.56 1015.78 134.38 o
-10 1 8 458.61 414.30 76.51 o
-9 1 8 987.73 994.12 107.69 o
-8 1 8 3180.70 3138.16 107.47 o
-7 1 8 2636.04 2578.09 92.52 o
-6 1 8 2126.54 2285.75 73.32 o
-5 1 8 287.44 277.57 26.95 o
-4 1 8 924.04 921.07 44.42 o
-3 1 8 3569.80 3451.15 63.55 o
-2 1 8 6447.84 6366.67 88.46 o
-1 1 8 4512.20 4278.46 72.26 o
0 1 8 2453.48 2371.30 53.24 o
1 1 8 42.59 34.89 10.76 o
2 1 8 400.11 325.24 19.25 o
3 1 8 1599.83 1464.53 35.84 o
4 1 8 1597.11 1617.97 39.99 o
5 1 8 1010.99 1101.90 41.70 o
6 1 8 467.91 569.88 63.65 o
-9 2 8 194.71 196.76 58.94 o
-8 2 8 2513.58 2391.59 132.77 o
-7 2 8 1227.65 1357.89 106.26 o
-6 2 8 2931.54 3040.26 95.99 o
-5 2 8 705.58 694.67 40.26 o
-4 2 8 23.06 41.37 14.76 o
-3 2 8 5821.38 6052.64 92.28 o
-2 2 8 2149.99 2101.52 48.27 o
-1 2 8 7440.88 7469.18 109.80 o
0 2 8 2601.01 2588.40 58.59 o
1 2 8 3215.06 3099.67 59.72 o
2 2 8 361.95 325.58 24.59 o
3 2 8 125.61 124.64 16.37 o
4 2 8 2133.71 1951.40 56.07 o
5 2 8 262.34 217.38 27.98 o
6 2 8 859.37 931.75 72.51 o
-9 3 8 518.44 425.89 75.76 o
-8 3 8 2300.71 2481.70 244.47 o
-7 3 8 2485.44 2554.65 130.61 o
-6 3 8 3669.72 3802.57 150.56 o
-5 3 8 2198.23 2070.62 67.78 o
-4 3 8 753.06 821.92 43.36 o
-3 3 8 135.35 146.87 20.97 o
-2 3 8 3271.63 3596.58 62.95 o
-1 3 8 4421.92 4368.26 91.45 o
0 3 8 1958.50 2062.06 53.39 o
1 3 8 662.93 754.65 36.93 o
2 3 8 196.01 196.19 25.00 o
3 3 8 47.69 22.22 14.09 o
4 3 8 317.60 290.93 29.53 o
5 3 8 920.62 815.23 144.04 o
-9 4 8 8.95 57.94 46.79 o
-8 4 8 1720.85 1446.81 120.67 o
-7 4 8 1910.56 2074.08 131.71 o
-6 4 8 4432.31 4354.02 167.69 o
-5 4 8 946.54 1002.42 88.88 o
-4 4 8 1623.72 1617.13 78.44 o
-3 4 8 39.72 64.56 21.35 o
-2 4 8 490.21 411.75 35.90 o
-1 4 8 5339.93 5589.30 114.25 o
0 4 8 2543.83 2457.68 89.63 o
1 4 8 2714.12 2897.58 77.89 o
2 4 8 32.45 20.77 17.19 o
3 4 8 332.85 414.54 42.32 o
4 4 8 159.29 62.39 31.65 o
5 4 8 36.80 73.82 34.14 o
-8 5 8 376.54 488.22 141.92 o
-7 5 8 1646.20 1493.34 120.96 o
-6 5 8 3921.55 3902.97 176.58 o
-5 5 8 2533.83 2469.70 123.89 o
-4 5 8 712.68 710.57 74.85 o
-3 5 8 260.99 308.99 43.55 o
-2 5 8 474.05 478.51 48.44 o
-1 5 8 2061.04 1998.66 81.60 o
0 5 8 2999.89 2899.89 96.65 o
1 5 8 2152.99 1980.73 85.78 o
2 5 8 900.23 890.81 64.19 o
3 5 8 19.47 14.82 30.47 o
4 5 8 35.76 43.72 35.17 o
-7 6 8 346.89 323.57 66.01 o
-6 6 8 2445.96 2405.15 134.59 o
-5 6 8 1715.06 1548.61 117.15 o
-4 6 8 3022.23 2995.63 140.91 o
-3 6 8 115.92 123.11 41.67 o
-2 6 8 183.58 123.53 58.47 o
-1 6 8 1255.50 1233.45 139.56 o
0 6 8 650.88 532.93 65.74 o
1 6 8 2592.53 2465.21 128.72 o
2 6 8 338.62 353.56 59.76 o
3 6 8 1179.17 1196.20 144.28 o
-6 7 8 1278.13 1451.21 123.17 o
-5 7 8 2064.43 1946.76 139.65 o
-4 7 8 1808.53 1922.09 136.81 o
-3 7 8 793.36 653.03 115.52 o
-2 7 8 73.08 49.51 55.64 o
-1 7 8 130.29 -2.36 48.56 o
0 7 8 644.11 966.11 135.32 o
1 7 8 481.90 517.24 105.62 o
2 7 8 604.75 565.33 109.86 o
-4 8 8 3366.45 3627.27 242.35 o
-3 8 8 1181.73 1369.72 178.23 o
-2 8 8 943.03 1011.37 147.11 o
-1 8 8 51.44 143.81 78.74 o
-2 -9 9 232.28 226.45 52.56 o
-1 -9 9 786.68 893.08 87.40 o
0 -9 9 1416.20 1342.04 83.61 o
-5 -8 9 1556.69 1629.04 181.53 o
-4 -8 9 2297.96 2419.75 184.36 o
-3 -8 9 1058.29 1131.02 97.38 o
-2 -8 9 238.40 182.15 42.25 o
-1 -8 9 157.51 154.92 40.06 o
0 -8 9 1123.28 1228.57 67.74 o
1 -8 9 2692.84 2666.51 73.81 o
2 -8 9 3046.03 3115.74 198.25 o
3 -8 9 1614.45 1807.99 84.30 o
-6 -7 9 858.52 555.90 104.20 o
-5 -7 9 1343.50 1360.29 165.97 o
-4 -7 9 4587.74 4740.08 137.73 o
-3 -7 9 1412.71 1380.65 75.69 o
-2 -7 9 1190.38 1205.30 81.38 o
-1 -7 9 20.61 40.75 17.51 o
0 -7 9 145.45 154.70 22.84 o
1 -7 9 4055.70 4186.57 76.30 o
2 -7 9 1516.72 1362.06 58.19 o
3 -7 9 3111.17 3204.68 87.94 o
4 -7 9 347.18 493.64 41.35 o
-7 -6 9 190.19 231.04 79.21 o
-6 -6 9 111.01 207.93 78.27 o
-5 -6 9 930.46 1161.78 147.11 o
-4 -6 9 3909.28 4087.05 120.41 o
-3 -6 9 3927.52 3720.80 114.76 o
-2 -6 9 2347.94 2336.94 60.93 o
-1 -6 9 199.04 204.56 21.31 o
0 -6 9 30.45 48.29 14.40 o
1 -6 9 915.69 938.17 38.08 o
2 -6 9 2624.00 2592.09 113.75 o
3 -6 9 2961.41 3038.79 77.20 o
4 -6 9 2013.53 1997.70 88.70 o
-8 -5 9 523.73 653.97 113.63 o
-7 -5 9 710.42 680.85 112.69 o
-6 -5 9 42.35 -19.80 36.78 o
-5 -5 9 260.10 245.63 40.32 o
-4 -5 9 3969.26 3945.91 184.35 o
-3 -5 9 4285.85 4086.16 116.24 o
-2 -5 9 8128.50 7945.16 120.11 o
-1 -5 9 1115.99 986.00 55.91 o
0 -5 9 344.93 347.71 21.81 o
1 -5 9 1198.88 1276.76 45.29 o
2 -5 9 424.57 468.40 27.52 o
3 -5 9 3389.74 3441.89 216.42 o
4 -5 9 1515.38 1618.03 81.33 o
5 -5 9 1461.82 1599.34 83.46 o
-8 -4 9 923.78 845.88 123.53 o
-7 -4 9 1557.66 1631.87 163.14 o
-6 -4 9 171.09 180.11 64.12 o
-5 -4 9 420.05 415.06 59.09 o
-4 -4 9 1666.02 1746.08 62.53 o
-3 -4 9 3773.67 3810.18 77.45 o
-2 -4 9 7443.52 7529.97 111.52 o
-1 -4 9 3301.33 3412.36 90.96 o
0 -4 9 717.47 695.70 28.83 o
1 -4 9 44.64 100.43 50.92 o
2 -4 9 1595.42 1435.73 143.34 o
3 -4 9 2060.90 1841.22 148.52 o
4 -4 9 1687.84 1848.76 176.34 o
5 -4 9 1269.87 1369.96 159.60 o
-9 -3 9 1529.62 1735.13 175.87 o
-8 -3 9 1139.41 1288.62 148.52 o
-7 -3 9 2523.53 2497.08 169.74 o
-6 -3 9 398.10 520.10 74.26 o
-5 -3 9 14.03 -1.28 17.44 o
-4 -3 9 3547.93 3470.13 75.88 o
-3 -3 9 4223.15 4088.15 78.43 o
-2 -3 9 10591.55 10687.77 139.71 o
-1 -3 9 3294.16 3204.68 57.80 o
0 -3 9 4485.96 4488.55 70.86 o
1 -3 9 63.01 163.61 59.41 o
2 -3 9 6.48 -13.20 38.19 o
3 -3 9 3517.67 3261.39 192.37 o
5 -3 9 1313.50 1288.00 114.58 o
6 -3 9 61.88 132.10 25.37 o
-9 -2 9 794.83 887.47 91.44 o
-8 -2 9 1711.90 1756.26 120.97 o
-7 -2 9 3097.49 3298.97 137.42 o
-6 -2 9 2370.47 2410.19 127.61 o
-5 -2 9 1133.29 1039.93 56.83 o
-4 -2 9 116.50 144.30 18.47 o
-3 -2 9 2339.76 2293.18 50.90 o
-2 -2 9 6118.49 6263.31 94.79 o
-1 -2 9 5377.65 5184.60 87.73 o
0 -2 9 3741.99 3655.49 150.79 o
1 -2 9 902.01 947.72 115.05 o
2 -2 9 17.88 31.59 44.32 o
3 -2 9 727.47 750.16 112.22 o
5 -2 9 1090.82 1232.84 62.00 o
6 -2 9 974.65 1098.26 86.76 o
-9 -1 9 1003.15 1100.95 146.48 o
-8 -1 9 1474.72 1549.16 93.96 o
-7 -1 9 3566.10 3434.36 113.54 o
-6 -1 9 2044.29 2010.78 72.10 o
-5 -1 9 3930.78 3912.56 94.60 o
-4 -1 9 8.52 -4.09 10.40 o
-3 -1 9 343.03 339.40 23.33 o
-2 -1 9 4110.93 4136.70 73.40 o
-1 -1 9 2242.45 2099.17 46.54 o
0 -1 9 5582.39 5629.98 68.60 o
1 -1 9 362.75 246.60 63.65 o
2 -1 9 991.15 1181.12 137.68 o
4 -1 9 259.10 200.28 22.12 o
5 -1 9 1403.84 1323.23 54.83 o
6 -1 9 244.14 268.15 35.34 o
-9 0 9 247.21 224.70 60.65 o
-8 0 9 1219.40 1287.62 102.01 o
-7 0 9 2832.91 2767.64 100.42 o
-6 0 9 3306.31 3404.68 93.19 o
-5 0 9 3009.52 2973.11 73.43 o
-4 0 9 943.21 951.06 49.17 o
-3 0 9 302.27 286.09 24.16 o
-2 0 9 4473.61 4618.61 80.58 o
-1 0 9 6573.68 6629.20 87.31 o
0 0 9 6953.58 6896.30 93.70 o
1 0 9 3310.74 3365.55 54.19 o
2 0 9 746.64 793.34 40.83 o
3 0 9 49.45 61.27 20.04 o
4 0 9 90.49 23.98 17.83 o
5 0 9 473.56 461.82 71.43 o
6 0 9 525.31 477.77 68.84 o
-9 1 9 53.85 47.26 45.11 o
-8 1 9 209.35 116.50 48.34 o
-7 1 9 3438.37 3441.98 111.37 o
-6 1 9 3331.40 3328.11 92.27 o
-5 1 9 5584.24 5689.35 109.69 o
-4 1 9 1976.48 2005.52 57.73 o
-3 1 9 2216.50 2154.47 67.22 o
-2 1 9 1078.06 1110.25 47.71 o
-1 1 9 1008.97 1066.33 37.31 o
0 1 9 7496.29 7338.64 104.21 o
1 1 9 1786.46 1706.19 62.13 o
2 1 9 2625.93 2720.58 56.20 o
3 1 9 94.04 102.26 15.53 o
4 1 9 122.53 166.56 29.44 o
5 1 9 631.52 550.87 76.15 o
-9 2 9 17.36 -38.40 38.40 o
-8 2 9 57.60 42.66 37.60 o
-7 2 9 1380.89 1385.15 109.62 o
-6 2 9 3154.74 3049.52 114.28 o
-5 2 9 3590.56 3726.11 85.15 o
-4 2 9 2628.84 2609.72 75.74 o
-3 2 9 712.90 745.86 45.06 o
-2 2 9 85.92 103.25 20.70 o
-1 2 9 904.16 907.39 46.56 o
0 2 9 2776.46 2881.53 71.32 o
1 2 9 3362.54 3445.37 73.36 o
2 2 9 976.11 1014.90 35.62 o
3 2 9 389.84 480.29 32.59 o
4 2 9 0.24 -2.89 17.95 o
5 2 9 16.87 -10.04 22.31 o
-8 3 9 110.99 112.53 99.25 o
-7 3 9 795.26 685.51 81.62 o
-6 3 9 1305.59 1353.97 110.14 o
-5 3 9 4264.75 4252.22 162.31 o
-4 3 9 2091.93 2125.29 69.72 o
-3 3 9 3061.97 2970.25 80.37 o
-2 3 9 10.28 -9.42 15.36 o
-1 3 9 245.69 256.43 27.88 o
0 3 9 3857.99 3863.98 86.54 o
1 3 9 926.68 946.72 49.83 o
2 3 9 3062.11 3232.03 69.84 o
3 3 9 217.96 244.69 27.55 o
4 3 9 389.68 503.54 72.38 o
-8 4 9 189.27 225.43 61.25 o
-7 4 9 160.54 87.08 90.53 o
-6 4 9 1291.12 1508.37 143.81 o
-5 4 9 3245.68 3207.70 159.37 o
-4 4 9 3480.88 3259.71 143.10 o
-3 4 9 2363.27 2525.63 149.97 o
-2 4 9 1803.35 1594.36 72.75 o
-1 4 9 274.50 277.51 36.82 o
0 4 9 777.47 836.89 58.82 o
1 4 9 1118.36 1132.63 74.48 o
2 4 9 676.43 736.21 87.23 o
3 4 9 497.16 471.39 57.65 o
4 4 9 146.04 212.56 45.62 o
-7 5 9 0.32 17.60 43.10 o
-6 5 9 91.93 71.49 45.40 o
-5 5 9 2780.38 2739.90 194.26 o
-4 5 9 1511.22 1853.48 156.54 o
-3 5 9 3205.91 3317.50 200.86 o
-2 5 9 563.03 601.86 63.63 o
-1 5 9 665.10 563.42 53.57 o
0 5 9 504.46 538.21 51.88 o
1 5 9 104.24 97.87 36.52 o
2 5 9 2250.94 2307.61 111.46 o
3 5 9 324.98 323.42 62.47 o
-6 6 9 86.88 99.02 72.61 o
-5 6 9 694.36 616.73 113.16 o
-4 6 9 2134.27 1806.33 182.47 o
-3 6 9 2244.05 2266.99 176.81 o
-2 6 9 1240.68 1145.28 139.56 o
-1 6 9 397.23 379.09 89.11 o
0 6 9 19.59 62.71 53.75 o
1 6 9 261.64 125.89 63.65 o
-4 7 9 522.40 724.23 132.49 o
-3 7 9 2613.38 2896.44 211.70 o
-2 7 9 840.38 905.76 141.45 o
-1 7 9 764.11 832.67 132.96 o
-3 -8 10 3982.54 3750.84 150.11 o
-2 -8 10 2602.43 2402.09 185.06 o
-1 -8 10 2589.41 2477.64 183.65 o
0 -8 10 81.78 45.59 31.48 o
1 -8 10 13.39 14.83 19.69 o
-5 -7 10 2.26 13.67 54.69 o
-4 -7 10 198.18 191.15 48.93 o
-3 -7 10 2125.10 2126.91 107.73 o
-2 -7 10 3363.31 3262.60 131.57 o
-1 -7 10 3339.75 3419.83 85.85 o
0 -7 10 1356.30 1162.57 107.17 o
1 -7 10 34.23 47.03 19.86 o
2 -7 10 398.74 437.65 57.26 o
-6 -6 10 1429.35 1258.44 154.18 o
-5 -6 10 64.80 73.08 56.11 o
-4 -6 10 14.97 -3.41 21.64 o
-3 -6 10 2214.17 2237.66 135.09 o
-2 -6 10 2562.86 2476.88 74.04 o
-1 -6 10 4861.48 4975.31 159.93 o
0 -6 10 1157.90 1078.85 67.25 o
1 -6 10 1232.37 1229.29 83.11 o
2 -6 10 80.88 54.74 18.55 o
3 -6 10 271.10 203.25 31.55 o
-7 -5 10 1708.12 2336.30 215.48 o
-6 -5 10 2099.81 2342.43 174.46 o
-5 -5 10 813.62 864.13 79.27 o
-4 -5 10 83.93 95.17 29.78 o
-3 -5 10 669.62 801.19 49.62 o
-2 -5 10 2255.88 2207.92 60.34 o
-1 -5 10 5497.16 5592.26 102.87 o
0 -5 10 3276.00 3255.50 77.45 o
1 -5 10 725.96 783.66 47.00 o
2 -5 10 99.79 66.55 22.66 o
3 -5 10 124.39 100.90 59.41 o
4 -5 10 800.18 597.87 110.80 o
-7 -4 10 1581.94 1393.29 161.73 o
-6 -4 10 3672.23 4244.00 230.09 o
-5 -4 10 1231.01 1125.20 154.54 o
-4 -4 10 836.53 935.15 83.94 o
-3 -4 10 534.75 570.22 41.98 o
-2 -4 10 541.76 578.05 37.44 o
-1 -4 10 5557.04 5544.52 86.09 o
0 -4 10 2561.91 2614.64 67.89 o
1 -4 10 3868.05 3975.90 105.53 o
2 -4 10 141.52 133.44 67.90 o
3 -4 10 15.81 29.70 46.21 o
4 -4 10 611.02 557.32 109.86 o
-8 -3 10 627.50 598.34 110.33 o
-7 -3 10 1219.92 1253.73 140.98 o
-6 -3 10 2843.81 2898.37 132.26 o
-5 -3 10 2863.95 2698.64 94.81 o
-4 -3 10 1577.76 1415.96 58.02 o
-3 -3 10 18.19 3.02 12.46 o
-2 -3 10 833.54 945.58 39.20 o
-1 -3 10 3297.92 3321.76 60.47 o
0 -3 10 4560.34 4370.90 114.95 o
1 -3 10 3291.76 3649.43 204.16 o
2 -3 10 2027.72 2220.78 166.44 o
3 -3 10 57.25 106.56 61.30 o
-8 -2 10 197.92 267.34 83.46 o
-7 -2 10 673.72 668.12 105.62 o
-6 -2 10 2905.60 2982.33 128.86 o
-5 -2 10 1359.93 1252.19 64.23 o
-4 -2 10 3634.52 3555.08 78.62 o
-3 -2 10 140.33 115.20 17.81 o
-2 -2 10 54.48 82.78 15.38 o
-1 -2 10 3336.52 3511.40 70.04 o
0 -2 10 1708.40 1662.96 67.42 o
1 -2 10 6196.03 6343.13 275.83 o
2 -2 10 1443.64 1544.17 160.31 o
3 -2 10 1173.56 1332.94 159.37 o
5 -2 10 5.07 0.15 14.70 o
-8 -1 10 31.52 -34.63 34.63 o
-7 -1 10 894.96 924.50 86.30 o
-6 -1 10 3045.05 2935.04 151.49 o
-5 -1 10 3801.51 3668.42 94.55 o
-4 -1 10 5082.95 5178.83 98.08 o
-3 -1 10 1650.29 1645.59 44.87 o
-2 -1 10 111.54 97.25 16.02 o
-1 -1 10 710.04 748.35 28.80 o
0 -1 10 1982.99 1915.77 35.11 o
1 -1 10 2592.47 2635.64 98.37 o
2 -1 10 1588.30 1455.53 150.88 o
4 -1 10 57.65 83.27 30.18 o
5 -1 10 138.27 74.73 21.33 o
-8 0 10 39.11 13.39 36.83 o
-7 0 10 91.55 42.15 34.83 o
-6 0 10 2767.55 2966.33 103.78 o
-5 0 10 2289.30 2270.97 74.56 o
-4 0 10 6670.44 6683.98 136.25 o
-3 0 10 2758.36 2777.70 66.35 o
-2 0 10 2980.12 2991.16 65.14 o
-1 0 10 402.73 403.27 25.29 o
0 0 10 452.52 453.42 23.41 o
1 0 10 4182.56 3987.24 91.40 o
2 0 10 1154.52 1187.60 49.01 o
3 0 10 1473.00 1642.76 59.67 o
4 0 10 116.35 143.41 26.17 o
-8 1 10 383.03 471.97 107.03 o
-7 1 10 0.58 34.21 31.82 o
-6 1 10 1004.51 990.11 124.48 o
-5 1 10 3042.07 2970.15 86.39 o
-4 1 10 3208.98 3271.73 87.15 o
-3 1 10 1931.59 1931.18 70.36 o
-2 1 10 2228.45 2130.30 63.70 o
-1 1 10 424.75 424.46 28.77 o
0 1 10 519.66 530.68 38.83 o
1 1 10 1449.11 1493.31 62.00 o
2 1 10 2214.00 2138.77 76.35 o
3 1 10 762.02 892.35 55.27 o
4 1 10 605.67 631.82 52.01 o
-8 2 10 678.35 513.47 110.80 o
-7 2 10 428.06 661.05 116.46 o
-6 2 10 584.89 652.04 130.61 o
-5 2 10 2043.97 1980.98 100.84 o
-4 2 10 6393.00 6627.47 132.06 o
-3 2 10 2591.00 2544.29 98.95 o
-2 2 10 4043.50 4182.76 96.02 o
-1 2 10 268.82 242.08 24.88 o
0 2 10 317.67 301.19 28.58 o
1 2 10 1251.17 1229.36 53.16 o
2 2 10 585.43 600.47 44.07 o
3 2 10 1795.08 1940.62 164.79 o
4 2 10 61.33 94.77 31.67 o
-8 3 10 1702.33 1783.70 198.03 o
-7 3 10 982.04 1189.60 158.43 o
-6 3 10 74.69 72.61 53.28 o
-5 3 10 206.18 288.56 77.33 o
-4 3 10 1976.64 1952.93 95.75 o
-3 3 10 2726.82 2926.20 85.07 o
-2 3 10 2878.57 2929.11 95.36 o
-1 3 10 1051.44 948.85 60.88 o
0 3 10 108.69 93.31 22.09 o
1 3 10 97.51 149.67 27.61 o
2 3 10 527.63 506.17 38.39 o
3 3 10 940.48 988.47 73.14 o
-7 4 10 2098.73 2325.45 194.73 o
-6 4 10 81.78 54.69 65.07 o
-5 4 10 25.75 79.21 62.24 o
-4 4 10 1513.87 1398.01 152.77 o
-3 4 10 1100.87 986.30 67.89 o
-2 4 10 3024.40 3104.22 104.44 o
-1 4 10 710.52 675.96 56.38 o
0 4 10 985.55 1145.15 104.67 o
1 4 10 218.27 139.85 38.23 o
2 4 10 17.02 18.99 35.60 o
-6 5 10 800.21 794.95 135.79 o
-5 5 10 44.81 59.41 62.71 o
-4 5 10 307.39 358.34 91.47 o
-3 5 10 1508.30 1681.85 173.51 o
-2 5 10 2142.36 2025.11 160.31 o
-1 5 10 1639.31 1629.63 98.88 o
0 5 10 654.28 685.39 73.09 o
1 5 10 302.19 297.56 52.23 o
-4 6 10 126.96 128.25 74.50 o
-3 6 10 171.13 188.60 82.04 o
-2 6 10 1931.48 2009.07 190.96 o
-1 6 10 650.36 725.64 120.70 o
-3 -7 11 128.91 112.82 38.80 o
-2 -7 11 624.42 553.99 95.95 o
-1 -7 11 1490.00 1434.15 91.45 o
0 -7 11 4502.38 4671.47 127.63 o
-5 -6 11 2994.71 3098.72 209.35 o
-4 -6 11 1401.67 1406.80 112.69 o
-3 -6 11 453.54 514.69 63.27 o
-2 -6 11 113.64 189.55 53.75 o
-1 -6 11 1097.28 1128.12 74.95 o
0 -6 11 2001.46 2108.78 79.63 o
1 -6 11 2282.97 2126.20 68.24 o
2 -6 11 1367.27 1464.90 54.50 o
-6 -5 11 876.63 944.89 141.45 o
-5 -5 11 2851.62 2833.96 130.97 o
-4 -5 11 1681.72 1630.32 101.56 o
-3 -5 11 1954.48 1944.17 106.63 o
-2 -5 11 14.01 24.16 16.60 o
-1 -5 11 243.41 283.90 35.33 o
0 -5 11 3233.65 3159.12 84.27 o
1 -5 11 2236.61 2314.67 69.92 o
2 -5 11 2741.62 2688.89 64.59 o
-7 -4 11 325.54 479.52 105.15 o
-6 -4 11 1087.58 1075.03 139.56 o
-5 -4 11 3135.84 3043.98 108.85 o
-4 -4 11 3650.93 3654.46 138.36 o
-3 -4 11 3201.40 3163.57 82.97 o
-2 -4 11 694.29 687.27 40.64 o
-1 -4 11 3.56 18.68 13.62 o
0 -4 11 508.28 517.20 35.87 o
1 -4 11 2380.59 2241.10 117.24 o
2 -4 11 1868.88 2037.36 199.92 o
3 -4 11 1045.59 1128.31 150.88 o
-7 -3 11 83.69 102.32 65.54 o
-6 -3 11 292.38 176.34 69.78 o
-5 -3 11 3051.43 3108.00 105.52 o
-4 -3 11 2750.97 2621.44 92.05 o
-3 -3 11 5287.27 5428.95 98.50 o
-2 -3 11 1137.73 974.92 42.85 o
-1 -3 11 518.25 552.60 32.50 o
0 -3 11 710.62 773.23 37.95 o
1 -3 11 668.44 598.34 107.50 o
2 -3 11 2893.67 2940.29 200.86 o
3 -3 11 956.29 1056.17 144.28 o
-7 -2 11 55.22 151.35 59.41 o
-6 -2 11 140.13 197.09 72.61 o
-5 -2 11 1903.12 1848.36 80.89 o
-4 -2 11 2050.66 2187.07 83.34 o
-3 -2 11 3427.18 3398.44 74.70 o
-2 -2 11 1967.19 2025.56 55.68 o
-1 -2 11 324.62 304.57 29.08 o
0 -2 11 38.47 19.33 18.98 o
1 -2 11 1080.70 935.25 71.67 o
2 -2 11 1786.15 1404.61 154.18 o
-7 -1 11 455.12 478.78 68.71 o
-6 -1 11 184.65 285.38 52.65 o
-5 -1 11 1570.83 1736.38 69.57 o
-4 -1 11 1555.68 1501.46 63.36 o
-3 -1 11 4465.00 4383.79 78.49 o
-2 -1 11 2121.37 1991.60 52.36 o
-1 -1 11 2304.99 2467.44 59.90 o
0 -1 11 11.40 18.39 14.10 o
1 -1 11 100.74 81.17 17.97 o
2 -1 11 1755.40 1720.82 84.50 o
3 -1 11 1038.32 1010.15 42.84 o
-7 0 11 963.08 975.13 88.22 o
-6 0 11 255.09 268.44 50.66 o
-5 0 11 158.46 176.66 37.91 o
-4 0 11 869.15 859.49 53.06 o
-3 0 11 2601.93 2749.52 68.21 o
-2 0 11 2835.23 2958.17 66.68 o
-1 0 11 2099.11 2114.59 107.53 o
0 0 11 1086.71 1119.41 41.86 o
1 0 11 13.90 17.71 15.84 o
2 0 11 207.29 173.45 25.94 o
3 0 11 539.20 480.61 40.34 o
-7 1 11 1439.90 1523.43 169.27 o
-6 1 11 1206.52 1185.42 95.34 o
-5 1 11 172.95 170.44 30.45 o
-4 1 11 717.57 706.68 54.82 o
-3 1 11 3149.02 3362.71 88.38 o
-2 1 11 1194.47 1186.04 46.62 o
-1 1 11 3983.76 3930.63 108.98 o
0 1 11 602.64 567.65 36.64 o
1 1 11 241.44 257.44 35.01 o
2 1 11 454.68 366.65 47.86 o
3 1 11 106.18 25.94 27.35 o
-7 2 11 2241.69 2115.63 179.64 o
-6 2 11 2211.11 2568.28 189.07 o
-5 2 11 467.88 385.97 56.02 o
-4 2 11 49.59 39.61 20.96 o
-3 2 11 2026.90 2207.63 79.76 o
-2 2 11 2363.60 2416.81 74.82 o
-1 2 11 1977.95 1870.35 137.47 o
0 2 11 1865.67 1936.28 69.86 o
1 2 11 547.01 602.23 44.58 o
2 2 11 18.42 57.60 24.95 o
-6 3 11 2171.52 2499.44 188.60 o
-5 3 11 278.10 297.52 81.57 o
-4 3 11 176.95 157.16 35.98 o
-3 3 11 752.04 745.31 51.69 o
-2 3 11 1064.92 995.99 84.63 o
-1 3 11 2896.00 3040.36 119.36 o
0 3 11 568.79 586.85 140.51 o
1 3 11 907.44 969.31 73.85 o
2 3 11 132.30 180.59 57.05 o
-5 4 11 1040.75 956.21 139.09 o
-4 4 11 345.99 447.93 92.89 o
-3 4 11 19.36 77.33 54.69 o
-2 4 11 880.14 794.43 105.62 o
-1 4 11 1226.57 1417.87 101.98 o
0 4 11 1188.22 1300.10 138.86 o
-3 5 11 16.63 -44.79 44.79 o
-2 5 11 5.29 -16.50 53.28 o
-4 -5 12 1749.52 1684.57 106.63 o
-3 -5 12 3090.56 3023.87 284.79 o
-2 -5 12 3089.29 3073.12 175.51 o
-1 -5 12 1180.05 1157.96 103.79 o
0 -5 12 50.48 52.11 19.84 o
-5 -4 12 23.96 33.07 35.72 o
-4 -4 12 1410.10 1603.46 102.43 o
-3 -4 12 1603.90 1429.49 90.90 o
-2 -4 12 3447.37 3535.56 102.13 o
-1 -4 12 896.94 809.59 56.13 o
0 -4 12 512.89 533.66 38.87 o
1 -4 12 240.17 262.06 38.14 o
-6 -3 12 356.23 374.84 95.24 o
-5 -3 12 1.25 -6.91 30.33 o
-4 -3 12 944.94 991.27 104.44 o
-3 -3 12 2495.00 2384.61 84.73 o
-2 -3 12 3682.21 3924.17 117.39 o
-1 -3 12 3554.91 3444.96 102.50 o
0 -3 12 1541.10 1465.70 93.53 o
1 -3 12 207.69 204.60 30.72 o
2 -3 12 93.18 -18.86 49.51 o
-6 -2 12 1096.83 973.18 134.85 o
-5 -2 12 626.63 663.64 86.76 o
-4 -2 12 453.58 485.28 106.09 o
-3 -2 12 823.22 801.51 64.31 o
-2 -2 12 2651.29 2726.88 93.42 o
-1 -2 12 2116.33 1953.61 88.63 o
0 -2 12 2771.85 2659.80 98.71 o
1 -2 12 233.25 258.52 35.74 o
2 -2 12 17.39 41.49 61.30 o
-6 -1 12 1829.87 1659.10 116.24 o
-5 -1 12 1343.06 1212.35 79.93 o
-4 -1 12 7.29 8.25 22.29 o
-3 -1 12 607.12 605.63 42.76 o
-2 -1 12 1415.98 1455.86 53.81 o
-1 -1 12 2228.43 2067.78 95.24 o
0 -1 12 1757.86 1709.26 110.10 o
1 -1 12 943.03 976.65 46.58 o
2 -1 12 136.68 188.47 25.84 o
-6 0 12 1592.86 1575.02 117.64 o
-5 0 12 1988.23 2094.30 90.16 o
-4 0 12 131.31 46.37 26.31 o
-3 0 12 3.06 34.20 23.56 o
-2 0 12 1672.59 1846.02 62.15 o
-1 0 12 1076.93 980.21 77.74 o
0 0 12 2316.41 2363.53 101.87 o
1 0 12 403.78 372.34 36.65 o
-6 1 12 2840.87 2737.70 164.32 o
-5 1 12 2747.64 2826.69 171.86 o
-4 1 12 1039.31 1051.24 70.94 o
-3 1 12 97.65 56.42 27.24 o
-2 1 12 230.41 290.19 37.73 o
-1 1 12 1326.79 1177.54 63.95 o
0 1 12 1486.60 1509.62 77.09 o
1 1 12 1370.05 1335.99 70.01 o
-5 2 12 2526.98 2891.73 195.20 o
-4 2 12 1094.45 957.63 70.84 o
-3 2 12 610.01 570.85 54.51 o
-2 2 12 188.19 168.59 33.85 o
-1 2 12 216.90 204.85 39.61 o
0 2 12 1154.15 976.01 105.62 o
-4 3 12 1560.17 1352.74 147.11 o
-3 3 12 757.32 711.89 73.85 o
-2 3 12 79.27 50.97 34.16 o
-1 3 12 437.03 325.98 51.68 o
-3 -3 13 2.26 -20.75 32.53 o
-2 -3 13 99.87 67.66 26.44 o
-4 -2 13 1508.06 1539.93 126.83 o
-3 -2 13 166.63 215.86 45.91 o
-2 -2 13 177.71 185.09 32.77 o
-1 -2 13 815.03 849.70 58.78 o
-4 -1 13 3438.11 3840.85 118.30 o
-3 -1 13 694.55 612.47 89.91 o
-2 -1 13 89.36 67.42 34.68 o
-1 -1 13 575.92 605.20 63.69 o
-3 0 13 1567.58 1623.20 77.97 o
-2 0 13 321.76 287.87 74.03 o
