#------------------------------------------------------------------------------
#$Date: 2019-11-24 00:32:46 +0200 (Sun, 24 Nov 2019) $
#$Revision: 235778 $
#$URL: file:///home/coder/svn-repositories/cod/cif/4/34/97/4349735.cif $
#------------------------------------------------------------------------------
#
# This file is available in the Crystallography Open Database (COD),
# http://www.crystallography.net/
#
# All data on this site have been placed in the public domain by the
# contributors.
#
data_4349735
loop_
_publ_author_name
'\<Zivkovi\'c, M. D.'
'Kljun, J.'
'Ilic-Tomic, T.'
'Pavic, A.'
'Veselinovi\'c, A.'
'Manojlovi\'c, D. D.'
'Nikodinovic-Runic, J.'
'Turel, I.'
_publ_section_title
;
 A new class of platinum(ii) complexes with the phosphine ligand pta which
 show potent anticancer activity
;
_journal_issue                   1
_journal_name_full               'Inorganic Chemistry Frontiers'
_journal_page_first              39
_journal_paper_doi               10.1039/C7QI00299H
_journal_volume                  5
_journal_year                    2018
_chemical_formula_moiety         'C11 H11 Cl N2 O4 Pt S'
_chemical_formula_sum            'C11 H11 Cl N2 O4 Pt S'
_chemical_formula_weight         497.82
_space_group_crystal_system      monoclinic
_space_group_IT_number           11
_space_group_name_Hall           '-P 2yb'
_space_group_name_H-M_alt        'P 1 21/m 1'
_atom_sites_solution_hydrogens   geom
_audit_creation_method           SHELXL-2014/7
_audit_update_record
;
2016-06-02 deposited with the CCDC.
2017-10-17 downloaded from the CCDC.
;
_cell_angle_alpha                90
_cell_angle_beta                 97.352(5)
_cell_angle_gamma                90
_cell_formula_units_Z            2
_cell_length_a                   9.4359(6)
_cell_length_b                   6.7378(4)
_cell_length_c                   10.5414(5)
_cell_measurement_reflns_used    1925
_cell_measurement_temperature    150(2)
_cell_measurement_theta_max      29.7150
_cell_measurement_theta_min      4.1820
_cell_volume                     664.68(7)
_computing_cell_refinement
;

CrysAlisPro, Agilent Technologies,

Version 1.171.36.28 (release 01-02-2013 CrysAlis171 .NET)

(compiled Feb  1 2013,16:14:44)

;
_computing_data_collection
;

CrysAlisPro, Agilent Technologies,

Version 1.171.36.28 (release 01-02-2013 CrysAlis171 .NET)

(compiled Feb  1 2013,16:14:44)

;
_computing_data_reduction
;

CrysAlisPro, Agilent Technologies,

Version 1.171.36.28 (release 01-02-2013 CrysAlis171 .NET)

(compiled Feb  1 2013,16:14:44)

;
_computing_structure_refinement  'SHELXL-2014/7 (Sheldrick, 2014)'
_computing_structure_solution    'SIR92 (Altomare et al., 1993)'
_diffrn_ambient_temperature      150(2)
_diffrn_measured_fraction_theta_full 0.998
_diffrn_measured_fraction_theta_max 0.998
_diffrn_measurement_device_type  'SuperNova, Dual, Mo at zero, Atlas'
_diffrn_measurement_method       '\w scans'
_diffrn_radiation_monochromator  mirror
_diffrn_radiation_source         'fine-focus sealed tube'
_diffrn_radiation_type           MoK\a
_diffrn_radiation_wavelength     0.71073
_diffrn_reflns_av_R_equivalents  0.0326
_diffrn_reflns_av_unetI/netI     0.0485
_diffrn_reflns_Laue_measured_fraction_full 0.998
_diffrn_reflns_Laue_measured_fraction_max 0.998
_diffrn_reflns_limit_h_max       12
_diffrn_reflns_limit_h_min       -8
_diffrn_reflns_limit_k_max       8
_diffrn_reflns_limit_k_min       -6
_diffrn_reflns_limit_l_max       13
_diffrn_reflns_limit_l_min       -13
_diffrn_reflns_number            3476
_diffrn_reflns_point_group_measured_fraction_full 0.998
_diffrn_reflns_point_group_measured_fraction_max 0.998
_diffrn_reflns_theta_full        25.242
_diffrn_reflns_theta_max         27.483
_diffrn_reflns_theta_min         3.102
_exptl_absorpt_coefficient_mu    10.926
_exptl_absorpt_correction_T_max  1.00000
_exptl_absorpt_correction_T_min  0.61982
_exptl_absorpt_correction_type   multi-scan
_exptl_absorpt_process_details
;

CrysAlisPro, Agilent Technologies,

Version 1.171.36.28 (release 01-02-2013 CrysAlis171 .NET)

(compiled Feb  1 2013,16:14:44)

Empirical absorption correction using spherical harmonics,

implemented in SCALE3 ABSPACK scaling algorithm.

;
_exptl_crystal_colour            orange
_exptl_crystal_density_diffrn    2.487
_exptl_crystal_description       needle
_exptl_crystal_F_000             468
_exptl_crystal_size_max          0.150
_exptl_crystal_size_mid          0.050
_exptl_crystal_size_min          0.050
_refine_diff_density_max         5.411
_refine_diff_density_min         -2.641
_refine_diff_density_rms         0.245
_refine_ls_extinction_method     none
_refine_ls_goodness_of_fit_ref   1.103
_refine_ls_hydrogen_treatment    constr
_refine_ls_matrix_type           full
_refine_ls_number_parameters     118
_refine_ls_number_reflns         1655
_refine_ls_number_restraints     0
_refine_ls_restrained_S_all      1.103
_refine_ls_R_factor_all          0.0429
_refine_ls_R_factor_gt           0.0384
_refine_ls_shift/su_max          0.001
_refine_ls_shift/su_mean         0.000
_refine_ls_structure_factor_coef Fsqd
_refine_ls_weighting_details
'w=1/[\s^2^(Fo^2^)+(0.0238P)^2^+6.4122P] where P=(Fo^2^+2Fc^2^)/3'
_refine_ls_weighting_scheme      calc
_refine_ls_wR_factor_gt          0.0814
_refine_ls_wR_factor_ref         0.0833
_reflns_Friedel_coverage         0.000
_reflns_number_gt                1532
_reflns_number_total             1655
_reflns_threshold_expression     'I > 2\s(I)'
_cod_data_source_file            c7qi00299h2.cif
_cod_data_source_block           moa374
_cod_original_sg_symbol_H-M      'P 21/m'
_cod_database_code               4349735
_shelx_shelxl_version_number     2014/7
_shelx_space_group_comment
;

The symmetry employed for this shelxl refinement is uniquely defined

by the following loop, which should always be used as a source of

symmetry information in preference to the above space-group names.

They are only intended as comments.

;
_shelx_estimated_absorpt_t_min   0.291
_shelx_estimated_absorpt_t_max   0.611
_shelx_res_file
;

 

    shelx.res created by SHELXL-2014/7

 

 

TITL moa374 in P2(1)

CELL  0.71073   9.4359   6.7378  10.5414   90.000   97.352   90.000

ZERR     2.00   0.0006   0.0004   0.0005    0.000    0.005    0.000

LATT   1

SYMM  - X, 1/2 + Y, - Z

SFAC  C    H    N    O    S    CL   PT

UNIT  22   22   4    8    2    2    2

MERG   2

SHEL 20.4 0.77

FMAP   2

PLAN   25

SIZE 0.15 0.05 0.05

ACTA

L.S.  20

TEMP  -123.00

WGHT    0.023800    6.412200

FVAR       1.23542

PT1   7    0.397134    0.250000    0.737137    10.50000    0.01972    0.02072 =

         0.01052    0.00000    0.00087    0.00000

CL1   6    0.160618    0.250000    0.761197    10.50000    0.02118    0.03803 =

         0.02677    0.00000    0.00893    0.00000

S10   5    0.347577    0.250000    0.526760    10.50000    0.01449    0.02143 =

         0.01016    0.00000    0.00191    0.00000

C7    1    0.833902    0.250000    0.855489    10.50000    0.02285    0.04006 =

         0.02463    0.00000    0.00223    0.00000

AFIX  43

H7    2    0.883794    0.250000    0.782718    10.50000   -1.20000

AFIX   0

O10   4    0.470887    0.250000    0.454903    10.50000    0.01678    0.03816 =

         0.01713    0.00000    0.00421    0.00000

O8    4    0.610615    0.250000    0.727090    10.50000    0.01354    0.03862 =

         0.01561    0.00000    0.00266    0.00000

O5A   4    0.886019    0.250000    1.308922    10.50000    0.04494    0.03385 =

         0.01958    0.00000   -0.00411    0.00000

C11   1    0.238094    0.045034    0.475715    11.00000    0.01943    0.02515 =

         0.02255   -0.00120   -0.00661   -0.00371

AFIX  33

H11A  2    0.155012    0.042606    0.522769    11.00000   -1.50000

H11B  2    0.205789    0.056810    0.383903    11.00000   -1.50000

H11C  2    0.292754   -0.078001    0.492160    11.00000   -1.50000

AFIX   0

N5    3    0.935004    0.250000    1.206864    10.50000    0.03931    0.01969 =

         0.02277    0.00000   -0.01588    0.00000

N1    3    0.470262    0.250000    0.929036    10.50000    0.01950    0.02300 =

         0.01986    0.00000    0.00283    0.00000

C10   1    0.691514    0.250000    1.078893    10.50000    0.02494    0.01692 =

         0.02096    0.00000    0.00187    0.00000

C2    1    0.393972    0.250000    1.025111    10.50000    0.03081    0.01802 =

         0.02655    0.00000    0.00668    0.00000

AFIX  43

H2    2    0.292633    0.250000    1.008213    10.50000   -1.20000

AFIX   0

C5    1    0.841400    0.250000    1.085577    10.50000    0.02987    0.02725 =

         0.01861    0.00000   -0.00532    0.00000

O5B   4    1.065739    0.250000    1.203049    10.50000    0.04196    0.06035 =

         0.03085    0.00000   -0.01317    0.00000

C3    1    0.459863    0.250000    1.151852    10.50000    0.04434    0.02641 =

         0.00879    0.00000    0.01196    0.00000

AFIX  43

H3    2    0.402364    0.250000    1.219537    10.50000   -1.20000

AFIX   0

C8    1    0.686875    0.250000    0.839967    10.50000    0.01918    0.02466 =

         0.02018    0.00000    0.00042    0.00000

C9    1    0.614199    0.250000    0.952568    10.50000    0.02227    0.01415 =

         0.01539    0.00000    0.00366    0.00000

C6    1    0.908657    0.250000    0.976516    10.50000    0.01921    0.03408 =

         0.03169    0.00000    0.00848    0.00000

AFIX  43

H6    2    1.010125    0.250000    0.985416    10.50000   -1.20000

AFIX   0

C4    1    0.604554    0.250000    1.179983    10.50000    0.03878    0.01627 =

         0.01423    0.00000    0.00723    0.00000

AFIX  43

H4    2    0.647498    0.250000    1.266562    10.50000   -1.20000

AFIX   0

HKLF    4

 

REM  moa374 in P2(1)

REM R1 =  0.0384 for    1532 Fo > 4sig(Fo)  and  0.0429 for all    1655 data

REM    118 parameters refined using      0 restraints

 

END

 

WGHT      0.0221      6.7883

 

REM Highest difference peak  5.411,  deepest hole -2.641,  1-sigma level  0.245

Q1    1   0.3166  0.2500  0.7499  10.50000  0.05    5.41

Q2    1   0.0982  0.2500  0.7014  10.50000  0.05    1.55

Q3    1   0.4345  0.2500  0.6576  10.50000  0.05    1.23

Q4    1   0.6843  0.2500  0.7688  10.50000  0.05    1.16

Q5    1   0.3395  0.2500  0.6009  10.50000  0.05    1.08

Q6    1   0.3575  0.2500  0.9091  10.50000  0.05    1.03

Q7    1   0.7780  0.2500  0.7721  10.50000  0.05    0.91

Q8    1   0.5177  0.2500  0.7040  10.50000  0.05    0.84

Q9    1   0.7478  0.2500  1.1371  10.50000  0.05    0.82

Q10   1   0.5918  0.2500  0.8173  10.50000  0.05    0.78

Q11   1   0.7174  0.2500  1.0042  10.50000  0.05    0.78

Q12   1   0.0383  0.2500  0.5018  10.50000  0.05    0.77

Q13   1   0.5813  0.2500  0.4416  10.50000  0.05    0.77

Q14   1   0.8440  0.2239  0.9241  11.00000  0.05    0.73

Q15   1   0.5185  0.1641  0.5217  11.00000  0.05    0.69

Q16   1   0.5050  0.1318  0.7161  11.00000  0.05    0.67

Q17   1   0.4182  0.2500  0.4870  10.50000  0.05    0.66

Q18   1   0.2180  0.1711  0.7071  11.00000  0.05    0.65

Q19   1   0.5688  0.2500  0.9208  10.50000  0.05    0.64

Q20   1   0.6178  0.2500  1.2366  10.50000  0.05    0.63

Q21   1   0.9429  0.2500  0.8973  10.50000  0.05    0.57

Q22   1   0.1606  0.0992  0.3975  11.00000  0.05    0.56

Q23   1   0.4831  0.2500  1.0086  10.50000  0.05    0.55

Q24   1   0.1342  0.2500  0.6090  10.50000  0.05    0.55

Q25   1   0.1055  0.2500  0.8356  10.50000  0.05    0.55

;
_shelx_res_checksum              8533
_shelx_hkl_file
;

   0  -3  -3 17977.2 538.932   2

   0  -3  -4 1692.96 133.412   2

   0  -3  -5 22338.5 670.617   2

   0  -2  -2 34360.0 845.914   2

   0  -2  -3 104.976 40.3297   2

   0  -2  -4 34377.9 887.428   2

   0  -1  -2 1077.72 72.0583   2

   0  -1   4 4203.70 199.417   4

   0   0   2 23950.2 589.693   1

   0   0   3 1469.59 89.7233   4

   0   0   3 1424.14 97.4082   1

   0   0  -3 1442.01 84.3158   4

   0   0  -4 57276.6 1301.70   4

   0   0   4 53811.3 1343.53   1

   0   0   4 55469.8 1302.62   4

   0   0   5 5852.72 263.062   1

   0   0  -5 5769.58 228.624   4

   0   0  -6 12016.1 440.711   1

   0   0  -6 11785.6 393.408   4

   0   0   6 12319.1 448.723   1

   0   0  -7 2101.13 149.198   4

   0   0  -7 2319.54 185.693   1

   0   0  -8 8216.12 336.896   4

   0   0  -8 7555.53 377.277   1

   0   0  -9 5731.76 334.554   1

   0   0  -9 5410.87 276.763   4

   0   0 -10 6390.42 377.840   1

   0   0 -11 4430.18 331.565   1

   0   0 -12 1993.68 229.929   1

   0   0  13 1367.01 192.771   2

   0   0  14 997.668 179.258   2

   0   1   0 5.74058 23.0381   4

   0   1  -1 35016.2 821.859   4

   0   1  -2 1139.76 92.6130   4

   0   1  -3 32314.2 801.494   4

   0   1   3 30719.9 791.919   1

   0   1   4 4114.73 193.223   1

   0   1  -4 3769.35 191.008   4

   0   1   4 4046.35 194.465   2

   0   1   4 4152.57 132.065   3

   0   1  -5 30341.4 819.329   4

   0   1  -5 29936.1 831.232   1

   0   1   5 29935.7 831.101   2

   0   1   5 30599.2 827.174   1

   0   1   5 30154.7 689.565   3

   0   1  -6 5011.49 154.827   3

   0   1   6 5300.94 263.743   1

   0   1  -6 4929.94 151.356   3

   0   1  -6 4979.80 246.431   4

   0   1   6 4781.15 261.968   2

   0   1  -6 5273.54 263.494   1

   0   1  -7 14364.6 519.021   1

   0   1  -7 14241.2 499.989   4

   0   1   7 13326.4 520.211   2

   0   1   8 4383.87 280.667   2

   0   1  -8 4450.21 272.076   1

   0   1  -8 4278.48 255.733   4

   0   1   9 12683.9 557.043   2

   0   1  -9 14030.4 564.255   1

   0   1  -9 14048.9 532.455   4

   0   1 -10 4923.67 303.798   4

   0   1 -10 6290.51 367.379   1

   0   1  10 5481.36 346.256   2

   0   1  11 3273.61 280.786   2

   0   1 -11 3185.82 252.595   4

   0   1 -11 3631.72 297.187   1

   0   1  12 1955.82 228.398   2

   0   1 -12 1777.31 217.093   1

   0   1 -13 2053.57 245.607   1

   0   1  13 2112.70 248.754   2

   0   1  14 5023.50 393.364   2

   0   2   0 166415. 3652.69   4

   0   2   1 3117.79 118.833   4

   0   2  -1 2906.26 152.199   4

   0   2  -2 35783.0 892.996   4

   0   2   2 34539.7 778.925   4

   0   2  -3 157.892 68.1074   4

   0   2  -4 33763.9 914.478   4

   0   2   4 33283.5 877.463   2

   0   2  -5 2367.22 176.634   4

   0   2   5 2549.20 130.083   3

   0   2   5 2627.29 175.598   2

   0   2   5 2700.06 176.921   1

   0   2   6 13529.0 488.145   2

   0   2   6 13741.1 494.951   1

   0   2   6 13474.6 378.832   3

   0   2  -6 13349.4 497.930   4

   0   2  -6 13057.2 477.953   1

   0   2   7 2782.60 218.084   2

   0   2  -7 3075.48 217.541   1

   0   2   7 3042.24 130.999   3

   0   2  -7 3077.18 223.918   4

   0   2   8 5873.90 186.905   3

   0   2  -8 5853.27 333.203   4

   0   2  -8 5763.71 325.289   1

   0   2   8 5285.71 330.661   2

   0   2  -8 5963.87 205.204   3

   0   2   9 3566.60 278.894   2

   0   2  -9 4128.86 284.823   1

   0   2  -9 4562.13 152.044   3

   0   2  -9 3969.68 283.150   4

   0   2  -9 4247.30 156.960   3

   0   2  10 4505.50 333.696   2

   0   2 -10 5860.03 356.770   1

   0   2 -10 5464.32 344.266   4

   0   2  11 3749.65 310.358   2

   0   2 -11 4128.00 311.780   1

   0   2 -11 4217.35 314.224   4

   0   2 -12 1962.90 230.220   1

   0   2 -12 1836.43 214.272   4

   0   2  12 2078.26 244.185   2

   0   2 -13 1391.38 205.625   1

   0   2  13 1555.78 219.836   2

   0   3   0 2.72777 45.1963   4

   0   3   1 24035.6 613.200   4

   0   3  -1 22790.7 657.675   4

   0   3   2 1070.57 69.0588   4

   0   3  -2 1191.81 121.226   4

   0   3   3 17211.0 413.374   4

   0   3  -3 18212.1 575.049   4

   0   3  -4 1576.69 154.905   4

   0   3  -5 22168.6 726.662   4

   0   3   6 4482.06 215.623   3

   0   3  -6 3901.10 263.918   4

   0   3   7 8801.66 318.843   3

   0   3   7 9386.66 419.032   2

   0   3  -7 8487.33 424.978   4

   0   3  -8 2720.81 242.697   4

   0   3  -8 2672.25 222.352   1

   0   3   8 2750.09 151.008   3

   0   3   8 3159.90 257.589   2

   0   3   9 11883.5 358.972   3

   0   3  -9 11568.9 549.745   4

   0   3  -9 11923.8 387.261   3

   0   3   9 10650.4 516.138   2

   0   3  -9 11148.2 517.670   1

   0   3 -10 5113.17 343.971   1

   0   3  10 4145.42 331.203   2

   0   3 -10 5648.15 374.298   4

   0   3 -11 1954.65 228.726   4

   0   3 -11 2148.12 228.280   1

   0   3  11 1820.22 232.404   2

   0   3 -12 1306.83 191.428   1

   0   3 -12 1229.22 193.565   4

   0   3  12 1231.15 206.037   2

   0   3  13 1481.95 230.467   2

   0   3 -13 2164.63 252.690   1

   0   4   0 73436.0 1767.30   4

   0   4  -1 1.88283 72.1271   4

   0   4   1-39.7406 54.4663   4

   0   4  -2 13544.2 504.056   4

   0   4   2 13995.0 410.391   4

   0   4   3-8.96472 29.6469   4

   0   4  -3-66.6773 92.8600   4

   0   4  -4 21245.3 726.632   4

   0   4  -5 2279.22 213.388   4

   0   4  -6 7782.30 412.239   4

   0   4   6 7852.34 345.609   3

   0   4   7 1606.74 146.062   3

   0   4  -7 1315.79 182.493   4

   0   4  -8 4350.87 328.574   4

   0   4   8 4765.03 246.334   3

   0   4  -9 3049.70 284.917   4

   0   4  -9 3198.32 269.263   1

   0   4  -9 3375.89 212.581   3

   0   4   9 3525.04 196.401   3

   0   4 -10 4298.50 327.156   1

   0   4 -10 3536.92 318.154   4

   0   4 -11 3145.51 291.798   1

   0   4 -11 3221.09 313.301   4

   0   4 -12 1250.87 211.029   4

   0   4 -12 1458.83 203.913   1

   0   5   0 75.4965 69.2387   4

   0   5   1 11636.3 417.706   4

   0   5  -1 11373.4 461.745   4

   0   5   2 367.800 70.7445   4

   0   5  -2 132.403 90.0150   4

   0   5  -3 10241.2 479.404   4

   0   5   3 11422.7 357.707   4

   0   5  -4 1363.55 179.255   4

   0   5  -5 10722.8 512.790   4

   0   5  -6 1863.19 222.361   4

   0   5   6 1967.48 187.897   3

   0   5   7 6068.57 331.448   3

   0   5  -7 5994.16 397.695   4

   0   5   8 2381.54 197.837   3

   0   5  -8 2154.33 244.995   4

   0   5  -9 6258.45 337.433   3

   0   5  -9 5769.89 420.594   4

   0   5   9 5798.19 310.187   3

   0   5 -10 2805.54 304.906   4

   0   5 -10 2667.20 275.266   1

   0   5 -11 2347.14 265.633   1

   0   5 -11 1733.86 255.550   4

   0   6   0 26576.4 829.444   4

   0   6   1 77.2226 63.9036   4

   0   6  -1-25.3126 79.3217   4

   0   6   2 6538.71 296.621   4

   0   6  -2 6467.65 369.714   4

   0   6  -3 116.222 90.0583   4

   0   6  -4 9994.35 511.962   4

   0   6  -5 1050.60 175.378   4

   0   6   6 4004.08 295.312   3

   0   6  -6 3988.74 331.306   4

   0   6   7 911.363 152.579   3

   0   6  -7 922.207 172.285   4

   0   6  -8 2879.65 308.567   4

   0   6   8 2633.73 237.568   3

   0   6  -9 1710.62 244.100   4

   0   6  -9 1877.04 201.586   3

   0   6 -10 2536.94 282.166   1

   0   6 -10 2074.27 280.700   4

   0   7   0 62.7945 77.2431   4

   0   7  -1 6010.43 359.422   4

   0   7   1 5525.61 310.470   4

   0   7  -2 148.895 85.7501   4

   0   7  -3 4670.49 343.786   4

   0   7  -4 217.703 101.900   4

   0   7   5 6110.41 399.315   3

   0   7  -5 5860.29 426.217   4

   0   7   6 1428.72 195.268   3

   0   7  -6 1249.60 211.722   4

   0   7   7 2232.01 241.319   3

   0   7  -7 2253.51 273.349   4

   0   7   8 672.398 145.264   3

   0   7  -8 634.886 133.920   3

   0   7  -8 707.265 164.706   4

   0   7  -9 3432.04 297.474   3

   0   8   0 9154.95 467.306   4

   0   8  -1-76.5865 93.8893   4

   0   8  -2 2801.49 272.025   4

   0   8  -3-115.091 108.065   4

   0   8  -4 3411.36 332.341   4

   0   8   4 3739.79 340.157   3

   0   8   5 486.336 134.451   3

   0   8  -5 559.028 155.764   4

   0   8   6 2187.61 256.800   3

   0   8  -6 1881.60 267.767   4

   0   8   7 371.903 126.738   3

   0   8  -7 540.118 141.690   3

   0   8  -8 1147.03 196.269   3

   0   9  -2-29.4768 90.5075   4

   0   9  -3 1507.66 220.238   4

   0   9  -4 129.521 87.3062   4

   1  -4  -4 10830.2 406.260   2

  -1  -4   3 4607.63 263.901   4

  -1  -4   2 5991.33 291.338   4

   1  -3  -5 13484.4 452.942   2

   1  -3  -4 3319.45 179.383   2

   1  -3  -3 13589.8 425.635   2

  -1  -3   1 24163.5 667.539   4

  -1  -3   0 5249.35 214.055   4

  -1  -3  -1 7727.94 253.959   4

  -1  -3  -2 9821.23 276.558   4

  -1  -3  -3 9183.27 344.659   2

  -1  -3  -4 22290.4 663.916   2

  -1  -2   6 17331.1 592.384   4

   1  -2  -4 16824.7 490.284   2

   1  -2  -3 6204.98 224.223   2

  -1  -2   0 25984.1 650.741   4

  -1  -2  -1 23042.0 560.307   4

  -1  -2  -2 911.409 82.6163   2

  -1  -2  -2 899.987 48.2125   4

  -1  -2  -3 10281.9 345.530   2

  -1  -2  -4 8105.00 311.679   2

   1  -1  -9 5016.74 322.148   1

   1  -1  -8 1331.94 156.105   1

  -1  -1   8 1654.31 157.211   4

  -1  -1   7 9190.94 383.269   4

   1  -1  -7 8762.69 394.860   1

  -1  -1   6 809.174 104.665   4

  -1  -1   5 19077.7 577.289   4

  -1  -1   4 5810.48 242.556   4

   1  -1  -2 2975.61 114.271   2

  -1  -1  -1 6872.51 212.400   2

  -1  -1  -2 11564.6 337.158   2

  -1  -1  -3 17573.4 447.008   3

  -1  -1  -4 37623.3 874.448   4

  -1  -1  -5 7400.69 237.512   4

  -1  -1  -6 14759.9 422.100   4

  -1  -1  -7 2430.68 139.719   4

  -1  -1  -8 12661.3 413.709   4

  -1  -1  -9 276.418 62.9779   4

  -1   0  14 3159.81 297.029   2

   1   0 -13 439.376 134.618   1

  -1   0  13 278.870 101.845   2

   1   0 -12 3458.55 304.234   1

   1   0 -11 1142.86 173.896   1

   1   0 -10 13777.2 599.195   1

   1   0  -9 1098.64 154.102   1

  -1   0   8 5817.25 283.920   4

   1   0  -8 5529.66 315.929   1

  -1   0   7 214.992 61.8734   4

   1   0  -7 317.173 86.8060   1

  -1   0   6 16584.4 553.946   1

  -1   0   6 16888.2 512.592   4

  -1   0   5 1129.30 106.921   1

  -1   0   5 1230.92 97.9328   4

  -1   0   4 24338.4 626.898   4

  -1   0   4 23286.4 653.498   1

  -1   0   3 11190.5 270.210   3

  -1   0   3 10750.8 338.626   1

  -1   0   3 11195.6 324.017   4

   1   0  -3 10992.4 277.887   3

  -1   0   2 7494.67 233.270   1

  -1   0   2 7751.51 207.649   3

   1   0  -2 7231.37 214.282   3

   1   0   1 22982.6 563.355   3

   1   0   2 1863.28 92.2957   1

   1   0   2 2202.51 94.6117   3

  -1   0  -2 1994.78 91.4794   1

  -1   0  -3 17014.9 435.629   3

  -1   0  -3 17048.1 465.086   1

   1   0   3 17852.9 424.805   3

   1   0   3 16731.4 473.404   1

  -1   0  -4 5624.32 227.078   1

  -1   0  -4 5489.30 168.471   3

   1   0   4 5666.29 235.331   1

  -1   0  -4 6260.45 222.404   4

  -1   0  -5 31840.0 795.906   4

   1   0   5 31087.6 845.850   1

  -1   0  -5 29983.4 699.398   3

  -1   0  -5 31338.2 826.507   1

   1   0   6 2549.58 178.663   1

  -1   0  -6 2113.08 75.3354   3

  -1   0  -6 2378.31 148.754   4

  -1   0  -6 2305.32 164.067   1

  -1   0  -7 18454.4 574.387   4

  -1   0  -7 18845.6 624.897   1

   1   0   7 19043.4 640.316   1

  -1   0  -8 3364.96 205.595   4

  -1   0  -8 3329.80 233.425   1

  -1   0  -9 12970.8 538.231   1

  -1   0  -9 12874.5 476.798   4

  -1   0 -10 497.022 107.753   1

  -1   0 -10 451.124 87.3798   4

  -1   0 -11 9737.74 433.935   4

   1   0  12 170.869 107.219   2

   1   0  13 5659.46 408.508   2

  -1   1  14 1088.32 198.207   2

  -1   1  13 2748.08 274.001   2

   1   1 -13 3282.36 307.011   1

   1   1 -12 505.537 136.340   1

  -1   1  12 383.518 116.945   2

   1   1 -11 4380.05 324.995   1

  -1   1  11 3868.20 297.767   2

  -1   1  10 381.984 104.101   2

   1   1 -10 465.271 108.991   1

  -1   1   9 4803.76 304.575   2

   1   1  -9 5026.76 313.053   1

   1   1  -8 1331.58 138.128   4

   1   1  -8 1314.46 153.003   1

  -1   1   8 1188.10 155.776   2

   1   1  -7 8325.92 224.290   3

   1   1  -7 9514.30 396.169   1

   1   1  -7 8526.34 363.258   4

  -1   1   7 9079.95 313.763   4

  -1   1   7 7646.47 366.257   2

   1   1  -6 656.215 90.8823   4

  -1   1   6 743.465 95.3580   1

  -1   1   6 696.811 101.622   2

  -1   1   6 650.490 72.0553   4

  -1   1   6 528.787 34.5893   3

   1   1  -6 789.665 49.0426   3

  -1   1   6 645.406 41.3405   3

  -1   1   5 19007.6 511.946   4

   1   1  -5 19866.9 471.886   3

   1   1  -5 19087.6 581.453   4

  -1   1   5 19209.7 464.135   3

  -1   1   5 18640.0 579.258   1

  -1   1   5 18205.1 569.330   2

  -1   1   4 5922.54 239.953   1

  -1   1   4 5588.36 193.126   4

   1   1  -4 5974.25 246.098   4

   1   1  -4 6003.99 184.242   3

  -1   1   4 5749.24 230.397   2

   1   1  -3 17677.1 501.980   4

  -1   1   3 17386.7 464.820   2

   1   1  -3 17996.0 442.374   3

  -1   1   3 16889.0 484.318   1

   1   1  -2 3291.49 147.300   4

  -1   1   2 2936.18 131.969   1

   1   1  -2 3176.69 125.520   3

  -1   1   2 3222.05 122.959   2

   1   1  -1 59369.8 1340.11   3

   1   1   0 11931.5 323.899   3

   1   1   1 7773.69 232.798   3

   1   1   2 12246.7 331.613   3

   1   1   3 17751.1 447.346   3

  -1   1  -3 17280.1 478.660   1

   1   1   3 17257.8 489.650   1

   1   1   4 38229.3 973.718   1

   1   1   4 38404.3 894.859   3

  -1   1  -4 38113.3 965.757   1

  -1   1  -4 37614.8 973.451   4

   1   1   5 7726.85 239.486   3

  -1   1  -5 7717.75 304.566   1

  -1   1  -5 7566.44 237.329   3

   1   1   5 7172.14 301.918   1

  -1   1  -5 7097.40 304.199   4

  -1   1  -6 14789.8 500.247   4

   1   1   6 14893.8 521.339   2

  -1   1  -6 14612.6 401.357   3

  -1   1  -6 14691.8 501.848   1

   1   1   6 14661.1 399.474   3

   1   1   6 14309.4 502.535   1

   1   1   7 2574.27 205.144   2

   1   1   7 2114.20 85.4167   3

  -1   1  -7 2689.42 191.714   1

  -1   1  -7 2405.74 114.162   3

  -1   1  -7 2277.41 179.433   4

  -1   1  -8 12939.6 497.002   1

  -1   1  -8 12501.0 483.300   4

  -1   1  -8 11669.9 289.445   3

   1   1   8 12559.7 516.353   2

  -1   1  -9 439.809 100.548   1

   1   1   9 454.508 106.343   2

  -1   1  -9 361.227 90.6297   4

  -1   1 -10 13977.8 556.491   4

  -1   1 -10 13751.1 585.627   1

   1   1  10 12920.2 587.449   2

  -1   1 -11 136.111 82.1952   1

   1   1  11-10.0394 82.1454   2

  -1   1 -11-59.7159 69.7413   4

  -1   1 -12 3815.57 319.460   1

  -1   1 -12 3923.75 290.663   4

   1   1  12 4267.19 341.725   2

  -1   1 -13-119.265 71.8197   1

   1   1  13 43.6981 88.0410   2

  -1   2  14 3419.86 317.642   2

  -1   2  13 111.471 93.6989   2

   1   2 -13 68.9434 70.6160   1

   1   2 -12 2642.52 258.940   1

  -1   2  12 2534.23 257.042   2

   1   2 -11 1834.87 208.520   1

  -1   2  11 1509.15 195.593   2

   1   2 -10 14100.8 591.160   1

  -1   2  10 12266.8 563.510   2

  -1   2   9 390.322 108.688   2

   1   2  -9 472.088 105.653   1

   1   2  -9 417.686 43.1291   3

   1   2  -9 262.134 82.9025   4

   1   2  -8 3344.81 242.876   1

   1   2  -8 3280.49 241.970   4

  -1   2   8 3103.29 129.235   3

  -1   2   8 3233.32 120.335   3

  -1   2   8 2992.95 234.872   2

   1   2  -8 3611.84 147.175   3

   1   2  -7 0.20776 76.5783   4

  -1   2   7-119.568 92.3181   2

   1   2  -7 3.95838 59.9660   1

  -1   2   7-7.86487 29.5350   3

   1   2  -7 42.3630 37.2372   3

   1   2  -6 16560.2 574.181   4

   1   2  -6 17171.7 465.546   3

  -1   2   6 16661.3 545.013   2

  -1   2   6 16183.2 431.927   4

  -1   2   6 16669.4 567.187   1

  -1   2   5 2218.71 158.722   1

  -1   2   5 2050.81 148.172   2

  -1   2   5 2046.91 90.7047   4

   1   2  -5 2038.53 120.110   3

   1   2  -5 2131.15 167.972   4

  -1   2   4 16360.7 488.032   2

  -1   2   4 16804.7 520.865   1

   1   2  -4 16636.3 469.345   3

   1   2  -4 16769.1 534.393   4

   1   2  -3 6297.39 268.060   4

   1   2  -2 9015.99 320.914   4

   1   2  -1 10781.2 340.906   4

   1   2   0 27050.7 672.997   4

   1   2   2 945.393 88.7071   3

   1   2   3 10177.8 325.250   3

  -1   2  -3 10144.9 369.352   4

   1   2   4 7730.35 267.771   3

  -1   2  -4 7627.42 328.356   4

   1   2   5 29376.8 747.154   3

   1   2   5 29979.0 841.332   2

  -1   2  -5 29170.9 817.873   1

  -1   2  -5 29433.5 856.187   4

   1   2   5 30100.4 841.503   1

  -1   2  -6 946.837 132.128   4

   1   2   6 1227.41 91.5381   3

  -1   2  -6 1039.02 117.198   1

   1   2   6 953.033 139.484   2

  -1   2  -7 12877.1 519.151   4

  -1   2  -7 13546.4 504.901   1

   1   2   7 12635.0 515.880   2

   1   2   7 13259.7 388.844   3

  -1   2  -7 13324.9 403.642   3

   1   2   8 4009.89 170.364   3

  -1   2  -8 2682.89 150.137   3

   1   2   8 3921.71 278.192   2

  -1   2  -8 4315.66 267.703   1

  -1   2  -8 3987.02 274.951   4

   1   2   9 13132.0 543.320   2

  -1   2  -9 13517.2 530.750   4

  -1   2  -9 13970.2 527.682   1

  -1   2  -9 13435.2 340.342   3

  -1   2 -10 107.319 69.6206   1

   1   2  10 163.081 103.440   2

  -1   2 -10 139.440 93.1809   4

  -1   2 -11 6920.32 415.015   4

   1   2  11 6617.63 427.451   2

  -1   2 -11 7520.20 430.390   1

   1   2  12 286.441 127.184   2

  -1   2 -12 154.348 82.6891   4

  -1   2 -12 274.887 107.511   1

  -1   2 -13 6291.24 437.983   1

  -1   2 -13 5795.24 406.901   4

   1   2  13 6081.45 438.962   2

  -1   3  13 2632.29 286.442   2

   1   3 -13 2634.72 279.559   1

   1   3 -12 477.413 127.038   1

  -1   3  12 341.382 130.826   2

   1   3 -11 3811.98 308.885   1

  -1   3  11 2904.31 276.551   2

   1   3 -10 399.758 116.300   4

   1   3 -10 470.283 112.787   1

  -1   3  10 490.063 129.550   2

   1   3  -9 4158.34 295.426   1

  -1   3   9 4132.35 176.275   3

  -1   3   9 3660.32 279.562   2

   1   3  -9 4051.01 300.141   4

   1   3  -9 4154.06 192.686   3

   1   3  -8 812.550 129.500   1

   1   3  -8 865.732 92.9878   3

  -1   3   8 878.936 88.6774   3

  -1   3   8 1012.90 149.948   2

   1   3  -8 752.284 131.878   4

   1   3  -7 7855.31 400.782   4

   1   3  -7 7657.80 299.220   3

   1   3  -6 562.731 114.711   4

   1   3  -6 654.386 89.7443   3

  -1   3   5 13469.1 483.041   1

   1   3  -5 12287.0 497.023   4

   1   3  -4 3114.36 213.505   4

   1   3  -3 13262.2 476.108   4

   1   3  -2 4283.57 225.435   4

   1   3  -1 24987.4 695.946   4

   1   3   0 5386.48 223.048   4

  -1   3  -1 8473.43 326.223   4

  -1   3  -2 10301.7 388.304   4

   1   3   3 8728.86 339.350   3

  -1   3  -3 9369.39 376.307   4

  -1   3  -4 22423.1 712.735   4

   1   3   4 22710.5 651.962   3

   1   3   5 5344.69 242.197   3

  -1   3  -5 5563.53 309.484   4

  -1   3  -6 12357.8 512.681   4

   1   3   6 11944.3 404.522   3

   1   3   7 1904.16 209.439   2

  -1   3  -7 1454.14 172.968   4

  -1   3  -7 1507.37 157.237   1

   1   3   7 1546.22 122.227   3

   1   3   8 9033.55 448.296   2

  -1   3  -8 8984.19 425.482   1

  -1   3  -8 8849.73 457.420   4

   1   3   8 8838.14 318.891   3

   1   3   9 676.041 150.694   2

  -1   3  -9 297.047 91.6351   1

  -1   3  -9 431.278 119.163   4

   1   3   9 299.800 56.0105   3

   1   3  10 8971.00 506.774   2

  -1   3 -10 10475.5 507.844   1

  -1   3 -10 10493.4 537.079   4

   1   3  11 207.075 116.230   2

  -1   3 -11-28.1081 71.8779   1

  -1   3 -11-48.5287 105.398   4

  -1   3 -12 3380.07 317.726   4

   1   3  12 3154.13 318.704   2

  -1   3 -12 3249.01 296.993   1

  -1   3 -13 63.7305 91.7564   4

   1   3  13 305.386 145.183   2

  -1   3 -13 96.0863 81.2893   1

   1   4 -12 2426.97 267.137   1

   1   4 -11 1049.40 174.273   1

   1   4 -10 8641.55 511.306   4

   1   4 -10 8958.86 494.193   1

  -1   4   9 464.306 78.6726   3

   1   4  -9 520.753 127.896   4

   1   4  -9 479.399 80.5807   3

   1   4  -9 347.465 96.5866   1

  -1   4   8 3130.10 200.305   3

   1   4  -8 2514.84 185.081   3

   1   4  -8 2720.78 248.752   4

   1   4  -7 1.46772 84.5860   4

   1   4  -7 44.8596 53.8345   3

   1   4  -6 9561.48 466.187   4

   1   4  -5 956.190 149.537   4

   1   4  -4 10552.0 459.221   4

  -1   4   4 10472.7 294.462   4

  -1   4   3 4049.20 171.723   4

   1   4  -3 4343.46 263.318   4

  -1   4   2 5684.76 233.559   4

   1   4  -2 6050.77 299.773   4

   1   4  -1 5765.75 279.120   4

  -1   4   1 6103.25 260.502   4

  -1   4   0 13269.5 454.813   4

   1   4   0 12811.1 438.502   4

   1   4   1 10691.6 363.268   4

  -1   4  -1 10609.6 411.137   4

  -1   4  -2 1468.47 154.102   4

  -1   4  -3 7302.15 360.990   4

   1   4   4 4352.22 251.151   3

  -1   4  -4 3906.66 271.222   4

  -1   4  -5 14676.6 596.055   4

   1   4   5 15507.2 534.353   3

  -1   4  -6 723.560 138.038   4

   1   4   6 972.542 123.581   3

   1   4   7 9214.59 377.579   3

  -1   4  -7 9389.05 481.139   4

  -1   4  -8 2118.51 231.436   4

  -1   4  -8 2095.24 205.303   1

   1   4   8 1993.01 153.720   3

  -1   4  -9 8075.97 480.853   4

   1   4   9 8356.40 338.885   3

  -1   4  -9 8624.73 454.227   1

  -1   4 -10 171.170 107.776   4

  -1   4 -10 245.366 95.9532   1

  -1   4 -11 5963.10 437.757   4

  -1   4 -11 5365.33 381.987   1

  -1   4 -12-65.0906 77.0583   1

  -1   4 -12-110.906 112.970   4

   1   5 -11 2728.37 293.995   1

   1   5 -10 413.940 111.427   1

   1   5 -10 148.041 97.6873   4

   1   5  -9 3094.12 306.952   4

  -1   5   9 3485.48 236.879   3

   1   5  -9 2994.18 225.238   3

   1   5  -8 881.833 128.859   3

  -1   5   8 702.087 116.733   3

   1   5  -8 429.859 121.469   4

   1   5  -7 3862.24 315.409   4

   1   5  -7 3913.00 261.403   3

   1   5  -6 89.3895 93.0109   4

   1   5  -5 8965.42 465.452   4

   1   5  -4 2300.79 217.741   4

  -1   5   4 2454.71 126.211   4

  -1   5   3 4868.90 218.148   4

   1   5  -3 5276.70 317.195   4

   1   5  -2 1044.76 145.368   4

  -1   5   2 976.965 108.287   4

  -1   5   1 15150.6 509.890   4

   1   5  -1 14396.3 534.980   4

  -1   5   0 5400.06 287.783   4

   1   5   0 5322.93 275.405   4

  -1   5  -1 2627.16 211.017   4

  -1   5  -2 3927.20 270.404   4

  -1   5  -3 5713.24 342.927   4

   1   5   4 12878.2 527.640   3

  -1   5  -4 12410.5 550.820   4

  -1   5  -5 2160.99 223.663   4

   1   5   5 2430.12 209.405   3

  -1   5  -6 5926.25 386.285   4

   1   5   6 6511.15 346.436   3

  -1   5  -7 750.951 148.469   4

   1   5   7 1004.63 134.207   3

   1   5   8 6396.33 336.548   3

  -1   5  -8 6382.24 426.666   4

  -1   5  -9 176.423 82.2012   1

  -1   5  -9 113.649 98.9257   4

   1   5   9 276.655 74.6524   3

  -1   5 -10 6442.83 465.227   4

  -1   5 -10 6154.56 416.012   1

  -1   5 -11-247.128 141.393   4

  -1   5 -11-41.4613 70.0189   1

  -1   5 -12 1975.59 249.940   1

   1   6 -10 6096.92 471.074   4

   1   6 -10 5794.92 450.819   1

   1   6  -9 230.765 107.215   4

   1   6  -9 151.699 82.3127   3

   1   6  -8 1560.74 184.825   3

  -1   6   8 1920.96 205.642   3

   1   6  -8 1596.27 238.458   4

   1   6  -7-2.62057 71.5849   3

   1   6  -7-55.2593 107.410   4

   1   6  -6 5063.96 376.239   4

   1   6  -6 5284.51 338.888   3

   1   6  -5 463.571 120.168   4

   1   6  -4 5531.95 366.782   4

  -1   6   4 5230.74 220.495   4

   1   6  -3 1517.88 188.473   4

  -1   6   3 1789.25 136.687   4

  -1   6   2 3084.89 200.039   4

   1   6  -2 3081.55 250.217   4

  -1   6   1 2752.07 206.957   4

   1   6  -1 2870.84 228.954   4

   1   6   0 6418.66 331.359   4

  -1   6   0 6594.76 347.707   4

  -1   6  -1 4931.01 310.557   4

  -1   6  -2 885.286 141.183   4

  -1   6  -3 3577.16 287.314   4

   1   6   3 3572.83 279.631   3

   1   6   4 2483.83 235.529   3

  -1   6  -4 2190.77 238.823   4

  -1   6  -5 7368.95 447.321   4

   1   6   5 7999.06 429.505   3

   1   6   6 414.557 114.052   3

  -1   6  -6 339.350 124.704   4

  -1   6  -7 5249.98 402.772   4

   1   6   7 5326.04 340.697   3

   1   6   8 1230.21 162.435   3

  -1   6  -8 1000.29 182.015   4

  -1   6  -9 4638.46 404.440   4

  -1   6 -10 79.4658 72.9659   1

  -1   6 -11 3043.82 317.229   1

   1   7  -9 1406.07 188.820   3

   1   7  -8 339.218 113.380   3

  -1   7   8 104.950 86.9948   3

   1   7  -8 331.512 141.247   4

  -1   7   7 2125.48 238.574   3

   1   7  -7 2556.51 260.465   3

   1   7  -7 2884.80 309.720   4

   1   7  -6 37.1636 99.8077   4

   1   7  -6 175.650 92.2622   3

   1   7  -5 4125.19 332.899   3

   1   7  -5 3875.70 338.458   4

   1   7  -4 967.350 174.987   4

   1   7  -3 3183.15 282.484   4

  -1   7   3 2811.80 188.719   4

   1   7  -2 890.236 152.237   4

  -1   7   2 991.774 126.430   4

   1   7  -1 4835.30 318.148   4

  -1   7   1 4860.55 291.332   4

  -1   7   0 1652.53 181.225   4

  -1   7  -1 1673.81 196.070   4

   1   7   2 2963.00 280.144   3

  -1   7  -2 2324.31 239.013   4

   1   7   3 2113.45 236.262   3

  -1   7  -3 1584.06 213.008   4

  -1   7  -4 5285.92 385.622   4

   1   7   4 4447.25 347.899   3

  -1   7  -5 1460.10 218.832   4

   1   7   5 1098.02 175.603   3

  -1   7  -6 3600.38 340.908   4

   1   7   6 3756.87 311.586   3

  -1   7  -7 448.802 150.147   4

   1   7   7 296.172 108.742   3

  -1   7  -8 3130.99 336.050   4

   1   7   8 2800.85 273.212   3

   1   8  -8 730.916 164.025   3

   1   8  -7 101.936 87.0494   3

  -1   8   7-3.30286 76.6444   3

   1   8  -6 2779.31 300.046   3

   1   8  -5 162.983 105.184   4

   1   8  -5 484.275 145.891   3

   1   8  -4 2540.98 282.926   3

   1   8  -3 669.060 151.644   3

   1   8  -2 1704.34 250.522   3

  -1   8   1 1243.74 159.606   4

   1   8  -1 1076.08 201.019   3

   1   8   0 3328.26 322.188   3

  -1   8   0 2662.81 241.969   4

  -1   8  -1 2167.81 231.091   4

   1   8   1 2207.36 274.306   3

  -1   8  -2 484.944 134.044   4

   1   8   2 755.797 166.423   3

  -1   8  -3 1151.79 196.672   4

   1   8   3 1200.81 198.933   3

   1   8   4 1385.93 220.910   3

  -1   8  -4 1442.88 221.730   4

  -1   8  -5 3707.92 355.915   4

   1   8   5 3503.10 329.234   3

   1   8   6 81.1085 79.6569   3

  -1   8  -6 97.7465 103.053   4

   1   8   7 1917.60 241.572   3

  -1   9  -1 640.147 135.384   4

  -1   9  -2 730.338 156.594   4

  -1   9  -3 451.472 139.300   4

  -2  -5   1 887.177 118.128   4

  -2  -5  -1 161.943 59.3230   4

   2  -4  -5 7406.61 319.442   2

   2  -4  -4 1458.90 128.064   2

  -2  -4   3 4803.14 276.925   4

  -2  -4   2 2260.31 175.987   4

  -2  -4   0 1237.91 113.834   4

  -2  -4  -1 6767.49 268.042   4

  -2  -4  -2 206.839 48.5504   4

  -2  -4  -3 8285.85 254.993   4

   2  -3  -5 8534.84 323.868   2

   2  -3  -4 3087.92 162.434   2

   2  -3  -3 2136.13 131.011   2

  -2  -3   1 1462.17 117.372   4

  -2  -3   0 23553.8 646.184   4

  -2  -3  -1 883.174 80.7201   4

  -2  -3  -2 5468.20 252.107   2

  -2  -3  -2 5236.83 191.778   4

  -2  -3  -3-17.8287 39.7647   2

  -2  -3  -3 2.94319 19.8522   4

  -2  -3  -4 21603.6 520.154   4

  -2  -3  -4 28538.5 727.854   2

  -2  -2   6 6510.17 321.770   4

   2  -2  -3 10391.6 308.417   2

  -2  -2  -2 72.3274 43.5734   2

  -2  -2  -3 9350.57 335.261   2

  -2  -2  -4 944.974 103.185   2

  -2  -2  -6 1901.93 98.2758   4

  -2  -2  -7 6595.52 222.474   4

  -2  -2  -8 1052.28 80.2069   4

  -2  -2  -9 8039.76 278.027   4

   2  -1 -10 863.869 141.051   1

   2  -1  -9 3508.87 271.006   1

   2  -1  -8 3177.58 246.314   1

  -2  -1   7 11007.2 433.529   4

   2  -1  -7 11069.5 465.567   1

  -2  -1   6 4525.22 243.124   4

  -2  -1   5 12823.0 441.164   4

  -2  -1   4 3311.40 141.236   3

  -2  -1   3 2499.42 121.265   3

   2  -1  -2 4483.46 133.932   2

  -2  -1   2 4239.90 171.360   3

  -2  -1  -1 1126.28 78.4151   2

  -2  -1  -2 8276.98 274.701   2

  -2  -1  -3 452.167 53.6841   3

  -2  -1  -4 37110.8 895.536   3

  -2  -1  -5 1676.67 99.1498   3

  -2  -1  -6 7368.68 267.669   4

  -2  -1  -6 7146.65 240.421   3

  -2  -1  -7 606.701 78.7547   4

  -2  -1  -8 9229.06 346.108   4

  -2  -1  -9 2434.20 165.986   4

  -2  -1 -10 5051.02 258.122   4

  -2  -1 -11 2083.70 164.388   4

  -2   0  14 5424.23 385.241   2

   2   0 -13 344.270 122.307   1

  -2   0  13 349.515 116.787   2

   2   0 -12 4132.61 336.530   1

   2   0 -11 163.552 83.5682   1

   2   0 -10 10342.7 507.601   1

   2   0  -9 3755.78 274.895   1

  -2   0   9 3729.78 240.748   4

  -2   0   8 2384.02 181.588   4

   2   0  -8 2706.93 218.484   1

  -2   0   7 2712.61 183.275   4

  -2   0   6 9383.62 345.357   4

  -2   0   6 8991.61 242.461   3

   2   0  -5 13893.6 364.246   3

  -2   0   5 13821.5 358.970   3

  -2   0   5 13642.7 438.429   4

   2   0  -4 1529.72 92.0161   3

  -2   0   4 1469.40 81.8091   3

  -2   0   3 5459.67 200.558   3

   2   0  -3 5520.50 210.303   3

   2   0  -2 7036.14 257.039   3

  -2   0   2 6623.45 245.252   3

   2   0  -1 19558.6 550.563   3

   2   0   0 1178.23 111.296   3

  -2   0   0 1460.96 62.2753   2

   2   0   1 6284.34 250.269   3

   2   0   2 1723.03 85.9763   1

   2   0   2 1909.94 125.415   3

  -2   0  -3 16741.5 446.636   1

   2   0   3 17056.1 467.878   3

   2   0   3 16330.0 455.328   1

  -2   0  -3 15622.9 474.148   3

  -2   0  -4 275.220 48.4390   3

   2   0   4 224.215 45.9061   3

  -2   0  -4 328.498 55.0755   1

   2   0   4 236.641 47.4827   1

   2   0   5 9344.54 288.076   3

  -2   0  -5 9415.93 289.165   3

   2   0   5 9389.90 355.123   1

  -2   0  -5 9424.61 338.140   1

  -2   0  -6 1306.16 124.626   4

   2   0   6 1264.30 124.593   1

  -2   0  -6 1220.75 118.324   1

  -2   0  -6 1123.51 75.2650   3

  -2   0  -7 8818.10 376.884   1

  -2   0  -7 9365.19 368.716   4

  -2   0  -7 9344.55 269.008   3

   2   0   7 9673.39 408.416   1

  -2   0  -8 1973.38 175.101   1

  -2   0  -8 1865.76 159.030   4

  -2   0  -8 1674.74 77.5580   3

  -2   0  -9 8168.75 368.331   4

  -2   0 -10 4751.29 279.481   4

  -2   0 -11 2560.85 208.279   4

   2   0  11 3482.12 296.124   2

  -2   0 -12 2603.04 219.723   4

   2   0  12 2629.37 270.445   2

   2   0  13 4308.17 360.714   2

  -2   1  14 146.741 95.6792   2

   2   1 -13 3635.58 326.078   1

  -2   1  13 3037.03 283.709   2

   2   1 -12 118.846 89.4782   1

  -2   1  12-112.923 111.451   2

   2   1 -11 7171.09 418.576   1

  -2   1  11 6323.26 379.461   2

  -2   1  10 1019.10 144.208   2

   2   1 -10 849.831 139.754   1

  -2   1  10 1068.88 121.481   4

   2   1  -9 3540.87 259.847   1

  -2   1   9 3088.54 242.564   2

  -2   1   9 3637.29 214.639   4

  -2   1   8 3205.79 193.000   4

  -2   1   8 2784.12 219.007   2

   2   1  -8 3508.01 117.003   3

   2   1  -8 2962.07 228.395   1

  -2   1   7 11251.5 388.115   4

   2   1  -7 10950.7 323.801   3

   2   1  -7 11144.8 450.523   1

  -2   1   7 9524.45 409.870   2

  -2   1   7 10836.4 288.066   3

  -2   1   6 4751.49 213.962   4

  -2   1   6 4670.86 183.158   3

   2   1  -6 4898.44 185.332   3

  -2   1   6 5005.33 256.588   1

  -2   1   6 4436.95 236.189   2

  -2   1   5 12299.9 410.293   2

  -2   1   5 12816.8 366.882   3

  -2   1   5 12784.9 438.550   1

   2   1  -5 13313.0 366.912   3

  -2   1   4 3708.60 148.632   3

  -2   1   4 3180.24 149.701   2

   2   1  -4 3209.48 141.457   3

  -2   1   4 3159.52 168.455   1

  -2   1   3 2518.43 130.117   1

  -2   1   3 2460.53 120.041   3

   2   1  -3 2563.87 123.922   3

  -2   1   3 2642.08 110.669   2

  -2   1   2 4494.69 176.033   3

  -2   1   2 4336.18 163.131   1

   2   1  -2 4858.27 178.815   3

  -2   1   1 1098.90 61.0026   1

   2   1  -1 1142.67 91.5165   3

   2   1   0 33770.8 825.214   3

   2   1   1 1256.46 97.3904   3

  -2   1  -2 8227.10 238.649   1

   2   1   2 8389.91 275.299   3

  -2   1  -3 458.856 57.9381   3

   2   1   3 378.908 58.7944   3

  -2   1  -3 503.565 55.3580   1

   2   1   4 37958.1 933.093   3

  -2   1  -4 36272.5 917.769   3

   2   1   4 37566.6 953.281   1

  -2   1  -4 36511.1 926.008   1

  -2   1  -5 1586.34 122.204   1

   2   1   5 1815.61 134.774   1

  -2   1  -5 1585.42 113.958   3

   2   1   5 1545.10 125.335   3

   2   1   6 7315.25 270.185   3

   2   1   6 7344.19 319.170   1

  -2   1  -6 6938.94 321.963   4

  -2   1  -6 6730.40 299.994   1

  -2   1  -6 6747.20 269.399   3

   2   1   7 579.116 65.8392   3

  -2   1  -7 627.297 77.9216   3

  -2   1  -7 493.528 89.6266   1

   2   1   7 694.191 123.606   2

  -2   1  -7 665.082 119.021   4

  -2   1  -8 9370.96 289.488   3

  -2   1  -8 9576.18 425.073   4

   2   1   8 9338.45 440.743   2

  -2   1  -8 9826.22 421.874   1

  -2   1  -9 2305.96 201.547   4

  -2   1  -9 2523.61 211.717   1

   2   1   9 2103.17 215.151   2

  -2   1  -9 2303.74 93.6959   3

  -2   1 -10 5232.61 324.551   4

  -2   1 -10 5266.47 333.451   1

   2   1  10 4866.73 338.025   2

   2   1  11 2038.97 236.916   2

  -2   1 -11 2074.44 208.335   4

  -2   1 -11 1879.58 212.918   1

  -2   1 -12 2777.63 245.075   4

   2   1  12 2369.81 261.828   2

  -2   1 -12 2827.28 268.018   1

  -2   1 -13 1290.43 176.888   4

   2   1  13 1144.98 200.025   2

  -2   2  14 4865.76 370.115   2

  -2   2  13 301.865 119.308   2

   2   2 -13 353.824 116.133   1

   2   2 -12 3569.38 303.892   1

  -2   2  12 3323.66 286.092   2

   2   2 -11 176.679 80.1212   1

  -2   2  11 148.003 94.0575   2

  -2   2  10 7513.89 404.802   2

   2   2 -10 8693.51 449.677   1

   2   2  -9 3162.71 144.297   3

  -2   2   9 2798.99 160.253   4

  -2   2   9 2611.30 220.481   2

   2   2  -9 2685.46 229.690   1

  -2   2   9 2738.69 98.4616   3

  -2   2   9 2516.52 90.6188   3

   2   2  -8 2756.86 223.160   1

  -2   2   8 3026.61 165.054   4

  -2   2   8 2800.24 136.924   3

   2   2  -8 3061.97 149.804   3

  -2   2   8 2503.23 203.279   2

   2   2  -7 3341.36 159.571   3

   2   2  -7 3101.75 218.540   1

  -2   2   7 3046.68 151.151   3

  -2   2   7 3204.97 209.332   2

  -2   2   7 3160.05 160.562   4

  -2   2   6 6606.51 241.709   4

  -2   2   6 6698.25 310.966   1

  -2   2   6 6123.58 277.541   2

   2   2  -6 6581.81 245.803   3

  -2   2   5 9204.97 323.674   2

  -2   2   5 9451.73 364.014   1

   2   2  -5 8625.03 300.900   3

  -2   2   4 3585.24 191.764   1

   2   2  -4 3509.21 172.193   3

  -2   2   3 10333.1 349.873   1

   2   2  -3 10701.3 348.473   3

   2   2  -2 1393.82 110.718   3

   2   2  -1 8596.62 305.491   3

   2   2   0 6634.11 260.221   3

   2   2   1 15700.3 469.730   3

   2   2   2 19.3103 44.6432   3

   2   2   3 8946.49 314.905   3

   2   2   4 976.228 97.6353   3

  -2   2  -5 11759.7 407.909   1

   2   2   5 11224.8 422.313   1

  -2   2  -5 11583.1 452.647   4

   2   2   5 11573.9 379.209   3

  -2   2  -6 2016.57 160.113   1

  -2   2  -6 2036.74 138.060   3

  -2   2  -6 2368.38 201.777   4

   2   2   6 2102.85 140.122   3

   2   2   6 2243.44 191.875   2

  -2   2  -7 6888.72 361.927   4

  -2   2  -7 6863.51 276.372   3

   2   2   7 6697.95 355.051   2

   2   2   7 6894.27 283.364   3

  -2   2  -7 6366.96 320.259   1

  -2   2  -8 1211.75 143.891   1

  -2   2  -8 1279.77 167.271   4

  -2   2  -8 1156.59 109.430   3

   2   2   8 1285.06 116.173   3

   2   2   8 1176.95 163.803   2

   2   2   9 7950.34 261.813   3

  -2   2  -9 7998.19 425.817   4

  -2   2  -9 7608.87 391.244   1

   2   2   9 6906.74 405.365   2

  -2   2 -10 4152.45 309.735   4

  -2   2 -10 4183.56 294.491   1

   2   2  10 3739.44 307.406   2

  -2   2 -11 2777.94 262.530   4

  -2   2 -11 3277.11 280.044   1

   2   2  11 2813.28 278.469   2

  -2   2 -12 2636.83 267.423   4

   2   2  12 2457.83 278.482   2

  -2   2 -12 2432.63 253.667   1

  -2   2 -13 3183.39 302.127   4

  -2   2 -13 3109.21 298.899   1

   2   2  13 3557.39 336.820   2

  -2   3  14 142.983 99.4626   2

  -2   3  13 2148.63 251.360   2

   2   3 -13 2261.49 263.447   1

  -2   3  12 116.114 101.545   2

   2   3 -12 102.027 99.9457   1

  -2   3  11 5484.78 363.318   2

   2   3 -11 5976.62 399.787   1

  -2   3  10 869.395 151.294   2

   2   3 -10 842.489 148.417   1

  -2   3   9 2533.17 219.448   2

   2   3  -9 2474.57 228.005   1

   2   3  -9 2585.24 157.148   3

  -2   3   8 2132.00 105.688   4

   2   3  -8 2320.68 210.865   1

   2   3  -8 2059.62 141.822   3

  -2   3   7 8838.07 273.913   4

   2   3  -7 9128.23 339.770   3

   2   3  -6 4147.39 278.700   4

   2   3  -6 4517.12 222.556   3

   2   3  -5 8079.27 375.690   4

  -2   3   5 7897.96 348.135   1

   2   3  -5 7771.02 312.667   3

   2   3  -4 2808.28 209.617   4

   2   3  -4 3342.21 191.826   3

   2   3  -3 2037.35 149.675   3

   2   3  -2 4746.24 237.303   3

   2   3  -1 1476.50 133.977   3

   2   3   0 23503.1 685.013   3

   2   3   1 991.876 113.648   3

   2   3   2 5474.96 256.496   3

   2   3   3 25.8151 59.4228   3

  -2   3  -4 26624.4 824.996   4

   2   3   4 27019.1 758.174   3

  -2   3  -5 1837.25 192.208   4

   2   3   5 1541.22 131.727   3

  -2   3  -6 4821.79 310.656   4

  -2   3  -6 4748.99 261.600   1

   2   3   6 4944.36 238.763   3

   2   3   7 276.875 71.9403   3

  -2   3  -7 185.757 67.2866   1

   2   3   7 485.700 137.941   2

  -2   3  -7 149.088 112.103   4

   2   3   8 8007.11 433.762   2

  -2   3  -8 8915.87 461.711   4

  -2   3  -8 8582.17 412.900   1

   2   3   8 8702.34 340.550   3

   2   3   9 2142.40 233.436   2

  -2   3  -9 2227.47 238.487   4

   2   3   9 2420.00 168.026   3

  -2   3  -9 2565.48 221.900   1

  -2   3 -10 3557.42 276.886   1

   2   3  10 3441.09 304.143   2

  -2   3 -10 3638.70 315.380   4

  -2   3 -11 1447.44 209.628   4

   2   3  11 1485.57 216.533   2

  -2   3 -11 1181.08 167.022   1

   2   3  12 2371.42 286.551   2

  -2   3 -12 2576.88 280.591   4

  -2   3 -12 2538.04 260.264   1

  -2   3 -13 1259.29 189.348   1

  -2   3 -13 1245.47 210.457   4

   2   4 -12 2939.69 302.989   1

   2   4 -11 276.945 102.891   1

   2   4 -10 7105.47 440.156   1

   2   4  -9 2080.43 225.921   1

   2   4  -9 2281.28 169.870   3

   2   4  -8 1981.90 160.109   3

   2   4  -7 1619.90 196.067   4

   2   4  -7 1780.77 155.444   3

   2   4  -6 4889.29 323.728   4

   2   4  -6 5144.66 275.517   3

   2   4  -5 6508.76 368.107   4

   2   4  -5 7406.18 334.588   3

   2   4  -4 1042.43 144.324   4

   2   4  -4 1400.41 146.327   3

   2   4  -3 4596.00 274.616   4

   2   4  -3 4500.38 260.471   3

   2   4  -2 2404.83 192.043   3

   2   4  -1 9630.25 405.121   3

   2   4   0 1289.35 146.473   3

   2   4   1 6929.39 337.843   3

  -2   4  -2 292.542 116.839   4

   2   4   2 297.790 91.6140   3

  -2   4  -3 8911.72 413.383   4

   2   4   3 8593.71 375.063   3

   2   4   4 58.0822 77.0021   3

  -2   4  -4 174.303 117.489   4

  -2   4  -5 6763.23 377.164   4

   2   4   5 6712.00 319.855   3

  -2   4  -6 1214.82 178.692   4

   2   4   6 1049.08 127.628   3

   2   4   7 5210.41 272.837   3

  -2   4  -7 5232.46 355.711   4

  -2   4  -8 916.878 137.937   1

   2   4   8 1036.95 121.071   3

  -2   4  -8 867.180 159.458   4

  -2   4  -9 5089.01 380.621   4

  -2   4  -9 5246.60 340.954   1

   2   4   9 5348.17 272.135   3

  -2   4 -10 2834.96 299.315   4

  -2   4 -10 2942.29 263.169   1

  -2   4 -11 2480.06 288.107   4

  -2   4 -11 1801.70 217.381   1

  -2   4 -12 1487.72 205.359   1

  -2   4 -12 1612.97 241.031   4

   2   5 -11 3674.24 347.446   1

   2   5 -10 532.728 147.222   1

   2   5  -9 1928.12 184.047   3

   2   5  -8 1718.61 173.647   3

   2   5  -7 4803.48 290.220   3

  -2   5   6 1436.10 64.9753   4

   2   5  -6 1962.85 189.549   3

   2   5  -5 4887.91 331.469   4

  -2   5   5 4757.00 187.569   4

   2   5  -5 4895.22 298.483   3

   2   5  -4 2588.90 230.502   4

  -2   5   4 2827.41 158.682   4

   2   5  -4 2843.68 230.345   3

   2   5  -3 1193.29 159.744   3

  -2   5   3 1056.34 116.802   4

   2   5  -2 3395.64 253.321   3

  -2   5   2 3133.28 201.558   4

  -2   5   1 1023.53 133.032   4

   2   5  -1 1063.36 159.429   3

   2   5   0 11139.4 486.877   3

  -2   5   0 10837.6 448.817   4

  -2   5  -1 165.458 98.0374   4

   2   5   1-37.3089 96.2620   3

  -2   5  -2 4969.82 310.777   4

   2   5   2 4737.96 301.997   3

  -2   5  -3 113.183 99.8408   4

   2   5   3 223.248 95.3411   3

  -2   5  -4 11933.3 553.724   4

   2   5   4 13204.5 525.680   3

  -2   5  -5 551.371 147.734   4

   2   5   5 421.074 103.135   3

  -2   5  -6 4294.84 329.157   4

   2   5   6 3967.92 266.624   3

   2   5   7 286.024 89.1944   3

  -2   5  -7 351.936 116.437   4

  -2   5  -8 4289.35 359.136   4

  -2   5  -8 4428.34 312.801   1

   2   5   8 4372.85 277.428   3

   2   5   9 1122.10 136.400   3

  -2   5  -9 882.174 145.986   1

  -2   5  -9 743.710 163.404   4

  -2   5 -10 3057.13 284.797   1

  -2   5 -10 2927.20 316.616   4

  -2   5 -11 895.274 198.620   4

  -2   5 -11 1197.43 180.729   1

  -2   5 -12 1385.36 207.624   1

   2   6  -9 1350.09 170.018   3

   2   6  -8 955.904 155.070   3

   2   6  -7 1065.94 157.809   3

   2   6  -6 2759.03 245.187   3

  -2   6   5 3163.79 155.447   4

   2   6  -5 3895.03 292.242   3

   2   6  -4 927.949 152.260   3

  -2   6   4 686.789 86.9435   4

   2   6  -3 2695.56 246.475   3

  -2   6   3 2462.64 175.169   4

  -2   6   2 1357.35 143.560   4

   2   6  -2 1468.75 187.175   3

   2   6  -1 4740.80 331.235   3

  -2   6   1 4828.66 283.866   4

  -2   6   0 548.598 118.765   4

   2   6   0 451.919 121.471   3

  -2   6  -1 3884.70 289.004   4

   2   6   1 4437.76 313.794   3

   2   6   2 52.8462 79.2195   3

  -2   6  -2 37.2049 89.0717   4

   2   6   3 4683.38 319.405   3

  -2   6  -3 4272.88 321.736   4

   2   6   4-4.64935 89.1152   3

  -2   6  -4-36.4091 101.797   4

   2   6   5 4565.30 317.884   3

  -2   6  -5 4378.03 346.174   4

  -2   6  -6 661.353 153.841   4

   2   6   6 842.731 148.033   3

  -2   6  -7 2740.26 294.434   4

   2   6   7 2904.04 251.185   3

  -2   6  -8 339.387 147.963   4

   2   6   8 551.741 115.264   3

  -2   6  -9 3596.62 357.825   4

  -2   6  -9 3142.69 297.420   1

  -2   6 -10 1834.20 232.679   1

  -2   6 -11 1270.52 203.337   1

   2   7  -9 689.315 142.789   3

   2   7  -8 787.074 149.898   3

   2   7  -7 2678.18 261.391   3

   2   7  -6 1635.35 210.901   3

   2   7  -5 2118.48 236.484   3

   2   7  -4 1420.97 196.264   3

   2   7  -3 449.766 123.800   3

  -2   7   3 402.404 84.0995   4

  -2   7   2 1759.12 171.166   4

   2   7  -2 1771.51 223.078   3

  -2   7   1 422.230 99.2280   4

   2   7  -1 765.867 163.379   3

  -2   7   0 4867.52 326.487   4

   2   7   0 5889.40 398.354   3

   2   7   1 36.2535 89.6348   3

  -2   7  -1-44.1107 97.9334   4

  -2   7  -2 1810.52 222.408   4

   2   7   2 2074.61 235.628   3

  -2   7  -3-122.922 113.412   4

   2   7   3-37.0958 98.3455   3

  -2   7  -4 7161.78 466.360   4

   2   7   4 7280.61 442.112   3

   2   7   5 478.099 126.215   3

  -2   7  -5 312.869 129.545   4

  -2   7  -6 1504.46 226.026   4

   2   7   6 1284.41 188.389   3

   2   7   7 80.0673 78.6197   3

  -2   7  -7-30.4878 123.486   4

   2   7   8 2844.94 276.401   3

   2   8  -8 469.451 132.197   3

   2   8  -7 617.095 139.578   3

   2   8  -6 1333.97 208.320   3

   2   8  -5 1494.75 226.385   3

   2   8  -4 638.254 160.832   3

   2   8  -3 1305.35 214.860   3

   2   8  -2 558.310 145.454   3

   2   8  -1 2304.31 273.382   3

  -2   8   1 1758.04 191.950   4

   2   8   0 305.142 113.760   3

  -2   8   0 134.821 85.8137   4

   2   8   1 2451.60 277.149   3

  -2   8  -1 1979.42 227.993   4

  -2   8  -2-50.3260 87.0299   4

   2   8   2 222.775 104.414   3

  -2   8  -3 2032.05 251.737   4

   2   8   3 2200.46 266.229   3

  -2   8  -4 56.0278 87.7866   4

   2   8   4-69.8090 91.4730   3

   2   8   5 2266.49 270.430   3

  -2   8  -5 2131.42 275.473   4

   2   8   6 299.841 129.205   3

   2   8   7 1280.22 209.358   3

  -2   9  -1-3.93853 75.3206   4

  -2   9  -2 549.966 146.241   4

  -2   9  -3-56.8698 93.3262   4

  -3  -6  -1 3963.06 234.056   4

  -3  -5   0 6595.64 312.285   4

  -3  -5  -2 3503.74 190.664   4

  -3  -5  -3 1005.06 86.7257   4

   3  -4  -6 1146.43 118.945   2

   3  -4  -5 9276.35 354.468   2

   3  -4  -4 509.551 79.4391   2

  -3  -4   2 116.640 63.3043   4

  -3  -4   1 14911.8 521.417   4

  -3  -4  -1 7933.31 312.536   4

  -3  -4  -2 1665.66 119.179   4

  -3  -4  -3 8954.36 297.389   4

  -3  -4  -4 3812.02 150.688   4

   3  -3  -4 12105.8 377.797   2

   3  -3  -3 375.035 54.7563   2

  -3  -3   1 197.586 57.0829   4

  -3  -3   0 16792.5 521.124   4

  -3  -3  -2 4144.21 221.962   2

  -3  -3  -3 674.190 90.4974   2

  -3  -3  -7 1434.13 65.5783   4

  -3  -2   3 20003.5 581.237   3

   3  -2  -3 19586.0 496.043   2

  -3  -2   2 119.781 44.7122   3

  -3  -2  -1 11487.2 373.036   2

  -3  -2  -2 1835.82 127.071   2

  -3  -2  -2 2072.05 139.312   3

  -3  -2  -3 17981.7 547.361   2

  -3  -2  -3 17550.0 530.001   3

  -3  -2  -4 9555.39 366.815   2

  -3  -2  -4 8148.77 320.534   3

  -3  -2  -5 3856.09 200.621   3

  -3  -2  -7 4819.65 203.545   4

  -3  -2  -8 4989.37 210.984   4

  -3  -2  -9 230.627 53.8101   4

   3  -1 -11 3142.71 288.390   1

   3  -1 -10 12677.7 590.421   1

   3  -1  -9 373.057 111.158   1

   3  -1  -8 9941.14 466.438   1

  -3  -1   7 2441.49 189.075   4

   3  -1  -7 2481.71 207.322   1

  -3  -1   6 28813.1 826.729   4

   3  -1  -6 27061.1 839.931   1

  -3  -1   6 27596.4 716.095   3

  -3  -1   5-24.5386 52.6157   4

  -3  -1   5 37.8771 32.5618   3

   3  -1  -4 14473.7 468.094   1

  -3  -1   4 13909.5 421.282   3

   3  -1  -3 86.8531 40.0808   1

  -3  -1   3 70.2789 38.4906   3

   3  -1  -2 24974.8 621.205   1

  -3  -1   2 24309.5 661.997   3

  -3  -1  -1 3145.92 144.370   2

  -3  -1  -2 5964.89 232.455   2

  -3  -1  -2 5528.74 234.725   3

  -3  -1  -3 752.958 82.4381   3

  -3  -1  -4 9568.11 324.449   3

  -3  -1  -5 7811.08 280.917   3

  -3  -1  -6 1336.09 103.284   3

  -3  -1  -7 2712.72 174.116   4

  -3  -1  -7 2539.12 142.850   3

  -3  -1  -8 3243.32 198.848   4

  -3  -1  -9 7454.18 325.752   4

  -3  -1 -10 363.093 77.2025   4

  -3   0  14 1693.68 214.217   2

  -3   0  13 4838.91 346.180   2

   3   0 -13 6156.10 427.188   1

   3   0 -12 1617.45 212.406   1

   3   0 -11 6806.75 423.783   1

   3   0 -10 3704.87 295.639   1

   3   0  -9 10964.0 502.934   1

  -3   0   8 133.277 63.6498   4

   3   0  -8 239.741 82.3662   1

  -3   0   7 11125.5 427.733   4

   3   0  -7 11047.2 458.947   1

  -3   0   7 10939.2 316.394   3

  -3   0   6 2925.20 187.082   4

   3   0  -6 3189.27 148.043   3

  -3   0   6 3265.91 144.332   3

   3   0  -5 15224.1 448.631   3

  -3   0   5 14891.2 433.097   3

   3   0  -4 1300.57 111.544   3

  -3   0   4 1139.25 95.8711   3

   3   0  -4 1214.57 111.634   1

   3   0  -3 20937.8 590.050   1

   3   0  -3 22046.6 624.346   3

  -3   0   3 21475.5 610.172   3

   3   0  -2 299.021 85.7175   3

   3   0  -2 279.817 42.9250   1

  -3   0   2 260.625 63.6804   3

   3   0  -1 27601.5 755.721   3

  -3   0   1 26138.0 594.990   2

   3   0   0 2133.94 88.5931   2

   3   0   0 1935.42 161.092   3

   3   0   1 19015.5 483.145   2

   3   0   1 18122.0 576.846   3

   3   0   2 4589.92 230.194   3

   3   0   2 4668.52 189.194   2

   3   0   2 4523.88 156.476   1

   3   0   3 15513.3 435.062   1

  -3   0  -3 14601.2 496.711   3

   3   0   3 17034.7 505.308   3

   3   0   4 7046.84 280.318   3

  -3   0  -4 7396.57 290.457   3

   3   0   4 7099.29 274.260   1

   3   0   5 6634.63 258.399   3

   3   0   5 6305.86 277.853   1

  -3   0  -5 6062.62 252.376   3

  -3   0  -6 6150.69 244.500   3

   3   0   6 6752.14 310.624   1

  -3   0  -7 3752.93 237.004   4

   3   0   7 3619.06 236.821   1

  -3   0  -7 3557.39 167.535   3

  -3   0  -8 4321.81 257.562   4

  -3   0  -8 4017.20 172.774   3

  -3   0  -9 800.993 121.296   4

   3   0  10 7043.80 416.172   2

  -3   0 -10 6336.37 343.236   4

   3   0  11 7.48562 91.9345   2

  -3   0 -11 39.5352 63.3539   4

   3   0  12 2290.05 263.444   2

  -3   1  14 2138.14 235.599   2

  -3   1  13 536.741 115.355   2

   3   1 -13 737.630 159.587   1

   3   1 -12 4222.84 337.572   1

  -3   1  12 3742.95 288.238   2

  -3   1  11 3478.86 264.774   2

   3   1 -11 3158.19 278.543   1

   3   1 -10 12700.6 558.803   1

  -3   1  10 11973.1 514.656   2

   3   1  -9 269.297 90.3663   1

  -3   1   9 172.121 68.8624   2

  -3   1   9 158.462 65.5171   4

  -3   1   8 10056.7 404.806   4

  -3   1   8 10697.4 433.066   2

   3   1  -8 10821.9 328.813   3

  -3   1   8 10600.8 302.105   3

   3   1  -8 10474.2 461.237   1

  -3   1   7 2593.75 173.011   4

  -3   1   7 2686.68 138.379   3

   3   1  -7 2765.87 157.513   3

   3   1  -7 2646.26 201.579   1

  -3   1   7 2505.47 182.500   2

  -3   1   6 28845.0 817.566   1

  -3   1   6 27107.1 749.108   3

   3   1  -6 29022.3 766.347   3

  -3   1   6 26655.2 759.088   2

  -3   1   5-21.6164 45.0047   2

  -3   1   5-36.6671 41.2805   3

   3   1  -5 65.6888 50.0843   3

  -3   1   5 58.2267 33.6959   1

  -3   1   4 13684.9 433.645   3

   3   1  -4 14516.2 433.914   3

  -3   1   4 14031.3 438.254   1

  -3   1   4 13857.8 382.601   2

  -3   1   3 110.540 49.7234   3

  -3   1   3 139.003 25.5985   2

   3   1  -3 62.1359 50.5095   3

  -3   1   3 96.0777 29.6678   1

  -3   1   2 24666.7 620.321   1

   3   1  -2 25998.7 674.550   3

  -3   1   2 24698.2 676.117   3

   3   1  -1 797.349 89.9998   3

  -3   1   1 754.451 46.9085   1

   3   1   0 19154.6 551.505   3

   3   1   1 3255.92 177.881   3

  -3   1  -2 5360.02 161.599   1

   3   1   2 5616.19 247.835   3

  -3   1  -3 657.744 86.4848   3

  -3   1  -3 749.119 59.4388   1

   3   1   3 578.656 95.8437   3

  -3   1  -4 10283.5 375.540   3

   3   1   4 10078.9 395.304   3

  -3   1  -4 10215.0 323.590   1

   3   1   4 10164.1 355.715   1

  -3   1  -5 7452.69 285.434   1

   3   1   5 7646.42 309.708   1

  -3   1  -5 6886.81 309.114   3

   3   1   5 7464.91 327.991   3

   3   1   6 1330.15 128.803   1

   3   1   6 1467.08 154.277   2

  -3   1  -6 1340.83 125.871   3

   3   1   6 1406.39 131.878   3

  -3   1  -6 1446.42 128.112   1

   3   1   7 2757.08 165.132   3

  -3   1  -7 2952.34 225.598   4

  -3   1  -7 2843.26 192.768   1

  -3   1  -7 2542.22 166.342   3

   3   1   7 2557.11 208.768   2

  -3   1  -8 3487.05 251.525   4

   3   1   8 3395.65 167.396   3

  -3   1  -8 3176.85 166.796   3

  -3   1  -8 3436.05 229.647   1

   3   1   8 3391.39 255.381   2

  -3   1  -9 7374.38 390.950   4

   3   1   9 7567.64 413.128   2

  -3   1  -9 7553.95 379.185   1

   3   1  10 256.488 118.716   2

  -3   1 -10 368.381 94.8567   1

  -3   1 -10 212.238 87.5833   4

  -3   1 -11 3340.98 273.973   4

   3   1  11 3266.40 297.247   2

  -3   1 -12 480.618 112.040   4

   3   1  12 504.116 145.433   2

  -3   2  14 934.642 163.550   2

   3   2 -13 4252.07 350.165   1

  -3   2  13 4015.12 311.801   2

   3   2 -12 2191.51 240.848   1

  -3   2  12 1918.73 209.499   2

  -3   2  11 6628.55 373.800   2

   3   2 -11 6742.32 411.950   1

   3   2 -10 2601.32 236.302   1

  -3   2  10 2121.90 201.498   2

  -3   2   9 7413.38 326.771   4

   3   2  -9 8044.88 307.805   3

  -3   2   9 8212.36 276.367   3

   3   2  -9 8108.12 415.293   1

  -3   2   9 7601.49 364.922   2

   3   2  -8 430.687 93.3220   1

  -3   2   8 385.253 67.7261   3

  -3   2   8 392.537 94.6464   2

   3   2  -8 469.599 72.9425   3

  -3   2   8 503.239 83.0321   4

  -3   2   7 12024.0 398.454   3

   3   2  -7 11709.9 477.969   1

  -3   2   7 11771.2 406.572   4

   3   2  -7 12210.1 401.149   3

  -3   2   7 11352.9 418.787   2

  -3   2   6 1745.43 131.295   2

  -3   2   6 1503.95 120.607   3

   3   2  -6 1738.20 128.536   3

  -3   2   6 1686.08 148.886   1

  -3   2   5 11527.0 421.581   1

  -3   2   5 11752.5 396.691   3

   3   2  -5 11799.8 389.919   3

  -3   2   4 470.089 71.1440   3

   3   2  -4 524.371 78.8282   3

  -3   2   4 493.975 69.2446   1

   3   2  -3 19849.5 583.309   3

  -3   2   3 20268.5 569.162   1

   3   2  -2 135.057 63.2948   3

  -3   2   2 147.735 38.1294   1

   3   2  -1 24945.6 698.917   3

   3   2   0 3094.66 181.719   3

   3   2   1 12852.8 426.571   3

   3   2   2 2102.94 151.042   3

  -3   2  -3 18696.0 567.486   3

   3   2   3 18239.4 559.526   3

  -3   2  -4 9209.13 350.154   3

  -3   2  -4 8878.28 314.256   1

   3   2   4 9032.74 347.349   3

   3   2   5 3731.46 218.176   1

   3   2   5 3642.44 211.457   3

  -3   2  -5 3853.71 214.018   3

  -3   2  -5 3914.66 202.190   1

   3   2   6 3994.22 236.445   3

  -3   2  -6 4300.40 228.623   1

  -3   2  -6 3955.87 223.606   3

   3   2   6 4185.71 267.452   2

  -3   2  -7 4741.52 261.978   1

  -3   2  -7 4959.43 309.148   4

   3   2   7 4217.17 257.222   3

   3   2   7 5108.80 307.266   2

  -3   2  -7 4477.79 244.542   3

  -3   2  -8 5395.31 294.412   1

  -3   2  -8 4494.43 255.027   3

  -3   2  -8 4893.41 322.306   4

   3   2   8 5346.87 265.737   3

   3   2   8 5111.69 324.950   2

   3   2   9 196.013 51.6972   3

  -3   2  -9 263.342 110.605   4

   3   2   9 375.719 128.063   2

  -3   2  -9 138.539 65.2083   1

  -3   2 -10 4305.83 301.717   1

  -3   2 -10 4546.73 336.226   4

   3   2  10 4808.22 349.190   2

  -3   2 -11 251.476 102.791   4

   3   2  11 236.233 104.746   2

  -3   2 -11 304.734 88.3147   1

  -3   2 -12 2570.11 271.973   4

   3   2  12 2387.92 279.441   2

  -3   2 -12 2475.21 251.077   1

  -3   2 -13 14.3670 70.8642   1

  -3   2 -13 40.7489 78.1335   4

  -3   3  13 674.901 141.644   2

  -3   3  12 2753.58 254.486   2

   3   3 -12 3388.31 310.301   1

  -3   3  11 2509.33 230.248   2

   3   3 -11 2573.05 259.939   1

  -3   3  10 9194.78 433.476   2

   3   3 -10 9971.68 512.031   1

   3   3  -9 490.609 114.506   1

   3   3  -9 270.955 67.6465   3

  -3   3   8 9281.09 326.484   4

   3   3  -8 9204.62 446.241   1

  -3   3   8 8433.78 342.789   3

   3   3  -8 9000.93 352.382   3

  -3   3   7 1715.61 139.086   3

   3   3  -7 1558.83 139.685   3

   3   3  -6 19043.3 591.334   3

   3   3  -5 14.3653 58.7366   3

  -3   3   5 118.134 48.3805   1

   3   3  -4 12590.6 441.294   3

  -3   3   4 12189.8 437.903   1

   3   3  -3 615.216 99.0977   3

   3   3  -2 14257.2 488.956   3

   3   3  -1 168.121 70.9394   3

   3   3   0 17420.7 563.571   3

   3   3   1 3493.49 211.177   3

   3   3   2 3770.83 221.587   3

   3   3   3 585.800 103.118   3

   3   3   4 8846.08 359.358   3

   3   3   5 6792.91 309.851   3

  -3   3  -6 1149.63 121.769   3

   3   3   6 1304.50 135.687   3

  -3   3  -6 1187.01 175.514   4

  -3   3  -6 1025.07 119.392   1

  -3   3  -7 2250.07 226.988   4

  -3   3  -7 2306.14 176.556   3

  -3   3  -7 2036.59 175.492   1

   3   3   7 2013.65 168.246   3

   3   3   8 3068.63 266.127   2

  -3   3  -8 2851.04 261.310   4

   3   3   8 2877.34 206.031   3

  -3   3  -8 3091.26 230.445   1

  -3   3  -9 6252.82 352.283   1

   3   3   9 6084.47 394.234   2

  -3   3  -9 6474.81 411.027   4

   3   3   9 5677.67 307.165   3

  -3   3 -10 412.119 101.907   1

  -3   3 -10 163.022 87.3650   4

   3   3  10 547.122 152.604   2

   3   3  11 2824.14 297.433   2

  -3   3 -11 3131.26 303.697   4

  -3   3 -11 2989.96 264.439   1

  -3   3 -12 395.421 111.348   1

  -3   3 -12 339.369 123.418   4

   3   3  12 330.083 136.921   2

  -3   3 -13 2215.84 279.958   4

  -3   3 -13 2666.23 276.061   1

   3   4 -12 1121.90 191.267   1

   3   4 -11 4465.13 365.741   1

   3   4 -10 2047.78 237.093   1

   3   4  -9 6174.12 302.199   3

   3   4  -8 204.523 67.6275   3

   3   4  -7 6262.10 307.787   3

   3   4  -6 1195.94 137.191   3

   3   4  -5 9173.18 390.648   3

   3   4  -4 559.384 113.853   3

   3   4  -3 10939.9 441.893   3

   3   4  -2 135.100 84.7517   3

   3   4  -1 14766.4 540.673   3

   3   4   0 1964.50 180.870   3

   3   4   1 8218.86 380.037   3

   3   4   2 1707.41 172.162   3

   3   4   3 9588.35 412.715   3

  -3   4  -4 4219.38 294.233   4

   3   4   4 4265.51 260.503   3

  -3   4  -5 3777.64 291.321   4

   3   4   5 3248.93 223.515   3

  -3   4  -6 3183.27 275.948   4

   3   4   6 3533.77 236.775   3

  -3   4  -7 2247.93 239.354   4

  -3   4  -7 2352.83 195.952   1

   3   4   7 2288.68 187.818   3

  -3   4  -8 2435.62 258.554   4

  -3   4  -8 2589.32 219.086   1

   3   4   8 2604.96 201.081   3

   3   4   9 265.396 77.7215   3

  -3   4  -9 468.146 144.831   4

  -3   4  -9 222.536 84.6559   1

  -3   4 -10 3840.92 349.923   4

  -3   4 -10 3759.27 292.231   1

  -3   4 -11 125.931 94.5732   4

  -3   4 -11 121.864 74.8547   1

  -3   4 -12 1567.41 203.936   1

   3   5 -11 1901.66 253.134   1

   3   5 -10 6764.90 469.545   1

   3   5  -9 221.609 80.9794   3

   3   5  -8 5011.29 297.215   3

   3   5  -7 1468.42 162.993   3

   3   5  -6 11129.8 481.259   3

   3   5  -5 46.6150 68.0215   3

   3   5  -4 5774.68 330.062   3

   3   5  -3 106.397 90.7021   3

   3   5  -2 9523.39 444.167   3

   3   5  -1 634.138 124.600   3

   3   5   0 7304.66 383.644   3

   3   5   1 1486.25 182.170   3

  -3   5  -2 3858.03 284.555   4

   3   5   2 4175.22 286.333   3

   3   5   3 900.709 141.379   3

  -3   5  -3 1256.27 181.074   4

   3   5   4 4684.08 296.624   3

  -3   5  -4 4392.88 321.859   4

  -3   5  -5 3273.73 290.310   4

   3   5   5 3566.65 255.945   3

  -3   5  -6 881.230 174.159   4

   3   5   6 973.482 144.551   3

  -3   5  -7 1784.77 227.603   4

   3   5   7 1840.33 184.936   3

  -3   5  -8 1888.62 244.016   4

  -3   5  -8 1722.87 192.254   1

   3   5   8 2187.08 198.313   3

  -3   5  -9 4011.57 360.578   4

  -3   5  -9 3843.27 301.994   1

  -3   5 -10 105.117 100.472   4

  -3   5 -10 211.296 86.3395   1

  -3   5 -11 1519.80 200.709   1

   3   6  -9 3038.08 251.964   3

   3   6  -8 181.420 89.6722   3

   3   6  -7 3725.04 286.682   3

   3   6  -6 534.755 124.006   3

  -3   6   5 4987.84 232.705   4

   3   6  -5 5108.80 338.277   3

  -3   6   4 445.354 88.3146   4

   3   6  -4 376.949 123.107   3

  -3   6   3 5205.72 278.558   4

   3   6  -3 5942.01 365.999   3

   3   6  -2-24.3385 91.5904   3

  -3   6   2 98.6371 82.7255   4

  -3   6   1 7423.15 380.426   4

   3   6  -1 8571.64 446.549   3

  -3   6   0 927.855 145.110   4

   3   6   0 1099.82 167.704   3

  -3   6  -1 4298.42 304.885   4

   3   6   1 4142.83 310.480   3

   3   6   2 891.441 158.379   3

  -3   6  -2 834.790 163.047   4

  -3   6  -3 5171.31 359.802   4

   3   6   3 5362.24 356.447   3

  -3   6  -4 2041.48 240.794   4

   3   6   4 2419.49 238.704   3

   3   6   5 1667.52 201.946   3

  -3   6  -5 1683.01 228.325   4

  -3   6  -6 2066.93 256.782   4

   3   6   6 1781.90 208.687   3

   3   6   7 1305.25 177.137   3

  -3   6  -7 1382.34 217.762   4

   3   6   8 1624.22 199.158   3

  -3   6  -8 1189.13 207.545   4

  -3   6  -8 1762.36 208.841   1

  -3   6  -9 86.3687 73.5481   1

  -3   6  -9 79.2319 123.686   4

  -3   6 -10 2285.82 253.493   1

   3   7  -9 230.239 100.909   3

   3   7  -8 2642.46 261.713   3

   3   7  -7 253.187 107.878   3

   3   7  -6 5082.29 366.029   3

   3   7  -5 143.372 83.8375   3

   3   7  -4 3685.45 318.083   3

  -3   7   3 60.1272 52.3195   4

   3   7  -3 15.6770 80.2788   3

  -3   7   2 2982.51 235.745   4

   3   7  -2 4003.88 322.966   3

  -3   7   1 146.091 81.5400   4

   3   7  -1 244.955 114.285   3

  -3   7   0 4108.48 306.134   4

   3   7   0 4694.70 357.952   3

   3   7   1 878.039 163.367   3

  -3   7  -1 989.542 166.589   4

  -3   7  -2 1520.52 210.687   4

   3   7   2 1664.14 220.864   3

  -3   7  -3 463.165 130.982   4

   3   7   3 406.454 130.695   3

  -3   7  -4 2887.14 296.077   4

   3   7   4 2842.35 281.605   3

  -3   7  -5 2331.91 272.229   4

   3   7   5 2358.77 250.407   3

  -3   7  -6 259.049 131.737   4

   3   7   6 378.226 131.262   3

   3   7   7 1008.20 175.638   3

  -3   7  -7 702.074 183.648   4

   3   7   8 1005.44 178.535   3

   3   8  -7 1979.47 249.984   3

   3   8  -6 54.3899 94.8013   3

   3   8  -5 2380.90 269.779   3

   3   8  -4 112.758 96.8084   3

   3   8  -3 2846.62 297.823   3

   3   8  -2 9.04109 94.7264   3

  -3   8   1 3176.70 269.400   4

   3   8  -1 3884.59 345.927   3

  -3   8   0 428.267 122.209   4

   3   8   0 507.740 152.121   3

  -3   8  -1 1862.87 225.369   4

   3   8   1 2326.33 282.571   3

  -3   8  -2 146.500 99.2988   4

   3   8   2 234.110 131.816   3

  -3   8  -3 2730.74 290.140   4

   3   8   3 2825.68 301.219   3

  -3   8  -4 1127.48 205.581   4

   3   8   4 1013.29 189.354   3

  -3   8  -5 724.470 180.227   4

   3   8   5 841.489 178.823   3

   3   8   6 1086.38 193.133   3

   3   8   7 886.284 177.408   3

  -3   9  -1 293.517 103.102   4

  -3   9  -2 578.520 144.330   4

   4  -5  -5 6206.46 291.410   2

   4  -5  -4 2902.52 184.614   2

  -4  -5   0 3329.15 222.319   4

  -4  -5  -1 5642.48 282.792   4

  -4  -5  -3 6440.13 269.630   4

   4  -4  -5 5852.85 252.550   2

   4  -4  -4 6816.31 267.457   2

  -4  -4   1 4058.80 243.114   4

  -4  -4   0 16223.9 550.042   4

  -4  -4  -2 8124.39 321.268   4

  -4  -4  -3 1601.97 118.889   4

  -4  -4  -4 12947.9 396.495   4

  -4  -4  -5 54.1731 25.5444   4

   4  -3  -4 5019.72 197.109   2

  -4  -3   3 6327.30 322.558   4

   4  -3  -3 6063.15 213.076   2

  -4  -3   2 9365.52 390.444   3

  -4  -3   2 9919.96 403.100   4

  -4  -3  -2 3154.07 204.792   3

  -4  -3  -2 2973.85 192.254   2

  -4  -3  -3 15034.5 522.763   3

  -4  -2   5 11409.6 410.674   3

  -4  -2   4 13778.3 465.995   3

  -4  -2   3 11386.0 408.092   3

  -4  -2   2 13784.3 468.812   3

  -4  -2  -1 3407.58 179.694   2

  -4  -2  -2 12704.7 426.165   2

  -4  -2  -3 3791.66 210.680   2

  -4  -2  -8 9465.65 348.912   4

  -4  -2  -9 764.688 93.6902   4

   4  -1 -11 194.482 99.4466   1

   4  -1 -10 10423.2 532.912   1

   4  -1  -9 4719.98 324.155   1

   4  -1  -8 7269.44 397.479   1

   4  -1  -7 2204.83 199.285   1

  -4  -1   7 2155.17 135.822   3

  -4  -1   6 17552.9 605.464   4

   4  -1  -6 16663.8 601.758   1

  -4  -1   6 17253.1 517.718   3

  -4  -1   5 13681.2 441.213   3

   4  -1  -4 5558.41 257.164   1

  -4  -1   4 5737.52 255.353   3

   4  -1  -3 7990.84 289.511   1

  -4  -1   3 7904.54 312.807   3

   4  -1  -2 12252.5 345.812   1

   4  -1  -2 11921.3 422.304   3

  -4  -1   2 11148.4 411.003   3

   4  -1  -1 23798.9 701.519   3

   4  -1   0 10049.5 388.624   3

  -4  -1   0 10297.6 312.047   2

   4  -1   1 16522.1 536.423   3

  -4  -1  -1 16355.2 470.724   2

  -4  -1  -2 2884.37 182.305   3

  -4  -1  -3 18023.3 562.312   3

  -4  -1  -4 3042.69 181.279   3

  -4  -1  -5 17467.6 539.032   3

  -4  -1  -7 9268.74 344.668   3

  -4  -1  -8 231.832 87.6242   4

  -4  -1  -8 18.7347 38.9627   3

  -4  -1  -9 11702.0 456.866   4

  -4  -1 -10 614.044 104.033   4

   4  -1  12 136.162 101.648   2

  -4   0  14 107.308 86.2919   2

  -4   0  13 4687.54 329.441   2

   4   0 -13 5343.59 403.012   1

   4   0 -12 212.042 108.990   1

   4   0 -11 8392.36 475.742   1

   4   0 -10 1492.49 187.888   1

   4   0  -9 7491.33 397.509   1

  -4   0   9 6754.33 228.876   3

   4   0  -8 1983.76 190.413   1

  -4   0   8 1584.80 107.941   3

   4   0  -7 15519.7 564.911   1

  -4   0   7 14926.3 539.555   4

   4   0  -7 14686.1 449.731   3

  -4   0   7 14409.5 442.495   3

   4   0  -6 9773.94 399.819   1

   4   0  -6 9283.65 340.911   3

  -4   0   6 9237.25 330.781   3

   4   0  -5 10070.9 372.994   3

  -4   0   5 10438.9 368.630   3

   4   0  -4 12898.4 458.740   3

  -4   0   4 13285.5 452.058   3

   4   0  -4 13408.7 443.379   1

   4   0  -3 20687.8 583.410   1

   4   0  -3 21744.9 658.813   3

  -4   0   3 20357.7 634.788   3

   4   0  -2 26722.7 677.109   1

   4   0  -2 27116.7 796.605   3

  -4   0   2 26561.8 788.319   3

  -4   0   1 5314.84 159.528   2

   4   0  -1 5349.12 283.158   3

   4   0   0 35958.3 1008.39   3

   4   0   1 7645.26 356.098   3

   4   0   1 8071.55 257.675   2

   4   0   2 20107.8 505.266   1

   4   0   2 19829.5 651.582   3

  -4   0  -2 18960.5 646.805   3

   4   0   2 21463.5 560.547   2

   4   0   3 2638.88 130.211   1

   4   0   3 2609.78 158.403   2

  -4   0  -3 2671.39 191.249   3

   4   0   3 2763.44 195.183   3

  -4   0  -4 23600.7 722.537   3

   4   0   4 25369.0 731.684   3

   4   0   4 23746.0 661.932   1

   4   0   5 288.716 77.5451   3

  -4   0  -5 192.012 63.0233   3

   4   0   5 158.106 78.6621   2

   4   0   5 188.287 55.3883   1

   4   0   6 7674.66 354.323   2

   4   0   6 7430.23 310.674   3

   4   0   6 7262.91 329.446   1

  -4   0  -6 6918.16 295.509   3

   4   0   7 351.630 80.7220   1

  -4   0  -7 316.983 65.0613   3

   4   0   7 291.810 94.0275   2

  -4   0  -8 10963.9 459.003   4

   4   0   8 9989.67 474.087   2

  -4   0  -8 10639.4 363.668   3

   4   0   9 932.023 153.561   2

  -4   0  -9 729.868 124.017   4

  -4   0 -10 4101.03 278.076   4

   4   0  10 4202.41 319.031   2

   4   0  11-45.3591 87.9144   2

  -4   0 -11 137.920 73.6831   4

   4   0  12 4647.41 372.702   2

  -4   1  14 3317.20 280.808   2

   4   1 -13 118.796 90.9112   1

  -4   1  13 233.951 93.0694   2

   4   1 -12 5379.04 378.361   1

  -4   1  12 4721.95 311.131   2

  -4   1  11 164.145 71.8783   2

   4   1 -11 189.917 93.0127   1

   4   1 -10 10359.7 502.235   1

  -4   1  10 10708.0 451.059   2

   4   1  -9 4824.21 203.369   3

  -4   1   9 5095.85 275.793   2

  -4   1   9 4957.02 188.706   3

   4   1  -9 4884.20 308.949   1

  -4   1   8 7389.40 347.291   4

  -4   1   8 7234.03 324.880   2

   4   1  -8 7444.44 292.716   3

  -4   1   8 7362.59 276.110   3

   4   1  -8 8104.13 391.331   1

   4   1  -7 2196.27 162.485   3

  -4   1   7 2120.20 150.524   3

  -4   1   7 2342.75 156.571   2

   4   1  -7 2595.57 200.352   1

  -4   1   6 18111.3 580.620   1

   4   1  -6 18008.4 594.488   1

   4   1  -6 16674.6 566.975   3

  -4   1   6 16770.6 560.364   3

  -4   1   6 17363.5 506.440   2

  -4   1   5 13870.7 463.058   1

  -4   1   5 12739.5 477.491   3

   4   1  -5 13987.0 489.615   3

  -4   1   5 14039.9 389.861   2

  -4   1   4 5949.07 247.924   1

  -4   1   4 5962.94 286.781   3

   4   1  -4 5959.36 285.486   3

  -4   1   4 6261.26 185.303   2

  -4   1   3 7960.85 334.179   3

   4   1  -3 7797.71 331.091   3

  -4   1   3 7875.34 270.812   1

  -4   1   2 11688.8 330.936   1

  -4   1   2 11478.4 420.471   3

   4   1  -2 12015.0 432.480   3

   4   1  -1 24569.8 729.363   3

   4   1   0 10365.4 405.622   3

   4   1   1 15760.2 547.732   3

   4   1   2 2959.99 161.679   2

  -4   1  -2 2718.03 189.069   3

   4   1   2 2732.06 208.980   3

  -4   1  -3 18428.4 602.760   3

   4   1   3 17139.9 615.627   3

   4   1   4 3147.95 171.765   1

   4   1   4 3217.67 235.649   3

   4   1   4 3325.95 201.786   2

  -4   1  -4 3098.65 146.973   1

   4   1   5 18327.7 571.741   1

   4   1   5 18335.2 631.515   3

   4   1   5 18368.9 607.311   2

  -4   1  -5 18523.5 537.047   1

   4   1   6 103.345 85.9210   3

   4   1   6 58.7362 82.6538   2

   4   1   6 16.0170 40.2949   1

  -4   1  -6 72.5231 48.7918   1

  -4   1  -7 9314.75 381.182   1

   4   1   7 9525.05 382.419   3

   4   1   7 10447.2 453.057   2

   4   1   8 37.2920 43.0961   3

   4   1   8-70.0190 91.1030   2

  -4   1  -8 53.4796 48.8621   1

  -4   1  -8 135.548 103.024   4

  -4   1  -9 11561.7 521.449   4

   4   1   9 11464.8 534.321   2

   4   1  10 715.201 150.020   2

  -4   1 -10 359.042 108.749   4

  -4   1 -11 2936.85 265.904   4

   4   1  11 3913.62 321.428   2

   4   1  12 207.472 117.961   2

  -4   1 -12 53.9683 75.9202   4

   4   2 -13 4712.98 371.221   1

  -4   2  13 4220.80 305.259   2

  -4   2  12 144.692 86.8612   2

   4   2 -12-45.7582 75.2318   1

  -4   2  11 6461.49 349.777   2

   4   2 -11 7169.51 426.755   1

   4   2 -10 792.073 86.3069   3

  -4   2  10 814.037 120.615   2

   4   2 -10 905.855 141.033   1

  -4   2   9 6982.80 332.322   4

   4   2  -9 6580.07 310.759   3

  -4   2   9 6753.09 284.920   3

   4   2  -9 7324.66 397.387   1

  -4   2   9 7153.14 326.545   2

  -4   2   8 2258.25 172.786   4

   4   2  -8 2041.79 192.919   1

  -4   2   8 1728.38 150.080   3

   4   2  -8 2152.38 172.539   3

  -4   2   8 2109.27 159.383   2

  -4   2   7 10994.7 381.621   2

   4   2  -7 11046.9 465.947   1

  -4   2   7 11149.4 422.186   3

   4   2  -7 11150.6 423.166   3

  -4   2   6 6055.28 287.814   3

   4   2  -6 6230.40 286.983   3

  -4   2   6 6135.84 304.536   1

  -4   2   5 11358.6 421.208   3

   4   2  -5 11333.6 412.064   3

  -4   2   5 11235.3 415.814   1

  -4   2   4 14449.8 458.866   1

  -4   2   4 14389.0 490.359   3

   4   2  -4 13374.9 472.150   3

  -4   2   3 10981.6 364.040   1

  -4   2   3 11805.6 427.249   3

   4   2  -3 11980.9 419.789   3

  -4   2   2 14200.5 411.347   1

  -4   2   2 15028.9 501.626   3

   4   2  -2 14822.7 494.703   3

   4   2  -1 8942.16 355.717   3

  -4   2   1 8462.75 255.602   1

   4   2   0 37484.5 1009.32   3

   4   2   1 3205.42 206.024   3

   4   2   2 12777.3 463.982   3

  -4   2  -3 3674.12 151.804   1

   4   2   3 3780.39 230.306   3

   4   2   4 25073.3 742.383   2

   4   2   4 24628.3 757.291   3

  -4   2  -4 23863.6 644.462   1

  -4   2  -5 135.441 69.6926   3

  -4   2  -5 59.6544 34.3639   1

   4   2   5 120.727 87.6702   3

   4   2   5 118.509 89.6030   2

   4   2   5 37.3588 43.0002   1

   4   2   6 6476.07 334.173   2

  -4   2  -6 5488.87 258.613   1

  -4   2  -6 5696.39 306.591   3

   4   2   6 5797.38 326.340   3

  -4   2  -7 417.781 88.3708   3

   4   2   7 390.199 103.668   3

   4   2   7 438.883 115.623   2

  -4   2  -7 565.588 91.0186   1

  -4   2  -8 9794.75 481.934   4

  -4   2  -8 10143.6 423.477   1

   4   2   8 10494.4 428.874   3

  -4   2  -8 8728.62 418.012   3

   4   2   8 9651.53 469.163   2

   4   2   9 576.543 89.4066   3

  -4   2  -9 604.461 137.514   4

   4   2   9 755.322 149.848   2

  -4   2  -9 763.944 119.431   1

  -4   2 -10 4380.44 338.704   4

  -4   2 -10 3772.86 275.357   1

   4   2  10 3598.52 306.765   2

  -4   2 -11-27.9264 99.2904   4

   4   2  11 184.576 123.498   2

  -4   2 -11 233.340 89.7676   1

  -4   2 -12 3430.92 310.706   4

   4   2  12 3786.24 343.930   2

  -4   2 -13 355.999 126.900   4

   4   3 -12 4308.61 353.505   1

   4   3 -11 426.757 110.486   1

   4   3 -10 8590.67 476.233   1

   4   3 -10 8044.09 367.987   3

   4   3  -9 3452.11 279.900   1

   4   3  -9 3169.10 213.976   3

  -4   3   8 6185.30 303.325   3

   4   3  -8 6723.12 314.391   3

  -4   3   7 2123.66 171.535   3

   4   3  -7 2004.64 170.966   3

  -4   3   6 13166.4 482.043   3

   4   3  -6 12705.5 470.003   3

  -4   3   5 10439.8 406.753   1

  -4   3   5 10320.5 416.351   3

   4   3  -5 9374.52 395.386   3

  -4   3   4 5521.58 264.089   1

  -4   3   4 5955.06 295.897   3

   4   3  -4 5219.92 278.607   3

   4   3  -3 6309.92 310.580   3

  -4   3   3 6272.76 266.975   1

   4   3  -2 9681.76 394.587   3

   4   3  -1 19193.1 625.819   3

   4   3   0 5746.65 296.163   3

   4   3   1 10153.4 413.062   3

   4   3   2 3378.17 226.480   3

  -4   3  -3 16958.8 579.537   3

   4   3   3 15370.0 561.389   3

   4   3   4 1461.51 160.735   3

  -4   3  -5 11381.0 409.374   1

   4   3   5 11968.4 470.729   3

   4   3   6 47.2956 76.3523   3

  -4   3  -6 136.168 53.1190   1

  -4   3  -7 8311.27 451.190   4

   4   3   7 8628.75 412.091   3

  -4   3  -7 8527.20 374.020   1

   4   3   8 66.4169 71.4975   3

  -4   3  -8 66.2010 50.2840   1

  -4   3  -8 222.552 130.197   4

   4   3   9 8860.10 483.929   2

  -4   3  -9 8032.51 477.017   4

  -4   3  -9 8807.63 418.671   1

   4   3   9 8088.31 405.844   3

  -4   3 -10 145.411 69.1612   1

  -4   3 -10-23.0792 100.744   4

   4   3  11 2806.33 303.013   2

  -4   3 -11 2630.44 288.241   4

  -4   3 -11 3244.82 270.040   1

  -4   3 -12 167.318 71.2818   1

  -4   3 -12 229.920 93.2709   4

   4   4 -11 5875.66 429.095   1

   4   4 -10 750.198 151.534   1

   4   4  -9 4687.10 275.022   3

   4   4  -8 1175.09 142.535   3

   4   4  -7 8078.57 375.736   3

   4   4  -6 4394.05 265.813   3

   4   4  -5 5916.21 317.022   3

  -4   4   4 7117.25 324.961   1

   4   4  -4 6544.77 337.024   3

   4   4  -3 7663.35 368.261   3

   4   4  -2 9539.77 422.151   3

   4   4  -1 3995.51 265.001   3

   4   4   0 17980.0 630.359   3

   4   4   1 2620.57 214.691   3

   4   4   2 9242.56 415.637   3

   4   4   3 1868.90 182.033   3

   4   4   4 14181.5 548.476   3

   4   4   5 67.5925 84.7066   3

  -4   4  -6 4537.23 333.961   4

  -4   4  -6 4669.43 261.817   1

   4   4   6 4153.54 272.648   3

   4   4   7 143.858 86.4942   3

  -4   4  -7 337.067 135.198   4

  -4   4  -7 193.656 66.0096   1

  -4   4  -8 6378.63 429.637   4

   4   4   8 6750.96 367.086   3

  -4   4  -8 6785.44 361.756   1

  -4   4  -9 370.476 91.4337   1

  -4   4  -9 400.098 145.546   4

  -4   4 -10 2850.26 249.010   1

  -4   4 -10 3408.73 328.878   4

  -4   4 -11-46.3645 99.0924   4

  -4   4 -11-5.71619 64.7960   1

   4   5 -10 6552.45 471.379   1

   4   5  -9 2353.59 212.592   3

   4   5  -8 3190.77 244.246   3

   4   5  -7 915.950 138.509   3

   4   5  -6 7727.99 395.013   3

   4   5  -5 5736.32 335.084   3

   4   5  -4 2832.36 234.849   3

   4   5  -3 3547.60 266.683   3

   4   5  -2 5376.70 329.074   3

   4   5  -1 9567.82 456.367   3

   4   5   0 3861.22 276.352   3

   4   5   1 6300.44 356.786   3

   4   5   2 1103.72 162.700   3

   4   5   3 7056.99 383.744   3

  -4   5  -4 1580.87 201.780   4

   4   5   4 1063.09 154.173   3

  -4   5  -5 8385.43 475.341   4

   4   5   5 7538.24 408.305   3

  -4   5  -6-13.8941 96.5583   4

   4   5   6 37.1445 63.9257   3

  -4   5  -7 3920.30 338.866   4

  -4   5  -7 3701.87 262.264   1

   4   5   7 3737.62 273.951   3

   4   5   8 155.217 85.1339   3

  -4   5  -8 12.0399 100.009   4

  -4   5  -8-12.9841 53.3565   1

  -4   5  -9 6688.21 476.868   4

  -4   5  -9 6502.87 387.977   1

  -4   5 -10 273.464 100.058   1

  -4   5 -10 175.809 110.151   4

   4   6  -9 2712.76 247.935   3

   4   6  -8 519.911 123.506   3

   4   6  -7 4293.48 311.003   3

   4   6  -6 1700.68 199.261   3

   4   6  -5 3228.21 267.901   3

   4   6  -4 3626.33 288.845   3

   4   6  -3 3789.23 295.787   3

   4   6  -2 4099.71 309.476   3

   4   6  -1 2301.14 242.884   3

   4   6   0 8673.53 468.292   3

   4   6   1 1333.23 186.856   3

  -4   6  -2 4054.58 322.920   4

   4   6   2 4357.79 326.529   3

  -4   6  -3 1022.43 181.988   4

   4   6   3 1131.46 176.898   3

  -4   6  -4 7071.88 449.126   4

   4   6   4 7125.09 420.413   3

   4   6   5-23.6004 74.4051   3

  -4   6  -5 74.9767 106.346   4

  -4   6  -6 2683.81 287.920   4

   4   6   6 2645.11 249.418   3

   4   6   7 55.2145 76.0228   3

  -4   6  -7 282.552 143.261   4

  -4   6  -8 3832.66 367.166   4

  -4   6  -8 3871.52 298.805   1

   4   6   8 4031.40 316.704   3

   4   7  -9 898.228 171.564   3

   4   7  -8 2017.07 232.675   3

   4   7  -7 606.436 139.369   3

   4   7  -6 3250.34 294.956   3

   4   7  -5 2341.14 249.754   3

   4   7  -4 1518.90 214.020   3

  -4   7   3 1807.52 178.449   4

   4   7  -3 1185.04 190.604   3

  -4   7   2 2452.80 224.043   4

   4   7  -2 2456.06 269.134   3

  -4   7   1 4681.49 318.753   4

   4   7  -1 4350.69 350.587   3

  -4   7   0 1447.77 193.985   4

   4   7   0 1519.31 211.976   3

  -4   7  -1 2099.20 239.282   4

   4   7   1 2571.88 269.545   3

  -4   7  -2 812.951 168.046   4

   4   7   2 957.904 175.352   3

  -4   7  -3 4168.23 352.711   4

   4   7   3 3765.90 326.227   3

  -4   7  -4 394.362 145.932   4

   4   7   4 242.973 118.429   3

  -4   7  -5 3230.29 331.480   4

   4   7   5 3200.56 298.534   3

  -4   7  -6 200.720 119.831   4

   4   7   6 106.115 101.564   3

   4   7   7 2516.82 275.798   3

   4   8  -6 645.367 152.870   3

   4   8  -5 1308.01 211.616   3

   4   8  -4 1794.31 243.234   3

   4   8  -3 1618.73 236.747   3

   4   8  -2 1985.99 257.448   3

  -4   8   1 1017.41 160.624   4

   4   8  -1 1328.94 217.814   3

  -4   8   0 3285.09 291.059   4

   4   8   0 4046.88 360.004   3

   4   8   1 356.669 127.167   3

  -4   8  -1 319.667 122.587   4

  -4   8  -2 1381.57 215.253   4

   4   8   2 1444.49 224.439   3

  -4   8  -3 168.044 112.565   4

   4   8   3 628.572 165.465   3

  -4   8  -4 3106.40 331.723   4

   4   8   4 3761.45 349.039   3

   4   8   5 173.763 107.093   3

  -4   9  -1 752.733 169.268   4

   5  -5  -4 20.1351 39.1936   2

  -5  -5  -2 884.286 107.031   4

   5  -4  -4 6217.59 239.370   2

   5  -4  -3 291.497 58.6176   2

  -5  -4   0 7954.48 368.020   4

   5  -3  -3 10081.5 285.949   2

  -5  -3  -1 8947.26 365.580   2

  -5  -2   7 2285.53 171.615   3

  -5  -2   6 12676.4 465.958   3

  -5  -2   5 80.2605 62.6132   3

  -5  -2   4 9259.45 385.401   3

  -5  -2   3 295.196 77.8728   3

  -5  -2   2 18655.0 613.191   3

  -5  -2   0 11914.2 397.804   2

  -5  -2  -1 1436.74 119.706   2

  -5  -2  -2 14544.8 476.274   2

  -5  -2  -2 13278.9 494.962   3

  -5  -2  -3 2623.32 183.637   2

  -5  -2  -3 2729.58 192.374   3

  -5  -2  -4 13797.3 499.577   3

  -5  -2  -5 4157.10 241.763   3

   5  -1 -11 2310.77 245.400   1

   5  -1 -10 2795.26 263.013   1

   5  -1  -9 3636.87 287.876   1

  -5  -1   8 442.060 71.0283   3

   5  -1  -8 413.365 100.686   1

   5  -1  -7 7087.25 371.713   1

  -5  -1   7 6873.57 300.123   3

   5  -1  -6 2019.12 181.200   1

  -5  -1   6 2066.78 155.208   3

  -5  -1   5 12289.2 446.364   3

  -5  -1   4 168.781 66.2456   3

   5  -1  -4 160.504 55.2946   1

   5  -1  -3 15825.7 548.457   3

   5  -1  -3 15557.1 469.599   1

  -5  -1   3 15259.0 536.240   3

   5  -1  -2 150.641 82.0000   3

  -5  -1   2 207.768 72.0048   3

   5  -1  -2 258.878 42.0269   1

  -5  -1   1 30913.0 752.927   2

   5  -1  -1 28441.5 885.351   3

   5  -1   0 302.801 98.4286   3

   5  -1   0 160.296 30.1804   2

  -5  -1   0 146.586 40.3314   2

   5  -1   1 13623.9 515.706   3

  -5  -1  -1 14147.7 436.563   2

   5  -1   2 2059.26 180.915   3

  -5  -1  -2 1922.96 168.431   3

  -5  -1  -3 17113.7 582.463   3

  -5  -1  -4 7394.15 336.018   3

  -5  -1  -5 11955.0 444.915   3

  -5  -1  -6 3960.24 225.410   3

  -5  -1  -7 8202.19 341.625   3

  -5  -1  -9 3991.88 259.275   4

  -5  -1 -10 3195.22 232.540   4

   5  -1  11 1825.03 230.713   2

  -5   0  13 2019.50 208.495   2

   5   0 -13 2322.54 261.556   1

   5   0 -12 748.310 152.857   1

   5   0 -11 4096.37 323.584   1

   5   0 -10 6474.78 395.393   1

   5   0  -9 998.464 143.136   1

  -5   0   9 941.105 90.8158   3

   5   0  -8 3699.39 262.045   1

  -5   0   8 3588.84 193.119   3

   5   0  -7 3745.72 249.326   1

   5   0  -7 3643.63 206.046   3

  -5   0   7 3520.24 200.876   3

   5   0  -6 18283.9 607.565   1

   5   0  -6 17322.0 572.290   3

  -5   0   6 17161.8 558.014   3

   5   0  -5 177.377 72.3988   3

  -5   0   5 274.066 74.8678   3

   5   0  -4 9913.70 415.372   3

  -5   0   4 9732.08 403.473   3

   5   0  -4 10451.2 376.012   1

   5   0  -3 698.277 123.747   3

  -5   0   3 708.896 108.941   3

   5   0  -3 536.097 71.0518   1

   5   0  -2 24453.0 615.505   1

   5   0  -2 24933.5 771.037   3

  -5   0   2 24242.7 752.058   3

  -5   0   2 22653.6 544.932   2

   5   0  -1 1312.74 159.350   3

   5   0   0 15901.4 592.480   3

   5   0   1 2848.50 228.231   3

   5   0   1 3274.51 151.427   2

   5   0   2 13214.4 356.760   1

   5   0   2 13515.8 527.047   3

   5   0   2 13965.1 423.233   2

   5   0   3 1992.33 184.634   3

  -5   0  -3 2016.65 180.926   3

   5   0   3 2025.11 111.580   1

   5   0   4 16094.9 610.962   3

  -5   0  -4 18804.2 636.190   3

   5   0   4 19613.8 591.321   2

   5   0   4 18842.9 537.751   1

   5   0   5 7533.91 344.855   3

   5   0   5 6839.74 293.629   1

  -5   0  -5 6734.72 327.047   3

   5   0   5 7453.24 332.286   2

   5   0   6 5491.23 284.245   3

   5   0   6 5078.84 262.486   1

   5   0   6 5311.64 293.759   2

  -5   0  -6 4945.47 265.565   3

   5   0   7 2442.18 187.950   1

   5   0   7 2231.92 202.152   2

  -5   0  -7 2116.95 161.126   3

   5   0   8 11326.3 509.044   2

  -5   0  -9 7693.79 406.676   4

   5   0   9 7781.08 425.623   2

   5   0  10 1657.51 210.478   2

  -5   0 -10 1569.80 180.433   4

   5   0  11 2022.64 241.655   2

  -5   0 -11 1850.67 200.667   4

   5   1 -13 568.129 141.924   1

   5   1 -12 2900.69 282.592   1

  -5   1  12 2680.39 217.730   2

   5   1 -11 2652.80 252.448   1

  -5   1  11 2421.22 200.352   2

   5   1 -10 2399.62 232.403   1

  -5   1  10 2573.84 190.525   2

   5   1  -9 3311.76 187.335   3

  -5   1   9 3479.90 206.435   2

  -5   1   9 3215.58 174.999   3

   5   1  -9 3139.57 252.979   1

   5   1  -8 546.041 93.2104   3

  -5   1   8 498.882 74.6862   2

  -5   1   8 478.331 70.5959   3

   5   1  -8 439.661 99.9908   1

   5   1  -7 7604.94 344.977   3

  -5   1   7 7277.02 324.593   3

   5   1  -7 7396.59 362.311   1

  -5   1   7 7169.24 272.971   2

   5   1  -6 2368.27 183.046   1

   5   1  -6 1994.86 182.148   3

  -5   1   6 2239.67 181.173   3

  -5   1   6 2162.42 117.778   2

   5   1  -5 13350.7 463.491   1

   5   1  -5 11937.5 494.456   3

  -5   1   5 11548.7 477.842   3

  -5   1   5 12626.5 332.198   2

  -5   1   4 184.286 80.3156   3

   5   1  -4 105.327 88.2217   3

  -5   1   3 14976.9 562.469   3

   5   1  -3 15957.6 578.978   3

  -5   1   2 191.051 76.9286   3

   5   1  -2 198.170 91.3295   3

   5   1  -1 29632.9 909.239   3

   5   1   0 257.159 104.418   3

   5   1   1 12739.9 529.084   3

   5   1   2 2057.60 210.048   3

  -5   1  -2 1966.40 185.199   3

   5   1   3 16495.4 642.225   3

  -5   1  -3 16945.2 630.007   3

   5   1   4 7496.21 397.607   3

  -5   1  -4 7450.00 388.542   3

   5   1   4 7378.15 291.816   1

   5   1   4 7824.66 332.919   2

   5   1   5 11358.5 414.539   1

   5   1   5 12985.4 520.679   3

  -5   1  -5 11316.0 501.207   3

   5   1   5 12219.9 463.153   2

   5   1   6 3760.25 223.509   1

   5   1   6 4009.91 264.188   3

  -5   1  -6 3965.45 263.169   3

   5   1   6 3973.37 257.928   2

   5   1   7 8748.74 384.446   3

  -5   1  -7 7570.83 365.610   3

   5   1   7 8610.82 411.803   2

   5   1   8 5015.80 274.170   3

   5   1   8 5711.10 341.575   2

  -5   1  -9 3765.15 291.417   4

   5   1   9 3431.53 278.898   2

  -5   1 -10 3456.86 287.958   4

   5   1  10 2996.50 274.937   2

   5   1  11 2197.66 252.728   2

  -5   1 -11 1910.08 225.544   4

  -5   1 -12 2074.54 238.270   4

   5   2 -12 758.957 151.524   1

  -5   2  12 903.645 127.560   2

   5   2 -11 2818.89 265.590   1

  -5   2  11 2738.80 204.354   2

   5   2 -10 4422.31 240.472   3

   5   2 -10 4214.64 314.008   1

  -5   2  10 4389.31 247.384   2

  -5   2   9 1553.19 133.189   2

   5   2  -9 1452.35 152.470   3

   5   2  -9 1595.47 185.009   1

  -5   2   8 4169.87 207.863   2

   5   2  -8 3868.01 272.940   1

   5   2  -8 4138.64 265.262   3

  -5   2   8 3980.42 251.932   3

   5   2  -7 2250.59 199.303   1

  -5   2   7 2216.41 192.264   3

   5   2  -7 2548.51 209.540   3

  -5   2   6 12099.8 488.367   3

   5   2  -6 12798.6 499.526   3

  -5   2   5 114.066 63.2090   3

   5   2  -5 41.8726 76.8325   3

  -5   2   5 78.7231 42.3418   1

  -5   2   4 10196.3 421.618   3

   5   2  -4 9937.68 412.696   3

  -5   2   4 9520.63 353.050   1

  -5   2   3 440.459 90.9589   3

   5   2  -3 258.630 89.2034   3

  -5   2   3 232.789 47.0134   1

  -5   2   2 20000.0 651.256   3

   5   2  -2 19073.3 638.317   3

  -5   2   2 18993.2 508.587   1

   5   2  -1 1335.32 151.033   3

  -5   2   1 1345.86 70.8159   1

   5   2   0 11577.9 467.723   3

   5   2   1 1573.53 166.191   3

  -5   2  -2 12538.7 306.752   1

  -5   2  -2 14477.8 518.720   3

   5   2   2 14404.5 536.857   3

  -5   2  -3 2760.49 114.106   1

  -5   2  -3 3035.41 219.502   3

   5   2   3 3006.28 239.124   3

  -5   2  -4 14358.6 406.631   1

   5   2   4 13690.3 573.475   3

   5   2   5 4199.86 236.243   1

   5   2   5 4613.71 279.203   2

  -5   2  -5 4352.34 199.660   1

   5   2   5 4145.82 304.879   3

   5   2   6 5678.98 326.880   2

   5   2   6 5843.57 366.026   3

  -5   2  -6 6257.94 268.544   1

   5   2   7 3041.91 247.737   2

   5   2   7 3348.93 261.863   3

  -5   2  -7 3410.37 205.315   1

   5   2   8 8442.09 438.541   2

  -5   2  -8 8023.04 364.282   1

   5   2   8 7758.27 389.204   3

  -5   2  -9 5183.04 301.632   1

  -5   2  -9 5282.21 370.510   4

   5   2   9 5298.68 291.428   3

   5   2   9 5542.23 371.088   2

  -5   2 -10 2145.81 245.180   4

   5   2  10 2411.83 256.174   2

   5   2  11 2525.26 272.377   2

  -5   2 -11 2002.11 242.743   4

  -5   2 -12 892.905 175.241   4

   5   3 -12 1863.09 239.663   1

   5   3 -11 2202.97 247.091   1

   5   3 -10 2230.77 202.563   3

   5   3 -10 2298.66 243.264   1

   5   3  -9 3291.24 275.110   1

   5   3  -9 3066.33 234.502   3

   5   3  -8 267.929 82.2859   3

   5   3  -7 5514.99 306.647   3

   5   3  -6 1896.52 177.703   3

  -5   3   5 11556.3 440.272   1

   5   3  -5 11524.6 469.836   3

  -5   3   4 240.882 59.1351   1

   5   3  -4 232.961 89.2502   3

  -5   3   3 10007.7 358.012   1

   5   3  -3 10125.5 433.775   3

   5   3  -2 416.621 120.806   3

  -5   3   2 345.056 55.0942   1

   5   3  -1 25376.7 802.582   3

   5   3   0 410.871 109.398   3

   5   3   1 8940.62 411.184   3

   5   3   2 981.130 143.105   3

   5   3   3 14242.0 554.909   3

  -5   3  -3 14108.0 406.065   1

  -5   3  -4 6148.46 240.744   1

   5   3   4 5619.61 332.936   3

   5   3   5 8387.59 422.249   3

  -5   3  -5 8536.72 319.475   1

  -5   3  -6 3065.23 183.597   1

   5   3   6 2607.81 239.591   3

  -5   3  -7 6865.98 315.282   1

   5   3   7 6749.27 400.149   3

  -5   3  -8 4221.21 335.803   4

   5   3   8 3923.94 303.190   3

  -5   3  -8 4050.91 249.834   1

  -5   3  -9 3368.59 305.435   4

   5   3   9 2929.75 243.868   3

  -5   3  -9 3274.14 236.426   1

  -5   3 -10 2644.75 287.582   4

  -5   3 -10 2751.24 229.563   1

  -5   3 -11 1357.95 211.954   4

   5   4 -11 2468.34 281.159   1

   5   4 -10 3485.46 323.652   1

   5   4  -9 896.270 132.579   3

   5   4  -8 2536.20 214.177   3

   5   4  -7 1983.48 188.119   3

   5   4  -6 8654.63 411.820   3

   5   4  -5 132.375 68.7357   3

  -5   4   4 5954.88 295.759   1

   5   4  -4 6391.48 345.624   3

   5   4  -3 347.132 118.314   3

  -5   4   3 268.025 61.0432   1

   5   4  -2 13209.2 535.617   3

   5   4  -1 787.018 145.927   3

   5   4   0 8748.89 426.585   3

   5   4   1 1229.28 163.119   3

   5   4   2 8093.07 411.099   3

   5   4   3 1421.41 179.520   3

   5   4   4 10553.7 480.141   3

  -5   4  -5 3437.51 200.996   1

   5   4   5 3632.43 268.027   3

  -5   4  -6 3328.21 209.515   1

   5   4   6 3141.44 259.863   3

   5   4   7 1616.06 193.198   3

  -5   4  -7 1680.22 232.525   4

  -5   4  -7 1805.42 159.696   1

  -5   4  -8 6101.64 325.323   1

  -5   4  -8 6308.22 434.838   4

   5   4   8 6320.41 394.495   3

  -5   4  -9 4075.04 272.119   1

  -5   4  -9 4637.21 382.866   4

  -5   4 -10 928.129 193.741   4

   5   5 -10 1632.84 242.177   1

   5   5  -9 1539.83 181.056   3

   5   5  -8 352.115 101.112   3

   5   5  -7 3987.91 285.736   3

   5   5  -6 783.980 135.589   3

   5   5  -5 5433.22 338.573   3

   5   5  -4 36.8855 81.7426   3

   5   5  -3 6558.99 380.065   3

   5   5  -2 56.7433 92.3239   3

   5   5  -1 10891.7 509.922   3

   5   5   0 208.545 100.791   3

   5   5   1 5789.08 358.293   3

   5   5   2 862.354 153.124   3

   5   5   3 7262.23 407.566   3

   5   5   4 2680.69 243.326   3

   5   5   5 5146.91 339.530   3

   5   5   6 1431.73 186.405   3

  -5   5  -6 1714.59 233.071   4

  -5   5  -6 2030.36 172.871   1

  -5   5  -7 4418.72 371.734   4

  -5   5  -7 4234.22 269.623   1

   5   5   7 3442.84 287.663   3

  -5   5  -8 2340.94 279.671   4

   5   5   8 2618.07 253.341   3

  -5   5  -9 1891.36 264.231   4

   5   6  -9 532.401 127.085   3

   5   6  -8 1623.15 199.933   3

   5   6  -7 733.685 138.879   3

   5   6  -6 4904.67 348.543   3

   5   6  -5 121.381 93.2862   3

   5   6  -4 3621.57 292.182   3

   5   6  -3 18.2787 90.5722   3

   5   6  -2 6263.76 396.000   3

   5   6  -1 63.7537 93.4348   3

   5   6   0 4831.08 349.500   3

   5   6   1 594.649 140.034   3

   5   6   2 4310.88 328.257   3

   5   6   3 636.114 145.581   3

  -5   6  -4 5384.38 401.680   4

   5   6   4 5345.19 372.895   3

   5   6   5 1720.90 212.475   3

  -5   6  -5 1777.57 242.048   4

   5   6   6 1838.85 219.334   3

  -5   6  -6 2107.96 271.405   4

  -5   6  -7 1098.55 215.091   4

   5   6   7 831.661 164.077   3

   5   6   8 3068.09 291.892   3

   5   7  -8 192.927 83.2125   3

   5   7  -7 1686.34 222.274   3

   5   7  -6 478.186 134.332   3

   5   7  -5 3063.25 292.592   3

   5   7  -4-186.793 121.692   3

   5   7  -3 2340.55 258.439   3

   5   7  -2 94.9722 93.2650   3

  -5   7   1 5962.83 374.083   4

   5   7  -1 5987.08 429.102   3

  -5   7   0 320.862 118.173   4

   5   7   0 310.936 125.565   3

  -5   7  -1 1827.09 222.677   4

   5   7   1 2166.14 251.028   3

  -5   7  -2 345.232 133.350   4

   5   7   2 433.356 141.388   3

  -5   7  -3 3979.81 352.758   4

   5   7   3 4306.71 359.460   3

  -5   7  -4 1835.36 253.115   4

   5   7   4 1891.51 251.268   3

  -5   7  -5 2481.18 293.037   4

   5   7   5 2323.24 266.669   3

   5   7   6 698.007 171.997   3

   5   7   7 2046.75 255.948   3

   5   8  -2 2838.61 314.299   3

  -5   8   1 257.916 100.124   4

   5   8  -1-22.0161 87.4552   3

  -5   8   0 1997.93 236.149   4

   5   8   0 2192.17 275.005   3

  -5   8  -1 235.547 110.754   4

   5   8   1 264.927 120.156   3

  -5   8  -2 2225.29 270.737   4

  -5   8  -3 295.358 126.536   4

   6  -4  -4 1874.63 106.517   2

   6  -4  -3 353.764 49.6890   2

  -6  -2   1 5916.85 254.591   2

   6  -2  -1 5958.78 173.766   2

  -6  -2   0 2295.36 151.136   2

  -6  -2  -1 2717.03 175.800   2

  -6  -2  -2 5562.04 276.658   2

   6  -1 -11 5269.41 380.388   1

   6  -1 -10 493.427 128.165   1

   6  -1  -9 3623.06 285.261   1

   6  -1  -8 47.8709 61.0308   1

  -6  -1   8 78.1397 46.0731   3

   6  -1  -7 8686.97 417.789   1

  -6  -1   7 8459.32 366.328   3

  -6  -1   6 324.403 78.9903   3

   6  -1  -6 200.152 71.7993   1

  -6  -1   5 7583.38 357.190   3

  -6  -1   4 338.638 83.0470   3

   6  -1  -4 310.519 97.6295   3

   6  -1  -4 227.786 62.8429   1

   6  -1  -3 5744.51 330.927   3

  -6  -1   3 6531.89 334.492   3

   6  -1  -3 6664.94 255.971   1

   6  -1  -2 1683.66 184.904   3

  -6  -1   2 1835.13 107.261   2

  -6  -1   2 1654.44 169.282   3

   6  -1  -1 3248.30 258.729   3

  -6  -1   1 4160.79 178.791   2

   6  -1   0 4862.03 314.192   3

  -6  -1   0 5191.22 224.380   2

   6  -1   0 5960.58 190.855   2

   6  -1   1 1275.29 168.461   3

   6  -1   1 1565.53 105.555   2

   6  -1   2 7177.98 375.543   3

   6  -1   2 7190.38 278.805   2

   6  -1   8 9175.55 463.136   2

   6  -1   9 7.52599 81.8263   2

   6  -1  10 3506.91 303.244   2

   6  -1  11 16.1154 108.599   2

   6   0 -13 1779.79 238.398   1

   6   0 -12 2899.73 285.645   1

   6   0 -11 428.873 115.611   1

   6   0 -10 4141.85 313.261   1

   6   0  -9 34.1762 61.9049   1

   6   0  -8 5058.09 309.552   1

   6   0  -8 4495.97 247.904   3

  -6   0   8 4599.04 246.683   3

   6   0  -7 185.817 81.0628   3

   6   0  -7 210.354 80.5652   1

  -6   0   7 213.549 69.4954   3

   6   0  -6 9210.24 393.290   1

   6   0  -6 9017.97 397.466   3

  -6   0   6 8594.74 380.680   3

   6   0  -5 1371.88 155.360   3

  -6   0   5 1501.36 151.698   3

   6   0  -4 3681.02 259.590   3

  -6   0   4 3440.76 235.674   3

   6   0  -3 771.412 142.352   3

  -6   0   3 559.442 105.583   3

   6   0  -3 751.795 83.0268   1

  -6   0   3 562.830 36.9629   2

   6   0  -2 10646.5 478.239   3

   6   0  -2 10856.8 340.707   1

  -6   0   2 10679.8 460.707   3

   6   0  -1 4730.04 170.909   1

   6   0  -1 4901.94 312.015   3

   6   0   0 4216.59 292.791   3

   6   0   1 4658.99 200.270   2

   6   0   1 3918.10 289.590   3

   6   0   2 4628.59 157.650   1

   6   0   2 5033.01 320.828   3

   6   0   3 11058.3 485.116   3

   6   0   3 10371.3 316.961   1

   6   0   4 6543.88 359.748   3

   6   0   4 5866.47 239.210   1

   6   0   4 6580.17 299.168   2

   6   0   5 4472.86 285.360   3

   6   0   5 3841.84 203.535   1

   6   0   5 4217.82 251.426   2

   6   0   6-8.59700 65.2642   3

   6   0   6 51.8027 71.1820   2

   6   0   6 137.230 51.1166   1

   6   0   7 6411.60 351.993   2

   6   0   8 166.475 86.2420   2

   6   0   9 7145.17 419.122   2

   6   0  10 171.114 86.3164   2

  -6   0 -10 219.626 77.6345   4

   6   0  11 3821.20 329.575   2

   6   1 -12 1724.00 220.110   1

   6   1 -11 5387.37 370.185   1

   6   1 -10 340.498 68.1652   3

  -6   1  10 206.900 60.1818   2

   6   1 -10 447.616 109.297   1

   6   1  -9 3165.37 206.960   3

  -6   1   9 3393.79 186.721   2

   6   1  -9 3471.58 269.188   1

   6   1  -8 160.639 69.2256   3

  -6   1   8 93.1727 36.4265   2

  -6   1   8 113.172 49.6504   3

   6   1  -8 91.2653 62.2835   1

   6   1  -7 9266.93 414.468   3

  -6   1   7 8874.01 392.487   3

   6   1  -7 8853.26 410.853   1

  -6   1   7 8728.09 282.661   2

   6   1  -6 158.743 80.6755   3

  -6   1   6 298.415 91.4320   3

  -6   1   6 189.119 34.1107   2

   6   1  -6 181.910 65.8057   1

   6   1  -5 8088.34 345.906   1

   6   1  -5 7675.32 400.531   3

  -6   1   5 7131.40 376.000   3

   6   1  -4-61.3863 104.955   3

  -6   1   4 328.124 96.0664   3

   6   1  -3 6481.65 365.723   3

  -6   1   3 5815.37 342.642   3

   6   1  -2 1728.09 202.761   3

  -6   1   2 1676.15 179.378   3

   6   1  -1 3284.40 272.318   3

   6   1   0 4627.10 321.005   3

   6   1   1 1305.46 183.519   3

   6   1   2 6646.95 394.995   3

   6   1   3 2037.86 164.357   2

   6   1   3 2292.48 234.003   3

   6   1   4 14813.6 517.428   2

   6   1   4 13790.4 455.842   1

   6   1   4 14944.1 610.304   3

   6   1   5 413.062 119.342   3

   6   1   5 596.495 114.649   2

   6   1   5 497.331 74.1932   1

   6   1   6 5325.26 325.713   3

   6   1   6 5441.01 308.074   2

   6   1   6 4975.72 265.994   1

   6   1   7 1261.18 153.820   3

   6   1   7 1370.36 169.858   2

   6   1   8 8943.58 415.515   3

   6   1   8 9199.10 461.193   2

   6   1   9 149.082 98.6723   2

  -6   1 -10 3209.90 291.663   4

   6   1  10 3548.37 304.572   2

   6   1  11 137.364 107.353   2

  -6   1 -11 42.6864 80.4145   4

   6   2 -12 2448.32 263.307   1

   6   2 -11 437.237 121.439   1

   6   2 -10 4240.77 256.816   3

   6   2 -10 4491.46 333.455   1

   6   2  -9 7.73445 70.9302   3

   6   2  -9 217.469 91.5536   1

   6   2  -8 3502.07 264.613   1

   6   2  -8 3511.66 267.800   3

   6   2  -7 281.749 106.440   3

   6   2  -7 365.107 91.4039   1

   6   2  -6 8810.32 441.802   3

   6   2  -5 1917.81 209.434   3

  -6   2   5 1785.07 141.808   1

   6   2  -4 1830.86 198.351   3

  -6   2   4 1886.99 134.071   1

   6   2  -3 138.762 103.800   3

   6   2  -2 12177.8 527.204   3

   6   2  -1 6297.84 365.398   3

   6   2   0 2657.97 242.060   3

   6   2   1 2896.73 264.046   3

   6   2   2 4996.98 341.616   3

   6   2   3 11145.5 541.166   3

   6   2   4 4443.62 334.929   3

   6   2   5 2845.98 273.496   3

   6   2   5 3195.57 204.334   1

   6   2   6 201.413 112.371   3

   6   2   6 323.535 111.634   2

   6   2   7 5753.33 351.558   2

   6   2   7 6356.44 381.794   3

   6   2   8 251.163 97.9237   3

   6   2   8 300.970 105.827   2

   6   2   9 7653.09 442.799   2

  -6   2  -9 7366.35 454.095   4

   6   2  10 683.693 161.906   2

  -6   2 -10 271.349 128.723   4

  -6   2 -11 2761.03 289.390   4

  -6   2 -12 352.798 132.890   4

   6   3 -12 970.419 185.020   1

   6   3 -11 3992.71 337.410   1

   6   3 -10 304.383 101.838   1

   6   3  -9 3131.02 275.261   1

   6   3  -9 3152.65 269.929   3

   6   3  -8 172.942 90.5915   3

   6   3  -8 25.0932 61.7384   1

   6   3  -7 6488.81 370.261   3

   6   3  -6-43.6607 84.5194   3

   6   3  -5 6630.68 368.452   3

  -6   3   5 6695.80 313.676   1

   6   3  -4 233.370 103.262   3

  -6   3   4 228.153 53.8251   1

   6   3  -3 5117.37 319.835   3

  -6   3   3 5100.91 228.023   1

   6   3  -2 1529.83 182.004   3

  -6   3   2 1575.39 103.648   1

  -6   3   1 3243.27 137.393   1

   6   3  -1 3356.93 261.037   3

  -6   3   0 3317.98 119.499   1

   6   3   0 3759.08 282.154   3

   6   3   1 1408.62 181.772   3

  -6   3  -1 1436.97 58.1650   1

   6   3   2 5594.93 348.065   3

  -6   3  -2 4761.31 138.876   1

  -6   3  -3 1155.98 65.9726   1

   6   3   3 967.312 162.861   3

  -6   3  -4 9892.46 302.840   1

   6   3   4 9862.14 501.662   3

   6   3   5 819.774 166.529   3

  -6   3  -5 640.131 69.6402   1

  -6   3  -6 5105.58 233.377   1

   6   3   6 4561.49 355.396   3

   6   3   7 446.490 125.253   3

  -6   3  -7 724.033 92.9506   1

   6   3   8 6224.00 402.751   3

  -6   3  -9 37.3235 104.224   4

  -6   3 -10 3099.87 311.504   4

  -6   3 -11 8.18486 96.0906   4

   6   4 -11 358.258 127.297   1

   6   4 -10 3562.91 330.551   1

   6   4  -9 60.6134 66.5580   3

   6   4  -9 163.255 103.027   1

   6   4  -8 2949.35 251.855   3

   6   4  -7 28.6196 69.4366   3

   6   4  -6 5483.48 338.315   3

   6   4  -5 945.239 150.406   3

  -6   4   4 1874.24 151.209   1

   6   4  -4 1771.77 191.102   3

   6   4  -3 359.154 116.480   3

  -6   4   3 348.371 63.5054   1

  -6   4   2 6096.83 259.277   1

   6   4  -2 5822.63 355.693   3

  -6   4   1 3119.28 161.262   1

   6   4  -1 3350.91 268.810   3

   6   4   0 2249.50 228.115   3

   6   4   1 2705.10 251.087   3

   6   4   2 2979.53 259.015   3

   6   4   3 6364.96 384.425   3

  -6   4  -4 3555.77 175.575   1

   6   4   4 3659.01 292.872   3

   6   4   5 2456.04 245.113   3

  -6   4  -5 2464.76 152.422   1

  -6   4  -6 88.4506 36.2230   1

   6   4   6 84.2308 94.9941   3

   6   4   7 4134.27 340.993   3

   6   4   8 118.593 83.7130   3

  -6   4  -8-2.97924 87.3559   4

  -6   4  -9 4712.80 400.149   4

   6   5 -10 165.575 104.043   1

   6   5  -9 1511.88 190.123   3

   6   5  -8-37.9122 72.7171   3

   6   5  -7 4768.73 331.457   3

   6   5  -6 298.733 115.306   3

   6   5  -5 4178.18 308.986   3

   6   5  -4 19.6614 79.7263   3

   6   5  -3 3243.47 272.166   3

   6   5  -2 751.080 147.100   3

   6   5  -1 2343.56 230.758   3

   6   5   0 2895.24 265.935   3

   6   5   1 819.395 163.580   3

   6   5   2 2413.17 240.723   3

   6   5   3 923.064 160.205   3

   6   5   4 6862.22 423.367   3

   6   5   5 28.8023 86.7700   3

   6   5   6 2287.30 248.979   3

   6   5   7 1117.34 193.004   3

  -6   5  -7 644.274 180.212   4

  -6   5  -8 5229.07 424.723   4

   6   5   8 4634.74 376.620   3

   6   6  -9-99.5142 91.2091   3

   6   6  -8 1627.70 208.151   3

   6   6  -7 220.327 102.645   3

   6   6  -6 2953.98 276.163   3

   6   6  -5 511.836 133.689   3

   6   6  -4 1135.71 179.788   3

   6   6  -3 399.617 137.465   3

   6   6  -2 3738.08 317.637   3

   6   6  -1 2351.58 263.333   3

   6   6   0 1305.39 196.588   3

   6   6   1 1713.41 216.943   3

   6   6   2 1872.19 228.776   3

   6   6   3 3807.33 327.392   3

   6   6   4 1861.21 234.263   3

   6   6   5 1148.25 188.719   3

  -6   6  -5 1125.98 205.441   4

   6   6   6 84.6227 100.688   3

  -6   6  -6 247.627 130.333   4

   6   6   7 1926.74 245.420   3

   6   7  -8-59.5606 90.6130   3

   6   7  -7 2179.73 259.879   3

   6   7  -6 202.736 120.526   3

   6   7  -5 2446.83 272.187   3

   6   7  -4 56.2688 78.7186   3

   6   7  -3 1735.24 237.189   3

   6   7  -2 724.939 173.889   3

   6   7  -1 1285.63 210.965   3

   6   7   0 1571.01 228.047   3

   6   7   1 596.082 160.511   3

   6   7   2 1578.77 225.374   3

  -6   7  -2 1551.87 219.347   4

   6   7   3 353.646 137.236   3

  -6   7  -3 713.952 170.804   4

  -6   7  -4 3085.83 330.732   4

   6   7   4 3634.89 334.012   3

   6   7   5 443.851 147.116   3

   6   7   6 1456.76 227.665   3

  -6   8   1 1124.56 185.026   4

  -6   8   0 327.973 123.073   4

  -6   8  -1 670.641 159.132   4

  -6   8  -2 1027.18 202.525   4

  -7  -2   2 3089.28 176.255   2

  -7  -2   1 9430.29 349.328   2

   7  -2   0 259.482 43.0611   2

  -7  -2   0 235.156 63.9166   2

  -7  -2  -1 5124.58 259.878   2

   7  -2  10 601.577 140.938   2

   7  -1 -11 5254.94 382.255   1

   7  -1 -10 2021.34 228.034   1

   7  -1  -9 3933.18 300.849   1

   7  -1  -8 2050.75 204.797   1

   7  -1  -7 6889.62 365.007   1

   7  -1  -6 5818.28 311.080   1

   7  -1  -4 4525.55 303.818   3

   7  -1  -4 4733.14 232.112   1

  -7  -1   3 5271.73 196.333   2

   7  -1  -3 4709.16 209.663   1

   7  -1  -3 5047.44 327.620   3

   7  -1  -2 8061.28 432.199   3

  -7  -1   2 8653.02 285.920   2

   7  -1  -1 1025.62 172.463   3

  -7  -1   1 957.061 87.9961   2

   7  -1   0 3531.76 284.830   3

   7  -1   1 1270.53 191.006   3

   7  -1   1 1254.52 100.672   2

   7  -1   2 7040.38 402.092   3

   7  -1   3 508.997 81.7451   2

   7  -1   4 3646.72 223.900   2

   7  -1   5 510.812 99.4249   2

   7  -1   6 3486.29 252.812   2

   7  -1   7 291.522 94.2991   2

   7  -1   8 4609.06 322.586   2

   7  -1   9 1623.31 200.611   2

   7  -1  10 768.351 150.627   2

   7   0 -12 6679.62 451.199   1

   7   0 -11 1803.36 222.446   1

   7   0 -10 4507.30 331.881   1

   7   0  -9 1124.33 155.595   1

   7   0  -8 7223.50 383.415   1

   7   0  -8 6920.03 345.832   3

   7   0  -7 2517.88 206.760   1

   7   0  -7 2486.33 204.308   3

   7   0  -6 7851.43 364.120   1

   7   0  -6 8003.93 396.988   3

   7   0  -5 2105.62 204.442   3

   7   0  -5 1747.67 150.431   1

   7   0  -4 422.547 118.668   3

   7   0  -3 5490.29 346.690   3

   7   0  -3 6544.59 263.733   1

   7   0  -2 4212.66 304.182   3

   7   0  -2 4324.24 185.314   1

   7   0  -1 12069.8 547.635   3

   7   0  -1 12351.7 347.679   1

   7   0   0 53.8135 99.3860   3

   7   0   0 92.8026 19.0905   1

   7   0   1 3879.30 117.029   1

   7   0   1 4768.12 328.276   3

   7   0   2 826.680 170.073   3

   7   0   2 543.316 40.4307   1

   7   0   3 12721.9 567.682   3

   7   0   3 11977.4 343.549   1

   7   0   3 13532.8 456.274   2

   7   0   4 225.513 112.498   3

   7   0   4 269.151 83.3361   2

   7   0   4 148.887 35.9716   1

   7   0   5 2001.45 131.471   1

   7   0   5 2389.60 223.986   3

   7   0   5 2326.17 191.113   2

   7   0   6 500.485 119.966   3

   7   0   6 307.895 90.1889   2

   7   0   7 5505.34 335.316   2

   7   0   8 1732.69 200.045   2

   7   0   9 2481.87 244.143   2

   7   0  10 616.855 136.073   2

  -7   0 -10 653.378 141.585   4

   7   1 -12 590.202 140.608   1

   7   1 -11 5161.22 370.747   1

   7   1 -10 1962.42 215.112   1

   7   1  -9 3633.68 278.215   1

   7   1  -9 3227.43 232.042   3

   7   1  -8 2192.14 200.012   3

   7   1  -8 2088.22 203.565   1

  -7   1   8 2258.56 115.206   2

   7   1  -7 7007.84 376.735   3

   7   1  -7 7053.68 367.425   1

   7   1  -6 5791.65 347.611   3

   7   1  -6 5591.95 307.736   1

   7   1  -5 2230.78 176.043   1

   7   1  -5 2228.15 224.424   3

   7   1  -4 4992.27 253.373   1

   7   1  -4 4558.39 328.604   3

   7   1  -3 5220.34 349.059   3

   7   1  -2 8487.94 458.536   3

   7   1  -1 636.826 154.445   3

   7   1   0 3919.89 312.715   3

   7   1   1 1310.43 192.783   3

   7   1   2 6531.00 409.241   3

   7   1   3 300.529 136.640   3

   7   1   3 461.681 60.8114   1

   7   1   4 3497.53 231.225   2

   7   1   4 3148.57 174.609   1

   7   1   4 3162.68 276.271   3

   7   1   5 529.968 129.900   3

   7   1   5 572.127 78.1648   1

   7   1   5 523.249 112.050   2

   7   1   6 2944.57 256.332   3

   7   1   6 2976.73 237.918   2

   7   1   7 389.847 107.279   3

   7   1   7 345.280 103.819   2

   7   1   8 4500.70 304.208   3

   7   1   8 4601.28 322.738   2

   7   1   9 1858.38 216.393   2

   7   1  10 1108.26 184.940   2

  -7   1 -10 797.161 170.273   4

  -7   1 -11 1029.72 179.679   4

   7   2 -12 5204.69 392.744   1

   7   2 -11 1363.78 193.858   1

   7   2 -10 4590.66 342.898   1

   7   2  -9 1390.71 170.614   3

   7   2  -9 1587.76 194.767   1

   7   2  -8 5335.97 352.917   3

   7   2  -8 5393.31 344.378   1

   7   2  -7 1697.25 210.147   3

   7   2  -7 1697.41 179.570   1

   7   2  -6 7118.92 425.686   3

   7   2  -5 1843.99 224.621   3

   7   2  -4 165.433 106.432   3

   7   2  -3 4576.78 343.913   3

   7   2  -2 3428.62 296.106   3

   7   2  -1 9618.32 508.165   3

   7   2   0 205.482 143.536   3

   7   2   1 5132.26 381.948   3

   7   2   2 278.071 137.890   3

   7   2   3 8594.26 504.866   3

   7   2   4 9.10771 110.208   3

   7   2   5 3016.93 298.124   3

   7   2   6 821.941 158.972   3

   7   2   7 3880.09 291.825   2

   7   2   7 3595.00 298.706   3

   7   2   8 832.317 148.312   3

   7   2   8 1223.57 180.177   2

   7   2   9 2825.02 271.605   2

   7   2  10 1328.75 204.014   2

  -7   2 -10 1105.08 198.256   4

  -7   2 -11 1495.05 218.291   4

   7   3 -11 4535.90 375.369   1

   7   3 -10 1349.97 194.396   1

   7   3  -9 2590.24 258.701   1

   7   3  -9 2609.61 259.846   3

   7   3  -8 1444.81 201.220   3

   7   3  -8 1692.20 199.146   1

   7   3  -7 5435.92 375.283   3

   7   3  -6 4889.60 351.199   3

   7   3  -5 1353.35 192.109   3

  -7   3   5 1098.80 117.580   1

  -7   3   4 2947.81 176.966   1

   7   3  -4 2609.24 252.788   3

  -7   3   3 4758.18 209.243   1

   7   3  -3 4544.53 333.453   3

  -7   3   2 7646.80 250.854   1

   7   3  -2 7545.28 432.525   3

   7   3  -1 419.990 124.785   3

   7   3   0 3084.42 282.339   3

   7   3   1 1521.68 207.602   3

   7   3   2 6299.72 414.113   3

   7   3   3 315.769 134.373   3

   7   3   4 2469.55 276.563   3

   7   3   5 221.572 107.782   3

   7   3   6 2204.14 270.728   3

   7   3   7 192.758 95.4984   3

   7   3   8 4149.71 337.990   3

  -7   3  -9 1690.45 241.471   4

  -7   3 -10 530.834 154.151   4

   7   4 -10 2944.43 301.469   1

   7   4  -9 730.022 150.909   3

   7   4  -9 742.577 151.167   1

   7   4  -8 3978.82 320.185   3

   7   4  -7 1235.52 182.816   3

   7   4  -6 4655.42 338.112   3

   7   4  -5 1032.50 164.032   3

   7   4  -4 477.446 125.582   3

   7   4  -3 3368.54 292.615   3

  -7   4   3 3757.63 200.670   1

  -7   4   2 2327.72 138.402   1

   7   4  -2 2114.80 228.587   3

  -7   4   1 7193.96 247.517   1

   7   4  -1 6451.98 409.530   3

   7   4   0 131.933 91.8897   3

  -7   4   0 78.9814 20.3111   1

   7   4   1 3241.38 287.964   3

   7   4   2 384.638 134.790   3

   7   4   3 7661.23 465.848   3

   7   4   4 144.899 117.413   3

   7   4   5 1653.59 234.050   3

   7   4   6 352.256 131.113   3

   7   4   7 2936.21 312.765   3

   7   4   8 856.021 175.686   3

  -7   4  -8 1196.76 222.497   4

   7   5  -9 1492.86 207.694   3

   7   5  -8 1002.45 173.881   3

   7   5  -7 2751.81 266.498   3

   7   5  -6 2398.97 251.867   3

   7   5  -5 1153.61 179.584   3

   7   5  -4 2694.77 266.336   3

   7   5  -3 1795.76 221.365   3

   7   5  -2 3556.67 309.205   3

   7   5  -1 678.044 151.365   3

   7   5   0 2484.00 264.249   3

   7   5   1 496.923 150.236   3

   7   5   2 3414.50 313.534   3

   7   5   3 206.593 120.494   3

   7   5   4 1697.64 226.139   3

   7   5   5 305.464 123.321   3

   7   5   6 1550.08 234.731   3

   7   5   7 99.6718 104.708   3

  -7   5  -7 200.386 132.342   4

   7   6  -9 564.618 138.152   3

   7   6  -8 2146.65 252.289   3

   7   6  -7 868.237 181.480   3

   7   6  -6 2404.52 265.525   3

   7   6  -5 718.834 151.421   3

   7   6  -4 251.409 118.934   3

   7   6  -3 2482.08 269.981   3

   7   6  -2 1272.84 199.594   3

   7   6  -1 4052.42 347.877   3

   7   6   0-38.3835 93.8454   3

   7   6   1 2027.28 253.520   3

   7   6   2 96.7291 101.894   3

   7   6   3 4072.50 359.762   3

   7   6   4 88.8503 106.189   3

   7   6   5 878.896 187.499   3

   7   6   6 136.779 118.917   3

   7   6   7 1496.01 235.383   3

   7   7  -6 1430.84 224.436   3

   7   7  -5 491.300 151.099   3

   7   7  -4 1344.47 214.312   3

   7   7  -3 1545.12 235.378   3

   7   7  -2 2404.04 291.771   3

   7   7  -1 104.739 99.0350   3

   7   7   0 922.715 184.742   3

   7   7   1 119.583 121.405   3

   7   7   2 2294.35 289.913   3

   7   7   3-84.3130 117.379   3

  -7   7  -3 34.8983 108.558   4

  -7   8   1 1394.43 209.474   4

  -7   8   0 79.1211 101.681   4

  -8  -2   3 12475.3 416.520   2

  -8  -2   2 571.903 77.9580   2

  -8  -2   1 7872.08 321.819   2

  -8  -2   0 1091.18 116.000   2

   8  -2   0 997.797 70.5014   2

   8  -2   1 6628.30 254.223   2

   8  -2   3 4294.48 239.536   2

   8  -2   4 2965.39 214.682   2

   8  -2   5 1566.55 168.152   2

   8  -2   6 1495.33 174.855   2

   8  -2   7 1878.51 208.613   2

   8  -2   8 3013.79 268.060   2

   8  -2   9 86.7019 83.4106   2

   8  -1 -10 4727.74 344.812   1

   8  -1  -9 347.441 105.823   1

   8  -1  -8 6659.35 375.130   1

   8  -1  -7 206.989 81.4580   1

   8  -1  -6 8491.21 383.338   1

   8  -1  -4 9030.64 339.225   1

   8  -1  -4 8546.29 455.574   3

  -8  -1   4 8948.34 282.731   2

   8  -1  -3 279.199 106.484   3

  -8  -1   3 211.955 41.8589   2

   8  -1  -2 12686.5 579.175   3

  -8  -1   2 12208.5 380.034   2

   8  -1  -1 1841.01 218.654   3

   8  -1   0 3777.26 308.097   3

   8  -1   1 1044.13 179.168   3

   8  -1   1 1237.77 101.848   2

   8  -1   2 9214.65 493.550   3

   8  -1   3 5939.92 286.100   2

   8  -1   4 4693.33 266.880   2

   8  -1   5 2383.46 200.328   2

   8  -1   6 3495.38 255.756   2

   8  -1   7 3805.87 286.594   2

   8  -1   8 2209.13 227.215   2

   8  -1   9 1535.37 209.986   2

   8   0 -12 2165.77 249.796   1

   8   0 -11 5202.93 380.386   1

   8   0 -10 339.087 97.1453   1

   8   0  -9 5484.09 353.912   1

   8   0  -8 396.073 97.1190   3

   8   0  -8 288.502 85.4215   1

   8   0  -7 10369.2 449.920   1

   8   0  -7 9110.24 451.017   3

   8   0  -6-20.1056 70.9374   3

   8   0  -6 118.340 63.5535   1

   8   0  -5 10952.6 416.567   1

   8   0  -5 9622.08 482.960   3

   8   0  -4 844.627 155.606   3

   8   0  -3 12100.7 573.921   3

   8   0  -3 13654.4 428.262   1

   8   0  -2 299.541 119.100   3

   8   0  -2 290.662 45.8567   1

   8   0  -1 12126.8 562.297   3

   8   0  -1 11144.5 313.455   1

   8   0   0 1771.39 222.596   3

   8   0   1 5591.67 373.795   3

   8   0   2 1036.20 165.586   3

   8   0   3 5075.96 264.973   2

   8   0   3 4322.00 329.433   3

   8   0   4 3437.93 287.534   3

   8   0   4 3595.60 235.686   2

   8   0   5 1716.63 207.160   3

   8   0   5 1687.12 171.046   2

   8   0   6 1804.05 210.663   3

   8   0   6 2282.57 210.125   2

   8   0   7 1898.72 201.310   2

   8   0   8 3141.97 273.279   2

   8   0   9 345.364 125.376   2

   8   1 -12 2623.54 271.792   1

   8   1 -11 414.976 121.358   1

   8   1 -10 4515.85 333.252   1

   8   1  -9 284.666 87.4817   3

   8   1  -9 310.407 93.1299   1

   8   1  -8 6194.87 373.131   3

   8   1  -8 7497.42 397.899   1

   8   1  -7 375.070 116.309   3

   8   1  -7 246.397 82.5709   1

   8   1  -6 8299.22 451.775   3

   8   1  -6 8410.97 392.694   1

   8   1  -5 1019.95 167.872   3

   8   1  -5 1035.95 121.609   1

   8   1  -4 9815.99 388.788   1

   8   1  -4 9254.20 493.030   3

   8   1  -3 340.486 138.247   3

   8   1  -2 12276.9 585.596   3

   8   1  -1 2042.86 243.212   3

   8   1   0 4379.66 343.663   3

   8   1   1 1070.32 186.734   3

   8   1   2 10216.0 539.203   3

   8   1   3 5215.93 220.200   1

   8   1   3 5696.89 391.381   3

   8   1   4 3762.91 316.880   3

   8   1   5 1955.57 230.473   3

   8   1   5 2130.87 199.194   2

   8   1   6 3123.27 249.737   2

   8   1   6 3136.13 289.079   3

   8   1   7 3643.84 284.980   2

   8   1   7 3523.69 291.557   3

   8   1   8 2161.96 228.524   2

   8   1   8 2092.87 220.885   3

   8   1   9 1444.43 204.989   2

   8   2 -11 4292.38 348.044   1

   8   2 -10 107.771 66.9909   1

   8   2  -9 3933.39 304.418   3

   8   2  -9 4000.97 313.985   1

   8   2  -8 436.357 117.265   3

   8   2  -8 585.477 120.507   1

   8   2  -7 9399.15 459.681   1

   8   2  -7 9647.65 518.522   3

   8   2  -6 28.0248 100.599   3

   8   2  -6 309.521 88.2790   1

   8   2  -5 6485.08 430.339   3

   8   2  -4 532.495 152.605   3

   8   2  -3 11761.9 605.301   3

   8   2  -2 298.417 138.936   3

   8   2  -1 8223.59 505.392   3

   8   2   0 757.676 175.505   3

   8   2   1 5657.92 421.914   3

   8   2   2 1447.61 237.695   3

   8   2   3 3659.54 341.785   3

   8   2   4 2967.37 309.570   3

   8   2   5 1547.84 215.344   3

   8   2   6 1521.51 213.322   3

   8   2   7 1926.44 235.874   3

   8   2   8 2699.73 263.960   3

  -8   2 -10 1773.05 257.685   4

   8   3 -11 277.119 107.789   1

   8   3 -10 4302.31 353.773   1

   8   3  -9 10.0525 93.5803   3

   8   3  -9 44.7071 81.4210   1

   8   3  -8 4572.57 337.411   1

   8   3  -8 4589.95 368.493   3

   8   3  -7 212.472 104.435   3

   8   3  -6 5886.57 421.965   3

   8   3  -5 797.027 185.562   3

   8   3  -4 7577.98 479.392   3

   8   3  -3 128.560 115.815   3

   8   3  -2 9384.40 546.673   3

   8   3  -1 1302.46 223.842   3

   8   3   0 3597.44 337.571   3

   8   3   1 673.958 170.153   3

   8   3   2 6844.92 480.850   3

   8   3   3 3536.48 351.948   3

   8   3   4 3785.79 367.660   3

   8   3   5 1901.88 259.957   3

   8   3   6 1764.20 247.881   3

   8   3   7 2394.27 279.215   3

   8   3   8 1706.42 229.398   3

   8   4 -10 144.519 92.1282   1

   8   4  -9 3314.47 314.422   1

   8   4  -9 2840.82 310.139   3

   8   4  -8 467.376 141.027   3

   8   4  -7 5994.71 434.096   3

   8   4  -6 248.047 135.070   3

   8   4  -5 5948.92 422.632   3

   8   4  -4 332.364 136.760   3

   8   4  -3 7590.98 477.560   3

   8   4  -2 310.991 134.735   3

   8   4  -1 6346.27 441.578   3

   8   4   0 820.659 183.914   3

   8   4   1 3893.97 352.852   3

   8   4   2 819.583 192.225   3

   8   4   3 3028.61 328.702   3

   8   4   4 2185.05 286.039   3

   8   4   5 1200.63 225.418   3

   8   4   6 1195.73 220.901   3

   8   4   7 1021.60 209.670   3

   8   5  -9 189.187 113.079   3

   8   5  -8 3170.71 321.083   3

   8   5  -7-59.6450 89.3528   3

   8   5  -6 3585.18 331.125   3

   8   5  -5 480.217 139.100   3

   8   5  -4 4762.48 379.364   3

   8   5  -3 27.8926 98.5805   3

   8   5  -2 6594.37 452.042   3

   8   5  -1 930.128 177.944   3

   8   5   0 1584.62 231.813   3

   8   5   1 310.473 128.490   3

   8   5   2 5353.03 419.932   3

   8   5   3 2736.38 305.891   3

   8   5   4 1616.37 245.646   3

   8   5   5 967.145 214.521   3

   8   5   6 1618.10 251.556   3

   8   5   7 1629.72 259.492   3

   8   6  -8 188.449 119.648   3

   8   6  -7 3168.73 322.374   3

   8   6  -6 31.3921 95.8000   3

   8   6  -5 2684.51 297.944   3

   8   6  -4 128.170 118.906   3

   8   6  -3 4690.12 394.116   3

   8   6  -2 212.230 130.229   3

   8   6  -1 3620.87 347.656   3

   8   6   0 603.777 169.816   3

   8   6   1 2372.29 281.857   3

   8   6   2 667.777 179.781   3

   8   6   3 1699.57 252.929   3

   8   6   4 1347.27 236.425   3

   8   6   5 563.745 167.658   3

   9  -3   2 1005.96 107.278   2

   9  -3   3 8594.51 377.815   2

   9  -3   4 104.065 68.0992   2

   9  -3   5 3660.58 267.819   2

   9  -3   6 39.0239 74.5989   2

   9  -3   7 5488.83 369.055   2

   9  -3   8 202.617 100.567   2

   9  -2   1 1725.51 115.853   2

   9  -2   3 610.283 99.1742   2

   9  -2   4 7192.04 351.055   2

   9  -2   5 247.657 92.3492   2

   9  -2   6 5363.67 336.343   2

   9  -2   7 375.108 116.041   2

   9  -2   8 4091.21 320.839   2

   9  -2   9 215.189 108.570   2

   9  -1  -9 517.253 109.755   1

   9  -1  -8 4799.60 309.293   1

   9  -1  -7 2277.37 196.600   1

   9  -1  -6 4079.73 245.788   1

   9  -1  -3 3035.36 285.425   3

   9  -1  -2 3896.37 322.727   3

   9  -1  -1 7049.60 440.053   3

   9  -1   0 123.308 112.411   3

   9  -1   1 5130.50 377.662   3

   9  -1   2 1821.41 145.434   2

   9  -1   3 10349.3 412.385   2

   9  -1   4 169.820 69.1735   2

   9  -1   5 4795.24 299.639   2

   9  -1   6 132.407 88.1285   2

   9  -1   7 6460.41 392.463   2

   9  -1   8 394.743 113.532   2

   9  -1   9 3540.28 311.117   2

   9   0 -12 139.931 97.0902   1

   9   0 -11 3189.10 294.376   1

   9   0 -10 438.885 115.247   1

   9   0  -9 3007.99 258.065   1

   9   0  -8 787.823 139.024   3

   9   0  -8 842.509 138.765   1

   9   0  -7 4337.39 273.503   1

   9   0  -7 3577.40 288.141   3

   9   0  -6 3230.67 219.080   1

   9   0  -6 3138.20 272.730   3

   9   0  -5 1395.73 187.402   3

   9   0  -5 1591.14 142.941   1

   9   0  -4 3670.72 303.747   3

   9   0  -3 3604.79 177.216   1

   9   0  -3 3258.12 285.277   3

   9   0  -2 7161.78 242.512   1

   9   0  -2 7379.12 440.911   3

   9   0  -1 418.929 131.806   3

   9   0  -1 346.119 29.9429   1

   9   0   0 6197.24 410.469   3

   9   0   1 2423.20 261.545   3

   9   0   2 10388.4 554.271   3

   9   0   3 105.793 95.4245   3

   9   0   4 5841.53 322.375   2

   9   0   4 6275.58 421.819   3

   9   0   5 508.648 134.282   3

   9   0   5 475.658 111.971   2

   9   0   6 7068.29 393.071   2

   9   0   7 224.304 112.835   2

   9   0   8 3684.34 303.740   2

   9   0   9 264.422 111.943   2

   9   1 -11 794.790 153.539   1

   9   1 -10 1763.70 210.335   1

   9   1  -9 601.872 125.424   3

   9   1  -9 702.167 128.022   1

   9   1  -8 5081.49 325.294   1

   9   1  -8 4874.40 336.911   3

   9   1  -7 1839.62 222.445   3

   9   1  -7 2282.93 204.497   1

   9   1  -6 4063.77 322.258   3

   9   1  -6 4316.00 272.993   1

   9   1  -5 2807.15 278.026   3

   9   1  -5 2925.26 207.478   1

   9   1  -4 2844.26 280.304   3

   9   1  -4 3405.25 210.871   1

   9   1  -3 3300.08 294.395   3

   9   1  -2 4028.60 335.319   3

   9   1  -1 7033.32 449.388   3

   9   1   0 376.122 128.094   3

   9   1   1 5555.46 404.179   3

   9   1   2 1408.97 207.549   3

   9   1   3 9911.77 553.217   3

   9   1   4 67.2969 97.1085   3

   9   1   5 4444.51 354.238   3

   9   1   6 82.6767 90.6506   3

   9   1   7 7181.30 417.979   2

   9   1   7 5803.31 403.467   3

   9   1   8 328.148 121.999   2

   9   1   8 105.678 76.9635   3

   9   1   9 2818.06 287.012   2

   9   2 -11 3084.02 301.044   1

   9   2 -10 389.860 112.169   1

   9   2  -9 1985.65 228.347   3

   9   2  -9 2367.35 242.271   1

   9   2  -8 805.917 160.494   3

   9   2  -8 584.010 124.028   1

   9   2  -7 3648.83 323.812   3

   9   2  -7 4333.84 303.829   1

   9   2  -6 3127.39 241.670   1

   9   2  -6 2824.05 292.059   3

   9   2  -5 1179.84 198.907   3

   9   2  -5 1463.34 158.159   1

   9   2  -4 3273.32 318.195   3

   9   2  -3 2736.75 294.560   3

   9   2  -2 6226.33 452.956   3

   9   2  -1 307.994 133.997   3

   9   2   0 6358.22 467.123   3

   9   2   1 1331.87 225.069   3

   9   2   2 7348.25 507.120   3

   9   2   3 457.689 140.967   3

   9   2   4 6671.40 472.338   3

   9   2   5 240.720 134.358   3

   9   2   6 4851.64 389.244   3

   9   2   7 371.083 141.048   3

   9   2   8 3283.45 305.056   3

   9   3 -10 1159.96 188.583   1

   9   3  -9 377.679 134.955   3

   9   3  -9 399.565 118.819   1

   9   3  -8 4974.89 354.962   1

   9   3  -8 4045.86 364.930   3

   9   3  -7 1571.56 241.050   3

   9   3  -7 1838.77 207.956   1

   9   3  -6 2197.22 286.289   3

   9   3  -5 1839.98 258.770   3

   9   3  -4 2541.85 304.016   3

   9   3  -3 3106.49 341.107   3

   9   3  -2 2993.17 329.829   3

   9   3  -1 4859.60 423.675   3

   9   3   0 324.053 175.270   3

   9   3   1 4327.50 406.841   3

   9   3   2 1230.93 238.744   3

   9   3   3 7092.77 528.067   3

   9   3   4 77.6253 128.332   3

   9   3   5 3116.30 345.451   3

   9   3   6 241.914 107.189   3

   9   3   7 4776.85 398.603   3

   9   4  -9 1346.90 228.950   3

   9   4  -9 1936.66 246.454   1

   9   4  -8 422.399 146.544   3

   9   4  -8 390.787 121.561   1

   9   4  -7 2047.55 281.892   3

   9   4  -6 1648.89 252.656   3

   9   4  -5 1187.28 225.106   3

   9   4  -4 2273.76 295.695   3

   9   4  -3 2422.12 307.188   3

   9   4  -2 4297.82 393.681   3

   9   4  -1 507.526 155.774   3

   9   4   0 4206.49 404.142   3

   9   4   1 1275.71 243.370   3

   9   4   2 5671.45 479.520   3

   9   4   3 82.6846 118.027   3

   9   4   4 3427.50 379.222   3

   9   4   5 24.9130 125.832   3

   9   4   6 3953.35 405.272   3

   9   4   7 93.2362 115.325   3

   9   5  -8 2433.59 304.959   3

   9   5  -7 745.616 182.267   3

   9   5  -6 2454.17 305.782   3

   9   5  -5 1897.75 265.969   3

   9   5  -4 1173.63 217.218   3

   9   5  -3 1455.23 239.867   3

   9   5  -2 2253.48 291.073   3

   9   5  -1 3547.20 359.765   3

   9   5   0 225.432 159.886   3

   9   5   1 2785.67 331.844   3

   9   5   2 875.534 216.219   3

   9   5   3 5006.30 457.254   3

   9   5   4-155.503 130.296   3

   9   5   5 1892.01 293.123   3

   9   5   6-160.555 155.383   3

   9   6  -3 1578.27 247.705   3

   9   6  -2 2228.03 309.440   3

   9   6  -1 162.178 108.940   3

  10  -1  -2-12.5694 97.8541   3

  10  -1  -1 3707.40 332.056   3

  10  -1   4 1180.29 143.868   2

  10  -1   5 2684.21 224.822   2

  10  -1   6 1247.23 168.595   2

  10  -1   7 2587.09 253.719   2

  10  -1   8 2044.89 232.981   2

  10   0 -11 1323.18 193.222   1

  10   0 -10 1281.87 179.641   1

  10   0  -9 2382.52 228.861   1

  10   0  -8 1229.04 159.334   1

  10   0  -7 1081.74 171.822   3

  10   0  -7 1111.13 139.516   1

  10   0  -6 2303.65 185.395   1

  10   0  -6 2658.46 263.778   3

  10   0  -5 286.970 118.312   3

  10   0  -5 274.125 60.6042   1

  10   0  -4 2383.22 259.213   3

  10   0  -3 663.979 154.244   3

  10   0  -2 5165.54 384.786   3

  10   0  -1 417.661 136.978   3

  10   0   0 2876.01 295.629   3

  10   0   1-96.6996 108.998   3

  10   0   2 5466.45 409.057   3

  10   0   3 2522.39 275.955   3

  10   0   4 2630.75 282.682   3

  10   0   5 621.002 152.053   3

  10   0   6 3147.30 266.963   2

  10   0   7 3380.98 289.496   2

  10   0   8 1521.11 204.644   2

  10   1 -11 1470.81 206.256   1

  10   1 -10 959.980 162.430   1

  10   1  -9 652.629 134.927   3

  10   1  -9 639.298 127.054   1

  10   1  -8 2576.13 227.781   1

  10   1  -8 2525.55 259.096   3

  10   1  -7 2913.75 232.833   1

  10   1  -7 2841.66 279.323   3

  10   1  -6 700.158 156.575   3

  10   1  -6 378.548 82.6742   1

  10   1  -5 2228.94 255.030   3

  10   1  -5 2372.42 184.520   1

  10   1  -4 475.862 140.586   3

  10   1  -4 529.356 83.9001   1

  10   1  -3 3936.50 337.736   3

  10   1  -2 125.275 126.122   3

  10   1  -1 3938.90 342.064   3

  10   1   0 226.647 113.191   3

  10   1   1 3659.54 340.005   3

  10   1   2 464.610 149.492   3

  10   1   3 3968.91 358.806   3

  10   1   4 1129.79 203.924   3

  10   1   5 1935.19 252.796   3

  10   1   6 1166.66 207.203   3

  10   1   7 2360.42 269.560   3

  10   2 -10 847.029 153.311   1

  10   2  -9 2634.36 271.277   3

  10   2  -9 2566.21 256.197   1

  10   2  -8 1360.13 209.878   3

  10   2  -8 1222.64 168.927   1

  10   2  -7 690.298 162.387   3

  10   2  -7 726.884 130.238   1

  10   2  -6 1643.86 232.429   3

  10   2  -6 2075.47 200.643   1

  10   2  -5 506.179 157.886   3

  10   2  -5 343.636 85.2911   1

  10   2  -4 3451.34 234.835   1

  10   2  -4 3170.32 325.909   3

  10   2  -3 396.812 135.109   3

  10   2  -2 3703.14 357.027   3

  10   2  -1 381.346 152.399   3

  10   2   0 3105.22 334.795   3

  10   2   1 185.704 133.545   3

  10   2   2 5248.76 434.204   3

  10   2   3 2550.29 297.327   3

  10   2   4 2386.71 288.897   3

  10   2   5 435.216 141.421   3

  10   2   6 2275.45 276.161   3

  10   2   7 2893.27 302.583   3

  10   3 -10 683.396 153.461   1

  10   3  -9 746.792 171.934   3

  10   3  -9 602.350 140.722   1

  10   3  -8 1839.55 257.472   3

  10   3  -8 2247.80 238.792   1

  10   3  -7 2091.81 280.025   3

  10   3  -7 2691.31 256.359   1

  10   3  -6 151.272 121.438   3

  10   3  -6 227.438 86.6884   1

  10   3  -5 2089.92 290.373   3

  10   3  -4 460.664 160.352   3

  10   3  -3 3085.81 353.091   3

  10   3  -2 11.0555 138.487   3

  10   3  -1 2811.57 343.448   3

  10   3   0 346.011 159.635   3

  10   3   1 2505.83 325.302   3

  10   3   2 264.514 132.713   3

  10   3   3 4157.64 414.277   3

  10   3   4 1315.54 247.140   3

  10   3   5 1345.07 238.891   3

  10   3   6 460.410 150.944   3

  10   3   7 2013.71 268.936   3

  10   4  -8 593.539 163.721   3

  10   4  -8 918.852 167.092   1

  10   4  -7 588.948 182.032   3

  10   4  -6 1599.94 270.049   3

  10   4  -5-4.66846 110.245   3

  10   4  -4 1677.11 273.909   3

  10   4  -3 459.481 180.225   3

  10   4  -2 2866.13 371.304   3

  10   4  -1 375.889 194.274   3

  10   4   0 2283.01 328.963   3

  10   4   1-47.8205 129.640   3

  10   4   2 3952.43 424.585   3

  10   4   3 1650.93 283.842   3

  10   4   4 1630.60 285.146   3

  10   4   5 321.183 174.331   3

  10   5  -5 1278.34 253.568   3

  10   5  -4 358.956 156.696   3

  10   5  -3 2777.75 356.792   3

  10   5  -2 274.641 193.194   3

  10   5  -1 2265.40 330.387   3

  10   5   0 351.979 162.596   3

  11   0  -7 133.059 91.2823   3

  11   0  -6 2976.32 295.152   3

  11   0  -5-129.223 111.111   3

  11   0  -4 4148.54 351.751   3

  11   0  -3 361.903 117.054   3

  11   0  -2 2677.00 285.554   3

  11   0  -1 784.729 161.661   3

  11   0   0 1856.12 249.870   3

  11   0   1 1121.12 205.839   3

  11   0   2 1716.27 241.203   3

  11   0   3 1575.28 241.253   3

  11   0   4 438.995 135.968   3

  11   1  -9 2652.13 271.487   3

  11   1  -8 206.923 119.248   3

  11   1  -7 4761.35 379.320   3

  11   1  -6 93.1908 101.026   3

  11   1  -5 2205.02 266.077   3

  11   1  -4 13.7994 91.6839   3

  11   1  -3 4826.92 396.946   3

  11   1  -2 476.168 141.039   3

  11   1  -1 1454.77 224.413   3

  11   1   0 551.597 163.670   3

  11   1   1 2585.85 299.160   3

  11   1   2 1734.63 254.533   3

  11   1   3 856.752 189.667   3

  11   1   4 582.026 162.279   3

  11   1   5 622.824 171.888   3

  11   1   6 2119.06 273.620   3

  11   2  -9 658.434 148.036   3

  11   2  -8 3447.21 332.980   3

  11   2  -7 115.289 117.509   3

  11   2  -6 2557.41 302.709   3

  11   2  -5 23.9156 108.464   3

  11   2  -4 3694.87 362.552   3

  11   2  -3 456.160 168.234   3

  11   2  -2 2963.54 330.915   3

  11   2  -1 817.695 198.130   3

  11   2   0 1400.08 236.231   3

  11   2   1 1046.81 216.918   3

  11   2   2 2729.12 322.771   3

  11   2   3 2527.43 312.443   3

  11   2   4 51.6694 96.2111   3

  11   2   5 569.975 159.758   3

  11   3  -8 104.283 102.268   3

  11   3  -7 3655.96 368.115   3

  11   3  -6 9.24102 105.147   3

  11   3  -5 2032.97 292.029   3

  11   3  -4 40.9911 127.141   3

  11   3  -3 3634.62 385.043   3

  11   3  -2 412.430 159.491   3

  11   3  -1 1399.77 250.059   3

  11   3   0 653.617 198.668   3

  11   3   1 1729.22 289.949   3

  11   3   2 1042.71 250.668   3

  11   3   3 1178.56 238.740   3

  11   4  -3 316.650 148.158   3

  11   4  -2 2246.84 336.179   3

  12   0  -6 691.822 164.409   3

  12   0  -5 1904.92 256.521   3

  12   0  -4 2563.49 296.107   3

  12   0  -3 3957.25 363.760   3

  12   0  -2 322.493 144.852   3

  12   0  -1 2015.64 266.603   3

  12   0   0 608.434 175.140   3

  12   0   1 3256.81 342.353   3

  12   0   2 154.014 124.382   3

  12   1  -8 921.515 181.037   3

  12   1  -7 1548.32 235.160   3

  12   1  -6 2126.91 267.460   3

  12   1  -5 1113.60 203.475   3

  12   1  -4 2909.16 319.601   3

  12   1  -3 1557.43 230.791   3

  12   1  -2 2574.92 307.010   3

  12   1  -1 509.773 141.699   3

  12   1   0 2247.08 287.500   3

  12   1   1 634.861 170.067   3

  12   2  -5 1719.63 261.261   3

  12   2  -4 1841.19 276.802   3

  12   2  -3 3025.19 338.917   3

  12   2  -2 532.691 158.126   3

  12   2  -1 2319.47 310.233   3

   0   0   0    0.00    0.00   0

TITL moa374 in P2(1)

REM P2(1) (#4 in standard setting)

CELL 0.71073   9.435894   6.737830  10.541430  90.0000  97.3515  90.0000

ZERR    2.00   0.000634   0.000448   0.000521   0.0000   0.0050   0.0000

LATT -1

SYMM -x, y+1/2,-z

SFAC C H N O S Cl Pt

UNIT 22.00 22.00 4.00 8.00 2.00 2.00 2.00

TREF

HKLF 4

END

;
_shelx_hkl_checksum              3481
loop_
_space_group_symop_operation_xyz
'x, y, z'
'-x, y+1/2, -z'
'-x, -y, -z'
'x, -y-1/2, z'
loop_
_atom_site_label
_atom_site_type_symbol
_atom_site_fract_x
_atom_site_fract_y
_atom_site_fract_z
_atom_site_U_iso_or_equiv
_atom_site_adp_type
_atom_site_occupancy
_atom_site_site_symmetry_order
_atom_site_calc_flag
_atom_site_refinement_flags_posn
_atom_site_refinement_flags_adp
_atom_site_refinement_flags_occupancy
Pt1 Pt 0.39713(4) 0.2500 0.73714(3) 0.01708(13) Uani 1 2 d S T P
Cl1 Cl 0.1606(3) 0.2500 0.7612(2) 0.0282(6) Uani 1 2 d S T P
S10 S 0.3476(3) 0.2500 0.52676(19) 0.0153(5) Uani 1 2 d S T P
C7 C 0.8339(12) 0.2500 0.8555(10) 0.029(3) Uani 1 2 d S T P
H7 H 0.8838 0.2500 0.7827 0.035 Uiso 1 2 calc R U P
O10 O 0.4709(7) 0.2500 0.4549(6) 0.0238(17) Uani 1 2 d S T P
O8 O 0.6106(7) 0.2500 0.7271(6) 0.0225(16) Uani 1 2 d S T P
O5A O 0.8860(9) 0.2500 1.3089(7) 0.034(2) Uani 1 2 d S T P
C11 C 0.2381(8) 0.0450(12) 0.4757(6) 0.0232(16) Uani 1 1 d . . .
H11A H 0.1550 0.0426 0.5228 0.035 Uiso 1 1 calc R U .
H11B H 0.2058 0.0568 0.3839 0.035 Uiso 1 1 calc R U .
H11C H 0.2928 -0.0780 0.4922 0.035 Uiso 1 1 calc R U .
N5 N 0.9350(11) 0.2500 1.2069(8) 0.029(2) Uani 1 2 d S T P
N1 N 0.4703(9) 0.2500 0.9290(7) 0.0208(18) Uani 1 2 d S T P
C10 C 0.6915(11) 0.2500 1.0789(9) 0.021(2) Uani 1 2 d S T P
C2 C 0.3940(13) 0.2500 1.0251(10) 0.025(2) Uani 1 2 d S T P
H2 H 0.2926 0.2500 1.0082 0.030 Uiso 1 2 calc R U P
C5 C 0.8414(12) 0.2500 1.0856(9) 0.026(2) Uani 1 2 d S T P
O5B O 1.0657(10) 0.2500 1.2030(8) 0.046(2) Uani 1 2 d S T P
C3 C 0.4599(13) 0.2500 1.1519(9) 0.026(2) Uani 1 2 d S T P
H3 H 0.4024 0.2500 1.2195 0.031 Uiso 1 2 calc R U P
C8 C 0.6869(11) 0.2500 0.8400(9) 0.022(2) Uani 1 2 d S T P
C9 C 0.6142(11) 0.2500 0.9526(8) 0.017(2) Uani 1 2 d S T P
C6 C 0.9087(12) 0.2500 0.9765(10) 0.028(2) Uani 1 2 d S T P
H6 H 1.0101 0.2500 0.9854 0.033 Uiso 1 2 calc R U P
C4 C 0.6046(12) 0.2500 1.1800(9) 0.023(2) Uani 1 2 d S T P
H4 H 0.6475 0.2500 1.2666 0.027 Uiso 1 2 calc R U P
loop_
_atom_site_aniso_label
_atom_site_aniso_U_11
_atom_site_aniso_U_22
_atom_site_aniso_U_33
_atom_site_aniso_U_23
_atom_site_aniso_U_13
_atom_site_aniso_U_12
Pt1 0.0197(2) 0.0207(2) 0.01052(18) 0.000 0.00087(12) 0.000
Cl1 0.0212(13) 0.0380(16) 0.0268(12) 0.000 0.0089(10) 0.000
S10 0.0145(11) 0.0214(12) 0.0102(9) 0.000 0.0019(8) 0.000
C7 0.023(6) 0.040(7) 0.025(5) 0.000 0.002(4) 0.000
O10 0.017(4) 0.038(5) 0.017(3) 0.000 0.004(3) 0.000
O8 0.014(4) 0.039(5) 0.016(3) 0.000 0.003(3) 0.000
O5A 0.045(5) 0.034(5) 0.020(4) 0.000 -0.004(3) 0.000
C11 0.019(4) 0.025(4) 0.023(3) -0.001(3) -0.007(3) -0.004(3)
N5 0.039(6) 0.020(5) 0.023(4) 0.000 -0.016(4) 0.000
N1 0.019(4) 0.023(5) 0.020(4) 0.000 0.003(3) 0.000
C10 0.025(6) 0.017(5) 0.021(5) 0.000 0.002(4) 0.000
C2 0.031(6) 0.018(5) 0.027(5) 0.000 0.007(4) 0.000
C5 0.030(6) 0.027(6) 0.019(5) 0.000 -0.005(4) 0.000
O5B 0.042(6) 0.060(7) 0.031(4) 0.000 -0.013(4) 0.000
C3 0.044(7) 0.026(6) 0.009(4) 0.000 0.012(4) 0.000
C8 0.019(5) 0.025(6) 0.020(4) 0.000 0.000(4) 0.000
C9 0.022(5) 0.014(5) 0.015(4) 0.000 0.004(4) 0.000
C6 0.019(6) 0.034(7) 0.032(5) 0.000 0.008(4) 0.000
C4 0.039(6) 0.016(5) 0.014(4) 0.000 0.007(4) 0.000
loop_
_atom_type_symbol
_atom_type_description
_atom_type_scat_dispersion_real
_atom_type_scat_dispersion_imag
_atom_type_scat_source
C C 0.0033 0.0016 'International Tables Vol C Tables 4.2.6.8 and 6.1.1.4'
H H 0.0000 0.0000 'International Tables Vol C Tables 4.2.6.8 and 6.1.1.4'
N N 0.0061 0.0033 'International Tables Vol C Tables 4.2.6.8 and 6.1.1.4'
O O 0.0106 0.0060 'International Tables Vol C Tables 4.2.6.8 and 6.1.1.4'
S S 0.1246 0.1234 'International Tables Vol C Tables 4.2.6.8 and 6.1.1.4'
Cl Cl 0.1484 0.1585 'International Tables Vol C Tables 4.2.6.8 and 6.1.1.4'
Pt Pt -1.7033 8.3905 'International Tables Vol C Tables 4.2.6.8 and 6.1.1.4'
loop_
_geom_angle_atom_site_label_1
_geom_angle_atom_site_label_2
_geom_angle_atom_site_label_3
_geom_angle
_geom_angle_site_symmetry_1
_geom_angle_site_symmetry_3
O8 Pt1 N1 80.8(3) . .
O8 Pt1 S10 91.81(19) . .
N1 Pt1 S10 172.6(2) . .
O8 Pt1 Cl1 176.63(19) . .
N1 Pt1 Cl1 95.8(2) . .
S10 Pt1 Cl1 91.56(9) . .
O10 S10 C11 108.3(3) . 4_565
O10 S10 C11 108.3(3) . .
C11 S10 C11 102.8(5) 4_565 .
O10 S10 Pt1 116.0(3) . .
C11 S10 Pt1 110.3(2) 4_565 .
C11 S10 Pt1 110.3(2) . .
C8 C7 C6 120.0(10) . .
C8 O8 Pt1 112.7(6) . .
O5A N5 O5B 121.2(9) . .
O5A N5 C5 121.1(10) . .
O5B N5 C5 117.7(9) . .
C2 N1 C9 119.7(9) . .
C2 N1 Pt1 127.6(7) . .
C9 N1 Pt1 112.6(6) . .
C5 C10 C4 129.3(9) . .
C5 C10 C9 115.8(9) . .
C4 C10 C9 114.9(9) . .
N1 C2 C3 121.0(11) . .
C6 C5 C10 121.6(9) . .
C6 C5 N5 116.0(10) . .
C10 C5 N5 122.4(9) . .
C4 C3 C2 121.3(9) . .
O8 C8 C7 122.4(9) . .
O8 C8 C9 118.9(9) . .
C7 C8 C9 118.7(9) . .
N1 C9 C10 123.5(9) . .
N1 C9 C8 114.9(8) . .
C10 C9 C8 121.6(9) . .
C7 C6 C5 122.4(10) . .
C3 C4 C10 119.7(9) . .
loop_
_geom_bond_atom_site_label_1
_geom_bond_atom_site_label_2
_geom_bond_distance
_geom_bond_site_symmetry_2
Pt1 O8 2.031(7) .
Pt1 N1 2.052(8) .
Pt1 S10 2.207(2) .
Pt1 Cl1 2.278(3) .
S10 O10 1.467(7) .
S10 C11 1.767(7) 4_565
S10 C11 1.767(7) .
C7 C8 1.376(15) .
C7 C6 1.377(15) .
O8 C8 1.309(11) .
O5A N5 1.224(12) .
N5 O5B 1.239(13) .
N5 C5 1.458(12) .
N1 C2 1.315(13) .
N1 C9 1.349(13) .
C10 C5 1.407(15) .
C10 C4 1.426(14) .
C10 C9 1.434(13) .
C2 C3 1.400(14) .
C5 C6 1.382(15) .
C3 C4 1.360(16) .
C8 C9 1.445(13) .
