#------------------------------------------------------------------------------
#$Date: 2019-11-23 14:16:59 +0200 (Sat, 23 Nov 2019) $
#$Revision: 233580 $
#$URL: file:///home/coder/svn-repositories/cod/cif/4/34/91/4349104.cif $
#------------------------------------------------------------------------------
#
# This file is available in the Crystallography Open Database (COD),
# http://www.crystallography.net/
#
# All data on this site have been placed in the public domain by the
# contributors.
#
data_4349104
loop_
_publ_author_name
'Valverde-Mu\~noz, Francisco Javier'
'Seredyuk, Maksym'
'Mu\~noz, M Carmen'
'Znovjyak, Kateryna'
'Fritsky, Igor O.'
'Real, Jos\'e Antonio'
_publ_section_title
;
 Strong Cooperative Spin Crossover in 2D and 3D
 Fe<sup>II</sup>-M<sup>I,II</sup> Hofmann-Like Coordination Polymers Based
 on 2-Fluoropyrazine.
;
_journal_issue                   20
_journal_name_full               'Inorganic chemistry'
_journal_page_first              10654
_journal_page_last               10665
_journal_paper_doi               10.1021/acs.inorgchem.6b01901
_journal_volume                  55
_journal_year                    2016
_chemical_formula_sum            'C12 H6 F2 Fe N8 Ni'
_chemical_formula_weight         414.81
_space_group_crystal_system      orthorhombic
_space_group_IT_number           53
_space_group_name_Hall           '-P 2ac 2'
_space_group_name_H-M_alt        'P m n a'
_atom_sites_solution_hydrogens   geom
_audit_creation_method           SHELXL-2014
_cell_angle_alpha                90
_cell_angle_beta                 90
_cell_angle_gamma                90
_cell_formula_units_Z            2
_cell_length_a                   7.2842(2)
_cell_length_b                   6.9449(2)
_cell_length_c                   14.4255(5)
_cell_measurement_reflns_used    1604
_cell_measurement_temperature    200(1)
_cell_measurement_theta_max      29.7220
_cell_measurement_theta_min      3.9670
_cell_volume                     729.76(4)
_computing_cell_refinement       'CrysAlisPro 2015'
_computing_data_collection       'CrysAlisPro 2015'
_computing_data_reduction        'CrysAlisPro 2015'
_computing_structure_refinement  'SHELXL-2014 (Sheldrick, 2014)'
_computing_structure_solution    'SHELXS-2014 (Sheldrick, 2014)'
_diffrn_ambient_temperature      200(1)
_diffrn_measured_fraction_theta_full 0.982
_diffrn_measured_fraction_theta_max 0.894
_diffrn_measurement_device_type  'SuperNova Sapphire3'
_diffrn_radiation_type           MoK\a
_diffrn_radiation_wavelength     0.71073
_diffrn_reflns_av_R_equivalents  0.0187
_diffrn_reflns_av_unetI/netI     0.0204
_diffrn_reflns_Laue_measured_fraction_full 0.982
_diffrn_reflns_Laue_measured_fraction_max 0.894
_diffrn_reflns_limit_h_max       8
_diffrn_reflns_limit_h_min       -10
_diffrn_reflns_limit_k_max       7
_diffrn_reflns_limit_k_min       -9
_diffrn_reflns_limit_l_max       20
_diffrn_reflns_limit_l_min       -15
_diffrn_reflns_number            3412
_diffrn_reflns_point_group_measured_fraction_full 0.982
_diffrn_reflns_point_group_measured_fraction_max 0.894
_diffrn_reflns_theta_full        25.000
_diffrn_reflns_theta_max         29.769
_diffrn_reflns_theta_min         2.824
_exptl_absorpt_coefficient_mu    2.319
_exptl_absorpt_correction_T_max  1.00000
_exptl_absorpt_correction_T_min  0.88714
_exptl_absorpt_correction_type   multi-scan
_exptl_absorpt_process_details   'CrysAlisPro 1.171.38.41q'
_exptl_crystal_colour            yellow
_exptl_crystal_density_diffrn    1.888
_exptl_crystal_description       prismatic
_exptl_crystal_F_000             412
_exptl_crystal_size_max          0.150
_exptl_crystal_size_mid          0.150
_exptl_crystal_size_min          0.120
_refine_diff_density_max         0.785
_refine_diff_density_min         -0.707
_refine_diff_density_rms         0.103
_refine_ls_extinction_method     none
_refine_ls_goodness_of_fit_ref   0.970
_refine_ls_hydrogen_treatment    constr
_refine_ls_matrix_type           full
_refine_ls_number_parameters     69
_refine_ls_number_reflns         1006
_refine_ls_number_restraints     0
_refine_ls_restrained_S_all      0.970
_refine_ls_R_factor_all          0.0551
_refine_ls_R_factor_gt           0.0482
_refine_ls_shift/su_max          0.000
_refine_ls_shift/su_mean         0.000
_refine_ls_structure_factor_coef Fsqd
_refine_ls_weighting_details
'w=1/[\s^2^(Fo^2^)+(0.0231P)^2^+6.0177P] where P=(Fo^2^+2Fc^2^)/3'
_refine_ls_weighting_scheme      calc
_refine_ls_wR_factor_gt          0.1022
_refine_ls_wR_factor_ref         0.1069
_reflns_Friedel_coverage         0.000
_reflns_number_gt                869
_reflns_number_total             1006
_reflns_threshold_expression     'I > 2\s(I)'
_cod_data_source_file            ic6b01901_si_002.cif
_cod_data_source_block           shelx
_cod_original_cell_volume        729.75(4)
_cod_database_code               4349104
_shelx_space_group_comment
;
CheckCIF analysis suggests possible pseudo/newspace group (alert B)
for FpzNi, however, no reasonable alternative solution to the
assigned Pmna space group was found. This space group is perfectly
consistent with that found for the isostructural homologues FpzPd
at 98.5 and 200 K) and FpzPt (at 120 K) for which reasonably good
solutions were found without this alert type.

The symmetry employed for this shelxl refinement is uniquely defined
by the following loop, which should always be used as a source of
symmetry information in preference to the above space-group names.
They are only intended as comments.
;
_shelx_estimated_absorpt_t_min   0.722
_shelx_estimated_absorpt_t_max   0.768
_shelxl_version_number           2014-1
_shelx_res_file
;
TITL in Pmna
CELL 0.71073  7.284153   6.944874  14.425544  90.0000  90.0000  90.0000
zerr 2  0.000244   0.000228   0.000491   0.0000   0.0000   0.0000
LATT   1
SYMM  1/2 - X, - Y, 1/2 + Z
SYMM    X, - Y, - Z
SYMM  1/2 - X,   Y, 1/2 - Z
SFAC  C    H    N    F    FE   NI
UNIT  24   12   16   4    2    2
MERG   2
FMAP   2
PLAN   25
bond
bond $H
omit -3 180
omit     4   1   3
omit     4   1   1
omit     2   1   5
omit     2   1   1
omit     4   3   0
omit     4   4   5
omit     2   1   0
omit     2   3   2
omit     2   1   3
omit     2   4   7
omit     2   2   7
omit     6   1   1
acta 50
L.S.   8
size 0.12 0.15 0.15
WGHT    0.023100    6.017700
FVAR       6.07091
NI    6    0.500000    0.500000    0.500000    10.25000    0.00924    0.00853 =
         0.02820   -0.00414    0.00000    0.00000
FE    5    0.000000    0.000000    0.500000    10.25000    0.01126    0.00843 =
         0.02278   -0.00356    0.00000    0.00000
N1    3    0.000000    0.133494    0.641331    10.50000    0.02009    0.01207 =
         0.02492   -0.00060    0.00000    0.00000
C5    1    0.320865    0.318908    0.472543    11.00000    0.01320    0.01343 =
         0.02271   -0.00232   -0.00023    0.00064
N2    3    0.207868    0.203954    0.461874    11.00000    0.01597    0.01562 =
         0.02859   -0.00329    0.00339   -0.00732
C1    1    0.000000    0.321667    0.653301    10.50000    0.05165    0.01310 =
         0.02326   -0.00374    0.00000    0.00000
AFIX  43
H1    2    0.000000    0.404594    0.602681    10.50000   -1.20000
AFIX   0
C2    1    0.000000    0.392871    0.742593    10.50000    0.11849    0.01740 =
         0.02372   -0.00773    0.00000    0.00000

N3    3    0.000000    0.295638    0.818255    10.50000    0.04992    0.02748 =
         0.02153   -0.00009    0.00000    0.00000
C3    1    0.000000    0.105891    0.805408    10.50000    0.07153    0.02927 =
         0.02314    0.00929    0.00000    0.00000
AFIX  43
H3    2    0.000000    0.024713    0.856681    10.50000   -1.20000
AFIX   0
C4    1    0.000000    0.027196    0.717750    10.50000    0.09334    0.01379 =
         0.03137    0.00744    0.00000    0.00000
AFIX  43
H4    2    0.000000   -0.106160    0.711887    10.50000   -1.20000
AFIX   0
F     4    0.000000    0.582849    0.753892    10.50000    0.36169    0.02037 =
         0.03428   -0.01033    0.00000    0.00000
HKLF    4

REM  in Pmna
REM R1 =  0.0482 for     869 Fo > 4sig(Fo)  and  0.0551 for all    1006 data
REM     69 parameters refined using      0 restraints

END

WGHT      0.0000      3.4163

REM Highest difference peak  0.785,  deepest hole -0.707,  1-sigma level  0.103
Q1    1  -0.0857  0.5845  0.7524  11.00000  0.05    0.79
Q2    1   0.0000  0.1106  0.6869  10.50000  0.05    0.39
Q3    1  -0.0625  0.3613  0.6973  11.00000  0.05    0.34
Q4    1   0.1203  0.1266  0.4698  11.00000  0.05    0.33
Q5    1   0.1882  0.2817  0.4583  11.00000  0.05    0.30
Q6    1   0.0000 -0.2338  0.8786  10.50000  0.05    0.30
Q7    1   0.5000  0.4974  0.5736  10.50000  0.05    0.29
Q8    1   0.2725  0.1811  0.4712  11.00000  0.05    0.28
Q9    1   0.2744  0.2385  0.5615  11.00000  0.05    0.28
Q10   1  -0.0871 -0.0655  0.7198  11.00000  0.05    0.27
Q11   1  -0.0875  0.2241  0.6334  11.00000  0.05    0.27
Q12   1   0.0000  0.2053  0.8089  10.50000  0.05    0.26
Q13   1   0.0000 -0.2431  0.6116  10.50000  0.05    0.25
Q14   1  -0.2237 -0.1231  0.7328  11.00000  0.05    0.24
Q15   1   0.0000  0.4940  0.7164  10.50000  0.05    0.24
Q16   1   0.0000  0.6673  0.7817  10.50000  0.05    0.24
Q17   1  -0.1699  0.0670  0.8941  11.00000  0.05    0.24
Q18   1   0.0240  0.2251  0.4163  11.00000  0.05    0.24
Q19   1   0.3888  0.4365  0.4660  11.00000  0.05    0.24
Q20   1   0.0000  0.6343  0.8696  10.50000  0.05    0.24
Q21   1   0.3986  0.3550  0.4929  11.00000  0.05    0.23
Q22   1  -0.0891  0.4427  0.6061  11.00000  0.05    0.22
Q23   1  -0.0849  0.4317  0.7600  11.00000  0.05    0.22
Q24   1  -0.1083  0.0446  0.8559  11.00000  0.05    0.22
Q25   1   0.5000  0.3309  0.4350  10.50000  0.05    0.22
;
_shelx_res_checksum              88151
_shelx_hkl_file
;
   0   0   2 161467. 1324.21   2
   0   0  -2 168690. 1329.15   2
   0   0  -3 24.3178 17.2579   1
   0   0   3 10.7585 38.2547   2
   0   0  -3 33.0530 46.9593   2
   0   0   4 974899. 4618.73   2
   0   0  -4 989999. 4543.94   2
   0   0  -5 88.9237 53.3916   2
   0   0  -5 80.5479 29.2441   1
   0   0   5 39.6214 51.3671   2
   0   0  -6 355873. 1589.78   1
   0   0   6 342090. 3369.41   2
   0   0   7 476.718 158.330   2
   0   0  -7 494.835 70.9440   1
   0   0  -8 208781. 1365.96   1
   0   0   8 207599. 3045.27   2
   0   0  -9 46.3927 40.9605   1
   0   0   9 23.0535 78.3888   2
   0   0  -9 78.5730 32.9951   1
   0   0 -10 12725.8 361.031   1
   0   0  10 12679.7 851.244   2
   0   0 -10 12229.0 423.646   1
   0   0 -11 260.290 57.3238   1
   0   0  11 332.474 169.279   2
   0   0 -11 206.586 64.5298   1
   0   0  12 44485.1 1782.99   2
   0   0 -12 40348.5 639.732   1
   0   0  13 540.274 236.087   2
   0   0  14 6901.98 780.264   2
   0   0  15 780.805 304.930   2
   0   0  16 14682.7 1230.09   2
   0   0  17-56.8400 121.939   2
   0   0  18 484.730 242.934   2
   0   0  19-272.885 219.211   2
   1   0   0 53.9869 22.9665   1
   1   0  -1 2207.78 114.016   1
   1   0   1 2313.13 140.155   1
  -1   0   1 2074.78 109.574   1
  -1   0  -1 2325.04 139.533   1
   1   0  -2 317.356 75.7522   2
  -1   0  -2 385.635 65.8510   1
   1   0  -2 374.116 43.5005   1
   1   0   2 353.228 61.5008   1
  -1   0   2 316.689 39.1567   1
  -1   0   3 15957.0 553.938   2
   1   0   3 15847.2 538.762   2
  -1   0  -3 15708.4 413.203   1
   1   0   3 16626.4 422.710   1
   1   0  -3 16248.2 566.413   2
  -1   0  -4 222.133 54.7093   1
  -1   0  -4 441.563 101.536   2
  -1   0   4 281.972 90.9069   2
   1   0   4 274.556 82.5538   2
   1   0  -4 353.479 100.321   2
   1   0  -5 28729.1 924.181   2
  -1   0  -5 29642.8 890.118   2
   1   0   5 30326.1 916.430   2
  -1   0   5 29094.0 921.794   2
  -1   0  -5 29826.9 637.348   1
   1   0   6 113.437 65.2416   2
  -1   0  -6 129.442 49.2554   1
  -1   0   6 101.940 70.7069   2
  -1   0   7 5118.07 461.407   2
  -1   0  -7 4578.28 276.143   1
   1   0   7 4996.25 446.691   2
  -1   0  -8 100.966 50.7841   1
   1   0   8 63.2338 71.4480   2
  -1   0   8 132.424 99.3788   2
  -1   0  -9 218.145 64.8817   1
  -1   0   9 205.690 110.965   2
   1   0   9 303.362 128.669   2
  -1   0 -10 571.913 105.970   1
  -1   0  10 604.360 197.412   2
   1   0  10 658.520 212.435   2
   1   0  11 25985.5 1309.68   2
  -1   0 -11 27504.1 738.133   1
  -1   0  11 26361.2 1315.15   2
  -1   0  12-95.4327 161.787   2
   1   0  12 12.0802 107.987   2
  -1   0 -12 39.5587 55.4824   1
   1   0  13 11097.4 953.278   2
  -1   0  13 10548.0 925.054   2
   1   0  14 290.288 167.565   2
  -1   0  14 259.190 125.359   2
   1   0  15 231.904 182.939   2
  -1   0  15 84.7913 142.957   2
  -1   0  16-312.943 202.766   2
   1   0  16-40.1885 177.330   2
  -1   0  17 1440.15 409.263   2
   1   0  17 1485.08 437.646   2
  -1   0  18 25.8580 171.502   2
   1   0  18 270.399 201.317   2
   1   0  19 2940.84 633.975   2
  -1   0  19 2728.19 625.437   2
   2   0   0 999999. 3820.70   1
  -2   0   0 986495. 3686.43   1
   2   0   1 7645.77 348.009   1
  -2   0  -1 7144.05 330.175   1
  -2   0   1 7796.17 314.786   1
   2   0  -1 7432.12 322.360   1
  -2   0   2 75628.6 925.586   1
   2   0  -2 74316.3 960.601   1
  -2   0  -2 77460.2 1129.00   1
   2   0   2 72696.5 1152.37   1
  -2   0   3 4037.83 202.515   1
  -2   0  -3 4080.81 271.289   1
   2   0   3 4086.17 274.961   1
   2   0  -3 4451.73 214.381   1
   2   0  -4 127707. 1057.67   1
  -2   0   4 127534. 1051.63   1
   2   0   4 129425. 1577.86   1
  -2   0  -4 127044. 1549.76   1
   2   0   5 8794.30 543.047   2
  -2   0   5 8591.61 256.729   1
  -2   0  -5 8875.10 426.370   1
  -2   0   6 171577. 1010.95   1
  -2   0  -6 169973. 1935.33   1
   2   0   6 171933. 2557.17   2
  -2   0  -7 4880.96 338.971   1
  -2   0   7 4364.55 447.755   2
   2   0   7 4718.66 449.585   2
  -2   0   8 187664. 3077.05   2
  -2   0  -8 186278. 2144.40   1
   2   0   8 190727. 3046.24   2
  -2   0  -9 5587.06 381.323   1
  -2   0   9 5501.74 562.678   2
   2   0   9 5865.52 568.933   2
  -2   0  10 79440.9 2223.10   2
  -2   0 -10 78973.1 1472.04   1
   2   0  10 81532.8 2229.82   2
  -2   0  11 3287.78 487.353   2
   2   0  11 3691.11 507.979   2
  -2   0 -11 4040.83 343.413   1
  -2   0 -12 119875. 1895.16   1
   2   0  12 120002. 3050.38   2
  -2   0  12 124656. 3066.45   2
  -2   0  13 2108.96 430.048   2
  -2   0 -13 2428.00 281.559   1
   2   0  13 1944.64 427.934   2
  -2   0  14 59959.4 2335.12   2
   2   0  14 62875.7 2408.29   2
   2   0  15 522.481 229.638   2
  -2   0  15 334.808 221.678   2
  -2   0  16 48372.3 2264.69   2
   2   0  16 49402.5 2333.44   2
   2   0  17-93.1616 140.935   2
  -2   0  17 156.907 184.459   2
   2   0  18 9630.66 1100.87   2
  -2   0  18 10582.0 1159.14   2
  -2   0  19 581.798 291.319   2
   2   0  19 287.647 228.264   2
  -3   0   0 65.6700 49.4965   1
  -3   0  -1 2168.62 224.849   1
  -3   0   1 2144.05 208.934   1
   3   0  -2 36.8427 21.4405   1
  -3   0  -2 78.1379 59.6113   1
  -3   0   2 126.128 53.9144   1
  -3   0  -3 2963.20 275.670   1
  -3   0   3 2800.94 221.404   1
   3   0  -3 3043.77 234.600   1
   3   0  -4 65.8930 44.0304   1
  -3   0  -4 64.4156 55.7525   1
  -3   0   4 15.8269 27.0489   1
  -3   0  -5 3844.13 329.981   1
  -3   0   5 3457.90 224.601   1
  -3   0   6 568.420 88.7716   1
  -3   0  -6 514.212 125.347   1
   3   0   6 482.819 156.202   2
  -3   0   7 12662.3 384.571   1
   3   0   7 12966.6 806.140   2
  -3   0  -7 13414.6 641.004   1
  -3   0   8 1014.30 96.9863   1
  -3   0  -8 869.754 170.396   1
   3   0   8 1228.31 264.043   2
  -3   0  -9 4661.12 395.773   1
   3   0   9 5213.27 566.224   2
   3   0  10 362.589 162.895   2
  -3   0 -10 243.749 92.7147   1
  -3   0 -11 10914.0 638.876   1
   3   0  11 11100.4 906.055   2
   3   0  12 114.625 102.610   2
  -3   0 -12 332.895 131.097   1
  -3   0 -13 9232.63 610.673   1
   3   0  13 9787.26 937.007   2
  -3   0 -14 10.3089 64.3126   1
   3   0  14-235.695 177.127   2
   3   0  15 703.305 324.496   2
   3   0  16-28.4802 157.246   2
   3   0  17 3160.48 628.285   2
   3   0  18 163.951 181.766   2
  -4   0   0 636024. 4223.75   1
  -4   0  -1 2698.18 296.774   1
  -4   0   1 2874.68 295.633   1
  -4   0  -2 74964.9 1540.39   1
  -4   0   2 74893.4 1382.43   1
  -4   0  -3 2624.45 304.247   1
  -4   0   3 2423.33 252.162   1
  -4   0   4 134851. 1757.95   1
  -4   0  -4 132162. 2142.00   1
  -4   0   5 2143.60 222.732   1
  -4   0  -5 2460.27 307.152   1
  -4   0   6 180845. 1944.78   1
  -4   0  -6 183344. 2605.11   1
   4   0   7 3786.82 481.433   2
  -4   0   7 4384.42 293.698   1
  -4   0  -7 3774.33 390.509   1
  -4   0  -8 77527.6 1767.44   1
   4   0   8 78938.3 2257.10   2
  -4   0   8 78312.2 1170.13   1
  -4   0  -9 5147.39 474.453   1
   4   0   9 5104.47 598.322   2
  -4   0   9 4878.47 268.581   1
  -4   0 -10 37929.1 1296.16   1
   4   0  10 37912.8 1691.83   2
   4   0  11 4157.96 588.592   2
  -4   0 -11 4318.30 449.108   1
   4   0  12 35780.4 1795.24   2
  -4   0 -12 34538.5 1277.36   1
   4   0  13 3413.08 588.766   2
  -4   0 -13 3693.35 436.439   1
  -4   0 -14 26910.5 1175.32   1
   4   0  14 26274.4 1661.89   2
   4   0  15 245.716 168.457   2
   4   0  16 18322.9 1509.15   2
   4   0  17 112.256 162.450   2
  -5   0   0 220.438 107.864   1
  -5   0   1 2133.19 277.805   1
  -5   0  -1 1693.60 262.680   1
  -5   0   2 15.6988 76.2823   1
  -5   0  -2 36.2400 58.2098   1
  -5   0   3 1603.76 233.487   1
  -5   0  -3 1358.60 253.216   1
  -5   0   4 14.9987 45.8343   1
  -5   0  -4 21.0792 49.1730   1
  -5   0  -5 5442.34 492.475   1
  -5   0   5 4229.67 355.625   1
  -5   0   6 228.774 88.7875   1
  -5   0  -6 177.675 92.9586   1
  -5   0   7 58.0939 40.2847   1
  -5   0  -7 151.394 99.4194   1
  -5   0   8 221.417 82.2366   1
  -5   0  -8 159.144 84.2396   1
   5   0   8 277.570 165.289   2
  -5   0  -9 899.526 215.538   1
   5   0   9 674.258 259.629   2
   5   0  10 208.249 162.947   2
  -5   0 -10 421.365 147.775   1
  -5   0 -11 16384.3 955.458   1
   5   0  11 15899.1 1227.80   2
  -5   0 -12 55.0175 100.647   1
   5   0  12 403.690 214.313   2
   5   0  13 1875.87 462.160   2
  -5   0 -13 2376.75 376.115   1
   5   0  14-443.978 246.917   2
  -5   0 -14-5.11311 75.4625   1
   5   0  15 282.694 215.061   2
  -5   0 -15 81.8330 78.8659   1
   5   0  16-256.549 210.396   2
  -6   0   0 255849. 3384.09   1
  -6   0   1 377.679 190.506   1
  -6   0  -1 649.483 220.024   1
  -6   0  -2 99295.9 2172.53   1
  -6   0   2 97431.9 2015.16   1
  -6   0  -3 282.421 169.305   1
  -6   0   3 400.565 153.975   1
  -6   0   4 81395.8 1788.77   1
  -6   0  -4 80245.5 2073.52   1
  -6   0   5 262.873 141.740   1
  -6   0  -5 442.854 206.134   1
  -6   0  -6 122211. 2605.63   1
  -6   0   6 122834. 2126.63   1
  -6   0   7 1466.00 242.720   1
  -6   0  -7 1015.74 272.188   1
  -6   0   8 50651.3 1313.57   1
  -6   0  -8 50147.0 1740.13   1
  -6   0  -9 505.941 204.775   1
   6   0   9 515.716 237.897   2
  -6   0 -10 30911.7 1405.04   1
   6   0  10 29029.3 1698.22   2
   6   0  11 3148.11 590.692   2
  -6   0 -11 2864.79 444.716   1
   6   0  12 19613.3 1492.94   2
  -6   0 -12 18608.1 1130.75   1
   6   0  13 835.719 290.296   2
  -6   0 -13 695.038 239.664   1
  -6   0 -14 16567.0 1089.76   1
   6   0  14 16385.4 1448.34   2
  -6   0 -15 180.822 182.058   1
  -7   0   0 1452.71 308.547   1
  -7   0   1 2911.30 403.614   1
  -7   0  -1 3769.69 455.144   1
  -7   0  -2 289.211 146.585   1
  -7   0   2 153.890 94.6847   1
  -7   0   3 6436.35 568.598   1
  -7   0  -3 7038.64 640.942   1
  -7   0   4 58.3387 103.200   1
  -7   0  -4 17.0332 95.3235   1
  -7   0   5 3767.34 424.921   1
  -7   0  -5 3447.10 464.168   1
  -7   0  -6 211.054 151.147   1
  -7   0   6 86.9244 60.8409   1
  -7   0  -7 1001.09 254.043   1
  -7   0   7 1276.08 251.597   1
  -7   0  -8 211.796 129.679   1
   7   0   9 414.837 211.253   2
  -7   0  -9 350.111 146.674   1
  -7   0 -10-103.748 148.905   1
   7   0  10 31.8396 230.662   2
  -7   0 -11 191.566 117.170   1
   7   0  11 1392.00 431.308   2
   7   0  12-134.635 168.914   2
  -7   0 -12-110.958 127.332   1
  -7   0 -13 3804.62 560.238   1
  -7   0 -14 74.6309 125.516   1
  -8   0   0 36691.2 1537.93   1
  -8   0   1 156.236 158.561   1
  -8   0  -1 308.829 163.031   1
  -8   0  -2 16535.0 1063.92   1
  -8   0   2 16505.3 1004.80   1
  -8   0   3 238.795 154.216   1
  -8   0  -3 219.439 129.637   1
  -8   0   4 14091.4 909.434   1
  -8   0  -4 14524.5 1025.25   1
  -8   0  -5 323.331 214.487   1
  -8   0   5 237.785 154.114   1
  -8   0   6 40491.2 1516.70   1
  -8   0  -6 41635.7 1788.26   1
  -8   0  -7 404.092 209.593   1
  -8   0  -8 33025.9 1635.78   1
   8   0   9 1375.90 445.727   2
  -8   0  -9 1165.34 323.107   1
  -8   0 -10 26244.0 1509.98   1
   8   0  10 23877.4 1788.37   2
  -9   0   0-151.522 179.977   1
  -9   0   1 3147.57 488.921   1
  -9   0  -1 3100.16 496.599   1
  -9   0   2 37.3155 83.5590   1
  -9   0  -2 152.870 141.534   1
  -9   0  -3 690.601 227.476   1
  -9   0   3 256.484 123.066   1
  -9   0   4 144.726 131.308   1
  -9   0  -4 153.426 143.728   1
  -9   0  -5-315.753 183.223   1
  -9   0   5 4.34298 75.0795   1
 -10   0   3 837.623 270.439   1
   0   1  -1 78092.8 910.934   1
   0   1   1 77653.7 894.512   2
   0  -1  -1 79656.0 891.864   2
   0  -1   1 78861.7 925.360   1
   0  -1  -1 77255.3 847.669   1
   0   1   1 79380.9 848.588   1
   0   1  -2 1565.39 137.931   1
   0  -1  -2 1573.66 156.872   2
   0   1  -2 1562.66 94.0627   2
   0   1   2 1738.53 167.381   2
   0  -1  -2 1656.55 124.137   1
   0  -1   2 1575.66 139.102   1
   0   1   2 1584.60 118.704   1
   0  -1   2 1685.70 102.413   2
   0  -1   3 63766.8 928.967   1
   0   1   3 62420.7 736.705   1
   0  -1   3 63442.8 844.382   2
   0   1   3 63081.5 1157.00   2
   0   1  -3 64189.3 820.204   2
   0  -1  -3 63937.0 1149.85   2
   0   1  -3 64325.4 913.545   1
   0  -1  -3 60987.7 760.411   1
   0  -1   4 50201.8 924.874   2
   0  -1   4 52268.1 883.180   1
   0   1  -4 52555.5 909.040   2
   0   1   4 52320.8 670.394   1
   0   1  -4 53015.8 874.482   1
   0  -1  -4 52678.0 699.734   1
   0  -1  -4 52836.8 1167.08   2
   0   1   4 52095.2 1182.99   2
   0  -1  -5 326053. 1783.16   1
   0  -1   5 321357. 2702.26   2
   0   1   5 321371. 3220.73   2
   0   1  -5 325375. 2599.65   2
   0   1  -5 325014. 2240.45   1
   0   1   5 326736. 1659.75   1
   0  -1  -6 17270.6 422.194   1
   0  -1   6 17387.0 703.317   2
   0   1   6 17338.1 396.038   1
   0   1   6 17654.3 821.967   2
   0   1  -6 17711.5 552.847   1
   0   1  -6 17413.0 676.842   2
   0  -1  -7 15539.2 412.968   1
   0  -1   7 15347.3 721.274   2
   0   1   7 15811.1 830.117   2
   0   1   7 16020.2 392.674   1
   0   1  -7 15828.2 531.597   1
   0   1   8 25078.7 500.331   1
   0   1  -8 25109.6 694.633   1
   0  -1   8 24144.7 985.741   2
   0   1   8 23486.1 1084.07   2
   0  -1  -8 23779.6 527.023   1
   0   1   9 37477.7 1449.12   2
   0  -1   9 39690.5 1349.56   2
   0  -1  -9 40001.9 697.309   1
   0   1  -9 39043.3 886.662   1
   0  -1 -10 8298.23 318.843   1
   0  -1  10 8247.19 660.799   2
   0   1 -10 8684.90 419.524   1
   0   1 -10 8462.80 356.617   1
   0   1  10 8927.85 751.830   2
   0   1 -11 14076.5 467.370   1
   0  -1  11 13823.4 899.472   2
   0   1  11 13167.7 958.063   2
   0   1 -11 12663.5 506.993   1
   0  -1 -11 13261.4 398.856   1
   0  -1  12 18273.1 1093.98   2
   0   1 -12 18524.9 533.281   1
   0   1  12 17981.8 1178.47   2
   0  -1  13 2999.27 464.166   2
   0   1  13 2266.06 437.378   2
   0  -1  14 8585.63 832.573   2
   0   1  14 8252.28 871.199   2
   0   1  15-127.732 203.952   2
   0  -1  15-34.9732 145.199   2
   0   1  16 669.606 293.261   2
   0  -1  16 901.376 282.731   2
   0   1  17 1147.05 370.323   2
   0  -1  17 1433.43 391.922   2
   0  -1  18 935.144 307.578   2
   0   1  18 407.492 257.971   2
   0   1  19-290.329 235.747   2
   0  -1  19-81.1883 147.970   2
   0  -1  20-280.734 214.321   2
  -1  -1   0-6.93471 24.3857   1
   1   1   0 25.1122 35.7918   1
  -1   1   0 11.8724 40.2261   1
   1   1   1 480618. 2355.25   1
  -1  -1   1 470589. 2317.56   1
  -1  -1  -1 458740. 2325.68   1
   1   1  -1 470499. 2247.07   1
  -1   1   1 466407. 2556.67   1
  -1  -1   2 4222.49 220.575   1
  -1  -1  -2 4394.29 235.927   1
  -1   1   2 3550.56 271.927   2
   1  -1  -2 4257.98 229.902   1
   1   1   2 4357.04 231.143   1
   1   1   2 4473.36 278.915   2
  -1   1   2 4317.49 229.800   1
   1  -1  -2 4038.10 283.269   2
   1   1  -2 4275.24 216.553   1
  -1   1   3 306682. 2722.28   2
   1   1  -3 298342. 2150.85   2
   1  -1  -3 308263. 2768.63   2
  -1  -1  -3 311763. 2033.81   1
  -1  -1  -3 314045. 2566.18   2
   1  -1  -3 323034. 1832.83   1
  -1   1   3 309980. 1734.27   1
   1   1  -3 311868. 1833.52   1
  -1  -1   3 309683. 1889.57   1
   1   1   3 308255. 1995.51   1
   1   1   3 305330. 2561.02   2
  -1   1   4 3399.01 164.403   1
  -1  -1  -4 3694.89 229.652   1
  -1   1   4 3444.62 319.180   2
   1  -1  -4 3455.36 319.610   2
   1  -1  -4 3559.30 182.001   1
  -1  -1   4 3351.62 198.191   1
   1  -1   4 3280.58 258.024   2
  -1  -1  -4 3481.37 300.287   2
   1   1   4 3479.76 305.274   2
   1   1   4 3381.69 216.931   1
  -1  -1   4 3395.84 255.480   2
   1   1  -4 3311.85 189.145   1
   1   1  -4 3195.58 253.525   2
  -1  -1   5 296008. 2673.24   2
  -1   1   5 292007. 1345.74   1
   1  -1  -5 295781. 1522.78   1
   1   1  -5 292541. 1767.22   1
   1   1   5 296324. 2093.74   1
  -1  -1   5 291684. 1906.81   1
   1   1   5 294609. 3095.37   2
  -1  -1  -5 291190. 2111.90   1
   1  -1   5 289518. 2651.54   2
  -1   1   5 288901. 3148.93   2
   1   1  -5 299688. 2709.63   2
   1   1   6 24426.0 628.639   1
   1   1  -6 25118.6 522.419   1
   1   1  -6 24404.9 858.497   2
  -1  -1   6 24033.2 849.645   2
   1  -1  -6 24030.9 393.382   1
  -1   1   6 24181.7 326.341   1
  -1  -1   6 24972.8 571.694   1
   1  -1   6 24540.9 853.697   2
   1   1   6 25540.0 981.347   2
  -1   1   6 24156.8 990.419   2
  -1  -1  -6 24481.6 632.896   1
   1   1   7 167862. 1710.66   1
  -1   1   7 165050. 2760.40   2
   1  -1   7 162542. 2399.59   2
  -1  -1   7 169303. 2450.14   2
   1   1   7 166960. 2723.57   2
  -1  -1  -7 167366. 1698.04   1
   1   1  -7 168311. 1363.95   1
  -1  -1  -8 3110.70 243.673   1
  -1  -1   8 3950.10 406.044   2
   1   1  -8 3357.72 190.751   1
   1   1   8 3424.66 417.665   2
  -1   1  -8 3493.02 262.059   1
   1  -1   8 3011.57 353.256   2
   1   1   8 3851.25 265.357   1
  -1   1   8 3206.87 410.041   2
   1   1   9 135780. 1599.63   1
   1  -1   9 137556. 2566.71   2
  -1  -1  -9 140499. 1652.99   1
   1   1  -9 140670. 1209.15   1
  -1   1  -9 134254. 1702.31   1
  -1   1   9 137788. 2833.55   2
  -1  -1   9 139293. 2555.21   2
   1   1   9 136520. 2803.62   2
  -1   1 -10 9308.05 459.261   1
   1   1 -10 9143.87 297.280   1
  -1  -1 -10 9467.85 443.969   1
   1   1 -10 9417.40 280.036   1
   1   1  10 10172.1 804.309   2
   1  -1  10 9708.76 727.145   2
  -1   1  10 9306.46 775.041   2
  -1  -1  10 9525.72 714.066   2
   1   1 -11 43460.4 585.536   1
   1   1  11 46417.0 1824.66   2
  -1   1 -11 46226.8 1047.15   1
  -1  -1 -11 45382.7 985.028   1
   1   1 -11 43380.0 564.810   1
  -1  -1  11 44990.7 1639.04   2
   1  -1  11 46534.9 1692.99   2
  -1   1  11 45722.2 1812.72   2
  -1  -1  12 10365.0 835.714   2
  -1   1 -12 10179.0 493.357   1
   1  -1  12 10666.5 857.873   2
  -1  -1 -12 10585.7 483.146   1
  -1   1  12 10826.7 917.700   2
   1   1  12 10237.0 900.575   2
   1   1  13 51641.8 2128.13   2
  -1  -1  13 52047.9 1955.81   2
  -1   1 -13 51377.5 1114.65   1
  -1   1  13 53057.7 2133.26   2
   1  -1  13 51137.7 1979.79   2
   1   1  14 3986.73 614.531   2
  -1   1  14 4515.40 653.293   2
   1  -1  14 5316.63 664.015   2
  -1  -1  14 4306.66 589.646   2
   1   1  15 24100.3 1581.02   2
  -1  -1  15 27936.0 1572.46   2
  -1   1  15 26999.1 1657.96   2
   1  -1  15 23689.4 1466.80   2
   1  -1  16 1127.05 343.327   2
   1   1  16 859.254 328.261   2
  -1  -1  16 678.271 266.734   2
  -1   1  16 1028.23 346.165   2
  -1  -1  17 14496.3 1239.43   2
  -1   1  17 13483.6 1279.09   2
   1  -1  17 14589.1 1244.39   2
   1   1  17 12958.0 1269.67   2
   1   1  18 362.537 243.314   2
   1  -1  18 479.522 270.747   2
  -1  -1  18 909.673 330.517   2
  -1   1  18 940.772 340.734   2
   1  -1  19 9288.54 1076.48   2
  -1  -1  19 6869.15 922.665   2
   2   1   0 3071.13 221.723   1
  -2  -1   0 3072.83 225.915   1
  -2  -1  -1 196850. 1844.79   1
  -2  -1   1 193843. 1754.07   1
   2   1   1 198050. 1837.47   1
   2   1  -1 199762. 1743.20   1
   2   1   2 257.798 75.2028   1
   2   1  -2 236.951 61.9605   1
  -2  -1   2 233.602 64.2872   1
  -2  -1  -2 217.984 74.2988   1
   2   1   3 47373.3 954.607   1
  -2  -1   3 47421.6 841.131   1
  -2  -1  -3 47009.1 955.787   1
   2   1  -3 47508.3 808.514   1
   2   1  -4 20211.2 516.897   1
  -2  -1   4 19268.3 541.379   1
   2   1   4 20061.6 798.250   2
  -2   1   4 19334.6 551.981   1
  -2  -1  -4 19870.7 636.470   1
   2   1  -4 20230.9 752.565   2
  -2  -1  -5 6612.24 379.667   1
  -2   1   5 5898.83 226.858   1
   2   1   5 6673.66 494.550   2
  -2  -1   5 6592.55 311.436   1
   2   1  -5 6196.37 274.359   1
  -2   1   5 5802.20 277.347   1
  -2  -1   6 10409.5 383.277   1
  -2   1   6 10399.1 689.970   2
  -2   1   6 9918.79 267.083   1
  -2   1   6 10533.8 313.994   1
  -2  -1  -6 11403.2 514.645   1
  -2   1  -6 9997.17 483.032   1
   2   1   6 11405.6 693.017   2
   2   1  -6 11556.3 363.854   1
   2  -1   6 9911.21 592.771   2
  -2  -1  -7 83502.6 1413.44   1
  -2   1   7 86798.2 2091.98   2
  -2   1  -7 87689.7 1463.63   1
  -2  -1   7 84492.3 1063.64   1
   2  -1   7 85473.1 1853.74   2
   2   1   7 79887.2 1927.72   2
   2   1  -7 83351.9 932.065   1
   2   1   8 6083.13 567.396   2
  -2  -1   8 5366.91 261.407   1
   2   1  -8 5641.84 227.432   1
  -2   1  -8 5408.87 375.758   1
  -2   1   8 5649.44 565.346   2
   2  -1   8 5223.05 483.006   2
  -2  -1  -8 5445.59 372.321   1
  -2  -1   8 5316.10 492.598   2
   2  -1   9 15477.3 895.307   2
   2   1  -9 17530.0 354.968   1
  -2  -1   9 17058.6 933.381   2
   2   1   9 16493.9 991.122   2
  -2  -1  -9 16727.7 670.360   1
  -2   1  -9 16299.8 678.939   1
  -2   1   9 15049.3 961.818   2
  -2   1  10 6368.09 658.333   2
  -2  -1 -10 6882.86 444.208   1
   2  -1  10 5828.27 581.856   2
  -2  -1  10 7708.18 663.346   2
  -2   1 -10 7169.46 459.327   1
   2   1  10 7170.18 692.407   2
  -2   1 -11 3254.28 323.990   1
  -2  -1  11 2930.36 434.105   2
   2  -1  11 3174.89 457.218   2
  -2   1  11 3528.12 507.060   2
   2   1  11 2242.62 408.043   2
  -2  -1 -11 3264.64 316.197   1
  -2   1  12 8315.44 823.645   2
  -2  -1  12 7997.45 748.187   2
  -2  -1 -12 8633.92 522.112   1
  -2   1 -12 8991.49 534.195   1
   2  -1  12 8047.31 761.579   2
   2   1  12 7993.51 810.860   2
  -2  -1  13 950.859 274.715   2
  -2   1 -13 671.797 153.203   1
   2  -1  13 688.427 242.656   2
  -2   1  13 590.730 225.140   2
   2   1  13 773.335 277.207   2
  -2  -1 -13 735.202 157.596   1
  -2  -1  14 4728.34 630.988   2
   2   1  14 4816.53 694.755   2
   2  -1  14 4364.72 624.412   2
  -2   1  14 4855.27 688.935   2
   2  -1  15-0.40504 188.777   2
  -2  -1  15 60.2662 124.056   2
   2   1  15 48.5519 126.198   2
   2   1  16 827.915 315.248   2
   2  -1  16 1043.45 322.404   2
  -2   1  16 443.151 216.639   2
  -2  -1  16 958.503 332.431   2
  -2  -1  17 57.5262 113.240   2
   2  -1  17 131.956 237.644   2
   2   1  17-98.1918 153.297   2
  -2   1  17-162.960 175.430   2
  -2  -1  18 148.205 169.266   2
  -2   1  18 111.384 153.220   2
   2  -1  18 383.712 234.084   2
   2   1  18-205.768 189.661   2
   2  -1  19 2740.82 592.093   2
  -2  -1  19 2204.82 525.130   2
  -3   1   0 303.999 103.289   1
  -3  -1   0 232.725 102.402   1
  -3   1  -1 156382. 1894.77   1
  -3  -1   1 156390. 1870.02   1
  -3   1   1 163005. 1803.03   1
  -3  -1  -1 153984. 1933.73   1
  -3  -1  -2 4675.41 345.697   1
  -3   1   2 4137.57 283.381   1
  -3   1  -2 4232.68 323.428   1
  -3  -1   2 5002.30 332.032   1
  -3  -1  -3 117798. 1754.80   1
  -3  -1   3 117474. 1562.12   1
  -3   1  -3 118107. 1764.52   1
  -3   1   3 119163. 1464.29   1
   3   1  -4 3348.71 258.548   1
  -3   1  -4 3701.81 325.101   1
  -3  -1  -4 3455.27 311.574   1
  -3  -1   4 3840.63 276.252   1
  -3   1   4 4414.82 274.559   1
   3   1   5 137262. 2444.43   2
   3   1  -5 137702. 1580.40   1
  -3   1   5 137484. 1452.78   1
  -3  -1  -5 137724. 1985.94   1
  -3  -1   5 138436. 1652.48   1
  -3   1  -5 137007. 1980.52   1
  -3   1  -6 9910.03 560.482   1
  -3  -1   6 10511.6 446.685   1
   3   1  -6 10239.4 413.167   1
   3   1   6 10767.0 721.771   2
  -3   1   6 9884.44 453.462   1
  -3   1   6 9642.87 357.192   1
  -3  -1  -6 10439.4 565.543   1
  -3  -1   7 124702. 1511.69   1
  -3   1   7 122347. 1416.26   1
  -3   1  -7 125790. 2031.63   1
   3   1  -7 122598. 1377.66   1
  -3  -1  -7 126006. 1982.52   1
  -3   1   7 123748. 1161.38   1
   3   1   7 124704. 2575.21   2
   3  -1   7 123106. 2426.92   2
  -3  -1   8 1346.02 154.734   1
   3   1   8 1066.07 259.695   2
  -3   1  -8 1714.56 245.076   1
   3  -1   8 1397.11 273.439   2
  -3  -1  -8 1365.51 218.076   1
   3   1  -8 1320.01 136.623   1
  -3   1   8 1425.72 123.057   1
  -3   1   8 1269.24 104.380   1
  -3  -1   9 103245. 1220.28   1
   3  -1   9 103672. 2462.93   2
   3   1   9 105448. 2624.96   2
  -3  -1  -9 105096. 1926.98   1
  -3   1  -9 107592. 1955.31   1
   3   1  -9 103040. 1098.35   1
   3   1  10 1244.55 315.800   2
  -3   1 -10 1503.28 245.798   1
   3  -1  10 1207.43 291.158   2
  -3  -1 -10 1574.78 247.225   1
  -3  -1  10 1158.42 109.264   1
   3   1  11 56125.3 2106.16   2
  -3  -1 -11 55278.6 1462.14   1
   3  -1  11 53239.5 1940.11   2
  -3   1 -11 52602.3 1428.99   1
   3  -1  12 17719.5 1169.61   2
  -3  -1 -12 18843.7 869.998   1
   3   1  12 19868.4 1311.42   2
  -3   1 -12 17670.5 850.541   1
   3  -1  13 51477.2 2105.73   2
   3   1  13 55924.3 2300.05   2
  -3  -1 -13 54903.2 1510.64   1
  -3   1 -13 53931.9 1510.44   1
   3  -1  14-16.8951 136.761   2
   3   1  14 183.147 149.227   2
  -3   1 -14 73.4768 87.2609   1
  -3  -1 -14 136.166 128.846   1
   3  -1  15 34794.1 1876.15   2
   3   1  15 34001.0 1947.28   2
   3  -1  16 43.7853 122.645   2
   3   1  16 463.709 251.476   2
   3  -1  17 17847.6 1462.21   2
   3   1  17 17791.7 1530.69   2
   3  -1  18 2173.17 534.422   2
  -4  -1   0 3790.54 339.955   1
  -4   1   0 3264.69 315.843   1
  -4  -1  -1 60371.4 1359.59   1
  -4  -1   1 58797.9 1324.17   1
  -4   1  -1 50294.6 1249.93   1
  -4  -1   2 526.152 153.814   1
  -4   1   2 900.892 159.999   1
  -4   1  -2 977.365 180.129   1
  -4  -1  -2 544.963 140.785   1
  -4   1   3 11616.3 539.349   1
  -4   1  -3 10820.9 603.426   1
  -4  -1   3 12331.8 579.969   1
  -4  -1  -3 12933.6 654.959   1
  -4  -1   4 843.833 152.340   1
  -4   1   4 718.459 147.678   1
  -4   1  -4 860.595 171.612   1
  -4  -1  -4 914.272 189.366   1
  -4  -1  -5 17524.6 796.133   1
  -4   1   5 21209.4 685.613   1
  -4   1  -5 21540.0 888.883   1
  -4  -1   5 17949.6 689.544   1
   4   1   6 807.716 234.911   2
  -4   1  -6 389.884 127.530   1
  -4   1   6 234.563 78.2843   1
  -4  -1   6 608.923 124.671   1
  -4  -1  -6 515.438 140.365   1
  -4  -1  -7 1685.21 258.428   1
  -4   1   7 1973.55 190.759   1
  -4   1  -7 2658.90 336.509   1
   4   1   7 1678.92 320.815   2
  -4  -1   7 1797.99 211.081   1
   4   1   8 626.766 196.715   2
  -4   1   8 562.119 91.8333   1
  -4  -1   8 806.715 137.403   1
  -4  -1  -8 546.624 164.837   1
   4  -1   8 424.592 174.637   2
  -4   1  -8 560.850 146.851   1
  -4   1  -9 850.901 203.605   1
  -4   1   9 947.474 112.404   1
   4   1   9 969.751 289.537   2
  -4  -1   9 1135.22 158.780   1
  -4  -1  -9 1172.17 241.845   1
   4  -1   9 1212.94 287.116   2
  -4  -1 -10 249.040 125.042   1
   4   1  10 222.426 139.264   2
   4  -1  10 288.317 179.872   2
  -4   1 -10 401.375 139.452   1
  -4  -1 -11 1453.29 266.709   1
   4  -1  11 1022.82 302.133   2
  -4   1 -11 1377.59 270.775   1
   4   1  11 1432.82 351.217   2
  -4  -1 -12 3278.42 404.326   1
   4  -1  12 2936.31 507.443   2
   4   1  12 3558.29 586.130   2
  -4   1 -12 3928.22 439.332   1
  -4  -1 -13 19.4795 94.5998   1
   4   1  13 177.417 171.554   2
  -4   1 -13 198.108 108.107   1
   4  -1  13 125.207 145.081   2
  -4  -1 -14 702.524 178.217   1
   4  -1  14 796.568 284.814   2
   4   1  14 452.112 227.537   2
  -4   1 -14 284.729 105.928   1
   4  -1  15 144.383 179.330   2
   4   1  15 11.1747 114.428   2
   4  -1  16-54.4448 181.239   2
   4   1  16-26.9523 127.272   2
   4   1  17 1232.16 450.759   2
   4  -1  17 958.414 361.359   2
  -5  -1   0 722.263 221.375   1
  -5   1   0 541.589 173.992   1
  -5  -1  -1 182287. 2674.72   1
  -5   1   1 183958. 2552.95   1
  -5  -1   1 177121. 2604.15   1
  -5   1  -1 183849. 2699.60   1
  -5  -1   2 841.597 200.860   1
  -5  -1  -2 680.833 209.459   1
  -5   1   2 654.123 170.970   1
  -5   1  -2 684.783 191.688   1
  -5  -1  -3 134365. 2378.16   1
  -5   1  -3 130674. 2380.18   1
  -5   1   3 136278. 2113.73   1
  -5  -1   3 135641. 2185.73   1
  -5  -1  -4 630.399 178.410   1
  -5   1   4 952.468 188.583   1
  -5  -1   4 918.417 190.911   1
  -5   1  -4 811.880 209.587   1
  -5   1   5 110049. 1800.72   1
  -5  -1  -5 113035. 2237.47   1
  -5   1  -5 110571. 2271.30   1
  -5  -1   5 110450. 1928.54   1
  -5   1  -6 9686.43 677.454   1
  -5   1   6 9444.45 515.078   1
  -5  -1   6 9689.94 565.440   1
  -5  -1  -6 9059.66 655.247   1
  -5   1  -7 91128.7 2105.51   1
  -5  -1   7 90313.2 1700.85   1
   5   1   7 94515.8 2613.10   2
  -5   1   7 90706.8 1523.66   1
  -5  -1  -7 87985.3 2089.41   1
   5   1   8 425.660 221.834   2
  -5   1   8 248.513 90.5295   1
  -5  -1  -8 556.730 199.053   1
  -5   1  -8 519.682 182.607   1
  -5  -1   8 429.630 130.981   1
   5   1   9 56399.5 2157.07   2
  -5  -1   9 54803.2 1266.78   1
  -5   1  -9 55562.6 1702.50   1
   5  -1   9 52926.9 2043.75   2
  -5  -1  -9 55167.7 1702.68   1
  -5  -1 -10 3210.30 424.768   1
   5   1  10 2463.80 493.071   2
   5  -1  10 2282.25 446.028   2
  -5   1 -10 1832.76 355.132   1
   5   1  11 25645.7 1579.25   2
  -5  -1 -11 26896.3 1248.90   1
  -5   1 -11 28153.9 1261.99   1
   5  -1  11 27972.4 1577.19   2
  -5  -1 -12 2649.44 410.320   1
   5   1  12 3265.91 594.788   2
   5  -1  12 2256.00 483.286   2
  -5   1 -12 2660.76 392.752   1
   5   1  13 22375.5 1587.46   2
  -5   1 -13 20906.6 1126.88   1
   5  -1  13 21000.7 1467.58   2
  -5  -1 -13 21225.7 1147.44   1
  -5  -1 -14 3158.00 451.771   1
  -5   1 -14 2664.53 430.550   1
   5  -1  14 2208.35 495.658   2
   5   1  14 3608.89 686.386   2
   5  -1  15 15348.5 1360.18   2
   5   1  15 15024.8 1385.97   2
  -5   1 -15 14584.0 964.978   1
   5  -1  16 2081.25 503.272   2
  -6  -1   0 350.437 137.307   1
  -6   1   0 472.622 159.768   1
  -6   1  -1 11480.5 752.666   1
  -6   1   1 12264.3 725.385   1
  -6  -1  -1 13928.7 812.971   1
  -6  -1   1 13741.9 781.610   1
  -6  -1   2 3836.98 415.754   1
  -6  -1  -2 3786.99 435.445   1
  -6   1   2 4040.94 417.484   1
  -6   1  -2 4417.36 469.108   1
  -6   1  -3 3234.17 413.802   1
  -6   1   3 3589.61 379.324   1
  -6  -1   3 4168.89 421.496   1
  -6  -1  -3 4056.25 449.010   1
  -6   1   4 1511.21 257.727   1
  -6  -1   4 1663.18 274.442   1
  -6  -1  -4 2109.97 340.442   1
  -6   1  -4 1621.29 294.154   1
  -6  -1   5 9190.87 618.314   1
  -6   1   5 8587.58 565.257   1
  -6  -1  -5 7934.22 655.867   1
  -6   1  -5 8736.72 686.840   1
  -6   1  -6 428.525 153.738   1
  -6  -1  -6 850.894 242.979   1
  -6  -1   6 695.806 172.240   1
  -6   1   6 552.021 144.521   1
  -6   1  -7 907.143 239.449   1
  -6   1   7 799.216 163.626   1
  -6  -1  -7 1175.19 243.688   1
  -6  -1   7 681.428 174.751   1
  -6  -1  -8 315.942 170.004   1
  -6   1  -8 185.028 112.876   1
  -6  -1   8 85.5543 77.7898   1
   6   1   8 15.1838 91.5125   2
  -6   1  -9 1021.16 259.041   1
   6  -1   9 890.595 300.938   2
   6   1   9 308.121 218.227   2
  -6  -1  -9 632.134 204.251   1
   6  -1  10 425.373 244.189   2
  -6  -1 -10 268.671 183.883   1
   6   1  10 244.651 215.741   2
  -6   1 -10 301.876 150.139   1
  -6   1 -11 3371.36 476.734   1
   6  -1  11 3766.99 620.678   2
  -6  -1 -11 2854.94 447.040   1
   6   1  11 2581.77 544.613   2
  -6  -1 -12 162.534 129.025   1
   6   1  12 473.160 301.108   2
   6  -1  12 307.582 185.646   2
  -6   1 -12 209.404 143.475   1
  -6  -1 -13 231.780 147.275   1
  -6   1 -13 312.149 153.562   1
   6  -1  13 456.318 281.316   2
   6   1  13 215.481 229.247   2
   6  -1  14 484.058 288.003   2
  -6   1 -14 744.645 217.478   1
   6   1  14 630.783 328.737   2
  -6  -1 -14 729.066 202.336   1
  -6   1 -15 119.931 182.624   1
   6  -1  15 145.286 183.115   2
  -6  -1 -15 126.062 149.748   1
  -7   1   0 90.2434 161.040   1
  -7  -1   0 167.482 199.600   1
  -7   1   1 61892.6 1797.71   1
  -7  -1  -1 59433.1 1906.39   1
  -7  -1   1 59952.3 1822.73   1
  -7   1  -1 64523.6 1901.05   1
  -7   1   2 1979.18 324.718   1
  -7   1  -2 2030.61 347.834   1
  -7  -1   2 2805.51 407.426   1
  -7  -1  -2 2319.57 391.294   1
  -7   1   3 48929.8 1563.84   1
  -7  -1   3 47713.3 1613.26   1
  -7   1  -3 52707.7 1777.79   1
  -7  -1  -3 49865.4 1752.93   1
  -7  -1  -4 1852.96 344.067   1
  -7   1  -4 2557.93 405.820   1
  -7  -1   4 2798.38 390.831   1
  -7   1   4 3013.49 386.408   1
  -7   1   5 47122.9 1473.27   1
  -7   1  -5 48308.0 1743.29   1
  -7  -1  -5 46986.7 1758.24   1
  -7  -1   5 46849.9 1566.75   1
  -7  -1  -6 506.445 230.385   1
  -7  -1   6 287.341 163.146   1
  -7   1  -6 333.914 198.596   1
  -7   1   6 322.023 127.826   1
  -7   1  -7 49194.8 1823.31   1
  -7  -1   7 49475.8 1560.79   1
  -7   1   7 50026.9 1460.35   1
  -7  -1  -7 49444.1 1861.57   1
  -7   1  -8 4203.89 544.576   1
  -7  -1  -8 3458.60 510.159   1
   7   1   8 3282.67 604.931   2
  -7  -1  -9 36030.1 1655.41   1
   7   1   9 35815.1 1995.71   2
  -7   1  -9 34615.3 1577.10   1
  -7   1 -10 2144.01 419.223   1
  -7  -1 -10 2748.49 465.193   1
   7   1  10 1967.73 487.532   2
   7  -1  10 2330.95 552.373   2
   7  -1  11 27079.0 1798.98   2
  -7   1 -11 23563.7 1350.94   1
  -7  -1 -11 25450.6 1432.90   1
   7   1  11 24641.8 1753.75   2
  -7  -1 -12 1603.28 358.181   1
   7  -1  12 2124.76 555.309   2
   7   1  12 2158.16 562.661   2
  -7   1 -12 1458.69 368.606   1
  -7   1 -13 21466.8 1326.94   1
  -7  -1 -13 20467.2 1325.39   1
  -7   1 -14 468.158 239.973   1
  -7  -1 -14 708.193 254.702   1
  -8  -1   0 155.852 85.2841   1
  -8   1   0 48.8311 85.5097   1
  -8   1   1 3739.17 478.394   1
  -8  -1   1 4572.77 571.832   1
  -8   1  -1 3493.65 539.299   1
  -8  -1   2 310.100 128.002   1
  -8  -1  -2 473.319 221.911   1
  -8   1   2 338.056 153.090   1
  -8   1  -2 458.835 167.640   1
  -8  -1   3 2337.47 390.289   1
  -8  -1  -3 1992.28 419.572   1
  -8   1   3 2675.56 402.389   1
  -8   1  -3 3310.24 487.975   1
  -8  -1   4 144.533 103.321   1
  -8   1   4 69.0365 115.069   1
  -8  -1  -4 169.460 126.574   1
  -8  -1   5 567.377 183.752   1
  -8  -1  -5 669.264 242.842   1
  -8   1   5 1051.27 241.574   1
  -8   1  -5 974.866 265.428   1
  -8  -1   6 41.6983 82.3545   1
  -8  -1  -6 95.3535 155.825   1
  -8   1   6-19.1828 124.225   1
  -8   1  -6 153.733 111.466   1
  -8  -1  -7 5945.00 705.541   1
  -8   1  -7 5188.24 639.835   1
  -8  -1  -8 110.881 120.325   1
   8   1   8-109.036 200.083   2
  -8   1  -8-189.289 133.661   1
  -8  -1  -9 4242.48 612.219   1
  -8   1  -9 4165.68 600.066   1
   8   1   9 4345.95 739.554   2
  -8   1 -10 117.981 132.711   1
  -8  -1 -10 173.766 131.924   1
   8  -1  10 380.807 248.098   2
  -9  -1   0 639.328 236.417   1
  -9   1   0 401.024 211.954   1
  -9  -1  -1 38111.9 1754.54   1
  -9  -1   1 36471.7 1685.92   1
  -9   1   1 35934.5 1630.72   1
  -9   1  -1 35454.2 1668.35   1
  -9   1   2 544.421 207.469   1
  -9  -1  -2 257.057 200.582   1
  -9  -1   2 241.746 241.408   1
  -9   1  -2 498.179 224.938   1
  -9   1   3 26788.6 1365.42   1
  -9  -1   3 29519.8 1494.07   1
  -9   1  -3 30068.5 1565.86   1
  -9  -1  -3 28980.2 1587.23   1
  -9  -1   4 2006.74 393.402   1
  -9   1  -4 1785.74 406.632   1
  -9  -1  -4 2662.79 498.736   1
  -9   1   4 1536.27 356.265   1
  -9  -1   5 25787.3 1376.70   1
  -9  -1  -5 26009.5 1543.60   1
  -9   1  -5 26225.9 1489.58   1
   0   2   0 78860.8 1238.70   1
   0  -2   0 77884.4 860.909   2
   0   2   0 79237.0 862.832   2
   0  -2   0 79637.9 1271.61   1
   0  -2  -1 15610.7 481.018   2
   0   2   1 16128.1 489.964   2
   0   2   1 15905.2 548.125   1
   0  -2   1 15092.0 566.427   1
   0  -2  -1 15409.5 546.341   1
   0   2  -1 15585.8 559.443   1
   0   2  -2 12298.1 508.808   1
   0   2   2 12500.2 480.151   1
   0   2   2 11719.6 493.227   2
   0  -2  -2 12224.5 489.260   1
   0  -2  -2 12898.7 511.548   2
   0  -2   2 12330.7 524.776   1
   0  -2  -3 7587.27 377.912   1
   0   2   3 7761.31 371.722   1
   0  -2  -3 7434.11 432.224   2
   0   2   3 7723.66 449.467   2
   0  -2   3 7460.49 419.182   1
   0  -2   3 7425.67 222.256   2
   0   2  -3 7213.34 403.355   1
   0  -2  -4 265312. 2242.00   1
   0   2   4 267187. 2882.67   2
   0  -2   4 265428. 1787.55   2
   0   2   4 264083. 2139.75   1
   0  -2   4 260137. 2560.79   1
   0   2  -4 264608. 2496.69   1
   0   2   5 554.861 98.8391   1
   0  -2  -5 432.877 90.7021   1
   0   2  -5 478.651 88.6089   2
   0   2  -5 553.970 123.373   1
   0   2   5 563.415 150.537   2
   0  -2   5 442.790 97.3360   2
   0  -2   5 554.883 126.335   1
   0  -2  -6 31085.6 767.799   1
   0  -2   6 30880.0 845.376   2
   0   2  -6 32121.8 818.407   2
   0   2   6 30436.2 710.641   1
   0   2   6 30953.0 1156.29   2
   0  -2   6 31057.9 928.881   1
   0   2  -6 29559.7 871.393   1
   0  -2  -7 3645.41 274.358   1
   0   2   7 3932.93 441.291   2
   0   2   7 3961.91 256.925   1
   0   2  -7 4363.52 340.829   2
   0  -2   7 4223.04 356.167   2
   0  -2   8 228637. 2810.46   2
   0  -2  -8 227931. 2114.05   1
   0   2   8 225544. 3553.20   2
   0   2   8 227774. 1915.93   1
   0  -2  -9 3117.41 247.910   1
   0  -2   9 3148.02 358.359   2
   0   2   9 3252.63 232.121   1
   0   2   9 2964.80 440.467   2
   0  -2 -10 123308. 1567.26   1
   0   2  10 119201. 2867.82   2
   0   2  10 123012. 1410.51   1
   0  -2  10 127302. 2446.02   2
   0  -2 -11 1196.59 157.058   1
   0   2  11 1387.95 333.366   2
   0  -2  11 1387.73 285.332   2
   0  -2  12 82417.1 2232.01   2
   0   2  12 83085.1 2612.01   2
   0  -2  13 283.648 173.300   2
   0   2  13 319.932 208.678   2
   0  -2  14 72623.8 2339.32   2
   0   2  14 71839.8 2683.99   2
   0   2  15 290.871 180.723   2
   0  -2  15 407.982 193.941   2
   0   2  16 34112.5 2024.16   2
   0  -2  16 37075.7 1825.49   2
   0  -2  17 1561.03 415.572   2
   0   2  17 1648.45 492.237   2
   0   2  18 18111.5 1601.33   2
   0  -2  18 20353.7 1477.62   2
   1   2   0 1.06730 31.5379   1
   1   2   0 20.6354 16.5075   2
  -1  -2   0 84.8680 50.6967   1
  -1   2   0 40.2344 48.0250   1
   1   2   1 553.388 98.8628   2
  -1   2   1 885.271 140.898   1
   1   2  -1 825.675 128.732   1
   1  -2  -1 1044.80 144.307   2
  -1  -2  -1 896.924 137.939   1
   1   2   1 813.851 123.532   1
   1  -2   1 1026.28 165.868   1
  -1  -2   1 683.096 122.557   1
   1  -2  -1 880.702 148.567   1
  -1   2  -1 1008.57 161.632   1
  -1  -2  -2 692.201 124.676   1
  -1   2   2 620.094 112.499   1
  -1  -2   2 502.846 104.145   1
   1  -2  -2 831.053 141.466   2
   1   2  -2 717.557 118.905   1
   1   2   2 604.462 115.949   2
  -1   2   2 716.005 136.420   2
   1  -2   2 1454.50 201.110   1
  -1  -2  -2 753.950 124.140   2
   1  -2  -2 782.718 132.932   1
   1   2   2 585.512 104.006   1
  -1   2  -2 746.155 148.942   1
   1   2  -3 4151.80 292.327   1
  -1  -2  -3 4583.81 310.986   1
   1  -2  -3 4886.20 377.648   2
   1  -2  -3 4583.37 307.729   1
   1   2   3 4472.31 296.888   1
  -1   2   3 4536.02 292.231   1
   1   2   3 4315.36 335.213   2
  -1  -2  -3 4121.60 321.740   2
  -1   2   3 4686.49 369.997   2
   1  -2   3 4482.66 359.255   1
   1   2  -3 4002.00 204.614   2
  -1  -2   3 4560.54 313.434   1
  -1  -2   4 645.075 127.763   1
   1   2  -4 550.024 89.7305   2
   1  -2   4 692.299 110.396   2
  -1   2   4 774.488 167.264   2
   1   2   4 627.528 115.434   1
  -1  -2  -4 742.822 128.554   1
   1   2   4 602.913 139.126   2
  -1   2   4 709.726 109.809   1
   1  -2  -4 723.165 120.816   1
   1   2  -4 661.401 121.982   1
  -1   2   5 7645.48 355.643   1
  -1   2   5 7024.32 530.069   2
   1   2   5 7546.03 532.652   2
   1   2  -5 8375.94 421.272   1
   1   2  -5 7674.83 380.192   2
   1  -2   5 7440.55 394.680   2
   1  -2  -5 7156.23 375.064   1
  -1  -2  -5 8556.05 435.044   1
  -1  -2   5 7219.58 407.230   1
   1   2  -6 20122.9 656.633   1
   1   2   6 19791.0 923.337   2
  -1  -2   6 19626.1 690.756   2
  -1  -2  -6 19791.1 676.060   1
   1   2  -6 19863.2 692.392   2
   1  -2   6 21371.4 746.952   2
  -1   2   6 21295.7 570.530   1
   1  -2  -6 20440.3 605.558   1
  -1   2   6 20483.5 966.665   2
  -1  -2   6 19745.5 694.390   1
   1   2  -7 8139.90 420.964   1
   1   2   7 8322.21 642.217   2
  -1  -2   7 8564.20 505.040   2
  -1   2   7 8342.60 337.702   1
   1   2  -7 8366.73 493.822   2
  -1  -2   7 8474.99 462.098   1
   1  -2   7 8097.75 507.705   2
  -1  -2  -7 8009.97 435.474   1
   1  -2  -7 7622.66 365.364   1
  -1   2   7 7859.98 638.343   2
  -1   2   8 231.370 52.8174   1
   1   2  -8 218.586 64.3185   1
  -1  -2   8 150.800 78.3007   2
  -1  -2   8 189.014 71.6622   1
   1   2   8 175.801 115.371   2
  -1   2   8 400.356 150.981   2
   1  -2   8 274.660 107.554   2
  -1  -2  -8 133.349 74.2137   1
   1  -2  -8 187.263 63.9840   1
  -1   2   9 907.251 239.525   2
  -1   2   9 747.356 89.7335   1
   1   2  -9 806.412 143.185   1
  -1  -2   9 910.189 192.862   2
   1   2   9 1018.82 270.058   2
   1  -2   9 849.220 199.087   2
  -1  -2  -9 629.461 132.086   1
   1  -2  -9 831.732 113.529   1
   1   2  10 946.737 257.498   2
   1   2 -10 735.992 122.226   1
  -1  -2  10 896.412 197.688   2
  -1   2  10 919.788 260.860   2
  -1   2  10 931.669 91.2409   1
   1  -2  10 633.723 178.642   2
  -1  -2 -10 914.048 151.362   1
   1  -2 -10 912.286 106.620   1
   1  -2  11 1015.29 234.840   2
  -1  -2 -11 1312.35 186.705   1
  -1  -2  11 1094.36 250.063   2
  -1   2  11 1476.38 339.960   2
   1   2  11 1030.28 288.964   2
  -1  -2  12 813.136 197.967   2
   1   2  12 1407.34 345.594   2
   1  -2  12 1318.64 298.765   2
  -1  -2 -12 1309.11 187.003   1
  -1   2 -12 837.287 157.869   1
  -1  -2  13 1249.15 297.506   2
  -1   2  13 811.665 288.762   2
   1   2  13 1754.78 408.266   2
   1  -2  13 809.407 248.755   2
  -1   2 -13 978.809 182.899   1
   1  -2  14 458.423 212.373   2
  -1  -2  14 519.345 177.123   2
  -1   2  14 956.050 341.858   2
   1   2  14 340.048 195.622   2
  -1   2  15 137.831 187.725   2
   1   2  15-140.108 157.642   2
   1  -2  15 63.8494 133.380   2
  -1  -2  15 31.8681 92.0665   2
  -1  -2  16-28.4465 147.684   2
   1  -2  16 116.239 121.897   2
   1   2  16-85.8173 145.038   2
  -1  -2  17 653.126 258.942   2
  -1   2  17 513.634 269.483   2
   1   2  17 472.743 261.574   2
   1  -2  17 527.482 241.658   2
   1   2  18-70.0905 141.337   2
  -1   2  18-269.401 220.412   2
   1  -2  18-496.008 245.088   2
  -2  -2   0 571822. 3701.19   1
  -2  -2   1 7614.61 430.191   1
  -2  -2  -1 6996.43 416.541   1
  -2  -2  -2 383232. 3077.88   1
  -2  -2   2 387760. 3028.51   1
   2   2   2 380675. 3155.35   2
  -2   2   2 393530. 3295.87   1
   2   2   3 1559.15 224.867   2
  -2  -2   3 1530.73 195.583   1
  -2   2   3 1622.05 208.024   1
  -2  -2  -3 1538.60 206.200   1
  -2  -2   4 520490. 3500.25   1
   2   2  -4 502682. 3437.16   2
  -2  -2  -4 501604. 3608.81   1
   2   2   4 513913. 4258.12   2
  -2   2   4 503920. 3428.04   1
   2   2  -5 1264.96 168.492   1
  -2  -2   5 1503.62 195.105   1
   2   2  -5 1154.76 178.940   2
   2   2   5 1231.40 237.187   2
  -2   2   5 1512.36 179.258   1
  -2  -2  -5 1307.39 193.778   1
   2   2   6 84732.8 1974.07   2
   2  -2   6 92564.7 1728.25   2
  -2  -2   6 90428.5 1477.82   1
  -2   2   6 89431.2 1276.49   1
  -2  -2  -6 89858.6 1580.76   1
  -2   2   6 90316.2 2126.01   2
   2   2  -6 83947.5 1630.10   2
   2   2  -6 85726.4 1343.20   1
  -2   2   7 3167.96 223.047   1
   2   2  -7 3296.70 259.841   1
   2  -2   7 3153.80 343.439   2
  -2   2   7 2839.91 410.539   2
   2   2   7 2916.55 389.380   2
  -2  -2  -7 3565.85 322.078   1
  -2  -2   7 3067.29 274.458   1
  -2  -2  -8 148467. 2124.36   1
  -2   2   8 140046. 1338.98   1
   2   2  -8 146029. 1696.28   1
   2   2   8 149841. 2950.75   2
   2  -2   8 139375. 2426.59   2
  -2   2   8 142642. 2963.54   2
  -2  -2   8 143014. 1891.70   1
   2  -2   9 584.645 180.697   2
   2   2   9 568.563 222.320   2
  -2   2   9 1181.63 289.962   2
  -2  -2   9 786.798 142.793   1
   2   2  -9 895.994 131.644   1
  -2  -2  -9 632.354 161.386   1
  -2   2   9 643.093 75.9103   1
   2   2  10 54433.4 1988.94   2
   2  -2  10 54169.9 1710.44   2
  -2  -2 -10 54583.3 1338.36   1
  -2   2 -10 54683.6 1345.11   1
  -2  -2  10 54654.6 1147.23   1
  -2   2  10 58383.2 2085.24   2
  -2   2 -11 412.904 116.985   1
  -2   2  11 399.536 160.978   2
   2   2  11 773.195 266.463   2
   2  -2  11 502.600 178.421   2
  -2  -2 -11 590.357 144.768   1
  -2   2 -12 21098.2 873.981   1
  -2  -2 -12 20672.6 868.764   1
   2  -2  12 19696.3 1159.10   2
  -2  -2  12 20693.7 1150.91   2
   2   2  12 22247.9 1405.51   2
  -2   2  12 20296.6 1335.87   2
   2  -2  13 4513.90 581.668   2
  -2  -2 -13 5278.28 438.095   1
  -2   2  13 4304.21 647.209   2
   2   2  13 5470.50 726.065   2
  -2   2 -13 4568.91 417.707   1
  -2  -2  13 5527.62 627.168   2
  -2   2  14 22405.4 1525.21   2
   2   2  14 21312.2 1492.86   2
   2  -2  14 21267.3 1328.01   2
  -2  -2  14 19665.4 1247.49   2
  -2   2  15 178.982 169.848   2
   2  -2  15 759.768 268.328   2
  -2  -2  15 444.627 226.633   2
   2   2  15 247.397 245.788   2
   2  -2  16 9553.34 976.139   2
   2   2  16 9279.21 1066.93   2
  -2   2  16 7783.63 970.958   2
  -2   2  17-207.873 194.694   2
   2  -2  17 584.073 246.585   2
   2   2  17 357.006 259.013   2
   2  -2  18 8615.89 977.631   2
  -3  -2   0-28.7110 43.6336   1
  -3  -2  -1 1088.88 191.021   1
  -3  -2   1 1067.72 182.096   1
  -3  -2   2 8511.98 487.322   1
  -3  -2  -2 7594.09 481.255   1
  -3  -2  -3 2203.62 267.112   1
  -3  -2   3 2312.14 256.662   1
  -3  -2   4 12489.2 592.143   1
  -3  -2  -4 12073.5 636.882   1
   3   2   4 12495.5 723.388   2
  -3  -2  -5 1024.72 193.711   1
  -3  -2   5 1180.02 187.340   1
   3   2   5 943.946 215.508   2
  -3  -2   6 3566.21 317.910   1
  -3  -2  -6 4222.08 384.735   1
   3   2   6 3842.47 450.606   2
  -3   2   6 3566.88 311.716   1
  -3  -2   7 12147.4 579.430   1
  -3  -2  -7 12013.2 668.159   1
   3   2   7 13603.1 887.773   2
   3  -2   7 13115.6 776.309   2
  -3   2   7 12008.5 518.254   1
  -3  -2  -8 16960.5 800.052   1
   3   2   8 16609.8 1024.25   2
   3  -2   8 16290.2 903.436   2
  -3   2   8 17053.0 481.064   1
  -3   2  -8 16898.9 793.392   1
  -3   2   8 16378.1 541.167   1
  -3  -2   8 15939.0 657.415   1
  -3  -2   9 557.609 126.091   1
  -3  -2  -9 514.302 153.103   1
  -3   2  -9 317.841 131.288   1
   3   2   9 832.138 244.797   2
   3  -2   9 427.344 173.955   2
  -3   2   9 444.325 72.9756   1
  -3  -2 -10 6873.11 530.768   1
   3   2  10 7123.62 732.978   2
  -3   2 -10 6203.35 501.239   1
   3  -2  10 6590.46 637.009   2
  -3  -2  10 6903.02 417.149   1
  -3  -2 -11 1559.17 262.551   1
   3   2  11 1104.63 316.195   2
   3  -2  11 1226.20 285.225   2
  -3   2 -11 1734.07 279.589   1
   3  -2  12 1929.89 385.414   2
   3   2  12 1425.03 364.324   2
  -3  -2 -12 1400.95 253.358   1
  -3   2 -12 1765.22 286.485   1
  -3   2 -13 1569.65 270.421   1
   3   2  13 1669.42 424.670   2
   3  -2  13 1421.54 364.435   2
  -3  -2 -13 1881.73 300.950   1
  -3   2 -14 293.584 146.294   1
   3   2  14 452.751 242.019   2
   3  -2  14 243.930 127.110   2
   3  -2  15 596.292 263.212   2
   3   2  15 711.551 308.099   2
   3  -2  16 557.634 249.455   2
   3   2  16 215.121 191.477   2
   3   2  17 1388.17 443.060   2
   3  -2  17 1283.53 388.152   2
   3  -2  18 222.092 192.285   2
  -4  -2   0 107001. 1955.81   1
  -4  -2   1 570.808 162.642   1
  -4  -2  -1 629.943 173.499   1
  -4  -2  -2 119307. 2110.45   1
  -4  -2   2 121817. 2031.77   1
  -4  -2  -3 171.634 128.985   1
  -4   2   3 117.825 78.1638   1
  -4  -2   3 159.120 87.0626   1
  -4  -2   4 161001. 2337.95   1
  -4  -2  -4 157653. 2496.25   1
  -4   2  -4 156527. 2417.53   1
  -4   2   4 155264. 2022.93   1
  -4  -2   5 8296.97 529.270   1
  -4  -2  -5 7917.01 572.589   1
   4   2   5 8787.41 709.431   2
  -4   2   5 7399.93 425.287   1
  -4   2  -5 7599.38 544.451   1
  -4  -2  -6 68361.4 1701.34   1
  -4  -2   6 71567.0 1550.45   1
   4   2   6 69020.5 2049.74   2
  -4   2   6 73119.8 1306.12   1
  -4   2  -6 69520.6 1683.35   1
  -4  -2   7 2109.12 274.817   1
  -4  -2  -7 2023.71 301.977   1
  -4   2   7 2201.11 222.279   1
   4   2   7 1158.15 294.629   2
  -4   2  -7 1755.81 284.093   1
  -4  -2   8 101506. 1806.64   1
  -4  -2  -8 98744.0 2138.36   1
   4   2   8 98802.6 2663.41   2
   4  -2   8 100437. 2452.44   2
  -4   2   8 97556.1 1378.08   1
  -4   2  -8 99318.4 2100.23   1
  -4  -2   9 2437.23 279.143   1
  -4   2   9 1861.79 180.049   1
   4   2   9 2802.32 471.847   2
   4  -2   9 2534.57 413.958   2
  -4   2  -9 1626.83 291.916   1
  -4  -2  -9 2603.71 362.236   1
  -4  -2 -10 74254.7 1931.68   1
   4   2  10 73909.3 2496.55   2
   4  -2  10 76059.2 2309.93   2
  -4   2 -10 74734.1 1910.07   1
  -4  -2 -11 581.726 237.564   1
   4  -2  11 428.908 199.311   2
  -4   2 -11 308.906 126.030   1
   4   2  11 334.291 233.254   2
   4   2  12 32290.6 1801.89   2
  -4   2 -12 34376.0 1352.59   1
  -4  -2 -12 34078.9 1358.84   1
   4  -2  12 34034.9 1671.76   2
  -4  -2 -13 3759.80 474.945   1
  -4   2 -13 3810.99 464.800   1
   4   2  13 4341.44 700.384   2
   4  -2  13 4377.46 634.127   2
   4   2  14 32801.0 1960.48   2
   4  -2  14 34670.0 1828.35   2
  -4   2 -14 35191.3 1409.67   1
  -4  -2 -14 36051.8 1434.43   1
   4   2  15 485.864 290.945   2
   4  -2  15 841.452 320.084   2
   4   2  16 15989.6 1482.02   2
   4  -2  16 12891.1 1212.71   2
   4  -2  17 452.765 255.251   2
   4  -2  18 9078.62 1102.31   2
  -5  -2   0 500.654 158.398   1
  -5   2   0-17.6165 44.7186   1
  -5  -2  -1 2603.43 346.556   1
  -5   2  -1 2946.59 349.427   1
  -5   2   1 3071.20 338.951   1
  -5  -2   1 2650.80 334.914   1
  -5  -2   2 243.071 102.567   1
  -5   2   2 391.127 130.133   1
  -5  -2  -2 327.555 133.873   1
  -5   2  -2 201.768 77.3355   1
  -5   2   3 4097.75 380.235   1
  -5  -2  -3 2971.26 396.339   1
  -5   2  -3 3869.12 411.563   1
  -5  -2   3 3289.13 380.551   1
  -5  -2   4 5866.02 484.521   1
  -5  -2  -4 4909.66 493.459   1
  -5   2  -4 5125.87 499.606   1
  -5   2   4 5254.60 434.327   1
  -5   2   5 793.378 167.429   1
  -5  -2  -5 676.787 189.410   1
  -5  -2   5 986.273 202.628   1
  -5   2  -5 580.556 181.646   1
  -5  -2  -6 10502.9 734.957   1
   5   2   6 10955.3 889.497   2
  -5   2   6 11424.2 594.067   1
  -5   2  -6 11856.3 773.798   1
  -5  -2   6 12084.7 694.584   1
  -5   2  -7 831.605 210.016   1
  -5   2   7 859.104 155.575   1
  -5  -2   7 1132.99 219.648   1
   5   2   7 750.968 241.027   2
  -5  -2  -7 964.725 242.703   1
  -5  -2   8 3188.51 353.922   1
  -5  -2  -8 3425.89 438.210   1
  -5   2  -8 2496.68 371.564   1
  -5   2   8 3153.94 288.295   1
   5   2   8 3376.62 522.173   2
  -5   2  -9 1141.14 251.263   1
   5   2   9 1508.02 375.006   2
  -5  -2  -9 1220.00 277.127   1
   5  -2   9 1208.57 308.001   2
  -5  -2   9 1079.01 204.747   1
  -5  -2 -10 2057.60 361.255   1
  -5   2 -10 2254.63 364.969   1
   5   2  10 1497.07 392.068   2
   5  -2  10 2237.83 429.591   2
  -5  -2 -11 2721.70 428.848   1
   5   2  11 1907.24 432.293   2
   5  -2  11 1422.99 374.674   2
  -5   2 -11 1796.92 336.512   1
  -5  -2 -12 1794.91 366.399   1
   5  -2  12 1953.35 423.871   2
  -5   2 -12 1559.03 319.203   1
   5   2  12 2818.42 553.736   2
  -5  -2 -13 838.878 250.170   1
  -5   2 -13 1369.59 310.129   1
   5   2  13 1177.35 369.221   2
   5  -2  13 658.833 264.343   2
  -5  -2 -14 457.051 138.926   1
   5   2  14 869.719 333.317   2
   5  -2  14 945.516 303.027   2
  -5   2 -14 577.159 188.911   1
  -5   2 -15 131.459 154.107   1
   5   2  15-84.4682 153.563   2
   5  -2  15 115.977 152.538   2
   5  -2  16-377.936 226.365   2
  -6   2   0 55655.5 1646.60   1
  -6  -2   0 50857.5 1616.87   1
  -6  -2   1 1090.77 266.683   1
  -6   2   1 1570.90 282.941   1
  -6   2  -1 1092.98 251.122   1
  -6  -2  -1 890.743 247.405   1
  -6   2  -2 68820.7 1880.14   1
  -6  -2   2 72028.9 1886.64   1
  -6  -2  -2 69450.6 1953.53   1
  -6   2   2 66297.6 1752.49   1
  -6   2   3 3052.99 376.089   1
  -6   2  -3 2884.05 400.355   1
  -6  -2  -3 3384.74 442.404   1
  -6  -2   3 2190.12 335.622   1
  -6  -2   4 65140.8 1768.22   1
  -6   2   4 67027.0 1676.64   1
  -6   2  -4 67138.7 1918.34   1
  -6  -2  -4 67533.4 1960.16   1
  -6   2  -5 361.994 172.223   1
  -6  -2  -5 488.721 203.541   1
  -6   2   5 350.368 148.171   1
  -6  -2   5 173.335 147.871   1
  -6  -2  -6 39489.4 1581.34   1
  -6   2   6 43430.2 1285.88   1
  -6   2  -6 41620.7 1560.31   1
  -6  -2   6 41143.1 1414.19   1
  -6   2   7 1497.90 247.172   1
  -6  -2   7 2064.38 317.761   1
   6   2   7 2257.24 462.827   2
  -6  -2  -7 2170.71 390.610   1
  -6   2  -7 1937.86 360.883   1
  -6  -2   8 51384.0 1555.81   1
  -6   2  -8 49122.5 1752.11   1
  -6  -2  -8 50464.4 1800.90   1
   6   2   8 50034.9 2185.03   2
  -6  -2  -9 1416.25 360.019   1
   6   2   9 1496.46 433.436   2
  -6   2  -9 1375.05 324.928   1
  -6  -2 -10 45733.6 1783.05   1
   6   2  10 43719.4 2158.04   2
  -6   2 -10 45295.6 1749.23   1
   6  -2  10 45770.1 2101.81   2
  -6   2 -11 1702.94 353.401   1
   6   2  11 2194.62 533.228   2
   6  -2  11 2223.77 472.760   2
  -6  -2 -11 2635.48 452.159   1
  -6  -2 -12 24810.0 1360.45   1
   6  -2  12 25062.5 1651.64   2
   6   2  12 25325.0 1754.89   2
  -6   2 -12 24887.8 1330.24   1
  -6  -2 -13 841.774 285.240   1
  -6   2 -13 715.139 234.918   1
   6  -2  13 745.843 281.248   2
   6   2  13 377.272 225.299   2
  -6  -2 -14 22973.0 1363.94   1
   6  -2  14 24118.1 1717.88   2
  -6   2 -14 23738.5 1344.19   1
  -6   2 -15 525.341 251.436   1
   6  -2  15 177.244 185.632   2
  -7  -2   0 54.1161 67.7101   1
  -7   2   0 104.446 139.702   1
  -7  -2  -1 743.358 262.391   1
  -7  -2   1 1174.28 261.939   1
  -7   2   1 1713.45 308.001   1
  -7   2  -1 1375.43 281.100   1
  -7  -2  -2 1185.63 277.313   1
  -7  -2   2 1933.47 350.847   1
  -7   2   2 1456.61 303.564   1
  -7   2  -2 1385.23 307.674   1
  -7  -2  -3 178.329 103.949   1
  -7   2   3 225.370 98.7874   1
  -7   2  -3 145.114 127.559   1
  -7  -2   3 117.178 76.8234   1
  -7  -2  -4 355.425 184.785   1
  -7   2   4 225.830 107.886   1
  -7   2  -4 434.467 190.294   1
  -7  -2   4 514.366 182.943   1
  -7   2   5 139.916 111.882   1
  -7  -2  -5-34.4762 88.2400   1
  -7   2  -5 285.512 159.278   1
  -7  -2   5 195.383 119.398   1
  -7   2   6 454.629 151.096   1
  -7  -2  -6 254.341 141.018   1
  -7   2  -6 426.488 201.728   1
  -7  -2   6 248.687 157.810   1
  -7   2  -7 390.429 204.202   1
  -7  -2   7 971.884 252.308   1
   7   2   7 949.764 333.311   2
  -7  -2  -7 918.584 258.767   1
  -7  -2  -8 1329.94 329.141   1
  -7   2  -8 1354.74 329.149   1
   7   2   8 780.418 299.718   2
  -7   2  -9 403.914 186.580   1
   7   2   9 282.055 200.230   2
  -7  -2  -9 792.790 259.973   1
  -7  -2 -10 736.451 280.195   1
  -7   2 -10 497.769 230.117   1
   7   2  10 770.818 337.831   2
   7  -2  10 597.880 305.359   2
  -7  -2 -11 1268.19 330.738   1
   7   2  11 1162.29 392.652   2
   7  -2  11 1476.80 430.604   2
  -7   2 -11 1222.53 320.094   1
  -7  -2 -12-48.0698 109.464   1
  -7   2 -12 94.0190 104.606   1
   7  -2  12 330.098 212.512   2
  -7  -2 -13 2007.46 421.883   1
  -7   2 -13 1193.43 310.970   1
   7  -2  13 1756.64 479.821   2
  -8  -2   0 64890.3 2183.62   1
  -8   2   0 70146.8 2177.64   1
  -8  -2   1 1106.73 342.460   1
  -8  -2  -1 1445.44 398.788   1
  -8   2   1 1088.30 327.621   1
  -8   2  -1 1236.92 320.061   1
  -8  -2   2 75898.2 2314.41   1
  -8  -2  -2 75164.8 2397.62   1
  -8   2   2 75459.6 2167.20   1
  -8   2  -2 73853.0 2295.62   1
  -8   2   3 602.056 216.431   1
  -8  -2  -3 1097.99 333.989   1
  -8   2  -3 828.149 288.045   1
  -8  -2   3 778.085 292.213   1
  -8  -2   4 58719.3 2014.83   1
  -8  -2  -4 60184.4 2198.47   1
  -8   2   4 61552.9 1899.12   1
  -8   2  -4 59087.1 2113.16   1
  -8  -2  -5 1378.42 380.818   1
  -8   2  -5 1574.27 373.876   1
  -8  -2   5 1388.24 335.436   1
  -8   2   5 1560.55 327.512   1
  -8  -2   6 34350.0 1518.78   1
  -8  -2  -6 33408.1 1701.10   1
  -8   2  -6 37545.6 1724.82   1
  -8  -2  -7 1070.38 343.734   1
  -8   2  -7 1165.50 332.911   1
   8   2   7 1976.36 517.458   2
  -8  -2  -8 26643.8 1546.59   1
   8   2   8 26636.0 1829.07   2
  -8   2  -8 27683.6 1525.43   1
   8   2   9-262.504 213.988   2
  -8  -2  -9 33.3452 136.739   1
   8  -2  10 16806.4 1492.76   2
  -9   2   0-41.1554 111.063   1
  -9  -2   0 31.2093 104.380   1
  -9   2  -1 2885.30 507.788   1
  -9  -2   1 3811.51 582.400   1
  -9  -2  -1 3382.53 544.186   1
  -9   2   1 3249.93 489.572   1
  -9   2  -2 238.038 145.736   1
  -9  -2  -2 231.986 195.376   1
  -9   2   2 107.759 87.1015   1
  -9  -2   2 219.090 165.742   1
  -9   2  -3 2420.98 459.282   1
  -9  -2  -3 2348.75 474.313   1
  -9   2   3 2042.61 385.399   1
  -9  -2   3 1660.75 381.400   1
  -9   2  -4 188.820 104.042   1
  -9  -2  -4 162.010 169.635   1
  -9   2   4 169.785 117.970   1
  -9  -2   4 397.869 194.120   1
  -9  -2   5 880.301 271.133   1
   0  -3   0 13691.2 432.835   2
   0   3   0 13248.3 430.785   2
   0  -3   0 14164.6 666.312   1
   0  -3   1 1596.67 228.995   1
   0   3   1 1665.05 184.551   2
   0  -3  -1 1616.17 176.801   2
   0  -3   1 1799.31 117.306   2
   0  -3  -1 1921.74 241.883   1
   0   3   2 18683.8 688.402   2
   0  -3  -2 19147.7 697.273   2
   0  -3   2 19511.9 804.012   1
   0  -3  -2 19016.8 753.808   1
   0  -3   3 26349.5 957.032   1
   0  -3  -3 26851.9 889.451   1
   0   3   3 28168.9 927.268   2
   0   3   4 3231.58 342.916   2
   0  -3   4 3580.16 361.238   1
   0  -3  -4 3362.59 314.529   1
   0  -3   5 3350.59 194.005   2
   0   3   5 3405.12 384.274   2
   0  -3   5 3125.58 342.656   1
   0  -3  -5 4092.81 347.984   1
   0  -3   6 1011.21 133.537   2
   0   3   6 1018.46 226.951   2
   0  -3   6 846.315 181.089   1
   0  -3  -6 712.733 142.087   1
   0  -3  -7 14268.2 653.084   1
   0  -3   7 15117.6 582.147   2
   0   3   7 14126.9 879.209   2
   0  -3   7 14359.8 763.563   1
   0  -3  -8-14.3714 38.4755   1
   0  -3   8 43.3720 55.7785   2
   0   3   8 128.711 147.547   2
   0  -3   8-25.2272 57.9420   1
   0  -3   9 1699.34 236.787   2
   0   3   9 1792.10 355.106   2
   0  -3  -9 2185.53 260.559   1
   0  -3  10 637.889 162.441   2
   0   3  10 551.783 210.976   2
   0  -3 -10 367.143 109.347   1
   0   3  11 9099.57 864.955   2
   0  -3  11 9120.15 659.353   2
   0  -3 -11 9072.90 513.752   1
   0  -3  12 2057.04 344.943   2
   0   3  12 1250.99 330.058   2
   0  -3  13 1907.36 347.391   2
   0   3  13 1541.00 382.090   2
   0  -3  14 17.4118 108.130   2
   0   3  14 204.798 141.933   2
   0   3  15 929.416 344.213   2
   0   3  16 558.148 294.012   2
   0   3  17-152.135 204.875   2
  -1  -3   0 170.861 99.9499   1
   1  -3   0 64.5024 64.7274   2
   1   3   0 88.1567 62.2474   2
   1  -3   0 105.551 99.4956   1
  -1  -3   1 132954. 2044.52   1
  -1  -3  -1 130627. 2022.59   1
   1  -3  -1 133670. 1831.19   2
   1   3   1 129966. 1640.47   2
   1   3  -1 133615. 1126.80   2
   1  -3   1 133217. 2200.86   1
   1  -3  -1 131751. 2114.41   1
   1  -3   1 134076. 1519.89   2
  -1  -3  -2 6156.10 437.873   1
   1  -3  -2 6662.49 449.765   2
   1   3   2 6623.37 413.378   2
  -1   3   2 6282.05 432.475   2
   1  -3   2 6175.52 485.026   1
   1  -3  -2 6623.92 468.330   1
  -1  -3  -2 6289.12 389.632   2
  -1  -3   2 6280.57 449.265   1
  -1  -3  -3 145345. 2126.79   1
  -1   3   3 146816. 2254.54   2
   1  -3   3 141783. 2368.06   1
   1   3   3 143010. 2127.61   2
   1  -3  -3 147027. 2152.76   1
  -1  -3   3 142088. 2162.30   1
  -1  -3   4 1376.56 221.109   1
  -1  -3  -4 1150.31 195.146   1
  -1   3   4 837.620 191.425   2
   1   3   4 1143.85 219.488   2
   1  -3   4 1082.91 214.873   1
   1  -3  -4 841.839 167.576   1
  -1  -3  -5 169691. 2343.61   1
   1   3   5 173308. 2730.58   2
   1   3  -5 175645. 1362.61   2
   1  -3   5 174817. 1766.43   2
   1  -3   5 173395. 2706.65   1
  -1   3   5 172127. 2784.60   2
   1  -3  -5 173814. 2294.89   1
  -1  -3   5 171089. 2443.17   1
  -1  -3  -6 118.707 82.4759   1
  -1   3   6-19.0552 54.8685   2
   1   3   6 37.8300 82.3512   2
   1  -3   6-0.74677 35.5199   2
   1   3  -6 49.9853 57.9929   2
   1  -3  -6 16.6394 45.5037   1
  -1  -3   6-22.3875 73.4511   1
  -1  -3  -7 75754.0 1584.27   1
  -1   3   7 78803.9 2113.28   2
   1  -3   7 77629.6 1453.80   2
   1   3  -7 76591.6 1253.33   2
   1   3   7 73226.2 2013.89   2
  -1  -3   7 74588.5 1665.62   1
   1  -3  -7 73191.0 1479.01   1
  -1  -3   8 784.708 158.565   2
  -1  -3  -8 713.002 159.305   1
  -1   3   8 683.373 211.381   2
   1   3   8 1051.75 250.426   2
   1   3  -8 753.270 141.730   2
   1  -3   8 674.310 155.678   2
  -1  -3   8 739.432 168.509   1
   1  -3  -8 819.619 157.025   1
  -1  -3  -9 113437. 1982.43   1
   1   3   9 122758. 2901.32   2
   1  -3   9 119985. 2148.22   2
  -1  -3   9 116534. 2138.56   1
  -1   3   9 117011. 2857.40   2
   1  -3  -9 116251. 1780.86   1
  -1  -3   9 115573. 2009.36   2
  -1  -3  10 305.304 116.250   2
  -1  -3 -10 694.780 163.224   1
  -1   3  10 676.610 256.791   2
   1   3  10 622.867 250.136   2
   1  -3  10 699.886 186.655   2
  -1  -3  10 1003.58 206.937   1
   1  -3 -10 712.533 139.992   1
   1  -3  11 56942.4 1713.16   2
  -1  -3 -11 57180.7 1422.12   1
  -1   3  11 58128.6 2209.20   2
   1   3  11 54979.4 2147.65   2
  -1  -3  11 54086.5 1596.28   2
  -1  -3 -12 3304.12 348.002   1
  -1  -3  12 3444.88 437.156   2
  -1   3  12 3369.13 561.348   2
   1   3  12 3399.65 567.048   2
   1  -3  12 3599.96 457.671   2
   1   3  13 64907.4 2531.96   2
   1  -3  13 64052.3 2023.48   2
  -1   3  13 68145.6 2596.98   2
  -1  -3  13 60905.8 1917.39   2
  -1  -3  14 227.226 141.378   2
  -1   3  14 183.802 170.754   2
   1  -3  14 390.424 162.752   2
   1   3  14 623.971 306.869   2
   1  -3  15 23456.3 1352.11   2
  -1   3  15 25597.4 1725.93   2
   1   3  15 24715.1 1680.84   2
  -1   3  16 2543.46 584.046   2
   1   3  16 1972.00 512.056   2
  -1   3  17 16245.8 1492.70   2
   1   3  17 14510.8 1406.82   2
  -2  -3   0 19222.1 805.592   1
   2   3   0 18896.5 629.830   2
  -2  -3   1 428.404 125.604   1
  -2  -3  -1 288.756 104.238   1
   2  -3  -1 225.115 103.055   1
   2   3   1 186.953 68.9650   2
  -2  -3   2 17917.8 777.225   1
  -2  -3  -2 18063.3 781.834   1
   2   3   2 16700.3 698.166   2
   2  -3  -2 18683.6 847.873   1
  -2  -3   3 2340.96 284.805   1
  -2  -3  -3 2325.85 289.450   1
   2   3   3 2032.24 264.120   2
   2  -3  -3 2012.81 276.338   1
  -2  -3   4 3163.93 328.430   1
   2   3  -4 2429.63 214.132   2
  -2  -3  -4 2976.47 320.813   1
   2   3   4 2715.92 327.039   2
   2  -3  -4 3143.47 334.884   1
  -2  -3  -5 11363.7 636.636   1
   2   3  -5 10578.8 470.775   2
   2   3   5 11339.3 715.839   2
   2  -3  -5 12109.2 640.253   1
  -2  -3   5 10695.0 610.396   1
  -2  -3   6 1254.87 214.809   1
   2  -3   6 2249.57 263.695   2
  -2   3   6 1885.14 321.769   2
   2   3  -6 1554.05 194.020   2
   2   3   6 1548.11 292.181   2
  -2  -3  -6 1640.34 250.586   1
   2  -3  -6 1682.83 235.237   1
  -2   3   7 6325.26 627.017   2
   2   3  -7 6334.13 426.714   2
   2   3   7 6305.58 601.625   2
   2  -3   7 6178.49 457.758   2
   2  -3  -7 5876.42 426.763   1
  -2  -3  -7 7101.98 519.000   1
  -2  -3   7 6344.34 483.065   1
  -2   3   8 3985.75 521.314   2
   2   3   8 5429.99 593.753   2
   2  -3   8 3712.41 385.339   2
  -2  -3   8 4978.03 429.527   1
  -2  -3  -8 4570.64 423.440   1
  -2  -3  -9 3303.22 366.138   1
  -2   3   9 2905.40 465.062   2
   2   3   9 2765.17 447.047   2
   2  -3   9 3011.60 365.185   2
  -2  -3   9 2713.53 323.034   1
  -2   3  10 1934.38 391.775   2
   2   3  10 1535.55 355.181   2
  -2  -3 -10 1908.66 286.949   1
   2  -3  10 1821.59 300.573   2
  -2  -3  10 1717.78 252.277   1
  -2   3  11-27.4751 143.004   2
   2   3  11 149.501 104.526   2
  -2  -3 -11 29.4905 72.1367   1
   2  -3  11 28.8640 79.8604   2
  -2  -3  11 102.765 64.5234   1
  -2   3  12 161.348 108.178   2
  -2  -3 -12 340.694 143.113   1
   2   3  12 170.450 82.9466   2
   2  -3  12 526.953 191.997   2
  -2   3  13 1536.23 394.989   2
  -2  -3 -13 2481.85 332.438   1
   2   3  13 2147.56 466.914   2
   2  -3  13 1834.50 374.872   2
  -2   3 -13 2466.50 328.255   1
  -2   3  14 580.056 259.527   2
  -2   3 -14 536.430 148.565   1
   2   3  14 383.229 198.154   2
   2  -3  14 626.902 229.250   2
  -2   3  15 478.696 263.135   2
   2   3  15 1088.62 368.428   2
   2  -3  15 998.449 295.709   2
  -2   3  16 66.9689 175.245   2
   2   3  16-288.291 214.468   2
  -2   3  17 514.670 283.457   2
   2   3  17 507.095 263.046   2
  -3  -3   0 302.236 163.721   1
  -3  -3   1 321487. 3503.77   1
  -3  -3  -1 324337. 3530.10   1
  -3  -3   2 1081.49 212.388   1
  -3  -3  -2 900.709 210.185   1
   3   3   2 1001.83 209.015   2
  -3  -3   3 285621. 3278.74   1
  -3  -3  -3 283603. 3346.79   1
   3   3   3 280512. 3419.28   2
  -3  -3   4 4368.13 414.139   1
  -3  -3  -4 4519.99 435.992   1
   3   3   4 5061.95 488.748   2
  -3  -3   5 216380. 2870.90   1
  -3  -3  -5 214234. 2969.11   1
   3   3   5 215105. 3319.66   2
  -3  -3   6 4701.63 429.335   1
  -3  -3  -6 3762.34 407.344   1
   3   3   6 3651.63 471.427   2
  -3  -3  -7 83981.0 1926.11   1
   3   3   7 81214.7 2251.40   2
   3  -3   7 85121.1 1945.59   2
  -3  -3   7 84359.3 1800.90   1
  -3  -3   8 1104.50 211.590   1
   3   3   8 1078.32 275.757   2
   3  -3   8 1127.93 243.301   2
  -3  -3  -8 1050.95 226.713   1
  -3  -3  -9 69102.4 1804.41   1
   3   3   9 67728.2 2263.01   2
   3  -3   9 69051.2 1909.03   2
  -3  -3   9 71795.3 1674.68   1
   3   3  10 545.216 243.397   2
   3  -3  10 159.607 117.167   2
  -3  -3 -10 225.110 128.760   1
  -3  -3  10 136.811 85.8897   1
   3   3  11 25918.2 1529.74   2
  -3  -3 -11 25729.2 1134.12   1
   3  -3  11 23627.8 1230.33   2
  -3   3 -11 23801.2 1064.43   1
  -3   3 -12 1217.41 248.905   1
   3   3  12 1407.34 360.085   2
   3  -3  12 1872.13 358.788   2
  -3  -3 -12 1115.71 242.819   1
  -3  -3 -13 21056.4 1069.69   1
   3   3  13 22342.2 1548.22   2
   3  -3  13 21067.7 1268.46   2
  -3   3 -13 22019.6 1064.72   1
   3   3  14 1293.77 404.377   2
   3  -3  14 906.805 279.600   2
  -3   3 -14 961.345 230.361   1
   3  -3  15 6001.77 741.207   2
   3   3  15 4757.73 766.960   2
   3   3  16-45.7448 216.800   2
  -4  -3   0 8814.89 624.055   1
  -4  -3   1 5238.55 473.810   1
  -4  -3  -1 5218.25 479.781   1
  -4  -3   2 17776.9 872.136   1
  -4  -3  -2 18754.2 916.444   1
  -4  -3   3 280.042 114.098   1
   4   3   3 389.184 156.143   2
  -4  -3  -3 44.6373 46.3572   1
  -4  -3   4 1147.56 234.609   1
   4   3   4 1253.47 263.418   2
  -4  -3  -4 1405.17 256.848   1
  -4  -3   5 3070.09 364.120   1
   4   3   5 2898.39 411.234   2
  -4  -3  -5 2867.83 368.322   1
  -4  -3   6 725.757 184.362   1
   4   3   6 678.972 216.590   2
  -4  -3  -6 737.808 201.384   1
  -4  -3   7 83.7839 95.8971   1
   4   3   7 325.799 153.266   2
  -4  -3  -7 110.397 103.821   1
   4   3   8 600.189 226.317   2
   4  -3   8 625.337 206.561   2
  -4  -3   8 773.559 194.797   1
  -4  -3  -8 985.330 244.457   1
  -4   3  -9 1766.03 289.130   1
   4   3   9 1443.42 349.173   2
   4  -3   9 1483.25 306.310   2
  -4  -3   9 1788.18 281.990   1
  -4  -3  -9 2043.80 333.538   1
  -4  -3  10 353.455 143.864   1
  -4   3 -10 172.569 100.864   1
   4   3  10 453.161 266.101   2
   4  -3  10 177.914 130.614   2
  -4  -3 -10 44.5235 73.2834   1
   4   3  11 830.352 271.564   2
   4  -3  11 857.211 259.518   2
  -4   3 -11 791.689 212.420   1
  -4  -3 -11 545.799 192.138   1
  -4   3 -12 1654.48 305.767   1
   4   3  12 1436.18 394.852   2
   4  -3  12 1538.65 356.010   2
  -4  -3 -12 2055.99 361.259   1
  -4   3 -13 598.099 204.602   1
   4   3  13 384.732 234.984   2
   4  -3  13 733.948 268.804   2
  -4  -3 -13 503.116 176.267   1
  -4   3 -14 27.5605 92.4264   1
   4   3  14-171.030 185.396   2
   4  -3  14 168.599 135.851   2
   4   3  15 665.124 343.029   2
   4  -3  15-106.403 132.676   2
  -5  -3   0 97.7368 154.092   1
  -5  -3   1 32300.3 1276.67   1
  -5  -3  -1 33440.3 1308.50   1
  -5  -3  -2 3133.43 409.820   1
  -5  -3   2 2034.94 320.717   1
  -5  -3   3 48885.4 1558.36   1
  -5  -3  -3 46661.3 1572.81   1
  -5  -3   4 671.085 189.238   1
   5   3   4 718.014 232.557   2
  -5   3   4 701.624 168.815   1
  -5  -3  -4 624.128 202.009   1
  -5  -3   5 57127.4 1684.40   1
  -5  -3  -5 56701.5 1782.73   1
   5   3   5 55265.2 1978.21   2
  -5   3   5 57618.4 1436.70   1
  -5   3  -5 53629.7 1656.26   1
  -5   3   6 858.829 180.928   1
  -5   3  -6 763.115 207.728   1
  -5  -3   6 1139.97 251.964   1
   5   3   6 1250.55 327.477   2
  -5  -3  -6 1035.80 262.918   1
  -5  -3   7 46530.8 1519.21   1
  -5  -3  -7 46422.8 1652.18   1
   5   3   7 44968.5 1898.64   2
  -5   3   7 47794.5 1252.63   1
  -5   3  -7 47592.5 1614.15   1
  -5  -3   8 2339.45 352.686   1
  -5   3   8 2364.81 277.677   1
  -5   3  -8 3414.51 444.417   1
   5   3   8 3204.37 533.158   2
  -5  -3  -8 2515.13 394.464   1
  -5  -3   9 64289.3 1755.60   1
   5   3   9 67756.9 2505.58   2
   5  -3   9 59300.0 2126.74   2
  -5   3  -9 62819.6 1924.29   1
  -5  -3  -9 62086.2 1978.99   1
   5   3  10 269.459 223.556   2
   5  -3  10 342.191 197.443   2
  -5  -3 -10 640.042 232.756   1
  -5   3 -10 221.765 135.670   1
  -5  -3 -11 51579.2 1866.60   1
   5   3  11 51616.6 2346.69   2
   5  -3  11 48573.4 2039.12   2
  -5   3 -11 49479.9 1803.05   1
  -5   3 -12 1253.89 333.843   1
   5   3  12 680.601 306.710   2
   5  -3  12 824.693 287.181   2
  -5  -3 -12 996.885 309.262   1
  -5  -3 -13 45605.5 1827.37   1
   5   3  13 45166.8 2363.84   2
   5  -3  13 45684.2 2106.79   2
  -5   3 -13 46909.0 1804.64   1
   5   3  14 676.357 318.562   2
   5  -3  14 384.963 218.222   2
  -5  -3 -14 453.986 204.589   1
  -5   3 -14 569.346 235.680   1
   5  -3  15 24174.7 1642.16   2
  -5   3 -15 23248.7 1303.56   1
  -6  -3   0 4045.38 483.182   1
  -6   3   0 4133.44 457.919   1
  -6   3   1 2311.96 343.538   1
  -6   3  -1 2222.99 339.744   1
  -6  -3   1 1565.86 328.245   1
  -6  -3  -1 1931.78 362.919   1
  -6   3  -2 155.487 114.004   1
  -6  -3   2 869.374 232.508   1
  -6   3   2 369.823 153.245   1
  -6  -3  -2 774.956 220.332   1
  -6   3   3 169.988 112.921   1
  -6   3  -3 164.737 88.3717   1
  -6  -3   3-38.3328 98.1838   1
  -6  -3  -3 322.734 132.082   1
  -6   3  -4 1225.64 291.782   1
  -6  -3   4 2038.65 342.976   1
  -6   3   4 2127.53 322.875   1
  -6  -3  -4 2091.27 396.658   1
  -6  -3  -5 2090.01 383.389   1
  -6   3  -5 1311.01 295.666   1
  -6   3   5 1394.94 255.600   1
  -6  -3   5 1977.35 349.350   1
   6   3   5 1740.07 415.250   2
  -6  -3  -6 392.019 177.888   1
  -6   3  -6 830.466 233.364   1
  -6   3   6 580.999 151.952   1
  -6  -3   6 923.965 226.525   1
   6   3   6 891.247 282.708   2
  -6  -3  -7 303.352 186.876   1
  -6  -3   7 115.661 104.672   1
   6   3   7 107.664 141.233   2
  -6   3  -7 184.707 143.821   1
  -6   3   7 78.8317 67.8362   1
  -6  -3   8 507.984 173.717   1
  -6   3  -8 416.473 172.382   1
   6   3   8 571.628 280.774   2
  -6  -3  -8 602.664 224.223   1
  -6   3  -9 1857.21 363.678   1
   6   3   9 2687.09 542.216   2
  -6  -3  -9 1963.05 398.156   1
  -6   3 -10 22.5773 121.215   1
   6   3  10 379.219 224.097   2
   6  -3  10 149.737 139.961   2
  -6  -3 -10-26.8280 92.7124   1
  -6   3 -11 373.868 190.398   1
   6   3  11 907.279 335.625   2
   6  -3  11 585.371 249.823   2
  -6  -3 -11 486.195 264.011   1
   6   3  12-101.491 158.562   2
   6  -3  12 169.157 161.882   2
  -6   3 -12 120.250 212.482   1
  -6  -3 -12 298.812 189.082   1
   6   3  13 384.085 238.645   2
  -6   3 -13 605.404 227.713   1
   6  -3  13 151.118 160.565   2
  -6  -3 -13 262.166 169.977   1
  -6   3 -14 1285.18 313.949   1
   6  -3  14 1873.75 474.245   2
  -6  -3 -14 1518.33 370.000   1
  -6   3 -15-97.3530 117.683   1
   6  -3  15-441.240 247.367   2
  -7   3   0 178.680 188.817   1
  -7  -3   0 403.840 214.643   1
  -7  -3   1 73755.4 2234.00   1
  -7  -3  -1 74268.3 2284.02   1
  -7   3   1 71386.6 2078.60   1
  -7   3  -1 76334.9 2192.28   1
  -7   3   2 470.308 199.015   1
  -7   3  -2 460.113 237.151   1
  -7  -3   2 364.947 216.510   1
  -7  -3  -2 422.948 237.135   1
  -7  -3  -3 75670.9 2347.76   1
  -7  -3   3 80065.8 2319.87   1
  -7   3   3 78570.9 2098.16   1
  -7   3  -3 76575.6 2260.31   1
  -7  -3  -4 1649.28 379.471   1
  -7   3  -4 2460.76 433.499   1
  -7  -3   4 2309.50 413.945   1
  -7   3   4 1564.07 318.587   1
  -7  -3   5 53198.2 1881.90   1
  -7  -3  -5 55177.0 2065.71   1
  -7   3   5 51000.9 1639.37   1
  -7   3  -5 53926.7 1942.42   1
  -7  -3  -6 3094.42 528.974   1
  -7   3  -6 3503.54 524.109   1
  -7   3   6 3476.16 418.475   1
  -7  -3   6 3181.25 479.564   1
   7   3   6 2347.33 505.910   2
  -7  -3   7 31857.4 1440.52   1
  -7  -3  -7 33648.1 1653.54   1
   7   3   7 32926.1 1876.67   2
  -7   3  -7 32644.1 1571.48   1
  -7  -3  -8 858.433 284.849   1
   7   3   8 746.677 319.926   2
  -7   3  -8 986.602 309.179   1
  -7  -3  -9 25055.3 1458.81   1
   7   3   9 22920.2 1647.11   2
  -7   3  -9 25968.9 1442.79   1
   7   3  10 615.936 333.729   2
   7  -3  10 273.717 199.373   2
  -7   3 -10 676.243 242.493   1
  -7  -3 -10 174.890 202.420   1
  -7  -3 -11 15115.9 1170.63   1
   7   3  11 15514.6 1437.60   2
   7  -3  11 14378.3 1296.68   2
  -7   3 -11 14261.0 1097.09   1
   7  -3  12 693.532 290.767   2
  -7  -3 -12 1079.34 319.756   1
  -8   3   0 2028.91 379.457   1
  -8  -3   0 1177.86 330.287   1
  -8   3   1 207.653 133.714   1
  -8   3  -1 30.7141 141.181   1
  -8  -3   1 278.198 99.1029   1
  -8  -3  -1 244.614 171.070   1
  -8   3   2 2104.59 385.480   1
  -8  -3   2 1986.33 420.027   1
  -8   3  -2 1898.45 375.215   1
  -8  -3  -2 1473.89 380.432   1
  -8   3   3 444.757 178.790   1
  -8  -3   3 374.474 201.118   1
  -8   3  -3 691.482 255.490   1
  -8  -3  -3 208.866 132.644   1
  -8   3   4 1866.44 344.511   1
  -8  -3   4 798.694 295.462   1
  -8   3  -4 1715.93 373.048   1
  -8  -3  -4 1082.36 339.340   1
  -8   3   5 1532.35 304.262   1
  -8  -3   5 1268.97 302.852   1
  -8   3  -5 1346.85 340.299   1
  -8  -3  -5 848.466 261.828   1
  -8  -3  -6 638.318 251.972   1
  -8  -3   6 895.497 268.151   1
  -8   3  -6 954.351 291.164   1
   8   3   6 906.309 362.904   2
  -8   3  -7 1583.57 375.587   1
   8   3   7 1521.79 436.418   2
  -8  -3  -7 1829.71 452.308   1
   8   3   8 358.054 241.151   2
  -8  -3  -8 956.269 293.752   1
  -9   3   0 734.873 253.443   1
  -9  -3   0 531.503 275.728   1
  -9  -3   1 27509.4 1610.70   1
  -9  -3  -1 28462.8 1649.59   1
  -9   3   1 29009.2 1519.64   1
  -9   3  -1 29941.6 1581.41   1
  -9   3   2 1037.97 306.420   1
  -9   3  -2 962.735 322.573   1
  -9  -3   2 366.037 224.109   1
  -9  -3   3 38609.9 1853.35   1
  -9   3   3 35833.3 1634.45   1
  -9   3   4 457.221 227.419   1
  -9  -3   4 716.098 289.882   1
  -9  -3   5 27240.7 1553.42   1
   0  -4   0 82376.0 1185.60   2
   0  -4   0 81848.1 1886.37   1
   0   4   1 53970.1 1148.56   2
   0  -4  -1 54220.9 1116.84   2
   0  -4   1 53616.8 741.922   2
   0  -4   1 53099.8 1542.53   1
   0  -4  -1 54172.9 1522.43   1
   0   4   2 300185. 3016.49   2
   0  -4  -2 296456. 2965.68   2
   0  -4   2 296823. 3680.69   1
   0  -4  -2 301408. 3559.01   1
   0   4   3 10027.7 606.799   2
   0  -4   3 10392.1 701.380   1
   0  -4  -3 9944.36 642.700   1
   0   4   4 152058. 2527.38   2
   0  -4   4 151231. 2699.74   1
   0  -4  -4 155148. 2529.83   1
   0  -4  -5 1124.53 218.808   1
   0   4   5 1005.55 221.763   2
   0  -4   5 1130.95 249.120   1
   0   4   6 131783. 2687.20   2
   0  -4   6 135880. 2651.29   1
   0  -4  -6 137683. 2377.65   1
   0  -4  -7 210.146 90.5823   1
   0  -4   7 322.689 64.7949   2
   0   4   7 293.625 150.669   2
   0  -4   7 299.118 145.071   1
   0   4   8 41265.6 1664.88   2
   0  -4   8 38442.4 1437.21   1
   0  -4  -8 38552.1 1257.34   1
   0  -4   8 38156.8 856.058   2
   0  -4  -9 85.2857 75.1727   1
   0  -4   9 117.261 62.6422   2
   0   4   9 345.527 182.384   2
   0  -4   9 334.073 171.610   1
   0   4  10 86190.7 2677.10   2
   0  -4  10 86200.4 1663.23   2
   0  -4 -10 88447.4 1904.29   1
   0   4  11 5985.66 727.629   2
   0  -4 -11 5793.83 493.949   1
   0   4  12 24350.1 1540.13   2
   0   4  13 470.898 241.218   2
   0   4  14 29368.8 1824.82   2
   0   4  15 2988.23 610.367   2
   0   4  16 10445.0 1176.49   2
  -1  -4   0-10.5713 88.8226   1
   1  -4   0 7.70162 51.9456   2
   1   4   0 19.9050 23.4675   2
  -1  -4  -1 2553.77 328.446   1
  -1  -4   1 2609.55 334.817   1
   1  -4   1 2402.05 219.763   2
   1   4  -1 2548.99 170.306   2
   1  -4  -1 2662.66 289.827   2
   1   4   1 2582.66 251.670   2
   1  -4   1 2669.95 358.166   1
   1  -4  -1 2204.38 320.646   1
  -1  -4   2-42.1888 53.4847   1
  -1  -4  -2 5.33160 63.8025   1
   1  -4   2 36.8526 34.8492   2
   1   4   2 32.6262 48.6958   2
  -1  -4  -2-48.5678 46.6141   2
   1  -4   2 36.8213 50.1495   1
   1  -4  -2 37.0989 70.5580   1
  -1  -4  -3 2647.26 331.735   1
  -1  -4   3 2716.14 347.704   1
  -1   4   3 3067.68 348.002   2
   1   4   3 2904.83 332.650   2
   1  -4   3 2699.63 370.232   1
   1  -4   3 2725.60 196.279   2
   1  -4  -3 2418.88 324.664   1
  -1  -4  -4 8534.67 607.232   1
  -1   4   4 9858.68 665.603   2
   1   4   4 8194.75 589.493   2
   1  -4   4 9347.78 333.902   2
   1  -4   4 8915.36 684.548   1
   1  -4  -4 8708.70 615.447   1
  -1  -4   4 8679.74 634.547   1
  -1  -4  -5 2112.25 302.295   1
   1  -4   5 2196.38 174.159   2
  -1   4   5 2271.69 341.391   2
   1   4   5 1600.03 280.118   2
   1  -4   5 1657.15 304.495   1
   1  -4  -5 1909.20 284.507   1
  -1  -4   5 1619.60 271.552   1
  -1  -4  -6 309.642 121.301   1
  -1   4   6 241.433 119.090   2
   1   4   6 92.5309 70.0712   2
   1  -4   6 407.222 90.9593   2
   1  -4   6 345.341 146.487   1
   1  -4  -6 277.770 105.515   1
  -1  -4   6 201.050 100.759   1
  -1  -4  -7 10543.3 682.074   1
  -1   4   7 11200.2 841.328   2
   1   4   7 8556.70 727.988   2
   1  -4   7 11016.2 493.804   2
  -1  -4   7 10804.4 736.739   1
   1  -4  -7 10213.8 647.212   1
  -1  -4  -8 7116.95 561.885   1
  -1   4   8 7008.09 696.336   2
   1   4   8 5936.34 641.016   2
   1  -4   8 7052.57 438.371   2
  -1  -4   8 6387.44 572.797   1
   1  -4  -8 6392.61 514.174   1
  -1  -4  -9 414.581 162.089   1
  -1   4   9 218.307 142.662   2
   1   4   9 170.268 110.864   2
   1  -4   9 422.167 116.133   2
  -1  -4   9 352.829 153.793   1
   1  -4  -9 309.522 118.396   1
  -1  -4 -10 2056.00 315.147   1
  -1   4  10 1996.96 415.407   2
   1   4  10 1828.70 393.724   2
   1  -4  10 2150.85 281.620   2
  -1  -4  10 1929.43 318.974   1
   1  -4 -10 2021.78 291.190   1
  -1  -4 -11 142.071 92.6147   1
  -1   4  11 60.5319 91.0168   2
   1   4  11 193.722 116.580   2
  -1  -4 -12-56.0649 73.8717   1
  -1   4  12 59.1312 104.163   2
   1   4  12 59.1907 81.9135   2
  -1   4  13 1803.46 443.728   2
   1   4  13 2098.88 468.821   2
  -1   4  14 866.520 323.518   2
   1   4  14 1714.73 473.406   2
  -1   4  15 613.402 269.118   2
   1   4  15 404.940 241.539   2
  -1   4  16 427.259 254.848   2
   1   4  16 520.575 306.243   2
  -2  -4   0 49318.1 1494.91   1
   2   4   0 52404.4 1108.63   2
   2  -4   0 51438.7 1627.30   1
  -2  -4   1 20626.3 964.442   1
  -2  -4  -1 21019.2 968.557   1
   2   4   1 21405.0 785.697   2
   2   4  -1 21866.3 638.281   2
   2  -4   1 20580.9 1043.24   1
   2  -4  -1 21634.6 1053.12   1
  -2  -4   2 181355. 2862.66   1
  -2  -4  -2 180963. 2848.91   1
   2   4   2 185151. 2494.22   2
   2   4  -2 179554. 1613.46   2
   2  -4   2 182191. 3156.89   1
   2  -4  -2 180655. 2992.87   1
  -2  -4   3 13672.7 791.061   1
  -2  -4  -3 15350.6 834.992   1
   2   4   3 15821.8 788.642   2
   2   4  -3 14557.3 413.270   2
   2  -4  -3 14512.3 834.747   1
  -2  -4  -4 123802. 2391.89   1
   2   4  -4 122921. 1157.55   2
   2   4   4 123110. 2364.96   2
   2  -4  -4 119810. 2374.78   1
  -2  -4   4 119865. 2347.35   1
  -2  -4  -5 3993.35 440.483   1
   2   4  -5 3352.14 196.935   2
   2   4   5 3715.43 439.392   2
   2  -4  -5 4155.81 442.691   1
  -2  -4   5 4486.62 461.390   1
  -2  -4  -6 111775. 2309.30   1
   2   4  -6 111847. 1262.70   2
   2   4   6 111376. 2536.36   2
   2  -4   6 110599. 1777.53   2
   2  -4  -6 115640. 2280.16   1
  -2  -4   6 115722. 2356.73   1
  -2  -4   7 2086.10 327.394   1
  -2   4   7 2373.59 404.582   2
  -2  -4  -7 2219.29 328.124   1
   2   4   7 1868.32 356.839   2
   2  -4   7 2069.79 252.421   2
   2  -4  -7 1857.25 296.729   1
  -2  -4  -8 50793.9 1584.65   1
  -2   4   8 47333.7 1888.37   2
   2   4   8 53683.9 1942.08   2
   2  -4   8 49816.1 1326.91   2
   2  -4  -8 50788.1 1467.15   1
  -2  -4   8 51514.4 1607.32   1
  -2   4   9 1617.34 374.903   2
  -2  -4  -9 1205.49 264.081   1
   2   4   9 884.165 279.494   2
   2  -4   9 1048.77 215.193   2
   2  -4  -9 968.668 196.866   1
  -2  -4   9 1080.69 235.458   1
  -2  -4 -10 95458.8 2218.97   1
  -2   4  10 100264. 2966.02   2
   2   4  10 96206.5 2869.11   2
   2  -4  10 98204.4 2118.81   2
   2  -4 -10 94377.8 1924.69   1
  -2  -4  10 101263. 2307.54   1
  -2   4  11 910.950 318.111   2
  -2  -4 -11 1018.42 228.849   1
   2   4  11 1233.17 330.024   2
   2  -4  11 1365.59 268.454   2
  -2  -4  11 1026.57 237.769   1
  -2  -4 -12 34826.8 1360.46   1
  -2   4  12 34285.9 1871.64   2
   2   4  12 37863.1 1964.90   2
  -2   4  13 173.377 186.169   2
   2   4  13 962.106 337.698   2
  -2   4  14 31894.3 1943.38   2
   2   4  14 28421.6 1831.03   2
  -2   4  15 164.923 143.419   2
   2   4  15 138.543 170.899   2
  -2   4  16 9605.41 1144.07   2
   2   4  16 11331.6 1259.98   2
  -3  -4   0-3.68226 70.8749   1
   3   4   0 14.9792 50.6647   2
  -3  -4   1 11678.5 751.471   1
  -3  -4  -1 11490.4 746.213   1
   3   4   1 10807.8 625.355   2
  -3  -4   2 5471.47 517.950   1
  -3  -4  -2 5553.29 521.818   1
   3   4   2 5451.49 473.501   2
  -3  -4   3 412.414 163.937   1
  -3  -4  -3 266.638 115.084   1
   3   4   3 297.359 117.779   2
  -3  -4   4 7056.35 589.332   1
  -3  -4  -4 7216.03 603.862   1
   3   4   4 6422.67 572.226   2
  -3  -4   5 136.581 82.2923   1
   3   4  -5 65.8267 51.6374   2
  -3  -4  -5 70.1092 89.1336   1
   3   4   5 31.3764 65.0973   2
  -3  -4  -6 22770.8 1090.01   1
   3   4   6 20789.6 1138.84   2
  -3  -4   6 22018.8 1047.64   1
  -3  -4  -7 7105.92 624.156   1
   3   4   7 6336.23 661.043   2
   3  -4   7 8476.05 600.893   2
  -3  -4   7 6336.64 565.570   1
  -3  -4  -8 7931.25 663.462   1
   3   4   8 8360.51 799.526   2
   3  -4   8 8166.02 608.186   2
  -3  -4   8 8211.03 648.320   1
  -3  -4   9 1767.64 296.332   1
  -3  -4  -9 1494.59 302.930   1
   3   4   9 1304.13 333.042   2
   3  -4   9 1494.64 279.087   2
  -3  -4 -10 4013.55 486.931   1
   3  -4  10 4978.12 528.094   2
   3   4  10 4977.90 673.697   2
  -3  -4  10 4616.13 497.635   1
  -3  -4 -11 1660.72 319.353   1
   3   4  11 2165.29 478.913   2
   3  -4  11 1164.65 264.654   2
  -3  -4 -12 5894.47 606.368   1
   3   4  12 7878.26 914.483   2
  -3  -4 -13 88.3442 95.5495   1
   3   4  13 200.567 121.826   2
   3   4  14-56.2367 107.208   2
  -3   4 -14-190.860 121.484   1
   3   4  15 97.4649 196.184   2
  -4  -4   0 77910.4 2050.11   1
  -4  -4   1 6430.98 595.341   1
  -4  -4  -1 6443.74 595.667   1
   4   4   1 6740.28 563.634   2
  -4  -4  -2 132526. 2684.97   1
  -4  -4   2 132767. 2662.07   1
   4   4   2 134643. 2582.33   2
  -4  -4   3 1570.95 321.350   1
  -4  -4  -3 1366.09 305.781   1
   4   4   3 1178.09 271.164   2
  -4  -4   4 115399. 2492.33   1
  -4  -4  -4 118457. 2581.63   1
   4   4   4 116525. 2625.72   2
  -4  -4   5 4104.32 479.773   1
  -4  -4  -5 3729.79 482.029   1
   4   4   5 4509.09 548.118   2
  -4  -4   6 71698.4 1978.59   1
  -4  -4  -6 72939.1 2083.53   1
   4   4   6 74209.9 2287.17   2
  -4  -4   7 6935.49 617.575   1
  -4  -4  -7 6191.95 613.331   1
   4   4   7 7183.81 749.430   2
  -4  -4  -8 39754.3 1579.21   1
   4   4   8 42890.1 1880.16   2
   4  -4   8 37197.7 1470.62   2
  -4  -4   8 39760.3 1481.98   1
  -4  -4   9 1480.22 298.009   1
   4   4   9 1956.03 431.597   2
  -4  -4  -9 1762.23 376.760   1
   4  -4   9 1261.76 297.911   2
   4   4  10 54100.7 2291.16   2
   4  -4  10 56341.2 1925.32   2
  -4  -4 -10 55878.9 1916.78   1
  -4  -4  10 55487.3 1754.43   1
   4   4  11 522.111 259.208   2
  -4  -4 -11 417.056 221.590   1
   4  -4  11 310.690 156.470   2
  -4  -4 -12 25673.5 1347.64   1
   4   4  12 25973.1 1724.04   2
  -4   4 -12 24611.7 1245.28   1
  -4  -4 -13 211.424 140.324   1
   4   4  13 243.012 201.672   2
  -4   4 -13 96.6113 104.952   1
   4   4  14 17114.3 1513.24   2
  -4   4 -14 15864.5 1036.53   1
  -5  -4   0-46.7454 103.374   1
  -5  -4   1 115.959 123.639   1
  -5  -4  -1 398.782 210.325   1
  -5  -4   2 2164.42 364.129   1
  -5  -4  -2 2391.91 390.493   1
   5   4   2 2385.48 386.383   2
  -5  -4   3 1847.74 336.532   1
  -5  -4  -3 1682.59 355.900   1
   5   4   3 2107.59 377.798   2
  -5  -4   4 10956.3 812.458   1
  -5  -4  -4 10721.9 827.938   1
   5   4   4 10280.4 862.518   2
  -5  -4   5 850.678 235.033   1
   5   4   5 655.800 247.670   2
  -5  -4  -5 1084.65 279.701   1
  -5  -4   6 7800.43 696.848   1
  -5  -4  -6 9013.55 785.775   1
   5   4   6 8608.70 841.548   2
  -5  -4   7 4610.04 533.596   1
   5   4   7 3804.52 577.792   2
  -5  -4  -7 3795.13 510.181   1
  -5  -4   8 11197.1 823.565   1
  -5  -4  -8 10209.4 848.496   1
   5   4   8 9223.11 928.437   2
  -5   4  -9 497.994 210.026   1
  -5  -4   9 436.103 165.850   1
   5   4   9 356.523 219.675   2
  -5  -4  -9 127.151 95.6620   1
   5  -4   9 345.344 176.436   2
  -5  -4 -10 6433.06 696.063   1
   5   4  10 6690.86 840.802   2
   5  -4  10 7582.48 775.554   2
  -5   4 -10 6056.93 636.749   1
   5   4  11 28.2959 119.645   2
  -5  -4 -11 76.2739 118.831   1
   5  -4  11 150.961 137.089   2
  -5   4 -11 68.9100 100.472   1
  -5   4 -12 159.957 123.599   1
   5   4  12 217.565 187.012   2
  -5  -4 -12 244.593 169.430   1
   5   4  13 1541.44 474.422   2
  -5  -4 -13 1688.67 373.279   1
  -5   4 -13 1759.11 371.793   1
  -5   4 -14 812.829 271.559   1
  -5   4 -15 369.345 182.547   1
  -6  -4   0 45979.6 1785.50   1
  -6  -4   1 741.828 257.424   1
  -6  -4  -1 633.184 227.503   1
  -6  -4   2 62780.6 2079.48   1
  -6  -4  -2 63418.2 2114.98   1
  -6  -4   3 2381.23 423.367   1
  -6   4   3 2195.46 363.169   1
  -6  -4  -3 2552.62 444.164   1
   6   4   3 2498.41 479.757   2
  -6   4  -3 2194.42 388.654   1
  -6  -4   4 67295.2 2125.50   1
  -6  -4  -4 68336.3 2235.27   1
   6   4   4 70190.0 2383.72   2
  -6   4   4 67869.7 1859.97   1
  -6   4  -4 67902.1 2080.63   1
  -6  -4   5 6387.35 666.670   1
  -6  -4  -5 6049.85 681.521   1
   6   4   5 5542.61 720.622   2
  -6   4   5 6134.52 549.237   1
  -6   4  -5 6100.28 639.275   1
  -6  -4   6 39484.0 1638.69   1
  -6  -4  -6 38594.0 1732.44   1
   6   4   6 39653.4 1906.83   2
  -6   4   6 37634.2 1337.96   1
  -6   4  -6 37306.6 1583.43   1
  -6   4   7 876.663 209.648   1
  -6   4  -7 1277.58 311.617   1
  -6  -4   7 1599.66 330.485   1
   6   4   7 918.325 331.626   2
  -6  -4  -7 1302.57 361.392   1
  -6  -4   8 28905.6 1400.49   1
  -6  -4  -8 28164.0 1501.89   1
   6   4   8 30082.7 1765.01   2
  -6   4  -8 28794.4 1435.19   1
  -6   4  -9 6376.88 693.010   1
   6   4   9 5141.81 750.121   2
  -6  -4  -9 5067.41 659.959   1
  -6  -4 -10 35389.9 1734.43   1
   6   4  10 34092.8 2010.23   2
   6  -4  10 33825.9 1772.48   2
  -6   4 -10 35740.7 1660.72   1
  -6   4 -11 1651.21 400.963   1
  -6  -4 -11 1744.49 414.389   1
   6  -4  11 1361.22 373.774   2
  -6  -4 -12 20382.9 1364.60   1
   6   4  12 21743.4 1709.30   2
  -6   4 -12 21480.2 1334.33   1
  -6   4 -13 1703.23 400.046   1
  -6  -4 -13 1108.76 356.394   1
  -6  -4 -14 10340.5 1005.21   1
  -7   4   0-180.747 124.457   1
  -7  -4   0-460.933 203.086   1
  -7   4   1 3015.05 434.192   1
  -7   4  -1 2639.30 419.654   1
  -7  -4   1 2777.10 452.846   1
  -7  -4  -1 2915.35 481.778   1
  -7   4  -2 946.807 252.619   1
  -7  -4   2 314.476 184.010   1
  -7  -4  -2 627.282 240.367   1
  -7   4   3 9.24719 82.0248   1
  -7   4  -3 65.4668 117.390   1
  -7  -4   3 147.284 122.363   1
  -7  -4  -3 174.358 123.470   1
  -7   4  -4 1446.65 329.775   1
  -7  -4   4 1603.76 376.243   1
  -7   4   4 1229.68 269.576   1
   7   4   4 1157.60 346.820   2
  -7  -4  -4 1545.65 378.117   1
  -7   4  -5 51.2637 98.5866   1
  -7   4   5 173.179 114.215   1
  -7  -4   5 241.327 148.320   1
   7   4   5 133.611 139.335   2
  -7  -4  -5 36.3227 125.933   1
  -7  -4   6 3187.80 494.720   1
  -7   4   6 4037.33 474.524   1
   7   4   6 2990.28 576.397   2
  -7  -4  -6 4548.45 637.039   1
  -7   4  -6 4475.31 587.102   1
  -7  -4   7 1740.66 366.840   1
   7   4   7 2083.91 488.385   2
  -7   4  -7 2188.70 429.972   1
  -7  -4  -7 1646.37 389.422   1
  -7   4  -8 1846.66 403.392   1
   7   4   8 1448.32 446.789   2
  -7  -4  -8 1446.58 369.505   1
  -7   4  -9 453.593 229.598   1
   7   4   9-29.8879 118.342   2
  -7  -4  -9 471.720 193.490   1
   7   4  10 136.186 208.314   2
  -7  -4 -10 101.776 135.832   1
   7  -4  11 239.938 217.623   2
  -8  -4   0 25863.9 1546.36   1
  -8   4   0 26641.9 1426.27   1
  -8   4   1 269.769 199.719   1
  -8   4  -1-13.2974 117.348   1
  -8  -4   1 564.184 239.437   1
  -8  -4  -1 233.163 168.322   1
  -8  -4  -2 31097.6 1703.77   1
  -8   4   2 32207.3 1523.44   1
  -8   4  -2 32383.1 1631.94   1
  -8  -4   2 32086.1 1706.93   1
  -8   4   3 859.029 271.103   1
  -8   4  -3 862.080 320.057   1
  -8  -4   3 771.113 320.410   1
  -8  -4  -3 723.484 301.952   1
  -8  -4   4 39729.2 1873.93   1
  -8  -4  -4 38034.0 1907.46   1
   8   4   4 38144.7 2094.00   2
  -8   4   4 40179.4 1654.83   1
  -8   4  -4 40031.7 1839.31   1
  -8   4  -5 715.840 275.313   1
  -8  -4   5 780.863 275.053   1
   8   4   5 660.094 338.618   2
  -8  -4  -5 981.134 359.347   1
  -8   4   5 638.031 229.131   1
  -8  -4   6 22747.4 1404.56   1
   8   4   6 25136.3 1753.56   2
   8   4   7 899.269 403.175   2
  -9   4   2-376.300 187.800   1
  -9   4   3-40.1384 93.5709   1
   0  -5   0 289.645 147.604   1
   0  -5   0 111.538 49.9159   2
   0  -5  -1 5472.91 375.626   2
   0  -5   1 5451.22 247.632   2
   0  -5   1 4821.99 531.378   1
   0  -5  -1 5348.51 549.483   1
   0  -5  -2 2787.22 395.109   1
   0   5   2 2228.19 280.704   2
   0  -5   2 2581.36 390.159   1
   0  -5  -3 78.8492 89.1326   1
   0   5   3 188.246 99.5375   2
   0  -5   3 301.298 132.253   1
   0   5   4 19641.0 964.898   2
   0  -5   4 19468.4 1096.75   1
   0  -5  -4 19610.1 1035.80   1
   0  -5  -5 3219.38 420.804   1
   0   5   5 3620.49 440.454   2
   0  -5   5 2859.11 418.297   1
   0   5   6 46121.1 1679.21   2
   0  -5   6 44259.4 1695.74   1
   0  -5  -6 45888.6 1578.52   1
   0  -5  -7 3330.40 427.270   1
   0   5   7 3386.84 477.276   2
   0  -5   7 2740.61 428.947   1
   0   5   8 4768.78 602.502   2
   0  -5   8 3710.50 503.476   1
   0  -5  -8 3486.94 441.440   1
   0  -5  -9 1582.84 300.115   1
   0   5   9 2085.65 416.422   2
   0  -5   9 1312.94 290.335   1
   0   5  10 7915.79 848.095   2
   0  -5 -10 7009.37 622.530   1
   0   5  11 6090.99 759.997   2
   0  -5 -11 6350.19 582.512   1
   0   5  12 13.8461 180.691   2
   0   5  13-3.86797 109.619   2
   0   5  14 1034.21 356.531   2
   0   5  15 223.588 192.949   2
  -1  -5   0 251.683 187.158   1
   1   5   0 218.242 94.0040   2
   1  -5   0 30.1098 74.0890   2
   1  -5   0 296.647 194.502   1
   1   5   1 175633. 2199.84   2
   1  -5   1 171928. 1961.33   2
   1  -5   1 170420. 3232.84   1
   1  -5  -1 172860. 3197.14   1
  -1  -5   1 173495. 3123.74   1
  -1  -5  -1 170381. 3073.69   1
   1   5   2 5526.41 449.080   2
   1  -5   2 4971.97 291.010   2
   1  -5   2 4752.97 547.335   1
   1  -5  -2 5424.71 565.885   1
  -1  -5   2 5620.49 575.551   1
  -1  -5  -2 4809.60 518.842   1
   1   5   3 119534. 2212.91   2
   1  -5   3 118416. 1164.49   2
   1  -5   3 119970. 2768.12   1
   1  -5  -3 123158. 2656.93   1
  -1  -5   3 119051. 2629.52   1
  -1  -5  -3 124192. 2603.95   1
  -1  -5   4 878.245 270.799   1
  -1  -5  -4 770.254 218.028   1
  -1   5   4 506.567 180.925   2
   1   5   4 485.330 161.471   2
   1  -5   4 668.515 261.147   1
   1  -5  -4 1188.21 285.785   1
  -1   5   5 176919. 3176.40   2
   1   5   5 176753. 3077.75   2
   1  -5   5 179452. 3477.75   1
   1  -5  -5 179109. 3165.64   1
  -1  -5   5 179436. 3308.39   1
  -1  -5  -5 175119. 3109.08   1
  -1  -5  -6 2088.13 343.115   1
  -1   5   6 1461.80 310.735   2
   1   5   6 2544.40 405.262   2
   1  -5   6 2008.24 375.077   1
   1  -5  -6 2306.22 363.113   1
  -1  -5   6 2189.01 373.745   1
  -1   5   7 36430.5 1589.88   2
   1   5   7 35102.7 1534.54   2
   1  -5   7 36100.6 1593.00   1
  -1  -5   7 36839.2 1541.09   1
   1  -5  -7 36263.3 1413.25   1
  -1  -5  -7 35728.2 1414.43   1
  -1   5   8 12742.2 990.317   2
   1   5   8 11213.3 912.968   2
  -1  -5   8 12347.7 903.132   1
   1  -5  -8 12260.5 824.117   1
  -1  -5  -8 11884.1 820.939   1
  -1   5   9 65235.9 2327.68   2
   1   5   9 63166.5 2266.61   2
  -1  -5   9 65617.3 2102.29   1
   1  -5  -9 65418.1 1878.22   1
  -1  -5  -9 65564.9 1938.24   1
  -1  -5 -10 230.548 146.848   1
  -1   5  10 362.404 200.703   2
   1   5  10 275.032 190.420   2
  -1  -5  10 241.794 127.093   1
   1  -5 -10 119.139 104.314   1
  -1   5  11 50064.5 2215.00   2
   1   5  11 48333.9 2163.47   2
  -1  -5  11 48548.2 1830.93   1
  -1  -5 -11 46218.7 1645.38   1
  -1   5  12 9.06095 127.548   2
   1   5  12 47.9002 115.717   2
  -1   5  13 11588.2 1154.02   2
   1   5  13 9955.10 1063.77   2
  -1   5  14 109.840 155.617   2
   1   5  14 113.266 129.016   2
  -1   5  15 14489.1 1379.46   2
   1   5  15 13683.2 1350.02   2
  -2  -5   0 8983.87 723.666   1
   2   5   0 10753.9 521.231   2
   2  -5   0 9225.49 771.869   1
  -2  -5   1 4995.69 533.373   1
  -2  -5  -1 4773.35 522.528   1
   2   5  -1 5472.69 321.036   2
   2   5   1 5030.49 405.039   2
   2  -5   1 5526.12 601.524   1
   2  -5  -1 4818.09 555.826   1
  -2  -5  -2 5607.60 566.175   1
   2   5  -2 5665.96 254.268   2
   2   5   2 6767.73 510.467   2
   2  -5   2 6383.03 655.417   1
   2  -5  -2 6572.66 639.653   1
  -2  -5   2 6323.84 599.736   1
  -2  -5   3 2405.95 373.900   1
  -2  -5  -3 1807.74 318.129   1
   2   5   3 1909.37 292.867   2
   2  -5   3 2322.22 404.806   1
   2  -5  -3 2431.34 387.335   1
  -2  -5  -4 10506.6 783.362   1
   2   5   4 9099.08 679.114   2
   2  -5  -4 10405.7 793.716   1
  -2  -5   4 9731.01 761.183   1
  -2  -5   5 3281.98 452.161   1
  -2  -5  -5 2990.95 418.776   1
   2   5   5 2894.75 409.941   2
   2  -5  -5 2932.93 430.759   1
  -2  -5  -6 20498.4 1105.13   1
   2   5   6 21001.5 1158.63   2
   2  -5   6 22817.4 736.774   2
   2  -5  -6 22883.2 1154.22   1
  -2  -5   6 21689.7 1161.23   1
  -2  -5  -7 1303.90 289.927   1
   2   5   7 1052.81 283.850   2
   2  -5  -7 1222.97 272.430   1
  -2  -5   7 1539.08 309.360   1
  -2  -5  -8 11427.6 838.348   1
   2   5   8 10195.1 891.503   2
   2  -5  -8 9634.72 744.354   1
  -2  -5   8 11167.6 846.338   1
  -2  -5  -9 6114.49 614.722   1
   2   5   9 6405.33 742.788   2
   2  -5  -9 5933.26 565.456   1
  -2  -5   9 6348.57 647.745   1
  -2   5   9 5523.48 698.133   2
  -2  -5 -10 221.742 113.847   1
   2   5  10 347.802 179.970   2
  -2  -5  10 15.8805 132.529   1
  -2  -5 -11 1000.67 251.771   1
  -2   5  11 732.767 299.321   2
   2   5  11 811.971 300.453   2
  -2  -5  11 1335.46 305.848   1
  -2  -5 -12 1474.67 316.806   1
  -2   5  12 1787.51 440.791   2
   2   5  12 1741.11 433.290   2
  -2   5  13 305.421 180.280   2
   2   5  13 73.4701 129.858   2
  -2   5  14-193.332 181.394   2
   2   5  14 405.102 244.963   2
  -2   5  15 1429.74 450.345   2
   2   5  15 532.211 293.378   2
  -3  -5   0 251.629 156.772   1
   3   5   0 28.1645 56.3273   2
  -3  -5   1 38913.7 1541.04   1
  -3  -5  -1 37204.0 1507.00   1
   3   5   1 37117.6 1198.36   2
   3   5  -1 37557.5 1031.20   2
  -3  -5   2 1086.75 280.141   1
  -3  -5  -2 1224.25 274.573   1
   3   5   2 1652.16 278.067   2
   3   5  -2 1321.27 180.450   2
  -3  -5   3 34666.4 1463.31   1
  -3  -5  -3 33266.9 1431.74   1
   3   5   3 35651.8 1324.43   2
   3   5  -3 33569.7 820.586   2
  -3  -5   4 2420.30 410.445   1
  -3  -5  -4 1663.57 343.350   1
   3   5   4 1699.57 322.217   2
  -3  -5  -5 85372.3 2328.69   1
   3   5   5 86013.8 2313.75   2
  -3  -5   5 86072.5 2324.63   1
  -3  -5  -6 6955.84 671.719   1
   3   5   6 7408.48 713.755   2
  -3  -5   6 7295.96 682.331   1
  -3  -5  -7 25874.7 1305.82   1
   3   5   7 25777.2 1396.90   2
   3  -5   7 25800.1 1009.42   2
  -3  -5   7 26418.4 1312.48   1
  -3  -5   8 1555.06 336.593   1
  -3  -5  -8 956.505 282.302   1
   3   5   8 1304.07 345.734   2
  -3  -5  -9 66398.6 2131.78   1
   3   5   9 66802.2 2455.46   2
  -3  -5   9 65782.1 2111.98   1
  -3  -5 -10 379.260 215.564   1
   3   5  10 639.234 297.932   2
  -3  -5  10 652.812 220.662   1
  -3  -5 -11 65377.7 2159.27   1
   3   5  11 69963.5 2723.15   2
  -3  -5 -12 1104.69 300.329   1
   3   5  12 1253.25 396.735   2
   3   5  13 30137.9 1937.80   2
   3   5  14-45.4081 126.042   2
  -4  -5   0 761.361 233.911   1
   4   5   0 412.804 143.497   2
  -4  -5   1 1210.65 296.468   1
  -4  -5  -1 2465.81 421.271   1
   4   5   1 2431.22 353.210   2
   4   5  -1 2173.53 295.835   2
  -4  -5   2 3138.98 460.539   1
   4   5  -2 3290.25 360.749   2
  -4  -5  -2 3361.90 475.601   1
   4   5   2 3254.78 418.756   2
  -4  -5   3 2668.16 432.958   1
  -4  -5  -3 2670.25 435.451   1
   4   5   3 2863.33 409.723   2
  -4  -5   4 6621.18 667.957   1
  -4  -5  -4 5978.86 641.973   1
   4   5   4 6080.20 623.841   2
  -4  -5   5 3451.58 476.088   1
  -4  -5  -5 3046.93 458.340   1
   4   5   5 3087.29 479.194   2
  -4  -5   6 8097.77 743.876   1
  -4  -5  -6 7874.32 743.229   1
   4   5   6 6149.17 675.956   2
  -4  -5   7 846.424 248.366   1
  -4  -5  -7 1564.51 336.305   1
   4   5   7 970.794 291.470   2
  -4  -5   8 1029.60 269.080   1
  -4  -5  -8 838.232 261.936   1
   4   5   8 617.674 239.157   2
  -4  -5   9 2016.99 378.728   1
  -4  -5  -9 1357.30 326.381   1
   4   5   9 1835.49 441.749   2
  -4  -5  10 704.996 239.024   1
  -4  -5 -10 818.335 281.196   1
   4   5  10 560.692 282.459   2
  -4  -5 -11 83.6662 122.613   1
   4   5  11 785.674 298.686   2
  -4  -5 -12 912.653 275.231   1
   4   5  12 833.665 363.500   2
  -4  -5 -13 507.646 194.535   1
   4   5  13 430.773 295.479   2
  -4   5 -14 756.225 249.950   1
  -5  -5   0 635.946 263.939   1
   5   5   0 484.790 228.390   2
  -5  -5   1 125489. 3015.61   1
  -5  -5  -1 124931. 3022.31   1
   5   5   1 127122. 2752.90   2
  -5  -5   2 4376.21 594.153   1
  -5  -5  -2 3592.11 540.292   1
   5   5   2 3535.88 506.690   2
  -5  -5   3 101460. 2714.37   1
  -5  -5  -3 98640.0 2725.11   1
   5   5   3 102210. 2640.43   2
  -5  -5   4 679.760 255.892   1
  -5  -5  -4 1093.90 347.938   1
   5   5   4 669.419 267.594   2
  -5  -5   5 100780. 2710.09   1
  -5  -5  -5 101398. 2806.19   1
   5   5   5 101944. 2814.22   2
  -5  -5   6 718.472 233.087   1
  -5  -5  -6 1139.81 332.395   1
   5   5   6 630.797 253.057   2
  -5  -5   7 27099.1 1417.00   1
  -5  -5  -7 28492.5 1520.99   1
   5   5   7 26783.8 1558.59   2
  -5  -5  -8 5908.28 704.669   1
   5   5   8 6800.31 836.798   2
  -5  -5   8 5710.71 653.666   1
  -5  -5  -9 30140.1 1585.00   1
   5   5   9 27327.8 1690.29   2
  -5  -5   9 29657.5 1479.81   1
  -5  -5 -10 1928.92 412.710   1
   5   5  10 1562.13 431.923   2
  -5  -5 -11 19223.9 1309.21   1
   5   5  11 20016.4 1569.17   2
  -5   5 -11 19630.5 1237.43   1
  -5  -5 -12 113.357 132.123   1
   5   5  12 186.269 194.715   2
  -5   5 -12 58.7680 129.539   1
  -5  -5 -13 3716.43 584.520   1
  -5   5 -13 4083.76 568.507   1
  -6  -5   0 10499.2 922.734   1
  -6  -5   1 164.532 137.980   1
  -6  -5  -1 317.829 181.534   1
   6   5   1 492.087 209.044   2
  -6  -5   2 1466.47 340.127   1
  -6  -5  -2 1306.19 348.774   1
   6   5   2 1103.02 304.934   2
  -6  -5   3 584.433 219.642   1
  -6  -5  -3 498.931 238.529   1
   6   5   3 437.007 214.323   2
  -6  -5   4 539.632 226.732   1
  -6  -5  -4 762.194 292.845   1
   6   5   4 634.221 240.067   2
  -6  -5   5 3031.63 515.110   1
  -6  -5  -5 3103.58 522.340   1
   6   5   5 2114.94 478.617   2
  -6  -5   6 3838.96 565.132   1
  -6  -5  -6 4573.92 647.698   1
   6   5   6 4034.45 626.734   2
  -6  -5   7-162.949 142.293   1
  -6  -5  -7 378.368 249.239   1
   6   5   7 560.161 287.400   2
  -6  -5   8 144.778 110.373   1
  -6  -5  -8-32.5497 106.655   1
   6   5   8-128.679 155.454   2
  -6   5  -8 74.9324 104.174   1
  -6   5  -9 92.6411 117.980   1
  -6  -5  -9 346.939 196.563   1
   6   5   9 321.802 248.966   2
  -6   5 -10-78.7013 138.775   1
  -6  -5 -10 112.510 142.775   1
  -6  -5 -11 684.318 314.529   1
   6   5  11 1157.37 397.042   2
  -7   5   0-3.69289 86.1450   1
  -7  -5   0-181.509 159.237   1
  -7  -5   1 20507.3 1359.61   1
  -7  -5  -1 21261.1 1397.31   1
   7   5   1 21015.9 1360.25   2
  -7   5   1 21208.8 1228.08   1
  -7   5  -1 19550.9 1201.94   1
  -7   5   2 906.042 273.062   1
  -7   5  -2 928.795 285.403   1
  -7  -5   2 1236.70 354.326   1
  -7  -5  -2 1432.59 395.314   1
   7   5   2 904.090 294.725   2
  -7  -5   3 23794.9 1461.45   1
  -7  -5  -3 24278.8 1519.59   1
   7   5   3 24971.4 1555.57   2
  -7   5   3 23794.3 1271.77   1
  -7   5  -3 23227.4 1347.84   1
  -7   5   4 1154.45 288.586   1
  -7  -5   4 1199.17 364.003   1
  -7   5  -4 1146.70 316.679   1
  -7  -5  -4 1132.58 371.477   1
   7   5   4 648.770 291.358   2
  -7  -5   5 34410.9 1752.82   1
  -7  -5  -5 33361.4 1805.08   1
   7   5   5 34055.8 1893.08   2
  -7   5   5 30643.7 1403.41   1
  -7   5  -5 34386.0 1672.15   1
  -7   5  -6 211.345 225.154   1
  -7  -5   6 352.699 206.339   1
  -7  -5  -6 572.815 296.058   1
   7   5   6 181.610 237.953   2
  -7  -5   7 19141.3 1307.46   1
  -7  -5  -7 20612.4 1449.54   1
   7   5   7 21729.4 1588.14   2
  -7   5  -7 18054.0 1251.18   1
   7   5   8 319.135 221.083   2
   7   5   9 28573.1 1941.94   2
  -8  -5   0 676.459 276.899   1
  -8   5   0 508.675 222.615   1
  -8  -5   1 568.867 250.978   1
  -8   5   1 630.685 236.332   1
  -8   5  -1 63.0131 110.841   1
  -8  -5   2 79.9939 132.995   1
  -8   5   2 129.244 126.635   1
  -8  -5   3 187.887 165.028   1
  -8   5   3 572.719 217.695   1
   8   5   3 134.479 162.219   2
  -8  -5   4 162.483 161.862   1
  -8   5   4 120.845 117.087   1
   8   5   4 6.35181 93.7045   2
  -8  -5   5-134.998 160.530   1
   8   5   5 499.975 260.717   2
  -8  -5   6 191.971 156.446   1
   8   5   6 148.623 156.037   2
   0  -6   0 119120. 2928.50   1
   0  -6   1 2873.04 468.377   1
   0  -6  -1 2697.49 461.134   1
   0  -6   2 187059. 3722.86   1
   0  -6  -2 182703. 3576.37   1
   0   6   3 8961.15 641.942   2
   0  -6   3 9047.41 838.094   1
   0  -6  -3 10069.6 841.670   1
   0   6   4 54834.6 1699.55   2
   0  -6   4 53705.1 2041.23   1
   0  -6  -4 55826.3 1969.93   1
   0  -6  -5 2975.71 471.729   1
   0   6   5 2541.39 395.321   2
   0  -6   5 3118.78 503.730   1
   0   6   6 142658. 3081.17   2
   0  -6   6 141866. 3383.27   1
   0  -6  -6 145205. 3175.19   1
   0   6   7 13734.0 1007.91   2
   0  -6   7 12531.7 1022.51   1
   0  -6  -7 13750.6 980.240   1
   0   6   8 38117.4 1766.91   2
   0  -6   8 39309.8 1818.92   1
   0  -6  -8 40117.1 1675.28   1
   0  -6  -9 459.990 200.247   1
   0   6   9 654.018 253.121   2
   0  -6   9 456.387 215.075   1
   0   6  10 37065.8 1890.53   2
   0  -6  10 38179.7 1826.33   1
   0  -6 -10 37117.3 1606.84   1
   0   6  11 342.448 194.215   2
   0   6  12 11195.0 1140.32   2
   0   6  13-16.6523 100.321   2
   0   6  14 24404.6 1791.92   2
  -1  -6   0-61.2511 103.423   1
   1  -6   0 52.7189 97.5313   1
  -1  -6   1 101.204 116.740   1
  -1  -6  -1 210.270 161.852   1
   1   6   1 293.565 87.7450   2
   1  -6   1 140.479 126.424   1
   1  -6  -1 132.190 133.281   1
  -1  -6   2 274.026 148.689   1
  -1  -6  -2 311.331 149.070   1
   1   6   2 227.561 83.6668   2
   1  -6   2 491.317 210.099   1
   1  -6  -2 453.348 185.632   1
   1   6   3 7594.04 586.279   2
   1  -6   3 7508.66 769.789   1
   1  -6  -3 8974.23 804.937   1
  -1  -6   3 7832.25 761.243   1
  -1  -6  -3 9264.35 802.971   1
  -1  -6  -4 3654.07 514.523   1
   1   6   4 3944.19 459.170   2
   1  -6   4 3993.73 570.195   1
   1  -6  -4 5682.29 632.956   1
  -1  -6   4 4364.43 577.259   1
  -1  -6  -5 179.317 120.132   1
   1   6   5 32.0356 84.3464   2
   1  -6   5-36.6929 101.655   1
   1  -6  -5 8.71537 81.9192   1
  -1  -6   5 78.2573 114.533   1
  -1  -6  -6 3625.84 508.747   1
  -1   6   6 3235.18 480.892   2
   1   6   6 3674.54 490.767   2
   1  -6   6 2992.66 504.527   1
   1  -6  -6 3173.41 482.921   1
  -1  -6   6 3064.70 485.265   1
  -1  -6  -7 173.741 138.994   1
  -1   6   7 145.435 91.1006   2
   1   6   7-24.6225 163.199   2
   1  -6   7 245.182 135.695   1
  -1  -6   7 379.316 231.565   1
   1  -6  -7 93.8032 103.341   1
  -1   6   8 6262.61 727.764   2
   1   6   8 5744.31 685.063   2
  -1  -6   8 5333.95 665.296   1
   1  -6  -8 5597.37 628.273   1
  -1  -6  -8 5889.72 645.413   1
  -1  -6  -9 74.2794 74.6821   1
  -1   6   9 154.068 162.959   2
   1   6   9 252.802 165.832   2
  -1  -6   9 375.920 180.018   1
   1  -6  -9-18.3352 76.6883   1
  -1  -6 -10 1245.05 308.521   1
  -1   6  10 927.272 318.018   2
   1   6  10 958.371 321.351   2
  -1  -6  10 1432.48 332.371   1
   1  -6 -10 1760.53 352.129   1
  -1  -6 -11 396.591 197.636   1
  -1   6  11 392.881 158.348   2
   1   6  11 153.894 154.559   2
  -1  -6  11 359.883 188.981   1
  -1   6  12 1109.76 364.365   2
   1   6  12 1525.40 411.181   2
  -1   6  13 66.4799 148.656   2
   1   6  13 3.66561 104.166   2
  -1   6  14 89.0845 154.822   2
   1   6  14 231.954 175.994   2
   2  -6   0 50399.3 1994.17   1
  -2  -6   0 50762.7 1914.67   1
  -2  -6   1 1969.03 394.049   1
  -2  -6  -1 2001.76 389.130   1
   2   6   1 2117.67 277.528   2
   2  -6   1 1943.65 429.063   1
   2  -6  -1 2801.03 480.917   1
   2   6   2 72547.9 1730.94   2
   2  -6   2 78568.6 2527.63   1
   2  -6  -2 79410.9 2469.71   1
  -2  -6   2 75215.3 2343.68   1
  -2  -6  -2 76347.6 2322.69   1
  -2  -6   3 1423.81 343.443   1
  -2  -6  -3 1407.94 336.529   1
   2   6   3 1296.10 253.485   2
   2  -6   3 1503.23 370.729   1
   2  -6  -3 1408.08 329.057   1
  -2  -6  -4 25796.8 1364.08   1
   2   6   4 23918.7 1138.76   2
   2  -6   4 24701.4 1454.63   1
   2  -6  -4 27010.5 1422.12   1
  -2  -6   4 23633.2 1335.32   1
  -2  -6  -5 15523.1 1065.29   1
   2   6   5 17032.9 1022.54   2
   2  -6  -5 14769.1 1047.38   1
  -2  -6   5 15360.6 1091.80   1
  -2  -6  -6 84818.5 2487.18   1
   2   6   6 86572.7 2430.24   2
   2  -6  -6 81074.6 2430.45   1
  -2  -6   6 85112.2 2574.81   1
  -2  -6  -7 2296.19 417.915   1
   2   6   7 3003.67 489.280   2
   2  -6  -7 2683.37 449.603   1
  -2  -6   7 2899.29 494.968   1
  -2  -6  -8 37038.4 1661.27   1
   2   6   8 38210.3 1784.83   2
   2  -6  -8 36398.1 1615.57   1
  -2  -6   8 35573.3 1694.99   1
  -2  -6  -9 737.657 268.663   1
   2   6   9 824.243 306.380   2
   2  -6  -9 863.833 248.291   1
  -2  -6   9 1149.06 312.623   1
  -2  -6 -10 37257.8 1696.84   1
   2   6  10 41261.7 2015.15   2
  -2  -6  10 37863.4 1790.22   1
  -2  -6 -11 250.323 152.166   1
   2   6  11 115.857 199.168   2
  -2  -6  11 379.682 219.247   1
   2   6  12 24756.5 1690.46   2
  -2   6  13 1875.28 489.404   2
   2   6  13 1522.00 441.583   2
  -2   6  14 39882.4 2332.32   2
   2   6  14 40393.2 2328.01   2
  -3  -6   0-11.0959 87.9511   1
  -3  -6   1 2548.85 445.053   1
  -3  -6  -1 3313.36 506.845   1
  -3  -6   2 995.554 292.869   1
  -3  -6  -2 660.477 226.514   1
   3   6   2 719.393 195.103   2
  -3  -6   3 326.845 156.294   1
  -3  -6  -3 509.835 193.197   1
   3   6   3 503.812 182.313   2
  -3  -6   4 349.711 191.322   1
  -3  -6  -4 994.973 279.321   1
   3   6   4 689.086 216.072   2
  -3  -6   5 1250.51 309.500   1
  -3  -6  -5 1656.77 370.750   1
   3   6   5 1568.04 330.648   2
  -3  -6  -6 17749.1 1179.84   1
   3   6   6 20313.1 1230.77   2
  -3  -6   6 18867.6 1224.95   1
  -3  -6   7 535.900 227.997   1
  -3  -6  -7 142.508 123.871   1
   3   6   7 856.941 280.412   2
  -3  -6  -8 797.269 269.974   1
   3   6   8 618.330 201.558   2
  -3  -6   8 397.378 196.165   1
  -3  -6  -9 423.965 205.918   1
   3   6   9-40.3590 170.697   2
  -3  -6   9 78.2852 143.854   1
  -3  -6 -10 906.166 287.494   1
   3   6  10 977.561 324.542   2
  -3  -6  10 569.092 233.944   1
  -3  -6 -11 978.396 293.122   1
   3   6  11 1309.83 392.223   2
  -3  -6 -12 3313.91 551.494   1
   3   6  12 4161.73 709.118   2
   3   6  13 463.826 259.162   2
  -4  -6   0 74480.3 2452.21   1
  -4  -6   1 3398.08 535.138   1
  -4  -6  -1 3197.95 516.120   1
  -4  -6   2 62069.6 2229.22   1
  -4  -6  -2 59360.8 2187.75   1
  -4  -6   3 5408.40 667.640   1
  -4  -6  -3 5549.24 677.507   1
   4   6   3 5715.58 593.130   2
  -4  -6  -4 40980.6 1833.73   1
   4   6   4 39807.3 1640.34   2
  -4  -6   4 40229.7 1807.16   1
  -4  -6   5 2047.67 425.246   1
  -4  -6  -5 2157.14 433.368   1
   4   6   5 2159.06 424.439   2
  -4  -6  -6 57109.0 2197.43   1
   4   6   6 55344.3 2120.63   2
  -4  -6   6 58122.7 2191.19   1
  -4  -6  -7 8846.16 871.851   1
   4   6   7 9370.63 920.203   2
  -4  -6   7 8111.11 836.126   1
  -4  -6  -8 33923.9 1723.51   1
   4   6   8 37035.2 1885.25   2
  -4  -6   8 36336.1 1766.20   1
  -4  -6   9 1561.83 372.379   1
  -4  -6  -9 2243.12 458.560   1
   4   6   9 2152.84 509.814   2
  -4  -6 -10 23109.8 1453.93   1
   4   6  10 21973.4 1574.54   2
  -4  -6  10 21723.5 1373.15   1
  -4  -6 -11 199.566 161.142   1
   4   6  11 1254.48 397.779   2
  -4  -6 -12 16369.0 1249.31   1
   4   6  12 17801.8 1527.53   2
  -5  -6   0 123.726 201.635   1
  -5  -6   1 743.834 256.059   1
  -5  -6  -1 961.468 301.424   1
  -5  -6   2 1905.53 413.675   1
  -5  -6  -2 2163.83 448.756   1
  -5  -6  -3 5647.22 723.764   1
  -5  -6   3 5323.89 676.926   1
  -5  -6   4 6061.27 729.232   1
  -5  -6  -4 6117.25 748.830   1
   5   6   4 5704.31 662.029   2
  -5  -6   5 1031.09 317.260   1
  -5  -6  -5 548.454 255.662   1
   5   6   5 539.482 225.454   2
  -5  -6   6 1068.41 326.975   1
  -5  -6  -6 665.122 256.100   1
   5   6   6 352.019 187.745   2
  -5  -6   7 619.355 224.071   1
  -5  -6  -7 397.088 239.381   1
   5   6   7 696.638 268.002   2
  -5  -6  -8 7700.37 864.836   1
   5   6   8 7637.26 891.568   2
  -5  -6   8 8262.57 868.963   1
  -5  -6   9 32.9633 93.9307   1
  -5  -6  -9 373.862 205.783   1
   5   6   9 219.886 184.720   2
  -5  -6 -10 2503.78 510.480   1
   5   6  10 2698.07 579.857   2
  -5  -6 -11-600.957 257.012   1
   5   6  11 14.3856 106.361   2
  -5  -6 -12 102.740 125.263   1
  -6  -6   0 69850.4 2578.62   1
  -6  -6   1 808.870 319.996   1
  -6  -6  -1 1293.19 385.231   1
  -6  -6   2 43888.8 2035.59   1
  -6  -6  -2 48723.5 2173.22   1
  -6  -6   3 516.214 296.656   1
  -6  -6  -3 567.690 326.173   1
  -6  -6   4 39606.4 1939.12   1
  -6  -6  -4 40011.6 1987.48   1
  -6  -6   5 2764.27 539.028   1
  -6  -6  -5 3515.40 623.359   1
  -6  -6   6 39422.5 1945.74   1
  -6  -6  -6 39384.7 2013.66   1
   6   6   6 40780.3 2033.83   2
  -6  -6   7 397.048 284.983   1
  -6  -6  -7 540.600 255.914   1
   6   6   7 918.520 364.875   2
  -6  -6  -8 33124.6 1875.28   1
   6   6   8 30763.3 1883.18   2
  -6  -6   8 27742.0 1629.75   1
   6   6   9 197.360 187.856   2
   6   6  10 13936.5 1385.79   2
  -7  -6   0-154.839 164.182   1
  -7  -6   1 87.0664 126.845   1
  -7  -6  -1-4.92536 91.0324   1
  -7  -6   2-48.8995 119.699   1
  -7  -6   3 1343.42 368.509   1
  -7   6   4 1090.81 307.331   1
  -7  -6   4 850.917 319.260   1
  -7  -6   5 133.310 156.782   1
  -7   6   5 492.293 198.868   1
  -7  -6   6 2630.00 524.981   1
  -7  -6   7 117.420 140.305   1
   0  -7   0 950.756 271.335   1
   0  -7   1 96.4238 142.432   1
   0  -7  -1-21.2909 161.306   1
   0  -7   2 15379.3 1183.87   1
   0  -7  -2 16725.7 1202.96   1
   0  -7   3 2508.36 479.571   1
   0  -7  -3 2771.89 499.425   1
   0  -7   4 761.625 298.394   1
   0  -7  -4 81.2308 99.4880   1
   0  -7   5 6741.96 807.582   1
   0  -7  -5 5379.05 680.275   1
   0   7   6-50.4738 87.0590   2
   0  -7   6 55.2741 121.197   1
   0  -7  -6-82.7843 173.896   1
   0   7   7 4350.39 585.506   2
   0  -7   7 4304.76 658.309   1
   0  -7  -7 4715.67 644.791   1
   0   7   8 1501.26 380.707   2
   0  -7   8 1377.31 360.721   1
   0  -7  -8 910.037 278.321   1
   0   7   9 3200.95 565.479   2
   0  -7   9 3564.76 606.569   1
   0  -7  -9 3336.60 541.531   1
   0   7  10-67.0154 116.660   2
   0  -7  10 143.189 160.440   1
   0  -7 -10 149.096 105.442   1
   0   7  11 3897.05 666.223   2
   0   7  12 1928.62 485.809   2
   0   7  13 1335.42 421.697   2
  -1  -7   0 439.434 255.480   1
   1  -7   0 772.538 310.137   1
   1  -7   1 64503.7 2447.91   1
   1  -7  -1 60983.0 2358.06   1
  -1  -7   1 59536.2 2306.95   1
  -1  -7  -1 59491.8 2277.75   1
  -1  -7  -2 1260.10 337.316   1
   1  -7   2 713.595 288.833   1
   1  -7  -2 1427.61 361.266   1
  -1  -7   2 1318.56 357.177   1
   1  -7   3 49094.3 2179.24   1
   1  -7  -3 44183.0 1996.89   1
  -1  -7   3 48686.5 2107.18   1
  -1  -7  -3 53125.5 2141.97   1
  -1  -7  -4 1296.27 382.488   1
   1  -7   4 1352.59 393.760   1
   1  -7  -4 1893.49 428.336   1
  -1  -7   4 2059.49 438.982   1
   1  -7   5 41233.7 2028.52   1
   1  -7  -5 41134.7 1905.67   1
  -1  -7   5 40002.4 1943.87   1
  -1  -7  -5 44061.8 1948.88   1
  -1  -7  -6 939.183 300.551   1
   1   7   6 862.042 276.406   2
   1  -7   6 1224.93 370.829   1
   1  -7  -6 1012.32 320.190   1
  -1  -7   6 1015.80 331.479   1
   1   7   7 53159.3 2048.27   2
   1  -7   7 56507.6 2408.50   1
  -1  -7   7 50887.7 2235.01   1
   1  -7  -7 51483.8 2119.55   1
  -1  -7  -7 53786.3 2157.77   1
  -1  -7  -8 408.712 249.551   1
   1   7   8 178.201 147.556   2
  -1  -7   8 253.783 197.676   1
   1  -7  -8 264.080 232.140   1
  -1   7   9 44980.5 2093.64   2
   1   7   9 40701.0 1964.35   2
  -1  -7   9 40753.1 2040.25   1
   1  -7  -9 40528.5 1873.80   1
  -1  -7  -9 40902.2 1906.11   1
  -1  -7 -10 602.136 240.547   1
  -1   7  10 499.659 270.439   2
   1   7  10 131.306 154.913   2
  -1  -7  10 24.2133 160.588   1
  -1   7  11 19162.5 1475.85   2
   1   7  11 17053.9 1375.28   2
  -1  -7  11 16172.6 1294.72   1
  -1   7  12 676.823 304.642   2
   1   7  12 404.346 235.625   2
  -1   7  13 25219.1 1828.11   2
   1   7  13 21477.5 1671.30   2
   2  -7   0 11590.1 1052.65   1
  -2  -7   0 10874.2 976.593   1
  -2  -7   1 986.432 321.838   1
  -2  -7  -1 1718.01 393.582   1
   2  -7   1 1174.73 353.211   1
   2  -7  -1 1214.94 339.082   1
  -2  -7   2 338.175 169.152   1
  -2  -7  -2 714.606 231.510   1
   2  -7   2 758.725 275.855   1
   2  -7  -2 812.923 307.058   1
  -2  -7   3 1361.16 360.350   1
  -2  -7  -3 2039.67 424.998   1
   2  -7   3 1386.71 401.175   1
   2  -7  -3 1108.56 333.324   1
  -2  -7   4 73.3691 123.539   1
  -2  -7  -4 134.863 146.617   1
   2  -7   4 362.036 251.093   1
  -2  -7  -5 1709.76 386.994   1
   2  -7  -5 1314.83 308.020   1
  -2  -7   5 1558.49 382.058   1
  -2  -7  -6-34.9940 98.1119   1
   2  -7  -6-99.5156 155.247   1
  -2  -7  -7 4845.44 653.886   1
   2   7   7 4345.38 589.333   2
   2  -7  -7 3975.95 590.725   1
  -2  -7   7 5034.35 695.365   1
  -2  -7  -8-67.9887 121.176   1
   2   7   8-73.9752 116.259   2
  -2  -7   8 276.322 195.794   1
  -2  -7  -9 3512.66 569.990   1
   2   7   9 3685.87 593.279   2
  -2  -7   9 2602.82 494.330   1
  -2  -7 -10 2715.78 499.809   1
   2   7  10 3219.30 586.360   2
  -2  -7  10 2054.07 472.501   1
  -2  -7 -11 595.572 243.963   1
   2   7  11 697.263 294.530   2
  -2  -7  11 676.629 276.210   1
   2   7  12 439.780 253.401   2
   2   7  13 364.103 169.185   2
  -3  -7   0 746.393 334.091   1
  -3  -7   1 81415.5 2737.66   1
  -3  -7  -1 82430.1 2729.56   1
  -3  -7   2 390.821 227.054   1
  -3  -7  -2 308.825 222.845   1
  -3  -7   3 57802.6 2318.59   1
  -3  -7  -3 61984.3 2372.46   1
  -3  -7   4 3042.55 551.943   1
  -3  -7  -4 3499.96 576.055   1
  -3  -7  -5 44991.1 2037.97   1
  -3  -7   5 46378.4 2105.20   1
  -3  -7   6 802.189 342.609   1
  -3  -7  -6 1088.46 351.175   1
  -3  -7  -7 40725.8 1961.89   1
  -3  -7   7 42738.1 2050.29   1
  -3  -7  -8 2566.21 517.402   1
  -3  -7   8 1948.37 452.372   1
  -3  -7  -9 26638.0 1606.61   1
   3   7   9 26706.1 1655.50   2
  -3  -7   9 28336.1 1701.61   1
  -3  -7 -10 1899.37 443.788   1
   3   7  10 2046.02 481.302   2
  -3  -7  10 2076.98 469.028   1
   3   7  11 7396.91 932.579   2
  -3  -7 -11 8029.74 893.895   1
   3   7  12 2569.45 568.323   2
  -4  -7   0 250.732 207.266   1
  -4  -7   1 13.8029 100.764   1
  -4  -7  -1 163.255 180.261   1
  -4  -7   2 3019.50 540.092   1
  -4  -7  -2 2157.87 450.537   1
  -4  -7   3 270.306 157.827   1
  -4  -7  -3 278.747 183.059   1
  -4  -7   4 2412.19 499.778   1
  -4  -7  -4 2606.10 519.252   1
  -4  -7   5 1026.22 352.607   1
  -4  -7  -5 637.914 233.543   1
  -4  -7   6 504.204 230.025   1
  -4  -7  -6 188.671 155.434   1
  -4  -7   7 40.3606 129.508   1
  -4  -7  -7 378.004 220.946   1
  -4  -7   8-252.612 191.299   1
  -4  -7  -8-278.571 193.409   1
  -4  -7  -9-223.400 183.612   1
  -4  -7   9-268.333 194.649   1
  -4  -7 -10 141.156 157.656   1
  -4  -7 -11-34.3001 102.125   1
   4   7  11 42.2571 102.391   2
  -5  -7   0 228.068 220.210   1
  -5  -7   1 23540.1 1550.33   1
  -5  -7  -1 25231.2 1612.86   1
  -5  -7   2 123.546 119.970   1
  -5  -7  -2 269.157 203.177   1
  -5  -7   3 19305.1 1419.05   1
  -5  -7  -3 18932.9 1412.99   1
  -5  -7   4 231.358 248.360   1
  -5  -7  -4 231.674 176.386   1
  -5  -7  -5 22552.2 1551.99   1
  -5  -7   5 24833.0 1612.23   1
  -5  -7   6 113.005 140.185   1
  -5  -7  -6 229.210 200.615   1
  -5  -7  -7 33431.9 1928.42   1
  -5  -7   7 30228.1 1799.56   1
  -5  -7   8-120.475 160.131   1
  -6  -7   0 7.56785 101.300   1
  -6  -7   1 233.577 149.348   1
  -6  -7   2 1167.77 364.295   1
  -6  -7   3 71.3556 135.235   1
  -6  -7   4 807.884 276.753   1
  -6  -7   5 810.655 324.872   1
  -6  -7   6 545.149 267.604   1
   0  -8   0 16978.0 1355.81   1
   0  -8   1 690.778 294.649   1
   0  -8  -1 649.324 300.155   1
   0  -8   2 18247.9 1427.31   1
   0  -8  -2 18123.6 1385.70   1
   0  -8   3 553.564 251.235   1
   0  -8  -3 1232.07 352.046   1
   0  -8   4 21093.8 1554.90   1
   0  -8  -4 20431.8 1465.48   1
   0  -8   5 1080.81 355.405   1
   0  -8  -5 1035.89 315.720   1
   0  -8   6 22114.4 1613.71   1
   0  -8  -6 23532.6 1569.79   1
   0  -8   7 1477.69 438.669   1
   0  -8  -7 1838.17 445.315   1
   0  -8   8 33708.0 2023.63   1
   0  -8  -8 30657.6 1795.30   1
   0  -8   9 457.093 327.217   1
   0  -8  -9 251.997 197.437   1
   1  -8   0-182.672 173.946   1
  -1  -8   0 224.968 120.933   1
   1  -8   1 524.726 243.352   1
   1  -8  -1 223.963 206.066   1
  -1  -8   1-97.4224 147.476   1
  -1  -8  -1 101.488 160.182   1
   1  -8   2 305.948 225.526   1
   1  -8  -2-16.2563 106.073   1
  -1  -8   2 120.616 115.570   1
  -1  -8  -2 246.948 214.676   1
   1  -8   3 395.740 195.624   1
   1  -8  -3 404.462 168.009   1
  -1  -8   3 400.792 206.323   1
  -1  -8  -3 382.630 177.689   1
  -1  -8  -4 79.7683 141.665   1
   1  -8   4 245.101 199.768   1
   1  -8  -4-233.867 184.904   1
  -1  -8   4 184.005 170.428   1
  -1  -8  -5 35.2833 154.503   1
   1  -8   5 131.065 159.008   1
   1  -8  -5-227.407 189.149   1
  -1  -8   5 46.4238 124.514   1
  -1  -8  -6 1449.18 376.684   1
   1  -8   6 1122.82 350.854   1
   1  -8  -6 1017.40 332.113   1
  -1  -8   6 1162.43 354.955   1
  -1  -8  -7 77.4971 136.487   1
   1  -8   7 63.6996 129.819   1
  -1  -8   7-31.8733 244.210   1
   1  -8  -7-318.795 214.755   1
  -1  -8  -8 1615.75 432.181   1
  -1  -8   8 943.914 381.437   1
   1  -8  -8 989.909 356.328   1
  -1  -8   9 315.738 152.256   1
  -1  -8  -9 250.432 189.513   1
  -1  -8  10 1226.93 394.765   1
  -1  -8 -10 1223.79 368.750   1
  -1  -8  11 598.114 290.109   1
   2  -8   0 83094.7 3085.05   1
  -2  -8   0 78045.7 2897.46   1
  -2  -8   1 966.128 366.622   1
  -2  -8  -1 1074.98 350.747   1
   2  -8   1 1053.92 432.409   1
   2  -8  -1 784.237 419.354   1
   2  -8   2 69483.1 2845.79   1
   2  -8  -2 69498.4 2800.11   1
  -2  -8   2 69269.8 2753.86   1
  -2  -8  -2 66434.4 2663.98   1
  -2  -8  -3 2235.82 520.334   1
   2  -8   3 1520.32 449.582   1
   2  -8  -3 1464.85 442.644   1
  -2  -8   3 1493.23 411.736   1
   2  -8  -4 53251.3 2420.55   1
  -2  -8   4 56086.5 2510.89   1
  -2  -8  -4 56936.4 2465.61   1
  -2  -8  -5 2732.84 561.124   1
   2  -8  -5 1965.30 473.999   1
  -2  -8   5 1990.69 505.032   1
   2  -8  -6 37004.8 2000.25   1
  -2  -8   6 36302.6 2050.04   1
  -2  -8  -6 35388.4 1947.25   1
  -2  -8  -7 2543.24 541.576   1
   2  -8  -7 2802.17 548.308   1
  -2  -8   7 3030.69 596.823   1
   2  -8  -8 31357.6 1820.39   1
  -2  -8   8 32800.6 1983.86   1
  -2  -8  -8 33400.3 1912.53   1
  -2  -8  -9 2462.93 538.567   1
  -2  -8   9 1865.59 487.184   1
  -2  -8  10 17561.9 1470.93   1
  -2  -8 -10 15864.2 1333.28   1
  -3  -8   0-16.3506 148.739   1
  -3  -8   1 719.740 289.966   1
  -3  -8  -1 678.134 278.550   1
  -3  -8   2-138.259 162.044   1
  -3  -8  -2-90.2287 195.876   1
  -3  -8   3 2490.26 539.674   1
  -3  -8  -3 1700.58 435.244   1
  -3  -8   4 473.231 287.414   1
  -3  -8  -4 470.342 246.950   1
  -3  -8  -5 193.036 180.011   1
  -3  -8   5 244.919 203.823   1
  -3  -8  -6 2.35956 176.411   1
  -3  -8   6 9.49177 124.413   1
  -3  -8  -7 125.062 145.066   1
  -3  -8   7 902.173 341.398   1
  -3  -8  -8 1421.22 384.208   1
  -3  -8   8 1274.46 407.598   1
  -3  -8   9-56.2412 137.034   1
  -4  -8   0 39105.3 2121.36   1
  -4  -8   1 968.503 328.557   1
  -4  -8  -1 1534.08 444.145   1
  -4  -8   2 26802.5 1760.25   1
  -4  -8  -2 27521.4 1775.79   1
  -4  -8   3 311.690 273.010   1
  -4  -8  -3 876.230 327.734   1
  -4  -8   4 31203.1 1914.05   1
  -4  -8   5 414.078 278.878   1
  -4  -8   6 23349.6 1687.63   1
   0  -9   0 3748.86 685.479   1
   0  -9  -1 1569.78 478.911   1
   0  -9  -2 1279.66 417.978   1
   0  -9  -3 225.539 151.193   1
   0  -9  -4 41.1515 170.996   1
   1  -9  -1 32972.3 2078.15   1
   1  -9  -2 955.299 338.282   1
   1  -9  -3 22919.3 1728.36   1
   1  -9  -4 1930.68 503.496   1
   1  -9  -5 21754.3 1663.94   1
   0   0   0    0.00    0.00   0

TITL ja1408 in Pmma
REM Pmma (#51, found as Pmmb in ba-c setting)
CELL 0.71073   7.284153   6.944874  14.425544  90.0000  90.0000  90.0000
ZERR    3.00   0.000244   0.000228   0.000491   0.0000   0.0000   0.0000
LATT  1
SYMM -x+1/2,-y, z
SYMM -x, y,-z
SYMM  x+1/2,-y,-z
SFAC C H N O
UNIT 33.00 30.00 3.00 3.00
TREF
HKLF 4
END
;
_shelx_hkl_checksum              92737
loop_
_space_group_symop_operation_xyz
'x, y, z'
'-x+1/2, -y, z+1/2'
'x, -y, -z'
'-x+1/2, y, -z+1/2'
'-x, -y, -z'
'x-1/2, y, -z-1/2'
'-x, y, z'
'x-1/2, -y, z-1/2'
loop_
_atom_site_label
_atom_site_type_symbol
_atom_site_fract_x
_atom_site_fract_y
_atom_site_fract_z
_atom_site_U_iso_or_equiv
_atom_site_adp_type
_atom_site_occupancy
_atom_site_site_symmetry_order
_atom_site_calc_flag
_atom_site_refinement_flags_posn
_atom_site_refinement_flags_adp
_atom_site_refinement_flags_occupancy
Ni Ni 0.5000 0.5000 0.5000 0.0153(2) Uani 1 4 d S T P
Fe Fe 0.0000 0.0000 0.5000 0.0142(2) Uani 1 4 d S T P
N1 N 0.0000 0.1335(6) 0.6413(3) 0.0190(8) Uani 1 2 d S T P
C5 C 0.3209(5) 0.3189(4) 0.4725(2) 0.0164(6) Uani 1 1 d . . .
N2 N 0.2079(4) 0.2040(4) 0.4619(2) 0.0201(6) Uani 1 1 d . . .
C1 C 0.0000 0.3217(8) 0.6533(4) 0.0293(13) Uani 1 2 d S T P
H1 H 0.0000 0.4046 0.6027 0.035 Uiso 1 2 calc R U P
C2 C 0.0000 0.3929(8) 0.7426(5) 0.053(3) Uani 1 2 d S T P
N3 N 0.0000 0.2956(7) 0.8183(3) 0.0330(12) Uani 1 2 d S T P
C3 C 0.0000 0.1059(9) 0.8054(4) 0.0413(17) Uani 1 2 d S T P
H3 H 0.0000 0.0247 0.8567 0.050 Uiso 1 2 calc R U P
C4 C 0.0000 0.0272(8) 0.7177(4) 0.0462(19) Uani 1 2 d S T P
H4 H 0.0000 -0.1062 0.7119 0.055 Uiso 1 2 calc R U P
F F 0.0000 0.5828(6) 0.7539(4) 0.139(5) Uani 1 2 d S T P
loop_
_atom_site_aniso_label
_atom_site_aniso_U_11
_atom_site_aniso_U_22
_atom_site_aniso_U_33
_atom_site_aniso_U_23
_atom_site_aniso_U_13
_atom_site_aniso_U_12
Ni 0.0092(4) 0.0085(4) 0.0282(5) -0.0041(3) 0.000 0.000
Fe 0.0113(4) 0.0084(4) 0.0228(5) -0.0036(4) 0.000 0.000
N1 0.020(2) 0.0121(18) 0.025(2) -0.0006(16) 0.000 0.000
C5 0.0132(13) 0.0134(13) 0.0227(16) -0.0023(12) -0.0002(12) 0.0006(12)
N2 0.0160(13) 0.0156(13) 0.0286(15) -0.0033(11) 0.0034(12) -0.0073(12)
C1 0.052(4) 0.013(2) 0.023(3) -0.004(2) 0.000 0.000
C2 0.118(8) 0.017(3) 0.024(3) -0.008(2) 0.000 0.000
N3 0.050(3) 0.027(2) 0.022(2) 0.000(2) 0.000 0.000
C3 0.072(5) 0.029(3) 0.023(3) 0.009(2) 0.000 0.000
C4 0.093(6) 0.014(3) 0.031(3) 0.007(2) 0.000 0.000
F 0.362(14) 0.0204(19) 0.034(2) -0.010(2) 0.000 0.000
loop_
_atom_type_symbol
_atom_type_description
_atom_type_scat_dispersion_real
_atom_type_scat_dispersion_imag
_atom_type_scat_source
C C 0.0033 0.0016 'International Tables Vol C Tables 4.2.6.8 and 6.1.1.4'
H H 0.0000 0.0000 'International Tables Vol C Tables 4.2.6.8 and 6.1.1.4'
N N 0.0061 0.0033 'International Tables Vol C Tables 4.2.6.8 and 6.1.1.4'
F F 0.0171 0.0103 'International Tables Vol C Tables 4.2.6.8 and 6.1.1.4'
Fe Fe 0.3463 0.8444 'International Tables Vol C Tables 4.2.6.8 and 6.1.1.4'
Ni Ni 0.3393 1.1124 'International Tables Vol C Tables 4.2.6.8 and 6.1.1.4'
loop_
_geom_angle_atom_site_label_1
_geom_angle_atom_site_label_2
_geom_angle_atom_site_label_3
_geom_angle
_geom_angle_site_symmetry_1
_geom_angle_site_symmetry_3
C5 Ni C5 90.6(2) 5_666 7_655
C5 Ni C5 89.4(2) 5_666 3_566
C5 Ni C5 180.0(2) 7_655 3_566
C5 Ni C5 180.0 5_666 .
C5 Ni C5 89.4(2) 7_655 .
C5 Ni C5 90.6(2) 3_566 .
N2 Fe N2 180.0 . 5_556
N2 Fe N2 89.80(17) . 7
N2 Fe N2 90.20(16) 5_556 7
N2 Fe N2 90.20(16) . 3_556
N2 Fe N2 89.80(17) 5_556 3_556
N2 Fe N2 180.00(16) 7 3_556
N2 Fe N1 92.29(11) . 5_556
N2 Fe N1 87.71(11) 5_556 5_556
N2 Fe N1 92.29(11) 7 5_556
N2 Fe N1 87.71(11) 3_556 5_556
N2 Fe N1 87.71(11) . .
N2 Fe N1 92.29(11) 5_556 .
N2 Fe N1 87.71(11) 7 .
N2 Fe N1 92.29(11) 3_556 .
N1 Fe N1 180.0 5_556 .
C1 N1 C4 116.3(5) . .
C1 N1 Fe 122.0(4) . .
C4 N1 Fe 121.7(4) . .
N2 C5 Ni 175.3(3) . .
C5 N2 Fe 157.5(3) . .
N1 C1 C2 118.5(5) . .
N1 C1 H1 120.7 . .
C2 C1 H1 120.7 . .
N3 C2 F 114.7(6) . .
N3 C2 C1 127.3(5) . .
F C2 C1 118.0(6) . .
C2 N3 C3 113.7(5) . .
N3 C3 C4 121.4(6) . .
N3 C3 H3 119.3 . .
C4 C3 H3 119.3 . .
N1 C4 C3 122.8(5) . .
N1 C4 H4 118.6 . .
C3 C4 H4 118.6 . .
loop_
_geom_bond_atom_site_label_1
_geom_bond_atom_site_label_2
_geom_bond_distance
_geom_bond_site_symmetry_2
Ni C5 1.855(3) 5_666
Ni C5 1.855(3) 7_655
Ni C5 1.855(3) 3_566
Ni C5 1.855(3) .
Fe N2 2.145(3) .
Fe N2 2.145(3) 5_556
Fe N2 2.145(3) 7
Fe N2 2.145(3) 3_556
Fe N1 2.240(4) 5_556
Fe N1 2.240(4) .
N1 C1 1.318(6) .
N1 C4 1.327(7) .
C5 N2 1.157(4) .
C1 C2 1.380(8) .
C1 H1 0.9300 .
C2 N3 1.283(8) .
C2 F 1.329(7) .
N3 C3 1.331(8) .
C3 C4 1.378(9) .
C3 H3 0.9300 .
C4 H4 0.9300 .
