#------------------------------------------------------------------------------
#$Date: 2019-11-23 20:56:18 +0200 (Sat, 23 Nov 2019) $
#$Revision: 234958 $
#$URL: file:///home/coder/svn-repositories/cod/cif/4/34/96/4349660.cif $
#------------------------------------------------------------------------------
#
# This file is available in the Crystallography Open Database (COD),
# http://www.crystallography.net/
#
# All data on this site have been placed in the public domain by the
# contributors.
#
data_4349660
loop_
_publ_author_name
'Piecha-Bisiorek, A.'
'G\;agor, A.'
'Isakov, D.'
'Zieli\'nski, P.'
'Ga\/l\;azka, M.'
'Jakubas, R.'
_publ_section_title
;
 Phase sequence in diisopropylammonium iodide: avoided ferroelectricity by
 the appearance of a reconstructed phase
;
_journal_issue                   3
_journal_name_full               'Inorganic Chemistry Frontiers'
_journal_page_first              553
_journal_paper_doi               10.1039/C6QI00583G
_journal_volume                  4
_journal_year                    2017
_chemical_formula_sum            'C6 H16 I N'
_chemical_formula_weight         229.10
_space_group_crystal_system      monoclinic
_space_group_IT_number           11
_space_group_name_Hall           '-P 2yb'
_space_group_name_H-M_alt        'P 1 21/m 1'
_audit_creation_method           SHELXL-2014/7
_audit_update_record
;
2016-12-06 deposited with the CCDC.
2017-01-09 downloaded from the CCDC.
;
_cell_angle_alpha                90
_cell_angle_beta                 118.950(11)
_cell_angle_gamma                90
_cell_formula_units_Z            2
_cell_length_a                   8.2911(14)
_cell_length_b                   8.3667(14)
_cell_length_c                   8.3092(14)
_cell_measurement_reflns_used    1308
_cell_measurement_temperature    405(2)
_cell_measurement_theta_max      29.6948
_cell_measurement_theta_min      2.7983
_cell_volume                     504.38(16)
_computing_cell_refinement
;
CrysAlis RED, Oxford Diffraction Ltd.,
Version 1.171.33.42 (release 29-05-2009 CrysAlis171 .NET)
(compiled May 29 2009,17:40:42)
;
_computing_data_collection
;
CrysAlis CCD, Oxford Diffraction Ltd.,
Version 1.171.33.42 (release 29-05-2009 CrysAlis171 .NET)
(compiled May 29 2009,17:40:42)
;
_computing_data_reduction
;
CrysAlis RED, Oxford Diffraction Ltd.,
Version 1.171.33.42 (release 29-05-2009 CrysAlis171 .NET)
(compiled May 29 2009,17:40:42)
;
_computing_structure_refinement  'SHELXL-2014/7 (Sheldrick, 2014)'
_diffrn_ambient_temperature      405(2)
_diffrn_detector_area_resol_mean 8.4350
_diffrn_measured_fraction_theta_full 0.987
_diffrn_measured_fraction_theta_max 0.987
_diffrn_measurement_device_type  'Xcalibur, Sapphire1, long nozzle'
_diffrn_radiation_monochromator  graphite
_diffrn_radiation_source         'Enhance (Mo) X-ray Source'
_diffrn_radiation_type           'Mo K\a'
_diffrn_radiation_wavelength     0.7107
_diffrn_reflns_av_R_equivalents  0.0501
_diffrn_reflns_av_unetI/netI     0.0548
_diffrn_reflns_Laue_measured_fraction_full 0.987
_diffrn_reflns_Laue_measured_fraction_max 0.987
_diffrn_reflns_limit_h_max       10
_diffrn_reflns_limit_h_min       -8
_diffrn_reflns_limit_k_max       10
_diffrn_reflns_limit_k_min       -10
_diffrn_reflns_limit_l_max       9
_diffrn_reflns_limit_l_min       -10
_diffrn_reflns_number            5046
_diffrn_reflns_point_group_measured_fraction_full 0.987
_diffrn_reflns_point_group_measured_fraction_max 0.987
_diffrn_reflns_theta_full        25.677
_diffrn_reflns_theta_max         25.677
_diffrn_reflns_theta_min         2.801
_exptl_absorpt_coefficient_mu    3.104
_exptl_absorpt_correction_T_max  1.00000
_exptl_absorpt_correction_T_min  0.68933
_exptl_absorpt_correction_type   multi-scan
_exptl_absorpt_process_details
;
CrysAlis RED, Oxford Diffraction Ltd.,
Version 1.171.33.42 (release 29-05-2009 CrysAlis171 .NET)
(compiled May 29 2009,17:40:42)
Empirical absorption correction using spherical harmonics,
 implemented in SCALE3 ABSPACK scaling algorithm.
;
_exptl_crystal_density_diffrn    1.508
_exptl_crystal_description       prism
_exptl_crystal_F_000             224
_exptl_crystal_size_max          0.21
_exptl_crystal_size_mid          0.15
_exptl_crystal_size_min          0.13
_refine_diff_density_max         0.535
_refine_diff_density_min         -0.619
_refine_diff_density_rms         0.106
_refine_ls_extinction_method     none
_refine_ls_goodness_of_fit_ref   0.808
_refine_ls_hydrogen_treatment    constr
_refine_ls_matrix_type           full
_refine_ls_number_parameters     37
_refine_ls_number_reflns         1018
_refine_ls_number_restraints     15
_refine_ls_restrained_S_all      0.904
_refine_ls_R_factor_all          0.1129
_refine_ls_R_factor_gt           0.0551
_refine_ls_shift/su_max          0.014
_refine_ls_shift/su_mean         0.010
_refine_ls_structure_factor_coef Fsqd
_refine_ls_weighting_details
'w=1/[\s^2^(Fo^2^)+(0.0970P)^2^] where P=(Fo^2^+2Fc^2^)/3'
_refine_ls_weighting_scheme      calc
_refine_ls_wR_factor_gt          0.1411
_refine_ls_wR_factor_ref         0.1548
_reflns_Friedel_coverage         0.000
_reflns_number_gt                422
_reflns_number_total             1018
_reflns_threshold_expression     'I > 2\s(I)'
_cod_data_source_file            c6qi00583g3.cif
_cod_data_source_block           p21m
_cod_original_cell_volume        504.38(15)
_cod_original_sg_symbol_H-M      'P 21/m'
_cod_database_code               4349660
_shelx_shelxl_version_number     2014/7
_shelx_space_group_comment
;
The symmetry employed for this shelxl refinement is uniquely defined
by the following loop, which should always be used as a source of
symmetry information in preference to the above space-group names.
They are only intended as comments.
;
_shelx_res_file
;

    p21m.res created by SHELXL-2014/7


TITL p21m in P2(1)/m
CELL 0.71073    8.2911   8.3667   8.3092  90.000 118.95  90.000
ZERR    2.00   0.0014   0.0014   0.0014   0.000   0.011   0.000
LATT  1
SYMM -X, 0.5+Y, -Z
SFAC C H N I
UNIT 12 32 2 2

eqiv  $1   x, -y+1/2, z
temp 132
L.S. 30
BOND
FMAP 2
PLAN 20

acta 56
bond $h
eqiv $1 x, -y+1/2, z
htab n1 I1_$1
htab n1 I1

free N1 N1_$1
free N1 C1_$1
free N1 C4_$1
free C1 C3_$1
free C1 C1_$1
free C2 C3_$1
free C5 C5_$1
free C5 C4_$1
rem free C4_a C5_$1
rem free C4_a N1_$1
free C3 C1_$1
free C3 C2_$1
free C3 C3_$1
free C3 N1_$1
free C6 C6_$1
free C6 C4_$1

dfix 1.5 0.01 c1 c2 c1 c3 c1 n1 c4 n1 c4 c5 c4 c6
dfix 2.5 0.01 n1 c5 n1 c6 c6 c5 n1 c2 n1 c3 c2 c3
dfix 2.6 0.01 c1 c4
flat 0.05 c6 c4 n1 c1 c2

WGHT    0.097000
FVAR       2.73621
I1    4    0.349813    0.250000    0.647954    10.50000    0.13032    0.13324 =
         0.13256    0.00000    0.08086    0.00000
C4    1    0.622198    0.250000    0.297402    10.50000    0.22913
C3    1    0.915239    0.123394    0.710606    10.50000    0.24450
AFIX 137
H3A   2    0.810952    0.075270    0.712281    10.50000   -1.50000
H3B   2    1.018186    0.124256    0.832909    10.50000   -1.50000
H3C   2    0.946491    0.063000    0.631331    10.50000   -1.50000
AFIX   0
C1    1    0.867624    0.294770    0.639444    10.50000    0.16155
N1    3    0.677772    0.305071    0.481232    10.50000    0.21672
AFIX  23
H1A   2    0.605423    0.254702    0.516358    10.50000   -1.20000
H1B   2    0.646617    0.407861    0.470664    10.50000   -1.20000
AFIX   0
C6    1    0.755419    0.215193    0.235955    10.50000    0.11021
AFIX 137
H6A   2    0.842713    0.301128    0.270948    10.50000   -1.50000
H6B   2    0.692619    0.203780    0.104580    10.50000   -1.50000
H6C   2    0.818940    0.117674    0.291739    10.50000   -1.50000
AFIX   0
C5    1    0.423630    0.250000    0.163190    10.50000    0.23141
AFIX 137
H5A   2    0.354482    0.276725    0.224549    10.50000   -1.50000
H5B   2    0.387843    0.145856    0.108820    10.50000   -1.50000
H5C   2    0.399359    0.327419    0.068871    10.50000   -1.50000
AFIX   0
C2    1    0.898314    0.406084    0.793385    10.50000    0.16303
AFIX 137
H2A   2    0.876291    0.514095    0.748836    10.50000   -1.50000
H2B   2    1.023080    0.396083    0.890785    10.50000   -1.50000
H2C   2    0.815197    0.379264    0.838985    10.50000   -1.50000
AFIX   1
H1    2    0.947320    0.287809    0.597342    10.50000   -1.50000
H4    2    0.603850    0.157172    0.340649    10.50000   -1.50000

AFIX   0
HKLF 4

REM  p21m in P2(1)/m
REM R1 =  0.0551 for     422 Fo > 4sig(Fo)  and  0.1129 for all    1018 data
REM     37 parameters refined using     15 restraints

END

;
_shelx_res_checksum              77524
_shelx_hkl_file
;
   0 -10   0 2.42252 201.789   5
   0 -10   1 64.8892 205.366   5
   0 -10  -1 62.5165 179.238   5
   0 -10   2-11.9975 215.757   5
   0 -10  -2-122.422 195.110   5
   0  -9   0-77.9471 210.511   5
   0  -9   1 75.4081 208.838   5
   0  -9  -1-67.9410 188.854   5
   0  -9   2 2.59212 208.496   5
   0  -9  -2 149.969 199.942   5
   0  -9  -3 74.6082 224.731   5
   0  -9   3 22.6760 177.122   5
   0  -9   4-155.982 180.001   5
   0  -9  -4-136.579 198.326   5
   0  -8   0 166.471 182.827   5
   0  -8  -1 5.14128 203.009   5
   0  -8   1 17.2405 192.208   5
   0  -8  -2 76.0585 186.281   5
   0  -8   2-75.2606 212.643   5
   0  -8  -3 6.68760 228.874   5
   0  -8   3 28.5174 185.951   5
   0  -8  -4-140.353 239.466   5
   0  -8   4-37.4338 201.889   5
   0  -8  -5-55.5265 203.936   5
   0  -8   5-22.8170 212.200   5
   0  -7   0-94.3975 208.512   5
   0  -7   0-13.2134 143.069   0
   0  -7   1 444.159 198.397   5
   0  -7   1 534.198 141.448   0
   0  -7  -1 352.711 206.736   5
   0  -7  -2 381.763 221.000   5
   0  -7   2 430.217 208.586   5
   0  -7  -3 43.3924 187.317   5
   0  -7   3-52.7425 193.129   5
   0  -7  -4 42.2390 225.060   5
   0  -7   4 44.7534 190.138   5
   0  -7  -5 158.225 239.101   5
   0  -7   5-37.9879 194.405   5
   0  -7   6-57.2350 206.758   5
   0  -7  -6-165.307 207.920   5
   0  -6   0 2728.58 147.946   0
   0  -6   0 3026.08 214.331   5
   0  -6   1 781.145 136.206   0
   0  -6  -1 646.047 188.581   5
   0  -6   1 486.838 186.102   5
   0  -6  -2 68.5529 202.181   5
   0  -6   2 351.097 211.005   5
   0  -6   2 283.070 133.242   0
   0  -6  -3 989.836 251.038   5
   0  -6   3 711.253 219.259   5
   0  -6   3 645.072 145.411   0
   0  -6   4 294.830 187.971   5
   0  -6  -4 180.875 214.025   5
   0  -6   5-57.3311 208.240   5
   0  -6  -5 66.9264 199.648   5
   0  -6   6-14.5019 208.996   5
   0  -6  -6 2.36496 248.459   5
   0  -6   7-185.461 215.518   5
   0  -6  -7-121.736 239.160   5
   0  -5   0-12.1084 95.1252   0
   0  -5   0-25.9404 127.799   5
   0  -5   1 3072.03 174.632   5
   0  -5   1 3023.76 122.466   0
   0  -5  -1 3151.86 171.710   5
   0  -5   2 3623.16 136.039   0
   0  -5  -2 4034.54 212.051   5
   0  -5   2 4057.84 202.685   5
   0  -5   3 365.263 136.481   0
   0  -5  -3 632.366 204.033   5
   0  -5   3 542.961 188.635   5
   0  -5   4 172.420 215.506   5
   0  -5  -4 288.194 228.785   5
   0  -5   4 232.358 158.268   0
   0  -5   5 195.321 144.394   0
   0  -5  -5 384.267 225.849   5
   0  -5   5 321.919 205.932   5
   0  -5   6 92.9008 198.061   5
   0  -5  -6 11.2358 203.783   5
   0  -5   7 112.911 210.620   5
   0  -5  -7 91.5020 245.041   5
   0  -5  -8-3.39775 310.386   4
   0  -4   0 15823.7 207.125   5
   0  -4   0 15603.7 169.524   0
   0  -4   1 5653.86 119.906   0
   0  -4   1 5810.17 157.258   5
   0  -4  -1 5864.36 161.641   5
   0  -4   2 1114.58 96.1979   0
   0  -4   2 1167.25 128.836   5
   0  -4  -2 1169.18 152.920   5
   0  -4  -3 4944.71 207.077   5
   0  -4   3 4842.73 199.781   5
   0  -4   3 4481.03 148.868   0
   0  -4   4 1495.54 214.768   5
   0  -4  -4 1550.72 231.380   5
   0  -4   4 1399.96 154.869   0
   0  -4   5 71.7525 174.119   0
   0  -4   5-3.68881 213.574   5
   0  -4  -5 140.929 234.170   5
   0  -4   6 147.438 153.226   0
   0  -4  -6 49.6186 219.056   5
   0  -4   6 131.000 204.020   5
   0  -4   7 92.3791 222.316   5
   0  -4   7-92.6127 171.184   0
   0  -4  -7-163.430 242.479   5
   0  -4  -8 4.44189 238.928   5
   0  -4  -8-91.5767 273.497   4
   0  -4   8-116.129 226.926   5
   0  -4  -9 59.2649 288.560   4
   0  -3   0-11.8438 79.3582   5
   0  -3   0 32.7938 67.0647   0
   0  -3   1 9441.42 156.772   5
   0  -3   1 8979.69 119.425   0
   0  -3  -1 8856.96 149.295   5
   0  -3   2 16302.5 171.815   0
   0  -3   2 16343.5 208.023   5
   0  -3  -2 16235.3 208.599   5
   0  -3   3 2535.64 121.846   0
   0  -3  -3 2653.82 159.821   5
   0  -3   3 2543.88 149.510   5
   0  -3  -4 1410.30 184.972   5
   0  -3   4 1219.13 182.475   5
   0  -3   4 1377.34 145.936   0
   0  -3  -5 1539.24 235.429   5
   0  -3   5 1310.49 188.651   0
   0  -3  -6 77.3467 224.661   5
   0  -3   6-17.3812 163.084   0
   0  -3   7 83.0164 174.313   0
   0  -3  -7-99.6791 259.145   4
   0  -3  -7 20.7015 239.599   5
   0  -3  -8 71.8895 267.596   4
   0  -3   8-169.758 179.208   0
   0  -3  -9 19.6300 278.608   4
   0  -2   0 100766. 326.560   5
   0  -2   0 103989. 1109.12   0
   0  -2   1 24775.1 160.929   0
   0  -2   1 24677.3 195.194   5
   0  -2  -1 25277.2 202.170   5
   0  -2   2 4654.30 107.724   0
   0  -2  -2 4503.61 127.910   5
   0  -2   2 4661.79 119.916   5
   0  -2  -3 12638.7 202.319   5
   0  -2   3 12211.1 179.235   0
   0  -2   4 3928.16 160.323   0
   0  -2  -4 4059.89 195.069   5
   0  -2   5 80.1058 173.151   0
   0  -2  -5-15.8950 218.108   5
   0  -2   6 582.516 193.654   0
   0  -2  -6 442.513 280.392   4
   0  -2  -6 505.933 225.278   5
   0  -2  -7 64.6531 251.961   4
   0  -2   7 5.26914 178.247   0
   0  -2  -8 50.9001 254.871   4
   0  -2   8-55.0540 185.666   0
   0  -2  -9-149.980 235.654   4
   0  -2   9-3.31345 202.599   0
   0  -1   1 20953.0 120.492   0
   0  -1  -1 20539.1 136.364   5
   0  -1   2 43793.8 241.482   0
   0  -1  -2 42218.9 268.322   5
   0  -1  -3 2952.13 126.418   5
   0  -1   3 2436.47 114.968   0
   0  -1   4 2474.43 149.108   0
   0  -1  -4 2145.93 168.776   4
   0  -1  -4 2733.42 178.330   5
   0  -1  -4 2613.73 98.4081   3
   0  -1   5 2919.01 205.628   0
   0  -1  -5 2771.72 240.209   4
   0  -1  -5 2889.90 232.401   5
   0  -1  -5 2498.32 132.186   3
   0  -1   6 353.231 217.437   0
   0  -1  -6 286.278 255.800   4
   0  -1  -7-1.96976 212.692   4
   0  -1   7 43.7876 180.905   0
   0  -1   8 18.2451 205.367   0
   0  -1  -8 170.247 228.478   4
   0  -1   9 25.9138 197.069   0
   0  -1  -9 27.5679 226.883   4
   0   0  -1 37289.5 161.074   5
   0   0   1 36872.8 144.659   0
   0   0   2 14909.1 165.126   0
   0   0   3 15949.7 200.742   0
   0   0  -3 17163.4 172.168   3
   0   0  -3 16466.1 205.932   4
   0   0   4 5993.18 184.970   0
   0   0  -4 5233.24 178.648   4
   0   0  -4 5031.80 149.796   3
   0   0   5-41.6057 185.312   0
   0   0  -5 95.9596 181.698   4
   0   0  -5-8.58308 142.443   3
   0   0  -6 900.450 236.892   4
   0   0   6 1054.05 241.315   0
   0   0  -7 275.112 217.664   4
   0   0   7 288.022 202.742   0
   0   0   8 6.13624 206.424   0
   0   0  -8-140.059 232.923   4
   0   0  -9 45.9180 225.351   4
   0   0   9-23.1183 199.640   0
   0   0 -10 98.9413 210.549   4
   0   1   1 20951.1 126.077   0
   0   1  -2 44913.3 243.363   4
   0   1  -2 43886.7 269.269   3
   0   1   2 44982.8 246.397   0
   0   1   3 2904.04 121.339   0
   0   1  -3 2564.67 119.570   3
   0   1  -3 2940.43 120.001   4
   0   1  -4 2455.36 146.542   4
   0   1  -4 2304.45 146.612   3
   0   1   4 2390.98 163.809   0
   0   1  -5 2985.28 207.445   4
   0   1   5 3174.12 216.315   0
   0   1   6 286.910 234.785   0
   0   1  -6 353.544 222.035   4
   0   1  -7-85.8983 195.325   4
   0   1   7 47.8608 203.439   0
   0   1  -8 12.3091 203.164   4
   0   1   8 126.300 230.253   0
   0   1   8 67.6840 231.013   2
   0   1  -9-15.7180 222.824   4
   0   1 -10 70.3333 243.733   4
   0   2   1 24933.7 172.765   0
   0   2  -2 4716.68 114.187   1
   0   2  -2 4437.40 108.025   4
   0   2   2 4527.99 113.123   0
   0   2   3 13302.9 189.914   0
   0   2  -3 12926.9 172.735   1
   0   2  -3 12711.8 184.744   4
   0   2   4 4115.77 182.240   0
   0   2   4 3581.94 98.8541   1
   0   2  -4 4116.88 155.931   4
   0   2  -4 3586.70 131.676   1
   0   2  -5-21.9714 174.865   4
   0   2   5 1.06177 211.095   0
   0   2  -6 601.075 205.258   4
   0   2   6 523.810 230.959   0
   0   2   7 264.384 212.864   0
   0   2  -7 95.2631 193.627   4
   0   2   8 40.2751 258.310   2
   0   2  -8-88.7984 193.361   4
   0   2   8-19.0552 218.549   0
   0   2   9 89.6865 259.426   2
   0   2  -9-3.10932 199.063   4
   0   2 -10-145.831 216.709   4
   0   3   0 23.5727 85.5179   1
   0   3   0 18.4155 94.4954   4
   0   3  -1 8576.38 136.109   4
   0   3  -1 8637.49 151.923   1
   0   3   1 9089.92 126.237   1
   0   3   1 9155.13 130.505   0
   0   3  -2 16395.2 203.798   1
   0   3   2 16379.1 187.462   0
   0   3   2 16527.0 156.685   1
   0   3  -2 16192.7 185.572   4
   0   3  -3 2724.73 125.411   4
   0   3  -3 2012.59 137.515   1
   0   3   3 2546.55 86.0482   1
   0   3   3 2759.15 135.866   0
   0   3  -4 1163.18 142.747   1
   0   3  -4 1407.76 149.286   4
   0   3   4 1473.31 175.605   0
   0   3  -5 1512.87 202.168   4
   0   3   5 1499.59 224.068   0
   0   3  -6 68.9899 174.829   4
   0   3   6 84.2361 198.680   0
   0   3   7-93.0202 260.179   2
   0   3   7-83.1475 220.875   0
   0   3  -7 164.711 205.108   4
   0   3  -8 48.2144 194.179   4
   0   3   8-159.979 221.005   0
   0   3   8 49.7972 276.947   2
   0   3   9 3.53086 292.932   2
   0   3  -9-17.2257 225.660   4
   0   4   0 14923.0 184.672   1
   0   4   0 15139.7 208.437   4
   0   4  -1 5525.67 141.741   1
   0   4  -1 5439.68 149.173   4
   0   4   1 5697.00 129.280   0
   0   4   1 5237.62 142.916   2
   0   4   1 5478.46 127.834   1
   0   4   2 1086.86 113.678   0
   0   4  -2 1042.70 123.482   1
   0   4   2 840.239 146.776   2
   0   4  -2 1075.54 123.111   4
   0   4   2 1038.68 93.1491   1
   0   4   3 4656.85 171.482   0
   0   4  -3 4504.62 170.383   4
   0   4  -3 4693.94 179.348   1
   0   4   3 4286.01 121.933   1
   0   4  -4 1621.51 174.095   4
   0   4   4 1585.41 189.735   0
   0   4  -4 1336.40 178.695   1
   0   4  -5 38.4844 178.290   4
   0   4  -5 136.588 157.696   1
   0   4   5-28.6574 206.418   0
   0   4   6 308.622 277.124   2
   0   4  -6 95.8987 181.152   4
   0   4   6 166.948 196.067   0
   0   4   7 122.921 214.410   0
   0   4  -7 19.3917 192.597   4
   0   4   7-31.6805 283.982   2
   0   4   8 85.6399 296.810   2
   0   4  -8 50.2943 191.811   4
   0   4   8-40.3850 205.801   0
   0   4   9-6.04692 304.427   2
   0   4  -9-125.819 222.654   4
   0   5   0 21.5442 130.683   1
   0   5   0-53.4247 160.430   4
   0   5   0-13.3514 92.7605   2
   0   5   1 2586.32 148.184   2
   0   5  -1 2611.38 155.420   4
   0   5  -1 2911.07 160.541   1
   0   5   1 2800.15 132.528   0
   0   5   1 2666.11 134.721   1
   0   5  -2 3874.78 194.307   1
   0   5   2 3431.58 159.596   0
   0   5   2 3349.64 139.007   1
   0   5   2 3290.32 201.107   2
   0   5  -2 3499.80 173.164   4
   0   5  -3 540.701 174.675   4
   0   5   3 497.127 163.924   0
   0   5   3 474.210 116.994   1
   0   5   3 367.997 236.681   2
   0   5  -3 452.954 182.697   1
   0   5   4 351.421 281.141   2
   0   5  -4 271.215 183.951   4
   0   5  -4 265.051 195.425   1
   0   5   4 244.419 188.823   0
   0   5  -5 234.539 148.889   1
   0   5   5 378.263 180.416   0
   0   5   5 269.036 289.756   2
   0   5  -5 361.472 167.668   4
   0   5   6 107.354 198.177   0
   0   5  -6-80.4376 181.521   4
   0   5   6 75.4709 305.025   2
   0   5   7 69.9024 210.700   0
   0   5  -7 45.7227 187.207   4
   0   5   7 106.010 301.638   2
   0   5  -8-20.3960 193.042   4
   0   5   8 174.072 310.897   2
   0   6   0 2606.80 230.955   4
   0   6   0 2512.84 154.007   0
   0   6   0 2654.16 184.897   1
   0   6   1 539.724 161.946   2
   0   6   1 613.975 143.130   0
   0   6   1 631.126 161.937   1
   0   6  -1 530.448 183.856   1
   0   6  -1 600.085 194.146   4
   0   6   2 245.346 143.943   1
   0   6   2 153.209 211.409   2
   0   6  -2 297.003 200.483   4
   0   6   2 292.902 156.969   0
   0   6  -2 187.124 206.194   1
   0   6   3 619.163 262.333   2
   0   6  -3 718.350 209.921   1
   0   6  -3 638.246 208.189   4
   0   6   3 769.088 183.566   0
   0   6   3 588.800 145.081   1
   0   6   4 269.258 161.263   0
   0   6  -4 271.380 182.533   4
   0   6   4 321.687 266.307   2
   0   6  -4 231.417 176.737   1
   0   6  -5-36.0410 177.528   4
   0   6   5 12.2761 293.371   2
   0   6  -5 43.1161 169.361   1
   0   6   5 96.1984 177.772   0
   0   6   6 7.73265 314.145   2
   0   6  -6 161.497 187.866   4
   0   6   6-105.216 193.612   0
   0   6   7-47.6705 320.560   2
   0   6  -7 112.262 197.980   4
   0   6   7-12.7652 208.154   0
   0   6   8-256.518 342.632   2
   0   6  -8 9.91110 227.256   4
   0   7   0 81.3031 202.337   1
   0   7   0-12.8069 153.377   0
   0   7   0 192.607 265.678   4
   0   7  -1 251.487 221.145   4
   0   7   1 371.031 162.741   0
   0   7  -1 375.053 214.768   1
   0   7   1 542.392 178.723   1
   0   7  -2 413.002 199.503   1
   0   7   2 167.941 189.258   2
   0   7   2 432.502 152.548   0
   0   7  -2 463.482 200.321   4
   0   7   2 691.221 157.651   1
   0   7  -3 30.4889 174.493   1
   0   7   3 16.5181 195.900   2
   0   7   3 27.4804 124.077   1
   0   7   3 45.5048 146.229   0
   0   7  -3 60.2101 180.714   4
   0   7   4-14.8383 256.317   2
   0   7  -4 38.5967 191.802   1
   0   7  -4-59.9926 179.005   4
   0   7   4 97.3256 157.126   0
   0   7  -5 221.899 201.978   4
   0   7   5 27.7743 267.457   2
   0   7  -5 117.729 177.562   1
   0   7   5 24.3526 176.524   0
   0   7   6-29.8690 186.594   0
   0   7   6 7.64207 309.042   2
   0   7  -6-89.6913 197.692   4
   0   7  -7 72.8565 196.640   4
   0   7   7-64.9452 347.447   2
   0   8   0 148.105 178.492   1
   0   8   0 76.1185 235.046   4
   0   8  -1 84.0436 195.970   1
   0   8   1 21.8693 158.218   1
   0   8  -1 150.416 221.021   4
   0   8   1 94.5831 135.176   0
   0   8  -2 127.574 212.766   4
   0   8  -2 55.4544 209.215   1
   0   8   2-41.4956 140.225   0
   0   8   2 47.7465 148.022   1
   0   8  -3 150.250 214.100   1
   0   8  -3 95.3178 207.990   4
   0   8   3-94.5441 146.580   1
   0   8   3 17.7633 153.203   0
   0   8  -4 53.0894 200.076   1
   0   8   4 34.8376 163.705   0
   0   8  -4 133.821 191.063   4
   0   8   4-71.5456 254.295   2
   0   8  -5-37.2434 171.056   1
   0   8   5 3.01296 271.590   2
   0   8  -5 78.9959 192.794   4
   0   8   5-22.0037 161.149   0
   0   8   6 182.796 305.047   2
   0   8  -6 127.200 223.298   4
   0   8   7-224.491 340.535   2
   0   9   0 54.2119 186.640   1
   0   9   1 83.1715 174.727   1
   0   9  -1-76.6687 236.463   4
   0   9  -1 61.2571 212.328   1
   0   9  -2-90.3880 203.410   1
   0   9  -2 130.388 218.409   4
   0   9   2 99.2751 164.207   1
   0   9   3 13.4820 151.003   1
   0   9  -3-129.367 213.649   4
   0   9  -3-53.0217 193.074   1
   0   9   4 11.1362 148.052   0
   0   9  -4 106.926 195.728   1
   0   9  -4-54.7201 224.523   4
   0   9   5-60.2357 293.140   2
   0   9  -5-151.767 218.829   1
   0   9  -5 116.329 242.512   4
   0   9   6-179.985 305.320   2
   0   9  -6-90.0631 238.827   4
   0  10   0-29.9249 199.768   1
   0  10   1-25.2421 189.057   1
   0  10  -1 17.0819 218.827   1
   0  10  -1-14.2934 265.236   4
   0  10  -2 100.537 196.636   1
   0  10   2-47.4488 176.317   1
   0  10  -2-84.7036 241.246   4
   0  10  -3 25.7758 229.130   1
   0  10  -3 71.2701 221.652   4
   0  10  -4 69.9280 228.234   1
   0  10  -4-58.6152 254.491   4
   0  10  -5 27.7903 227.223   4
   0  10  -5 85.7494 187.686   1
   0  11   0-72.9941 218.612   1
   0  11   1 137.759 180.464   1
   0  11  -1 150.862 239.113   1
   0  11  -2-32.2093 225.246   1
   0  11  -2 133.220 255.483   4
   0  11   2 20.5757 187.445   1
   0  11  -3-95.9235 267.694   4
  -1 -10   2-58.1309 199.979   5
   1 -10  -2 7.73948 229.997   5
   1 -10  -1 40.0931 212.333   5
  -1 -10   1 64.6219 181.558   5
   1 -10   0-100.738 203.789   5
  -1 -10   0-20.8574 176.501   5
   1 -10   1 26.8894 186.339   5
  -1 -10  -1 92.9226 180.066   5
  -1  -9   4 48.2968 195.121   5
   1  -9  -4 48.3605 217.654   5
   1  -9  -3-275.983 228.944   5
  -1  -9   3 177.145 198.535   5
   1  -9  -2 26.2436 183.404   5
  -1  -9   2 0.00000 170.230   5
  -1  -9   1-41.0941 168.891   5
   1  -9  -1 74.0785 223.286   5
  -1  -9   0-32.3081 209.985   5
   1  -9   0 89.9925 201.555   5
  -1  -9  -1 65.1296 214.428   5
   1  -9   1 80.5185 221.089   5
  -1  -9  -2 88.7005 210.586   5
   1  -9   2-64.8968 206.163   5
   1  -9   3-160.227 184.238   5
  -1  -9  -3 48.6624 185.112   5
  -1  -8   6-112.889 211.976   5
   1  -8  -5 38.5000 205.871   5
  -1  -8   5 101.092 204.468   5
   1  -8  -4-39.8707 243.788   5
  -1  -8   4-57.9437 173.375   5
  -1  -8   3-40.4601 179.594   5
   1  -8  -3 108.153 222.519   5
  -1  -8   2 102.372 166.328   5
   1  -8  -2 27.6454 196.721   5
  -1  -8   1-4.66542 169.713   5
   1  -8  -1-33.0251 143.865   0
   1  -8  -1 109.659 207.657   5
  -1  -8   0 79.3037 185.127   5
   1  -8   0 57.4162 190.884   5
   1  -8   0 13.0197 136.104   0
   1  -8   1 38.8835 204.654   5
  -1  -8  -1 192.185 187.017   5
   1  -8   1 91.0231 147.014   0
   1  -8   2-4.11136 198.389   5
  -1  -8  -2-44.9972 180.046   5
  -1  -8  -3 113.850 216.905   5
   1  -8   3 61.5428 189.860   5
   1  -8   4 64.0275 217.950   5
  -1  -8  -4-54.0979 221.209   5
  -1  -8  -5 24.7283 235.998   5
   1  -7  -6 54.5139 204.738   5
  -1  -7   6 23.9362 197.444   5
   1  -7  -5 122.734 246.168   5
  -1  -7   5 148.077 201.162   5
  -1  -7   4 238.150 200.583   5
   1  -7  -4 277.623 213.059   5
  -1  -7   3 72.6588 178.467   5
   1  -7  -3 56.8011 208.226   5
   1  -7  -2 198.706 204.885   5
  -1  -7   2 28.5611 202.059   5
   1  -7  -1 835.480 236.481   5
  -1  -7   1 786.520 213.847   5
   1  -7  -1 708.202 167.461   0
   1  -7   0 496.106 212.220   5
   1  -7   0 389.862 165.188   0
  -1  -7   0 382.047 207.019   5
   1  -7   1 85.5010 208.312   5
  -1  -7  -1 297.665 207.592   5
   1  -7   1 80.4079 154.393   0
   1  -7   2 171.428 143.147   0
  -1  -7  -2 90.7480 187.333   5
   1  -7   2 162.672 183.548   5
   1  -7   3 64.7727 139.619   0
   1  -7   3 168.125 199.376   5
  -1  -7  -3 22.5090 207.811   5
   1  -7   4 275.912 196.098   5
  -1  -7  -4-39.6999 218.914   5
  -1  -7  -5 9.64299 230.290   5
   1  -7   5 80.5423 192.157   5
  -1  -7  -6 142.644 249.606   5
  -1  -6   7 34.3620 168.250   5
   1  -6  -7-32.4323 242.324   5
   1  -6  -6 55.7704 249.414   5
  -1  -6   6-113.699 200.167   5
  -1  -6   5 235.258 165.230   5
   1  -6  -5 57.5597 221.842   5
   1  -6  -4 0.00000 214.860   5
  -1  -6   4-32.5390 181.508   5
  -1  -6   3 648.350 195.663   5
   1  -6  -3 866.968 244.107   5
   1  -6  -2 1788.36 222.187   5
  -1  -6   2 1684.89 203.112   5
  -1  -6   1 245.041 167.598   5
  -1  -6   1 208.419 108.628   0
   1  -6  -1 294.189 153.177   0
   1  -6  -1 236.824 194.427   5
   1  -6   0 615.108 199.285   5
  -1  -6   0 829.670 184.615   5
   1  -6   0 577.646 152.081   0
   1  -6   1 1693.08 216.919   5
  -1  -6  -1 1538.75 200.829   5
   1  -6   1 1660.61 165.129   0
  -1  -6  -2 373.474 218.598   5
   1  -6   2 408.398 165.226   0
   1  -6   2 629.437 233.369   5
   1  -6   3-2.07881 154.906   0
   1  -6   3 85.2246 204.832   5
  -1  -6  -3 91.9499 215.737   5
  -1  -6  -4 78.2286 196.369   5
   1  -6   4 46.1507 145.535   0
   1  -6   4 191.012 192.258   5
  -1  -6  -5 73.0371 200.731   5
   1  -6   5-19.1621 156.252   0
   1  -6   5 31.7663 182.429   5
  -1  -6  -6 35.0469 190.228   5
   1  -6   6-63.6381 214.261   5
   1  -5  -9 173.605 316.912   4
   1  -5  -8-84.6721 321.891   4
   1  -5  -8 49.8609 201.126   5
  -1  -5   8-81.4435 206.250   5
   1  -5  -7 109.875 245.265   5
  -1  -5   7 70.5239 198.357   5
  -1  -5   6 27.9568 189.895   5
   1  -5  -6 2.35616 226.055   5
  -1  -5   5 78.8330 202.849   5
   1  -5  -5 218.385 218.790   5
  -1  -5   4 1484.52 204.411   5
   1  -5  -4 1587.78 248.385   5
  -1  -5   3 783.605 169.731   5
   1  -5  -3 771.225 213.786   5
  -1  -5   3 652.454 101.960   0
  -1  -5   2 711.348 92.6115   0
   1  -5  -2 715.015 179.443   5
  -1  -5   2 733.000 141.970   5
  -1  -5   1 5267.29 176.416   5
  -1  -5   1 4588.66 115.235   0
   1  -5  -1 4974.69 158.472   0
   1  -5  -1 5192.37 194.475   5
   1  -5   0 3260.81 172.822   5
   1  -5   0 3320.92 142.501   0
  -1  -5   0 3263.76 156.715   5
  -1  -5  -1 205.453 143.996   5
   1  -5   1 270.452 153.022   5
   1  -5   1 113.111 123.973   0
   1  -5   2 1183.09 156.600   0
  -1  -5  -2 1485.73 206.947   5
   1  -5   2 1386.45 202.053   5
   1  -5   3 888.971 175.440   0
   1  -5   3 1063.46 210.393   5
  -1  -5  -3 1120.12 230.750   5
  -1  -5  -4 165.282 223.401   5
   1  -5   4 3.78508 200.298   5
   1  -5   4-110.309 166.505   0
   1  -5   5-58.6535 157.136   0
  -1  -5  -5 112.780 219.795   5
   1  -5   5 147.791 197.317   5
  -1  -5  -6-302.176 230.384   5
   1  -5   6 99.8471 194.527   5
   1  -5   6 34.2141 165.422   0
   1  -5   7-31.9263 177.674   5
  -1  -5  -7 3.06782 222.193   5
  -1  -5  -8 17.4893 311.448   4
   1  -4  -9 67.7337 314.540   4
   1  -4  -8-211.222 207.611   5
  -1  -4   8-33.5020 198.904   5
   1  -4  -8 16.4361 278.519   4
  -1  -4   7 0.00000 201.483   5
   1  -4  -7 161.071 219.140   5
  -1  -4   6 357.142 199.911   5
   1  -4  -6 356.488 203.711   5
   1  -4  -5 694.160 251.657   5
  -1  -4   5 623.270 151.587   0
  -1  -4   5 600.008 216.049   5
  -1  -4   4 42.4949 108.288   0
  -1  -4   4-10.9617 172.551   5
   1  -4  -4 91.5509 202.249   5
  -1  -4   3 3473.42 155.108   5
  -1  -4   3 3299.85 111.821   0
   1  -4  -3 3397.84 179.847   5
  -1  -4   2 9817.77 128.280   0
   1  -4  -2 9631.34 135.572   3
   1  -4  -2 10574.7 205.418   5
  -1  -4   2 10280.9 183.437   5
  -1  -4   1 2908.03 85.8661   0
   1  -4  -1 3099.91 119.345   0
   1  -4  -1 2844.27 131.518   5
  -1  -4   1 2841.86 120.995   5
  -1  -4   0 6270.04 151.166   5
   1  -4   0 6051.38 154.170   5
   1  -4   0 5987.79 139.616   0
  -1  -4  -1 11617.8 199.070   5
   1  -4   1 11256.2 178.256   0
   1  -4   1 11564.5 205.550   5
   1  -4   2 1453.35 133.458   0
   1  -4   2 1389.76 144.622   5
  -1  -4  -2 1452.95 159.019   5
   1  -4   3 191.001 171.561   5
  -1  -4  -3 256.028 176.266   5
   1  -4   3 316.415 150.959   0
   1  -4   4 812.528 187.172   0
   1  -4   4 696.039 205.697   5
  -1  -4  -4 746.191 240.732   5
   1  -4   5 148.719 182.960   5
  -1  -4  -5 18.8081 204.309   5
   1  -4   5 148.851 165.061   0
   1  -4   6-103.451 168.331   0
   1  -4   6-12.9477 211.668   5
  -1  -4  -6-84.4652 200.953   5
  -1  -4  -7 151.540 214.050   5
   1  -4   7-21.0759 177.118   0
  -1  -4  -7-130.390 270.173   4
   1  -4   7-61.0430 209.050   5
   1  -4   8-65.0091 192.366   0
  -1  -4  -8-126.310 282.740   4
   1  -3  -9 34.6161 296.971   4
   1  -3  -8-92.6506 240.330   5
   1  -3  -8-145.560 282.058   4
   1  -3  -7 65.6848 275.440   4
  -1  -3   7 126.293 157.342   0
   1  -3  -7 151.090 193.739   5
  -1  -3   6 126.016 172.483   0
   1  -3  -6 112.633 252.757   5
  -1  -3   5 827.657 152.082   0
   1  -3  -5 900.109 230.366   5
  -1  -3   4 5616.25 195.271   5
   1  -3  -4 5262.86 209.118   5
  -1  -3   4 5164.99 139.427   0
  -1  -3   3 3958.83 104.754   0
  -1  -3   3 4004.66 149.016   5
   1  -3  -3 4219.31 160.516   5
  -1  -3   2 1513.27 100.439   5
  -1  -3   2 1504.11 63.5698   0
   1  -3  -2 1593.99 122.207   5
  -1  -3   1 20394.7 192.991   5
   1  -3  -1 20119.5 204.070   5
  -1  -3   1 20376.9 137.449   0
   1  -3  -1 20511.1 188.969   0
  -1  -3   0 11522.0 151.679   5
   1  -3   0 11365.6 149.019   0
   1  -3   0 11470.8 167.785   5
  -1  -3  -1 33.2789 85.8525   5
   1  -3   1 42.2752 94.6950   5
   1  -3   1 49.3393 85.1337   0
  -1  -3  -2 6706.68 169.982   5
   1  -3   2 6461.00 175.411   5
   1  -3   2 6635.56 155.785   0
   1  -3   3 3707.36 167.368   0
  -1  -3  -3 3535.49 173.789   5
   1  -3   3 3491.34 171.812   5
   1  -3   4 280.123 168.786   0
   1  -3   4 210.369 201.090   5
  -1  -3  -4 274.441 192.682   5
  -1  -3  -5 35.7719 219.259   5
   1  -3   5-6.19413 191.477   0
  -1  -3  -6 41.0276 200.639   5
   1  -3   6 136.959 178.169   0
   1  -3   7 62.4829 181.125   0
  -1  -3  -7 123.554 250.026   4
  -1  -3  -8 112.859 254.432   4
   1  -3   8-88.7090 196.555   0
  -1  -3  -9-76.0074 251.819   4
   1  -2 -10-2.60906 278.715   4
   1  -2  -9 68.8932 249.570   4
   1  -2  -8-96.8249 258.000   4
  -1  -2   8 7.89039 176.509   0
   1  -2  -7-12.2729 252.275   4
  -1  -2   7 37.8678 159.625   0
   1  -2  -7 115.102 206.882   5
   1  -2  -6 1371.73 265.911   5
   1  -2  -6 1396.08 305.821   4
  -1  -2   6 967.615 199.915   0
   1  -2  -5 1585.54 99.2507   3
   1  -2  -5 2078.52 215.216   5
  -1  -2   5 1907.40 159.150   0
   1  -2  -4-4.53824 131.736   5
  -1  -2   4 73.3856 101.891   0
   1  -2  -4 7.38282 58.0616   3
  -1  -2   3 8691.64 127.307   0
   1  -2  -3 8477.77 163.016   5
   1  -2  -2 34577.8 242.252   5
  -1  -2   2 35259.3 234.933   5
  -1  -2   2 34940.6 168.245   0
   1  -2  -1 11158.7 149.089   5
   1  -2  -1 10779.9 137.149   0
  -1  -2   1 10328.2 122.932   5
  -1  -2   0 24717.1 172.199   5
   1  -2   0 25061.5 192.590   5
   1  -2   0 24813.9 180.390   0
   1  -2   1 38028.1 242.336   0
   1  -2   1 37289.1 252.156   5
  -1  -2  -1 37295.6 239.306   5
   1  -2   2 4326.40 140.002   5
   1  -2   2 4299.81 127.385   0
  -1  -2  -2 4575.28 132.626   5
  -1  -2  -3 901.666 144.005   5
   1  -2   3 970.375 132.174   0
   1  -2   4 2774.05 193.987   0
  -1  -2  -4 2336.88 206.463   5
  -1  -2  -5 359.801 222.045   5
   1  -2   5 670.151 212.862   0
  -1  -2  -6-82.8366 231.191   4
   1  -2   6-5.51414 186.665   0
   1  -2   7 78.3543 194.913   0
  -1  -2  -7-63.7911 232.091   4
   1  -2   8-217.965 201.085   0
  -1  -2  -8-69.4972 232.253   4
  -1  -2  -9-115.255 250.269   4
   1  -1 -10 16.5557 232.107   4
   1  -1  -9 2.19803 247.901   4
  -1  -1   9 25.2584 176.624   0
  -1  -1   8 85.6195 192.145   0
   1  -1  -8 33.1021 246.290   4
  -1  -1   7 375.427 179.855   0
   1  -1  -7 272.915 225.916   4
   1  -1  -6 83.8925 259.406   4
  -1  -1   6 0.86712 194.363   0
   1  -1  -6 137.388 133.337   3
  -1  -1   5 1611.57 165.491   0
   1  -1  -5 1814.33 194.052   5
   1  -1  -5 1705.83 109.281   3
   1  -1  -5 1656.70 205.215   4
   1  -1  -4 14004.6 245.399   4
   1  -1  -4 15506.7 238.546   5
   1  -1  -4 14755.3 162.863   3
  -1  -1   4 14759.6 202.330   0
   1  -1  -3 7128.38 151.202   5
  -1  -1   3 7029.14 125.767   0
  -1  -1   2 6733.43 92.0495   0
   1  -1  -2 7006.89 135.602   5
   1  -1  -1 11669.3 99.6846   5
   1  -1  -1 11831.2 102.192   0
   1  -1   0 17423.5 112.769   5
   1  -1   0 17009.5 120.152   0
   1  -1   1 1708.71 107.955   0
  -1  -1  -1 1741.10 94.9438   5
  -1  -1  -2 10926.1 170.327   5
   1  -1   2 10891.3 166.933   0
  -1  -1  -3 9168.55 199.910   5
   1  -1   3 8915.97 150.552   2
   1  -1   3 8238.78 183.702   0
  -1  -1  -4 819.949 185.565   5
   1  -1   4 873.609 132.184   2
  -1  -1  -4 835.688 176.867   4
   1  -1   4 813.924 172.316   0
   1  -1   5 397.992 209.957   0
   1  -1   5 199.318 167.434   2
  -1  -1  -5 175.020 219.703   4
   1  -1   6 238.978 191.630   0
  -1  -1  -6 157.556 211.268   4
  -1  -1  -7 112.375 207.734   4
   1  -1   7 81.4842 204.643   0
  -1  -1  -8-58.4659 220.016   4
   1  -1   8 7.81208 196.151   0
  -1  -1  -9 34.1681 242.814   4
   1   0 -10-65.8999 247.433   4
   1   0  -9-0.42836 219.867   4
  -1   0   9 20.4869 202.700   0
  -1   0   8-22.3725 206.643   0
   1   0  -8 99.4600 225.731   4
  -1   0   7 37.1601 192.987   0
   1   0  -7 30.3863 150.336   3
   1   0  -7-29.2543 226.587   4
   1   0  -6 1676.92 161.806   3
   1   0  -6 1989.00 258.112   4
  -1   0   6 1963.32 226.625   0
  -1   0   5 3515.26 182.016   0
   1   0  -5 3394.35 204.160   4
   1   0  -5 3227.16 142.697   3
   1   0  -4 71.3436 87.4960   3
   1   0  -4 27.2762 116.992   4
  -1   0   4 149.926 109.488   0
   1   0  -3 14409.7 190.924   4
  -1   0   3 13797.5 158.612   0
   1   0  -3 14701.2 188.007   5
   1   0  -3 14710.4 151.808   3
  -1   0   2 63526.0 224.733   0
   1   0  -2 61807.9 272.901   5
   1   0   1 43538.6 229.870   0
  -1   0  -2 14830.2 173.596   4
   1   0   2 14219.9 185.166   0
   1   0   2 14946.8 172.194   2
  -1   0  -3 2337.09 128.235   4
   1   0   3 2456.13 128.183   2
   1   0   3 1883.23 144.311   0
  -1   0  -4 4521.57 191.415   4
   1   0   4 4362.37 188.176   2
   1   0   4 4188.81 203.041   0
  -1   0  -5 611.103 212.855   4
   1   0   5 749.159 224.378   0
   1   0   5 691.283 204.994   2
   1   0   6 8.91791 190.743   2
   1   0   6 7.51590 202.959   0
  -1   0  -6 23.4442 190.834   4
  -1   0  -7 1.97583 196.563   4
   1   0   7 89.3164 209.469   0
  -1   0  -8 3.86869 202.638   4
   1   0   8 176.611 212.142   0
  -1   0  -9 14.7880 199.658   4
   1   1 -10-125.207 257.680   4
  -1   1   9 128.761 216.905   0
   1   1  -9 67.9371 214.000   4
   1   1  -8 33.0913 213.117   4
  -1   1   8 120.679 204.624   0
   1   1  -7 305.283 170.947   3
   1   1  -7 177.767 202.662   4
  -1   1   7 373.006 205.292   0
  -1   1   6 39.8278 209.822   0
   1   1  -6 151.059 182.077   3
   1   1  -6 101.585 224.759   4
   1   1  -5 1629.70 169.412   4
  -1   1   5 1776.61 170.061   0
   1   1  -5 1667.84 156.003   3
  -1   1   4 15234.8 207.264   0
   1   1  -4 15072.4 223.364   4
   1   1  -4 14821.2 205.602   3
  -1   1   3 6890.76 130.087   0
   1   1  -3 7542.90 136.901   3
   1   1  -3 7046.50 146.088   4
  -1   1   2 6632.44 116.823   0
   1   1   1 1897.57 105.144   0
  -1   1  -2 11251.8 138.832   4
   1   1   2 10482.8 174.708   2
   1   1   2 11164.5 139.775   1
   1   1   2 11190.0 167.103   0
   1   1   3 9380.44 196.626   2
  -1   1  -3 9475.52 169.507   4
   1   1   3 9095.04 196.199   0
   1   1   4 893.569 179.429   2
  -1   1  -4 783.643 151.330   4
   1   1   4 927.744 185.288   0
   1   1   5 304.785 225.316   0
  -1   1  -5 264.173 193.611   4
   1   1   5 459.625 237.645   2
  -1   1  -6 176.778 188.676   4
   1   1   6 172.111 208.072   0
   1   1   6 221.907 228.638   2
   1   1   7-83.0935 225.485   2
  -1   1  -7 34.2507 197.231   4
   1   1   7 2.77087 213.762   0
  -1   1  -8-18.5085 193.610   4
   1   1   8-118.632 202.800   0
   1   2 -10-34.9819 249.613   4
  -1   2  10 156.923 265.557   2
   1   2  -9-14.6989 229.868   4
  -1   2   9 254.779 206.918   0
  -1   2   8 96.1147 210.831   0
   1   2  -8 55.2829 208.566   4
   1   2  -7 115.030 184.375   3
   1   2  -7 51.4105 192.822   4
  -1   2   7 42.4281 193.029   0
  -1   2   6 1145.37 227.067   0
   1   2  -6 1429.02 221.990   4
   1   2  -6 1125.32 223.337   3
   1   2  -5 2069.00 191.553   3
  -1   2   5 2245.95 188.257   0
   1   2  -5 2298.65 189.306   4
   1   2  -4 15.2066 123.993   3
   1   2  -4-62.0397 118.897   4
   1   2  -4 65.4416 63.6644   1
  -1   2   4 46.7610 116.611   0
   1   2  -3 8527.01 117.530   1
  -1   2   3 8895.64 152.383   0
   1   2  -3 9001.85 158.976   3
   1   2  -3 8846.87 154.360   4
   1   2  -2 35585.0 236.084   4
   1   2  -2 36281.2 235.677   3
  -1   2   2 35777.7 230.176   0
   1   2  -2 36098.4 202.445   1
   1   2  -1 10794.6 135.437   4
   1   2   0 24859.4 134.035   0
  -1   2   0 25599.4 206.606   1
   1   2   1 38155.7 271.976   2
   1   2   1 37095.1 212.336   0
   1   2   1 37411.1 212.554   1
   1   2   2 4816.88 103.535   1
   1   2   2 4736.15 156.633   2
  -1   2  -2 5244.38 108.476   4
   1   2   2 4901.63 130.774   0
   1   2   3 931.136 95.9849   1
   1   2   3 772.713 166.148   2
  -1   2  -3 1109.93 106.899   4
   1   2   3 1207.98 139.674   0
   1   2   4 3106.09 237.524   2
  -1   2  -4 2926.48 163.169   4
   1   2   4 2916.14 205.511   0
   1   2   5 502.603 277.700   2
   1   2   5 715.815 239.736   0
  -1   2  -5 461.489 184.383   4
   1   2   6-33.1853 207.570   0
   1   2   6-19.8245 224.491   2
  -1   2  -6 29.8199 171.344   4
   1   2   7 133.515 217.025   0
  -1   2  -7 42.7642 197.062   4
   1   2   7 60.8901 243.234   2
   1   2   8 26.2214 252.782   2
   1   2   8-51.0779 218.630   0
  -1   2  -8 57.9769 182.195   4
  -1   3  10-41.6461 284.745   2
   1   3 -10 32.0239 230.833   4
   1   3  -9 94.4015 224.170   4
  -1   3   8-74.9447 209.855   0
   1   3  -8 19.7597 204.205   4
  -1   3   7 213.650 204.982   0
   1   3  -7 222.786 190.154   4
   1   3  -6 89.4013 232.226   3
  -1   3   6 155.695 217.834   0
   1   3  -6 91.6351 209.792   4
   1   3  -5 742.104 181.194   4
  -1   3   5 1047.84 199.934   0
   1   3  -5 739.398 213.141   3
   1   3  -4 5039.23 190.884   3
   1   3  -4 5427.01 169.919   4
   1   3  -4 5266.10 136.421   1
  -1   3   4 5392.70 187.040   0
  -1   3   3 4337.76 144.242   0
   1   3  -3 3878.40 151.567   3
   1   3  -3 3947.83 132.875   4
  -1   3   3 3878.05 83.8893   1
   1   3  -3 3789.11 112.851   1
  -1   3   2 1600.51 99.4451   0
   1   3  -2 1438.42 91.7818   1
   1   3  -2 1609.99 104.345   4
   1   3  -2 1347.37 100.452   3
  -1   3   2 1460.08 70.9842   1
   1   3  -1 19719.1 185.782   1
   1   3  -1 19523.0 195.029   4
   1   3  -1 20161.5 172.737   3
  -1   3   1 20568.1 189.143   1
   1   3   0 10894.2 172.826   4
   1   3   0 11193.9 148.001   1
  -1   3   0 11403.7 150.945   4
   1   3   0 11272.4 115.468   0
  -1   3   0 9986.14 177.916   1
   1   3   0 11699.9 160.207   2
   1   3   1 24.9200 65.2940   1
  -1   3  -1 69.9856 69.5063   4
  -1   3  -1 23.3258 114.567   1
   1   3   1 7.73006 105.126   2
   1   3   1 0.75612 68.8502   0
   1   3   2 6386.80 147.573   0
  -1   3  -2 6919.61 181.793   1
   1   3   2 6257.21 197.058   2
   1   3   2 6595.40 127.059   1
  -1   3  -2 6375.83 134.956   4
   1   3   3 3829.95 209.039   2
   1   3   3 3387.43 126.766   1
  -1   3  -3 3879.33 141.065   4
   1   3   3 3726.75 168.072   0
   1   3   4 235.811 261.524   2
  -1   3  -4 419.313 175.056   1
   1   3   4 396.558 192.373   0
   1   3   4 313.286 117.168   1
  -1   3  -4 291.781 146.696   4
   1   3   5 168.009 276.957   2
  -1   3  -5 26.9757 174.413   4
   1   3   5 157.683 227.023   0
   1   3   6 200.597 208.051   0
   1   3   6 273.045 255.094   2
  -1   3  -6 237.833 168.740   4
   1   3   7 55.3376 215.208   0
  -1   3  -7 87.0698 184.249   4
   1   3   7-207.817 255.218   2
   1   3   8-148.044 268.441   2
   1   3   9 109.261 272.706   2
   1   4  -9-8.60980 217.722   4
  -1   4   9-168.248 309.912   2
  -1   4   8-109.021 203.837   0
   1   4  -8-45.5477 194.270   4
  -1   4   7-82.8149 197.514   0
   1   4  -7 94.0264 199.531   4
  -1   4   6 378.158 189.519   0
   1   4  -6 390.074 183.120   4
  -1   4   5 760.953 200.481   0
   1   4  -5 682.782 137.627   1
   1   4  -5 784.193 196.387   4
  -1   4   4 27.9452 170.174   0
   1   4  -4 60.4911 126.492   1
   1   4  -4 21.9480 189.976   3
   1   4  -4 77.2244 155.487   4
  -1   4   3 3314.23 105.491   1
  -1   4   3 3239.75 161.200   0
   1   4  -3 3276.16 150.519   4
   1   4  -3 3251.33 144.090   1
   1   4  -3 3179.94 176.270   3
   1   4  -2 10011.8 197.752   4
  -1   4   2 10220.8 183.342   0
  -1   4   2 9389.24 150.391   1
   1   4  -2 10085.3 188.477   3
   1   4  -2 9624.76 169.804   1
  -1   4   1 2885.25 117.633   1
   1   4  -1 2621.72 129.246   4
   1   4  -1 2599.80 111.258   1
   1   4  -1 2616.57 85.6021   2
   1   4   0 5640.79 103.600   0
   1   4   0 5956.55 145.062   2
   1   4   0 5546.00 158.642   4
  -1   4   0 5577.99 145.916   4
   1   4   0 5777.95 136.177   1
  -1   4   0 5949.02 153.728   1
   1   4   1 10499.5 163.651   1
  -1   4  -1 10469.2 229.975   1
   1   4   1 11286.4 216.614   2
   1   4   1 10836.3 155.857   0
  -1   4  -1 10828.5 177.228   4
  -1   4  -2 1568.60 179.401   1
   1   4   2 1384.67 169.110   2
  -1   4  -2 1434.12 124.030   4
   1   4   2 1273.39 106.321   1
   1   4   2 1252.46 118.158   0
   1   4   3 202.556 112.318   1
   1   4   3 319.380 236.938   2
  -1   4  -3 167.819 185.404   1
   1   4   3 398.938 151.732   0
  -1   4  -3 243.913 136.862   4
  -1   4  -4 1173.16 174.822   4
   1   4   4 995.436 305.990   2
  -1   4  -4 535.530 219.465   1
   1   4   4 944.683 206.514   0
  -1   4  -5 54.9419 170.231   1
   1   4   5 105.970 186.508   0
   1   4   5 201.963 273.899   2
  -1   4  -5 182.352 157.841   4
   1   4   6 33.4079 206.350   0
   1   4   6-143.297 290.295   2
  -1   4  -6 14.5635 169.940   4
   1   4   7 57.4463 210.661   0
  -1   4  -7 4.60758 168.377   4
   1   4   7 40.8714 284.157   2
   1   4   8 146.581 293.719   2
  -1   5   9 162.785 340.144   2
   1   5  -9 91.8978 230.676   4
  -1   5   8 62.1195 213.011   0
   1   5  -8-10.6272 205.347   4
  -1   5   8 148.267 327.574   2
  -1   5   7 10.6105 211.683   0
   1   5  -7 103.183 197.054   4
  -1   5   6-39.9111 180.368   0
   1   5  -6-44.4316 178.200   4
  -1   5   5 212.437 189.797   0
   1   5  -5 101.429 142.580   1
   1   5  -5 87.7590 183.954   4
  -1   5   4 1295.75 204.252   0
   1   5  -4 1318.58 170.471   1
   1   5  -4 1479.78 199.102   4
  -1   5   3 755.561 170.301   0
   1   5  -3 707.611 156.723   1
  -1   5   3 653.388 112.042   1
   1   5  -3 819.723 182.684   4
  -1   5   2 695.856 147.808   0
   1   5  -2 781.839 145.361   1
  -1   5   2 596.417 123.783   1
   1   5  -2 828.357 163.457   4
  -1   5   1 4710.77 160.093   1
   1   5  -1 4733.02 192.595   4
   1   5  -1 4348.25 114.740   2
   1   5  -1 4850.76 166.975   1
  -1   5   0 2970.49 162.459   4
   1   5   0 3103.55 107.714   0
   1   5   0 3215.39 147.294   2
   1   5   0 2996.63 188.433   4
  -1   5   0 3553.32 178.081   1
   1   5   0 2872.25 141.144   1
   1   5   1 101.355 155.244   2
   1   5   1 87.1624 102.018   0
  -1   5  -1 133.293 164.996   1
  -1   5  -1 48.8843 137.217   4
   1   5   1 117.686 123.533   1
  -1   5  -2 1276.01 157.508   4
   1   5   2 1302.81 145.122   0
   1   5   2 1422.00 141.555   1
  -1   5  -2 1462.79 212.995   1
   1   5   2 1195.25 205.794   2
  -1   5  -3 1073.16 175.512   4
   1   5   3 988.757 174.240   0
  -1   5  -3 1046.32 232.847   1
   1   5   3 1076.15 261.908   2
   1   5   3 1007.45 142.699   1
   1   5   4-49.4825 173.595   0
  -1   5  -4 87.4266 203.731   1
   1   5   4 44.6811 263.451   2
  -1   5  -4 112.033 162.860   4
   1   5   5-15.8303 181.899   0
   1   5   5 39.9319 270.462   2
  -1   5  -5 59.7472 179.978   1
  -1   5  -5 67.5710 153.432   4
  -1   5  -6-122.332 175.405   4
   1   5   6 129.711 202.739   0
   1   5   6 43.4519 307.723   2
   1   5   7-5.21456 199.620   0
   1   5   7 149.301 274.986   2
   1   5   8-72.8486 309.048   2
   1   6  -9-140.445 239.786   4
  -1   6   8 74.3198 343.247   2
   1   6  -8 43.9526 198.151   4
   1   6  -7-55.9120 202.809   4
  -1   6   7-9.30020 205.992   0
  -1   6   7-38.8510 304.348   2
  -1   6   6 96.3254 194.458   0
   1   6  -6-20.5004 191.937   4
  -1   6   5 78.5582 179.532   0
   1   6  -5-62.1313 182.853   4
   1   6  -5 136.883 144.633   1
  -1   6   4 43.0394 178.672   0
   1   6  -4-47.3599 169.742   1
   1   6  -4 83.5272 197.970   4
   1   6  -3 680.476 199.567   1
   1   6  -3 714.496 211.598   4
  -1   6   3 695.311 146.239   1
  -1   6   3 700.798 198.967   0
  -1   6   2 1722.05 183.163   0
  -1   6   2 1678.86 160.190   1
   1   6  -2 1427.83 209.252   4
   1   6  -2 1620.39 192.137   1
   1   6  -1 231.057 101.334   0
   1   6  -1 163.246 170.466   1
   1   6  -1 166.740 204.569   4
  -1   6   1 310.921 166.079   1
  -1   6   1 245.467 163.554   0
  -1   6   0 522.686 195.194   1
   1   6   0 627.024 173.155   1
  -1   6   0 609.907 207.148   4
   1   6   0 483.619 112.094   0
   1   6   0 537.027 226.051   4
   1   6   0 547.899 146.145   2
   1   6   1 1434.44 165.508   1
   1   6   1 1507.59 136.446   0
   1   6   1 1363.45 199.765   2
  -1   6  -1 1394.37 194.370   4
  -1   6  -1 1634.32 224.050   1
   1   6   2 278.970 155.293   0
   1   6   2 467.313 159.292   1
   1   6   2 416.976 222.042   2
  -1   6  -2 385.019 242.518   1
  -1   6  -2 464.158 193.295   4
  -1   6  -3 2.38301 168.407   4
   1   6   3 32.0028 137.752   1
   1   6   3 106.692 150.719   0
  -1   6  -3 162.523 219.869   1
   1   6   3 156.448 241.588   2
  -1   6  -4 295.089 165.697   4
  -1   6  -4 99.3500 193.490   1
   1   6   4 226.517 250.703   2
   1   6   4 125.667 159.634   0
   1   6   5-52.6559 179.991   0
   1   6   5 51.1588 296.168   2
  -1   6  -5 38.8789 194.217   1
  -1   6  -5-15.5110 165.069   4
   1   6   6-98.4378 283.353   2
   1   6   6 36.2944 187.684   0
   1   6   7-27.0322 304.829   2
  -1   7   8 199.891 343.890   2
   1   7  -8 104.836 234.703   4
   1   7  -7 22.3861 200.024   4
  -1   7   7 19.3173 344.020   2
  -1   7   6-9.48376 182.107   0
  -1   7   6-52.5089 293.600   2
   1   7  -6 71.0847 205.709   4
   1   7  -5 59.4950 170.270   1
  -1   7   5 41.6773 184.945   0
  -1   7   5 172.331 295.520   2
   1   7  -5 99.6594 191.989   4
   1   7  -4 117.138 180.117   1
  -1   7   4 30.8574 174.265   0
   1   7  -4 191.605 189.418   4
  -1   7   4 505.280 250.691   2
  -1   7   3-16.3482 194.686   2
  -1   7   3 143.159 162.309   0
  -1   7   3 42.2783 130.076   1
   1   7  -3 12.9313 188.088   4
   1   7  -3 46.5152 170.619   1
   1   7  -2 209.599 217.230   4
   1   7  -2 69.3655 190.010   1
  -1   7   2 106.621 160.878   1
  -1   7   2 151.855 170.277   0
  -1   7   1 597.783 174.437   0
   1   7  -1 500.724 243.572   4
   1   7  -1 659.421 202.078   1
  -1   7   1 609.717 190.127   1
   1   7   0 410.765 265.013   4
  -1   7   0 440.376 230.586   4
   1   7   0 396.676 194.632   1
  -1   7   0 328.226 214.228   1
  -1   7  -1-47.0537 219.240   1
  -1   7  -1 121.325 194.664   4
   1   7   1-23.1680 125.788   0
   1   7   1 41.7734 174.862   2
   1   7   1 4.85318 159.019   1
  -1   7  -2 51.3007 207.996   1
   1   7   2 90.1589 143.172   1
  -1   7  -2 148.595 173.067   4
   1   7   2 116.713 194.825   2
   1   7   2 88.7199 127.741   0
   1   7   3 83.4970 132.770   1
  -1   7  -3 102.601 181.544   4
   1   7   3 73.9427 139.256   0
  -1   7  -3 159.775 218.644   1
   1   7   3 59.0712 229.105   2
  -1   7  -4-58.1711 172.356   4
   1   7   4 88.1890 163.480   0
  -1   7  -4 84.6529 205.666   1
   1   7   4-66.1923 251.352   2
  -1   7  -5 30.3181 175.201   4
  -1   7  -5 69.3019 186.443   1
   1   7   5-83.8447 287.910   2
   1   7   5-1.87247 168.951   0
   1   7   6-70.8633 196.157   0
   1   7   6-12.0098 322.451   2
   1   7   7 29.3981 320.907   2
  -1   8   7 71.1543 318.191   2
   1   8  -7 38.9570 209.074   4
  -1   8   6 5.77528 177.854   0
   1   8  -6-30.7171 224.552   4
  -1   8   6 212.501 295.661   2
   1   8  -5 83.8308 174.040   1
  -1   8   5 93.8660 184.659   0
   1   8  -5 48.2358 192.108   4
  -1   8   5 70.6632 260.317   2
  -1   8   4-74.3576 174.400   0
   1   8  -4-33.9898 221.071   4
   1   8  -4 114.312 188.346   1
  -1   8   4 106.165 256.737   2
  -1   8   3 17.5321 170.927   0
   1   8  -3 16.7511 184.295   1
   1   8  -3 6.65995 208.938   4
  -1   8   3 120.230 149.516   1
  -1   8   2 130.008 155.702   1
   1   8  -2 53.6818 192.068   1
  -1   8   2 141.229 161.559   0
   1   8  -2 259.228 228.226   4
  -1   8   1 69.9314 146.500   0
  -1   8   1 100.373 178.925   1
   1   8  -1 52.3837 229.579   4
   1   8  -1 52.4481 184.385   1
   1   8   0 30.6621 160.577   1
  -1   8   0 76.9247 189.614   1
   1   8   0-48.6507 254.429   4
  -1   8   0-4.53488 217.914   4
  -1   8  -1 108.996 207.822   4
  -1   8  -1 64.1896 201.300   1
   1   8   1 20.7041 157.319   1
  -1   8  -2-13.0860 201.983   4
  -1   8  -2 35.4383 221.203   1
   1   8   2-32.7493 154.279   1
   1   8   3-21.8460 149.155   1
  -1   8  -3-0.71049 208.370   1
  -1   8  -3-46.8081 192.323   4
   1   8   3 120.626 209.285   2
  -1   8  -4 40.3803 204.133   1
   1   8   4-20.3833 144.817   0
   1   8   4 185.812 242.039   2
  -1   8  -4-108.797 186.059   4
  -1   8  -5 53.6279 211.105   1
   1   8   5 23.9361 294.171   2
   1   8   5 48.7539 173.215   0
   1   8   6-172.088 316.089   2
  -1   9   6-96.6324 298.387   2
   1   9  -6-11.2690 234.908   4
   1   9  -5-44.4698 204.553   1
  -1   9   5 9.16224 171.049   0
   1   9  -5 141.301 246.614   4
   1   9  -4 31.8698 214.137   4
   1   9  -4-21.7211 182.139   1
  -1   9   4 13.0295 171.329   0
   1   9  -3 21.5708 204.683   1
  -1   9   3 79.5673 164.552   0
   1   9  -3-66.3852 216.643   4
  -1   9   3-88.1789 148.951   1
   1   9  -2-65.6385 196.605   1
  -1   9   2 39.2304 176.678   1
   1   9  -2-117.221 248.090   4
  -1   9   2-97.5886 158.340   0
   1   9  -1 15.9539 190.245   1
  -1   9   1 5.56804 153.346   0
  -1   9   1 28.0187 194.250   1
   1   9  -1-14.6633 249.575   4
   1   9   0-99.9091 191.660   1
  -1   9   0 63.8204 208.646   1
  -1   9  -1-31.1248 225.871   1
   1   9   1-137.350 160.818   1
  -1   9  -1-50.8552 219.571   4
   1   9   2-32.7040 160.857   1
  -1   9  -2-16.4776 226.220   1
  -1   9  -2 62.3237 200.594   4
   1   9   3-42.0946 155.291   1
  -1   9  -3 75.9484 209.045   4
  -1   9  -3 45.5648 206.844   1
  -1   9  -4 143.729 231.083   1
   1   9   4 91.6250 251.083   2
   1   9   5 106.065 281.036   2
  -1   9  -5 199.883 230.743   1
   1  10  -5-58.4992 220.920   1
   1  10  -5-4.49200 240.458   4
   1  10  -4-26.3806 199.574   1
   1  10  -4-7.08801 263.264   4
   1  10  -3 95.5951 224.341   1
   1  10  -3-110.088 261.290   4
  -1  10   2 5.89981 171.244   1
   1  10  -2-38.8871 214.639   1
   1  10  -2-135.412 277.303   4
   1  10  -1 14.4895 179.969   1
   1  10  -1 97.3246 276.741   4
  -1  10   1-54.2220 199.775   1
   1  10   0-17.0391 201.151   1
  -1  10   0 89.0092 187.257   1
  -1  10  -1-147.649 222.637   1
  -1  10  -1 43.3842 259.640   4
   1  10   1 20.4009 184.801   1
   1  10   2 16.6532 184.819   1
  -1  10  -2 23.6220 224.744   1
  -1  10  -2 98.0991 229.292   4
  -1  10  -3 33.0603 235.958   1
  -1  10  -4-10.8220 228.661   1
   1  11  -3-191.153 297.983   4
  -1  11   2 35.7852 167.814   1
   1  11  -2-36.6583 198.966   1
   1  11  -2-229.470 296.852   4
   1  11  -1-26.7162 224.435   1
  -1  11   1 21.8856 200.791   1
   1  11   0 125.120 213.025   1
  -1  11   0-155.762 237.016   1
  -1  11  -1 159.858 225.410   1
   1  11   1-20.4265 199.061   1
   1  11   2-71.6475 167.947   1
  -2 -10   3-149.243 209.303   5
  -2 -10   2 39.1208 199.074   5
  -2 -10   1-146.459 201.323   5
  -2 -10   0-180.285 207.339   5
  -2 -10  -1-110.942 192.438   5
  -2  -9   5-145.410 199.159   5
  -2  -9   4-70.5479 197.723   5
   2  -9  -4 98.3354 191.976   5
  -2  -9   3 48.7109 184.378   5
   2  -9  -3 84.6645 231.269   5
  -2  -9   2 87.2205 177.448   5
   2  -9  -2 98.1605 185.532   5
   2  -9  -1-37.6529 210.453   5
   2  -9  -1-21.7044 163.134   0
  -2  -9   1 0.00000 181.827   5
   2  -9   0 63.2384 158.779   0
  -2  -9   0-43.4971 187.902   5
   2  -9   0-24.2012 215.193   5
  -2  -9  -1-75.1719 193.433   5
   2  -9   1-38.0171 155.646   0
   2  -9   1-31.7083 216.011   5
  -2  -9  -2-34.6786 204.122   5
   2  -9   2-37.0737 208.699   5
  -2  -9  -3-16.8182 213.463   5
   2  -8  -6-32.5716 202.303   5
  -2  -8   6-11.5018 198.971   5
   2  -8  -5 186.329 243.810   5
  -2  -8   5-34.6683 167.980   5
   2  -8  -4-77.2321 215.209   5
  -2  -8   4-120.347 194.838   5
   2  -8  -3-104.784 217.944   5
  -2  -8   3 113.219 163.947   5
  -2  -8   2 215.819 182.397   5
   2  -8  -2 110.663 161.391   0
   2  -8  -2 98.2221 217.360   5
   2  -8  -1 184.837 159.612   0
   2  -8  -1 46.2641 201.490   5
  -2  -8   1 104.670 155.058   5
   2  -8   0 37.8944 155.716   0
  -2  -8   0-43.7311 161.312   5
   2  -8   0-57.8461 215.753   5
   2  -8   1-9.11716 162.648   0
  -2  -8  -1 85.5205 168.385   5
   2  -8   1 95.4883 209.298   5
   2  -8   2-17.3719 209.406   5
   2  -8   2 97.3997 161.065   0
  -2  -8  -2-117.104 206.371   5
  -2  -8  -3-5.70797 175.814   5
   2  -8   3 70.1950 178.145   5
   2  -8   3-98.3559 164.910   0
   2  -8   4-67.7675 185.364   5
  -2  -8  -4-165.721 224.297   5
  -2  -7   7 79.0916 198.521   5
   2  -7  -7 1.37379 253.623   5
   2  -7  -6-78.3541 247.558   5
  -2  -7   6 170.456 198.115   5
   2  -7  -5 3.27601 232.647   5
  -2  -7   5 1.29974 167.143   5
   2  -7  -4 45.8985 219.094   5
  -2  -7   4 90.3885 171.758   5
   2  -7  -3 346.715 211.460   5
  -2  -7   3 355.233 165.761   5
  -2  -7   2 30.6770 168.858   5
   2  -7  -2 94.0940 170.793   0
   2  -7  -2 241.083 206.475   5
   2  -7  -1 130.485 193.959   5
   2  -7  -1 98.5021 172.373   0
  -2  -7   1 21.4027 177.384   5
  -2  -7   0 381.142 183.177   5
   2  -7   0 444.307 175.513   0
   2  -7   0 344.469 196.422   5
   2  -7   1 146.042 190.052   5
   2  -7   1 111.820 155.681   0
  -2  -7  -1 97.1158 164.481   5
   2  -7   2-20.9331 195.519   5
   2  -7   2 52.1199 159.723   0
  -2  -7  -2 19.9135 190.421   5
  -2  -7  -3 43.1140 210.626   5
   2  -7   3 43.8728 160.195   0
   2  -7   3-107.496 200.628   5
  -2  -7  -4 128.956 217.070   5
   2  -7   4 149.102 156.525   0
   2  -7   4 33.9733 210.211   5
   2  -7   5 57.5083 199.858   5
  -2  -7  -5 27.8781 221.495   5
   2  -6  -9-435.440 379.905   4
  -2  -6   8 22.2408 183.331   5
   2  -6  -7 275.686 211.389   5
  -2  -6   7 38.6290 167.450   5
  -2  -6   6 110.659 166.478   5
   2  -6  -6 16.1061 226.495   5
   2  -6  -5 294.997 220.887   5
  -2  -6   5 262.437 177.543   5
   2  -6  -4 584.698 238.599   5
  -2  -6   4 596.819 194.453   5
  -2  -6   3 16.2710 190.804   5
   2  -6  -3 84.9485 225.800   5
   2  -6  -2 936.334 177.548   0
   2  -6  -2 1108.93 225.013   5
  -2  -6   2 1200.18 186.353   5
  -2  -6   1 1605.24 175.733   5
   2  -6  -1 1752.05 211.677   5
   2  -6  -1 1710.59 190.112   0
   2  -6   0 214.975 170.620   0
  -2  -6   0 249.895 170.858   5
   2  -6   0 326.156 207.721   5
   2  -6   1 250.098 224.218   5
   2  -6   1 417.410 187.007   0
  -2  -6  -1 414.169 202.890   5
   2  -6   2 534.266 205.755   5
   2  -6   2 520.504 182.368   0
  -2  -6  -2 707.225 200.828   5
  -2  -6  -3 76.6669 190.586   5
   2  -6   3 104.562 155.093   0
   2  -6   3 35.0943 174.646   5
   2  -6   4-75.6391 166.321   0
   2  -6   4 80.8368 207.903   5
  -2  -6  -4 22.4304 183.563   5
  -2  -6  -5-15.9859 220.170   5
   2  -6   5 183.043 169.554   0
   2  -6   5 73.5206 199.074   5
  -2  -6  -6 205.960 202.039   5
   2  -6   6 23.7970 173.067   0
   2  -6   6 156.392 199.328   5
   2  -5  -9 176.840 349.913   4
   2  -5  -8-65.5320 202.849   5
   2  -5  -8 297.949 304.594   4
  -2  -5   8-12.3548 199.796   5
   2  -5  -7 35.6078 244.637   5
  -2  -5   7 163.149 172.563   5
   2  -5  -6 188.252 201.306   5
  -2  -5   6 343.756 177.113   5
   2  -5  -5-71.8890 234.650   5
  -2  -5   5 52.1406 182.319   5
  -2  -5   4 883.454 183.919   5
   2  -5  -4 731.056 224.844   5
   2  -5  -3 3594.80 231.761   5
  -2  -5   3 2853.66 173.374   5
  -2  -5   2 1280.97 141.960   5
   2  -5  -2 1148.32 146.389   3
   2  -5  -2 1315.52 185.555   5
   2  -5  -2 1309.76 154.561   0
   2  -5  -1 578.162 152.405   5
  -2  -5   1 687.293 136.046   5
   2  -5  -1 772.939 148.283   0
  -2  -5   0 3597.24 162.712   5
   2  -5   0 3727.72 192.464   5
   2  -5   0 3751.94 178.794   0
   2  -5   1 1692.60 173.548   0
  -2  -5  -1 1889.57 181.633   5
   2  -5   1 1710.81 187.832   5
   2  -5   2 158.720 193.769   5
   2  -5   2 142.357 171.078   0
  -2  -5  -2 5.45332 191.159   5
  -2  -5  -3 220.480 217.821   5
   2  -5   3 230.774 214.130   5
   2  -5   3 185.692 183.380   0
  -2  -5  -4 93.8261 184.419   5
   2  -5   4 95.1293 165.703   5
   2  -5   4 136.613 163.583   0
   2  -5   5 27.9929 182.117   5
  -2  -5  -5-136.931 202.268   5
   2  -5   5 73.2030 179.471   0
   2  -5   6 54.8061 192.887   5
  -2  -5  -6 135.652 214.200   5
   2  -5   6-50.1586 171.093   0
  -2  -5  -8 34.6949 277.331   4
  -2  -4   9 34.8815 197.465   5
   2  -4  -9-288.727 286.601   4
  -2  -4   8 77.1638 189.772   5
   2  -4  -8 78.4430 210.580   5
   2  -4  -8 39.9020 286.618   4
  -2  -4   7 54.3811 190.488   5
   2  -4  -7 28.1105 230.345   5
   2  -4  -6 208.378 237.578   5
  -2  -4   6 25.1716 182.500   5
   2  -4  -5 2006.71 236.138   5
  -2  -4   5 1863.00 202.166   5
  -2  -4   4 2365.82 168.936   5
   2  -4  -4 2811.26 214.873   5
   2  -4  -3 113.556 154.686   5
   2  -4  -3 112.551 80.7670   3
  -2  -4   3 56.0299 113.478   5
   2  -4  -2 6808.98 160.808   3
  -2  -4   2 6337.27 84.9051   0
   2  -4  -2 6853.96 180.823   5
  -2  -4   2 6976.74 150.884   5
   2  -4  -2 6961.93 166.574   0
   2  -4  -1 9975.79 181.320   0
   2  -4  -1 9168.41 181.372   5
  -2  -4   1 9057.83 159.866   5
  -2  -4   0 1390.04 113.190   5
   2  -4   0 1248.35 131.711   5
   2  -4   0 1520.68 129.535   0
  -2  -4  -1 1313.28 135.250   5
   2  -4   1 1192.46 141.019   5
   2  -4   1 1254.22 141.105   0
  -2  -4  -2 4326.61 195.312   5
   2  -4   2 3439.65 203.345   5
   2  -4   2 4089.46 191.540   0
  -2  -4  -3 924.333 206.861   5
   2  -4   3 594.072 186.765   5
   2  -4   3 719.781 193.788   0
  -2  -4  -4-4.16673 191.725   5
   2  -4   4 113.357 199.291   5
   2  -4   4 102.480 192.953   0
   2  -4   5 111.047 171.923   0
  -2  -4  -5 48.5140 197.370   5
   2  -4   5 94.5768 177.791   5
   2  -4   6-75.2906 189.519   5
   2  -4   6 139.876 187.231   0
  -2  -4  -6 8.92423 190.679   5
   2  -4   7 54.9704 212.842   5
   2  -4   7-57.6118 175.256   0
  -2  -4  -7-66.0805 256.473   4
  -2  -4  -8-165.593 272.841   4
   2  -3 -10-20.9512 303.063   4
   2  -3  -9-170.772 286.449   4
   2  -3  -8-48.3365 279.165   4
   2  -3  -8 303.692 239.042   5
   2  -3  -7 162.541 208.694   5
   2  -3  -7 276.091 264.714   4
   2  -3  -6 1208.32 237.475   5
   2  -3  -5 289.108 200.758   5
  -2  -3   5 357.806 113.432   0
  -2  -3   4 3567.45 147.924   5
   2  -3  -4 3787.58 182.541   5
  -2  -3   4 3231.73 99.1319   0
   2  -3  -4 3274.15 99.7909   3
   2  -3  -3 14227.7 217.640   5
  -2  -3   3 14050.4 187.846   5
   2  -3  -3 13610.5 156.986   3
   2  -3  -2 4147.50 121.351   3
  -2  -3   2 4367.94 106.976   5
   2  -3  -2 4469.61 133.190   5
   2  -3  -2 4293.25 127.812   0
   2  -3  -1 1510.00 96.2456   5
  -2  -3   1 1575.71 79.0295   5
   2  -3  -1 1608.60 107.669   0
   2  -3   0 14601.8 189.149   5
   2  -3   0 14931.4 188.544   0
  -2  -3   0 15146.1 168.785   5
  -2  -3  -1 7611.65 156.628   5
   2  -3   1 7313.48 165.809   5
   2  -3   1 7515.45 168.497   0
   2  -3   2 332.032 136.622   0
   2  -3   2 272.073 134.230   5
  -2  -3  -2 203.979 118.914   5
  -2  -3  -3 1070.66 186.834   5
   2  -3   3 791.207 179.577   5
   2  -3   3 1038.95 179.662   0
  -2  -3  -4 724.464 215.878   5
   2  -3   4 776.703 213.507   5
   2  -3   4 843.579 210.431   0
  -2  -3  -5 190.616 198.411   5
   2  -3   5-100.992 176.540   5
   2  -3   5 78.9927 178.373   0
   2  -3   6 83.1890 190.591   5
   2  -3   6-214.307 188.635   0
  -2  -3  -6-130.727 231.211   4
   2  -3   7 18.4632 206.718   5
  -2  -3  -7-168.960 220.776   4
   2  -3   7 53.6380 182.421   0
  -2  -3  -8-3.57261 250.162   4
   2  -2 -10-12.8558 264.962   4
   2  -2  -9 95.9781 248.546   4
   2  -2  -8 168.977 267.159   4
  -2  -2   7 238.370 154.867   0
   2  -2  -7 139.289 197.735   5
   2  -2  -7 183.921 264.790   4
  -2  -2   6 292.766 153.329   0
   2  -2  -6 288.885 219.055   5
   2  -2  -6 282.615 280.041   4
   2  -2  -5 5057.48 131.265   3
  -2  -2   5 5086.96 155.101   0
   2  -2  -5 4923.90 251.035   4
   2  -2  -5 5114.76 213.275   5
   2  -2  -4 7637.75 185.116   5
   2  -2  -4 7530.52 128.641   3
  -2  -2   4 7437.75 129.691   0
   2  -2  -3 347.547 65.3829   3
  -2  -2   3 357.902 81.4836   5
   2  -2  -3 353.092 101.835   5
  -2  -2   3 298.345 47.1061   0
   2  -2  -2 29219.8 212.342   3
  -2  -2   2 29169.7 186.135   5
   2  -2  -2 28371.8 214.743   5
   2  -2  -2 28315.2 214.712   0
   2  -2  -1 36252.1 221.342   5
   2  -2  -1 35604.7 231.321   0
   2  -2  -1 36285.9 264.912   3
  -2  -2   1 36735.1 181.803   5
  -2  -2   0 6053.22 100.275   5
   2  -2   0 5253.70 113.374   5
   2  -2   0 5549.66 125.241   0
  -2  -2  -1 4277.31 113.327   5
   2  -2   1 3904.20 120.470   5
   2  -2   1 4426.87 134.389   0
  -2  -2  -2 12716.8 201.197   5
   2  -2   2 11445.8 204.207   5
   2  -2   2 12382.2 207.376   0
  -2  -2  -3 1417.78 164.070   5
   2  -2   3 1477.47 171.721   0
  -2  -2  -4 243.370 196.067   5
   2  -2   4 366.678 203.813   0
   2  -2   5 373.877 199.758   0
  -2  -2  -5 272.048 212.713   4
   2  -2   6-29.9925 200.607   0
  -2  -2  -6-55.1034 211.870   4
   2  -2   7-62.1796 187.249   0
  -2  -2  -7-9.86049 212.811   4
   2  -1 -10 113.523 257.507   4
  -2  -1   9 52.6799 176.513   0
   2  -1  -9-141.445 257.530   4
  -2  -1   8 42.7409 178.532   0
   2  -1  -8-11.7046 244.590   4
  -2  -1   7 522.241 190.475   0
   2  -1  -7 451.524 262.470   4
   2  -1  -7 312.906 134.417   3
   2  -1  -6 2048.25 272.681   4
   2  -1  -6 2170.65 150.159   3
   2  -1  -6 2381.96 243.844   5
  -2  -1   6 2388.37 184.494   0
   2  -1  -5 654.613 99.6724   3
  -2  -1   5 611.198 119.622   0
   2  -1  -5 516.459 158.815   5
   2  -1  -5 463.602 175.945   4
   2  -1  -4 5281.23 119.375   3
   2  -1  -4 6062.86 165.753   5
   2  -1  -4 5967.55 179.985   4
  -2  -1   4 5633.94 126.123   0
   2  -1  -3 26075.7 218.623   5
   2  -1  -3 26419.6 194.417   3
   2  -1  -3 26143.9 232.111   4
  -2  -1   3 25870.8 162.748   0
   2  -1  -2 25687.0 186.692   3
   2  -1  -2 25709.8 178.493   0
   2  -1  -2 26250.2 193.752   2
   2  -1  -2 25716.7 175.760   5
   2  -1  -1 6246.30 86.3315   5
   2  -1  -1 6310.33 115.038   0
   2  -1   0 48336.4 213.491   5
  -2  -1   0 48242.6 183.880   5
   2  -1   0 48184.9 255.702   0
  -2  -1  -1 11752.3 149.358   5
   2  -1   1 10631.8 165.812   0
   2  -1   2 124.817 112.368   0
   2  -1   2 139.064 76.1671   2
  -2  -1  -2 98.3295 99.2966   5
   2  -1   3 2661.66 175.171   0
   2  -1   3 2584.35 131.658   2
   2  -1   4 2038.85 172.775   2
   2  -1   4 2019.38 223.959   0
  -2  -1  -4 1571.81 205.203   4
   2  -1   5 188.206 216.009   0
  -2  -1  -5 49.0808 207.824   4
  -2  -1  -6 54.0638 195.749   4
   2  -1   6-21.1754 204.522   0
   2  -1   7-50.2774 217.640   0
  -2  -1  -7-56.7020 183.148   4
  -2   0  10 12.8046 207.063   0
   2   0 -10-104.534 239.306   4
   2   0  -9 161.909 232.991   4
  -2   0   9 6.56586 200.671   0
  -2   0   8 339.859 193.767   0
   2   0  -8 211.593 150.948   3
   2   0  -8 337.742 242.705   4
   2   0  -7 368.934 154.496   3
  -2   0   7 508.910 191.775   0
   2   0  -7 355.030 244.891   4
   2   0  -6 375.642 219.676   4
   2   0  -6 475.401 150.817   3
  -2   0   6 407.954 171.665   0
   2   0  -5 5956.22 158.874   3
   2   0  -5 5967.39 213.313   4
  -2   0   5 6139.08 170.128   0
  -2   0   4 11678.3 157.802   0
   2   0  -4 11960.7 166.023   3
   2   0  -4 11512.3 192.955   4
  -2   0   3 991.719 70.3018   0
   2   0  -3 936.009 92.3498   4
   2   0  -3 987.388 80.1548   3
   2   0  -3 1148.81 92.6944   5
  -2   0   2 54935.2 198.599   0
   2   0  -2 54437.8 211.930   5
   2   0  -2 56185.8 256.751   2
   2   0  -2 55428.7 251.065   3
   2   0  -1 79795.2 222.769   0
   2   0   0 13670.8 143.820   0
   2   0   1 12817.0 153.786   2
   2   0   1 12429.9 165.040   0
  -2   0  -2 16841.0 184.958   4
   2   0   2 16356.1 211.736   2
   2   0   3 1276.95 140.885   2
  -2   0  -3 1538.40 132.862   4
   2   0   3 1326.68 159.836   0
  -2   0  -4 350.269 168.826   4
   2   0   4 291.445 205.789   0
   2   0   4 330.590 181.418   2
  -2   0  -5 415.870 197.055   4
   2   0   5 461.782 220.355   0
   2   0   5 602.425 209.412   2
   2   0   6 133.748 208.469   0
  -2   0  -6-27.4575 185.729   4
   2   0   7 82.0466 208.240   0
   2   1 -10-0.48215 266.046   4
   2   1  -9 90.5801 238.783   4
  -2   1   9 84.2242 195.611   0
   2   1  -8-181.175 227.814   4
   2   1  -8 111.760 173.824   3
  -2   1   8-100.625 198.618   0
   2   1  -7 404.043 171.682   3
  -2   1   7 400.657 201.487   0
   2   1  -7 375.194 229.440   4
   2   1  -6 2220.49 226.050   4
  -2   1   6 2414.70 198.268   0
   2   1  -6 2277.39 184.273   3
  -2   1   5 566.575 132.161   0
   2   1  -5 646.047 126.544   3
   2   1  -5 579.136 155.879   4
   2   1  -4 5626.24 138.744   3
   2   1  -4 5819.71 156.110   4
  -2   1   4 5398.68 135.691   0
   2   1  -3 26378.4 214.875   3
   2   1  -3 25642.5 209.413   4
   2   1  -3 26292.5 198.520   2
  -2   1   3 26179.1 200.991   0
  -2   1   2 26032.7 181.114   0
   2   1  -2 25805.1 187.941   3
   2   1  -2 26270.9 183.487   2
   2   1   0 45418.9 263.563   2
   2   1   0 45602.2 206.708   0
   2   1   0 45473.8 255.832   1
   2   1   1 11607.2 156.375   0
   2   1   1 10500.4 177.231   2
   2   1   1 11354.3 170.418   1
   2   1   2 107.022 114.957   2
   2   1   2 298.617 115.102   0
   2   1   2 160.019 102.877   1
  -2   1  -2 140.742 72.5220   4
   2   1   3 2838.03 171.594   2
  -2   1  -3 2383.17 126.387   4
   2   1   3 2510.92 174.276   0
   2   1   4 1891.98 231.657   2
  -2   1  -4 1828.84 167.543   4
   2   1   4 2222.12 224.898   0
   2   1   5 180.604 227.804   0
  -2   1  -5 159.570 171.530   4
   2   1   5 179.490 226.323   2
   2   1   6 111.843 212.699   0
   2   1   6 27.6153 204.398   2
  -2   1  -6 38.3150 164.021   4
   2   1   7-129.010 226.050   0
   2   1   7-26.3352 223.480   2
   2   2 -10 7.30921 242.557   4
   2   2  -9-130.225 232.353   4
  -2   2   9 38.9622 211.532   0
   2   2  -9-16.4028 189.985   3
   2   2  -8 182.829 231.523   4
   2   2  -8 159.414 195.793   3
  -2   2   8 216.332 201.122   0
   2   2  -7 271.337 178.770   3
   2   2  -7 202.323 202.977   4
  -2   2   7 347.803 189.421   0
  -2   2   6 322.890 188.158   0
   2   2  -6 117.943 188.329   3
   2   2  -6 194.378 211.600   4
   2   2  -5 4878.75 186.952   3
  -2   2   5 5109.14 185.333   0
   2   2  -5 5090.48 199.254   4
   2   2  -4 7392.49 168.052   3
  -2   2   4 8047.17 169.467   0
   2   2  -4 7401.22 172.390   4
   2   2  -4 7175.66 104.936   1
   2   2  -3 296.185 84.7485   3
   2   2  -3 287.679 66.2227   2
  -2   2   3 337.329 89.1304   0
   2   2  -3 355.908 77.8135   4
   2   2  -3 346.118 55.8763   1
   2   2  -2 29013.7 216.572   4
   2   2  -2 28469.6 205.758   3
   2   2  -2 28438.2 188.591   2
   2   2  -2 28655.2 189.471   1
   2   2  -1 35520.9 220.232   4
   2   2  -1 34267.0 225.357   2
   2   2  -1 34615.3 218.743   1
   2   2   0 5908.88 95.5316   0
   2   2   0 5234.80 119.954   4
   2   2   0 5350.22 136.876   2
   2   2   0 5171.81 121.407   1
   2   2   1 4373.43 122.629   1
   2   2   1 4419.76 145.301   2
   2   2   1 4254.10 116.950   0
  -2   2  -2 11587.1 151.731   4
   2   2   2 12458.5 232.134   2
   2   2   2 11890.4 186.600   1
   2   2   2 12875.1 207.482   0
   2   2   3 1657.09 207.642   2
  -2   2  -3 1670.25 120.369   4
   2   2   3 1323.78 141.557   1
   2   2   3 1771.42 179.021   0
   2   2   4 258.307 210.182   0
  -2   2  -4 246.503 146.733   4
   2   2   4 222.359 230.275   2
   2   2   5 509.289 221.070   2
   2   2   5 374.647 213.710   0
  -2   2  -5 237.495 158.338   4
   2   2   6 32.8442 212.845   0
   2   2   6 35.2446 231.588   2
   2   2   7-183.545 221.071   0
   2   2   7 33.5765 239.289   2
   2   2   8 0.00000 258.932   2
   2   3 -10 15.3295 217.801   4
  -2   3   9 117.390 218.241   0
   2   3  -9 7.18666 210.458   4
  -2   3   8 100.785 200.120   0
   2   3  -8-100.713 221.810   4
   2   3  -8-45.9713 210.760   3
  -2   3   7 126.124 182.455   0
   2   3  -7 205.261 196.004   4
   2   3  -7 220.153 191.636   3
   2   3  -6 1020.30 217.898   4
   2   3  -6 928.566 228.414   3
  -2   3   6 996.502 212.139   0
   2   3  -5 278.186 175.325   3
  -2   3   5 248.245 171.420   0
   2   3  -5 130.254 172.312   4
   2   3  -4 2970.69 103.985   2
  -2   3   4 3472.68 162.208   0
   2   3  -4 3456.08 159.379   4
   2   3  -4 3439.33 109.886   1
   2   3  -4 3209.59 158.395   3
   2   3  -3 13034.9 143.051   2
  -2   3   3 13950.0 200.414   0
   2   3  -3 13281.7 197.178   4
   2   3  -3 13134.5 164.356   1
  -2   3   3 13278.6 139.988   1
   2   3  -3 12701.4 191.508   3
   2   3  -2 4159.61 128.657   4
   2   3  -2 3995.32 93.4600   2
   2   3  -2 4348.11 110.798   3
   2   3  -2 4068.69 109.021   1
  -2   3   2 3934.54 118.061   1
   2   3  -1 1612.96 69.0866   3
   2   3  -1 1493.34 91.2191   2
   2   3  -1 1484.18 95.4453   4
   2   3  -1 1561.13 89.3552   1
   2   3  -1 1454.11 42.1396   0
  -2   3   1 1672.92 115.148   1
   2   3   0 14186.9 129.049   0
  -2   3   0 13669.1 154.717   4
   2   3   0 14076.7 198.755   2
   2   3   0 13952.5 192.422   4
   2   3   0 14711.0 181.174   1
   2   3   1 7226.79 147.040   1
   2   3   1 6863.66 185.482   2
  -2   3  -1 6807.44 120.767   4
   2   3   1 7444.94 140.086   0
   2   3   2 196.884 123.378   0
   2   3   2 246.971 115.821   1
   2   3   2 229.914 156.154   2
  -2   3  -2 135.085 81.3353   4
   2   3   3 1475.12 220.841   2
  -2   3  -3 1219.61 130.807   4
   2   3   3 1089.73 146.877   1
   2   3   3 1236.45 183.700   0
   2   3   4 672.055 162.784   1
   2   3   4 1319.32 293.846   2
   2   3   4 1132.26 224.668   0
  -2   3  -4 901.313 159.606   4
   2   3   5 70.8687 245.199   2
   2   3   5-43.7560 199.841   0
   2   3   6-43.6836 211.180   0
   2   3   6-12.5051 263.582   2
   2   3   7 66.7486 264.015   2
   2   3   7-159.151 236.821   0
   2   3   8 0.00000 277.331   2
   2   4 -10 35.5589 227.231   4
   2   4  -9-105.049 238.032   4
   2   4  -8 37.9676 216.420   4
  -2   4   8 77.0228 208.367   0
  -2   4   7 65.2174 190.308   0
   2   4  -7 101.667 209.307   3
   2   4  -7 38.5917 195.697   4
  -2   4   6 133.162 188.968   0
   2   4  -6 45.2391 217.301   3
   2   4  -6-20.3661 202.661   4
  -2   4   5 1976.39 221.008   0
   2   4  -5 1946.67 201.187   4
   2   4  -5 1652.20 131.476   1
   2   4  -5 1830.97 219.866   3
  -2   4   4 2765.65 191.251   0
   2   4  -4 2452.52 180.954   4
   2   4  -4 2487.27 131.429   1
   2   4  -4 2457.26 188.347   3
  -2   4   3 54.8761 137.517   0
   2   4  -3 48.3757 125.478   3
   2   4  -3 85.7647 107.401   1
   2   4  -3 49.6302 128.169   4
   2   4  -3 94.9295 64.0313   2
  -2   4   3 68.9003 82.6690   1
   2   4  -2 6462.19 169.281   4
   2   4  -2 6252.43 118.230   2
  -2   4   2 6802.47 154.198   1
   2   4  -2 6416.14 145.003   3
   2   4  -2 6599.28 155.645   1
   2   4  -1 8694.09 98.2401   0
   2   4  -1 9211.45 191.736   4
   2   4  -1 8717.96 129.415   3
   2   4  -1 8886.12 156.024   2
   2   4  -1 9314.25 171.041   1
  -2   4   1 7860.42 200.485   1
   2   4   0 1196.47 79.2016   0
   2   4   0 1208.43 147.438   4
   2   4   0 1073.45 107.178   1
   2   4   0 1260.75 129.070   2
  -2   4   0 1221.61 107.960   4
  -2   4   0 1405.86 157.706   1
   2   4   1 1120.33 100.957   0
  -2   4  -1 1022.08 105.108   4
   2   4   1 1228.65 161.408   2
   2   4   1 1301.39 122.208   1
  -2   4  -1 780.837 178.106   1
  -2   4  -2 3798.45 148.069   4
   2   4   2 4262.82 226.159   2
   2   4   2 3996.60 164.655   1
   2   4   2 3717.21 167.666   0
  -2   4  -2 3407.92 230.698   1
   2   4   3 567.869 153.007   1
   2   4   3 667.711 187.240   0
  -2   4  -3 292.679 236.713   1
   2   4   3 853.615 256.265   2
  -2   4  -3 679.959 138.430   4
   2   4   4-24.9749 190.636   0
  -2   4  -4 39.6196 230.360   1
   2   4   4 136.218 271.060   2
  -2   4  -4 39.0984 140.105   4
  -2   4  -5 98.9360 199.922   1
   2   4   5 314.851 207.803   0
   2   4   5 193.209 270.689   2
   2   4   6-98.9779 218.356   0
   2   4   6 93.3458 269.090   2
   2   4   7-30.1115 230.764   0
   2   4   7 6.33288 289.780   2
   2   4   8 147.463 281.874   2
   2   5  -9-34.8460 239.211   4
   2   5  -8-61.0498 191.872   4
  -2   5   8 37.6894 200.705   0
  -2   5   7 118.023 193.229   0
   2   5  -7 83.4653 207.451   4
   2   5  -6 199.795 179.589   4
  -2   5   6 265.854 182.205   0
   2   5  -6 225.069 214.836   3
  -2   5   5 4.43872 196.368   0
   2   5  -5 62.6315 137.424   1
   2   5  -5 18.6539 198.750   4
   2   5  -5 109.696 221.977   3
   2   5  -4 560.153 211.999   3
  -2   5   4 855.500 198.901   0
   2   5  -4 731.122 155.044   1
   2   5  -4 765.267 204.581   4
  -2   5   3 2947.61 194.492   0
   2   5  -3 2699.07 199.584   4
   2   5  -3 2782.84 169.312   1
  -2   5   3 2894.33 143.844   1
   2   5  -3 2700.95 183.685   3
  -2   5   2 1548.62 168.472   0
   2   5  -2 1221.90 168.291   4
   2   5  -2 954.453 94.3826   2
   2   5  -2 1222.61 153.424   1
  -2   5   2 1304.04 150.299   1
   2   5  -2 1102.72 137.428   3
   2   5  -1 557.295 162.785   4
   2   5  -1 480.496 114.901   2
   2   5  -1 651.461 137.459   1
  -2   5   1 691.543 168.402   1
   2   5  -1 572.950 99.6896   3
   2   5   0 3263.18 113.793   0
   2   5   0 3238.29 175.314   2
   2   5   0 3295.52 209.901   4
  -2   5   0 3337.63 168.888   4
   2   5   0 3378.20 159.839   1
  -2   5   0 2457.06 225.448   1
  -2   5  -1 1615.72 147.702   4
   2   5   1 1485.96 206.621   2
   2   5   1 1386.72 119.801   0
   2   5   1 1698.39 154.581   1
  -2   5  -1 1937.89 244.048   1
   2   5   2-6.95310 230.897   2
   2   5   2 47.4095 149.861   1
  -2   5  -2 166.638 259.012   1
  -2   5  -2 78.6163 144.508   4
   2   5   2 48.4133 138.047   0
   2   5   3 175.759 173.468   0
   2   5   3 186.388 156.620   1
  -2   5  -3 139.297 253.537   1
   2   5   3 270.054 257.408   2
  -2   5  -3 135.173 148.022   4
   2   5   4 125.099 164.345   0
  -2   5  -4 221.302 210.566   1
   2   5   4 223.382 256.392   2
   2   5   5-36.1206 194.138   0
   2   5   5-77.3853 262.069   2
  -2   5  -5-137.950 221.156   1
   2   5   6 184.615 286.469   2
   2   5   6-141.688 208.057   0
   2   5   7-31.4421 311.358   2
   2   6  -9 146.735 242.658   4
  -2   6   9 133.383 325.944   2
   2   6  -8-115.445 228.841   4
  -2   6   7 12.2052 194.439   0
   2   6  -7 49.2532 204.911   4
  -2   6   6 101.613 190.603   0
   2   6  -6 53.5238 191.675   4
   2   6  -5 302.505 133.990   1
   2   6  -5 214.916 188.655   4
  -2   6   5 512.791 182.212   0
  -2   6   4 551.243 202.749   0
   2   6  -4 496.194 170.129   1
   2   6  -4 445.881 215.035   4
   2   6  -3-36.7593 227.322   4
   2   6  -3-18.4983 171.927   1
  -2   6   3 31.3404 144.742   1
  -2   6   3-15.8652 197.037   0
   2   6  -2 856.778 186.771   1
   2   6  -2 864.007 217.015   4
  -2   6   2 927.927 181.439   1
  -2   6   2 1034.86 191.691   0
   2   6  -1 1348.95 139.692   2
   2   6  -1 1608.73 239.866   4
   2   6  -1 1411.19 179.395   1
  -2   6   1 1562.94 214.894   1
  -2   6   0 200.043 197.066   4
   2   6   0 243.063 175.943   1
  -2   6   0 73.6464 223.320   1
   2   6   0 184.651 152.602   2
   2   6   0 152.889 248.348   4
   2   6   1 422.389 167.742   1
  -2   6  -1 441.807 182.015   4
   2   6   1 250.772 121.637   0
  -2   6  -1 449.584 270.933   1
   2   6   1 383.109 219.676   2
   2   6   2 554.356 144.163   0
   2   6   2 591.391 162.541   1
  -2   6  -2 512.905 164.880   4
   2   6   2 627.513 216.815   2
  -2   6  -2 327.589 261.991   1
   2   6   3 72.8194 139.262   1
  -2   6  -3 108.550 226.603   1
   2   6   3 162.542 215.330   2
   2   6   3 125.916 139.028   0
  -2   6  -4 42.3569 228.167   1
   2   6   4 42.1094 272.422   2
   2   6   4 17.6020 162.589   0
  -2   6  -5 1.55917 210.988   1
   2   6   5-56.1312 179.554   0
   2   6   5 31.4623 258.778   2
   2   6   6 96.7054 206.753   0
   2   6   6-61.7210 299.029   2
   2   6   7 239.122 302.603   2
   2   7  -8 89.7234 237.050   4
  -2   7   8 36.2244 348.314   2
  -2   7   7 12.8914 185.586   0
   2   7  -7 176.963 222.112   4
  -2   7   6 113.980 199.746   0
   2   7  -6 4.04088 216.717   4
   2   7  -5-21.5339 154.314   1
   2   7  -5 94.1460 210.824   4
  -2   7   5 70.6048 192.576   0
  -2   7   4 132.940 181.839   0
   2   7  -4 10.3161 155.168   1
   2   7  -4 186.903 206.769   4
   2   7  -3 218.405 167.246   1
  -2   7   3 278.107 141.641   1
  -2   7   3 338.030 179.365   0
   2   7  -3 383.571 203.263   4
  -2   7   2 148.784 183.961   0
   2   7  -2 94.6593 180.012   1
  -2   7   2 198.692 175.836   1
   2   7  -2 69.6733 221.908   4
   2   7  -1 73.7612 182.219   1
  -2   7   1 139.912 188.128   1
   2   7  -1 108.542 241.923   4
   2   7   0 398.894 162.485   1
   2   7   0 390.544 253.479   4
  -2   7   0 578.469 223.630   1
  -2   7   0 410.072 212.339   4
  -2   7  -1 111.372 169.708   4
   2   7   1 232.906 173.188   2
   2   7   1 258.069 153.175   1
  -2   7  -1 151.973 219.120   1
  -2   7  -2-62.4961 153.163   4
   2   7   2 63.4451 140.391   1
  -2   7  -2 2.28930 228.152   1
   2   7   2 64.7345 201.043   2
   2   7   3 42.8975 146.094   1
  -2   7  -3 31.2240 239.736   1
   2   7   3 7.60093 236.370   2
   2   7   4-65.4017 234.926   2
  -2   7  -4 7.09420 224.882   1
   2   7   4 50.3388 160.932   0
  -2   7  -5-161.312 207.638   1
   2   7   5-75.5227 171.466   0
   2   7   5 145.849 283.331   2
   2   7   6 169.064 314.288   2
  -2   8   7-88.6215 335.310   2
   2   8  -7-2.73793 246.476   4
  -2   8   6-190.049 200.790   0
   2   8  -6-14.2931 221.985   4
  -2   8   6 93.3986 295.574   2
   2   8  -5 5.28182 163.753   1
  -2   8   5-75.9646 191.738   0
   2   8  -5-71.6507 203.053   4
  -2   8   5-164.236 240.492   2
  -2   8   4 39.1708 193.948   0
   2   8  -4 63.3377 173.517   1
   2   8  -4 44.3495 213.107   4
   2   8  -3 44.7466 172.726   1
  -2   8   3-65.5126 154.993   1
  -2   8   3 93.0254 179.263   0
   2   8  -3 39.5657 224.782   4
  -2   8   2 20.9180 173.965   0
   2   8  -2 31.6792 180.521   1
  -2   8   2-20.4483 172.622   1
   2   8  -2 166.749 234.565   4
  -2   8   1 103.452 194.636   1
   2   8  -1 59.8832 172.032   1
   2   8  -1 33.4927 239.864   4
  -2   8   0-17.9249 213.358   4
   2   8   0 5.40956 175.625   1
  -2   8   0 71.4224 206.788   1
  -2   8  -1 2.88082 195.726   4
  -2   8  -1 5.67101 222.210   1
   2   8   1-4.94296 173.882   1
   2   8   2 37.3216 203.478   2
   2   8   2 134.138 163.179   1
  -2   8  -2 46.7660 228.298   1
   2   8   3 39.5372 153.389   1
  -2   8  -3-91.2080 228.524   1
   2   8   3 24.9615 221.850   2
  -2   8  -4 56.4700 213.463   1
   2   8   4 6.78840 247.031   2
  -2   8  -5-85.4305 255.380   1
   2   8   5-32.8487 272.118   2
  -2   9   7-234.699 316.942   2
   2   9  -6 90.5462 229.211   4
  -2   9   5-44.7712 200.367   0
   2   9  -5 37.9773 163.133   1
   2   9  -5 44.4083 241.913   4
   2   9  -4-72.4976 219.738   4
   2   9  -4 53.3763 167.718   1
  -2   9   4 45.1158 175.885   0
   2   9  -3-15.8502 185.913   1
  -2   9   3 149.070 163.351   1
  -2   9   3 35.4734 171.463   0
   2   9  -3 11.0711 225.237   4
   2   9  -2-56.1074 183.136   1
  -2   9   2 188.292 167.438   0
  -2   9   2 73.2196 167.103   1
   2   9  -2 62.5434 240.092   4
  -2   9   1 46.2896 167.137   0
   2   9  -1 58.9898 189.661   1
  -2   9   1-42.9548 206.671   1
   2   9  -1 48.2322 257.652   4
   2   9   0 43.8540 176.654   1
  -2   9   0 183.593 201.440   1
   2   9   1-97.9661 164.718   1
  -2   9  -1 106.144 230.644   1
  -2   9  -2-208.710 232.839   1
   2   9   2 53.2083 161.397   1
   2   9   3-70.9598 162.225   1
  -2   9  -3 216.237 248.868   1
   2   9   3 8.80693 218.258   2
  -2   9  -4-17.4693 262.648   1
   2   9   4-211.873 250.974   2
  -2   9  -5-134.603 217.999   1
   2  10  -5 128.110 191.928   1
   2  10  -5-219.902 267.835   4
   2  10  -4-10.0057 191.113   1
   2  10  -4-7.56976 270.394   4
   2  10  -3 18.4482 275.821   4
   2  10  -3 24.9240 199.060   1
  -2  10   3 80.8744 173.960   0
   2  10  -2 20.7107 269.237   4
   2  10  -2 26.4011 185.877   1
  -2  10   2-109.239 199.874   1
  -2  10   2 153.373 173.754   0
   2  10  -1 32.2756 174.485   1
  -2  10   1-39.1903 204.478   1
   2  10  -1-186.220 285.087   4
   2  10   0 5.91740 197.004   1
  -2  10   0 52.5769 197.048   1
   2  10   1-102.152 179.818   1
  -2  10  -1 4.28116 249.674   1
   2  10   2-24.5052 185.013   1
  -2  10  -2 39.4710 227.217   1
  -2  10  -3-48.4810 218.409   1
   2  11  -2-13.0929 184.273   1
  -2  11   2-22.8439 200.635   1
   2  11  -2 260.125 313.984   4
   2  11  -1-27.0175 198.865   1
  -2  11   1-61.7900 187.932   1
   2  11   0-83.6182 176.981   1
  -2  11   0 69.4283 200.766   1
   2  11   1 14.4143 169.229   1
   3 -10  -2-4.95397 181.114   0
   3 -10  -1 49.9717 166.973   0
   3 -10   0 8.02126 180.582   0
  -3  -9   5 118.491 189.075   5
   3  -9  -4-120.384 222.222   5
  -3  -9   4-23.9169 177.571   5
  -3  -9   3-170.849 150.259   5
   3  -9  -3 94.6788 182.712   5
   3  -9  -2-46.5648 161.300   0
  -3  -9   2 158.374 172.504   5
   3  -9  -2 106.560 210.174   5
   3  -9  -1 13.2394 170.499   0
   3  -9  -1 34.1302 205.701   5
  -3  -9   1 21.7645 178.238   5
   3  -9   0-24.9755 165.977   0
   3  -9   0 137.192 179.827   5
   3  -9   1 38.1168 181.933   5
   3  -9   1 117.478 165.505   0
   3  -9   2-20.8766 183.036   0
  -3  -8   7 78.0091 191.411   5
  -3  -8   6 74.9179 190.951   5
   3  -8  -6 82.5809 229.317   5
   3  -8  -5 97.4838 228.317   5
  -3  -8   5-178.373 186.534   5
   3  -8  -4 39.2990 195.748   5
  -3  -8   4-0.96460 174.092   5
   3  -8  -3 67.0120 187.922   5
  -3  -8   3-17.4767 152.313   5
   3  -8  -2-30.8823 169.507   0
   3  -8  -2-85.9285 187.867   5
  -3  -8   2 123.006 167.973   5
   3  -8  -1 53.3672 178.944   0
  -3  -8   1 95.8752 171.795   5
   3  -8  -1 138.171 181.972   5
   3  -8   0 212.875 207.249   5
  -3  -8   0 46.0403 181.011   5
   3  -8   0 74.3985 175.969   0
   3  -8   1-71.1722 171.952   0
   3  -8   1-86.0017 184.858   5
  -3  -8  -1-59.4788 184.114   5
   3  -8   2-57.8893 214.503   5
   3  -8   2 0.96527 170.076   0
  -3  -8  -2-44.2916 169.164   5
   3  -8   3-53.8478 176.080   0
   3  -8   3 91.1533 196.496   5
   3  -8   4-0.37690 189.888   0
  -3  -7   7 53.3769 186.730   5
   3  -7  -7-15.6112 218.438   5
  -3  -7   6 76.5673 178.677   5
   3  -7  -6 388.845 251.711   5
   3  -7  -5-33.8285 229.126   5
  -3  -7   5 110.897 171.610   5
  -3  -7   4 104.164 165.648   5
   3  -7  -4 39.0395 210.086   5
   3  -7  -3 99.0070 171.666   0
   3  -7  -3 24.2366 201.156   5
  -3  -7   3 153.808 146.665   5
   3  -7  -2 331.229 174.305   0
   3  -7  -2 446.124 196.987   5
  -3  -7   2 361.090 154.419   5
  -3  -7   1 102.085 151.853   5
   3  -7  -1 100.895 172.114   0
   3  -7  -1 219.986 193.824   5
  -3  -7   0 55.5177 149.902   5
   3  -7   0 15.2938 170.178   0
   3  -7   0-22.2350 172.980   5
   3  -7   1 191.634 187.433   5
   3  -7   1 49.3357 174.212   0
  -3  -7  -1 85.9621 164.774   5
   3  -7   2 36.0559 175.736   0
  -3  -7  -2 24.5565 190.349   5
   3  -7   2 150.373 204.754   5
   3  -7   3 7.83339 172.872   0
  -3  -7  -3 144.588 168.729   5
   3  -7   3 134.576 209.141   5
   3  -7   4-34.1237 187.144   5
   3  -7   4-49.2349 175.070   0
   3  -6  -9-309.982 324.228   4
   3  -6  -8 156.129 198.435   5
  -3  -6   8 174.254 189.858   5
   3  -6  -7 121.886 235.108   5
  -3  -6   7-21.7306 150.066   5
   3  -6  -6 67.9815 222.030   5
  -3  -6   6 33.2221 157.449   5
   3  -6  -5-46.5161 224.197   5
  -3  -6   5 142.978 154.825   5
   3  -6  -4 671.459 227.527   5
  -3  -6   4 783.865 172.319   5
   3  -6  -3 598.503 199.428   0
   3  -6  -3 781.889 238.797   5
  -3  -6   3 556.412 167.610   5
   3  -6  -2 70.4925 192.974   0
   3  -6  -2 93.5730 203.142   5
   3  -6  -2 131.283 201.721   3
  -3  -6   2 85.1072 154.210   5
   3  -6  -1 748.910 204.639   0
  -3  -6   1 588.758 167.432   5
   3  -6  -1 543.349 196.478   5
   3  -6   0 713.602 202.242   0
  -3  -6   0 696.466 184.842   5
   3  -6   0 600.286 218.691   5
   3  -6   1 78.2406 185.434   5
  -3  -6  -1 122.730 167.111   5
   3  -6   1 174.376 182.311   0
   3  -6   2-22.7195 163.172   0
  -3  -6  -2 92.1221 160.780   5
   3  -6   2 69.3634 179.793   5
   3  -6   3 52.0365 169.744   5
  -3  -6  -3-0.91086 177.598   5
   3  -6   3 181.708 177.090   0
  -3  -6  -4 117.521 201.141   5
   3  -6   4 23.8197 174.400   0
   3  -6   4-65.7044 165.385   5
   3  -6   5-7.15908 199.423   5
  -3  -6  -5 146.256 207.244   5
   3  -6   5 103.482 192.764   0
  -3  -5   9 44.2442 179.142   5
   3  -5  -9 78.8341 291.055   4
  -3  -5   8 164.715 170.168   5
   3  -5  -8-24.5764 232.549   5
   3  -5  -8-23.7389 283.525   4
  -3  -5   7-13.3116 160.401   5
   3  -5  -7 107.631 242.685   5
  -3  -5   6 294.761 160.229   5
   3  -5  -6 216.888 192.907   5
  -3  -5   5 715.314 168.002   5
   3  -5  -5 626.864 242.767   5
  -3  -5   4 89.9946 156.608   5
   3  -5  -4 70.7224 227.109   5
   3  -5  -3 1004.28 182.420   0
   3  -5  -3 820.617 150.875   3
  -3  -5   3 926.795 145.752   5
   3  -5  -3 922.190 205.476   5
  -3  -5   2 2982.98 153.433   5
   3  -5  -2 2935.41 205.454   3
   3  -5  -2 2906.31 199.975   5
   3  -5  -2 3097.90 196.118   0
   3  -5  -1 1127.72 179.704   5
  -3  -5   1 1150.27 139.200   5
   3  -5  -1 1164.46 184.490   0
   3  -5   0 382.774 178.649   0
  -3  -5   0 246.422 146.310   5
   3  -5   0 324.753 175.649   5
   3  -5   1 1123.92 203.479   0
  -3  -5  -1 936.781 171.229   5
   3  -5   1 889.205 196.240   5
  -3  -5  -2 241.350 180.054   5
   3  -5   2 293.315 200.185   0
   3  -5   2 348.147 203.344   5
  -3  -5  -3-42.6757 162.512   5
   3  -5   3-73.1599 170.112   5
   3  -5   3 49.0361 180.192   0
   3  -5   4 57.3987 187.505   0
   3  -5   4 105.194 168.775   5
  -3  -5  -4 106.030 196.560   5
  -3  -5  -5 11.8562 176.640   5
   3  -5   5 223.284 196.229   5
   3  -5   5 133.519 179.761   0
  -3  -5  -6-39.5909 177.469   5
   3  -5   6-54.1451 186.978   0
   3  -4 -10 130.597 287.541   4
   3  -4  -9 51.8757 227.857   5
  -3  -4   9 15.3632 182.435   5
   3  -4  -9-48.8559 312.403   4
  -3  -4   8 170.845 185.955   5
   3  -4  -8 67.7537 237.221   5
   3  -4  -8-30.4006 279.521   4
   3  -4  -7 317.237 205.787   5
  -3  -4   7 251.285 161.527   5
  -3  -4   6 297.116 164.588   5
   3  -4  -6 241.100 232.120   5
   3  -4  -5 202.455 219.104   5
  -3  -4   5 184.995 156.539   5
   3  -4  -4 4121.96 211.528   5
  -3  -4   4 3837.40 160.074   5
   3  -4  -4 3554.00 136.689   3
   3  -4  -3 3819.47 156.629   3
   3  -4  -3 3944.38 174.428   5
   3  -4  -3 3991.89 173.653   0
  -3  -4   3 4326.13 138.259   5
  -3  -4   2 110.866 88.0438   5
   3  -4  -2 248.559 132.997   0
   3  -4  -2 208.399 154.013   3
   3  -4  -2 139.988 125.281   5
   3  -4  -1 3715.41 167.281   0
  -3  -4   1 3745.17 123.675   5
   3  -4  -1 3270.77 150.312   5
   3  -4   0 4874.46 177.806   5
  -3  -4   0 5000.42 146.126   5
   3  -4   0 5063.74 189.244   0
  -3  -4  -1 409.862 138.674   5
   3  -4   1 317.050 176.230   0
   3  -4   1 349.027 158.795   5
  -3  -4  -2 478.570 174.685   5
   3  -4   2 389.589 184.290   5
   3  -4   2 589.318 200.164   0
   3  -4   3 368.882 213.997   0
  -3  -4  -3 355.566 193.151   5
   3  -4   3 341.651 189.738   5
   3  -4   4-30.9685 181.921   0
  -3  -4  -4-60.3680 180.559   5
   3  -4   4 167.513 159.265   5
   3  -4   5-36.4381 186.188   0
  -3  -4  -5-52.6110 190.694   5
   3  -4   5 51.5842 166.162   5
   3  -4   6 75.1025 163.094   5
   3  -4   6-81.5600 181.076   0
   3  -3 -10-257.360 272.209   4
   3  -3  -9 48.1178 207.380   5
   3  -3  -9 18.0116 257.698   4
   3  -3  -8 81.0166 231.980   5
   3  -3  -8 122.487 276.632   4
   3  -3  -7 134.101 208.657   5
   3  -3  -7-106.598 254.555   4
   3  -3  -6 1143.00 231.719   5
   3  -3  -6 877.420 283.440   4
  -3  -3   5 2689.52 163.377   5
   3  -3  -5 2702.67 204.007   5
   3  -3  -5 2587.09 132.149   3
   3  -3  -4 489.140 100.843   3
  -3  -3   4 691.929 108.362   5
   3  -3  -4 661.695 142.541   5
   3  -3  -3 2083.28 121.837   3
   3  -3  -3 2212.36 134.274   5
  -3  -3   3 2218.66 97.0455   5
   3  -3  -3 2088.20 132.348   0
   3  -3  -2 14520.1 202.995   0
   3  -3  -2 14405.0 191.970   5
  -3  -3   2 14022.8 152.671   5
   3  -3  -2 14109.5 227.793   3
  -3  -3   1 5075.06 103.279   5
   3  -3  -1 4388.56 97.1981   2
   3  -3  -1 5081.55 131.853   5
   3  -3  -1 5079.00 149.646   0
  -3  -3   0 2235.69 104.094   5
   3  -3   0 2078.65 121.896   5
   3  -3   0 1875.58 140.712   0
  -3  -3  -1 3766.84 139.952   5
   3  -3   1 4223.12 179.992   0
  -3  -3  -2 941.998 158.193   5
   3  -3   2 874.750 161.723   5
   3  -3   2 1126.76 192.315   0
  -3  -3  -3 56.3405 185.536   5
   3  -3   3 3.89729 170.635   5
   3  -3   3 188.834 204.079   0
  -3  -3  -4-32.3983 167.525   5
   3  -3   4-27.1360 170.000   5
   3  -3   4 187.047 183.713   0
   3  -3   5 113.292 180.891   5
   3  -3   5 156.351 198.586   0
   3  -3   6 32.4626 192.626   5
   3  -3   6 2.83075 182.904   0
   3  -2 -10-28.3161 296.892   4
   3  -2  -9-99.9728 253.916   4
   3  -2  -8 1.00874 201.750   5
   3  -2  -8 147.342 251.133   4
   3  -2  -7 875.133 216.604   5
   3  -2  -7 914.964 270.904   4
   3  -2  -6 799.505 251.818   4
   3  -2  -6 797.220 127.875   3
   3  -2  -6 909.053 215.995   5
   3  -2  -5 611.584 112.320   3
  -3  -2   5 633.978 98.2570   0
   3  -2  -5 546.661 156.327   5
   3  -2  -5 553.569 198.544   4
   3  -2  -4 10592.7 164.914   3
   3  -2  -4 11085.3 191.310   5
  -3  -2   4 10209.7 117.230   0
   3  -2  -3 9168.72 153.327   5
   3  -2  -3 10153.3 158.734   0
  -3  -2   3 10261.6 129.973   5
   3  -2  -3 9795.07 162.461   3
   3  -2  -2 573.500 83.8839   2
   3  -2  -2 559.543 106.584   3
   3  -2  -2 581.295 87.5829   0
   3  -2  -2 537.134 73.8183   5
  -3  -2   2 426.755 47.1650   5
   3  -2  -1 9660.11 196.656   3
  -3  -2   1 9485.19 94.2219   5
   3  -2  -1 9221.29 123.654   2
   3  -2  -1 9734.11 129.293   5
   3  -2  -1 9709.64 154.282   0
   3  -2   0 14121.3 165.032   5
   3  -2   0 13326.4 135.172   2
  -3  -2   0 13630.4 139.275   5
   3  -2   0 13976.7 195.448   0
   3  -2   1 1573.96 107.760   5
   3  -2   1 1658.30 74.0070   2
  -3  -2  -1 1372.19 103.578   5
   3  -2   1 1500.13 137.099   0
   3  -2   2 1095.60 84.8496   2
  -3  -2  -2 1046.89 139.843   5
   3  -2   2 888.210 139.823   5
   3  -2   2 1174.96 169.460   0
  -3  -2  -3 1023.26 182.835   5
   3  -2   3 1028.69 214.038   0
   3  -2   4 27.8536 207.926   0
   3  -2   5 20.0547 193.013   0
  -3  -2  -5 103.078 180.310   4
   3  -2   6 101.882 201.434   0
   3  -1 -10 146.294 259.127   4
   3  -1  -9 153.446 251.051   4
   3  -1  -8 86.3771 247.854   4
   3  -1  -7 27.0336 144.361   3
  -3  -1   7 75.6512 160.196   0
   3  -1  -7-17.2115 262.695   4
   3  -1  -6 2157.96 153.760   3
   3  -1  -6 2486.48 222.991   5
   3  -1  -6 2129.47 234.678   4
  -3  -1   6 2162.83 156.783   0
   3  -1  -5 5434.89 151.156   3
   3  -1  -5 5781.14 184.645   5
   3  -1  -5 5519.65 205.483   4
  -3  -1   5 5398.16 132.487   0
   3  -1  -4 1911.77 102.634   3
   3  -1  -4 1842.77 116.892   5
   3  -1  -4 1912.06 131.272   4
  -3  -1   4 2043.85 78.4550   0
   3  -1  -3 3855.09 113.430   3
  -3  -1   3 3643.05 60.6336   0
   3  -1  -3 3783.51 121.652   2
   3  -1  -3 3792.01 98.5907   5
   3  -1  -3 4151.12 108.010   4
   3  -1  -3 3973.11 101.507   0
   3  -1  -2 25370.8 223.573   3
   3  -1  -2 25998.2 191.419   0
   3  -1  -2 25425.4 206.315   2
   3  -1  -2 25534.1 157.144   5
   3  -1  -1 8534.95 172.102   3
   3  -1  -1 8391.74 92.8676   5
   3  -1  -1 8593.66 126.101   2
   3  -1  -1 8507.62 129.825   0
   3  -1   0 2124.68 83.6870   2
  -3  -1   0 2244.06 68.0000   5
   3  -1   0 1693.92 110.631   0
   3  -1   1 7329.32 128.508   2
   3  -1   1 5860.03 169.910   0
   3  -1   2 2470.20 118.382   2
   3  -1   2 3066.35 169.771   0
   3  -1   3 356.226 195.015   0
   3  -1   3 210.938 122.708   2
   3  -1   4 478.092 225.005   0
  -3  -1  -4 324.867 184.325   4
   3  -1   5-19.3701 199.782   0
   3  -1   6-83.6177 199.413   0
   3   0 -10-41.8565 264.027   4
  -3   0   9-116.558 180.323   0
   3   0  -9-144.459 234.086   4
   3   0  -8 182.382 150.994   3
  -3   0   8 212.117 169.872   0
   3   0  -8 76.1170 218.903   4
   3   0  -7 1128.74 171.027   3
   3   0  -7 1019.57 248.088   4
  -3   0   7 1340.85 188.316   0
   3   0  -6 1434.89 210.194   4
   3   0  -6 1529.45 159.873   3
  -3   0   6 1553.31 155.495   0
  -3   0   5 1039.98 111.268   0
   3   0  -5 1094.91 128.130   3
   3   0  -5 1034.46 154.375   4
   3   0  -4 18183.2 208.990   3
   3   0  -4 18214.4 213.928   4
  -3   0   4 17663.9 172.837   0
  -3   0   3 9202.90 111.746   0
   3   0  -3 9214.18 125.450   4
   3   0  -3 9619.22 154.915   2
   3   0  -3 9669.23 119.235   5
   3   0  -3 8966.01 144.355   3
   3   0  -2 1402.08 89.5235   3
   3   0  -2 1504.23 61.0631   0
   3   0  -2 1532.89 92.5246   2
   3   0  -2 1493.60 89.2581   1
   3   0  -1 12208.4 165.089   3
   3   0  -1 11975.7 149.665   2
   3   0  -1 11943.2 129.072   0
   3   0   0 16651.3 180.495   2
   3   0   0 17162.2 176.834   0
   3   0   1 4790.78 139.749   0
   3   0   1 4232.15 122.309   2
  -3   0  -2 954.852 106.257   4
   3   0   2 683.050 129.024   2
   3   0   2 1071.44 145.634   0
  -3   0  -3 1760.16 156.889   4
   3   0   3 2051.36 177.929   2
   3   0   4 242.713 230.606   0
   3   0   4 187.579 182.038   2
   3   0   5-0.88068 204.272   0
   3   0   5 87.8364 163.950   2
   3   0   6 55.0122 220.358   0
  -3   1  10-45.1393 201.303   0
   3   1 -10-26.7796 232.391   4
   3   1  -9 10.7473 168.972   3
  -3   1   9 62.0522 186.819   0
   3   1  -9 33.4183 236.106   4
  -3   1   8 135.453 178.116   0
   3   1  -8 224.787 165.126   3
   3   1  -8 163.623 219.702   4
   3   1  -7 38.1591 220.058   4
   3   1  -7-159.388 172.701   3
  -3   1   7 10.2810 187.929   0
  -3   1   6 2080.50 169.164   0
   3   1  -6 2090.75 182.966   3
   3   1  -6 2103.87 211.361   4
   3   1  -5 5208.07 165.511   3
  -3   1   5 5536.87 156.342   0
   3   1  -5 5370.17 181.008   4
   3   1  -4 1988.60 114.998   2
  -3   1   4 2164.59 105.602   0
   3   1  -4 1821.22 114.875   4
   3   1  -4 1877.99 118.370   3
  -3   1   3 3795.13 100.776   0
   3   1  -3 4045.51 114.601   3
   3   1  -3 3846.05 112.023   2
   3   1  -3 4083.13 100.545   4
   3   1  -3 3656.39 82.7058   1
   3   1  -2 24441.4 199.721   3
   3   1  -2 24771.2 208.492   2
   3   1  -2 24175.6 192.481   1
   3   1  -1 8444.89 124.048   3
   3   1  -1 8179.28 142.198   2
   3   1  -1 8032.56 94.3960   0
   3   1  -1 7978.93 148.719   1
   3   1   0 2126.34 84.6030   3
   3   1   0 2068.30 112.054   2
   3   1   0 2018.92 86.8793   0
   3   1   0 2162.89 129.990   1
   3   1   1 5756.63 140.221   3
   3   1   1 6077.46 150.084   0
   3   1   1 6425.96 190.525   1
  -3   1  -2 2421.20 100.830   4
   3   1   2 2155.55 158.958   0
   3   1   3 240.163 188.561   0
   3   1   3 344.202 174.491   2
   3   1   4 298.662 222.501   0
   3   1   4 429.130 201.667   2
   3   1   5 186.374 198.603   0
   3   1   5 126.644 191.993   2
   3   1   6 57.5392 208.627   0
   3   1   6-29.3399 190.197   2
   3   2 -10 104.475 205.961   3
  -3   2  10 102.704 216.108   0
   3   2 -10 105.950 249.270   4
   3   2  -9 139.304 191.980   3
  -3   2   9 92.7618 184.675   0
   3   2  -9 70.4439 231.508   4
   3   2  -8 33.9719 182.502   3
  -3   2   8 178.929 185.336   0
   3   2  -8 50.3133 204.724   4
   3   2  -7 709.566 192.767   3
  -3   2   7 892.804 186.160   0
   3   2  -7 892.544 213.365   4
   3   2  -6 895.622 190.218   3
  -3   2   6 861.829 179.817   0
   3   2  -6 767.974 204.307   4
   3   2  -5 548.887 145.442   3
  -3   2   5 622.635 138.755   0
   3   2  -5 592.867 147.156   4
   3   2  -4 10527.6 188.592   3
  -3   2   4 10881.0 183.556   0
   3   2  -4 10154.1 164.244   2
   3   2  -4 10381.5 181.875   4
   3   2  -4 10559.0 131.112   1
   3   2  -3 9749.97 159.535   3
  -3   2   3 10289.6 162.275   0
   3   2  -3 9874.54 153.241   2
   3   2  -3 9969.21 159.322   4
   3   2  -3 9427.70 130.159   1
   3   2  -2 511.201 73.2202   3
   3   2  -2 567.125 78.7013   1
   3   2  -2 492.561 83.4181   2
   3   2  -2 570.201 73.6908   4
   3   2  -1 8853.93 116.311   3
   3   2  -1 9070.95 131.180   4
   3   2  -1 9341.67 160.351   2
   3   2  -1 8532.16 85.8453   0
   3   2  -1 9074.07 156.831   1
   3   2   0 13271.5 196.637   2
   3   2   0 13064.7 198.804   1
   3   2   0 12781.4 147.243   0
   3   2   1 1693.59 133.050   2
   3   2   1 1757.92 142.388   1
   3   2   1 1460.28 113.922   0
   3   2   2 1308.40 173.172   2
   3   2   2 999.810 164.614   1
   3   2   2 869.750 158.020   0
   3   2   3 1212.78 219.329   2
   3   2   3 1129.23 201.044   0
   3   2   3 897.859 192.594   1
   3   2   4 99.1185 200.971   0
   3   2   4 167.592 209.734   2
   3   2   5-50.4754 219.368   2
   3   2   5 21.5136 198.027   0
   3   2   6 63.2490 218.372   0
   3   2   6 94.9259 207.854   2
   3   2   7 105.361 218.448   2
   3   3 -10-116.772 261.830   4
   3   3 -10 150.214 229.536   3
   3   3  -9-34.8366 205.728   3
   3   3  -9 8.11306 213.853   4
  -3   3   9 58.7989 190.601   0
   3   3  -8 107.738 197.709   3
   3   3  -8 2.71216 203.715   4
  -3   3   8 49.4632 188.156   0
   3   3  -7 35.9287 180.518   3
  -3   3   7 58.1533 170.651   0
   3   3  -7-30.5561 189.791   4
   3   3  -6 1020.71 211.584   3
  -3   3   6 1105.86 202.638   0
   3   3  -6 991.125 211.002   4
   3   3  -5 2434.11 187.253   3
  -3   3   5 2690.37 194.527   0
   3   3  -5 2094.18 132.683   2
   3   3  -5 2570.26 181.643   4
   3   3  -4 556.165 131.081   3
   3   3  -4 475.674 122.306   4
   3   3  -4 497.790 87.8092   1
   3   3  -4 571.412 99.4625   2
  -3   3   4 756.627 144.107   0
   3   3  -3 1985.14 117.988   3
  -3   3   3 1992.45 137.419   0
   3   3  -3 2094.94 106.022   2
   3   3  -3 2147.30 129.218   4
   3   3  -3 2282.38 106.189   1
  -3   3   3 1923.36 106.396   1
   3   3  -2 13461.8 166.687   3
   3   3  -2 13385.0 182.859   2
   3   3  -2 14115.1 191.914   4
   3   3  -2 13407.8 182.882   1
   3   3  -1 4801.72 99.6161   3
   3   3  -1 4524.26 145.820   2
   3   3  -1 4833.27 136.988   4
   3   3  -1 4573.19 137.828   1
   3   3  -1 4597.15 71.8558   0
   3   3   0 1736.46 142.773   2
   3   3   0 2139.95 126.198   1
   3   3   0 1943.00 83.8654   0
   3   3   1 3079.41 185.894   2
  -3   3  -1 3067.58 92.0579   4
   3   3   1 3768.15 173.028   1
   3   3   1 3314.47 141.288   0
   3   3   2 1217.89 161.227   0
   3   3   2 929.755 218.105   2
   3   3   2 994.198 168.863   1
   3   3   3-31.0805 195.091   1
   3   3   3-61.5938 196.058   0
   3   3   3 64.6176 241.910   2
   3   3   4 122.417 166.598   1
   3   3   4 97.0641 192.231   0
   3   3   4 336.700 219.470   2
   3   3   5-11.3269 201.249   0
   3   3   5 4.68252 246.807   2
   3   3   6-3.42513 205.366   0
   3   3   6 20.4434 234.197   2
   3   3   7-169.875 237.603   2
   3   3   8 68.0970 253.115   2
   3   4 -10 164.935 253.339   4
   3   4  -9 117.771 226.702   3
   3   4  -9 122.065 218.774   4
  -3   4   9 8.96130 193.515   0
  -3   4   8-80.7230 201.166   0
   3   4  -8-59.1868 218.198   3
   3   4  -8 24.3039 205.434   4
   3   4  -7 235.934 202.514   3
  -3   4   7 175.605 184.994   0
   3   4  -7 473.558 193.659   4
   3   4  -6 301.979 207.177   3
  -3   4   6 322.123 199.260   0
   3   4  -6 316.141 198.660   4
   3   4  -5 279.701 198.115   3
   3   4  -5 212.789 113.462   1
   3   4  -5 268.671 186.706   4
  -3   4   5 310.051 197.346   0
  -3   4   4 3818.67 210.031   0
   3   4  -4 3554.63 189.084   4
   3   4  -4 3245.52 129.149   2
   3   4  -4 3623.45 146.158   1
   3   4  -4 3476.91 183.715   3
   3   4  -3 3835.33 151.467   3
   3   4  -3 4132.87 180.672   4
  -3   4   3 4156.74 176.305   0
   3   4  -3 3592.86 123.440   2
   3   4  -3 3749.07 146.307   1
  -3   4   3 3960.75 151.363   1
   3   4  -2 182.441 89.0996   3
   3   4  -2 186.810 123.578   1
  -3   4   2 154.515 132.785   1
   3   4  -2 127.614 100.260   2
   3   4  -2 105.443 124.963   4
   3   4  -1 3052.95 92.0873   3
   3   4  -1 3328.64 156.932   4
   3   4  -1 3568.81 156.181   2
   3   4  -1 3505.11 153.019   1
  -3   4   1 3508.64 191.422   1
   3   4   0 4317.22 193.358   2
  -3   4   0 3821.30 136.547   4
   3   4   0 4869.82 177.834   1
   3   4   0 4503.50 116.854   0
   3   4   1 411.380 160.176   1
   3   4   1 321.988 186.983   2
   3   4   1 352.436 117.060   0
   3   4   2 510.782 177.038   1
   3   4   2 664.226 241.870   2
   3   4   2 457.006 161.207   0
   3   4   3 354.020 180.905   1
   3   4   3 323.770 189.276   0
   3   4   3 528.310 252.581   2
   3   4   4 130.455 177.930   0
   3   4   4 61.1934 236.832   2
   3   4   5-40.2824 201.260   0
   3   4   5 80.4538 245.044   2
   3   4   6 148.819 215.418   0
   3   4   6-47.0580 244.752   2
   3   4   7 0.00000 261.120   2
   3   5  -9-120.633 234.462   4
  -3   5   8 145.431 194.502   0
   3   5  -8-49.7377 220.923   3
   3   5  -8 58.5381 201.440   4
   3   5  -7-120.101 212.038   3
  -3   5   7 139.984 194.691   0
   3   5  -7 15.3524 198.416   4
   3   5  -6 327.995 191.373   3
  -3   5   6 200.726 185.125   0
   3   5  -6 344.423 184.993   4
   3   5  -5 552.615 204.939   3
  -3   5   5 629.816 216.970   0
   3   5  -5 596.688 131.519   1
   3   5  -5 694.441 205.043   4
   3   5  -4 170.541 180.916   3
   3   5  -4 21.8189 142.341   1
   3   5  -4 104.190 200.263   4
  -3   5   4 155.463 209.188   0
   3   5  -3 716.676 144.812   3
   3   5  -3 852.183 159.514   1
   3   5  -3 710.966 111.261   2
  -3   5   3 921.695 157.482   1
  -3   5   3 942.164 200.399   0
   3   5  -3 816.368 185.099   4
   3   5  -2 2679.58 143.569   2
   3   5  -2 2801.10 197.542   4
   3   5  -2 2945.79 177.881   1
  -3   5   2 2585.19 200.077   1
   3   5  -2 2587.49 130.626   3
   3   5  -1 951.564 170.318   1
  -3   5   1 542.102 218.523   1
   3   5  -1 914.760 155.352   2
   3   5  -1 944.747 200.315   4
   3   5   0 395.708 176.437   1
  -3   5   0 397.531 231.029   1
   3   5   0 234.477 185.876   2
  -3   5   0 345.039 149.786   4
   3   5   1 1032.32 185.090   1
  -3   5  -1 645.522 274.498   1
   3   5   1 884.277 204.726   2
   3   5   2 330.456 175.197   1
  -3   5  -2 349.042 272.696   1
   3   5   2 294.452 163.082   0
   3   5   2 400.003 254.874   2
   3   5   3-39.9473 149.973   1
   3   5   3 1.19538 158.836   0
  -3   5  -3 60.4652 239.547   1
   3   5   3-31.3939 216.754   2
   3   5   4 70.7686 181.533   0
  -3   5  -4-183.607 258.540   1
   3   5   4 165.206 251.460   2
   3   5   5-42.4447 187.250   0
  -3   5  -5 1.20042 225.994   1
   3   5   5-31.8149 240.374   2
   3   5   6 155.167 205.948   0
   3   5   6-28.9154 255.846   2
   3   5   7-56.2775 263.848   2
   3   6  -9-10.7227 239.574   4
  -3   6   8 44.4903 203.987   0
   3   6  -8-147.404 224.017   4
  -3   6   7 37.0366 182.793   0
   3   6  -7-17.5445 206.815   4
   3   6  -7-12.1899 220.464   3
   3   6  -6 69.9967 210.225   3
  -3   6   6 166.010 199.270   0
   3   6  -6 60.3145 188.262   4
   3   6  -5 25.0031 182.654   3
   3   6  -5 20.6271 121.913   1
  -3   6   5 48.7971 183.516   0
   3   6  -5 65.0365 203.104   4
   3   6  -4 551.171 182.356   3
   3   6  -4 631.997 157.768   1
  -3   6   4 755.884 205.158   0
   3   6  -4 797.351 206.960   4
   3   6  -3 518.431 164.793   3
  -3   6   3 613.227 217.653   0
   3   6  -3 634.664 185.290   1
  -3   6   3 464.768 172.050   1
   3   6  -3 568.068 224.782   4
   3   6  -2 22.5638 174.137   1
  -3   6   2-11.0432 211.434   1
   3   6  -2 14.0993 224.072   4
   3   6  -1 605.078 197.983   1
   3   6  -1 550.055 154.411   2
  -3   6   1 1158.02 254.901   1
   3   6  -1 628.410 238.050   4
   3   6   0 598.822 187.391   1
  -3   6   0 808.460 274.579   1
   3   6   0 645.062 204.330   2
   3   6   1 70.3020 165.613   1
  -3   6  -1 34.7508 261.324   1
   3   6   1 38.1565 198.699   2
   3   6   2 14.9013 188.850   2
   3   6   2 171.533 157.869   1
  -3   6  -2 133.287 254.200   1
   3   6   3 103.232 164.628   1
  -3   6  -3 193.461 280.700   1
   3   6   3 33.1017 235.955   2
  -3   6  -4 159.956 261.014   1
   3   6   4 95.6786 163.759   0
   3   6   4 61.9507 241.490   2
   3   6   5 74.2649 172.379   0
   3   6   5 23.7183 254.396   2
  -3   6  -5 180.094 250.095   1
   3   6   6 61.1565 292.262   2
   3   7  -8-88.0979 239.633   4
  -3   7   7 66.0721 188.406   0
   3   7  -7 21.8875 202.281   4
  -3   7   6 9.81757 192.288   0
   3   7  -6 67.3441 210.739   4
  -3   7   5-36.6197 198.434   0
   3   7  -5-15.5471 149.783   1
   3   7  -5 152.544 210.086   4
  -3   7   4 50.3678 186.266   0
   3   7  -4-113.822 147.626   1
   3   7  -4-121.346 201.830   4
   3   7  -3 143.228 163.084   1
  -3   7   3 165.466 148.803   1
  -3   7   3 134.820 185.477   0
   3   7  -3 95.5765 210.520   4
   3   7  -2 265.105 167.889   1
  -3   7   2 361.733 174.059   1
   3   7  -2 355.968 209.892   4
   3   7  -1 56.4777 169.142   1
  -3   7   1 151.089 201.291   1
   3   7  -1-41.9375 229.443   4
   3   7   0 29.6226 167.960   1
  -3   7   0-6.64206 216.084   1
   3   7   0 33.5094 146.457   2
   3   7   1 47.5681 155.954   1
  -3   7  -1 123.036 242.077   1
   3   7   1 104.174 171.314   2
   3   7   2 71.5262 161.003   1
  -3   7  -2-8.15288 265.279   1
   3   7   2 61.2959 193.369   2
   3   7   3-28.4791 168.482   1
  -3   7  -3 47.8151 266.652   1
   3   7   3-8.33931 226.817   2
  -3   7  -4-143.270 259.715   1
   3   7   4-91.5736 232.551   2
  -3   7  -5-50.1790 245.267   1
   3   7   5-22.2838 258.607   2
   3   8  -7-57.9909 248.254   4
   3   8  -6 11.3048 219.143   4
  -3   8   6-30.0532 201.495   0
  -3   8   5-231.575 206.613   0
   3   8  -5 119.415 160.920   1
   3   8  -5-61.0857 211.032   4
   3   8  -4 93.2394 164.641   1
  -3   8   4 23.4961 190.100   0
   3   8  -4 143.925 213.147   4
   3   8  -3 7.23184 165.119   1
  -3   8   3 79.1214 160.501   1
  -3   8   3 60.0221 196.226   0
   3   8  -3 53.6158 228.729   4
   3   8  -2 32.4644 173.609   1
  -3   8   2 39.7580 183.298   0
  -3   8   2 115.803 190.043   1
   3   8  -2 81.9681 225.350   4
   3   8  -1 59.2505 246.743   4
   3   8  -1-55.0936 186.798   1
  -3   8   1 57.4261 221.714   1
   3   8   0 87.8087 171.458   1
  -3   8   0 8.55659 238.958   1
   3   8   1-49.0215 164.502   1
  -3   8  -1-44.5135 241.325   1
   3   8   1-2.38640 181.639   2
   3   8   2-142.883 178.114   1
  -3   8  -2 122.930 242.873   1
   3   8   2 79.5609 194.027   2
  -3   8  -3 252.448 272.141   1
   3   8   3-171.858 171.771   1
   3   8   3-30.5691 222.866   2
  -3   8  -4-110.604 267.288   1
   3   8   4 65.4453 239.125   2
  -3   8  -5-134.412 262.871   1
   3   8   5 57.2153 258.337   2
   3   9  -6 37.5158 225.309   4
   3   9  -5 166.457 170.017   1
   3   9  -5-51.4381 225.764   4
   3   9  -4-106.447 245.042   4
   3   9  -4 48.7482 165.894   1
  -3   9   4-18.4230 179.179   0
  -3   9   3 131.317 178.005   0
   3   9  -3 52.1702 164.334   1
  -3   9   3-97.3119 155.150   1
   3   9  -3-0.40697 227.408   4
   3   9  -2 37.3775 180.930   1
  -3   9   2 63.9826 177.654   0
  -3   9   2-72.1468 175.276   1
   3   9  -2-78.8054 261.002   4
   3   9  -1 79.0265 173.986   1
  -3   9   1-25.6443 196.007   1
   3   9  -1 24.9978 244.210   4
   3   9   0 90.1117 166.501   1
  -3   9   0-113.599 219.766   1
   3   9   1 20.7889 181.764   1
  -3   9  -1 9.59903 232.353   1
   3   9   2-30.0814 179.353   1
  -3   9  -2 84.7519 237.452   1
  -3   9  -3 136.825 285.231   1
   3   9   3 43.1059 214.358   2
  -3   9  -4-14.5209 289.418   1
   3   9   4 0.00000 240.668   2
   3  10  -5-35.0894 199.005   1
   3  10  -5 12.4022 259.554   4
   3  10  -4-57.6372 206.661   1
   3  10  -4-102.954 239.308   4
   3  10  -3 78.0728 205.829   1
   3  10  -3 127.441 251.411   4
   3  10  -2-23.8024 188.298   1
  -3  10   2 52.5666 191.052   1
  -3  10   2-98.5435 191.696   0
   3  10  -2-94.6021 293.594   4
  -3  10   1 87.2959 178.023   0
   3  10  -1-35.4107 185.607   1
  -3  10   1-112.964 235.502   1
   3  10   0 128.675 204.248   1
  -3  10   0 84.5799 234.862   1
   3  10   1 22.9512 176.475   1
  -3  10  -1 133.655 252.252   1
   3  10   2-9.17802 190.383   1
  -3  10  -2-121.515 278.499   1
  -3  11   2-108.032 183.562   1
  -3  11   1 56.9349 224.366   1
   4  -9  -4 81.0865 223.579   5
   4  -9  -3 181.723 173.048   0
   4  -9  -3-16.2617 199.908   5
   4  -9  -2-42.5352 179.355   0
   4  -9  -2 1.59000 192.151   5
   4  -9  -1-66.5411 205.710   5
   4  -9  -1-134.323 187.131   0
   4  -9   0 77.1991 202.904   5
   4  -9   0 21.5105 192.327   0
   4  -9   1-76.4069 183.406   0
   4  -8  -6-141.066 197.434   5
   4  -8  -5 23.8398 228.189   5
   4  -8  -4 71.6207 196.617   5
   4  -8  -3-91.0038 189.634   0
   4  -8  -3-74.2942 185.586   5
   4  -8  -2 49.5842 181.678   0
   4  -8  -2 81.4586 187.351   5
   4  -8  -1-104.220 190.973   0
   4  -8  -1-71.8583 196.214   5
   4  -8   0 63.5470 184.642   0
   4  -8   0 98.5249 189.361   5
   4  -8   1-44.8081 175.136   0
   4  -8   1 40.1129 198.391   5
   4  -8   2-48.8831 190.472   0
   4  -8   2-137.702 209.697   5
   4  -7  -7-94.6151 241.468   5
   4  -7  -6 90.3298 221.769   5
   4  -7  -5 115.972 226.964   5
   4  -7  -4 13.3607 184.528   5
   4  -7  -3 30.6382 175.948   0
   4  -7  -3-27.5472 186.238   5
   4  -7  -2-10.7308 186.231   5
   4  -7  -2 186.817 178.049   0
   4  -7  -2 114.023 205.844   3
   4  -7  -1 219.407 181.656   0
   4  -7  -1 222.722 166.990   5
   4  -7   0 2.90289 178.326   0
   4  -7   0 96.8192 174.194   5
   4  -7   1-36.8028 187.963   0
   4  -7   1 38.7341 189.417   5
   4  -7   2-30.4292 177.329   0
   4  -7   2 31.1081 185.575   5
   4  -7   3-18.5782 189.481   0
   4  -7   3-0.38194 185.212   5
   4  -6  -9-323.782 297.618   4
   4  -6  -8 19.0463 198.267   5
   4  -6  -7-101.179 199.882   5
   4  -6  -6 328.292 228.578   5
   4  -6  -5 145.943 179.704   5
   4  -6  -4 66.2078 187.808   5
   4  -6  -4 76.5040 173.168   0
   4  -6  -3 747.787 191.862   0
   4  -6  -3 696.551 188.357   3
   4  -6  -3 791.987 188.871   5
   4  -6  -2 618.851 203.489   0
   4  -6  -2 525.858 232.922   3
   4  -6  -2 351.509 178.957   5
   4  -6  -1-45.5314 194.964   0
   4  -6  -1-101.560 176.231   5
   4  -6   0 355.259 184.203   0
   4  -6   0 283.714 174.778   5
   4  -6   1 194.834 168.854   5
   4  -6   1 245.757 179.400   0
   4  -6   2 125.441 181.619   0
   4  -6   2-12.5256 189.951   5
   4  -6   3 103.449 167.835   5
   4  -6   3-24.8632 178.770   0
   4  -6   4-9.78333 182.644   0
   4  -6   4 94.3478 187.144   5
   4  -5 -10 57.8202 334.818   4
   4  -5  -9 169.243 251.609   5
   4  -5  -9 55.5929 276.360   4
   4  -5  -8 180.864 219.733   5
  -4  -5   8 1.69761 147.602   5
   4  -5  -8-3.88362 287.346   4
   4  -5  -7-55.7042 226.692   5
  -4  -5   7-21.1231 140.598   5
   4  -5  -6 48.3142 203.218   5
  -4  -5   6 0.74483 136.191   5
   4  -5  -5 638.563 214.152   5
  -4  -5   5 477.845 145.896   5
   4  -5  -4 1006.47 167.118   3
   4  -5  -4 1079.35 216.896   5
   4  -5  -4 1111.88 204.692   0
   4  -5  -3 149.392 189.910   0
   4  -5  -3 15.5706 194.079   3
   4  -5  -3 157.852 187.202   5
   4  -5  -2 783.036 199.652   0
   4  -5  -2 706.283 231.729   3
   4  -5  -2 683.864 172.835   5
   4  -5  -1 1625.18 192.254   5
   4  -5  -1 1671.28 211.281   0
   4  -5   0 417.869 206.309   0
   4  -5   0 362.940 179.541   5
   4  -5   1 5.15026 198.165   0
   4  -5   1-110.473 184.099   5
   4  -5   2 164.639 180.091   0
   4  -5   2 45.0236 149.637   5
   4  -5   3 21.2103 191.296   0
   4  -5   3 58.8309 157.121   5
   4  -5   4-77.0951 177.731   5
   4  -5   4-39.5066 176.059   0
   4  -5   5-44.4136 178.982   0
   4  -5   5-10.7933 184.578   5
   4  -4 -10-8.71761 272.478   4
   4  -4  -9-142.236 228.566   5
  -4  -4   9 133.952 171.025   5
   4  -4  -9 40.8027 270.217   4
   4  -4  -8-47.7095 231.875   5
  -4  -4   8-55.8862 166.152   5
   4  -4  -8 23.4202 279.084   4
   4  -4  -7 286.278 203.355   5
  -4  -4   7 317.148 139.725   5
   4  -4  -7 220.763 234.200   4
   4  -4  -6 1138.67 201.280   5
  -4  -4   6 992.479 149.771   5
   4  -4  -5 540.690 139.372   3
  -4  -4   5 508.908 138.292   5
   4  -4  -5 614.056 204.084   5
   4  -4  -4 795.430 176.532   0
   4  -4  -4 769.360 161.117   3
   4  -4  -4 759.809 178.565   5
  -4  -4   4 719.278 119.902   5
   4  -4  -3 3631.31 203.391   3
   4  -4  -3 4043.27 189.346   5
  -4  -4   3 4068.70 129.772   5
   4  -4  -3 3838.59 195.169   0
   4  -4  -2 2727.95 232.873   3
   4  -4  -2 2553.03 158.611   5
   4  -4  -2 2467.25 185.578   0
   4  -4  -1 127.884 172.625   0
   4  -4  -1 32.0843 132.653   5
   4  -4   0 1299.46 162.036   5
   4  -4   0 1391.59 203.213   0
   4  -4   1 1177.86 222.690   0
   4  -4   1 1083.24 180.180   5
   4  -4   2 104.680 167.964   5
   4  -4   2 216.698 206.141   0
   4  -4   3-117.564 160.419   5
   4  -4   3 125.411 183.666   0
   4  -4   4-18.2273 170.623   5
   4  -4   4-41.9533 189.038   0
   4  -4   5-154.228 173.973   5
   4  -4   5 29.0537 202.315   0
   4  -3 -10 116.215 260.997   4
   4  -3  -9 137.968 209.380   5
   4  -3  -9-14.6462 257.761   4
   4  -3  -8 184.511 216.421   5
   4  -3  -8 182.141 263.071   4
   4  -3  -7 402.966 194.314   5
   4  -3  -7 309.380 229.090   4
   4  -3  -6 88.0733 128.147   3
  -4  -3   6-21.0879 148.005   5
   4  -3  -6 63.3736 201.306   5
   4  -3  -6 121.029 241.765   4
   4  -3  -5 1921.14 149.425   3
   4  -3  -5 2309.33 187.753   5
  -4  -3   5 2217.26 136.196   5
   4  -3  -4 4354.21 167.776   3
   4  -3  -4 4689.49 179.261   5
  -4  -3   4 4601.01 127.919   5
   4  -3  -4 4813.56 175.944   0
   4  -3  -3 887.362 133.468   0
   4  -3  -3 777.797 151.821   3
  -4  -3   3 748.419 75.6449   5
   4  -3  -3 693.354 118.441   5
   4  -3  -2 3103.05 198.938   3
   4  -3  -2 3182.59 156.843   0
   4  -3  -2 2729.79 122.065   5
   4  -3  -2 2601.05 119.090   2
  -4  -3   2 3096.13 82.9423   5
   4  -3  -1 5353.02 228.839   3
   4  -3  -1 4795.62 121.183   2
   4  -3  -1 5513.53 147.492   5
   4  -3  -1 5800.48 177.348   0
   4  -3   0 1775.76 131.793   5
   4  -3   0 1754.12 174.535   0
   4  -3   1 86.2685 139.151   5
   4  -3   1 228.214 189.303   0
   4  -3   2 484.897 165.138   5
   4  -3   2 996.157 223.147   0
   4  -3   3 213.766 146.499   5
   4  -3   3 172.992 188.026   0
   4  -3   4 22.2307 162.265   5
   4  -3   4 0.90086 183.631   0
   4  -3   5-10.3239 149.973   5
   4  -3   5 19.7745 182.485   0
   4  -3   6 52.4954 178.470   5
   4  -2 -10-25.2109 287.312   4
   4  -2  -9 46.4976 261.540   4
   4  -2  -8 39.5256 189.173   5
   4  -2  -8 3.92967 235.306   4
   4  -2  -7 348.271 135.046   3
   4  -2  -7 383.776 202.755   5
   4  -2  -7 254.922 227.242   4
   4  -2  -6 3006.09 168.814   3
   4  -2  -6 2839.15 241.041   4
   4  -2  -6 2972.27 211.364   5
   4  -2  -5 1732.80 142.691   3
   4  -2  -5 1727.79 161.764   5
   4  -2  -5 1634.03 180.579   4
   4  -2  -4 1934.35 137.265   3
   4  -2  -4 2025.60 123.008   5
  -4  -2   4 1922.81 87.2117   5
   4  -2  -4 1939.35 131.706   4
   4  -2  -3 11439.7 208.574   3
   4  -2  -3 11069.9 191.328   2
   4  -2  -3 11596.2 160.848   5
  -4  -2   3 11261.7 111.297   5
   4  -2  -3 11808.3 184.943   0
   4  -2  -3 10998.7 148.399   4
   4  -2  -2 7631.24 200.409   3
   4  -2  -2 7210.10 146.608   2
  -4  -2   2 7135.91 71.7437   5
   4  -2  -2 7431.73 125.499   5
   4  -2  -2 7854.78 163.175   0
   4  -2  -1 222.688 169.214   3
   4  -2  -1 265.079 113.573   0
  -4  -2   1 107.522 41.9320   5
   4  -2  -1 155.375 82.1138   2
   4  -2  -1 301.320 69.7454   5
   4  -2   0 3988.11 110.481   2
  -4  -2   0 3545.86 100.603   5
   4  -2   0 3961.86 174.034   0
   4  -2   1 3492.94 117.699   2
  -4  -2  -1 2873.31 134.139   5
   4  -2   1 3020.65 147.132   5
   4  -2   2 39.9433 143.966   5
   4  -2   2 278.720 201.416   0
   4  -2   3 130.820 151.974   5
   4  -2   3 170.114 197.324   0
   4  -2   4-36.1238 152.096   5
   4  -2   4 43.4050 184.687   0
   4  -2   5-55.1558 205.707   0
   4  -1 -11-286.352 264.158   4
   4  -1 -10-56.7450 260.532   4
   4  -1  -9 110.623 228.248   4
   4  -1  -8 377.560 151.174   3
   4  -1  -8 517.584 230.190   4
   4  -1  -7 564.890 157.955   3
   4  -1  -7 530.188 235.846   4
   4  -1  -6 43.8294 147.898   3
   4  -1  -6 189.436 172.741   5
   4  -1  -6 78.8096 191.563   4
   4  -1  -5 4276.85 175.786   4
  -4  -1   5 3824.27 105.279   0
   4  -1  -4 9385.58 182.860   3
  -4  -1   4 9308.55 109.548   0
   4  -1  -4 9585.94 204.286   2
   4  -1  -4 10253.2 156.795   5
   4  -1  -4 10026.2 166.199   4
   4  -1  -3 2831.42 139.387   3
   4  -1  -3 3058.89 103.319   0
  -4  -1   3 2837.98 60.6813   0
   4  -1  -3 2784.79 131.186   2
   4  -1  -3 2992.47 84.7205   5
  -4  -1   3 2825.55 56.5835   5
   4  -1  -3 2790.68 82.9352   4
   4  -1  -2 5684.74 163.802   3
   4  -1  -2 5365.83 134.333   2
   4  -1  -2 5259.93 79.7133   5
   4  -1  -2 5659.26 123.865   0
   4  -1  -1 15745.0 248.448   3
   4  -1  -1 14883.6 184.493   2
   4  -1  -1 15884.9 194.135   0
   4  -1   0 2225.52 168.379   3
   4  -1   0 2440.39 111.836   2
   4  -1   0 1868.58 85.0779   5
   4  -1   1 508.707 110.929   2
   4  -1   1 368.353 95.4983   5
   4  -1   1 591.992 155.142   0
   4  -1   2 1608.35 142.206   2
   4  -1   2 1590.23 203.759   0
   4  -1   3 492.348 212.511   0
   4  -1   4 19.8161 188.576   0
   4  -1   5-36.6407 194.818   0
   4  -1   6 51.9298 204.067   0
   4   0 -11 68.6918 243.700   4
   4   0 -10 87.6316 251.200   4
   4   0  -9 139.883 164.347   3
   4   0  -9 100.971 231.567   4
   4   0  -8-1.49835 151.166   3
   4   0  -8 72.0101 210.128   4
   4   0  -7 566.263 174.295   3
  -4   0   7 611.890 158.964   0
   4   0  -7 519.317 222.978   4
  -4   0   6 3850.23 160.543   0
   4   0  -6 3865.59 188.860   3
   4   0  -6 3686.46 208.876   4
   4   0  -5 2244.85 150.416   3
  -4   0   5 2299.06 112.143   0
   4   0  -5 2250.32 147.158   4
   4   0  -4 2134.79 130.135   3
  -4   0   4 1870.69 84.0499   0
   4   0  -4 1854.06 144.797   2
   4   0  -4 2087.81 105.905   4
   4   0  -3 18680.4 158.529   4
   4   0  -3 17948.8 217.586   3
   4   0  -3 18605.6 218.914   2
   4   0  -3 19073.7 158.332   0
   4   0  -2 11832.5 187.101   3
   4   0  -2 12224.8 179.663   2
   4   0  -2 12276.3 138.063   0
   4   0  -1 269.315 114.973   3
   4   0  -1 392.935 99.8592   2
   4   0  -1 363.795 87.3163   0
   4   0   0 6369.50 157.467   2
   4   0   0 6071.17 154.493   0
   4   0   1 4904.39 178.292   3
   4   0   1 4743.72 163.908   2
   4   0   1 4107.82 172.063   0
   4   0   2 297.633 144.914   2
   4   0   2 181.018 169.593   0
   4   0   3 112.737 209.200   0
   4   0   3 210.380 167.591   2
   4   0   4 129.470 187.435   0
   4   0   4 228.634 133.940   2
   4   0   5 94.4523 201.950   0
   4   0   6-48.6139 192.975   0
   4   1 -11 66.3606 229.578   4
   4   1 -10-40.1472 174.606   3
   4   1 -10-121.524 245.304   4
   4   1  -9 32.0294 179.852   3
  -4   1   9 73.7670 173.357   0
   4   1  -9 13.0172 207.235   4
   4   1  -8 516.364 204.987   4
   4   1  -8 366.073 169.569   3
  -4   1   8 463.898 164.786   0
  -4   1   7 568.065 165.463   0
   4   1  -7 609.291 182.389   3
   4   1  -7 639.426 207.878   4
   4   1  -6 151.442 173.790   3
  -4   1   6 165.413 136.416   0
   4   1  -6 138.502 182.658   4
   4   1  -5 3969.01 172.183   3
  -4   1   5 4061.23 149.808   0
   4   1  -5 3656.58 172.637   2
   4   1  -5 4139.35 162.853   4
   4   1  -4 9324.83 181.557   3
  -4   1   4 9418.76 160.378   0
   4   1  -4 9261.72 179.540   2
   4   1  -4 9749.99 162.838   4
   4   1  -4 9190.38 138.272   1
   4   1  -3 2635.91 117.489   3
   4   1  -3 2670.24 125.310   2
   4   1  -3 2690.73 57.6688   0
   4   1  -3 2739.13 92.1398   4
   4   1  -3 2823.39 113.223   1
   4   1  -2 5461.18 136.303   3
   4   1  -2 5587.74 145.456   2
   4   1  -2 5275.21 82.2007   0
   4   1  -2 5526.17 152.381   1
   4   1  -1 15044.7 189.793   3
   4   1  -1 14678.4 211.611   2
   4   1  -1 15328.8 154.516   0
   4   1  -1 14386.2 230.632   1
   4   1   0 2439.37 120.877   3
   4   1   0 2323.27 165.500   1
   4   1   0 2528.91 138.044   2
   4   1   0 2452.46 116.039   0
   4   1   1 319.666 137.390   0
   4   1   1 645.212 142.314   2
   4   1   1 462.761 126.614   3
   4   1   2 1903.95 176.905   2
   4   1   2 1571.78 184.292   0
   4   1   3 551.176 208.553   0
   4   1   3 479.135 196.538   2
   4   1   4-7.85025 187.831   0
   4   1   4-5.84191 172.603   2
   4   1   5-88.5646 199.980   0
   4   1   5-8.82331 187.039   2
   4   1   6 85.8237 218.954   0
   4   2 -11-15.3536 215.203   3
   4   2 -10-32.7294 203.683   3
   4   2 -10 30.4687 224.313   4
  -4   2  10-52.6663 184.864   0
   4   2  -9 209.781 186.933   3
  -4   2   9 91.9275 173.542   0
   4   2  -9-187.867 220.613   4
  -4   2   8 43.5705 165.892   0
   4   2  -8-10.4850 186.622   3
   4   2  -8-40.3986 205.227   4
   4   2  -7 233.313 182.921   3
  -4   2   7 332.454 161.134   0
   4   2  -7 471.887 184.779   4
   4   2  -6 2831.10 209.183   3
  -4   2   6 2730.57 190.603   0
   4   2  -6 3123.97 207.956   4
   4   2  -5 1938.04 170.744   3
  -4   2   5 1792.99 153.023   0
   4   2  -5 1662.02 156.143   4
   4   2  -5 1622.21 159.252   2
   4   2  -4 1912.14 137.325   3
  -4   2   4 1923.71 130.410   0
   4   2  -4 1957.72 139.037   2
   4   2  -4 1992.86 126.505   4
   4   2  -4 1917.32 100.628   1
   4   2  -3 11221.1 181.364   3
   4   2  -3 11173.9 190.605   2
   4   2  -3 11830.1 168.594   4
   4   2  -3 11093.4 171.219   1
   4   2  -2 7442.58 143.317   3
   4   2  -2 7375.38 170.158   2
   4   2  -2 7354.75 133.523   4
   4   2  -2 7285.04 167.346   1
   4   2  -1 88.0223 131.837   1
   4   2  -1 198.330 74.4138   3
   4   2  -1 189.064 127.798   2
   4   2  -1 158.327 76.9738   4
   4   2  -1 190.149 59.8526   0
   4   2   0 3535.71 103.835   3
   4   2   0 3889.98 158.791   2
   4   2   0 3712.24 121.714   0
   4   2   0 4227.15 192.594   1
   4   2   1 3052.90 190.076   2
   4   2   1 3037.31 218.826   1
   4   2   1 3275.53 158.074   0
   4   2   2 375.991 219.241   1
   4   2   2 114.294 173.569   0
   4   2   2 358.506 189.261   2
   4   2   3 70.5018 186.233   0
   4   2   3 133.371 200.633   2
   4   2   4 184.372 188.017   0
   4   2   4 165.056 186.496   2
   4   2   5-23.1092 194.535   0
   4   2   5-170.125 201.856   2
   4   2   6-189.087 217.198   0
   4   2   6-86.3915 216.654   2
   4   3 -10-51.8622 216.304   3
  -4   3  10 111.000 194.559   0
   4   3 -10-133.677 238.695   4
   4   3  -9 94.4396 197.922   3
   4   3  -9-40.7843 220.675   4
  -4   3   9 199.460 185.265   0
   4   3  -8 146.789 200.803   3
  -4   3   8 231.270 175.689   0
   4   3  -8 207.273 196.891   4
   4   3  -7 348.204 183.010   3
  -4   3   7 309.601 166.520   0
   4   3  -7 322.322 178.788   4
   4   3  -6-3.98989 199.144   3
   4   3  -6 12.1991 161.189   2
  -4   3   6 49.0131 186.700   0
   4   3  -6 48.5710 191.046   4
   4   3  -5 2061.23 183.976   3
  -4   3   5 2290.63 185.499   0
   4   3  -5 2110.02 161.212   2
   4   3  -5 2230.92 183.442   4
   4   3  -4 4227.08 176.728   3
  -4   3   4 4478.68 181.879   0
   4   3  -4 4097.69 153.502   2
   4   3  -4 4042.42 166.673   4
   4   3  -4 4306.04 140.436   1
   4   3  -3 677.793 115.933   3
   4   3  -3 639.674 114.253   1
   4   3  -3 680.721 121.231   2
   4   3  -3 666.238 120.472   4
   4   3  -2 2903.23 112.619   3
   4   3  -2 2978.13 152.453   2
   4   3  -2 2794.27 128.420   4
   4   3  -2 3231.69 155.056   1
   4   3  -1 5163.23 117.534   3
   4   3  -1 5208.40 182.934   2
   4   3  -1 5249.46 154.731   4
   4   3  -1 5470.26 184.543   1
   4   3   0 1386.43 176.370   2
   4   3   0 1528.34 180.009   1
   4   3   0 1314.65 104.894   0
   4   3   1 194.610 193.230   1
   4   3   1 100.145 125.741   0
   4   3   1 151.951 181.274   2
   4   3   2 1096.75 237.010   1
   4   3   2 506.590 181.287   0
   4   3   2 879.008 234.486   2
   4   3   3 82.2452 185.699   1
   4   3   3 215.507 168.757   0
   4   3   3 314.564 201.557   2
   4   3   4 80.4237 182.993   0
   4   3   4-119.170 217.293   2
   4   3   5-18.4829 182.886   0
   4   3   5-111.128 218.956   2
   4   3   6 87.2497 219.060   2
   4   3   7-176.287 226.557   2
   4   4 -10-103.471 233.773   3
   4   4 -10 266.440 255.507   4
  -4   4   9 82.7764 189.229   0
   4   4  -9 41.3495 205.700   3
   4   4  -9 0.00000 213.210   4
   4   4  -8-12.6119 203.378   3
  -4   4   8 71.1295 182.405   0
   4   4  -8-46.6911 193.552   4
   4   4  -7 144.029 191.047   3
  -4   4   7 104.351 180.798   0
   4   4  -7 224.649 183.311   4
   4   4  -6 881.285 196.465   3
   4   4  -6 1107.67 190.325   4
  -4   4   6 1164.78 194.997   0
   4   4  -5 449.419 185.242   3
   4   4  -5 573.747 130.821   1
   4   4  -5 461.766 136.523   2
  -4   4   5 572.268 193.083   0
   4   4  -5 526.060 192.083   4
   4   4  -4 675.499 158.661   3
   4   4  -4 710.368 134.766   1
   4   4  -4 582.535 137.073   2
  -4   4   4 534.332 141.233   1
   4   4  -4 739.252 172.796   4
  -4   4   4 646.240 188.669   0
   4   4  -3 3753.10 153.182   3
   4   4  -3 3481.10 159.715   2
   4   4  -3 3818.76 191.197   4
   4   4  -3 3600.16 168.552   1
  -4   4   3 3731.04 179.649   1
   4   4  -2 2444.35 119.316   3
   4   4  -2 2367.51 168.936   2
   4   4  -2 2569.68 174.072   4
   4   4  -2 2679.42 181.562   1
   4   4  -1 71.7059 172.037   1
   4   4  -1 112.758 167.892   2
   4   4  -1 17.1596 156.016   4
   4   4   0 1047.10 202.516   2
   4   4   0 1169.63 193.931   1
   4   4   1 1039.32 203.672   1
   4   4   1 1040.06 227.099   2
   4   4   2 132.568 191.278   1
   4   4   2 99.0124 155.767   0
   4   4   2 129.326 219.822   2
   4   4   3 227.271 184.758   1
   4   4   3 60.8628 159.847   0
   4   4   3 76.7938 217.935   2
   4   4   4 155.442 184.812   0
   4   4   4-31.8588 223.098   2
   4   4   5-106.119 191.928   0
   4   4   5 34.9604 229.728   2
   4   4   6-138.193 238.298   2
   4   5 -10-68.7773 251.819   3
   4   5  -9-3.96301 227.431   3
   4   5  -9-76.1648 214.546   4
   4   5  -8-11.1806 206.114   3
  -4   5   8-53.2596 194.337   0
   4   5  -8 64.0400 193.271   4
   4   5  -7 102.908 205.132   3
  -4   5   7-2.13249 191.603   0
   4   5  -7 9.01565 196.809   4
   4   5  -6-17.9462 174.292   3
   4   5  -6 1.36724 177.385   4
  -4   5   6 93.0867 181.031   0
   4   5  -5 390.122 181.403   3
   4   5  -5 543.499 135.803   1
  -4   5   5 421.106 197.357   0
   4   5  -5 491.082 195.211   4
   4   5  -4 746.957 174.671   3
   4   5  -4 936.221 169.612   1
   4   5  -4 777.851 132.579   2
  -4   5   4 1180.80 215.716   0
   4   5  -4 926.794 207.472   4
   4   5  -3 144.031 141.950   3
   4   5  -3 89.8339 174.248   1
   4   5  -3 84.1669 140.645   2
  -4   5   3 200.734 187.744   1
   4   5  -3 99.4380 190.783   4
   4   5  -2 845.920 191.093   1
   4   5  -2 681.312 161.334   2
  -4   5   2 771.018 212.691   1
   4   5  -2 704.313 190.885   4
   4   5  -1 1322.10 201.318   1
   4   5  -1 1311.21 221.425   4
  -4   5   1 1523.82 255.644   1
   4   5  -1 1304.84 199.484   2
   4   5   0 574.300 211.533   1
   4   5   0 364.376 199.480   2
   4   5   1 27.4331 208.887   2
   4   5   1 99.5568 183.244   1
   4   5   2 145.740 174.949   1
   4   5   2 276.147 207.594   2
   4   5   3-24.3443 185.166   1
   4   5   3 17.3578 213.219   2
   4   5   4-38.9990 169.746   0
   4   5   4 58.7358 225.022   2
   4   5   5 3.42514 184.109   0
  -4   5  -5-272.927 254.150   1
   4   5   5 82.2933 245.445   2
   4   5   6-105.782 270.267   2
   4   6  -9-13.9917 242.491   4
   4   6  -9-111.532 251.193   3
   4   6  -8-240.842 230.903   3
  -4   6   8-84.2032 184.907   0
   4   6  -8-19.1997 213.259   4
   4   6  -7 7.54395 209.100   3
  -4   6   7 7.83617 186.635   0
   4   6  -7 19.1077 188.170   4
  -4   6   6 87.2086 200.839   0
   4   6  -6 230.181 195.118   3
   4   6  -6 105.580 205.132   4
   4   6  -5 124.947 164.688   3
   4   6  -5 17.1763 127.561   1
  -4   6   5-71.0151 184.716   0
   4   6  -5 20.9208 192.279   4
   4   6  -4 199.969 143.094   3
   4   6  -4 142.799 147.653   1
  -4   6   4 87.7783 189.132   0
   4   6  -4 142.766 187.559   4
   4   6  -3 758.046 177.167   1
  -4   6   3 899.302 188.967   1
   4   6  -3 686.967 210.700   4
   4   6  -2 490.830 180.985   1
  -4   6   2 694.878 221.136   1
   4   6  -2 425.023 160.679   2
   4   6  -2 492.138 220.460   4
   4   6  -1-96.7189 187.884   1
  -4   6   1-161.530 249.765   1
   4   6  -1-42.7602 174.729   2
   4   6  -1 67.6928 219.210   4
   4   6   0 349.451 172.338   1
  -4   6   0 96.1071 241.246   1
   4   6   0 222.558 179.015   2
   4   6   1 84.5034 180.237   1
  -4   6  -1 104.913 266.607   1
   4   6   1 293.715 195.537   2
   4   6   2-24.2032 193.127   1
  -4   6  -2-35.4987 284.357   1
   4   6   2-66.2910 210.894   2
   4   6   3 34.2071 171.321   1
  -4   6  -3-74.3146 291.326   1
   4   6   3 54.0628 215.734   2
  -4   6  -4-45.1057 267.585   1
   4   6   4-63.4723 228.103   2
  -4   6  -5-71.3770 298.745   1
   4   6   5 186.087 257.363   2
   4   7  -8 59.2277 206.870   4
   4   7  -7-9.06169 210.295   3
  -4   7   7 53.0738 203.895   0
   4   7  -7 0.39683 213.158   4
  -4   7   6-106.208 209.291   0
   4   7  -6 63.4718 195.843   3
   4   7  -6 129.751 211.612   4
   4   7  -5-1.13755 185.529   3
   4   7  -5 14.6278 141.382   1
  -4   7   5 82.4381 191.700   0
   4   7  -5 7.59330 205.136   4
   4   7  -4 21.2261 155.896   3
   4   7  -4 148.196 156.291   1
  -4   7   4 217.505 195.159   0
   4   7  -4 86.3211 209.372   4
   4   7  -3 7.26584 172.627   1
  -4   7   3 20.0960 180.309   1
  -4   7   3 3.44924 188.760   0
   4   7  -3-45.2364 203.519   4
   4   7  -2 168.363 175.396   1
  -4   7   2 72.5354 203.040   1
   4   7  -2 40.5850 202.308   4
  -4   7   1 150.417 221.522   1
   4   7  -1 294.257 187.662   1
   4   7  -1 148.864 165.262   2
   4   7  -1 176.766 233.395   4
   4   7   0 45.0176 174.595   1
  -4   7   0-8.36694 263.331   1
   4   7   0 96.6247 176.865   2
   4   7   1-105.024 184.396   1
  -4   7  -1-51.1191 262.867   1
   4   7   1 64.5935 202.727   2
   4   7   2-19.0735 170.036   1
  -4   7  -2 13.0739 280.397   1
   4   7   2 109.344 200.254   2
   4   7   3 59.6019 161.898   1
  -4   7  -3-157.050 298.658   1
   4   7   3-25.2035 212.906   2
  -4   7  -4 73.9128 313.091   1
   4   7   4-10.4127 244.763   2
  -4   7  -5-9.10972 266.670   1
   4   8  -7-194.408 237.265   4
   4   8  -6-8.43857 207.989   4
  -4   8   6 3.88677 187.783   0
   4   8  -5-61.7957 145.256   1
  -4   8   5 0.72478 185.996   0
   4   8  -5-102.595 225.900   4
  -4   8   4 73.7273 200.621   0
   4   8  -4 75.8139 164.785   1
   4   8  -4-98.6512 224.752   4
   4   8  -3-30.3491 172.661   1
  -4   8   3 1.50785 180.590   1
  -4   8   3 53.1718 200.705   0
   4   8  -3 146.366 223.962   4
   4   8  -2-23.1525 179.064   1
  -4   8   2 90.8515 191.979   1
   4   8  -2 112.389 233.373   4
   4   8  -1-39.9147 183.532   1
  -4   8   1-222.992 242.362   1
   4   8  -1-75.1465 259.763   4
   4   8   0 37.0114 176.128   1
  -4   8   0-24.3317 233.004   1
   4   8   0 75.6172 175.383   2
   4   8   1-75.1582 180.958   1
  -4   8  -1 139.262 281.140   1
   4   8   1-96.0866 186.270   2
   4   8   2-58.6119 170.405   1
  -4   8  -2 65.7528 269.521   1
   4   8   2-13.1926 186.968   2
   4   8   3-3.99157 184.493   1
  -4   8  -3-38.5006 294.510   1
   4   8   3 23.0516 225.160   2
  -4   8  -4-58.6046 313.346   1
   4   8   4-242.230 235.508   2
   4   9  -6-150.170 224.393   4
   4   9  -5-131.151 165.205   1
   4   9  -5 13.1762 226.648   4
   4   9  -4-179.771 184.274   1
   4   9  -4-102.436 228.782   4
  -4   9   4-67.3441 199.336   0
   4   9  -3 15.9759 190.957   1
  -4   9   3 6.12911 180.737   1
   4   9  -3 123.234 252.299   4
  -4   9   3-34.3942 187.605   0
   4   9  -2-14.9112 177.759   1
  -4   9   2 6.19525 183.874   1
  -4   9   2 79.0575 198.423   0
   4   9  -2 41.5268 242.700   4
   4   9  -1 58.1569 192.863   1
  -4   9   1 76.4772 231.598   1
   4   9   0 33.8958 199.777   1
  -4   9   0 16.5182 254.454   1
   4   9   1 91.2283 177.793   1
  -4   9  -1 93.7214 267.601   1
   4   9   2 92.2627 181.159   1
  -4   9  -2-37.6185 259.779   1
   4   9   2-105.595 204.246   2
   4   9   3 30.9277 210.966   2
   4  10  -5-39.1446 162.238   1
   4  10  -4 42.3588 196.415   1
   4  10  -4-117.153 261.754   4
   4  10  -3-72.7806 195.322   1
   4  10  -3 9.37767 304.162   4
   4  10  -2-68.4490 211.666   1
  -4  10   2 125.408 217.091   1
   4  10  -2-60.2021 278.416   4
   4  10  -1 79.9541 191.437   1
  -4  10   1 58.8948 248.328   1
   4  10   0 118.430 215.374   1
  -4  10   0-27.1018 244.573   1
   4  10   1 108.775 196.330   1
   5  -9  -4-109.504 186.594   5
   5  -9  -3 87.8060 178.030   5
   5  -9  -2-112.643 211.049   5
   5  -9  -1-56.3245 234.817   3
   5  -9  -1 77.4638 169.325   5
   5  -8  -6 143.321 232.622   5
   5  -8  -5-14.0953 177.281   5
   5  -8  -4-67.2617 187.737   0
   5  -8  -4 45.9670 204.022   5
   5  -8  -3 98.9374 184.332   0
   5  -8  -3-10.5197 186.585   5
   5  -8  -2 150.183 195.882   0
   5  -8  -2 55.5188 217.331   3
   5  -8  -2 48.6548 184.798   5
   5  -8  -1 73.2106 192.719   0
   5  -8  -1-173.010 230.339   3
   5  -8  -1-92.3134 163.587   5
   5  -8   0-11.0132 200.271   0
   5  -8   0 38.5380 183.627   5
   5  -8   1-97.2466 198.743   0
   5  -8   1-9.84936 163.893   5
   5  -7  -9-98.0993 260.033   4
   5  -7  -7-135.444 190.890   5
   5  -7  -6 33.8073 216.101   5
   5  -7  -5 34.3744 207.777   5
   5  -7  -4 56.9920 183.019   0
   5  -7  -4 63.5633 203.169   5
   5  -7  -3-47.0868 190.176   0
   5  -7  -3 48.9089 199.654   3
   5  -7  -3 55.2685 176.512   5
   5  -7  -2 4.29559 189.581   0
   5  -7  -2-68.1166 231.469   3
   5  -7  -2 33.2400 184.686   5
   5  -7  -1 50.0864 199.421   0
   5  -7  -1-69.9197 245.240   3
   5  -7  -1 4.30855 175.659   5
   5  -7   0 36.3681 195.800   0
   5  -7   0 131.517 153.654   5
   5  -7   1-104.277 195.616   0
   5  -7   1-108.678 167.417   5
   5  -7   2 143.788 196.440   0
   5  -7   2-44.4891 175.569   5
   5  -7   3-133.874 198.589   5
   5  -6  -9 2.54251 286.198   4
   5  -6  -8 82.3477 231.885   5
   5  -6  -8 90.9627 245.937   4
   5  -6  -7-77.6664 212.857   5
   5  -6  -6 196.042 206.997   5
   5  -6  -5 359.743 191.907   5
   5  -6  -4 31.8304 175.513   0
   5  -6  -4 144.198 170.414   3
   5  -6  -4 99.7194 163.125   5
   5  -6  -3 24.9394 179.959   0
   5  -6  -3 128.873 200.441   3
   5  -6  -3 58.2540 169.656   5
   5  -6  -2 423.517 186.556   0
   5  -6  -2 231.320 219.767   3
   5  -6  -2 153.614 151.640   5
   5  -6  -1 208.168 238.431   3
   5  -6  -1 153.917 185.143   0
   5  -6  -1-26.3460 159.772   5
   5  -6   0 52.9819 191.207   0
   5  -6   0-15.4688 161.744   5
   5  -6   1 69.3986 193.439   0
   5  -6   1-86.4985 165.681   5
   5  -6   2-28.2993 185.752   0
   5  -6   2 47.7545 161.994   5
   5  -6   3-89.1289 169.496   5
   5  -6   3-134.151 195.450   0
   5  -5 -10 26.0928 263.478   4
   5  -5  -9-13.3901 225.376   5
   5  -5  -9 7.63836 248.739   4
   5  -5  -8 78.2681 191.053   5
   5  -5  -8 100.322 226.309   4
   5  -5  -7 252.512 203.297   5
   5  -5  -7 185.694 228.642   4
   5  -5  -6 165.619 176.941   5
   5  -5  -5 13.3575 142.063   3
   5  -5  -5-72.3863 164.028   5
   5  -5  -4 425.434 183.807   0
   5  -5  -4 497.362 188.319   3
   5  -5  -4 529.595 171.972   5
   5  -5  -3 929.340 208.736   0
   5  -5  -3 690.660 235.408   3
   5  -5  -3 678.408 172.783   5
   5  -5  -2 179.427 266.652   3
   5  -5  -2 41.0787 199.867   0
   5  -5  -2 104.331 157.113   5
   5  -5  -1 159.505 250.622   3
   5  -5  -1 182.720 200.698   0
   5  -5  -1 180.567 151.039   5
   5  -5   0 584.889 188.706   0
   5  -5   0 286.544 146.720   5
   5  -5   1 37.5538 194.377   0
   5  -5   1-13.3828 149.013   5
   5  -5   2 46.1546 189.479   0
   5  -5   2 71.2656 157.272   5
   5  -5   3 6.67786 137.308   5
   5  -4 -10 1.05164 282.655   4
   5  -4  -9 98.4625 212.424   5
   5  -4  -9-39.2471 235.049   4
   5  -4  -8 30.2267 198.909   5
   5  -4  -8 105.710 228.270   4
   5  -4  -7 144.181 196.754   5
   5  -4  -7 63.5519 210.706   4
   5  -4  -6 243.590 127.839   3
   5  -4  -6 519.028 178.325   5
   5  -4  -6 332.677 179.966   4
   5  -4  -5 1171.86 184.264   3
   5  -4  -5 1460.02 195.486   5
   5  -4  -4 676.560 191.328   0
   5  -4  -4 597.460 205.511   3
   5  -4  -4 577.848 170.980   5
   5  -4  -3 332.691 185.929   0
   5  -4  -3 257.290 232.198   3
   5  -4  -3 305.265 151.860   5
   5  -4  -2 1787.93 269.601   3
   5  -4  -2 1564.32 141.337   2
   5  -4  -2 1655.34 161.591   5
   5  -4  -2 2084.61 205.084   0
   5  -4  -1 593.888 281.542   3
   5  -4  -1 873.547 211.927   0
   5  -4  -1 727.574 148.227   5
   5  -4   0 285.454 209.157   0
   5  -4   0-25.1717 147.113   5
   5  -4   1 109.163 186.146   0
   5  -4   1 146.173 129.579   5
   5  -4   2 4.92462 191.348   0
   5  -4   2 117.725 140.111   5
   5  -4   3 1.94604 186.893   0
   5  -4   4 105.879 200.659   0
   5  -3 -10 75.2492 264.564   4
   5  -3  -9-59.6370 203.947   5
   5  -3  -9 41.4911 240.748   4
   5  -3  -8-10.4234 191.201   5
   5  -3  -8 25.2632 230.864   4
   5  -3  -7 536.427 138.254   3
   5  -3  -7 411.663 176.739   5
   5  -3  -7 531.145 194.825   4
   5  -3  -6 607.736 154.551   3
   5  -3  -6 737.959 181.570   5
   5  -3  -6 645.903 190.526   4
   5  -3  -5-37.7804 168.545   3
   5  -3  -5-42.1053 163.338   5
   5  -3  -5 12.6513 155.601   4
   5  -3  -4 2241.80 203.565   3
   5  -3  -4 2193.35 175.584   0
   5  -3  -4 2345.36 154.783   5
   5  -3  -3 3083.74 230.308   3
   5  -3  -3 2791.52 170.450   2
   5  -3  -3 2946.57 142.625   5
   5  -3  -3 3132.00 185.652   0
   5  -3  -2 290.583 231.639   3
   5  -3  -2 565.379 168.178   0
   5  -3  -2 441.276 130.092   2
   5  -3  -2 368.858 109.008   5
   5  -3  -1 716.192 253.372   3
   5  -3  -1 655.390 174.609   0
   5  -3  -1 631.551 117.967   2
   5  -3   0 1399.66 209.281   0
   5  -3   1 364.299 212.105   0
   5  -3   2-95.8413 181.408   0
   5  -3   3-21.4036 196.478   0
   5  -3   4 40.8360 196.054   0
   5  -2 -11-145.423 241.123   4
   5  -2 -10 161.554 251.259   4
   5  -2  -9 86.7564 235.352   4
   5  -2  -8 401.210 144.492   3
   5  -2  -8 319.317 183.877   5
   5  -2  -8 342.208 211.816   4
   5  -2  -7 5.67939 144.891   3
   5  -2  -7 107.569 153.919   5
   5  -2  -7 67.7613 175.109   4
   5  -2  -6 813.680 172.573   3
   5  -2  -6 985.069 173.842   5
   5  -2  -6 829.234 191.258   4
   5  -2  -5 3363.68 186.511   3
   5  -2  -5 3519.49 167.272   5
   5  -2  -5 3309.00 164.805   4
   5  -2  -4 1704.95 182.494   3
   5  -2  -4 1483.75 174.362   2
   5  -2  -4 1713.21 146.645   0
   5  -2  -3 775.859 175.452   3
   5  -2  -3 825.537 131.528   0
   5  -2  -3 577.385 133.191   2
   5  -2  -2 5256.55 235.714   3
   5  -2  -2 5110.61 165.579   2
   5  -2  -2 5739.15 176.595   0
   5  -2  -1 2727.13 241.769   3
   5  -2  -1 2390.53 135.353   2
   5  -2  -1 2772.72 168.812   0
   5  -2   0 41.4053 224.997   3
   5  -2   0-17.1183 115.616   2
   5  -2   0 123.855 175.555   0
   5  -2   1 697.372 206.841   0
   5  -2   2 300.725 185.505   0
   5  -2   3 41.5437 178.254   0
   5  -2   4-13.4815 185.289   0
   5  -2   5 144.981 194.577   0
   5  -1 -11 30.2628 269.165   4
   5  -1 -10-202.537 248.135   4
   5  -1  -9 71.6725 154.711   3
   5  -1  -9 158.365 221.997   4
   5  -1  -8 114.942 150.101   3
   5  -1  -8 102.177 195.095   4
   5  -1  -7 1047.21 171.280   3
   5  -1  -7 1054.24 198.881   4
   5  -1  -6 1426.90 181.269   3
   5  -1  -6 1382.78 178.974   4
   5  -1  -5 41.5394 154.175   3
   5  -1  -5 46.7551 182.900   2
   5  -1  -5 149.187 122.709   4
   5  -1  -4 4128.07 182.848   3
   5  -1  -4 4250.20 135.482   0
   5  -1  -4 3979.41 183.024   2
   5  -1  -4 3899.14 110.018   4
   5  -1  -3 5445.07 195.007   3
   5  -1  -3 5635.45 175.801   2
   5  -1  -3 6045.71 143.095   0
   5  -1  -2 978.012 166.155   3
   5  -1  -2 945.139 130.678   2
   5  -1  -2 1098.91 118.849   0
   5  -1  -1 821.797 187.716   3
   5  -1  -1 1093.23 120.797   2
   5  -1  -1 1131.02 134.635   0
   5  -1   0 2128.61 217.613   3
   5  -1   0 2464.74 153.268   2
   5  -1   0 2337.27 174.095   0
   5  -1   1 344.016 206.659   3
   5  -1   1 602.435 136.398   2
   5  -1   1 399.794 187.773   0
   5  -1   2 117.806 126.408   2
   5  -1   2 11.3847 190.807   0
   5  -1   3 102.703 183.761   0
   5  -1   4 9.27494 188.462   0
   5  -1   5 119.284 200.227   0
   5   0 -11-47.0408 269.168   4
   5   0 -10-11.4177 170.972   3
   5   0 -10 94.5318 240.769   4
   5   0  -9 72.1712 169.700   3
   5   0  -9 257.503 224.196   4
   5   0  -8 531.698 170.464   3
   5   0  -8 350.474 202.639   4
   5   0  -7 86.4475 168.255   3
   5   0  -7 133.156 183.998   4
   5   0  -6 953.957 186.676   3
   5   0  -6 1039.10 168.345   4
  -5   0   5 4494.17 126.772   0
   5   0  -5 4654.84 220.817   2
   5   0  -5 4772.54 156.350   4
   5   0  -4 1748.38 153.108   3
  -5   0   4 2027.37 100.071   0
   5   0  -4 1862.30 168.204   2
   5   0  -4 1980.42 91.0297   0
   5   0  -4 1891.94 96.5161   4
   5   0  -3 1396.81 142.274   3
   5   0  -3 1304.79 145.751   2
   5   0  -3 1511.57 90.3289   0
   5   0  -2 6460.44 188.580   3
   5   0  -2 6297.31 173.289   2
   5   0  -2 6388.39 137.224   0
   5   0  -1 3636.92 185.717   3
   5   0  -1 3474.51 159.919   2
   5   0  -1 3518.01 140.142   0
   5   0   0 180.762 166.149   3
   5   0   0 148.177 140.059   2
   5   0   0 269.111 138.550   0
   5   0   1 319.024 189.462   3
   5   0   1 503.961 158.312   2
   5   0   1 384.257 174.735   0
   5   0   2 276.394 180.810   3
   5   0   2 563.940 162.996   2
   5   0   2 497.946 187.900   0
   5   0   3 73.9637 129.772   2
   5   0   3-66.0279 170.059   0
   5   0   4-35.5791 184.093   0
   5   0   5-96.8355 180.920   0
   5   1 -11 30.8731 191.793   3
   5   1 -11 97.5138 258.996   4
   5   1 -10 49.3035 185.005   3
   5   1 -10 230.693 225.410   4
   5   1  -9 77.9811 176.007   3
   5   1  -9-62.5896 219.611   4
   5   1  -8 80.7379 179.113   3
   5   1  -8 73.2274 193.489   4
  -5   1   7 1041.57 142.062   0
   5   1  -7 1111.76 185.073   3
   5   1  -7 1058.12 185.946   4
   5   1  -6 1354.69 198.282   3
  -5   1   6 1497.91 148.451   0
   5   1  -6 1358.40 213.456   2
   5   1  -6 1287.67 166.061   4
   5   1  -5 50.9858 160.424   3
  -5   1   5 60.9532 116.686   0
   5   1  -5 42.1850 178.331   2
   5   1  -5 84.4040 121.820   4
   5   1  -4 3856.72 173.743   3
  -5   1   4 3918.20 131.349   0
   5   1  -4 3968.82 185.308   2
   5   1  -4 4205.59 124.969   4
   5   1  -4 3949.55 147.981   1
   5   1  -3 5440.17 168.032   3
   5   1  -3 5487.63 184.519   2
   5   1  -3 5655.32 112.624   4
   5   1  -3 5508.93 178.175   1
   5   1  -2 882.200 173.271   1
   5   1  -2 837.637 123.146   3
   5   1  -2 907.387 140.055   2
   5   1  -2 898.688 75.3537   0
   5   1  -1 1177.68 136.039   3
   5   1  -1 1254.84 147.526   2
   5   1  -1 852.583 102.477   0
   5   1  -1 1103.04 209.163   1
   5   1   0 2554.23 157.290   3
   5   1   0 2787.79 177.854   2
   5   1   1 452.006 153.223   3
   5   1   1 454.064 176.531   2
   5   1   1 460.194 159.107   0
   5   1   2-33.7210 169.428   0
   5   1   2 34.0490 164.295   2
   5   1   3 210.093 168.351   0
   5   1   3 59.1835 159.124   2
   5   1   4 83.2977 196.492   0
   5   1   4-26.9803 161.846   2
   5   1   5 76.7856 181.570   0
   5   2 -11 52.4885 210.726   3
   5   2 -11-12.4003 246.333   4
   5   2 -10-35.9947 197.307   3
   5   2 -10 124.989 213.849   4
   5   2  -9 114.355 182.052   3
   5   2  -9 78.4627 203.127   4
   5   2  -8 338.589 184.061   3
  -5   2   8 234.596 154.755   0
   5   2  -8 251.198 193.423   4
   5   2  -7-0.49975 175.481   3
  -5   2   7-30.8061 142.363   0
   5   2  -7 36.7266 158.211   4
   5   2  -6 797.451 200.874   3
   5   2  -6 622.615 201.335   2
   5   2  -6 868.789 179.697   4
  -5   2   6 743.820 169.555   0
   5   2  -5 3350.15 194.314   3
  -5   2   5 3212.89 169.689   0
   5   2  -5 2931.83 181.722   2
   5   2  -5 3133.21 159.214   4
   5   2  -4 1588.73 155.556   3
  -5   2   4 1660.03 144.058   0
   5   2  -4 1641.17 170.289   2
   5   2  -4 1632.86 126.711   4
   5   2  -4 1560.09 130.294   1
   5   2  -3 775.970 153.009   1
   5   2  -3 734.050 124.397   3
   5   2  -3 759.385 157.813   2
   5   2  -3 844.773 102.679   4
   5   2  -2 4869.21 151.970   3
   5   2  -2 4978.19 186.238   2
   5   2  -2 4731.39 127.544   4
   5   2  -2 5137.08 211.347   1
   5   2  -1 2563.51 129.380   3
   5   2  -1 2276.23 177.911   2
   5   2  -1 2302.25 218.335   1
   5   2   0-0.64720 234.384   1
   5   2   0-0.40089 182.589   2
   5   2   0 1.07822 109.205   0
   5   2   1 313.847 258.962   1
   5   2   1 262.736 154.179   0
   5   2   1 318.242 198.881   2
   5   2   2 269.237 158.420   0
   5   2   2 390.831 184.558   2
   5   2   3 20.9630 168.149   0
   5   2   3 33.8058 183.207   2
   5   2   4-42.0865 178.956   0
   5   2   4-22.1777 168.728   2
   5   2   5 1.15140 188.359   0
   5   2   5-178.851 184.619   2
   5   3 -10-7.34565 214.218   3
   5   3 -10-72.4492 231.621   4
  -5   3  10 113.615 203.320   0
  -5   3   9-74.0079 173.834   0
   5   3  -9 99.8502 200.864   3
   5   3  -9 170.012 183.414   4
   5   3  -8 47.9258 192.006   3
  -5   3   8 32.4836 164.558   0
   5   3  -8 146.016 186.746   4
   5   3  -7 599.479 184.244   3
  -5   3   7 510.908 163.701   0
   5   3  -7 607.256 173.958   4
   5   3  -6 693.268 193.396   3
  -5   3   6 830.093 177.827   0
   5   3  -6 500.876 170.975   2
   5   3  -6 584.125 172.627   4
  -5   3   5 35.3553 177.760   0
   5   3  -5 42.0431 122.585   1
   5   3  -5 107.754 173.486   3
   5   3  -5 49.0956 168.424   2
   5   3  -5 15.0377 160.151   4
   5   3  -4 2129.26 169.882   3
   5   3  -4 2133.79 173.171   2
   5   3  -4 2077.39 161.150   4
   5   3  -4 2071.59 156.929   1
   5   3  -3 3096.91 153.313   3
   5   3  -3 2695.47 183.673   2
   5   3  -3 2876.52 152.154   4
   5   3  -3 2738.80 176.806   1
   5   3  -2 419.158 188.151   1
   5   3  -2 406.475 109.786   3
   5   3  -2 342.386 176.964   2
   5   3  -2 452.293 128.264   4
   5   3  -1 646.545 209.177   1
   5   3  -1 776.715 175.307   2
   5   3   0 1366.01 246.421   1
   5   3   0 1618.22 204.622   2
   5   3   1 229.855 245.519   1
   5   3   1 223.522 208.473   2
   5   3   2 3.54496 210.318   1
   5   3   2 57.3631 136.603   0
   5   3   2-28.0688 174.380   2
   5   3   3 61.2740 163.659   0
   5   3   3 105.701 199.749   2
   5   3   4-10.7369 177.646   0
   5   3   4-2.10152 181.355   2
   5   3   5-53.7298 198.994   0
   5   3   5 50.4225 209.024   2
   5   3   6 4.53379 211.771   2
   5   4 -10-193.838 235.244   3
   5   4 -10 12.7846 241.223   4
   5   4  -9-53.8190 205.924   3
  -5   4   9 64.4329 186.262   0
   5   4  -9-41.4432 188.951   4
   5   4  -8 41.7708 197.006   3
  -5   4   8 87.0283 172.406   0
   5   4  -8 136.775 190.936   4
   5   4  -7 143.032 190.966   3
  -5   4   7-40.8658 171.251   0
   5   4  -7-52.0554 176.706   4
   5   4  -6 305.275 173.961   3
  -5   4   6 526.231 173.227   0
   5   4  -6 353.686 132.656   2
   5   4  -6 425.094 166.227   4
   5   4  -5 1388.88 187.116   3
  -5   4   5 1608.76 205.896   0
   5   4  -5 1198.83 171.043   2
   5   4  -5 1293.36 184.685   4
   5   4  -5 1336.28 146.578   1
   5   4  -4 564.378 166.133   3
  -5   4   4 647.433 195.427   0
   5   4  -4 614.110 162.993   1
   5   4  -4 654.714 161.339   2
   5   4  -4 637.629 178.549   4
   5   4  -3 238.029 135.201   3
   5   4  -3 272.936 167.910   1
   5   4  -3 251.726 167.731   2
   5   4  -3 267.832 164.966   4
   5   4  -2 1759.81 129.277   3
   5   4  -2 1872.20 211.791   2
   5   4  -2 1866.74 176.663   4
   5   4  -2 1811.52 215.382   1
   5   4  -1 734.597 225.433   1
   5   4  -1 874.252 209.371   2
   5   4  -1 712.656 182.170   4
   5   4   0 47.9450 229.562   1
   5   4   0 13.3472 207.576   2
   5   4   1 11.7930 208.900   1
   5   4   1 214.719 188.545   2
   5   4   2-0.86380 201.663   1
   5   4   2 129.644 198.768   2
   5   4   3-58.1509 202.075   1
   5   4   3 109.431 193.069   2
   5   4   4 2.67027 164.931   0
   5   4   4 32.4553 210.846   2
   5   4   5 39.0587 214.157   2
   5   5 -10 69.4993 229.126   3
   5   5 -10-141.441 209.665   4
   5   5  -9-134.170 229.412   3
  -5   5   9-78.8799 195.373   0
   5   5  -9-75.0416 198.076   4
   5   5  -8-10.2318 195.103   3
  -5   5   8 28.6106 177.673   0
   5   5  -8-16.9136 181.601   4
   5   5  -7 119.360 193.043   3
   5   5  -7 58.3427 181.896   4
  -5   5   7 227.101 193.128   0
   5   5  -6 78.3997 174.073   3
  -5   5   6 155.021 176.914   0
   5   5  -6 160.159 167.880   4
   5   5  -5 47.0325 152.609   3
   5   5  -5 15.4067 130.719   1
  -5   5   5-32.4162 179.541   0
   5   5  -5-61.6543 168.465   4
   5   5  -4 438.846 148.730   3
   5   5  -4 596.450 163.292   1
   5   5  -4 436.103 143.884   2
  -5   5   4 485.067 190.125   0
   5   5  -4 464.086 182.021   4
   5   5  -3 585.264 132.574   3
   5   5  -3 764.569 195.991   1
   5   5  -3 651.818 183.986   2
  -5   5   3 205.715 204.821   1
   5   5  -3 654.666 197.680   4
   5   5  -2-42.7219 191.184   1
   5   5  -2 75.1047 178.263   2
   5   5  -2 155.117 183.628   4
   5   5  -1 217.812 200.218   1
   5   5  -1 208.751 192.677   2
   5   5  -1 195.576 189.034   4
   5   5   0 244.200 193.681   1
   5   5   0 395.830 187.057   2
   5   5   1 102.787 189.708   1
   5   5   1 55.4225 192.453   2
   5   5   2 126.806 219.126   1
   5   5   2 13.0927 207.729   2
   5   5   3-24.2811 204.577   1
   5   5   3 46.8200 193.792   2
   5   5   4-47.5417 213.846   2
  -5   5  -5 57.8056 307.586   1
   5   5   5-11.7780 224.610   2
   5   6  -9 95.5116 246.060   3
   5   6  -9 245.921 230.789   4
   5   6  -8-95.1509 212.360   3
  -5   6   8-94.0703 185.497   0
   5   6  -8-48.9433 197.066   4
   5   6  -7-24.4035 195.577   3
   5   6  -7-41.3275 182.976   4
  -5   6   7-4.46469 195.201   0
   5   6  -6 72.6551 180.226   3
  -5   6   6 94.5835 187.356   0
   5   6  -6 35.5890 195.074   4
   5   6  -5 361.751 164.709   3
  -5   6   5 255.239 199.163   0
   5   6  -5 212.338 138.432   1
   5   6  -5 230.642 193.491   4
  -5   6   4 153.321 181.397   0
   5   6  -4 150.499 136.661   3
   5   6  -4 123.720 150.389   1
   5   6  -4 71.0729 190.962   4
   5   6  -3 107.688 174.229   1
  -5   6   3-48.6673 179.397   1
   5   6  -3 33.3413 143.880   2
   5   6  -3 119.434 188.409   4
   5   6  -2 235.161 179.604   1
  -5   6   2 295.116 208.540   1
   5   6  -2 289.535 168.657   2
   5   6  -2 341.868 199.808   4
   5   6  -1 129.513 183.736   1
  -5   6   1 294.130 243.553   1
   5   6  -1 105.909 175.053   2
   5   6   0-8.24206 203.632   1
  -5   6   0 71.7254 268.153   1
   5   6   0-12.5543 190.525   2
   5   6   1-25.4566 206.912   1
  -5   6  -1 199.962 279.168   1
   5   6   1 34.8192 191.606   2
   5   6   2-46.9235 192.577   1
  -5   6  -2-59.0700 283.867   1
   5   6   2 3.98565 196.886   2
   5   6   3 182.447 210.369   1
  -5   6  -3 115.222 276.052   1
   5   6   3-25.0870 214.368   2
  -5   6  -4 7.26194 332.023   1
   5   6   4 6.38876 237.600   2
  -5   6  -5 1.14123 306.533   1
   5   7  -8 133.333 225.835   3
   5   7  -8-7.44358 239.011   4
   5   7  -7 2.50501 199.226   3
   5   7  -7-148.064 217.467   4
  -5   7   7 67.0742 209.266   0
   5   7  -6 40.3071 179.182   3
  -5   7   6-279.288 200.465   0
   5   7  -6-126.076 205.739   4
  -5   7   5 101.454 203.485   0
   5   7  -5 124.198 163.048   3
   5   7  -5-12.0973 160.043   1
   5   7  -5 5.81293 211.988   4
   5   7  -4-3.26005 169.051   1
  -5   7   4 102.604 194.351   0
   5   7  -4 71.1773 205.322   4
   5   7  -3 123.235 169.925   1
  -5   7   3 42.5404 202.970   1
   5   7  -3 100.290 203.616   4
   5   7  -2 0.00000 184.208   1
  -5   7   2 42.8058 230.153   1
   5   7  -2 35.3943 157.741   2
   5   7  -2-1.64935 216.815   4
   5   7  -1 40.4364 193.281   1
  -5   7   1 24.8171 244.640   1
   5   7  -1-86.2872 165.758   2
   5   7   0 99.8190 189.198   1
  -5   7   0 4.26350 268.751   1
   5   7   0-29.3274 192.342   2
   5   7   1 9.60882 188.520   1
  -5   7  -1-40.2098 273.775   1
   5   7   1 97.4807 179.715   2
   5   7   2-90.6128 181.689   1
  -5   7  -2-48.3423 283.859   1
   5   7   2 38.7799 196.202   2
   5   7   3-55.3823 220.045   1
  -5   7  -3-209.321 337.376   1
   5   7   3 132.073 225.807   2
  -5   7  -4-49.1255 282.142   1
   5   8  -7-42.9581 210.044   3
   5   8  -7 272.611 234.486   4
   5   8  -6-110.852 187.291   3
   5   8  -6-53.2418 238.904   4
   5   8  -5 124.467 148.415   1
   5   8  -5-85.1860 228.867   4
  -5   8   5 183.148 200.052   0
   5   8  -4-122.455 177.734   1
   5   8  -4-88.8014 212.559   4
  -5   8   4-209.532 193.331   0
  -5   8   3-41.1703 195.417   0
   5   8  -3-145.846 172.597   1
  -5   8   3-92.6383 195.241   1
   5   8  -3 47.8156 235.771   4
   5   8  -2 20.7100 181.223   1
  -5   8   2 174.762 225.106   1
   5   8  -2 226.182 237.967   4
   5   8  -1 85.4152 201.519   1
  -5   8   1-51.7957 245.964   1
   5   8   0 73.6333 202.653   1
  -5   8   0-39.6568 251.103   1
   5   8   0 41.3446 183.524   2
   5   8   1 106.085 189.545   1
  -5   8  -1-53.6576 275.333   1
   5   8   1 66.5712 200.967   2
   5   8   2-137.220 189.552   1
  -5   8  -2-99.5677 330.316   1
   5   8   2-91.3226 217.871   2
  -5   8  -3-9.95769 289.347   1
   5   8   3-88.5389 221.477   2
   5   9  -6-49.9437 248.133   4
   5   9  -5-13.1020 163.317   1
   5   9  -5 137.058 239.586   4
   5   9  -4 12.3779 196.483   1
   5   9  -4-26.2931 228.772   4
   5   9  -3 88.0343 198.953   1
  -5   9   3-18.2479 207.930   1
   5   9  -3 83.9059 240.721   4
   5   9  -2 105.847 212.678   1
  -5   9   2 46.0119 207.470   1
   5   9  -2 42.6893 269.961   4
   5   9  -1 86.2967 210.712   1
  -5   9   1-34.7158 234.211   1
   5   9   0-38.7566 216.566   1
  -5   9   0 85.9015 282.270   1
   5   9   1 0.80327 187.351   1
  -5   9  -1-119.455 282.028   1
   5   9   1 125.128 201.789   2
   5   9   2 96.5379 205.269   1
   5   9   2 16.0620 201.752   2
   5  10  -4-96.7233 177.785   1
   5  10  -3-11.3202 179.770   1
   5  10  -3 120.828 291.577   4
   5  10  -2-172.408 220.484   1
  -5  10   2-3.09727 195.206   1
  -5  10   1-89.3377 253.719   1
   6  -9  -2 51.1580 243.544   3
   6  -9  -1-32.1701 248.119   3
   6  -9   0 103.162 254.632   3
   6  -8  -4 61.2449 182.535   0
   6  -8  -3 3.26954 191.994   0
   6  -8  -3-26.0999 208.820   3
   6  -8  -2-41.7604 182.020   0
   6  -8  -2-94.1842 232.918   3
   6  -8  -1 107.750 234.332   3
   6  -8   0 93.8595 259.188   3
   6  -7  -5-158.788 175.643   0
   6  -7  -4-82.4609 196.363   0
   6  -7  -4-54.1496 188.613   3
   6  -7  -3 199.325 201.788   0
   6  -7  -3 7.38812 213.694   3
   6  -7  -2 106.216 206.867   0
   6  -7  -2 188.862 240.916   3
   6  -7  -1 12.7963 239.729   3
   6  -7  -1 9.57158 203.103   0
   6  -7   0 13.8143 250.382   3
   6  -7   0-63.3281 183.959   0
   6  -6  -5 104.577 180.982   3
   6  -6  -5-24.0325 188.904   0
   6  -6  -4 221.906 188.205   0
   6  -6  -4 114.651 204.773   3
   6  -6  -3 81.7925 198.426   0
   6  -6  -3 83.3887 218.120   3
   6  -6  -2 94.5197 193.613   0
   6  -6  -2 54.4612 240.429   3
   6  -6  -1-147.442 251.108   3
   6  -6  -1-41.4969 207.900   0
   6  -6   0 70.2833 206.562   0
   6  -6   1 116.861 191.534   0
   6  -5 -10-15.6016 254.845   4
   6  -5  -6 234.460 154.904   3
   6  -5  -5 303.326 174.959   0
   6  -5  -5 261.723 176.133   3
   6  -5  -4 18.2017 169.801   0
   6  -5  -4 13.2989 191.569   3
   6  -5  -3 226.828 175.249   0
   6  -5  -3 264.332 224.621   3
   6  -5  -2 354.245 237.765   3
   6  -5  -2 255.769 184.514   0
   6  -5  -1 62.2240 238.341   3
   6  -5  -1 22.4378 188.343   0
   6  -5   0-54.8499 248.687   3
   6  -5   0 71.9539 189.300   0
   6  -5   1 92.1714 197.122   0
   6  -5   2 95.5916 174.919   0
   6  -4 -10-69.7925 215.838   4
   6  -4  -9-132.986 198.373   4
   6  -4  -7 303.170 149.609   3
   6  -4  -6-21.2536 152.322   3
   6  -4  -5 425.514 162.400   0
   6  -4  -5 369.432 174.895   3
   6  -4  -4 948.126 180.649   0
   6  -4  -4 984.417 221.329   3
   6  -4  -3 305.259 246.813   3
   6  -4  -3 351.838 183.847   0
   6  -4  -2 128.631 258.486   3
   6  -4  -2 96.2648 185.377   0
   6  -4  -1 369.226 249.457   3
   6  -4  -1 551.626 184.201   0
   6  -4   0 120.859 246.633   3
   6  -4   0 159.541 187.406   0
   6  -4   1 3.28894 185.857   0
   6  -4   2-119.619 187.354   0
   6  -4   3-58.5973 182.052   0
   6  -3 -11 71.9618 221.383   4
   6  -3 -10 0.47371 239.771   4
   6  -3  -9 39.8684 203.045   4
   6  -3  -8 135.363 145.013   3
   6  -3  -8 13.6898 181.286   4
   6  -3  -7 80.2227 150.489   3
   6  -3  -6 952.495 162.067   3
   6  -3  -5 547.550 161.060   0
   6  -3  -5 653.297 196.609   3
   6  -3  -4 93.3299 176.157   0
   6  -3  -4 129.153 236.424   3
   6  -3  -4 62.0854 199.419   2
   6  -3  -3 1017.28 259.921   3
   6  -3  -3 1023.18 173.350   2
   6  -3  -3 1217.20 193.523   0
   6  -3  -2 1305.48 282.191   3
   6  -3  -2 1140.11 196.515   0
   6  -3  -2 1007.79 158.509   2
   6  -3  -1 122.473 269.235   3
   6  -3  -1 244.784 190.478   0
   6  -3   0-8.45804 237.790   3
   6  -3   0 155.139 176.606   0
   6  -3   1 92.9538 183.533   0
   6  -3   2-55.0814 185.559   0
   6  -3   3-12.5446 187.757   0
   6  -2 -11-42.2959 243.953   4
   6  -2 -10-11.7296 202.512   4
   6  -2  -9-150.163 152.712   3
   6  -2  -9-71.1863 181.830   4
   6  -2  -8 250.102 159.587   3
   6  -2  -8 221.114 182.291   4
   6  -2  -7 565.106 155.373   3
   6  -2  -6 170.222 167.939   3
   6  -2  -5 741.473 211.207   3
   6  -2  -5 813.110 213.370   2
   6  -2  -5 882.810 153.708   0
   6  -2  -4 2808.50 234.037   3
   6  -2  -4 2882.77 215.474   2
   6  -2  -4 3048.34 169.043   0
   6  -2  -3 871.607 242.713   3
   6  -2  -3 1006.05 163.624   0
   6  -2  -3 955.794 172.005   2
   6  -2  -2 1124.29 270.497   3
   6  -2  -2 825.687 172.113   0
   6  -2  -2 493.993 150.044   2
   6  -2  -1 1491.88 263.945   3
   6  -2  -1 1452.66 152.458   2
   6  -2  -1 1238.28 190.282   0
   6  -2   0 490.532 239.014   3
   6  -2   0 661.716 187.946   0
   6  -2   1 62.1939 197.569   3
   6  -2   1 37.8411 170.963   0
   6  -2   2-10.9850 185.135   0
   6  -2   3 26.4701 189.183   0
   6  -2   4-73.1750 184.781   0
   6  -1 -11 116.897 225.761   4
   6  -1 -10 7.85143 170.252   3
   6  -1 -10 65.9796 201.927   4
   6  -1  -9 192.802 165.205   3
   6  -1  -9 165.074 192.870   4
   6  -1  -8-1.38820 168.881   3
   6  -1  -8 71.1720 167.806   4
   6  -1  -7 209.362 156.308   3
   6  -1  -7 207.293 145.013   4
   6  -1  -6 1746.27 196.338   3
   6  -1  -5 1444.00 206.426   3
   6  -1  -5 1441.02 216.704   2
   6  -1  -4 170.076 115.978   0
   6  -1  -4 85.6909 193.173   3
   6  -1  -4 116.946 189.793   2
   6  -1  -3 2261.88 217.099   3
   6  -1  -3 2201.87 182.100   2
   6  -1  -3 2335.12 150.732   0
   6  -1  -2 2349.41 235.034   3
   6  -1  -2 2236.09 184.031   2
   6  -1  -2 2552.82 160.550   0
   6  -1  -1 335.263 228.268   3
   6  -1  -1 291.277 159.235   2
   6  -1  -1 264.207 159.138   0
   6  -1   0 266.246 221.827   3
   6  -1   0 370.994 143.655   2
   6  -1   0 311.782 184.155   0
   6  -1   1 252.132 181.489   3
   6  -1   1 475.948 125.803   2
   6  -1   1 383.019 163.745   0
   6  -1   2-34.3017 182.889   3
   6  -1   2 69.4163 169.493   0
   6  -1   3-37.2879 183.723   0
   6  -1   4-30.5105 188.295   0
   6   0 -11 65.3216 192.730   3
   6   0 -11-42.0345 239.069   4
   6   0 -10 24.6120 172.865   3
   6   0 -10-23.4541 221.958   4
   6   0  -9 1.88485 168.500   3
   6   0  -9-1.06315 188.401   4
   6   0  -8 291.104 179.889   3
   6   0  -8 318.375 167.983   4
   6   0  -7 612.531 170.996   3
   6   0  -7 807.029 148.179   4
   6   0  -6 109.006 191.485   3
   6   0  -6 118.592 230.934   2
   6   0  -6 98.8729 132.591   4
   6   0  -5 1068.74 192.061   3
   6   0  -5 931.685 215.518   2
   6   0  -4 3666.63 208.800   3
   6   0  -4 3949.95 215.094   2
   6   0  -3 1475.19 192.596   3
   6   0  -3 1504.05 182.613   2
   6   0  -2 700.980 190.970   3
   6   0  -2 728.139 124.262   0
   6   0  -2 661.327 169.634   2
   6   0  -1 2651.66 213.480   3
   6   0  -1 2645.07 185.303   2
   6   0  -1 2611.55 159.464   0
   6   0   0 578.959 196.717   3
   6   0   0 745.888 171.348   2
   6   0   0 580.144 167.305   0
   6   0   1-80.8401 160.206   3
   6   0   1-48.6461 145.193   2
   6   0   1-56.9757 151.751   0
   6   0   2 0.95041 137.772   2
   6   0   2-20.3484 157.776   0
   6   0   3 39.6439 174.769   0
   6   0   4-35.3753 179.399   0
   6   1 -11 15.3816 190.847   3
   6   1 -11 132.156 235.099   4
   6   1 -10-20.6564 183.474   3
   6   1 -10 46.5150 195.007   4
   6   1  -9 107.905 179.638   3
   6   1  -9 167.284 181.704   4
   6   1  -8 52.9584 179.693   3
   6   1  -8 129.484 168.498   4
   6   1  -7 230.355 171.029   3
   6   1  -7 353.342 139.516   4
   6   1  -6 1684.87 217.368   3
   6   1  -6 1809.00 221.685   2
   6   1  -6 1890.95 150.698   4
   6   1  -5 1339.81 187.272   3
  -6   1   5 1441.86 140.310   0
   6   1  -5 1539.69 207.106   2
   6   1  -4 91.6171 171.978   1
   6   1  -4 59.9613 162.635   3
   6   1  -4 91.1007 187.546   2
   6   1  -3 2050.93 187.213   3
   6   1  -3 2218.53 209.603   2
   6   1  -3 1911.50 207.028   1
   6   1  -2 2124.08 178.080   3
   6   1  -2 2403.89 193.632   2
   6   1  -1 195.396 160.475   3
   6   1  -1 120.995 183.870   2
   6   1   0 293.652 166.787   3
   6   1   0 391.220 190.571   2
   6   1   0 250.341 143.884   0
   6   1   1 344.035 160.557   2
   6   1   1 390.964 140.409   0
   6   1   2 116.746 156.960   2
   6   1   2-19.6149 153.780   0
   6   1   3-72.2182 148.931   2
   6   1   3 115.576 169.669   0
   6   1   4 12.4078 171.977   0
   6   2 -11 154.977 206.340   3
   6   2 -11-38.9846 204.536   4
   6   2 -10-49.1983 211.350   3
   6   2 -10-62.0401 214.963   4
   6   2  -9-41.4360 186.146   3
   6   2  -9-19.7296 176.286   4
   6   2  -8 279.445 191.006   3
   6   2  -8 320.473 175.521   4
   6   2  -7 485.383 183.304   3
   6   2  -7 523.070 186.463   2
  -6   2   7 593.808 138.429   0
   6   2  -7 607.952 151.694   4
   6   2  -6 34.3888 182.936   3
  -6   2   6 129.007 137.001   0
   6   2  -6-23.1044 184.854   2
   6   2  -6 39.8029 130.279   4
   6   2  -5 888.621 189.759   3
   6   2  -5 713.756 202.648   2
  -6   2   5 737.256 156.947   0
   6   2  -5 839.550 140.792   4
   6   2  -4 2800.00 186.904   3
   6   2  -4 2828.61 225.754   2
   6   2  -4 2688.11 199.244   1
   6   2  -3 815.481 200.041   1
   6   2  -3 849.291 156.319   3
   6   2  -3 910.726 205.438   2
   6   2  -2 313.894 237.674   1
   6   2  -2 340.275 138.687   3
   6   2  -2 379.737 195.930   2
   6   2  -1 1324.50 272.872   1
   6   2  -1 1253.34 155.633   3
   6   2  -1 1377.21 223.032   2
   6   2   0 433.116 196.708   2
   6   2   0 302.651 270.809   1
   6   2   1 8.09121 166.196   2
   6   2   2 44.7411 171.522   2
   6   2   2-35.2681 142.545   0
   6   2   3-106.159 164.236   0
   6   2   3-58.4948 163.091   2
   6   2   4-36.7992 177.889   0
   6   2   4-16.2388 179.633   2
   6   3 -10-2.73324 210.706   3
   6   3 -10 103.624 221.500   4
   6   3  -9 135.311 191.453   3
   6   3  -9 85.8119 180.801   4
   6   3  -8 94.4310 190.380   3
  -6   3   8 94.2911 161.645   0
   6   3  -8 23.3420 167.278   4
   6   3  -7 11.9147 180.098   3
   6   3  -7 165.514 160.347   2
   6   3  -7 126.584 153.095   4
  -6   3   7 83.7913 149.289   0
   6   3  -6 840.153 181.724   3
   6   3  -6 833.685 176.256   2
  -6   3   6 903.353 153.519   0
   6   3  -6 941.803 147.515   4
  -6   3   5 609.001 165.988   0
   6   3  -5 626.802 144.784   1
   6   3  -5 529.340 171.854   3
   6   3  -5 523.155 182.511   2
   6   3  -5 653.653 148.348   4
   6   3  -4 92.3542 178.474   1
   6   3  -4 83.2201 161.887   3
   6   3  -4 81.1551 200.569   2
   6   3  -4 13.4724 136.773   4
   6   3  -3 1068.32 217.069   1
   6   3  -3 982.809 154.056   3
   6   3  -3 957.244 209.232   2
   6   3  -2 962.102 135.982   3
   6   3  -2 1093.90 244.635   1
   6   3  -2 917.144 209.378   2
   6   3  -1 324.228 248.551   1
   6   3  -1 190.242 200.935   2
   6   3   0 78.0804 226.924   1
   6   3   0 95.1105 186.093   2
   6   3   1 207.774 243.210   1
   6   3   1 390.967 177.470   2
   6   3   2 37.3123 186.622   2
   6   3   3 2.03144 188.008   2
   6   3   4 15.3641 193.639   2
   6   3   5-127.272 199.289   2
   6   4 -10 2.05253 222.622   3
   6   4 -10-54.1865 205.583   4
   6   4  -9-77.1758 209.178   3
  -6   4   9 102.923 169.172   0
   6   4  -9-68.1154 181.061   4
   6   4  -8 147.205 191.167   3
  -6   4   8 92.2756 164.300   0
   6   4  -8 96.7156 183.209   4
  -6   4   7 194.691 171.951   0
   6   4  -7 162.370 183.303   3
   6   4  -7 174.028 152.253   2
   6   4  -7 121.845 163.815   4
   6   4  -6 31.1995 164.619   3
   6   4  -6 19.5604 152.314   2
  -6   4   6-90.3205 164.630   0
   6   4  -6 48.1426 143.212   4
  -6   4   5 350.156 161.237   0
   6   4  -5 350.954 140.693   1
   6   4  -5 302.461 156.845   3
   6   4  -5 299.672 161.538   2
   6   4  -5 402.381 151.523   4
   6   4  -4 1154.67 175.731   1
   6   4  -4 926.675 156.570   3
   6   4  -4 924.924 184.716   2
   6   4  -4 922.006 156.400   4
   6   4  -3 184.633 193.322   1
   6   4  -3 307.399 133.971   3
   6   4  -3 346.121 185.860   2
   6   4  -2 186.869 195.584   1
   6   4  -2 99.4543 176.920   2
   6   4  -1 305.968 224.303   1
   6   4  -1 383.093 190.588   2
   6   4   0 120.160 226.172   1
   6   4   0 148.209 174.319   2
   6   4   1 77.5902 229.161   1
   6   4   1-33.1509 189.383   2
   6   4   2-155.907 224.321   1
   6   4   2-19.4497 194.292   2
   6   4   3-137.144 201.593   2
   6   4   4 12.8771 213.871   2
   6   5 -10 139.026 226.932   4
   6   5  -9 76.7676 220.927   3
  -6   5   9-24.8894 183.414   0
   6   5  -9 32.0226 198.528   4
   6   5  -8 30.8272 193.914   3
  -6   5   8 93.5725 181.589   0
   6   5  -8-77.3397 182.618   4
   6   5  -7-6.85125 182.249   3
  -6   5   7-54.1863 185.256   0
   6   5  -7 52.0828 169.563   4
   6   5  -6 253.889 170.904   3
  -6   5   6 222.960 181.365   0
   6   5  -6 159.582 173.867   4
  -6   5   5 174.054 172.634   0
   6   5  -5 121.545 149.957   3
   6   5  -5 196.193 141.442   1
   6   5  -5 53.5261 150.981   2
   6   5  -5 216.442 160.032   4
   6   5  -4-18.6509 135.346   3
   6   5  -4 36.0413 161.051   1
   6   5  -4-32.0347 150.717   2
   6   5  -4-79.0903 157.115   4
   6   5  -3 338.239 185.587   1
   6   5  -3 333.902 174.763   2
   6   5  -3 317.660 153.452   4
   6   5  -2 197.266 207.258   1
   6   5  -2 284.419 179.571   2
   6   5  -1 98.0774 203.960   1
   6   5  -1 63.5910 185.838   2
   6   5   0-55.2811 225.215   1
   6   5   0 76.9420 198.985   2
   6   5   1-49.1933 217.493   1
   6   5   1 132.627 199.618   2
   6   5   2 47.9255 206.133   1
   6   5   2-99.3416 202.999   2
   6   5   3-80.5737 227.321   1
   6   5   3 117.870 221.463   2
   6   5   4 31.5040 226.607   2
   6   6  -9-0.41535 213.694   3
   6   6  -9 89.4015 216.343   4
   6   6  -8-21.2749 203.152   3
  -6   6   8-6.51301 198.754   0
   6   6  -8 98.6811 187.579   4
   6   6  -7-12.7200 184.064   3
  -6   6   7-45.1791 175.797   0
   6   6  -7 22.2532 201.898   4
   6   6  -6-100.879 175.478   3
  -6   6   6 88.9347 184.031   0
   6   6  -6 40.8825 181.268   4
   6   6  -5 72.7224 156.576   3
   6   6  -5-7.61954 162.320   1
   6   6  -5 84.3083 182.184   4
  -6   6   5 138.451 188.851   0
   6   6  -4 160.852 179.928   1
   6   6  -4 253.727 158.989   2
   6   6  -4 15.9585 195.737   4
   6   6  -3 58.2915 179.960   1
   6   6  -3-9.58136 174.765   2
  -6   6   3-118.141 217.783   1
   6   6  -3 213.482 182.538   4
   6   6  -2 16.9527 196.780   1
   6   6  -2-3.66849 188.493   2
  -6   6   2-1.28223 245.643   1
   6   6  -2-160.466 182.678   4
   6   6  -1 14.6858 212.572   1
   6   6  -1 25.2077 189.913   2
   6   6   0 127.233 200.070   1
   6   6   0 31.1312 196.093   2
   6   6   1 41.3318 228.116   1
   6   6   1 83.7090 200.508   2
   6   6   2 91.8644 241.213   1
   6   6   2 36.7083 198.744   2
   6   6   3 43.4205 239.672   1
  -6   6  -3 156.273 354.134   1
   6   6   3-38.6501 212.536   2
   6   7  -8-50.7921 210.961   3
   6   7  -8 61.5341 215.269   4
   6   7  -7-31.6438 198.544   3
   6   7  -7 3.16297 213.842   4
   6   7  -6 133.236 165.168   3
  -6   7   6 31.8732 178.561   0
   6   7  -6 101.484 192.704   4
   6   7  -5-0.88752 169.915   1
  -6   7   5 109.620 197.686   0
   6   7  -5 7.52629 193.055   4
   6   7  -4-8.81625 180.105   1
  -6   7   4 100.198 199.074   0
   6   7  -4-10.8877 209.180   4
   6   7  -3 140.858 194.038   1
  -6   7   3 159.397 216.771   1
   6   7  -3 83.1206 160.042   2
   6   7  -3 79.1814 198.555   4
   6   7  -2 76.4743 198.478   1
  -6   7   2-38.1463 236.506   1
   6   7  -2 89.9660 183.699   2
   6   7  -2-26.9780 199.921   4
   6   7  -1-23.2662 210.118   1
  -6   7   1-79.5514 251.618   1
   6   7  -1-48.9542 182.655   2
   6   7   0 26.2713 216.416   1
  -6   7   0 32.5369 263.280   1
   6   7   0 108.443 179.410   2
   6   7   1-29.2692 217.136   1
  -6   7  -1 99.1352 330.446   1
   6   7   1 20.6273 209.242   2
   6   7   2-11.1866 244.947   1
  -6   7  -2 57.4412 300.914   1
   6   7   2-174.986 216.904   2
   6   7   3 11.0658 208.254   1
   6   8  -7 24.7846 199.575   3
   6   8  -7-173.137 236.324   4
   6   8  -6 88.0112 201.731   4
   6   8  -5 6.68059 178.278   1
   6   8  -5 41.1944 201.562   4
   6   8  -4 201.064 172.507   1
   6   8  -4-96.8411 205.092   4
  -6   8   4 108.265 208.397   0
   6   8  -3 41.7570 205.661   1
  -6   8   3-31.5648 216.067   1
   6   8  -3 38.0689 225.291   4
   6   8  -2-116.364 203.021   1
  -6   8   2 92.5360 234.436   1
   6   8  -1 27.3752 227.622   1
  -6   8   1 74.9738 246.546   1
   6   8  -1 4.66968 186.718   2
   6   8   0 45.0780 238.552   1
  -6   8   0 60.6098 300.150   1
   6   8   0 60.7085 191.217   2
   6   8   1 69.0911 206.451   1
  -6   8  -1-117.057 312.281   1
   6   8   1 35.3257 212.895   2
   6   8   2 12.9312 239.459   1
   6   9  -5-146.746 174.511   1
   6   9  -5-33.8129 227.757   4
   6   9  -4-54.5538 215.817   1
   6   9  -4-142.760 266.543   4
   6   9  -3-89.2752 216.623   1
  -6   9   3-92.6382 206.661   1
   6   9  -3 53.0115 265.549   4
   6   9  -2 19.4337 224.873   1
  -6   9   2-15.1769 239.800   1
   6   9  -1-93.4955 230.123   1
  -6   9   1-35.1306 275.662   1
   6   9   0 12.2353 191.233   2
   7  -9  -2-31.5641 230.963   3
   7  -8  -3 11.1650 234.413   3
   7  -8  -2-32.5504 245.153   3
   7  -8  -1-31.1525 250.039   3
   7  -7  -5-17.2386 194.961   0
   7  -7  -5-139.444 190.861   3
   7  -7  -4 55.0936 184.489   0
   7  -7  -4 30.2846 208.811   3
   7  -7  -3-6.28489 184.832   0
   7  -7  -3-53.3422 226.733   3
   7  -7  -2 12.2047 187.874   0
   7  -7  -2-52.3989 237.170   3
   7  -7  -1 177.650 254.509   3
   7  -7   0 262.189 271.921   3
   7  -7   1-189.098 276.632   3
   7  -6  -6 41.4092 170.793   3
   7  -6  -5-28.0247 166.105   0
   7  -6  -5-16.4669 199.142   3
   7  -6  -4 114.704 191.979   0
   7  -6  -4-58.1685 221.581   3
   7  -6  -3 64.8835 190.876   0
   7  -6  -3 151.623 232.932   3
   7  -6  -2 9.53966 247.786   3
   7  -6  -2 54.0557 205.099   0
   7  -6  -1-84.1480 250.139   3
   7  -6  -1-71.1688 196.595   0
   7  -6   0 114.400 251.013   3
   7  -6   0 205.406 202.640   0
   7  -6   1 133.174 272.636   3
   7  -5  -7 59.8264 151.271   3
   7  -5  -6-57.7669 186.210   3
   7  -5  -5 140.308 170.032   0
   7  -5  -5 224.555 207.252   3
   7  -5  -4 54.5005 188.262   0
   7  -5  -4 16.0256 231.097   3
   7  -5  -3 119.185 242.813   3
   7  -5  -3 75.9586 186.325   0
   7  -5  -2 165.296 261.909   3
   7  -5  -2 69.1481 188.029   0
   7  -5  -1 184.235 247.669   3
   7  -5  -1 34.2209 192.072   0
   7  -5   0-62.9179 245.869   3
   7  -5   0-27.8764 196.193   0
   7  -5   1 23.8617 238.699   3
   7  -5   1-9.67612 180.018   0
   7  -4  -8 32.5520 145.263   3
   7  -4  -7 88.3434 161.396   3
   7  -4  -6 180.776 190.080   3
   7  -4  -5-99.1224 157.415   0
   7  -4  -5 134.895 205.865   3
   7  -4  -4 123.298 165.327   0
   7  -4  -4 251.119 216.366   3
   7  -4  -3 310.980 235.517   3
   7  -4  -3 410.364 172.846   0
   7  -4  -2 144.270 240.329   3
   7  -4  -2 68.5702 176.181   0
   7  -4  -1 48.9260 242.641   3
   7  -4  -1-13.4392 176.160   0
   7  -4   0 88.7827 245.849   3
   7  -4   0 95.3976 185.320   0
   7  -4   1 85.2691 237.093   3
   7  -4   1 169.147 191.807   0
   7  -4   2-4.03224 234.328   3
   7  -4   2-20.8925 181.690   0
   7  -3  -9-31.3385 157.741   3
   7  -3  -8 76.6853 160.374   3
   7  -3  -7 102.908 169.147   3
   7  -3  -6 49.5964 184.415   3
   7  -3  -5 602.462 141.427   0
   7  -3  -5 525.079 201.716   3
   7  -3  -4 428.955 147.973   0
   7  -3  -4 457.079 220.044   3
   7  -3  -4 345.596 164.825   2
   7  -3  -3 1.96090 231.246   3
   7  -3  -3-49.4202 154.286   0
   7  -3  -3-28.5273 144.240   2
   7  -3  -2 321.493 237.344   3
   7  -3  -2 144.887 168.917   0
   7  -3  -1 165.479 232.625   3
   7  -3  -1 152.265 171.360   0
   7  -3   0-41.5739 235.076   3
   7  -3   0-4.03213 172.798   0
   7  -3   1-182.807 217.907   3
   7  -3   1 28.9968 183.465   0
   7  -3   2-37.8817 217.825   3
   7  -3   2-44.4631 181.317   0
   7  -3   3 103.774 222.588   3
   7  -2 -11 41.9382 214.534   4
   7  -2  -9 184.847 163.226   3
   7  -2  -8 81.8589 167.200   3
   7  -2  -7 210.976 174.325   3
   7  -2  -6 478.965 182.384   3
   7  -2  -5 147.296 198.842   3
   7  -2  -5 100.550 191.574   2
   7  -2  -4 467.738 224.023   3
   7  -2  -4 474.950 142.486   0
   7  -2  -4 438.704 188.597   2
   7  -2  -3 1014.12 236.760   3
   7  -2  -3 978.515 176.839   2
   7  -2  -3 1021.83 161.622   0
   7  -2  -2 273.447 219.579   3
   7  -2  -2 248.163 149.845   0
   7  -2  -2 290.885 146.387   2
   7  -2  -1 39.2135 206.370   3
   7  -2  -1-61.8080 152.504   0
   7  -2  -1-3.86326 118.422   2
   7  -2   0 123.031 217.105   3
   7  -2   0 92.7302 166.479   0
   7  -2   1-30.7665 210.284   3
   7  -2   1 30.9896 168.361   0
   7  -2   2 35.3691 193.588   3
   7  -2   2-57.3504 174.141   0
   7  -1 -11-85.8197 201.249   4
   7  -1 -10 83.1718 171.617   3
   7  -1 -10-86.7519 191.398   4
   7  -1  -9-26.8779 170.876   3
   7  -1  -8 227.215 177.637   3
   7  -1  -7 151.628 168.573   3
   7  -1  -6 200.777 168.609   3
   7  -1  -6 255.979 208.689   2
   7  -1  -5 1225.96 205.434   3
   7  -1  -5 1280.92 195.087   2
   7  -1  -4 730.779 223.516   3
   7  -1  -4 763.689 213.727   2
   7  -1  -3 172.550 219.186   3
   7  -1  -3 56.9917 177.360   2
   7  -1  -2 298.965 217.588   3
   7  -1  -2 299.512 147.471   0
   7  -1  -2 396.138 157.197   2
   7  -1  -1 262.584 194.731   3
   7  -1  -1 325.767 152.156   2
   7  -1  -1 355.423 146.794   0
   7  -1   0-1.54887 182.256   3
   7  -1   0-19.1021 136.890   2
   7  -1   0 116.176 144.408   0
   7  -1   1-8.69928 185.823   3
   7  -1   1-77.3066 167.393   0
   7  -1   2-23.4240 168.618   0
   7  -1   3-42.1490 166.112   0
   7   0 -11 69.5876 182.092   3
   7   0 -11-170.452 212.588   4
   7   0 -10 65.9292 183.786   3
   7   0 -10 107.827 183.817   4
   7   0  -9-54.5018 183.928   3
   7   0  -9 81.7563 156.410   4
   7   0  -8-30.2042 184.761   3
   7   0  -7 409.006 179.947   3
   7   0  -7 260.233 222.500   2
   7   0  -6 642.795 180.063   3
   7   0  -6 738.148 204.055   2
   7   0  -5 75.7739 184.471   3
   7   0  -5 151.848 191.667   2
   7   0  -4 697.623 206.354   3
   7   0  -4 622.926 219.791   2
   7   0  -3 1251.27 219.497   3
   7   0  -3 1408.78 215.486   2
   7   0  -2 465.000 199.501   3
   7   0  -2 392.427 190.464   2
   7   0  -1 2.75406 175.515   3
   7   0  -1 27.4732 144.883   2
   7   0   0 193.664 165.227   3
   7   0   0 215.593 153.937   2
   7   0   0 178.630 135.592   0
   7   0   1 98.1377 135.963   2
   7   0   1 57.2141 151.849   0
   7   0   2 140.547 156.285   0
   7   0   3-25.6280 154.095   0
   7   1 -11 157.455 190.975   3
   7   1 -11 4.79232 215.522   4
   7   1 -10-20.0183 196.338   3
   7   1 -10 105.533 198.442   4
   7   1  -9 12.6386 179.876   3
   7   1  -9 75.1784 166.582   4
   7   1  -8 243.438 187.960   3
   7   1  -7 93.7666 179.963   3
   7   1  -7 78.9321 198.397   2
   7   1  -6 248.141 172.708   3
   7   1  -6 386.403 189.474   2
   7   1  -5 1099.29 186.388   3
   7   1  -5 1251.28 210.478   2
   7   1  -4 644.390 180.227   3
   7   1  -4 717.000 213.089   2
   7   1  -3 120.293 180.180   3
   7   1  -3 96.5463 196.682   2
   7   1  -2 431.378 165.923   3
   7   1  -2 277.808 179.534   2
   7   1  -1 395.233 148.632   3
   7   1  -1 357.715 168.874   2
   7   1   0 47.9468 168.031   2
   7   1   1 41.7621 162.548   2
   7   1   2 87.9201 150.648   2
   7   1   2-27.3365 142.445   0
   7   1   3 2.02315 160.605   0
   7   2 -11 32.2615 200.396   4
   7   2 -10 24.1408 204.937   3
   7   2 -10 27.2164 186.125   4
   7   2  -9-67.2566 187.817   3
   7   2  -9-73.5188 169.832   4
   7   2  -8 48.4240 183.421   3
   7   2  -8 117.423 152.227   4
   7   2  -7 190.826 182.362   3
   7   2  -7 225.789 188.147   2
   7   2  -6 527.085 175.250   3
   7   2  -6 431.909 191.461   2
   7   2  -5 59.0293 152.304   1
   7   2  -5 39.4152 156.542   3
   7   2  -5 103.446 188.228   2
   7   2  -4 391.362 181.519   1
   7   2  -4 328.679 159.882   3
   7   2  -4 320.578 200.592   2
   7   2  -3 830.135 225.214   1
   7   2  -3 857.794 159.816   3
   7   2  -3 1128.14 214.334   2
   7   2  -2 23.5588 238.344   1
   7   2  -2 244.976 130.442   3
   7   2  -2 270.207 194.302   2
   7   2  -1 100.992 179.336   2
   7   2   0 120.991 177.857   2
   7   2   1 3.81425 178.141   2
   7   2   2-12.1000 169.852   2
   7   2   3 92.1618 182.874   2
   7   3 -10 59.5732 212.578   3
   7   3 -10-73.0527 205.045   4
   7   3  -9 62.8386 197.546   3
   7   3  -9 117.075 164.447   4
   7   3  -8 121.527 184.346   3
   7   3  -8 157.242 183.858   2
   7   3  -8 190.871 148.026   4
   7   3  -7 30.3297 180.860   3
   7   3  -7 111.760 188.390   2
   7   3  -7 154.280 142.063   4
  -7   3   6 135.758 144.850   0
   7   3  -6 244.884 170.059   3
   7   3  -6 55.6168 179.158   2
   7   3  -5 566.477 158.096   1
   7   3  -5 545.625 158.341   3
  -7   3   5 548.794 145.807   0
   7   3  -5 513.387 189.961   2
   7   3  -4 339.157 174.845   1
   7   3  -4 410.227 145.600   3
   7   3  -4 326.421 180.926   2
   7   3  -3 168.563 202.660   1
   7   3  -3-4.79043 112.962   3
   7   3  -3-36.6677 194.377   2
   7   3  -2 165.389 216.151   1
   7   3  -2 96.1794 183.220   2
   7   3  -1 290.303 247.474   1
   7   3  -1 239.149 180.763   2
   7   3   0-65.5518 245.998   1
   7   3   0 38.8165 187.050   2
   7   3   1 34.9378 182.900   2
   7   3   2 25.9010 169.977   2
   7   3   3-115.676 181.316   2
   7   3   4-242.551 185.946   2
   7   4 -10-13.0248 215.733   3
   7   4 -10 28.5458 181.151   4
   7   4  -9-49.9902 206.868   3
   7   4  -9-181.845 174.803   4
   7   4  -8 48.0149 189.727   3
   7   4  -8-36.7103 158.017   4
  -7   4   8 5.99388 163.962   0
   7   4  -7 186.827 183.738   3
  -7   4   7 435.303 168.914   0
   7   4  -7 89.9680 178.576   2
   7   4  -7 84.6869 149.475   4
   7   4  -6 145.505 170.292   3
  -7   4   6 188.505 160.571   0
   7   4  -6 105.450 184.068   2
   7   4  -5 38.0434 162.256   1
   7   4  -5 14.7464 150.731   3
  -7   4   5 5.68013 163.639   0
   7   4  -5 109.868 175.441   2
   7   4  -4 186.003 176.895   1
   7   4  -4 293.155 140.078   3
   7   4  -4 220.616 173.614   2
   7   4  -3 394.395 204.787   1
   7   4  -3 417.688 200.398   2
   7   4  -2-9.89376 218.764   1
   7   4  -2 181.903 182.377   2
   7   4  -1 142.158 248.441   1
   7   4  -1 37.0383 197.546   2
   7   4   0-4.50521 232.546   1
   7   4   0 65.8425 179.610   2
   7   4   1-62.7335 235.182   1
   7   4   1 1.69220 194.923   2
   7   4   2-89.0986 182.990   2
   7   4   3-62.1794 198.765   2
   7   5  -9 58.6160 220.132   3
   7   5  -9 46.8938 200.960   4
   7   5  -8-14.8492 202.179   3
   7   5  -8 86.9063 178.283   4
  -7   5   8-40.8551 169.293   0
   7   5  -7 11.8151 176.141   3
  -7   5   7 42.4261 162.154   0
   7   5  -7-0.32814 170.145   4
   7   5  -6 16.3923 169.670   3
  -7   5   6-92.2252 171.647   0
   7   5  -6-9.81575 164.384   2
   7   5  -6-21.1668 155.038   4
   7   5  -5 197.984 160.356   1
   7   5  -5 176.356 157.508   3
  -7   5   5 103.964 180.553   0
   7   5  -5 130.487 187.988   2
   7   5  -4 182.537 197.552   1
   7   5  -4-71.4779 191.264   2
   7   5  -3-127.231 197.127   1
   7   5  -3 54.8153 197.413   2
   7   5  -2 115.077 225.076   1
   7   5  -2 108.450 192.172   2
   7   5  -1-2.05639 222.588   1
   7   5  -1 52.2590 199.574   2
   7   5   0 117.747 229.042   1
   7   5   0 87.4364 190.521   2
   7   5   1-129.626 231.346   1
   7   5   1-159.255 186.688   2
   7   5   2-95.5888 270.404   1
   7   5   2 59.0762 215.191   2
   7   6  -9 48.6273 206.341   3
   7   6  -9 36.9106 218.147   4
   7   6  -8 0.00000 207.838   3
   7   6  -8 90.4705 209.742   4
   7   6  -7-7.66706 181.287   3
  -7   6   7 135.237 175.461   0
   7   6  -7-114.541 176.980   4
   7   6  -6 33.8688 159.533   3
  -7   6   6-12.1431 189.646   0
   7   6  -6 13.1982 168.498   4
   7   6  -5-91.7426 178.615   1
   7   6  -5 66.9050 168.033   2
  -7   6   5 53.5174 183.228   0
   7   6  -5 105.506 176.582   4
   7   6  -4-8.51864 193.398   1
   7   6  -4 156.281 174.322   2
   7   6  -3 103.252 213.860   1
   7   6  -3 46.7863 186.553   2
  -7   6   3 76.2043 221.012   1
   7   6  -2 235.144 223.806   1
   7   6  -2 88.8493 200.649   2
   7   6  -1-6.96339 221.830   1
   7   6  -1 31.3380 189.336   2
   7   6   0-178.905 250.316   1
   7   6   0 72.0525 184.147   2
   7   6   1 0.83941 244.819   1
   7   6   1 8.77370 202.121   2
   7   6   2-144.763 269.206   1
   7   6   2 30.1569 211.987   2
   7   7  -8-60.4761 196.163   3
   7   7  -8-2.17653 211.290   4
   7   7  -7 1.49048 189.303   3
   7   7  -7 122.420 208.914   4
   7   7  -6-76.3088 207.923   4
   7   7  -5-17.0444 163.959   1
  -7   7   5 77.2326 194.343   0
   7   7  -5 196.049 200.502   4
   7   7  -4-34.0747 184.750   1
   7   7  -3-98.4421 201.805   1
   7   7  -3 83.6178 180.536   2
  -7   7   3 23.5028 236.499   1
   7   7  -2 79.8305 206.087   1
   7   7  -2 36.1345 192.272   2
  -7   7   2-175.303 242.814   1
   7   7  -1-71.4343 233.660   1
   7   7  -1-16.1774 204.233   2
  -7   7   1 25.2341 306.173   1
   7   7   0 63.5078 226.458   1
   7   7   0 6.17096 210.167   2
  -7   7   0 44.4731 310.179   1
   7   7   1-127.814 257.807   1
  -7   7  -1-27.8189 307.950   1
   7   7   1-35.3851 206.508   2
   7   8  -7 28.7446 224.732   4
   7   8  -6 9.69293 201.741   4
   7   8  -5 73.9997 198.879   1
   7   8  -5-175.088 232.633   4
   7   8  -4-162.096 200.126   1
   7   8  -4 63.0195 232.040   4
   7   8  -3 79.0349 236.529   1
  -7   8   3-90.7458 260.652   1
   7   8  -2-27.3395 228.320   1
  -7   8   2 14.9653 245.882   1
   7   8  -2-28.7012 198.283   2
   7   8  -1 10.1960 243.901   1
  -7   8   1 23.4744 314.275   1
   7   8  -1 165.136 209.730   2
   7   8   0 50.6599 200.552   2
   7   9  -4-118.896 241.119   4
  -7   9   3-83.0665 209.190   1
   8  -8  -4-52.4230 236.128   3
   8  -8  -3 10.3323 240.577   3
   8  -7  -5 86.5705 233.149   3
   8  -7  -4-172.241 243.505   3
   8  -7  -3 25.1516 254.768   3
   8  -7  -2 11.2033 246.165   3
   8  -7  -1 145.664 264.410   3
   8  -6  -6 133.264 200.376   3
   8  -6  -6-8.42365 174.518   0
   8  -6  -5-20.6016 185.141   0
   8  -6  -5 44.3423 227.693   3
   8  -6  -4 87.0592 193.271   0
   8  -6  -4-20.2444 233.815   3
   8  -6  -3 31.8573 182.920   0
   8  -6  -3-124.037 246.254   3
   8  -6  -2-177.380 255.679   3
   8  -6  -1-201.541 263.414   3
   8  -6   0 4.65058 261.426   3
   8  -5  -7 53.4229 184.598   3
   8  -5  -6 86.9752 204.724   3
   8  -5  -6 29.8608 151.560   0
   8  -5  -5 52.2239 157.917   0
   8  -5  -5 16.4607 220.791   3
   8  -5  -4 122.304 180.045   0
   8  -5  -4 64.0056 234.455   3
   8  -5  -3-73.0685 231.378   3
   8  -5  -3 54.1770 176.769   0
   8  -5  -2-94.9858 243.410   3
   8  -5  -2 57.6053 183.983   0
   8  -5  -1-44.3080 243.485   3
   8  -5  -1-1.48109 188.299   0
   8  -5   0 18.9450 258.176   3
   8  -5   1-59.9899 244.262   3
   8  -4  -8-26.7397 171.904   3
   8  -4  -7 101.226 182.907   3
   8  -4  -6 194.659 210.099   3
   8  -4  -6 147.559 149.513   0
   8  -4  -5 63.1628 153.552   0
   8  -4  -5 7.80821 227.715   3
   8  -4  -4 99.4591 173.093   0
   8  -4  -4-12.7522 235.658   3
   8  -4  -3 118.342 244.011   3
   8  -4  -3 43.9770 175.344   0
   8  -4  -2 122.098 234.109   3
   8  -4  -2 105.506 186.612   0
   8  -4  -1 29.4160 234.350   3
   8  -4  -1-113.363 181.309   0
   8  -4   0 71.9994 233.101   3
   8  -4   0-129.877 185.841   0
   8  -4   1-289.851 243.872   3
   8  -4   2 1.39673 245.263   3
   8  -3  -9-126.108 183.103   3
   8  -3  -8 16.2613 178.657   3
   8  -3  -7 144.817 183.230   3
   8  -3  -6-19.1190 205.914   3
   8  -3  -5 136.302 223.170   3
   8  -3  -5 40.6574 192.662   2
   8  -3  -4 291.750 238.667   3
   8  -3  -4 176.451 154.716   0
   8  -3  -4 137.426 175.810   2
   8  -3  -3 206.842 238.070   3
   8  -3  -3 178.729 160.232   0
   8  -3  -3 90.7199 148.349   2
   8  -3  -2-5.31892 233.885   3
   8  -3  -2 94.9511 177.722   0
   8  -3  -1-115.345 225.136   3
   8  -3  -1 111.711 163.144   0
   8  -3   0 116.484 216.542   3
   8  -3   0-32.9177 163.803   0
   8  -3   1-200.872 218.403   3
   8  -3   1 81.9001 175.748   0
   8  -3   2-25.7571 228.489   3
   8  -2 -10 64.9657 178.326   3
   8  -2  -9-64.4056 173.194   3
   8  -2  -8-149.003 175.520   3
   8  -2  -7 13.5368 193.248   3
   8  -2  -6 277.522 201.170   3
   8  -2  -6 146.742 209.117   2
   8  -2  -5 280.264 224.678   3
   8  -2  -5 187.062 201.959   2
   8  -2  -4 7.73839 220.807   3
   8  -2  -4 0.25999 175.563   2
   8  -2  -3 85.9689 234.428   3
   8  -2  -3 133.532 163.618   2
   8  -2  -2 209.743 223.721   3
   8  -2  -2 283.724 153.231   0
   8  -2  -2 118.189 156.761   2
   8  -2  -1 14.0528 218.741   3
   8  -2  -1 14.4986 163.034   0
   8  -2   0-6.80787 192.269   3
   8  -2   0-13.6683 151.563   0
   8  -2   1 35.7900 198.659   3
   8  -2   1 62.3640 161.297   0
   8  -1 -11-4.25644 182.134   3
   8  -1 -10-50.8696 193.962   3
   8  -1  -9 5.85091 180.528   3
   8  -1  -8 64.3320 182.481   3
   8  -1  -7 176.825 190.616   3
   8  -1  -7 341.035 233.669   2
   8  -1  -6 145.548 190.569   3
   8  -1  -6 192.050 192.659   2
   8  -1  -5 3.80020 202.378   3
   8  -1  -5 65.4574 199.834   2
   8  -1  -4 468.333 215.684   3
   8  -1  -4 467.732 182.844   2
   8  -1  -3 252.661 210.090   3
   8  -1  -3 108.133 178.368   2
   8  -1  -2-53.7446 208.949   3
   8  -1  -2-56.2849 167.322   2
   8  -1  -1 100.093 194.060   3
   8  -1  -1 65.4733 154.003   2
   8  -1   0 132.986 183.980   3
   8  -1   0 42.7004 150.077   0
   8  -1   1 15.4673 145.048   0
   8  -1   2-90.7720 156.692   0
   8   0 -11 84.0284 204.647   3
   8   0 -10 22.5490 196.670   3
   8   0  -9 69.0184 193.023   3
   8   0  -8 65.4434 188.756   3
   8   0  -7 47.4668 185.435   3
   8   0  -7-9.00179 224.146   2
   8   0  -6 325.636 196.944   3
   8   0  -6 302.116 203.982   2
   8   0  -5 413.255 191.167   3
   8   0  -5 344.192 193.159   2
   8   0  -4-61.9908 193.725   3
   8   0  -4 76.5940 184.113   2
   8   0  -3 301.235 187.167   3
   8   0  -3 297.444 187.934   2
   8   0  -2 267.109 195.633   3
   8   0  -2 455.677 186.441   2
   8   0  -1-13.3381 177.473   3
   8   0  -1 63.4397 171.251   2
   8   0   0-60.4511 145.938   2
   8   1 -10 24.8498 197.401   3
   8   1  -9-119.234 194.470   3
   8   1  -8 28.4244 187.773   3
   8   1  -8 97.6873 219.363   2
   8   1  -7 284.168 189.570   3
   8   1  -7 305.904 219.670   2
   8   1  -6 136.331 179.521   3
   8   1  -6 123.803 191.834   2
   8   1  -5 80.5663 167.958   3
   8   1  -5 122.652 187.839   2
   8   1  -4 465.822 175.975   3
   8   1  -4 613.301 185.501   2
   8   1  -3 184.189 171.315   3
   8   1  -3 160.156 197.384   2
   8   1  -2 11.2436 161.346   3
   8   1  -2 29.8055 183.808   2
   8   1  -1 168.987 182.518   2
   8   1   0-72.8008 162.241   2
   8   1   1 4.79295 157.352   2
   8   2 -10 99.6825 221.008   3
   8   2  -9 63.5638 201.327   3
   8   2  -8 27.4517 187.696   3
   8   2  -8 16.1295 201.267   2
   8   2  -7 51.1454 181.642   3
   8   2  -7 89.6610 209.058   2
   8   2  -6 91.0624 186.000   3
   8   2  -6 189.817 191.335   2
   8   2  -5 261.729 166.852   3
   8   2  -5 268.631 212.221   2
   8   2  -5 219.118 180.443   1
   8   2  -4-12.8418 158.042   3
   8   2  -4-56.1627 207.152   2
   8   2  -4-32.3430 213.753   1
   8   2  -3 173.285 150.441   3
   8   2  -3 143.044 199.356   2
   8   2  -2 139.363 200.432   2
   8   2  -1 116.258 190.091   2
   8   2   0 9.62453 180.554   2
   8   2   1 147.247 162.873   2
   8   2   2-91.2092 177.342   2
   8   3 -10 152.973 219.183   3
   8   3  -9 48.3091 205.156   3
   8   3  -8-46.1443 182.337   3
   8   3  -8 20.6805 194.776   2
   8   3  -7 111.446 182.433   3
   8   3  -7 232.345 185.067   2
   8   3  -6-47.7430 175.500   3
   8   3  -6-49.7953 208.594   2
   8   3  -5 135.317 176.021   1
   8   3  -5 61.4841 161.544   3
   8   3  -5 56.8799 187.431   2
   8   3  -4 332.867 205.287   1
   8   3  -4 151.978 154.661   3
   8   3  -4 263.211 202.713   2
   8   3  -3 156.976 222.221   1
   8   3  -3 27.0717 205.825   2
   8   3  -2 115.163 238.890   1
   8   3  -2-60.0025 181.089   2
   8   3  -1 47.3487 191.005   2
   8   3   0-31.1593 185.886   2
   8   3   1-91.4116 179.316   2
   8   3   2-77.4924 181.547   2
   8   4 -10 30.0446 169.439   4
   8   4  -9-45.0766 209.252   3
   8   4  -8-64.8845 190.321   3
   8   4  -8 106.950 174.649   2
   8   4  -7-66.9736 175.360   3
   8   4  -7-61.1347 175.129   2
   8   4  -6 62.6828 168.074   3
   8   4  -6 32.6281 198.719   2
  -8   4   6 27.3073 157.721   0
   8   4  -5 121.732 189.890   1
   8   4  -5-13.0554 159.046   3
   8   4  -5 152.405 190.575   2
   8   4  -4 72.9899 201.682   1
   8   4  -4 6.00856 196.632   2
   8   4  -3 42.4551 218.311   1
   8   4  -3 61.3360 196.631   2
   8   4  -2 46.6828 246.640   1
   8   4  -2 63.9536 200.206   2
   8   4  -1 13.6697 256.724   1
   8   4  -1-71.3063 191.602   2
   8   4   0 19.5560 179.000   2
   8   4   0-33.0715 273.729   1
   8   4   1-35.3191 189.426   2
   8   4   2-248.100 190.374   2
   8   5  -9 2.08949 205.478   3
   8   5  -8 11.0887 195.846   3
   8   5  -7-57.8814 181.445   3
   8   5  -7 3.31075 163.649   2
  -8   5   7 45.5644 173.019   0
   8   5  -6-32.0774 162.613   3
   8   5  -6-101.713 177.983   2
  -8   5   6 14.5575 168.181   0
   8   5  -5 26.7530 173.775   1
   8   5  -5-34.4719 193.165   2
   8   5  -4-88.3448 211.427   1
   8   5  -4 75.7907 188.371   2
   8   5  -3 11.4524 223.295   1
   8   5  -3 95.5816 202.392   2
   8   5  -2 65.6775 243.044   1
   8   5  -2 124.426 196.263   2
   8   5  -1-185.223 267.115   1
   8   5  -1-83.8695 198.035   2
   8   5   0-28.2977 251.208   1
   8   5   0-47.7654 197.716   2
   8   5   1-307.569 195.966   2
   8   5   1 87.3570 275.399   1
   8   6  -8-68.4991 203.846   3
   8   6  -7 38.1068 182.828   3
  -8   6   6 5.56791 192.758   0
   8   6  -5-59.5629 191.414   1
   8   6  -5 2.22014 179.410   2
  -8   6   5 34.6494 182.419   0
   8   6  -4 14.2605 210.747   1
   8   6  -4 21.1199 187.009   2
   8   6  -3 288.689 242.256   1
   8   6  -3 135.956 192.219   2
   8   6  -2-34.8381 231.904   1
   8   6  -2 31.2441 196.725   2
   8   6  -1 286.978 268.206   1
   8   6  -1-40.0283 217.349   2
   8   6   0 78.8560 261.450   1
   8   6   0 2.51712 192.634   2
   8   7  -5-22.7823 188.810   1
   8   7  -4 144.104 221.976   1
   8   7  -4-171.572 191.502   2
   8   7  -3 104.896 216.760   1
   8   7  -3 67.9985 198.781   2
  -8   7   3-19.9557 275.067   1
   8   7  -2 63.6948 263.079   1
   8   7  -2-36.0335 201.291   2
  -8   7   2 148.359 277.689   1
   8   7  -1 136.401 270.312   1
   8   7  -1-18.8951 214.406   2
  -8   7   1-174.538 287.792   1
   8   8  -5-17.0595 211.160   1
   8   8  -4 18.0694 197.272   1
   8   8  -3-85.2686 203.818   2
  -8   8   3 111.954 269.579   1
   9  -7  -6 33.7809 208.071   3
   9  -7  -5 30.8817 238.150   3
   9  -6  -7 4.21851 206.341   3
   9  -6  -6 32.5159 216.672   3
   9  -6  -5-16.8162 243.770   3
   9  -6  -4 29.0807 242.584   3
   9  -6  -3 85.0666 259.344   3
   9  -6  -2-163.537 270.159   3
   9  -5  -8-75.7694 190.735   3
   9  -5  -7-93.4116 220.970   3
   9  -5  -6-19.3830 230.281   3
   9  -5  -5 29.5236 175.231   0
   9  -5  -5 123.202 247.044   3
   9  -5  -4 118.382 179.276   0
   9  -5  -4-5.68737 246.373   3
   9  -5  -3 8.42443 248.795   3
   9  -5  -3-85.1720 192.035   0
   9  -5  -2 99.2475 258.005   3
   9  -5  -1 26.1721 240.812   3
   9  -4  -9-113.027 174.462   3
   9  -4  -8-59.4892 195.364   3
   9  -4  -7-16.7985 222.425   3
   9  -4  -6 33.9662 213.410   3
   9  -4  -5-170.815 244.636   3
   9  -4  -4 76.5095 237.564   3
   9  -4  -4-4.71281 164.810   0
   9  -4  -3 108.385 235.362   3
   9  -4  -3 56.6591 172.718   0
   9  -4  -2 127.763 236.049   3
   9  -4  -2 5.82008 171.479   0
   9  -4  -1-136.029 235.286   3
   9  -4   0-155.076 228.458   3
   9  -3 -10-10.0704 188.246   3
   9  -3  -9-59.1891 188.620   3
   9  -3  -8-25.1068 200.863   3
   9  -3  -7-28.8628 207.291   3
   9  -3  -6 95.6788 214.616   3
   9  -3  -5-11.0966 228.848   3
   9  -3  -5 28.7829 176.393   2
   9  -3  -4-42.2630 232.217   3
   9  -3  -4 72.6996 154.836   2
   9  -3  -3-40.3518 220.512   3
   9  -3  -2-98.9669 221.196   3
   9  -3  -2 23.6487 161.232   0
   9  -3  -1-20.2113 227.542   3
   9  -3  -1-15.9042 169.137   0
   9  -3   0 140.481 211.869   3
   9  -3   1-154.162 206.531   3
   9  -2 -10-28.0868 194.525   3
   9  -2  -9 17.2937 206.280   3
   9  -2  -8 133.587 188.782   3
   9  -2  -7 75.0259 199.450   3
   9  -2  -6-73.5926 207.900   3
   9  -2  -6 6.99315 208.892   2
   9  -2  -5 7.22182 220.042   3
   9  -2  -5-103.152 190.932   2
   9  -2  -4 86.6806 218.894   3
   9  -2  -4 31.8197 177.153   2
   9  -2  -3 16.9517 221.845   3
   9  -2  -3-41.4173 155.926   2
   9  -2  -2 13.2938 206.890   3
   9  -2  -1 38.1971 199.081   3
   9  -2   0 53.3687 204.287   3
   9  -1 -10 14.2019 210.949   3
   9  -1  -9-71.2749 208.844   3
   9  -1  -8-25.8642 189.065   3
   9  -1  -7-22.5995 194.372   3
   9  -1  -7 148.169 213.239   2
   9  -1  -6-3.69356 204.907   3
   9  -1  -6 226.896 206.556   2
   9  -1  -5 11.5995 208.397   3
   9  -1  -5-57.2043 183.003   2
   9  -1  -4-5.72312 216.424   3
   9  -1  -4 78.4817 191.203   2
   9  -1  -3 69.1559 208.718   3
   9  -1  -3-215.185 171.350   2
   9  -1  -2-115.680 207.886   3
   9  -1  -2 82.5130 155.272   2
   9  -1  -1 49.5767 182.869   3
   9   0 -10 136.125 213.167   3
   9   0  -9 68.6882 207.395   3
   9   0  -8 111.373 199.192   3
   9   0  -8 217.351 241.301   2
   9   0  -7 67.9341 168.542   3
   9   0  -7-10.7508 211.316   2
   9   0  -6 52.5266 192.922   3
   9   0  -6 0.00000 203.906   2
   9   0  -5-18.1966 188.384   3
   9   0  -5 163.484 208.240   2
   9   0  -4 79.7934 199.765   3
   9   0  -4 139.901 192.776   2
   9   0  -3-19.5214 190.903   3
   9   0  -3-5.45927 194.839   2
   9   0  -2 28.5395 182.676   3
   9   0  -2 18.3382 178.135   2
   9   0  -1 39.5558 154.825   2
   9   1 -10 7.33734 204.213   3
   9   1  -9 15.6474 211.040   3
   9   1  -8-55.6686 188.666   3
   9   1  -8-29.8549 223.336   2
   9   1  -7 103.066 189.777   3
   9   1  -7 19.5062 203.804   2
   9   1  -6 79.7690 171.626   3
   9   1  -6 87.9482 218.737   2
   9   1  -5-48.0610 180.976   3
   9   1  -5 105.731 206.079   2
   9   1  -4 74.7870 174.370   3
   9   1  -4-43.7498 200.553   2
   9   1  -3 80.5996 173.734   3
   9   1  -3-2.66766 200.821   2
   9   1  -2 25.8400 178.866   2
   9   1  -1 44.8826 178.985   2
   9   1   0 20.6241 164.417   2
   9   1   1 65.2360 166.251   2
   9   2  -9-42.8542 206.397   3
   9   2  -8 103.489 202.575   3
   9   2  -8 158.372 208.450   2
   9   2  -7 23.2758 187.028   3
   9   2  -7-33.8565 209.003   2
   9   2  -6 8.14548 177.643   3
   9   2  -6-4.90382 215.293   2
   9   2  -5 38.4357 153.815   3
   9   2  -5 77.3514 199.623   2
   9   2  -4-27.2818 160.989   3
   9   2  -4-12.5323 206.937   2
   9   2  -3-25.0334 199.797   2
   9   2  -2 118.533 187.859   2
   9   2  -1-14.7890 187.250   2
   9   2   0-79.9176 176.154   2
   9   2   1-5.77919 183.128   2
   9   3  -9 39.2446 208.944   3
   9   3  -9-0.38794 214.464   2
   9   3  -8-88.9607 191.079   3
   9   3  -8-53.4287 206.661   2
   9   3  -7-15.4693 189.825   3
   9   3  -7 61.4741 197.362   2
   9   3  -6 8.88564 166.922   3
   9   3  -6 89.3489 205.390   2
   9   3  -5 36.0479 158.835   3
   9   3  -5-23.9904 206.066   2
   9   3  -5 36.3326 192.555   1
   9   3  -4-52.8391 202.599   2
   9   3  -4 2.05840 218.417   1
   9   3  -3 111.890 206.400   2
   9   3  -2 45.6153 210.404   2
   9   3  -1-49.4815 202.152   2
   9   3   0-318.047 195.798   2
   9   3   1-8.98825 189.051   2
   9   4  -9 78.1357 200.116   3
   9   4  -9 48.6455 209.879   2
   9   4  -8-99.9190 192.421   3
   9   4  -8 33.7522 207.800   2
   9   4  -7-15.8177 179.965   3
   9   4  -7-39.7793 197.690   2
   9   4  -6 3.11017 165.099   3
   9   4  -6 59.6900 213.202   2
   9   4  -5 104.993 191.627   1
   9   4  -5 82.2073 201.980   2
   9   4  -4 605.516 215.901   1
   9   4  -4 181.422 196.599   2
   9   4  -3 62.0844 243.639   1
   9   4  -3-43.8414 211.552   2
   9   4  -2 82.2486 245.558   1
   9   4  -2 25.3706 198.246   2
   9   4  -1 219.516 213.144   2
   9   4   0-29.5784 194.096   2
   9   5  -8-145.522 194.394   3
   9   5  -7 129.159 180.550   3
   9   5  -7-25.4325 202.263   2
   9   5  -6-93.3513 202.538   2
   9   5  -5 300.408 225.725   1
   9   5  -5 51.2843 215.580   2
   9   5  -4-119.402 222.140   1
   9   5  -4-205.264 209.329   2
   9   5  -3 32.1944 236.986   1
   9   5  -3 20.6302 225.938   2
   9   5  -2-137.239 287.157   1
   9   5  -2 202.346 203.602   2
   9   5  -1 7.89075 278.398   1
   9   5  -1-163.526 199.042   2
   9   6  -6-11.7543 213.516   2
   9   6  -5-177.415 231.553   1
   9   6  -5 80.1285 211.330   2
   9   6  -4-33.8606 253.580   1
   9   6  -4-37.3220 212.628   2
   9   6  -3 108.801 264.291   1
   9   6  -3-11.2386 210.483   2
   9   6  -2 54.3481 270.556   1
   9   6  -2-101.446 218.808   2
   9   7  -5-143.702 233.915   1
   9   7  -5 47.7805 203.445   2
   9   7  -4-56.1922 200.039   2
  -9   7   3-109.519 250.196   1
  10  -5  -6-182.421 238.445   3
  10  -5  -5-27.0969 254.425   3
  10  -4  -7-40.8530 226.273   3
  10  -4  -6 92.2832 250.504   3
  10  -4  -5-58.4772 267.150   3
  10  -4  -4-38.2196 254.262   3
  10  -4  -3 31.8177 236.658   3
  10  -3  -8 11.6995 212.359   3
  10  -3  -7-157.623 233.915   3
  10  -3  -6 9.14154 236.454   3
  10  -3  -6-32.2405 210.503   2
  10  -3  -5-30.5441 235.890   3
  10  -3  -5-24.3594 185.464   2
  10  -3  -4 191.019 253.158   3
  10  -3  -3-1.94909 239.798   3
  10  -3  -2-141.088 229.073   3
  10  -3  -1-16.6199 214.821   3
  10  -2  -9-26.1953 222.805   3
  10  -2  -8-2.73353 223.308   3
  10  -2  -7 130.818 219.668   3
  10  -2  -7 182.058 227.961   2
  10  -2  -6 80.5641 227.687   3
  10  -2  -6 163.374 209.264   2
  10  -2  -5-49.1589 235.744   3
  10  -2  -5-19.4814 191.155   2
  10  -2  -4 41.5300 230.999   3
  10  -2  -4-3.77574 176.846   2
  10  -2  -3 21.5422 228.830   3
  10  -2  -2-103.856 231.107   3
  10  -2  -1-4.72987 204.943   3
  10  -1  -9-0.45963 222.093   3
  10  -1  -8 9.74045 197.639   3
  10  -1  -7 221.829 222.240   3
  10  -1  -7-30.6888 226.732   2
  10  -1  -6 160.242 206.668   3
  10  -1  -6 24.6524 223.864   2
  10  -1  -5 76.2347 221.581   3
  10  -1  -5 145.211 208.147   2
  10  -1  -4-7.06318 213.744   3
  10  -1  -4 87.4660 200.413   2
  10  -1  -3 47.1521 210.648   3
  10  -1  -3 65.2397 178.226   2
  10  -1  -2 909.430 221.476   3
  10   0  -9 31.6605 221.745   3
  10   0  -8 107.321 213.025   3
  10   0  -8 44.9743 243.658   2
  10   0  -7 145.124 194.165   3
  10   0  -7 37.1069 242.026   2
  10   0  -6-24.8775 205.737   3
  10   0  -6-18.7654 210.576   2
  10   0  -5-26.1522 204.908   3
  10   0  -5 29.1937 216.228   2
  10   0  -4 87.9592 194.551   3
  10   0  -4-92.4968 212.740   2
  10   0  -3-18.4124 194.060   3
  10   0  -3-6.99453 190.002   2
  10   0  -2 58.1977 190.077   2
  10   1  -9-23.2309 203.938   3
  10   1  -8-64.5833 206.008   3
  10   1  -8 5.34167 250.711   2
  10   1  -7 50.8041 205.348   3
  10   1  -7-20.9084 241.904   2
  10   1  -6 81.2616 205.419   3
  10   1  -6-10.5313 220.728   2
  10   1  -5 111.617 186.913   3
  10   1  -5 183.413 216.435   2
  10   1  -4 60.9877 178.499   3
  10   1  -4-142.704 192.856   2
  10   1  -3 202.967 211.545   2
  10   1  -2 32.1136 185.782   2
  10   1  -1-14.5700 183.489   2
  10   1   0-83.9492 172.154   2
  10   2  -8 6.77249 211.714   3
  10   2  -8 42.2607 226.701   2
  10   2  -7 0.81215 196.873   3
  10   2  -7 66.9477 224.208   2
  10   2  -6 37.3545 191.857   3
  10   2  -6 32.7261 219.358   2
  10   2  -5-465.016 167.730   3
  10   2  -5-59.4124 233.558   2
  10   2  -4-39.3768 221.032   2
  10   2  -3-33.7068 213.531   2
  10   2  -2-34.6268 205.682   2
  10   2  -1 28.7440 188.587   2
  10   3  -8-105.950 196.481   3
  10   3  -8-149.341 226.295   2
  10   3  -7-27.4659 188.080   3
  10   3  -7 69.4309 223.087   2
  10   3  -6 681.556 196.236   3
  10   3  -6 80.5339 227.640   2
  10   3  -5 55.3348 224.057   2
  10   3  -4 39.8240 215.445   2
  10   3  -3-35.9327 224.572   2
  10   3  -2-128.607 213.906   2
  10   4  -8-28.1184 179.295   3
  10   4  -8-26.3290 227.233   2
  10   4  -7 15.0401 185.652   3
  10   4  -7 95.9148 223.287   2
  10   4  -6 60.7639 223.978   2
  10   4  -5 105.177 232.396   2
  10   4  -5 7.98140 245.263   1
  10   4  -4-131.735 231.373   2
  10   4  -4 68.9405 278.821   1
  10   4  -3-173.502 207.010   2
  10   5  -6 71.5024 218.595   2
  10   5  -5-13.2948 246.398   1
  10   5  -5-98.7780 232.623   2
  10   5  -4 10.4357 243.648   1
  11  -3  -6-61.1603 207.127   2
  11  -2  -7 10.0704 225.729   2
  11  -2  -6-217.795 221.673   2
  11  -2  -5-154.376 239.810   3
  11  -2  -5-12.7719 200.527   2
  11  -1  -7 91.2826 228.550   2
  11  -1  -6-52.1151 227.421   3
  11  -1  -6 131.463 228.283   2
  11  -1  -5 77.2454 232.621   3
  11  -1  -5-13.0065 207.958   2
  11  -1  -4-105.820 232.729   3
  11  -1  -4 34.8893 206.089   2
  11  -1  -3 8.46873 194.782   3
  11   0  -7 76.4729 221.070   3
  11   0  -7-50.2265 236.116   2
  11   0  -6-37.1312 227.185   3
  11   0  -6 11.4714 222.538   2
  11   0  -5 25.3702 206.245   3
  11   0  -5-226.308 215.623   2
  11   0  -4-11.8063 205.709   3
  11   0  -4-26.8905 214.174   2
  11   0  -3 10.8047 196.181   2
  11   1  -7 104.099 205.982   3
  11   1  -6-45.5867 216.896   3
  11   1  -6-172.913 234.722   2
  11   1  -5 6.22134 200.420   3
  11   1  -5 122.878 222.264   2
  11   1  -4 6.91388 220.658   2
  11   1  -3 33.5859 212.531   2
  11   2  -7-77.9007 195.389   3
  11   2  -6-29.3362 190.928   3
;
_shelx_hkl_checksum              58054
loop_
_space_group_symop_operation_xyz
'x, y, z'
'-x, y+1/2, -z'
'-x, -y, -z'
'x, -y-1/2, z'
loop_
_atom_site_label
_atom_site_type_symbol
_atom_site_fract_x
_atom_site_fract_y
_atom_site_fract_z
_atom_site_U_iso_or_equiv
_atom_site_adp_type
_atom_site_occupancy
_atom_site_site_symmetry_order
_atom_site_calc_flag
_atom_site_refinement_flags_posn
_atom_site_refinement_flags_adp
_atom_site_refinement_flags_occupancy
I1 I 0.34981(6) 0.2500 0.64795(6) 0.12478(19) Uani 1 2 d S T P
C4 C 0.6222(6) 0.2500 0.2974(5) 0.229(6) Uiso 1 2 d DS . P
C3 C 0.9152(14) 0.1234(5) 0.7106(12) 0.244(9) Uiso 0.5 1 d D . P
H3A H 0.8110 0.0753 0.7123 0.367 Uiso 0.5 1 calc R U P
H3B H 1.0182 0.1243 0.8329 0.367 Uiso 0.5 1 calc R U P
H3C H 0.9465 0.0630 0.6313 0.367 Uiso 0.5 1 calc R U P
C1 C 0.8676(8) 0.2948(6) 0.6394(6) 0.162(5) Uiso 0.5 1 d D . P
N1 N 0.6778(6) 0.3051(5) 0.4812(4) 0.217(6) Uiso 0.5 1 d D . P
H1A H 0.6054 0.2547 0.5164 0.260 Uiso 0.5 2 calc R U P
H1B H 0.6466 0.4079 0.4707 0.260 Uiso 0.5 1 calc R U P
C6 C 0.7554(5) 0.2152(9) 0.2360(5) 0.110(3) Uiso 0.5 1 d D . P
H6A H 0.8427 0.3011 0.2709 0.165 Uiso 0.5 1 calc R U P
H6B H 0.6926 0.2038 0.1046 0.165 Uiso 0.5 1 calc R U P
H6C H 0.8189 0.1177 0.2917 0.165 Uiso 0.5 1 calc R U P
C5 C 0.4236(6) 0.2500 0.1632(9) 0.231(6) Uiso 1 2 d DS . P
H5A H 0.3545 0.2767 0.2245 0.347 Uiso 0.5 1 calc R U P
H5B H 0.3878 0.1459 0.1088 0.347 Uiso 0.5 1 calc R U P
H5C H 0.3994 0.3274 0.0689 0.347 Uiso 0.5 1 calc R U P
C2 C 0.8983(13) 0.4061(6) 0.7934(6) 0.163(5) Uiso 0.5 1 d D . P
H2A H 0.8763 0.5141 0.7488 0.245 Uiso 0.5 1 calc R U P
H2B H 1.0231 0.3961 0.8908 0.245 Uiso 0.5 1 calc R U P
H2C H 0.8152 0.3793 0.8390 0.245 Uiso 0.5 1 calc R U P
H1 H 0.9473 0.2878 0.5973 0.245 Uiso 0.5 1 d . U P
H4 H 0.6039 0.1572 0.3406 0.245 Uiso 0.5 1 d . U P
loop_
_atom_site_aniso_label
_atom_site_aniso_U_11
_atom_site_aniso_U_22
_atom_site_aniso_U_33
_atom_site_aniso_U_23
_atom_site_aniso_U_13
_atom_site_aniso_U_12
I1 0.1303(3) 0.1332(4) 0.1326(3) 0.000 0.08086(17) 0.000
loop_
_atom_type_symbol
_atom_type_description
_atom_type_scat_dispersion_real
_atom_type_scat_dispersion_imag
_atom_type_scat_source
C C 0.0033 0.0016 'International Tables Vol C Tables 4.2.6.8 and 6.1.1.4'
H H 0.0000 0.0000 'International Tables Vol C Tables 4.2.6.8 and 6.1.1.4'
N N 0.0061 0.0033 'International Tables Vol C Tables 4.2.6.8 and 6.1.1.4'
I I -0.4742 1.8119 'International Tables Vol C Tables 4.2.6.8 and 6.1.1.4'
loop_
_geom_angle_atom_site_label_1
_geom_angle_atom_site_label_2
_geom_angle_atom_site_label_3
_geom_angle
_geom_angle_site_symmetry_1
_geom_angle_site_symmetry_3
N1 C4 C6 121.9(3) . .
N1 C4 C6 121.9(3) 4_565 4_565
N1 C4 C5 117.9(5) . .
C6 C4 C5 119.6(4) . .
loop_
_geom_bond_atom_site_label_1
_geom_bond_atom_site_label_2
_geom_bond_distance
C4 N1 1.441(5)
C4 C6 1.453(6)
C4 C5 1.475(5)
C4 H4 0.8991
C3 C1 1.528(6)
C3 H3A 0.9600
C3 H3B 0.9600
C3 H3C 0.9600
C1 N1 1.487(5)
C1 C2 1.501(6)
C1 H1 0.8867
N1 H1A 0.8900
N1 H1B 0.8900
C6 H6A 0.9600
C6 H6B 0.9600
C6 H6C 0.9600
C5 H5A 0.9600
C5 H5B 0.9600
C5 H5C 0.9600
C2 H2A 0.9600
C2 H2B 0.9600
C2 H2C 0.9600
loop_
_geom_hbond_atom_site_label_D
_geom_hbond_atom_site_label_H
_geom_hbond_atom_site_label_A
_geom_hbond_distance_DH
_geom_hbond_distance_HA
_geom_hbond_distance_DA
_geom_hbond_angle_DHA
_geom_hbond_site_symmetry_A
N1 H1A I1 0.89 2.82 3.629(6) 152.5 4_565
N1 H1A I1 0.89 2.82 3.629(6) 152.5 .
N1 H1B I1 0.89 3.03 3.850(4) 153.7 3_666
