#------------------------------------------------------------------------------
#$Date: 2019-11-23 20:17:51 +0200 (Sat, 23 Nov 2019) $
#$Revision: 234813 $
#$URL: file:///home/coder/svn-repositories/cod/cif/4/34/94/4349484.cif $
#------------------------------------------------------------------------------
#
# This file is available in the Crystallography Open Database (COD),
# http://www.crystallography.net/
#
# All data on this site have been placed in the public domain by the
# contributors.
#
data_4349484
loop_
_publ_author_name
'Tang, Yuan-Yuan'
'Wang, Zhong-Xia'
'Li, Peng-Fei'
'You, Yu-Meng'
'Stroppa, Alessandro'
'Xiong, Ren-Gen'
_publ_section_title
;
 Brilliant triboluminescence in a potential organic--inorganic hybrid
 ferroelectric: (Ph3PO)2MnBr2
;
_journal_issue                   1
_journal_name_full               'Inorganic Chemistry Frontiers'
_journal_page_first              154
_journal_paper_doi               10.1039/C6QI00148C
_journal_volume                  4
_journal_year                    2017
_chemical_formula_moiety         'C36 H30 Br2 Mn O2 P2'
_chemical_formula_sum            'C36 H30 Br2 Mn O2 P2'
_chemical_formula_weight         771.28
_chemical_name_systematic        (Ph3PO)2MnBr2
_space_group_crystal_system      triclinic
_space_group_IT_number           1
_space_group_name_Hall           'P 1'
_space_group_name_H-M_alt        'P 1'
_atom_sites_solution_hydrogens   geom
_audit_creation_method           SHELXL-2014/7
_audit_update_record
;
2016-05-10 deposited with the CCDC.
2016-11-17 downloaded from the CCDC.
;
_cell_angle_alpha                65.31(6)
_cell_angle_beta                 63.75(5)
_cell_angle_gamma                89.72(7)
_cell_formula_units_Z            1
_cell_length_a                   10.013(7)
_cell_length_b                   10.253(7)
_cell_length_c                   10.564(6)
_cell_measurement_reflns_used    322
_cell_measurement_temperature    293(2)
_cell_measurement_theta_max      27.4855
_cell_measurement_theta_min      2.2405
_cell_volume                     862.0(12)
_computing_data_collection       'CrystalClear (Rigaku Inc., 2008)'
_computing_molecular_graphics    'Bruker SHELXTL'
_computing_publication_material  'Bruker SHELXTL'
_computing_structure_refinement  'SHELXL-2014/7 (Sheldrick, 2014)'
_computing_structure_solution    'SHELXL-2014/7 (Sheldrick, 2014)'
_diffrn_ambient_temperature      293(2)
_diffrn_measured_fraction_theta_full 0.985
_diffrn_measured_fraction_theta_max 0.971
_diffrn_measurement_device_type  'Rigaku Mercury CCD'
_diffrn_measurement_method       \w
_diffrn_radiation_type           MoK\a
_diffrn_radiation_wavelength     0.71073
_diffrn_reflns_av_R_equivalents  0.0340
_diffrn_reflns_av_unetI/netI     0.1344
_diffrn_reflns_Laue_measured_fraction_full 0.985
_diffrn_reflns_Laue_measured_fraction_max 0.971
_diffrn_reflns_limit_h_max       12
_diffrn_reflns_limit_h_min       -12
_diffrn_reflns_limit_k_max       12
_diffrn_reflns_limit_k_min       -13
_diffrn_reflns_limit_l_max       13
_diffrn_reflns_limit_l_min       -13
_diffrn_reflns_number            6372
_diffrn_reflns_point_group_measured_fraction_full 0.985
_diffrn_reflns_point_group_measured_fraction_max 0.971
_diffrn_reflns_theta_full        25.242
_diffrn_reflns_theta_max         27.485
_diffrn_reflns_theta_min         2.241
_diffrn_source                   'fine-focus sealed tube'
_exptl_absorpt_coefficient_mu    2.823
_exptl_absorpt_correction_T_max  0.569
_exptl_absorpt_correction_T_min  0.513
_exptl_absorpt_correction_type   multi-scan
_exptl_absorpt_process_details   'CrystalClear (Rigaku, 2005)'
_exptl_crystal_colour            green
_exptl_crystal_density_diffrn    1.486
_exptl_crystal_density_method    'not measured'
_exptl_crystal_description       block
_exptl_crystal_F_000             387
_exptl_crystal_preparation       Luminescent
_exptl_crystal_size_max          0.3
_exptl_crystal_size_mid          0.2
_exptl_crystal_size_min          0.2
_refine_diff_density_max         0.401
_refine_diff_density_min         -0.619
_refine_diff_density_rms         0.135
_refine_ls_abs_structure_details
;
 Refined as an inversion twin.
;
_refine_ls_abs_structure_Flack   0.981(19)
_refine_ls_extinction_method     none
_refine_ls_goodness_of_fit_ref   0.863
_refine_ls_hydrogen_treatment    constr
_refine_ls_matrix_type           full
_refine_ls_number_parameters     389
_refine_ls_number_reflns         5651
_refine_ls_number_restraints     383
_refine_ls_restrained_S_all      0.839
_refine_ls_R_factor_all          0.0731
_refine_ls_R_factor_gt           0.0403
_refine_ls_shift/su_max          0.000
_refine_ls_shift/su_mean         0.000
_refine_ls_structure_factor_coef Fsqd
_refine_ls_weighting_details
'w=1/[\s^2^(Fo^2^)+(0.0697P)^2^] where P=(Fo^2^+2Fc^2^)/3'
_refine_ls_weighting_scheme      calc
_refine_ls_wR_factor_gt          0.0922
_refine_ls_wR_factor_ref         0.1483
_reflns_Friedel_coverage         1.000
_reflns_Friedel_fraction_full    0.985
_reflns_Friedel_fraction_max     0.971
_reflns_number_gt                3953
_reflns_number_total             6372
_reflns_threshold_expression     'I > 2\s(I)'
_cod_data_source_file            c6qi00148c2.cif
_cod_data_source_block           1
_cod_depositor_comments
;
The following automatic conversions were performed:

data item '_exptl_absorpt_correction_type' value 'Multi-scan' was
changed to 'multi-scan' in accordance with the
/home/saulius/struct/COD-crude-data/automatic-downloads/DataCite-retrospective/RSC/depositions/lib/dictionaries/cif_core.dic
dictionary named 'cif_core.dic' version 2.4.2 last updated on
2011-04-26.

Automatic conversion script
Id: cif_fix_values 6909 2019-04-08 15:41:33Z antanas 
;
_cod_original_cell_volume        862.0(11)
_cod_database_code               4349484
_shelx_shelxl_version_number     2014/7
_shelx_space_group_comment
;
The symmetry employed for this shelxl refinement is uniquely defined
by the following loop, which should always be used as a source of
symmetry information in preference to the above space-group names.
They are only intended as comments.
;
_shelx_res_file
;

    1.res created by SHELXL-2014/7


TITL 1 in P1
CELL 0.71073  10.0131  10.2526  10.5640  65.314  63.752  89.718
ZERR    6.00   0.0070   0.0073   0.0057   0.057   0.054   0.070
LATT -1
SFAC C  H  N  O  P  Mn Br
UNIT 6 6 6 6 6 6 6
L.S. 40
ACTA
twin
BOND
FMAP 2
PLAN 20
simu
delu
WGHT    0.069700
BASF   0.98060
FVAR       0.94358
MOLE 1
MN1   6    0.867165    0.689528    0.359799    11.00000    0.03650    0.03508 =
         0.03918   -0.01584   -0.02042    0.00445
BR1   7    1.125641    0.647725    0.230853    11.00000    0.04069    0.05722 =
         0.07571   -0.03356   -0.02147    0.00987
BR2   7    0.816506    0.755763    0.573947    11.00000    0.07088    0.09455 =
         0.06655   -0.05541   -0.03423    0.02031
P2    5    0.818550    1.003613    0.106431    11.00000    0.04142    0.03233 =
         0.03703   -0.01339   -0.02141    0.00610
P1    5    0.542662    0.447990    0.482397    11.00000    0.03401    0.03633 =
         0.04109   -0.01194   -0.01907    0.00013
O1    4    0.696811    0.519913    0.438298    11.00000    0.03787    0.04124 =
         0.05173   -0.01259   -0.02264   -0.00565
C22   1    0.302501    0.948993    0.344622    11.00000    0.03814    0.06280 =
         0.06816   -0.02515   -0.01483   -0.00395
AFIX  43
H22   2    0.196477    0.931634    0.396964    11.00000   -1.20000
AFIX   0
C20   1    0.535479    0.976927    0.347489    11.00000    0.05170    0.05719 =
         0.03805   -0.01479   -0.02010    0.00305
AFIX  43
H20   2    0.587732    0.978594    0.401090    11.00000   -1.20000
AFIX   0
O2    4    0.851558    0.855089    0.176966    11.00000    0.06580    0.03078 =
         0.05496   -0.01044   -0.03889    0.01482
C7    1    0.534526    0.463084    0.309730    11.00000    0.03811    0.04666 =
         0.03829   -0.01636   -0.01689    0.00800
C1    1    0.391423    0.521518    0.588342    11.00000    0.04255    0.03967 =
         0.04231   -0.01547   -0.01931    0.00864
C18   1    0.622667    0.185842    0.594115    11.00000    0.04257    0.04476 =
         0.06434   -0.01445   -0.02373    0.00696
AFIX  43
H18   2    0.721899    0.241469    0.522660    11.00000   -1.20000
AFIX   0
C27   1    0.998673    1.022196   -0.328073    11.00000    0.07818    0.15684 =
         0.05214   -0.06472   -0.02003    0.02890
AFIX  43
H27   2    1.028866    0.953088   -0.364557    11.00000   -1.20000
AFIX   0
C19   1    0.616758    0.996126    0.193023    11.00000    0.03719    0.04188 =
         0.04545   -0.01955   -0.01626    0.00524
C31   1    0.907738    1.137456    0.131095    11.00000    0.03856    0.04155 =
         0.03543   -0.01729   -0.01157   -0.00111
C13   1    0.501468    0.253313    0.610677    11.00000    0.03945    0.03344 =
         0.03490   -0.01030   -0.01844    0.00407
C14   1    0.356242    0.171635    0.719548    11.00000    0.04095    0.03690 =
         0.06545   -0.00823   -0.02126    0.00513
AFIX  43
H14   2    0.274158    0.217459    0.733444    11.00000   -1.20000
AFIX   0
C12   1    0.462658    0.351780    0.306176    11.00000    0.05350    0.05307 =
         0.06175   -0.02531   -0.03174    0.00028
AFIX  43
H12   2    0.411264    0.262982    0.398629    11.00000   -1.20000
AFIX   0
C36   1    1.044936    1.120854    0.131874    11.00000    0.05971    0.03854 =
         0.07571   -0.02816   -0.03958    0.01485
AFIX  43
H36   2    1.084713    1.040847    0.123622    11.00000   -1.20000
AFIX   0
C15   1    0.331201    0.023719    0.807631    11.00000    0.05799    0.03994 =
         0.06834   -0.01018   -0.02229   -0.00202
AFIX  43
H15   2    0.232029   -0.032416    0.877734    11.00000   -1.20000
AFIX   0
C16   1    0.451612   -0.041544    0.792726    11.00000    0.08455    0.03382 =
         0.07405   -0.01582   -0.04762    0.00891
AFIX  43
H16   2    0.435172   -0.141505    0.858255    11.00000   -1.20000
AFIX   0
C29   1    0.979631    1.252901   -0.374965    11.00000    0.07917    0.09633 =
         0.04987    0.01434   -0.03016   -0.03178
AFIX  43
H29   2    0.996674    1.350620   -0.447516    11.00000   -1.20000
AFIX   0
C21   1    0.382908    0.956003    0.420977    11.00000    0.04550    0.07169 =
         0.04842   -0.01633   -0.01157    0.00287
AFIX  43
H21   2    0.330735    0.946146    0.523508    11.00000   -1.20000
AFIX   0
C11   1    0.465005    0.368262    0.173679    11.00000    0.07268    0.07154 =
         0.07354   -0.03482   -0.04347    0.00341
AFIX  43
H11   2    0.413454    0.291478    0.175873    11.00000   -1.20000
AFIX   0
C25   1    0.896518    1.070633   -0.104807    11.00000    0.03872    0.05107 =
         0.03773   -0.01538   -0.01881    0.00095
C24   1    0.539217    0.991170    0.111990    11.00000    0.04988    0.05220 =
         0.05419   -0.02710   -0.02635    0.00660
AFIX  43
H24   2    0.592024    1.003063    0.008661    11.00000   -1.20000
AFIX   0
C10   1    0.541251    0.495158    0.034544    11.00000    0.08990    0.09786 =
         0.07216   -0.04281   -0.05388    0.01546
AFIX  43
H10   2    0.543621    0.504361   -0.057858    11.00000   -1.20000
AFIX   0
C30   1    0.913791    1.212474   -0.203094    11.00000    0.08343    0.05495 =
         0.05413   -0.00546   -0.03852   -0.00028
AFIX  43
H30   2    0.886212    1.281468   -0.165932    11.00000   -1.20000
AFIX   0
C2    1    0.399776    0.556805    0.696423    11.00000    0.06280    0.06104 =
         0.04290   -0.02265   -0.02267    0.01249
AFIX  43
H2    2    0.486595    0.550040    0.708301    11.00000   -1.20000
AFIX   0
C35   1    1.122951    1.219858    0.144544    11.00000    0.06614    0.06947 =
         0.09754   -0.04384   -0.05468    0.00833
AFIX  43
H35   2    1.217517    1.209544    0.138779    11.00000   -1.20000
AFIX   0
C6    1    0.265972    0.534397    0.564376    11.00000    0.04629    0.06028 =
         0.06868   -0.02969   -0.02750    0.00483
AFIX  43
H6    2    0.260646    0.512643    0.489403    11.00000   -1.20000
AFIX   0
C26   1    0.939770    0.975581   -0.169699    11.00000    0.05270    0.07997 =
         0.04978   -0.03549   -0.02386    0.00701
AFIX  43
H26   2    0.928267    0.876997   -0.103192    11.00000   -1.20000
AFIX   0
C8    1    0.610029    0.594282    0.170566    11.00000    0.09254    0.05418 =
         0.05961   -0.00844   -0.04318   -0.01807
AFIX  43
H8    2    0.657649    0.672224    0.170149    11.00000   -1.20000
AFIX   0
C17   1    0.598031    0.039379    0.681124    11.00000    0.07340    0.04267 =
         0.08004   -0.01905   -0.03128    0.02767
AFIX  43
H17   2    0.679716   -0.007021    0.665883    11.00000   -1.20000
AFIX   0
C23   1    0.380311    0.967841    0.191051    11.00000    0.05213    0.06131 =
         0.08283   -0.03557   -0.03896    0.01278
AFIX  43
H23   2    0.326300    0.964985    0.139439    11.00000   -1.20000
AFIX   0
C5    1    0.147437    0.581247    0.656745    11.00000    0.03976    0.07493 =
         0.09015   -0.02827   -0.01894    0.01407
AFIX  43
H5    2    0.060441    0.588513    0.645207    11.00000   -1.20000
AFIX   0
C9    1    0.614660    0.609442    0.032739    11.00000    0.13053    0.07271 =
         0.04782   -0.00248   -0.04080   -0.02179
AFIX  43
H9    2    0.667308    0.696762   -0.061309    11.00000   -1.20000
AFIX   0
C4    1    0.157858    0.616493    0.763779    11.00000    0.06864    0.08048 =
         0.07649   -0.04036    0.00152    0.02037
AFIX  43
H4    2    0.079495    0.650818    0.821527    11.00000   -1.20000
AFIX   0
C28   1    1.015912    1.150795   -0.429670    11.00000    0.08108    0.16221 =
         0.05181   -0.03279   -0.02488   -0.00527
AFIX  43
H28   2    1.051324    1.175376   -0.536099    11.00000   -1.20000
AFIX   0
C3    1    0.283515    0.601730    0.787236    11.00000    0.08118    0.07596 =
         0.05020   -0.03167   -0.00793    0.00883
AFIX  43
H3    2    0.288752    0.621937    0.863150    11.00000   -1.20000
AFIX   0
C33   1    0.929193    1.345612    0.165133    11.00000    0.07957    0.05543 =
         0.06027   -0.03587   -0.02061    0.00654
AFIX  43
H33   2    0.891307    1.426227    0.173811    11.00000   -1.20000
AFIX   0
C34   1    1.065735    1.328372    0.164608    11.00000    0.07942    0.05745 =
         0.06489   -0.03405   -0.02613   -0.00701
AFIX  43
H34   2    1.116232    1.393052    0.178334    11.00000   -1.20000
AFIX   0
C32   1    0.846610    1.249255    0.153434    11.00000    0.04738    0.04234 =
         0.06521   -0.02613   -0.01421    0.00910
AFIX  43
H32   2    0.751649    1.260209    0.160592    11.00000   -1.20000
AFIX   0
HKLF 4

REM  1 in P1
REM R1 =  0.0403 for    2660 Fo > 4sig(Fo)  and  0.0731 for all    5651 data
REM    389 parameters refined using    383 restraints

END

WGHT      0.0696      0.0000

REM Highest difference peak  0.401,  deepest hole -0.619,  1-sigma level  0.135
Q1    1   0.3553  0.2626  0.1900  11.00000  0.05    0.40
Q2    1   0.2038  0.9830  0.5977  11.00000  0.05    0.40
Q3    1   1.0613  1.3091  0.3004  11.00000  0.05    0.40
Q4    1   0.2776  0.2638  0.3005  11.00000  0.05    0.40
Q5    1   0.4578  0.4033  0.2945  11.00000  0.05    0.39
Q6    1   0.5141  0.4010  0.1283  11.00000  0.05    0.38
Q7    1   1.1554  0.6238  0.2336  11.00000  0.05    0.38
Q8    1   0.4981  0.4813  0.3281  11.00000  0.05    0.38
Q9    1   0.5208  1.0402  0.5419  11.00000  0.05    0.37
Q10   1   0.4572  0.4228  0.1436  11.00000  0.05    0.37
Q11   1   0.3384  0.3862  0.1087  11.00000  0.05    0.37
Q12   1   0.9110  1.3748  0.1770  11.00000  0.05    0.37
Q13   1   0.9884  0.9789 -0.2915  11.00000  0.05    0.37
Q14   1   0.3777  0.3071  0.3178  11.00000  0.05    0.37
Q15   1   0.4246  0.3855  0.2632  11.00000  0.05    0.37
Q16   1   0.5492  0.5443  0.0240  11.00000  0.05    0.36
Q17   1   1.1319  1.1648 -0.6686  11.00000  0.05    0.36
Q18   1   1.2338  1.2864  0.2260  11.00000  0.05    0.36
Q19   1   0.7220  0.1785  0.4813  11.00000  0.05    0.36
Q20   1   0.6266  0.0989  0.5505  11.00000  0.05    0.35
;
_shelx_res_checksum              2187
_shelx_hkl_file
;
   0   0  -3 1023.26   35.09
   0   0  -3 1031.67   36.68
   0   0   4  813.25   48.02
   0   0  -4  953.44   46.62
   0   0   5  979.40   54.79
   0   0  -5  874.52   49.96
   0   0   6   69.49   31.83
   0   0  -6   35.01   23.99
   0   0   7   22.41   34.34
   0   0  -7    4.82   23.04
   0   0   8  187.91   46.15
   0   0  -8  160.32   23.06
   0   0   9  207.57   40.37
   0   0  -9  193.36   24.06
   0   0  10    3.27   30.71
   0  -1  10    8.90   31.57
   0  -1   9   15.97   46.93
   0  -1   8   50.23   40.40
   0   1  -8   24.60   18.86
   0  -1   7  341.14   61.40
   0   1  -7  261.18   39.48
   0  -1   6  912.02   78.46
   0   1  -6  624.79   67.51
   0  -1   5   80.34   26.67
   0   1  -5  102.69   18.74
   0  -1   4 1928.54   94.54
   0   1  -4 1910.92   84.84
   0  -1   3  875.85   42.40
   0  -1   3  935.64   34.84
   0  -1   2  144.37   17.36
   0   1  -2  154.71   16.31
   0   1  -2  183.43   15.76
   0  -1   1 2336.44   72.92
   0   1  -1 2873.56   87.42
   0  -1   1 2438.95   73.65
   0   1  -1 2997.51   89.50
   0  -1   0   -1.70    2.98
   0   1   0   -6.06    4.87
   0  -1  -1   -7.43    5.06
   0   1   1   -7.74    7.79
   0   1   2  858.62   31.30
   0  -1  -2  984.30   35.30
   0   1   2  845.28   31.22
   0   1   3 1325.25   49.57
   0  -1  -3 1447.25   52.55
   0   1   4  309.45   28.40
   0  -1  -4  353.46   25.59
   0   1   5 1673.95   74.79
   0  -1  -5 1536.30   61.91
   0   1   6  783.67   66.04
   0  -1  -6  702.88   54.49
   0   1   7   15.11   37.96
   0  -1  -7   11.61   13.88
   0   1   8  151.28   47.40
   0  -1  -8  138.48   98.78
   0   1   9  227.59   40.18
   0  -1  -9  274.67   31.36
   0   1  10   53.92   35.58
   0   1  11   11.70   19.91
   0  -2   9   91.85   33.10
   0  -2   8   39.40   34.75
   0   2  -8   28.07   37.77
   0  -2   7   33.11   36.39
   0   2  -7   44.41   18.93
   0  -2   6  259.74   45.17
   0   2  -6  234.30   27.20
   0  -2   5  384.25   36.16
   0   2  -5  359.59   26.32
   0  -2   4  210.65   33.61
   0  -2   4  246.48   26.39
   0  -2   3  653.46   45.97
   0  -2   3  628.51   38.42
   0  -2   2  210.74   21.54
   0  -2   2  196.63   13.00
   0   2  -2  162.06   38.78
   0  -2   1  413.15   28.52
   0   2  -1  369.38   16.75
   0  -2   1  417.54   20.12
   0   2  -1  409.36   19.13
   0  -2   0 3152.13   94.64
   0  -2   0 2973.91   89.37
   0  -2   0 2843.81   87.04
   0   2   1 1323.08   40.96
   0  -2  -1 1193.14   39.86
   0  -2  -1 1209.22   40.44
   0   2   1 1307.05   43.30
   0   2   2 2688.23   89.96
   0  -2  -2 2655.40   82.31
   0  -2  -2 2674.22   93.79
   0   2   2 2569.89   84.56
   0   2   3 3514.13  108.36
   0  -2  -3 3996.50  122.07
   0  -2  -3 3610.22  111.31
   0   2   3 3203.47   98.98
   0   2   4  347.21   27.49
   0  -2  -4  295.62   23.69
   0   2   5 2502.40  112.57
   0  -2  -5 2388.32  105.31
   0   2   6  880.07   72.02
   0  -2  -6  805.22   60.52
   0   2   7  197.87   43.88
   0  -2  -7  196.25   23.78
   0   2   8  166.60   32.81
   0  -2  -8  171.26   30.51
   0   2   9   36.82   49.85
   0  -2  -9   16.37   12.84
   0   2  10   32.24   46.48
   0  -2 -10   11.66   26.94
   0   2  11    9.02   31.05
   0  -3   9   75.63   42.48
   0  -3   8   52.02   42.52
   0  -3   7  178.97   40.82
   0   3  -7  150.14   18.73
   0  -3   6   28.79   28.68
   0   3  -6   37.59   14.67
   0  -3   5   65.38   41.99
   0  -3   5   40.63   27.07
   0  -3   4   20.50   30.47
   0  -3   4    8.90    7.86
   0  -3   3   58.33   30.48
   0  -3   3   36.75   24.65
   0  -3   2 3063.58  136.91
   0  -3   2 2863.02  131.38
   0  -3   1 4628.50  147.87
   0   3  -1 3686.48  113.99
   0  -3   0 3212.05   96.96
   0  -3   0 3156.82   95.68
   0  -3   0 3107.85   97.15
   0   3   0 3508.53  107.71
   0  -3  -1 1576.96   49.03
   0  -3  -1 1554.95   52.24
   0   3   1 1511.07   52.13
   0  -3  -2 3446.96  103.13
   0  -3  -2 3758.98  117.77
   0   3   2 3741.55  115.43
   0  -3  -3  486.51   21.34
   0  -3  -3  492.05   28.65
   0   3   4 1547.52   71.05
   0  -3  -4 1204.52   58.62
   0   3   5 1039.06   54.31
   0  -3  -5  764.85   64.83
   0   3   6   81.77   49.17
   0  -3  -6   41.50   20.95
   0   3   7  560.80   57.87
   0  -3  -7  650.61   51.98
   0   3   8  397.85   61.73
   0  -3  -8  489.04   66.48
   0   3   9   -2.43   34.21
   0  -3  -9   16.06   15.75
   0   3  10   51.29   33.78
   0  -3 -10   38.82   35.45
   0   3  11    8.18   25.58
   0  -3 -11    7.32    9.71
   0  -4   8   34.34   30.58
   0  -4   7  101.49   30.13
   0   4  -7   61.96   42.81
   0  -4   6   30.70   29.06
   0   4  -6   23.76   16.74
   0  -4   5   15.79   31.24
   0  -4   5    8.15   10.28
   0  -4   4  499.01   61.14
   0  -4   4  520.72   47.54
   0  -4   3   56.52   19.48
   0  -4   3   74.16   37.04
   0  -4   2 2337.88   95.64
   0  -4   2 2204.41   84.84
   0  -4   1 4261.56  178.82
   0  -4   1 4206.21  187.81
   0  -4   0 1669.98   71.50
   0  -4   0 1679.57   72.53
   0  -4   0 1638.74   84.83
   0   4   1  138.18   19.40
   0  -4  -1  146.44    8.80
   0  -4  -1  155.94   16.46
   0   4   2  714.53   31.61
   0  -4  -2  814.55   28.23
   0  -4  -2  842.33   37.35
   0   4   3  149.08   13.16
   0  -4  -3  160.25   23.84
   0  -4  -3  194.71   26.06
   0   4   4 1437.59   68.47
   0   4   5  501.06   60.75
   0  -4  -5  356.21   36.31
   0   4   6  158.44   26.49
   0  -4  -6  166.56   32.93
   0   4   7  488.23   68.23
   0  -4  -7  577.28   52.07
   0   4   8 1067.80  147.71
   0  -4  -8 1258.59   52.10
   0   4   9  166.30  117.25
   0  -4  -9  183.11   54.36
   0   4  10   28.99   33.13
   0  -4 -10   29.96   28.62
   0   4  11   30.47   47.95
   0  -4 -11   16.86   21.00
   0   4  12   13.64   20.47
   0  -5   7   35.98   26.27
   0  -5   6   48.91   29.07
   0  -5   6   48.48   28.73
   0  -5   5   63.76   27.23
   0  -5   5   48.33   34.00
   0  -5   4   56.02   23.57
   0  -5   4   61.65   34.00
   0  -5   3  238.63   31.20
   0  -5   3  218.83   37.63
   0  -5   2 1100.04   82.74
   0  -5   2 1119.41   80.23
   0  -5   1 1554.79   62.48
   0  -5   1 1440.58   61.07
   0  -5   0  146.94   18.00
   0  -5  -1   36.05   17.63
   0  -5  -1   51.49   25.73
   0  -5  -1   56.87   40.04
   0   5   2   45.28   21.92
   0  -5  -2   84.16    8.67
   0  -5  -2  106.27   69.22
   0   5   3  419.63   24.55
   0  -5  -3  356.18   28.07
   0   5   4 1657.97   73.76
   0  -5  -4 1740.72   84.10
   0   5   5  985.61   61.26
   0  -5  -5  962.25   52.26
   0   5   6   48.35   27.44
   0  -5  -6   58.10   36.45
   0   5   7 1579.95  134.57
   0  -5  -7 1506.19  105.23
   0   5   8  377.66   74.45
   0  -5  -8  387.84   55.66
   0   5   9   90.28   42.37
   0  -5  -9   74.43   39.04
   0   5  10   13.18   17.48
   0  -5 -10    2.93   11.64
   0   5  11   14.09   12.82
   0  -5 -11   15.53   22.88
   0   5  12   18.30   16.87
   0  -6   7    7.57   26.78
   0  -6   6    7.07   27.08
   0  -6   5   61.80   31.80
   0  -6   5   14.63   11.39
   0  -6   4   65.30   27.79
   0  -6   4   47.45   31.69
   0  -6   3   30.25   18.08
   0  -6   3   34.43   21.94
   0  -6   2  274.29   30.86
   0  -6   2  291.10   24.50
   0  -6   1  788.84   61.13
   0  -6   1  797.32   59.62
   0  -6   0  449.78   38.03
   0  -6   0  454.46   41.93
   0  -6  -1 1498.52   57.45
   0  -6  -1 1495.29   66.27
   0   6   2  337.15   28.75
   0  -6  -2  325.14   33.57
   0   6   3 1025.04   49.65
   0  -6  -3  947.63   47.85
   0   6   4 1125.87   45.04
   0  -6  -4  998.33   48.02
   0   6   5  128.29   18.38
   0  -6  -5   91.93   24.25
   0   6   6  141.86   31.73
   0  -6  -6  175.11   28.99
   0   6   7  312.40   39.30
   0  -6  -7  406.07   62.26
   0   6   8  141.51   67.58
   0  -6  -8  148.58   49.77
   0   6   9   39.71   23.54
   0  -6  -9   57.16   33.44
   0   6  10   70.66   32.53
   0  -6 -10   67.43   31.16
   0   6  11   54.47   39.26
   0  -6 -11   90.87   42.40
   0   6  12   86.21   38.76
   0  -6 -12   74.97   59.23
   0  -7   6   -5.96   23.35
   0  -7   5   24.51   35.21
   0  -7   5    2.38    6.93
   0  -7   4   83.77   26.98
   0  -7   4   61.94   49.86
   0  -7   3  276.12   34.16
   0  -7   3  196.31   85.06
   0  -7   2  164.26   43.23
   0  -7   2  182.76   23.51
   0  -7   1  161.78   56.59
   0  -7   1  146.45   69.97
   0  -7   0   33.78   20.85
   0  -7   0   48.85   28.59
   0  -7  -1  387.54   20.99
   0  -7  -1  401.05   29.97
   0  -7  -2  150.69   36.24
   0  -7  -2  139.44   79.96
   0   7   3  359.39   29.84
   0  -7  -3  395.26   41.22
   0   7   4  985.77   70.10
   0  -7  -4  823.75   66.02
   0   7   5  465.10   35.08
   0  -7  -5  490.59   52.68
   0   7   6  688.09   52.53
   0  -7  -6  694.96   62.76
   0   7   7  150.24   52.79
   0  -7  -7  172.03  109.93
   0   7   8  184.62   90.86
   0  -7  -8  184.41   32.48
   0   7   9   33.59   19.17
   0  -7  -9   24.63   31.56
   0   7  10  140.20   81.54
   0  -7 -10  187.56   42.69
   0   7  11   22.37   29.55
   0  -7 -11   11.85   25.64
   0   7  12   94.40   63.62
   0  -7 -12  102.51   40.02
   0  -8   5   17.49   29.90
   0  -8   4    2.90   19.09
   0  -8   4   -2.14   13.73
   0  -8   3  105.72   30.32
   0  -8   3   90.71   65.51
   0  -8   2  295.06   32.02
   0  -8   2  235.45  111.86
   0  -8   1  114.78   23.74
   0  -8   1   94.56   51.68
   0  -8   0   18.24   20.43
   0  -8   0   29.83   17.10
   0  -8  -1  123.00   43.16
   0  -8  -1  115.65   64.33
   0  -8  -2  548.85   57.32
   0  -8  -2  589.39   58.13
   0   8   3   90.29   14.50
   0  -8  -3   55.27   42.64
   0   8   4  190.06   34.21
   0  -8  -4  253.59   81.57
   0   8   5   29.55   22.18
   0  -8  -5   28.15   21.03
   0   8   6 1116.06  146.62
   0  -8  -6 1251.38   64.28
   0   8   7  611.87   69.53
   0  -8  -7  644.22   85.25
   0   8   8   -3.03   20.91
   0  -8  -8   -6.11   27.17
   0   8   9   71.55   34.61
   0  -8  -9   56.32   43.04
   0   8  10    4.09   18.31
   0  -8 -10   11.26   29.37
   0   8  11   34.12   27.99
   0  -8 -11   31.77   37.18
   0   8  12   17.78   15.28
   0  -8 -12    7.97   24.84
   0  -9   4   15.47   18.80
   0  -9   3    8.00   12.18
   0  -9   2   10.29   18.30
   0  -9   2   22.06   16.00
   0  -9   1   73.01   17.25
   0  -9   1   72.60   35.35
   0  -9   0  123.47   20.30
   0  -9   0  110.10   63.74
   0  -9  -1   91.77   16.90
   0  -9  -1   97.12   76.78
   0  -9  -2  154.99   18.16
   0  -9  -2  163.35   58.14
   0  -9  -3  579.94   80.16
   0  -9  -3  563.20   69.60
   0   9   4  152.18   17.82
   0  -9  -4  118.23   61.51
   0   9   5  188.47   47.03
   0  -9  -5  138.93   69.43
   0   9   6  330.14   42.22
   0  -9  -6  279.06  139.84
   0   9   7  190.52   49.63
   0  -9  -7  181.44  111.42
   0   9   8    8.91   12.76
   0  -9  -8    3.04   26.39
   0   9   9   48.03   28.01
   0  -9  -9   33.16   22.31
   0   9  10   -3.06   20.19
   0  -9 -10  -11.24   26.53
   0   9  11   97.87   62.66
   0  -9 -11   97.96   29.33
   0 -10   2   19.56   21.74
   0 -10   1    5.29    8.71
   0 -10   0   30.62   16.52
   0 -10  -1   33.41   28.32
   0 -10  -2    1.57   17.96
   0 -10  -3  102.36   43.46
   0 -10  -4  183.23  112.68
   0  10   5  151.07   22.36
   0 -10  -5  148.86  101.99
   0  10   6  105.59   60.41
   0 -10  -6  104.80   68.70
   0  10   7   13.35   11.84
   0 -10  -7   20.99   27.78
   0  10   8   33.99   20.95
   0 -10  -8   34.90   36.17
   0  10   9   11.04   12.98
   0 -10  -9   20.45   32.09
   0  10  10   17.02   12.61
   0 -10 -10    4.51   18.05
   0  10  11   37.02   29.26
   0 -10 -11   54.88   52.60
   0 -11   1    4.13    6.91
   0 -11   0   -1.80   21.90
   0 -11  -1   31.17   21.86
   0 -11  -2    7.10   11.41
   0 -11  -3   18.08   27.13
   0 -11  -4   50.32   34.58
   0 -11  -5  147.99   76.37
   0 -11  -6  116.70   52.81
   0 -11  -7    3.44   26.16
   0 -11  -8   55.39   36.35
   0 -11  -9   13.38   15.95
   0 -11 -10   27.51   35.54
   0 -12  -1   14.86   19.05
   0 -12  -2   60.51   36.59
   0 -12  -3   26.58   20.46
   0 -12  -4   59.43   30.36
   0 -12  -5   61.26   32.73
   0 -12  -6   27.71   35.52
   0 -12  -7    5.60   21.59
   0 -12  -8    3.84   18.71
   0 -12  -9   17.30   26.32
   0 -13  -4   33.34   25.09
   0 -13  -5   51.61   33.98
   0 -13  -6    2.23   15.76
   0 -13  -7   -1.62   24.43
   1 -13  -7    0.56   20.90
   1 -13  -6    8.66   14.21
   1 -13  -5    7.65   19.59
   1 -13  -4   17.91   16.44
   1 -13  -3    2.25   17.21
   1 -12  -9   -7.00   26.18
   1 -12  -8    8.76   15.15
   1 -12  -7   29.23   23.12
   1 -12  -6   28.69   26.18
   1 -12  -5   39.38   23.46
   1 -12  -4   64.73   28.30
   1 -12  -3   48.49   31.53
   1 -12  -2    7.25   20.45
   1 -12  -1    5.87   12.85
   1 -11 -10   78.55  104.48
   1 -11  -9   29.02   15.96
   1 -11  -8   48.79   34.06
   1 -11  -7   29.32   17.11
   1 -11  -6   29.36   32.79
   1 -11  -5   29.93   20.93
   1 -11  -4   22.30   18.05
   1 -11  -3   45.58   23.08
   1 -11  -2  128.41  105.85
   1 -11  -1   48.82   29.19
   1 -11   0    8.15   11.20
   1 -11   1   10.52   16.11
   1 -10 -10   32.18   40.68
   1 -10  -9   29.56   23.98
   1 -10  -8   36.58   14.42
   1 -10  -7   19.23   17.18
   1 -10  -6   22.72   23.99
   1 -10  -5  137.42   56.12
   1 -10  -4   89.19   41.16
   1 -10  -3   50.55   28.28
   1 -10  -2  219.48   95.83
   1 -10  -1  319.28   34.89
   1 -10   0   66.42   33.81
   1 -10   1    6.73   13.27
   1 -10   2   11.78   16.64
   1 -10   3    9.25   13.46
  -1   9  11   33.00   19.75
   1  -9 -11   38.49   35.95
  -1   9  10   25.78   16.72
   1  -9 -10   20.14   30.68
  -1   9   9    6.44   11.79
   1  -9  -9   14.01   13.96
  -1   9   8   89.43   39.45
   1  -9  -8   84.00   61.14
  -1   9   7  147.11   34.20
   1  -9  -7  130.46   65.24
  -1   9   6    9.89    8.23
   1  -9  -6   32.41   33.96
  -1   9   5  527.56   58.74
   1  -9  -5  546.76   76.43
  -1   9   4  254.67   31.25
   1  -9  -4  288.14  102.92
   1  -9  -3  344.17   48.37
   1  -9  -3  354.11   49.19
   1  -9  -2  264.09   30.88
   1  -9  -2  277.60   43.03
   1  -9  -1   64.01   36.95
   1  -9  -1   87.65   43.79
   1  -9   0    6.01    9.28
   1  -9   1   14.50   23.34
   1  -9   2   15.95   14.36
   1  -9   3   44.65   36.15
   1  -9   4   32.62   35.13
  -1   8  11  118.99   49.32
   1  -8 -11  118.04   25.53
  -1   8  10   26.70   26.43
   1  -8 -10   51.25   38.57
  -1   8   9  125.53   66.31
   1  -8  -9  101.25   52.77
  -1   8   8  235.53   42.82
   1  -8  -8  198.64  143.97
  -1   8   7   34.31   27.40
   1  -8  -7   26.08   18.02
  -1   8   6   75.29   35.72
   1  -8  -6   92.57   58.19
  -1   8   5   30.15   16.88
   1  -8  -5   57.45   33.20
  -1   8   4  106.02   15.00
   1  -8  -4  107.03   60.13
  -1   8   3  503.92   49.96
   1  -8  -3  329.95   40.49
   1  -8  -2  601.84   50.03
   1  -8  -2  730.64   75.24
   1  -8  -1   85.15   17.29
   1  -8  -1  100.91   57.08
   1  -8   0  156.96   41.37
   1  -8   0  198.09   49.59
   1  -8   1   56.46   16.67
   1  -8   1   79.20   43.08
   1  -8   2   46.28   21.23
   1  -8   2   52.59   30.70
   1  -8   3   49.66   22.63
   1  -8   3   73.54   55.47
   1  -8   4   67.40   29.33
   1  -8   4   27.63   22.01
   1  -8   5   17.51   18.60
  -1   7  11   38.91   21.86
   1  -7 -11   26.60   24.86
  -1   7  10   49.93   29.28
   1  -7 -10   47.73   46.51
  -1   7   9   25.79   24.01
   1  -7  -9    9.26   10.40
  -1   7   8  184.37   42.12
   1  -7  -8  220.19   93.12
  -1   7   7   14.40   20.18
   1  -7  -7    9.43   29.81
  -1   7   6  552.74   53.77
   1  -7  -6  518.20   71.65
  -1   7   5   31.17   21.06
   1  -7  -5   30.85   14.98
  -1   7   4  222.95   16.52
   1  -7  -4  265.43   87.20
  -1   7   3 1022.06   75.03
   1  -7  -3  933.21   73.96
   1  -7  -2  984.58   68.98
   1  -7  -2  953.14   77.03
   1  -7  -2  992.93   77.00
   1  -7  -1  144.40   13.46
   1  -7  -1  156.51   72.86
   1  -7   0  136.96   17.57
   1  -7   0  145.34   95.51
   1  -7   1  204.77   27.14
   1  -7   1  225.69   30.18
   1  -7   2   63.15   16.91
   1  -7   2   82.90   41.50
   1  -7   3  328.77   32.06
   1  -7   3  333.78   58.85
   1  -7   4  107.03   28.06
   1  -7   4   92.03   82.36
   1  -7   5   42.37   33.68
   1  -7   5   36.30   20.22
   1  -7   6   35.78   30.22
   1  -7   6    9.13   12.59
  -1   6  11   45.44   25.31
   1  -6 -11   92.72   24.82
  -1   6  10   -0.22   24.88
   1  -6 -10   -1.15   23.40
  -1   6   9   12.51   12.88
   1  -6  -9   13.69   22.80
  -1   6   8   78.62   44.12
   1  -6  -8   32.78   15.00
  -1   6   7  559.20   97.67
   1  -6  -7  594.85   85.55
  -1   6   6  884.51   65.65
   1  -6  -6  728.82   57.83
  -1   6   5  161.55   27.36
   1  -6  -5  143.32   72.77
  -1   6   4  511.97   35.07
   1  -6  -4  519.56   35.06
  -1   6   3 2814.61   99.57
   1  -6  -3 2917.50  100.22
   1  -6  -3 2840.69  122.07
  -1   6   2 1139.84   47.47
   1  -6  -2 1165.30   43.10
   1  -6  -2 1004.58   46.90
   1  -6  -1  133.05   21.46
   1  -6  -1  132.13   13.97
   1  -6  -1  145.41   83.19
   1  -6   0   33.01   19.75
   1  -6   0   23.37   15.67
   1  -6   1  159.82   20.55
   1  -6   1  197.04   24.49
   1  -6   2  158.15   26.04
   1  -6   2  151.07   75.71
   1  -6   3  255.68   37.44
   1  -6   3  274.95   43.31
   1  -6   4   87.76   27.99
   1  -6   4   73.50   38.92
   1  -6   5   81.70   22.76
   1  -6   5   66.47   36.89
   1  -6   6   59.78   28.08
   1  -6   6   41.46   33.34
   1  -6   7    6.46   22.31
  -1   6  -7   23.39   23.24
  -1   5  11   43.35   22.87
  -1   5  10   44.50   31.91
   1  -5 -10   38.68   24.13
  -1   5   9  218.72  143.29
   1  -5  -9  235.28  121.28
  -1   5   8   68.70   30.97
   1  -5  -8   99.06   55.82
  -1   5   7  471.55   51.78
   1  -5  -7  622.92   62.67
  -1   5   6 1201.21   96.06
   1  -5  -6 1464.94   97.59
  -1   5   5  385.79   36.49
   1  -5  -5  368.30   38.73
  -1   5   4 1209.40   48.92
   1  -5  -4 1057.71   48.09
  -1   5   3 1187.68   52.94
   1  -5  -3 1275.74   56.77
   1  -5  -3 1331.58   67.18
  -1   5   2  136.18   21.50
   1  -5  -2  163.12   10.54
   1  -5  -2  158.03   21.42
   1  -5  -1  600.22   27.69
   1  -5  -1  637.57   34.09
   1  -5  -1  617.12   35.95
   1  -5   0  106.62   13.66
   1  -5   0  105.02   25.53
   1  -5   0  126.45   20.14
   1  -5   1  795.19   34.85
   1  -5   1  845.17   40.79
   1  -5   2  895.42   69.22
   1  -5   2  957.67   72.47
   1  -5   3  327.27   31.76
   1  -5   3  340.39   25.37
   1  -5   4   99.32   23.30
   1  -5   4  124.27   80.68
   1  -5   5   84.13   27.97
   1  -5   5   44.49   29.15
   1  -5   6   85.32   24.91
   1  -5   6   61.89   47.35
   1  -5   7   21.93   28.89
  -1   5  -7   17.87   16.30
   1  -5   8    4.20   23.76
  -1   4  11   27.00   28.61
  -1   4  10   -4.92   32.72
   1  -4 -10   18.15   18.30
  -1   4   9  124.75   88.05
   1  -4  -9  111.11   78.13
  -1   4   8   46.55   35.30
   1  -4  -8   40.01   37.98
  -1   4   7   27.56   32.37
   1  -4  -7   68.70   41.50
  -1   4   6  627.99   54.71
   1  -4  -6  824.44   66.06
  -1   4   5  360.51   39.42
   1  -4  -5  355.87   39.38
  -1   4   4 2002.68  102.59
   1  -4  -4 1733.13   84.00
  -1   4   3 1168.10   52.74
   1  -4  -3 1018.39   46.92
   1  -4  -3 1012.65   53.77
  -1   4   2   27.12   15.99
   1  -4  -2   29.37   15.03
   1  -4  -2   31.73   23.00
  -1   4   1 2403.16   72.89
   1  -4  -1 2328.91   70.17
   1  -4  -1 2438.38   81.31
   1  -4   0 2467.18   75.94
   1  -4   0 2537.59   84.29
   1  -4   1  379.49   23.74
  -1   4  -1  405.63   21.04
   1  -4   1  360.82   25.05
   1  -4   2 1491.77   60.60
   1  -4   3  763.18   64.33
   1  -4   3  770.56   57.67
   1  -4   4  251.16   33.33
   1  -4   4  293.10   27.44
   1  -4   5   25.82   37.07
   1  -4   5   -2.27   16.07
   1  -4   6   37.11   36.55
   1  -4   6   17.57   15.39
   1  -4   7   18.14   37.31
  -1   4  -7   11.48   15.58
   1  -4   8   -3.53   24.50
  -1   4  -8   -0.25   14.03
   1  -4   9   18.34   26.77
  -1   3  11   27.52   29.86
  -1   3  10   18.10   32.94
  -1   3   9  108.36   38.22
   1  -3  -9   51.94   48.03
  -1   3   8  204.79   45.64
   1  -3  -8  154.20   99.20
  -1   3   7  117.52   30.76
   1  -3  -7  100.37   71.73
  -1   3   6   23.41   30.89
   1  -3  -6   27.11   33.31
   1  -3  -5  831.60   78.76
   1  -3  -4 4364.68  187.90
  -1   3   3 1876.30   62.93
   1  -3  -3 1983.09   68.72
  -1   3   2  422.57   18.75
   1  -3  -2  455.65   21.72
   1  -3  -2  451.55   26.47
  -1   3   1 1124.61   34.82
   1  -3  -1 1096.53   33.94
   1  -3  -1 1213.53   42.92
  -1   3   1 1050.56   37.93
   1  -3   0  488.17   16.79
   1  -3   0  504.14   25.11
   1  -3   1  453.83   19.87
  -1   3  -1  384.41   16.61
   1  -3   1  501.16   23.51
   1  -3   2  916.35   50.87
   1  -3   2  943.38   46.49
   1  -3   3  579.58   37.94
   1  -3   3  616.66   35.33
   1  -3   4  870.89   69.46
   1  -3   4  924.72   68.72
   1  -3   5  918.38   77.15
   1  -3   5  929.99   61.88
   1  -3   6  139.80   34.59
  -1   3  -6  124.90   17.23
   1  -3   7   38.11   26.98
  -1   3  -7   59.30   22.19
   1  -3   8   27.75   29.71
  -1   3  -8    9.46   17.53
   1  -3   9   26.56   28.36
  -1   2  11    9.39   31.89
  -1   2  10  107.32   58.94
  -1   2   9   39.72   36.27
   1  -2  -9   12.04   17.82
  -1   2   8  307.80   40.80
   1  -2  -8  262.43   28.84
  -1   2   7  638.53   75.80
   1  -2  -7  592.77   59.53
  -1   2   6   40.05   44.97
   1  -2  -6   29.85   25.09
  -1   2   5  972.77   53.55
   1  -2  -5 1023.68   48.19
  -1   2   4 2291.83  104.42
   1  -2  -4 2310.53  102.70
  -1   2   3 1558.53   58.04
   1  -2  -3 1526.99   53.84
  -1   2   3 1414.89   48.45
  -1   2   2  105.86   20.16
   1  -2  -2   45.56   13.70
   1  -2  -2   55.89   12.42
  -1   2   2   94.66   13.87
   1  -2  -1 1072.46   37.12
   1  -2  -1 1182.83   59.54
   1  -2   0 4009.09  122.66
  -1   2   0 3692.31  111.16
  -1   2  -1 9999.98  407.03
   1  -2   2 2610.13   83.92
  -1   2  -2 2952.89   91.80
   1  -2   2 2973.29   93.85
   1  -2   3   61.11   17.33
   1  -2   4  460.64   33.92
   1  -2   4  478.78   33.24
   1  -2   5 1295.97   97.48
   1  -2   6  373.19   57.05
  -1   2  -6  334.08   34.49
   1  -2   7   22.49   27.89
  -1   2  -7   10.95   15.38
   1  -2   8  107.18   33.67
  -1   2  -8   65.64   33.10
   1  -2   9  136.31   38.55
  -1   2  -9   78.02   65.28
   1  -2  10   27.32   29.33
  -1   1  10   14.25   48.38
  -1   1   9  118.33   46.01
  -1   1   8  145.80   33.31
   1  -1  -8  142.43   22.35
  -1   1   7  642.20   95.22
   1  -1  -7  577.40   75.99
  -1   1   6  257.42   51.87
   1  -1  -6  225.51   26.41
  -1   1   5 1094.46   64.92
   1  -1  -5  964.95   43.64
  -1   1   4  430.45   33.41
   1  -1  -4  512.12   30.76
  -1   1   4  455.39   26.36
  -1   1   3  450.58   33.45
   1  -1  -3  437.19   20.89
  -1   1   3  476.72   21.25
  -1   1   2  163.30   22.75
   1  -1  -2  192.82   39.10
   1  -1  -2  180.16   15.01
  -1   1   2  138.67   12.58
  -1   1   1 1283.14   40.80
   1  -1  -1 1101.04   35.47
  -1   1  -2 9078.10  368.82
   1  -1   3  717.41   36.44
   1  -1   3  757.19   31.17
   1  -1   4 1385.03   70.45
  -1   1  -4 1281.57   58.79
   1  -1   5  198.08   27.79
  -1   1  -5  119.86   19.39
   1  -1   6   23.67   25.91
  -1   1  -6   27.95   19.20
   1  -1   7   24.15   35.14
  -1   1  -7   32.74   15.17
   1  -1   8   28.48   48.30
  -1   1  -8   12.46   14.01
   1  -1   9   50.41   31.71
  -1   1  -9   39.81   25.78
   1  -1  10  122.44   46.73
  -1   1 -10   80.21   24.90
  -1   0  10    7.41   31.45
  -1   0   9   22.12   32.28
  -1   0   8   37.58   37.64
   1   0  -8   69.19   45.34
  -1   0   7   51.10   36.70
   1   0  -7   62.16   52.89
  -1   0   6  151.59   46.74
   1   0  -6  152.03   25.36
  -1   0   5  950.80   76.77
   1   0  -5  926.18   67.05
  -1   0   4 1713.96   87.91
   1   0  -4 1985.01   89.03
  -1   0   3  638.25   34.21
   1   0  -3  558.40   21.42
   1   0  -3  549.69   22.04
  -1   0   2 5969.70  246.15
   1   0  -2 5387.05  158.90
  -1   0   1    0.67   11.59
   1   0  -1   34.44    7.63
  -1   0   1    9.22    6.38
  -1   0   0  480.80   16.29
   1   0   2  897.39   32.92
  -1   0  -2  842.82   30.27
  -1   0  -2  931.63   31.62
  -1   0  -2  896.69   31.44
   1   0   3  765.71   35.72
  -1   0  -3  625.99   27.14
  -1   0  -3  752.19   31.68
  -1   0  -3  702.40   27.98
   1   0   5  169.87   30.46
  -1   0  -5  233.31   23.86
   1   0   6  155.31   35.67
  -1   0  -6  151.50   17.32
   1   0   7  396.89   52.07
  -1   0  -7  372.04   41.62
   1   0   8    5.48   33.29
  -1   0  -8   11.59   20.35
   1   0   9  202.22   49.87
  -1   0  -9  130.69   24.93
   1   0  10  101.41   44.18
  -1   0 -10   80.80   40.19
   1   0  11   39.33   32.31
  -1  -1   9   -5.57   32.74
  -1  -1   8  190.56   59.89
  -1  -1   7   58.07   32.27
   1   1  -7   50.67   15.53
  -1  -1   6  644.02   88.07
   1   1  -6  630.47   77.70
  -1  -1   5  751.01   64.09
   1   1  -5  868.86   56.85
  -1  -1   4  140.07   34.54
   1   1  -4  132.42   17.80
  -1  -1   3  229.71   33.62
   1   1  -3  247.66   15.25
   1   1  -3  235.38   16.16
  -1  -1   2  709.69   32.44
  -1  -1   2  674.50   26.98
   1   1  -2  740.66   25.22
  -1  -1   1 1163.08   43.76
   1   1  -1 1110.71   38.40
   1   1  -1 1158.32   37.15
   1   1   0 2229.10   68.25
   1   1   0 2252.65   67.61
   1   1   2 2172.85   68.35
  -1  -1  -2 2201.35   67.17
  -1  -1  -2 2118.90   66.01
   1   1   2 2157.42   67.17
  -1  -1  -3 3710.47  113.40
   1   1   3 3913.63  119.40
   1   1   4 1522.49   54.42
  -1  -1  -4 1836.08   61.68
   1   1   5 1503.31   77.20
  -1  -1  -5 1584.67   74.49
   1   1   6  377.94   39.21
  -1  -1  -6  327.57   31.62
   1   1   7  205.09   37.65
  -1  -1  -7  140.13   24.63
   1   1   8  131.75   45.61
  -1  -1  -8  137.82   29.67
   1   1   9  135.87   36.08
  -1  -1  -9   97.10   63.63
   1   1  10   12.64   21.65
  -1  -1 -10   18.27   17.25
   1   1  11   12.98   15.19
  -1  -1 -11   11.45   17.67
  -1  -2   9   28.60   30.77
  -1  -2   8   41.72   36.42
  -1  -2   7   25.35   30.57
   1   2  -7   22.53   12.11
  -1  -2   6   37.03   53.16
   1   2  -6   28.22   16.19
  -1  -2   5  658.31   73.37
   1   2  -5  597.56   53.59
  -1  -2   4   80.01   35.02
   1   2  -4   73.07   14.11
  -1  -2   3   70.36   28.70
  -1  -2   3   53.10   36.07
  -1  -2   2  220.02   30.59
  -1  -2   2  215.20   24.25
   1   2  -2  168.52   13.47
  -1  -2   1 1498.08   50.83
  -1  -2   1 1475.62   47.44
   1   2  -1 1517.68   47.76
   1   2   1 6376.74  258.98
  -1  -2  -1 6518.03  264.54
   1   2   1 5864.64  239.83
   1   2   2 3092.37   95.24
  -1  -2  -2 3111.26   96.61
  -1  -2  -2 2579.30   84.27
  -1  -2  -3 4634.54  138.83
  -1  -2  -3 4573.18  141.40
   1   2   3 4356.08  133.09
   1   2   4 4485.62  139.83
  -1  -2  -4 4382.44  136.15
   1   2   5  868.57   45.74
  -1  -2  -5  807.51   44.19
   1   2   6  330.71   44.20
  -1  -2  -6  234.26   27.15
   1   2   7   44.41   27.43
  -1  -2  -7   65.64   37.67
   1   2   8  213.86   38.71
  -1  -2  -8  189.09   91.68
   1   2   9  354.19   39.26
  -1  -2  -9  339.43   62.99
   1   2  10   60.97   41.01
  -1  -2 -10   61.83   20.44
   1   2  11   22.47   32.88
  -1  -2 -11    9.29   18.97
   1   2  12   20.49   19.75
  -1  -3   8   39.68   32.62
  -1  -3   7   26.27   32.44
  -1  -3   6  169.86   37.95
   1   3  -6  176.31   20.45
  -1  -3   5  228.62   40.67
   1   3  -5  173.10   25.21
  -1  -3   4   21.31   30.64
  -1  -3   4   -2.17   12.85
  -1  -3   3  101.48   20.55
  -1  -3   3  113.94   13.37
  -1  -3   2    8.57   19.24
  -1  -3   2   13.27    8.91
  -1  -3   1 1041.58   52.41
  -1  -3   1  981.43   44.90
  -1  -3   0 5517.91  166.37
   1   3   1 2498.04   78.33
  -1  -3  -1 2701.68   84.16
  -1  -3  -1 2746.69   85.18
   1   3   1 2564.61   81.04
   1   3   2   20.08   11.61
  -1  -3  -2   50.20   25.52
  -1  -3  -2   70.59   40.55
   1   3   2   30.74   27.03
   1   3   3 3489.56  107.18
  -1  -3  -3 3007.01   96.58
   1   3   4  526.11   28.02
  -1  -3  -4  453.54   27.44
   1   3   5  569.25   43.59
  -1  -3  -5  694.70   41.63
   1   3   6  715.35   91.12
  -1  -3  -6  577.64   34.69
   1   3   7  124.43   94.78
  -1  -3  -7  104.03   92.50
   1   3   8  793.76   79.14
  -1  -3  -8  759.53   69.28
   1   3   9  393.92  113.52
  -1  -3  -9  391.44   58.14
   1   3  10   68.05   38.07
  -1  -3 -10   49.17   19.69
   1   3  11    4.33   23.11
  -1  -3 -11    7.98   18.57
   1   3  12   14.64   26.51
  -1  -3 -12    7.41   14.28
  -1  -4   8    3.57   32.43
  -1  -4   7  135.06   37.20
  -1  -4   6  149.58   33.54
   1   4  -6   96.21   80.84
  -1  -4   5   54.70   34.61
  -1  -4   5   48.91   29.35
  -1  -4   4   31.63   32.59
  -1  -4   4   26.57   16.70
  -1  -4   3   11.05   27.94
  -1  -4   3    8.96    9.23
  -1  -4   2   48.77   29.12
  -1  -4   2   49.02   23.06
  -1  -4   1  207.46   29.34
  -1  -4   1  205.33   20.89
  -1  -4   0 2079.17   91.54
  -1  -4   0 2034.60   89.43
   1   4   1  565.82   25.70
  -1  -4  -1  532.09   25.24
   1   4   2 1140.99   40.56
  -1  -4  -2 1234.10   45.67
  -1  -4  -3  813.27   39.65
  -1  -4  -4  453.18   34.08
  -1  -4  -5  277.43   35.87
   1   4   6  752.71   47.82
  -1  -4  -6  735.05   47.80
   1   4   7   21.61   21.99
  -1  -4  -7   13.62   31.32
   1   4   8  840.19   84.69
  -1  -4  -8  855.84   86.42
   1   4   9  628.72   96.13
  -1  -4  -9  548.84   67.89
   1   4  10   24.54   30.33
  -1  -4 -10   10.02   19.55
   1   4  11   20.06   19.48
  -1  -4 -11   10.97   17.58
   1   4  12   32.86   22.71
  -1  -4 -12   40.89   22.90
  -1  -5   7   14.81   26.02
  -1  -5   6   64.90   38.68
  -1  -5   5  117.36   42.02
  -1  -5   5   50.75   35.71
  -1  -5   4   38.11   29.38
  -1  -5   4   14.27   14.63
  -1  -5   3   14.99   29.29
  -1  -5   3    8.34   11.12
  -1  -5   2  647.10   53.90
  -1  -5   2  600.06   44.64
  -1  -5   1  385.67   37.08
  -1  -5   1  402.08   40.31
  -1  -5   0  448.40   27.87
  -1  -5   0  510.18   53.79
  -1  -5  -1  298.50   23.82
   1   5   2 3534.15  149.47
  -1  -5  -2 3798.40  167.69
   1   5   3 1365.44   62.74
  -1  -5  -3 1311.29   64.59
   1   5   4  435.39   26.35
  -1  -5  -4  403.54   37.22
   1   5   5 1051.23   44.03
  -1  -5  -5  818.03   42.63
   1   5   6  104.04   60.07
  -1  -5  -6   67.08   40.06
   1   5   7  330.43   48.44
  -1  -5  -7  294.65   33.36
   1   5   8  252.22   47.72
  -1  -5  -8  342.41   89.96
   1   5   9   74.48   48.32
  -1  -5  -9   41.05   27.93
   1   5  10    4.79   22.49
  -1  -5 -10   18.22   27.86
   1   5  11  149.14   88.32
  -1  -5 -11  135.93   28.19
   1   5  12   -5.77   28.97
  -1  -5 -12   33.48   23.05
  -1  -6   6   20.31   26.28
  -1  -6   5    9.54   26.11
  -1  -6   4  120.65   46.79
  -1  -6   4   66.52   55.12
  -1  -6   3   79.21   65.08
  -1  -6   3   66.16   41.15
  -1  -6   2  428.06   60.84
  -1  -6   2  391.53   81.14
  -1  -6   1  944.96   65.44
  -1  -6   1  922.50   62.19
  -1  -6   0  443.28   39.56
  -1  -6   0  445.57   57.33
  -1  -6  -1  279.92   28.29
  -1  -6  -1  269.87   29.65
   1   6   2  329.53   40.01
  -1  -6  -2  351.38   35.42
   1   6   3  215.55   21.81
  -1  -6  -3  242.11   66.44
   1   6   4  155.17   42.66
  -1  -6  -4  122.04   68.18
   1   6   5  555.78   31.55
  -1  -6  -5  424.41   34.80
   1   6   6   67.05   54.71
  -1  -6  -6   55.98   31.36
   1   6   7 1423.57   95.12
  -1  -6  -7 1463.58  103.35
   1   6   8  473.97   66.21
  -1  -6  -8  468.11   66.40
   1   6   9   38.28   22.98
  -1  -6  -9   66.68   43.42
   1   6  10   41.50   21.62
  -1  -6 -10   43.10   36.51
   1   6  11   54.89   31.36
  -1  -6 -11   68.68   65.90
   1   6  12   90.26   47.48
  -1  -6 -12   69.16   50.47
  -1  -7   5   23.29   23.01
  -1  -7   4   21.50   26.45
  -1  -7   4    5.26   13.70
  -1  -7   3    4.02   19.57
  -1  -7   3   12.02   16.81
  -1  -7   2   61.38   23.45
  -1  -7   2   63.75   26.84
  -1  -7   1  521.94   68.87
  -1  -7   1  488.84   72.81
  -1  -7   0  507.70   51.65
  -1  -7   0  502.77   80.82
  -1  -7  -1  639.23   47.75
  -1  -7  -1  728.55   55.84
  -1  -7  -2  889.25   59.16
  -1  -7  -2  793.14   58.47
   1   7   3  168.72   60.33
  -1  -7  -3  143.63   84.05
   1   7   4  627.22   50.26
  -1  -7  -4  546.04   56.28
   1   7   5   13.99    8.83
  -1  -7  -5   29.36   27.58
   1   7   6  177.77   49.21
  -1  -7  -6  157.57   92.02
   1   7   7  581.82   58.90
  -1  -7  -7  559.07   82.35
   1   7   8 1011.26  125.70
  -1  -7  -8  978.13  126.70
   1   7   9   47.99   33.39
  -1  -7  -9   41.06   35.60
   1   7  10   69.28   42.55
  -1  -7 -10   89.57   47.30
   1   7  11   30.79   22.68
  -1  -7 -11   30.46   37.90
   1   7  12   25.56   15.78
  -1  -7 -12   39.75   18.40
  -1  -8   4   23.64   20.80
  -1  -8   3   49.34   32.59
  -1  -8   3   35.38   21.09
  -1  -8   2   84.28   21.10
  -1  -8   2   82.26   41.45
  -1  -8   1   32.40   22.08
  -1  -8   1   34.10   17.09
  -1  -8   0   13.13   18.06
  -1  -8   0   13.83    9.48
  -1  -8  -1  408.04   55.01
  -1  -8  -1  393.47   55.32
  -1  -8  -2  740.56   68.17
  -1  -8  -2  775.12   88.24
   1   8   3  117.92   16.03
  -1  -8  -3  138.83   74.95
   1   8   4  253.68   23.22
  -1  -8  -4  257.40   54.30
   1   8   5  369.71   38.96
  -1  -8  -5  356.54   92.03
   1   8   6  213.02   33.39
  -1  -8  -6  258.38  160.49
   1   8   7  863.07  107.13
  -1  -8  -7  725.98   98.96
   1   8   8  196.21   85.00
  -1  -8  -8  106.53   63.30
   1   8   9   36.34   30.04
  -1  -8  -9   14.29   32.45
   1   8  10   30.89   18.53
  -1  -8 -10   29.22   32.46
   1   8  11   24.69   32.63
  -1  -8 -11   -9.16   25.67
   1   8  12   52.13   32.25
  -1  -8 -12   49.73   24.91
  -1  -9   3    7.49   19.57
  -1  -9   2   79.70   28.81
  -1  -9   2   58.64   31.58
  -1  -9   1   80.81   67.20
  -1  -9   1   79.79   47.83
  -1  -9   0  119.72   25.48
  -1  -9   0   96.17   67.84
  -1  -9  -1  160.42   43.33
  -1  -9  -1  206.05   42.17
  -1  -9  -2   58.98   32.35
  -1  -9  -2   55.59   41.57
  -1  -9  -3   42.80   30.94
  -1  -9  -3   38.86   26.95
   1   9   4   97.73   22.45
  -1  -9  -4   76.50   41.96
   1   9   5   53.52   41.43
  -1  -9  -5   52.65   22.76
   1   9   6  195.63   35.40
  -1  -9  -6  197.14   99.58
   1   9   7  188.08   36.74
  -1  -9  -7  214.16  129.90
   1   9   8   36.57   21.67
  -1  -9  -8   35.71   24.52
   1   9   9   21.40   18.98
  -1  -9  -9    3.15   13.86
   1   9  10   23.80   26.64
  -1  -9 -10   68.01   61.58
   1   9  11   27.56   24.81
  -1  -9 -11   41.77   43.48
   1   9  12   33.16   26.57
  -1  -9 -12   28.59   26.29
  -1 -10   2   19.00   17.23
  -1 -10   1   59.93   40.99
  -1 -10   0   25.30   20.95
  -1 -10   0   25.43   15.18
  -1 -10  -1    2.10   13.86
  -1 -10  -1    4.60    9.65
  -1 -10  -2    5.03   12.72
  -1 -10  -2   -1.91   25.67
  -1 -10  -3   57.34   32.52
  -1 -10  -3   92.02   48.64
  -1 -10  -4    6.77    8.26
  -1 -10  -4   -8.30   25.84
   1  10   5   69.62   51.30
  -1 -10  -5   66.42   40.86
   1  10   6  243.37   40.52
  -1 -10  -6  269.83  138.34
   1  10   7  224.11   47.10
  -1 -10  -7  224.13  107.47
   1  10   8   35.67   22.00
  -1 -10  -8   43.42   51.39
   1  10   9   43.61   43.92
  -1 -10  -9   53.68   29.91
   1  10  10   75.72   38.18
  -1 -10 -10   58.57   41.60
   1  10  11   32.54   24.44
  -1 -10 -11   32.07   41.15
  -1 -11   0   37.61   38.70
  -1 -11  -1   58.94   39.82
  -1 -11  -2   10.38   14.08
  -1 -11  -3   52.71   33.19
  -1 -11  -4   46.19   28.36
  -1 -11  -5   75.50   40.18
  -1 -11  -6  255.07  116.70
  -1 -11  -7   50.77   27.63
  -1 -11  -8   11.61   16.51
   1  11   9    5.55    7.93
  -1 -11  -9   16.36   25.12
   1  11  10   22.09   18.56
  -1 -11 -10    8.77   22.87
   1  11  11    7.86   10.84
  -1 -11 -11   13.92   26.68
  -1 -12  -1   16.13   13.11
  -1 -12  -2   21.64   15.55
  -1 -12  -3   36.29   34.45
  -1 -12  -4   27.87   30.66
  -1 -12  -5   29.88   19.03
  -1 -12  -6   93.55   44.55
  -1 -12  -7   29.27   27.78
  -1 -12  -8   13.36   14.76
  -1 -12  -9   13.88   25.71
  -1 -12 -10   51.53   27.27
  -1 -13  -4   44.16   20.24
  -1 -13  -5   25.65   21.50
  -1 -13  -6   16.29   19.30
  -1 -13  -7   -8.01   26.07
  -1 -13  -8    9.93   13.12
   2 -13  -6   25.78   24.54
   2 -13  -5   23.45   16.37
   2 -13  -4   12.15   23.43
   2 -12  -8   20.12   17.62
   2 -12  -7   19.34   14.65
   2 -12  -6   29.43   35.71
   2 -12  -5   24.81   31.07
   2 -12  -4   12.87   18.71
   2 -12  -3   10.08    8.27
   2 -12  -2   14.89   18.45
   2 -12  -1   22.60   31.94
   2 -12   0   20.02   21.36
   2 -11  -9   23.84   27.69
   2 -11  -8   17.16   21.48
   2 -11  -7   21.97   33.09
   2 -11  -6   48.21   33.71
   2 -11  -5   31.15   29.01
   2 -11  -4   24.54   24.53
   2 -11  -3   23.65   22.21
   2 -11  -2   18.75   24.92
   2 -11  -1   68.03   50.62
   2 -11   0   68.79   44.23
   2 -11   1   37.55   27.75
   2 -11   2    8.85   10.75
   2 -10 -10   44.57   28.85
   2 -10  -9   29.40   20.39
   2 -10  -8   50.20   34.89
   2 -10  -7  140.83  103.34
   2 -10  -6   87.78   45.86
   2 -10  -5   50.70   28.74
   2 -10  -4   19.47   25.20
   2 -10  -3   -2.09   25.92
   2 -10  -2   13.93   16.16
   2 -10  -1   66.99   31.48
   2 -10   0   38.97   21.38
   2 -10   1   14.00   16.95
   2 -10   2    7.42   11.00
   2 -10   3   10.42   22.87
  -2   9  10   54.81   40.63
   2  -9 -10   76.85   58.36
  -2   9   9   19.14   16.52
   2  -9  -9   35.12   33.94
  -2   9   8   40.83   30.07
   2  -9  -8   25.07   19.49
  -2   9   7  311.57   26.06
   2  -9  -7  275.79  143.93
   2  -9  -6  139.02   75.94
   2  -9  -5   13.14   13.53
   2  -9  -4   86.08   51.41
   2  -9  -3   35.33   19.76
   2  -9  -2  121.04   55.96
   2  -9  -1  346.78   76.88
   2  -9   0   56.35   42.58
   2  -9   1   96.77   51.88
   2  -9   2   66.54   50.43
   2  -9   3    5.41   10.20
   2  -9   4   42.94   34.81
  -2   8  11   48.65   30.45
  -2   8  10   63.16   30.62
   2  -8 -10   75.10   67.16
  -2   8   9    3.52   12.49
   2  -8  -9    8.98   18.02
  -2   8   8   17.15   16.36
   2  -8  -8    3.46   11.90
  -2   8   7  134.99   73.83
   2  -8  -7  128.46   59.29
  -2   8   6  136.73   32.64
   2  -8  -6  123.75   86.33
  -2   8   5   99.98   24.46
   2  -8  -5   71.96   66.59
  -2   8   4  192.73   13.88
   2  -8  -4  179.84   91.51
  -2   8   3  240.92   11.91
   2  -8  -3  230.96  114.33
   2  -8  -2 1276.20   86.76
   2  -8  -1  606.40   79.30
   2  -8   0  161.44  102.25
   2  -8   1   27.95   16.37
   2  -8   1   25.07   19.88
   2  -8   2   51.96   17.28
   2  -8   2   77.70   36.31
   2  -8   3   17.62   32.62
   2  -8   4    4.09   11.91
   2  -8   5   47.03   27.27
   2  -8   6   33.47   20.08
  -2   7  11    2.31   14.58
  -2   7  10   72.65   29.69
   2  -7 -10   51.30   40.42
  -2   7   9   46.25   32.85
   2  -7  -9   33.68   48.04
  -2   7   8  155.63   72.84
   2  -7  -8  122.28   77.85
  -2   7   7   60.01   30.01
   2  -7  -7   83.46   46.54
  -2   7   6  116.29   55.01
   2  -7  -6  112.93   67.30
  -2   7   5  192.35   27.32
   2  -7  -5  216.54   47.26
  -2   7   4   88.57   46.03
   2  -7  -4   93.18   52.36
  -2   7   3   68.84   17.15
   2  -7  -3  102.77   12.35
   2  -7  -3   77.44   51.63
   2  -7  -2  686.52   42.56
   2  -7  -2  629.98  101.13
   2  -7  -1 1699.65   22.36
   2  -7  -1 1881.29   61.48
   2  -7   0  228.65   10.35
   2  -7   0  229.01   50.18
   2  -7   1   74.97   17.27
   2  -7   1   93.94   46.84
   2  -7   2   -0.55   15.64
   2  -7   2  -10.93   21.76
   2  -7   3   52.26   19.27
   2  -7   3   59.63   34.43
   2  -7   4   64.40   21.65
   2  -7   4   43.82   27.02
   2  -7   5   14.27   19.24
   2  -7   5    5.41   20.98
   2  -7   6   39.58   27.03
   2  -7   6   39.74   30.11
   2  -7   7   26.89   18.28
  -2   6  11   39.31   24.81
  -2   6  10   13.94   16.56
   2  -6 -10    6.05   18.19
  -2   6   9   20.29   25.72
   2  -6  -9   18.62   19.55
  -2   6   8  481.48   49.66
   2  -6  -8  491.34   42.14
  -2   6   7  453.13   93.66
   2  -6  -7  450.86   59.74
  -2   6   6   78.84   41.81
   2  -6  -6   86.32   46.30
  -2   6   5  470.37   51.68
   2  -6  -5  489.62   40.79
  -2   6   4   45.15   26.28
   2  -6  -4   58.87   28.52
  -2   6   3  596.46   30.78
   2  -6  -3  656.39   30.14
   2  -6  -3  589.74   40.05
  -2   6   2  436.37   17.52
   2  -6  -2  467.51   21.08
   2  -6  -2  435.92   38.04
   2  -6  -1  116.00   11.37
   2  -6  -1  111.52   10.18
   2  -6  -1  108.15   58.91
   2  -6   0  544.61   38.20
   2  -6   0  568.48   48.25
   2  -6   1  509.11   36.13
   2  -6   1  450.35   36.06
   2  -6   1  502.34   63.94
   2  -6   2   43.81   17.69
   2  -6   2   57.96   45.14
   2  -6   3  280.35   32.93
   2  -6   3  350.12   50.87
   2  -6   4  152.09   29.44
   2  -6   4  124.16   83.35
   2  -6   5   41.92   26.82
   2  -6   5   34.58   21.40
   2  -6   6   11.14   24.26
   2  -6   6    3.43   12.65
   2  -6   7   28.16   20.55
   2  -6   7   18.74   18.72
  -2   5  11   55.67   57.06
  -2   5  10   12.89   20.33
  -2   5   9   70.68   40.06
   2  -5  -9   78.88   43.85
  -2   5   8  223.52  101.42
   2  -5  -8  296.71   34.91
  -2   5   7   88.34   49.99
   2  -5  -7   63.22   36.93
  -2   5   6  -13.42   27.33
   2  -5  -6   20.17   19.25
  -2   5   5   10.65   13.44
   2  -5  -5   18.97   10.83
  -2   5   4  182.67   41.33
   2  -5  -4  161.06   23.27
  -2   5   3 1187.48   44.83
   2  -5  -3 1218.48   48.78
   2  -5  -3 1211.90   52.65
  -2   5   2 1629.78   70.45
   2  -5  -2 1582.66   67.88
   2  -5  -2 1554.26   77.91
   2  -5  -1   23.03    4.21
   2  -5  -1   20.47    7.15
   2  -5  -1   23.44   16.60
   2  -5   0  728.38   31.61
   2  -5   0  789.20   47.11
   2  -5   1 1650.22   57.61
   2  -5   1 1661.56   70.01
   2  -5   2  119.35   17.32
   2  -5   2  153.90   20.53
   2  -5   3   55.91   19.04
   2  -5   3   55.92   39.45
   2  -5   4  448.86   56.28
   2  -5   4  486.09   48.27
   2  -5   5  281.94   46.65
   2  -5   5  306.39   43.73
   2  -5   6  226.29   34.58
   2  -5   6  207.64   34.48
   2  -5   7    9.65   33.95
   2  -5   7   13.52   17.08
   2  -5   8   -0.29   23.34
  -2   5  -8    0.13   16.80
  -2   4  11    5.46   27.74
  -2   4  10    8.17   26.59
  -2   4   9   98.20   40.74
   2  -4  -9   75.83   18.38
  -2   4   8  146.13   31.59
   2  -4  -8  148.05   43.49
  -2   4   7   34.44   32.11
   2  -4  -7   46.83   34.61
  -2   4   6  313.95   41.57
   2  -4  -6  338.00   36.38
  -2   4   5  187.28   32.61
   2  -4  -5  114.73   85.46
  -2   4   4  306.56   30.64
   2  -4  -4  338.66   32.86
  -2   4   3 4702.19  204.90
   2  -4  -3 4960.58  359.07
  -2   4   2 3512.21  145.04
  -2   4   1  158.41    7.90
   2  -4  -1  136.82    8.41
   2  -4  -1  145.76   18.53
   2  -4   0  720.84   29.47
   2  -4   0  642.27   26.81
   2  -4   0  725.12   39.97
  -2   4  -1  146.86    9.60
   2  -4   1  256.31   22.14
   2  -4   2  280.34   21.43
  -2   4  -2  272.47   16.93
   2  -4   2  297.63   25.22
   2  -4   3  474.94   28.59
   2  -4   3  535.56   34.56
   2  -4   4   22.74   25.23
   2  -4   4   17.28   17.66
   2  -4   5  120.13   31.02
   2  -4   5  111.78   29.13
   2  -4   6  440.16   57.94
   2  -4   6  423.02   52.75
   2  -4   7  203.56   40.76
  -2   4  -7  224.62   90.13
   2  -4   8    4.70   28.37
  -2   4  -8    8.25   11.02
   2  -4   9   -3.63   23.84
  -2   4  -9    3.15   16.48
  -2   3  10   -0.33   29.53
  -2   3   9   98.24   38.19
  -2   3   8  197.93   39.93
   2  -3  -8  234.10   26.49
  -2   3   7   53.80   37.56
   2  -3  -7   66.96   45.21
  -2   3   6 1013.92   84.55
   2  -3  -6 1076.81  101.16
  -2   3   5  171.70   27.60
   2  -3  -5  219.96   26.45
  -2   3   4 1553.20   66.52
   2  -3  -4 1541.87   63.81
  -2   3   3 2987.23  130.59
   2  -3  -3 3161.65  137.57
  -2   3   2 1043.57   38.54
   2  -3  -2 1076.62   38.46
   2  -3  -2 1261.58   45.33
  -2   3   1  339.24   14.53
   2  -3  -1  265.60   11.84
   2  -3  -1  274.10   17.34
   2  -3   0  405.60   21.81
  -2   3  -1  329.18   12.93
   2  -3   1  255.27   17.66
   2  -3   2 3279.37  137.24
  -2   3  -2 3054.93  127.83
   2  -3   2 3205.76  137.80
   2  -3   3 1090.31   56.83
   2  -3   3 1097.10   53.74
   2  -3   4  106.65   20.73
   2  -3   4  119.48   68.53
   2  -3   5  572.74   51.30
   2  -3   5  613.34   46.25
   2  -3   6  264.54   40.36
   2  -3   6  250.33   40.03
   2  -3   7   76.26   37.88
  -2   3  -7   42.77   21.83
   2  -3   8   36.83   25.90
  -2   3  -8   36.57   27.82
   2  -3   9    4.80   24.15
  -2   3  -9   30.96   26.50
   2  -3  10    9.11   26.97
  -2   3 -10    8.10   13.22
  -2   2  10   41.71   27.60
  -2   2   9   57.26   49.76
  -2   2   8   90.12   46.97
   2  -2  -8   51.06   27.10
  -2   2   7  138.92   29.92
   2  -2  -7  252.92   38.30
  -2   2   6   -3.78   34.93
   2  -2  -6   22.87   19.22
  -2   2   5   11.04   30.51
   2  -2  -5   18.49   15.90
   2  -2  -4  824.10   37.55
   2  -2  -3 1993.80   86.21
  -2   2   3 1722.16   74.62
   2  -2  -2 1465.54   49.27
   2  -2  -2 1590.75   52.79
  -2   2   2 1462.56   47.89
  -2   2   1 3697.15  111.60
   2  -2  -1 3389.13  101.53
   2  -2  -1 3415.11  103.91
   2  -2   0 5452.26  163.33
  -2   2   0 5591.64  228.31
  -2   2  -1  183.10   11.66
   2  -2   1  191.81   39.33
  -2   2  -1  210.95   14.72
   2  -2   2 1560.67   50.52
   2  -2   2 1510.00   51.66
   2  -2   3 1232.93   58.23
   2  -2   3 1218.71   56.83
   2  -2   4  332.34   26.05
   2  -2   4  368.06   51.56
   2  -2   5  786.03   65.36
   2  -2   5  801.59   60.63
   2  -2   6  468.51   51.82
  -2   2  -6  320.09   25.15
   2  -2   7   26.85   32.30
  -2   2  -7   18.91   19.22
   2  -2   8   21.81   27.93
  -2   2  -8   11.30   15.68
   2  -2   9   26.13   28.54
  -2   2  -9   21.40   17.55
   2  -2  10   31.20   34.87
  -2   2 -10   16.07   23.73
  -2   1  10   43.78   47.70
  -2   1   9   77.56   49.97
  -2   1   8    1.99   34.04
  -2   1   7   18.65   33.18
   2  -1  -7   22.95   20.27
  -2   1   6   19.51   35.58
   2  -1  -6   40.73   13.81
  -2   1   5  266.85   35.51
   2  -1  -5  294.09   20.00
  -2   1   4 1633.91   74.76
   2  -1  -4 1791.58   68.46
  -2   1   4 1642.14   59.50
  -2   1   3 1781.35   83.99
   2  -1  -3 1519.15   65.66
  -2   1   3 1847.28   78.75
  -2   1   2  126.85   16.96
   2  -1  -2   99.53   10.92
  -2   1   2  114.11    9.62
  -2   1   1 5345.75  160.49
   2  -1  -1 5198.18  154.91
   2  -1   1 1984.31   60.88
   2  -1   1 1973.82   64.38
  -2   1  -1 2017.10   63.84
   2  -1   2 2820.77   88.68
  -2   1  -2 2603.14   82.05
   2  -1   3 1472.58   50.97
   2  -1   3 1499.74   51.80
   2  -1   4 1397.16   71.76
   2  -1   4 1451.01   67.93
   2  -1   5 1849.12   78.97
  -2   1  -5 2025.33   78.25
   2  -1   6  362.86   45.58
  -2   1  -6  471.40   42.02
   2  -1   7   65.57   35.70
  -2   1  -7   35.47   22.60
   2  -1   8   23.72   25.79
  -2   1  -8   63.54   18.54
   2  -1   9   26.47   30.07
  -2   1  -9   21.17   16.85
   2  -1  10   77.83   30.34
  -2   1 -10   45.49   53.62
   2  -1  11   24.23   24.28
  -2   1 -11   12.66   23.83
  -2   0   9   63.32   33.69
  -2   0   8   22.70   32.23
  -2   0   7  131.09   48.02
   2   0  -7   79.41   19.21
  -2   0   6  148.48   37.41
   2   0  -6  125.31   21.55
  -2   0   5  555.90   68.30
   2   0  -5  528.94   51.14
  -2   0   4 2570.72  103.29
   2   0  -4 2449.95   85.89
   2   0  -4 2584.81   90.04
  -2   0   3  159.74   23.15
   2   0  -3  221.54   14.29
   2   0  -3  220.29   15.66
  -2   0   2  161.25   18.28
   2   0  -2  120.79    6.93
  -2   0   1 1280.22   46.90
   2   0  -1 1335.91   45.97
   2   0   1 1265.97   41.04
  -2   0  -1 1305.27   41.93
   2   0   1 1267.90   40.68
  -2   0  -1 1376.23   43.43
  -2   0  -2  849.15   32.26
  -2   0  -2  906.26   34.81
  -2   0  -2  881.44   36.42
   2   0   3  435.03   22.59
  -2   0  -3  406.52   19.03
  -2   0  -3  423.53   22.51
   2   0   4 2603.65   86.08
  -2   0  -4 2829.81   92.19
   2   0   5 2755.09  121.47
  -2   0  -5 2894.29  126.05
   2   0   6  673.48   46.26
  -2   0  -6  687.89   41.33
   2   0   7  119.04   39.81
  -2   0  -7   82.15   26.29
   2   0   8   55.15   36.40
  -2   0  -8   53.25   28.57
   2   0   9    7.39   30.91
  -2   0  -9    6.34   11.81
   2   0  10   32.85   37.10
  -2   0 -10   19.17   20.27
   2   0  11   24.50   30.93
  -2   0 -11   27.87   25.13
  -2  -1   9   15.65   32.15
  -2  -1   8   58.63   29.64
  -2  -1   7   44.71   39.20
  -2  -1   6   15.56   34.78
   2   1  -6   10.90   18.13
  -2  -1   5  171.62   41.55
   2   1  -5  212.33   18.83
  -2  -1   4  862.75   73.81
   2   1  -4  882.94   60.84
   2   1  -4  959.90   66.89
  -2  -1   3  835.72   42.14
   2   1  -3  825.57   30.74
   2   1  -3  813.49   30.91
  -2  -1   2  353.17   28.26
   2   1  -2  371.64   17.36
  -2  -1   1 1138.86   42.13
  -2  -1   1 1192.56   36.08
   2   1  -1 1051.12   33.11
  -2  -1   0  147.65   12.70
  -2  -1   0  144.17   16.05
  -2  -1   0  144.54    9.55
   2   1   0  106.72    7.38
  -2  -1  -1 7282.00  295.57
   2   1   2 6373.00  262.24
  -2  -1  -2 6879.36  279.76
  -2  -1  -2 6449.21  264.03
   2   1   2 5506.76  165.01
   2   1   3  893.60   34.55
  -2  -1  -3  780.92   29.17
  -2  -1  -3  800.46   33.85
   2   1   3  877.72   33.34
   2   1   4 3385.93  106.16
  -2  -1  -4 3504.86  110.40
   2   1   5 3494.92  150.92
   2   1   6  147.59   28.49
  -2  -1  -6  137.31   21.87
   2   1   7  129.66   87.25
  -2  -1  -7  156.38   22.52
   2   1   8   19.74   20.13
  -2  -1  -8   47.85   29.59
   2   1   9   80.79   31.12
  -2  -1  -9  106.39   43.78
   2   1  10  116.69   93.51
  -2  -1 -10   95.63   47.35
   2   1  11   20.69   18.97
  -2  -1 -11   19.00   24.12
   2   1  12   13.69   18.45
  -2  -1 -12   10.83   17.36
  -2  -2   8   13.44   48.63
  -2  -2   7    9.93   34.56
  -2  -2   6  205.08   35.28
  -2  -2   5  699.02   98.75
   2   2  -5  654.18   79.48
  -2  -2   4  318.22   36.59
   2   2  -4  300.53   29.77
  -2  -2   3  107.55   48.33
   2   2  -3   71.24   16.34
  -2  -2   2 1753.38   86.02
  -2  -2   2 1538.16   65.25
   2   2  -2 1379.19   59.25
  -2  -2   1  507.07   26.87
  -2  -2   1  461.39   17.82
   2   2  -1  466.96   17.62
  -2  -2   0  211.29   19.12
  -2  -2   0  185.76   10.46
   2   2   0  141.66   10.62
  -2  -2  -1 4485.84  135.28
  -2  -2  -2  701.36   27.81
  -2  -2  -2  590.75   30.58
   2   2   2  671.09   27.40
   2   2   3 3276.87  101.69
  -2  -2  -3 2916.64   96.20
   2   2   4  756.84   30.51
  -2  -2  -4  653.62   32.33
   2   2   5  369.11   29.98
  -2  -2  -5  262.38   28.98
   2   2   6   73.99   50.93
  -2  -2  -6   63.02   17.27
   2   2   7   84.91   42.01
  -2  -2  -7  105.22   20.47
   2   2   8   99.43   63.60
  -2  -2  -8  109.08   67.26
   2   2   9  321.45   48.54
  -2  -2  -9  309.27   81.95
   2   2  10  352.80   87.61
  -2  -2 -10  268.55  109.43
   2   2  11   19.70   23.42
  -2  -2 -11   24.64   23.50
   2   2  12   -2.42   29.22
  -2  -2 -12    6.38   20.01
  -2  -3   8    5.42   30.32
  -2  -3   7   29.23   35.53
  -2  -3   6   54.34   41.04
  -2  -3   5  245.13   39.44
   2   3  -5  245.43   20.26
  -2  -3   4  955.09   95.74
   2   3  -4  904.89   75.20
  -2  -3   3   43.97   25.51
  -2  -3   3   31.14   19.35
  -2  -3   2  717.20   56.23
  -2  -3   2  657.56   28.28
  -2  -3   1  110.22   60.86
  -2  -3   1   91.99   16.52
   2   3  -1   99.94   28.49
  -2  -3   0  587.86   33.59
  -2  -3   0  589.31   29.80
   2   3   0  553.18   27.65
   2   3   1 2430.50   78.44
  -2  -3  -1 2066.58   65.91
   2   3   1 2094.03   67.04
  -2  -3  -2 1007.80   38.75
   2   3   2  929.60   34.95
   2   3   3 2539.71   81.23
  -2  -3  -3 3165.80  103.29
   2   3   4 3428.67  108.85
  -2  -3  -4 3147.68  105.49
   2   3   5  471.57   32.17
  -2  -3  -5  586.77   45.43
   2   3   6  716.21   37.00
  -2  -3  -6  571.21   33.94
   2   3   7   66.89   38.92
  -2  -3  -7  119.50   22.14
   2   3   8  253.14   35.88
  -2  -3  -8  182.03   44.55
   2   3   9  143.88   71.43
  -2  -3  -9  123.58   81.00
   2   3  10  146.76   85.60
  -2  -3 -10  147.34   27.54
   2   3  11   84.64   51.59
  -2  -3 -11   67.99   51.27
   2   3  12   53.18   30.70
  -2  -3 -12   42.01   20.43
  -2  -4   7    0.24   33.42
  -2  -4   6   39.54   29.67
  -2  -4   5  223.23   54.10
  -2  -4   4   29.73   27.49
  -2  -4   4   15.58   10.91
  -2  -4   3  571.84   59.57
  -2  -4   3  549.75   47.45
  -2  -4   2  244.97   30.70
  -2  -4   2  225.03   20.26
  -2  -4   1  356.81   34.88
  -2  -4   1  336.96   28.31
  -2  -4   0 1731.42   80.73
  -2  -4   0 1633.18   79.32
  -2  -4  -1   93.36   18.55
  -2  -4  -1   92.06   13.51
   2   4   2   34.91   18.61
   2   4   3  826.87   40.54
  -2  -4  -3  818.29   45.02
   2   4   4 4574.06  193.02
  -2  -4  -4 4375.36  188.18
   2   4   5  149.11   17.74
  -2  -4  -5  150.10   33.57
   2   4   6  355.84   36.24
  -2  -4  -6  407.64   32.50
   2   4   7  603.40   53.77
  -2  -4  -7  441.87   49.06
   2   4   8  120.09   79.22
  -2  -4  -8  152.88   76.36
   2   4   9  301.10   39.29
  -2  -4  -9  329.52   50.95
   2   4  10   27.06   27.45
  -2  -4 -10   29.88   25.26
   2   4  11    3.21   21.18
  -2  -4 -11   13.06   26.13
   2   4  12   46.95   42.37
  -2  -4 -12   42.37   43.82
  -2  -5   6   45.37   30.50
  -2  -5   5   16.31   31.14
  -2  -5   4   39.09   26.02
  -2  -5   4   45.94   33.18
  -2  -5   3  -15.92   25.33
  -2  -5   3    7.06   10.56
  -2  -5   2  467.79   49.92
  -2  -5   2  413.26   39.81
  -2  -5   1  388.52   33.34
  -2  -5   1  407.34   63.72
  -2  -5   0 1237.49   56.51
  -2  -5   0 1178.36   71.88
  -2  -5  -1 1473.26   60.46
  -2  -5  -1 1336.58   57.92
   2   5   2  310.09   21.76
  -2  -5  -2  352.53   52.46
   2   5   3 3061.53  130.69
  -2  -5  -3 2780.17  124.00
   2   5   4 1171.75   56.67
  -2  -5  -4 1223.45   67.04
   2   5   5   37.90   31.14
  -2  -5  -5   23.58   24.43
   2   5   6  114.09   20.23
  -2  -5  -6  153.70   87.47
   2   5   7  319.05   67.87
  -2  -5  -7  422.71   52.52
   2   5   8  416.25   54.90
  -2  -5  -8  468.55   58.17
   2   5   9  522.81  116.51
  -2  -5  -9  560.82   76.73
   2   5  10   68.28   25.45
  -2  -5 -10   42.76   21.47
   2   5  11   88.38   53.17
  -2  -5 -11  122.10   29.04
   2   5  12   48.90   27.17
  -2  -5 -12   56.50   26.69
   2   5  13   26.87   19.21
  -2  -5 -13   19.48   18.71
  -2  -6   6   98.43   46.03
  -2  -6   5  130.91   41.34
  -2  -6   4   12.35   25.76
  -2  -6   3  173.44   42.26
  -2  -6   3   79.13   50.37
  -2  -6   2   23.48   23.18
  -2  -6   2    8.13   10.56
  -2  -6   1   69.60   30.55
  -2  -6   1   61.84   40.75
  -2  -6   0  363.85   30.74
  -2  -6   0  383.98   24.08
  -2  -6  -1  209.36   19.67
  -2  -6  -1  252.66   31.11
   2   6   2  479.36   38.62
  -2  -6  -2  802.40   62.34
   2   6   3 1621.96   63.57
  -2  -6  -3 1831.33   77.60
   2   6   4  745.12   39.52
  -2  -6  -4  666.05   40.81
   2   6   5   69.65   40.20
  -2  -6  -5   70.37   43.02
   2   6   6  227.64   25.96
  -2  -6  -6  235.40  127.87
   2   6   7  218.54   33.25
  -2  -6  -7  220.01   33.01
   2   6   8  486.71   56.89
  -2  -6  -8  428.26   60.99
   2   6   9  457.61   60.22
  -2  -6  -9  493.25   64.94
   2   6  10   62.41   33.43
  -2  -6 -10   64.25   56.32
   2   6  11   15.02   27.99
  -2  -6 -11   49.97   27.23
   2   6  12   58.75   45.22
  -2  -6 -12   72.40   51.61
   2   6  13   13.55   23.19
  -2  -6 -13   15.24   26.91
  -2  -7   5   34.06   25.25
  -2  -7   4   57.95   38.93
  -2  -7   3   14.95   26.22
  -2  -7   2   46.54   31.95
  -2  -7   2   37.06   20.56
  -2  -7   1   78.29   24.66
  -2  -7   1   72.39   31.85
  -2  -7   0  244.96   24.33
  -2  -7   0  260.07   95.04
  -2  -7  -1  267.60   24.39
  -2  -7  -1  250.72   24.12
  -2  -7  -2  793.83   55.38
  -2  -7  -2  805.10   59.42
   2   7   3  294.31   24.94
  -2  -7  -3  359.19   41.55
   2   7   4  428.32   68.38
  -2  -7  -4  387.61   36.95
   2   7   5   69.19   35.88
  -2  -7  -5   27.71   25.65
   2   7   6  341.92   53.73
  -2  -7  -6  357.89   50.02
   2   7   7    3.27   10.43
  -2  -7  -7  -20.25   36.57
   2   7   8  488.01   71.87
  -2  -7  -8  547.86   76.89
   2   7   9  293.53   64.00
  -2  -7  -9  266.09  134.66
   2   7  10   19.07   15.45
  -2  -7 -10   30.82   40.44
   2   7  11   58.54   33.65
  -2  -7 -11   65.71   30.12
   2   7  12   45.63   25.82
  -2  -7 -12   90.75   29.57
   2   7  13   15.53   17.52
  -2  -7 -13   34.21   34.27
  -2  -8   4   32.45   33.67
  -2  -8   3   63.90   26.47
  -2  -8   2   71.19   23.74
  -2  -8   2   47.09   42.17
  -2  -8   1   14.17   18.69
  -2  -8   1   27.67   22.58
  -2  -8   0  109.17   26.54
  -2  -8   0   78.35   39.10
  -2  -8  -1   34.26   27.84
  -2  -8  -1   46.08   29.40
  -2  -8  -2  551.49   74.84
  -2  -8  -2  553.96  120.37
  -2  -8  -3  508.52   69.21
   2   8   4   58.87   30.03
  -2  -8  -4   64.48   42.07
   2   8   5  127.17   61.74
  -2  -8  -5  124.28   58.71
   2   8   6   58.78   29.83
  -2  -8  -6   52.61   27.79
   2   8   7  219.83   23.61
  -2  -8  -7  225.53  132.74
   2   8   8  315.74   56.36
  -2  -8  -8  346.18  135.88
   2   8   9   55.13   33.17
  -2  -8  -9   34.41   29.76
   2   8  10   51.21   25.74
  -2  -8 -10   52.02   31.97
   2   8  11  106.32   57.61
  -2  -8 -11  141.61   35.55
   2   8  12   64.85   31.23
  -2  -8 -12   93.45   58.23
  -2  -9   3   29.70   27.42
  -2  -9   2   16.36   18.75
  -2  -9   1  141.19   30.98
  -2  -9   1  146.17   20.31
  -2  -9   0   70.56   55.95
  -2  -9   0   79.50   51.37
  -2  -9  -1   93.90   42.00
  -2  -9  -1  115.54   50.67
  -2  -9  -2  193.49   24.70
  -2  -9  -2  230.67   93.80
  -2  -9  -3  115.03   72.21
  -2  -9  -3  139.72   85.42
   2   9   4  135.47   26.06
  -2  -9  -4  130.27   47.41
   2   9   5   48.67   23.47
  -2  -9  -5   67.57   30.65
   2   9   6   47.49   22.57
  -2  -9  -6   63.81   34.43
   2   9   7  508.06   53.33
  -2  -9  -7  471.50   43.09
   2   9   8  304.24   32.58
  -2  -9  -8  215.23  105.26
   2   9   9   24.23   14.43
  -2  -9  -9    1.06   31.91
   2   9  10   14.63   17.82
  -2  -9 -10   63.86   44.10
   2   9  11   98.92   43.29
  -2  -9 -11  111.77   34.28
   2   9  12   19.15   24.99
  -2  -9 -12   26.48   25.64
  -2 -10   1    2.17   16.96
  -2 -10   0   59.73   35.71
  -2 -10   0   57.50   35.51
  -2 -10  -1  108.90   22.91
  -2 -10  -1   72.65   44.18
  -2 -10  -2  105.79   20.39
  -2 -10  -2  105.91   69.22
  -2 -10  -3   75.80   49.02
  -2 -10  -3   82.21   37.31
  -2 -10  -4   -0.47   13.11
  -2 -10  -4   12.49   19.00
   2  10   5  109.59   47.15
  -2 -10  -5  142.78   94.44
   2  10   6   15.90   15.31
  -2 -10  -6   11.60   15.71
   2  10   7  173.98   77.16
  -2 -10  -7  222.85  118.32
   2  10   8  263.30   38.57
  -2 -10  -8  211.26  132.97
   2  10   9   43.26   23.56
  -2 -10  -9   42.76   23.88
   2  10  10   41.09   32.78
  -2 -10 -10   48.10   42.14
   2  10  11   27.72   19.60
  -2 -10 -11   32.63   31.05
   2  10  12   47.02   23.36
  -2 -10 -12   11.59   26.16
  -2 -11   0   12.74    9.26
  -2 -11  -1   66.81   46.63
  -2 -11  -2  116.16   53.95
  -2 -11  -3    7.63   15.21
  -2 -11  -4    9.29    6.16
  -2 -11  -4   25.03   20.83
  -2 -11  -5   26.75   13.59
  -2 -11  -5   32.48   17.59
   2  11   6   17.95   16.99
  -2 -11  -6   13.58   14.01
   2  11   7   16.48   15.03
  -2 -11  -7   22.18   26.79
   2  11   8   24.25   19.03
  -2 -11  -8   23.15   19.15
   2  11   9   26.03   15.35
  -2 -11  -9   12.65   24.47
   2  11  10   55.78   47.13
  -2 -11 -10   83.13   85.67
   2  11  11    0.48   10.46
  -2 -11 -11    9.90   19.51
  -2 -12  -2   16.58   17.24
  -2 -12  -3   47.26   38.53
  -2 -12  -4   10.09   10.97
  -2 -12  -5   29.54   29.29
  -2 -12  -6   96.04   43.56
  -2 -12  -7   63.45   38.90
  -2 -12  -8    1.86   17.92
  -2 -12  -9   -2.59   27.60
  -2 -12 -10   17.15   19.00
  -2 -13  -5   30.48   24.56
  -2 -13  -6   37.29   23.18
  -2 -13  -7   40.03   26.27
  -2 -13  -8   27.60   23.09
   3 -12  -7    9.72   15.70
   3 -12  -6   15.20   21.60
   3 -12  -5   32.77   33.26
   3 -12  -4   14.41   26.14
   3 -12  -3   -0.43   27.70
   3 -12  -2   25.26   28.62
   3 -12  -1   -8.64   23.11
   3 -12   0   30.06   26.19
   3 -11  -8   18.17   24.71
   3 -11  -7    7.72   13.89
   3 -11  -6  141.59   78.57
   3 -11  -5  110.42   46.39
   3 -11  -4   17.45   14.96
   3 -11  -3   15.42   20.71
   3 -11  -2    7.12   22.14
   3 -11  -1   14.91   32.68
   3 -11   0   12.55   15.55
   3 -11   1   24.49   19.08
   3 -11   2   29.88   35.38
   3 -10  -9   43.18   31.92
   3 -10  -8    2.85   12.51
   3 -10  -7   12.35   17.37
   3 -10  -6  109.35   72.86
   3 -10  -5  196.09  130.73
   3 -10  -4   17.63   25.04
   3 -10  -3   42.23   26.08
   3 -10  -2   20.50   28.32
   3 -10  -1   68.58   39.14
   3 -10   0  105.40   55.23
   3 -10   1   35.06   27.45
   3 -10   2   47.74   36.13
   3 -10   3   72.50   45.34
   3  -9 -10   14.48   15.21
   3  -9  -9   47.37   29.32
   3  -9  -8   29.61   27.36
   3  -9  -7   33.27   39.01
   3  -9  -6   80.84   51.97
   3  -9  -5   35.10   30.79
   3  -9  -4   50.95   38.72
   3  -9  -3   96.18   39.36
   3  -9  -2   -3.18   27.43
   3  -9  -1  229.63  105.96
   3  -9   0  389.36   40.35
   3  -9   1  100.01   62.26
   3  -9   2   10.09   21.24
   3  -9   3   18.97   13.84
   3  -9   4   19.16   18.02
   3  -9   5   16.69   21.57
  -3   8  10   10.53   15.37
  -3   8   9    9.39   19.68
   3  -8  -9    4.61   15.97
  -3   8   8   39.13   24.92
   3  -8  -8   24.35   22.66
  -3   8   7  302.64   73.31
   3  -8  -7  256.19   32.54
  -3   8   6  462.65   27.36
   3  -8  -6  493.25   58.24
  -3   8   5   -1.40    8.20
   3  -8  -5    8.21   17.73
   3  -8  -4  191.37   81.32
   3  -8  -3  117.94   78.11
   3  -8  -2  302.01  103.11
   3  -8  -1  190.67   99.23
   3  -8   0  107.54   49.50
   3  -8   1  193.52   97.62
   3  -8   2  155.85   65.07
   3  -8   3   33.03   22.01
   3  -8   4    9.18   12.97
   3  -8   5   -0.28   20.88
   3  -8   6    5.61    8.36
  -3   7  10   44.20   23.98
  -3   7   9    9.85   14.76
   3  -7  -9    4.79    7.50
  -3   7   8   57.70   35.00
   3  -7  -8   48.34   28.96
  -3   7   7  297.76   58.50
   3  -7  -7  243.77  113.74
  -3   7   6  481.86   60.64
   3  -7  -6  359.75   47.52
  -3   7   5   66.05   55.17
   3  -7  -5   65.72   37.02
  -3   7   4  240.78   15.73
   3  -7  -4  212.20   29.91
  -3   7   3  204.55   10.64
   3  -7  -3  202.41   11.08
   3  -7  -3  218.55   61.33
   3  -7  -2  408.71   34.48
   3  -7  -1  460.06   41.68
   3  -7   0  181.91   81.59
   3  -7   1  349.82   42.90
   3  -7   2  288.19   18.12
   3  -7   2  299.44   83.72
   3  -7   3  148.47   22.59
   3  -7   3  127.71   61.23
   3  -7   4    7.71   13.00
   3  -7   4   18.17   20.99
   3  -7   5   46.61   23.44
   3  -7   6   14.36   14.39
  -3   6  10   18.80   16.49
  -3   6   9   65.22   71.31
  -3   6   8   79.52   37.11
   3  -6  -8   39.64   28.55
  -3   6   7  530.88   70.91
   3  -6  -7  527.28   36.65
  -3   6   6  111.96   87.34
   3  -6  -6  124.98   70.84
  -3   6   5   19.07   14.00
   3  -6  -5   11.34   12.67
  -3   6   4  168.15   39.36
   3  -6  -4  118.93   82.11
  -3   6   3   17.18   14.15
   3  -6  -3    9.27    4.63
   3  -6  -3   15.83   31.07
  -3   6   2  569.92   38.67
   3  -6  -2  558.60   37.89
   3  -6  -2  578.12   63.87
   3  -6  -1 1967.49  140.25
   3  -6   0   94.51   72.10
   3  -6   1  840.77   49.81
   3  -6   1  929.97   55.32
   3  -6   1  938.15   69.81
   3  -6   2  443.47   20.06
   3  -6   2  396.59   63.12
   3  -6   3   64.29   19.84
   3  -6   3   60.49   34.07
   3  -6   4   65.92   20.57
   3  -6   4   80.61   37.88
   3  -6   5   13.55   16.05
   3  -6   5   15.33   13.27
   3  -6   6   13.69   18.44
   3  -6   6   13.08   13.50
   3  -6   7   81.67   25.53
   3  -6   7   50.87   31.36
   3  -6   8    4.43   11.53
  -3   6  -8   17.81   20.26
  -3   5  10   -2.74   20.86
  -3   5   9   11.68   27.95
  -3   5   8  158.69   32.34
   3  -5  -8  102.10   76.11
  -3   5   7  217.92   34.64
   3  -5  -7  192.12   92.02
  -3   5   6  171.51   35.84
   3  -5  -6  140.34   90.30
  -3   5   5  395.24   37.29
   3  -5  -5  292.55   30.73
  -3   5   4  235.43   25.58
   3  -5  -4  120.82   69.25
  -3   5   3  270.66   26.75
   3  -5  -3  259.83   36.45
  -3   5   2  773.32   31.11
   3  -5  -2  927.22   34.19
   3  -5  -2  992.70   49.00
   3  -5  -1 1757.15   67.47
   3  -5   0  612.51   36.23
   3  -5   1  734.72   25.27
   3  -5   1  737.57   25.40
   3  -5   1  742.58   40.54
   3  -5   2  691.66   49.44
  -3   5  -2  551.81   41.98
   3  -5   2  588.93   49.50
   3  -5   3   98.33   19.17
   3  -5   3   89.58   64.12
   3  -5   4  168.63   28.31
   3  -5   4  130.62   86.35
   3  -5   5   93.22   21.78
   3  -5   5   96.48   36.43
   3  -5   6  139.62   25.85
   3  -5   6  134.99   67.83
   3  -5   7   52.22   31.11
   3  -5   7   29.79   17.05
   3  -5   8   60.21   21.92
  -3   5  -8   52.65   40.31
   3  -5   9    0.06   19.85
  -3   5  -9    2.71   12.48
  -3   4  10   19.17   27.30
  -3   4   9   68.75   33.34
  -3   4   8  156.95   47.94
  -3   4   7  294.71   50.43
   3  -4  -7  294.76   23.94
  -3   4   6  204.26   34.95
   3  -4  -6  160.63   19.56
  -3   4   5  230.89   39.03
   3  -4  -5  168.15   80.43
  -3   4   4  253.21   30.53
   3  -4  -4  213.36   23.20
  -3   4   3  227.74   27.07
   3  -4  -3  226.57   26.11
  -3   4   2 2510.84  107.81
   3  -4  -2 2468.58  105.42
   3  -4  -2 2627.90  126.44
  -3   4   1 1525.06   63.76
   3  -4  -1 1857.87   77.27
   3  -4  -1 1819.73   81.96
   3  -4   1  483.91   20.37
  -3   4  -1  593.00   24.80
   3  -4   1  498.53   34.66
   3  -4   2 1286.45   46.22
  -3   4  -2 1291.54   46.70
   3  -4   2 1199.47   53.96
   3  -4   3   40.80   15.38
   3  -4   3   32.41   24.24
   3  -4   4  396.66   30.05
   3  -4   4  379.15   32.05
   3  -4   5  103.54   27.05
   3  -4   5   91.36   64.56
   3  -4   6  237.77   31.74
   3  -4   6  225.80   34.75
   3  -4   7  290.34   36.52
   3  -4   7  306.73   30.83
   3  -4   8   56.74   30.96
  -3   4  -8   59.48   26.72
   3  -4   9    6.16   21.29
  -3   4  -9    2.85    7.93
  -3   3  10   13.62   29.41
  -3   3   9   38.33   31.82
  -3   3   8  330.00   43.13
  -3   3   7  147.14   45.23
   3  -3  -7  186.50   22.70
  -3   3   6   83.85   31.29
   3  -3  -6   85.49   56.28
  -3   3   5   61.56   26.72
   3  -3  -5  124.83   20.58
  -3   3   4  175.70   35.66
   3  -3  -4  115.08   34.42
  -3   3   3  999.28   48.68
   3  -3  -3  981.49   45.43
  -3   3   2  759.56   43.58
   3  -3  -2  665.96   33.74
  -3   3   1  455.11   25.26
   3  -3  -1  619.60   28.30
   3  -3  -1  609.30   31.37
  -3   3   0 2444.53   72.74
  -3   3   0 2486.21   74.85
   3  -3   0 2328.19   76.94
  -3   3  -1 2237.99   66.78
   3  -3   1 2538.15   83.34
   3  -3   2  631.40   30.27
  -3   3  -2  599.55   28.77
   3  -3   2  629.99   35.87
   3  -3   3  639.50   34.16
   3  -3   3  582.46   37.25
   3  -3   4  455.11   35.99
   3  -3   4  401.03   71.68
   3  -3   5   49.18   28.13
   3  -3   5   49.34   28.06
   3  -3   6  188.34   25.13
   3  -3   6  173.92   87.39
   3  -3   7  118.88   25.41
  -3   3  -7  166.93   27.67
   3  -3   8  125.55   90.89
  -3   3  -8  144.63   83.70
   3  -3   9   73.37   42.09
  -3   3  -9   67.14   32.76
   3  -3  10    9.64   21.25
  -3   3 -10    3.00    6.11
  -3   2   9   29.71   44.87
  -3   2   8  152.24   52.99
  -3   2   7   85.46   36.03
  -3   2   6  344.13   68.75
   3  -2  -6  269.26   55.99
  -3   2   5  491.11   48.96
   3  -2  -5  477.74   34.74
  -3   2   4   27.11   22.56
   3  -2  -4   21.25   11.88
  -3   2   4   29.79    9.93
  -3   2   3 2332.74   92.54
   3  -2  -3 2200.88   85.50
  -3   2   3 2088.71   73.13
  -3   2   2 1889.22   85.23
   3  -2  -2 2039.73   87.04
  -3   2   2 1759.89   75.32
  -3   2   1  365.34   17.98
   3  -2  -1  445.61   18.77
   3  -2  -1  424.83   24.99
  -3   2   1  379.67   17.17
  -3   2   0 1756.03   54.99
  -3   2   0 1692.63   52.72
   3  -2   0 1975.38   64.90
  -3   2   0 1680.73   54.84
  -3   2  -1 2510.35   75.20
   3  -2   1 2236.10   71.37
   3  -2   2  102.48    8.03
  -3   2  -2   96.83    9.58
   3  -2   2  117.24   14.54
   3  -2   3  544.97   28.74
  -3   2  -3  384.29   23.03
   3  -2   3  531.65   44.96
   3  -2   4  464.23   32.65
   3  -2   4  408.74   28.63
   3  -2   5  638.60   35.60
   3  -2   5  658.80   40.84
   3  -2   6  227.95   34.72
  -3   2  -6  250.37   28.47
   3  -2   7  363.83   63.97
  -3   2  -7  399.44   56.69
   3  -2   8    3.41   23.93
  -3   2  -8   15.74   21.63
   3  -2   9   65.93   39.87
  -3   2  -9   76.91   30.08
   3  -2  10   47.05   44.17
  -3   2 -10   63.18   21.73
   3  -2  11    5.17   21.50
  -3   2 -11    9.33   17.73
  -3   1   9   66.08   39.12
  -3   1   8   70.60   36.43
  -3   1   7  -13.44   35.06
  -3   1   6   41.85   49.08
   3  -1  -6   24.44   19.02
  -3   1   5  159.28   41.96
   3  -1  -5  157.82   16.60
  -3   1   4   44.73   34.15
  -3   1   3 2280.86   86.99
  -3   1   3 2506.38   84.42
  -3   1   2 2850.34  117.84
  -3   1   1  350.45   14.41
  -3   1   0 4131.76  127.15
   3  -1   0 3674.46  112.98
  -3   1   0 3964.04  118.10
   3  -1   1 1999.45   61.59
  -3   1  -1 2387.28   72.69
   3  -1   1 2094.94   66.48
   3  -1   2   17.17    9.02
  -3   1  -2   32.89   20.16
   3  -1   2   20.68   11.73
   3  -1   3  311.83   15.42
   3  -1   3  378.00   23.05
   3  -1   4   56.65   37.76
   3  -1   4   65.36   49.77
   3  -1   5  966.58   45.36
  -3   1  -5  854.99   40.65
   3  -1   6 2922.35   66.12
  -3   1  -6 2751.27  190.04
   3  -1   7  308.48   96.57
  -3   1  -7  285.43   29.94
   3  -1   8   63.03   44.51
  -3   1  -8   67.02   22.91
   3  -1   9   37.95   42.94
  -3   1  -9   14.22   21.59
   3  -1  10   46.55   34.53
  -3   1 -10   35.52   42.42
   3  -1  11   14.30   21.38
  -3   1 -11    9.60   16.63
  -3   0   9   90.69   55.89
  -3   0   8  112.50   56.59
  -3   0   7   25.70   47.87
  -3   0   6   79.13   41.74
  -3   0   5   82.95   29.83
  -3   0   4  446.77   49.51
   3   0  -4  435.63   12.33
  -3   0   3  519.79   44.14
   3   0  -3  471.12   17.73
  -3   0   2  529.94   37.58
  -3   0   1 1662.91   57.90
  -3   0   0 4273.98  129.65
   3   0   1 2510.14   80.86
  -3   0  -1 2236.62   73.18
  -3   0  -1 2365.19   72.47
   3   0   2 1748.59   57.01
  -3   0  -2 1645.81   53.08
  -3   0  -2 1601.39   52.04
  -3   0  -2 1565.98   52.16
   3   0   3  857.70   31.09
  -3   0  -3  782.38   32.54
   3   0   4  561.75   28.35
  -3   0  -4  593.56   33.62
   3   0   5  992.00   50.38
  -3   0  -5  874.31   48.95
   3   0   6  968.60   46.99
  -3   0  -6  933.23   51.29
   3   0   7  495.34   43.64
  -3   0  -7  413.36   29.35
   3   0   8  108.51   81.92
  -3   0  -8  162.25   68.20
   3   0   9   43.74   37.80
  -3   0  -9   44.76   21.74
   3   0  10   30.90   25.48
  -3   0 -10   41.44   30.53
   3   0  11   10.72   21.72
  -3   0 -11   41.32   20.50
   3   0  12   10.83   14.04
  -3   0 -12    7.31   18.13
  -3  -1   8   35.49   49.16
  -3  -1   7   23.31   33.01
  -3  -1   6   38.42   33.34
  -3  -1   5   12.62   35.79
  -3  -1   4  996.39   81.61
   3   1  -4  805.79   49.65
  -3  -1   3  756.33   67.74
   3   1  -3  785.47   52.66
  -3  -1   2  189.50   87.27
   3   1  -2  173.48   13.47
   3   1  -2  191.70   14.82
  -3  -1   1  817.13   43.98
  -3  -1   0 2716.40   88.34
   3   1   0 2631.01   77.49
   3   1   1 2815.23   88.24
  -3  -1  -1 2508.85   77.84
   3   1   1 2622.16   79.63
   3   1   2 2379.82   82.07
  -3  -1  -2 2228.17   71.27
   3   1   2 2100.64   65.60
   3   1   3 1665.02   56.64
  -3  -1  -3 1547.89   55.54
   3   1   4   45.06   36.56
  -3  -1  -4   85.85   28.02
  -3  -1  -5 3815.10  167.58
   3   1   6  400.14   44.85
  -3  -1  -6  435.73   34.64
   3   1   7   62.70   44.95
  -3  -1  -7   68.82   19.63
   3   1   8   89.74   55.36
  -3  -1  -8  133.61   52.21
   3   1   9  181.82   71.05
  -3  -1  -9  226.89   28.51
   3   1  10  111.11   52.13
  -3  -1 -10   84.87   22.47
   3   1  11  121.87   56.97
  -3  -1 -11  116.45   26.88
   3   1  12   26.97   17.63
  -3  -1 -12   24.32   25.40
  -3  -2   8   36.43   35.84
  -3  -2   7   39.72   50.40
  -3  -2   6   37.39   37.85
  -3  -2   5  218.41   47.13
  -3  -2   4  306.71   52.73
  -3  -2   3  418.60   39.36
   3   2  -3  406.17   12.99
  -3  -2   2  339.17   35.51
  -3  -2   2  309.66   24.06
   3   2  -2  277.70   24.27
  -3  -2   1 1644.78   79.13
  -3  -2   1 1420.59   59.43
   3   2  -1 1199.62   50.89
  -3  -2   0 1090.10   54.60
  -3  -2   0 1002.81   43.81
   3   2   1  100.57   13.77
  -3  -2  -1  113.96    9.84
   3   2   1  102.35   18.11
   3   2   2   18.55   10.93
  -3  -2  -2   80.66   40.79
   3   2   2    7.38   10.15
   3   2   3  631.51   27.37
  -3  -2  -3  601.72   29.70
   3   2   4 1158.75   42.38
  -3  -2  -4 1255.21   47.99
   3   2   5 3274.93  147.08
  -3  -2  -5 3310.73  144.69
   3   2   6  909.91   41.05
  -3  -2  -6  792.28   41.47
   3   2   7  321.47   49.90
  -3  -2  -7  328.58   35.98
   3   2   8  511.35   45.54
  -3  -2  -8  534.46   54.28
   3   2   9   50.36   24.35
  -3  -2  -9   52.44   22.60
   3   2  10   56.61   45.15
  -3  -2 -10   54.59   42.73
   3   2  11   19.43   20.70
  -3  -2 -11    5.76   11.96
   3   2  12   11.35   17.30
  -3  -2 -12    9.24   11.05
  -3  -3   7   28.85   33.07
  -3  -3   6   28.67   35.72
  -3  -3   5   42.81   29.34
  -3  -3   4  383.73   61.83
   3   3  -4  465.03   52.04
  -3  -3   3  218.32   32.88
  -3  -3   3  181.32   11.65
  -3  -3   2  470.31   45.69
  -3  -3   2  454.74   33.11
   3   3  -2  371.30   28.23
  -3  -3   1 1500.80   63.22
  -3  -3   1 1356.58   51.19
   3   3  -1 1162.40   43.03
  -3  -3   0  541.70   38.82
  -3  -3   0  530.06   26.40
   3   3   0  417.55   22.38
  -3  -3  -1  644.41   36.65
  -3  -3  -1  613.03   30.77
   3   3   1  595.57   30.76
   3   3   2 1916.55   65.24
  -3  -3  -2 1580.30   56.01
   3   3   3  355.36   21.07
  -3  -3  -3  315.60   68.12
   3   3   4 1920.30   84.06
  -3  -3  -4 1416.92   69.73
   3   3   5 1901.96   85.83
  -3  -3  -5 1519.83   76.58
   3   3   6 1587.82   70.83
  -3  -3  -6 1522.55   64.12
   3   3   7   72.81   45.83
  -3  -3  -7  118.21   34.80
   3   3   8  730.46   56.80
  -3  -3  -8  837.64   69.76
   3   3   9   26.76   22.63
  -3  -3  -9   24.59   24.26
   3   3  10   97.59   53.98
  -3  -3 -10  110.12   62.64
   3   3  11   47.00   31.97
  -3  -3 -11   16.52   24.21
   3   3  12   46.74   36.88
  -3  -3 -12   52.47   32.16
   3   3  13   22.60   25.31
  -3  -3 -13   23.61   21.77
  -3  -4   6    9.91   33.66
  -3  -4   5  119.11   48.31
  -3  -4   4  225.51   37.10
  -3  -4   3   70.83   39.09
  -3  -4   3   56.91   36.93
  -3  -4   2  761.20   74.97
  -3  -4   2  638.08   59.84
  -3  -4   1  640.44   56.40
  -3  -4   1  535.41   39.36
  -3  -4   0  278.80   33.66
  -3  -4   0  282.34   26.76
  -3  -4  -1   93.55   54.68
  -3  -4  -1   89.06   45.91
   3   4   2  908.49   47.24
  -3  -4  -2  902.59   46.13
   3   4   3 1283.10   61.41
  -3  -4  -3 1432.51   71.56
   3   4   4 4937.91  355.73
  -3  -4  -4 4561.42  198.18
   3   4   5 2475.39  128.93
  -3  -4  -5 2003.23   94.07
   3   4   6  188.63   65.95
  -3  -4  -6  174.41   27.02
   3   4   7  292.86   27.63
  -3  -4  -7  328.13   46.85
   3   4   8  365.94   61.55
  -3  -4  -8  386.97   36.47
   3   4   9  378.09   59.37
  -3  -4  -9  358.25   54.09
   3   4  10   92.84   58.51
  -3  -4 -10   79.23   26.82
   3   4  11   73.64   46.00
  -3  -4 -11   51.60   26.14
   3   4  12   24.16   36.61
  -3  -4 -12    8.74   16.63
   3   4  13   46.02   20.88
  -3  -4 -13   39.74   32.06
  -3  -5   6   33.91   32.00
  -3  -5   5   15.56   33.19
  -3  -5   4   66.10   40.06
  -3  -5   3  102.24   39.65
  -3  -5   2  353.65   58.21
  -3  -5   2  326.93   42.33
  -3  -5   1  607.25   58.77
  -3  -5   1  551.63   47.51
  -3  -5   0  263.15   25.49
  -3  -5   0  278.89   42.11
  -3  -5  -1  289.02   52.77
  -3  -5  -1  327.30   59.00
   3   5   2  135.03   22.84
  -3  -5  -2   78.90   21.53
  -3  -5  -3 1406.82   60.08
   3   5   5  727.34   41.05
  -3  -5  -5  675.39   43.04
   3   5   6  149.51   22.27
  -3  -5  -6  215.87   36.84
   3   5   7  861.02   74.49
  -3  -5  -7  825.47   76.77
   3   5   8  129.96   94.83
  -3  -5  -8   90.59   43.86
   3   5   9  512.04   84.60
  -3  -5  -9  419.11   68.18
   3   5  10  308.43   35.10
  -3  -5 -10  225.34  133.49
   3   5  11   17.66   21.77
  -3  -5 -11   19.49   27.91
   3   5  12   12.67   14.44
  -3  -5 -12   26.60   22.49
   3   5  13   28.14   30.70
  -3  -5 -13   41.23   41.28
  -3  -6   5   86.29   35.32
  -3  -6   4   86.43   41.24
  -3  -6   3   43.24   25.95
  -3  -6   2   19.53   29.47
  -3  -6   2   21.46   18.96
  -3  -6   1  241.23   35.99
  -3  -6   1  212.88   17.86
  -3  -6   0   43.05   25.62
  -3  -6   0   53.48   28.47
  -3  -6  -1  564.71   50.71
  -3  -6  -1  507.71   37.71
  -3  -6  -2    6.66    9.85
  -3  -6  -2   15.59   13.91
   3   6   3 1471.79  103.92
  -3  -6  -3 1468.86  106.66
   3   6   4 1290.98   91.92
  -3  -6  -4 1376.74  104.96
   3   6   5  146.00   18.58
  -3  -6  -5  198.56   47.34
   3   6   6   85.58   52.38
  -3  -6  -6  178.16   99.95
   3   6   7  293.65   25.27
  -3  -6  -7  350.69   55.53
   3   6   8  143.49   66.77
  -3  -6  -8  115.82   68.52
   3   6   9  182.87   34.34
  -3  -6  -9  207.06   35.42
   3   6  10   90.43   40.11
  -3  -6 -10   94.17   56.07
   3   6  11   44.31   25.90
  -3  -6 -11   40.48   24.61
   3   6  12  169.11   79.20
  -3  -6 -12  121.36   83.89
   3   6  13   48.57   32.54
  -3  -6 -13   37.51   24.16
  -3  -7   4   95.91   36.11
  -3  -7   3  176.64   43.27
  -3  -7   2  120.51   37.18
  -3  -7   1   96.71   56.56
  -3  -7   1  102.62   28.58
  -3  -7   0   53.53   22.20
  -3  -7   0   68.15   33.70
  -3  -7  -1  131.53   43.72
  -3  -7  -1  123.45   52.87
  -3  -7  -2   19.98   20.23
  -3  -7  -2    8.45   11.56
   3   7   3  633.68   50.78
  -3  -7  -3  538.93   43.56
   3   7   4 1245.78   89.66
  -3  -7  -4 1208.93   85.20
   3   7   5  325.61   42.33
  -3  -7  -5  378.19   70.34
   3   7   6  270.69   65.16
  -3  -7  -6  293.84   48.30
   3   7   7   53.95   25.40
  -3  -7  -7   78.04   32.34
   3   7   8  616.08  131.69
  -3  -7  -8  559.79   86.19
   3   7   9  107.33   56.22
  -3  -7  -9   71.14   56.68
   3   7  10   20.72   25.23
  -3  -7 -10   17.34   29.11
   3   7  11   20.41   17.84
  -3  -7 -11   11.94   28.68
   3   7  12  168.14   69.43
  -3  -7 -12  184.18   38.98
   3   7  13   47.62   63.85
  -3  -7 -13   64.69   35.42
  -3  -8   3   34.46   23.06
  -3  -8   2  137.19   31.61
  -3  -8   1   17.32   21.99
  -3  -8   1   30.74   20.28
  -3  -8   0  168.74   31.50
  -3  -8   0  155.15   30.84
  -3  -8  -1  259.04   35.44
  -3  -8  -1  225.98   41.52
  -3  -8  -2  301.92   41.66
  -3  -8  -2  313.55   43.19
  -3  -8  -3  295.37   30.82
  -3  -8  -3  228.44   25.67
   3   8   4  200.56   82.30
  -3  -8  -4  185.91   26.51
   3   8   5   68.45   44.31
  -3  -8  -5   90.54   41.95
   3   8   6  491.57   68.20
  -3  -8  -6  542.97  152.64
   3   8   7  211.79   30.71
  -3  -8  -7  223.23   36.36
   3   8   8  283.09   51.73
  -3  -8  -8  326.89   74.54
   3   8   9  259.31   90.04
  -3  -8  -9  213.72   49.33
   3   8  10    8.70   15.54
  -3  -8 -10   -1.76   16.43
   3   8  11   35.90   26.60
  -3  -8 -11    6.94   31.74
   3   8  12   51.85   43.68
  -3  -8 -12   35.96   33.65
   3   8  13   39.69   31.87
  -3  -8 -13   43.60   34.06
  -3  -9   2    3.90   15.91
  -3  -9   1   23.18   20.96
  -3  -9   0   13.07   17.00
  -3  -9   0    6.17   13.71
  -3  -9  -1   67.66   24.14
  -3  -9  -1   78.29   39.02
  -3  -9  -2  319.22   27.79
  -3  -9  -2  330.18   45.70
  -3  -9  -3  255.28   25.54
  -3  -9  -3  284.50   43.13
   3   9   4   -4.04   18.76
  -3  -9  -4    5.27   16.29
   3   9   5   58.42   30.91
  -3  -9  -5   49.06   21.31
   3   9   6   65.51   28.64
  -3  -9  -6   86.77   56.17
   3   9   7   94.31   56.43
  -3  -9  -7  106.89   33.85
   3   9   8    8.87   17.58
  -3  -9  -8    5.83   12.90
   3   9   9  150.27   74.16
  -3  -9  -9  176.97   49.57
   3   9  10   26.53   21.29
  -3  -9 -10    7.87   36.32
   3   9  11  126.19   60.12
  -3  -9 -11  152.41   91.67
   3   9  12   53.99   29.53
  -3  -9 -12   43.94   37.85
  -3 -10   1    9.99   18.03
  -3 -10   0    4.22   16.84
  -3 -10  -1   17.85   19.24
  -3 -10  -1   19.39   21.99
  -3 -10  -2  102.68   81.73
  -3 -10  -2  130.17   46.26
  -3 -10  -3  220.50   87.30
  -3 -10  -3  223.86   44.81
  -3 -10  -4  196.69   33.46
  -3 -10  -4  222.74   40.90
   3  10   5   77.22   52.13
  -3 -10  -5   97.58   47.30
   3  10   6   43.11   23.67
  -3 -10  -6   46.03   24.70
   3  10   7   57.36   27.85
  -3 -10  -7   59.26   39.30
   3  10   8  132.09   29.42
  -3 -10  -8   88.41   52.83
   3  10   9    8.81   14.00
  -3 -10  -9   28.60   29.67
   3  10  10   38.72   26.02
  -3 -10 -10   32.63   42.48
   3  10  11   61.65   55.53
  -3 -10 -11   96.04   72.46
   3  10  12   76.70   40.65
  -3 -10 -12   98.45   44.27
  -3 -11  -1   13.23   15.10
  -3 -11  -1   24.86   24.46
  -3 -11  -2   26.96   15.26
  -3 -11  -2   28.47   17.64
  -3 -11  -3   39.63   35.15
  -3 -11  -3   33.99   24.21
  -3 -11  -4   27.96   20.66
  -3 -11  -4   36.98   30.85
  -3 -11  -5  104.78   75.99
  -3 -11  -5  112.23   57.48
   3  11   6   33.46   26.88
  -3 -11  -6   56.18   24.78
  -3 -11  -7   73.15   61.07
   3  11   8  180.50   51.47
  -3 -11  -8  142.85   45.03
   3  11   9   18.34   15.32
  -3 -11  -9   39.81   32.58
   3  11  10   75.02   44.20
  -3 -11 -10   55.93   43.04
   3  11  11   50.50   37.50
  -3 -11 -11   43.88   33.78
  -3 -12  -3   14.37   21.89
  -3 -12  -4   33.86   29.32
  -3 -12  -5   24.58   19.61
  -3 -12  -6   64.04   41.44
  -3 -12  -7   21.38   24.31
   3  12   8   15.71   10.79
  -3 -12  -8   -2.48   19.10
   3  12   9   17.65   13.87
  -3 -12  -9   20.31   26.79
   3  12  10   28.25   26.03
  -3 -12 -10   45.18   55.22
   4 -12  -6   -4.34   27.80
   4 -12  -5   37.58   36.08
   4 -12  -4   77.09   69.62
   4 -12  -3   18.02   39.76
   4 -12  -2   -0.12   25.47
   4 -12  -1    7.14   22.96
   4 -11  -7   18.29   33.14
   4 -11  -6    7.33   16.81
   4 -11  -5   58.84   49.82
   4 -11  -4   81.66   61.88
   4 -11  -3   47.11   30.42
   4 -11  -2   42.29   34.82
   4 -11  -1   10.96   20.24
   4 -11   0   35.22   28.75
   4 -11   1   19.83   27.37
   4 -11   2    6.04   11.18
   4 -10  -8    8.41   11.98
   4 -10  -7   15.49   12.11
   4 -10  -6   49.41   27.84
   4 -10  -5  126.28  121.29
   4 -10  -4   66.26   50.63
   4 -10  -3   17.06   30.23
   4 -10  -2   87.01   82.93
   4 -10  -1  134.53   82.62
   4 -10   0    1.29   16.07
   4 -10   1   78.40   69.58
   4 -10   2   40.26   29.54
   4 -10   3   29.71   24.84
   4  -9  -8   -4.08   17.18
   4  -9  -7    7.86   14.14
   4  -9  -6   56.58   41.45
   4  -9  -5  302.17   35.16
   4  -9  -4  107.47   78.53
   4  -9  -3  255.09   91.54
   4  -9  -2  217.34  113.06
   4  -9  -1    5.00   12.03
   4  -9   0   40.94   24.65
   4  -9   1   59.19   42.18
   4  -9   2   39.94   22.21
   4  -9   3   84.18   51.37
   4  -9   4   39.72   21.69
   4  -9   5    9.85   14.87
   4  -8  -8   34.08   27.95
   4  -8  -7   55.59   39.16
   4  -8  -6  244.65   27.02
   4  -8  -5   76.33   62.45
   4  -8  -4   24.55   27.41
   4  -8  -3   29.30   31.28
   4  -8  -2  111.72   83.10
   4  -8  -1  125.13   67.55
   4  -8   0  157.74   83.54
   4  -8   1   41.28   23.31
   4  -8   2  180.66  103.01
   4  -8   3  131.57   83.36
   4  -8   4  117.11   61.59
   4  -8   5   15.81   24.01
   4  -8   6    7.24   16.69
  -4   7   9   13.21   14.26
  -4   7   8   54.27   32.16
   4  -7  -8   24.77   12.03
  -4   7   7   34.75   29.98
   4  -7  -7   34.51   23.15
  -4   7   6  466.07   34.74
   4  -7  -6  383.89   32.45
  -4   7   5  257.56   37.51
   4  -7  -5  260.95   78.09
  -4   7   4  174.58   16.13
   4  -7  -4  176.58   80.07
  -4   7   3  143.88   16.39
   4  -7  -3  116.15   67.05
   4  -7  -2  112.05   79.18
   4  -7  -1  347.58   46.54
   4  -7   0  241.29   27.82
   4  -7   1   10.36   28.13
   4  -7   2  143.44   56.39
   4  -7   3  479.63   96.38
   4  -7   4   78.69   38.03
   4  -7   5   24.67   17.07
   4  -7   6   22.06   19.68
   4  -7   7   -1.30   20.60
  -4   6   9    3.63   25.21
  -4   6   8   24.16   30.60
  -4   6   7   78.64   29.73
   4  -6  -7   41.01   24.51
  -4   6   6  221.98   31.87
   4  -6  -6  179.47   49.60
  -4   6   5  281.05   50.21
   4  -6  -5  203.55   24.35
  -4   6   4  338.97   40.70
   4  -6  -4  244.69   23.15
  -4   6   3  687.98   47.03
   4  -6  -3  636.18   48.49
  -4   6   2   22.19   16.65
   4  -6  -2   22.48    9.67
   4  -6  -2   39.69   27.23
   4  -6  -1  800.66   61.53
   4  -6   0  680.99   58.28
   4  -6   1  201.59   25.64
   4  -6   2   92.52    8.12
   4  -6   2  102.95    6.70
   4  -6   2  124.10   63.43
   4  -6   3  427.40   52.84
   4  -6   3  389.84   54.73
   4  -6   4  187.73   20.93
   4  -6   4  154.28   95.72
   4  -6   5   53.46   31.80
   4  -6   5   54.43   39.08
   4  -6   6   16.46   10.10
   4  -6   6    7.39   22.17
   4  -6   7   79.42   53.31
  -4   6  -8   52.96   24.01
  -4   5   9   13.26   26.92
  -4   5   8    0.37   29.04
  -4   5   7  293.67   43.07
   4  -5  -7  251.06   23.66
  -4   5   6  485.78   50.66
   4  -5  -6  336.92   39.68
  -4   5   5   42.15   21.54
   4  -5  -5   35.83   24.42
  -4   5   4  145.77   24.47
   4  -5  -4  131.71   20.51
  -4   5   3  850.59   59.72
   4  -5  -3  738.74   52.69
  -4   5   2   97.51   14.91
   4  -5  -2  108.95    8.43
   4  -5  -2  128.38   49.28
  -4   5   1  535.39   18.77
  -4   5   1  503.73   17.57
   4  -5  -1  520.52   31.69
   4  -5   0  595.79   65.14
   4  -5   1 1067.26   81.16
  -4   5  -2 1118.54   75.15
   4  -5   2 1065.78   80.00
   4  -5   3   77.86   22.77
  -4   5  -3   77.58    8.88
   4  -5   3   55.66   36.18
   4  -5   4   40.14   23.40
   4  -5   4   29.64   21.42
   4  -5   5   17.84   14.21
   4  -5   5   20.29   17.36
   4  -5   6   76.36   61.81
   4  -5   6   70.00   31.35
   4  -5   7   -0.40    9.25
   4  -5   7    4.99    9.73
   4  -5   8   16.40   11.51
  -4   5  -8   37.82   20.91
   4  -5   9   36.89   45.65
  -4   5  -9   28.35   28.72
  -4   4   9   13.79   28.13
  -4   4   8   21.96   27.36
  -4   4   7  232.60   36.77
  -4   4   6  246.48   40.65
   4  -4  -6  251.00   45.39
  -4   4   5  423.13   61.39
   4  -4  -5  310.26   23.01
  -4   4   4  518.85   55.02
   4  -4  -4  423.77   25.23
  -4   4   3  144.03   25.98
   4  -4  -3  126.18   18.86
  -4   4   2  135.11   20.10
   4  -4  -2  190.55   22.93
  -4   4   1   30.48   18.25
  -4   4   1   27.74   11.60
   4  -4  -1   59.81   51.43
  -4   4   0  147.80   11.32
  -4   4   0  143.47   12.08
   4  -4   0  117.61   18.42
   4  -4   1  800.66   37.79
  -4   4  -2 2396.10   80.10
   4  -4   2 2410.63  101.53
   4  -4   3  391.72   37.52
  -4   4  -3  343.48   27.76
   4  -4   3  326.05   50.96
   4  -4   4   28.53   14.46
   4  -4   4   16.60   19.99
   4  -4   5  253.02   28.75
   4  -4   5  227.16   28.38
   4  -4   6   14.68   18.57
   4  -4   6    9.73   15.84
   4  -4   7   16.64   18.03
   4  -4   7   16.16   16.15
   4  -4   8    5.80    8.65
  -4   4  -8    7.68   19.40
   4  -4   9   -3.49   20.00
  -4   4  -9   -5.19   19.57
  -4   3   9   17.71   29.47
  -4   3   8   69.25   36.16
  -4   3   7   64.22   34.67
  -4   3   6   58.94   35.12
   4  -3  -6   37.85   24.40
  -4   3   5  183.12   41.76
   4  -3  -5  102.00   15.15
  -4   3   4 1193.92   88.12
   4  -3  -4  881.90   58.74
  -4   3   3  232.55   28.24
   4  -3  -3  217.18   37.22
  -4   3   2  392.26   24.20
   4  -3  -2  453.71   24.80
  -4   3   1 2631.82  112.14
   4  -3  -1 2816.24  118.03
   4  -3  -1 2825.49  122.53
  -4   3   0   51.52    5.92
  -4   3   0   53.03    9.22
   4  -3   0   58.21   35.37
  -4   3  -1 2417.49  100.81
  -4   3  -1 2310.14   96.29
   4  -3   1 2529.55  110.79
  -4   3  -2 2007.50   84.77
   4  -3   2 1940.53   89.66
   4  -3   3  604.78   27.13
  -4   3  -3  557.88   26.97
   4  -3   3  590.83   32.11
   4  -3   4  436.62   36.73
   4  -3   4  367.81   35.71
   4  -3   5   86.11   63.92
   4  -3   5   78.14   50.91
   4  -3   6  439.89   50.33
   4  -3   6  390.50   49.78
   4  -3   7  458.21   60.96
  -4   3  -7  398.04   54.54
   4  -3   8   45.65   25.54
  -4   3  -8   25.39   23.82
   4  -3   9   23.79   23.59
  -4   3  -9   22.08   19.56
   4  -3  10   11.35   17.57
  -4   3 -10   12.99   18.99
  -4   2   9   11.64   34.32
  -4   2   8  158.22   48.94
  -4   2   7  157.27   36.00
  -4   2   6    5.51   32.90
  -4   2   5  145.16   44.06
  -4   2   4  120.55   35.01
  -4   2   4  116.21   10.77
  -4   2   3  202.92   31.97
   4  -2  -3  190.58   14.59
  -4   2   3  196.45   13.36
  -4   2   2  384.84   34.58
   4  -2  -2  481.67   23.01
  -4   2   2  386.96   13.96
  -4   2   1 1263.75   57.67
   4  -2  -1 1376.00   62.44
  -4   2   1 1237.12   57.80
  -4   2   0 2066.38   87.15
  -4   2   0 2022.97   86.19
   4  -2   0 1791.10   78.00
   4  -2   1 3267.36  134.76
  -4   2  -1 2912.50  122.85
   4  -2   1 2877.23  125.57
   4  -2   2 2022.31   85.23
  -4   2  -2 1694.07   72.23
   4  -2   2 1921.50   94.81
   4  -2   3  359.96   20.40
  -4   2  -3  332.78   19.73
   4  -2   3  369.22   26.74
   4  -2   4  350.92   32.23
   4  -2   4  302.54   30.37
   4  -2   5  869.46   66.02
   4  -2   5  859.74   76.87
   4  -2   6  328.89   27.63
  -4   2  -6  263.96   31.98
   4  -2   7  596.34   77.62
  -4   2  -7  631.65   85.23
   4  -2   8  269.04   36.83
  -4   2  -8  253.32   27.77
   4  -2   9   75.86   35.78
  -4   2  -9   92.37   32.44
   4  -2  10   58.17   43.04
  -4   2 -10   47.98   33.74
   4  -2  11    7.24   18.64
  -4   2 -11   -4.01   19.10
  -4   1   8   58.14   42.33
  -4   1   7  234.10   44.62
  -4   1   6   98.87   35.59
  -4   1   5  387.91   69.63
  -4   1   4   45.94   26.53
   4  -1  -4   62.02    8.91
   4  -1  -4   63.83    6.67
  -4   1   3  800.97   68.66
   4  -1  -3  711.80   47.97
  -4   1   2  189.01   26.43
  -4   1   2  173.33   14.56
  -4   1   1   91.47   19.19
  -4   1   1   75.85    8.36
  -4   1   0  958.41   46.00
   4  -1   0 1128.70   48.73
  -4   1   0  981.57   44.38
   4  -1   1 2184.26   69.99
  -4   1  -1 2087.40   65.81
   4  -1   1 2026.44   67.74
  -4   1  -1 2005.97   63.63
   4  -1   2 2113.81   68.72
  -4   1  -2 2090.18   69.78
   4  -1   2 2085.50   70.23
   4  -1   3  164.71   14.74
   4  -1   3  178.57   33.29
   4  -1   4 1154.53   53.55
   4  -1   4 1287.46   64.32
   4  -1   5    6.99    7.74
  -4   1  -5   -6.58   19.62
   4  -1   6  539.76   45.99
  -4   1  -6  485.34   51.26
   4  -1   7  128.45   23.93
  -4   1  -7   57.44   49.37
   4  -1   8  124.98   83.07
  -4   1  -8  105.58   22.60
   4  -1   9   95.84   70.10
  -4   1  -9  113.97   26.49
   4  -1  10   83.17   64.57
  -4   1 -10  117.57   73.08
   4  -1  11    6.13   18.99
  -4   1 -11   -1.77   19.80
  -4   0   8   25.35   34.27
  -4   0   7   14.23   35.33
  -4   0   6   85.50   34.84
  -4   0   5  387.12   66.80
  -4   0   4  345.15   47.84
  -4   0   3  105.60   35.35
  -4   0   2 2205.30   86.38
  -4   0   1  333.65   26.48
  -4   0   0 4656.92  194.73
  -4   0   0 4286.98  174.62
  -4   0   0 4235.95  172.49
  -4   0  -1 3133.88   94.59
  -4   0  -1 3294.21  101.21
   4   0   2  363.24   19.73
  -4   0  -2  351.21   18.30
  -4   0  -2  359.83   20.82
   4   0   3  225.01   16.50
  -4   0  -3  157.34   19.13
   4   0   4  611.21   34.10
  -4   0  -4  545.09   34.23
   4   0   5    9.47   12.03
  -4   0  -5   14.51   21.11
   4   0   6  946.46   42.52
  -4   0  -6  951.77   49.71
   4   0   7  197.55   24.79
  -4   0  -7  187.74   35.49
   4   0   8  121.50   74.50
  -4   0  -8  100.85   32.23
   4   0   9  138.30   95.57
  -4   0  -9  151.77   76.60
   4   0  10   63.33   38.90
  -4   0 -10  106.27   25.46
   4   0  11  108.79   88.74
  -4   0 -11   68.43   63.91
   4   0  12   -5.82   24.84
  -4   0 -12   11.28   20.01
  -4  -1   8    3.51   32.83
  -4  -1   7   24.33   33.92
  -4  -1   6  109.82   34.67
  -4  -1   5  161.32   38.65
  -4  -1   4  331.99   59.46
  -4  -1   3  549.73   57.70
  -4  -1   2  535.94   47.70
  -4  -1   1  584.77   34.20
  -4  -1   0 3205.99  138.42
  -4  -1   0 2804.19  113.78
  -4  -1   0 3022.79  123.01
  -4  -1  -1 3913.66  161.34
  -4  -1  -1 3619.58  151.03
   4   1   2  680.35   28.48
  -4  -1  -2  687.30   44.98
   4   1   2  660.17   25.62
   4   1   3  723.82   31.57
   4   1   4  122.96   51.71
  -4  -1  -4  181.71   24.03
   4   1   5 1002.07   49.69
  -4  -1  -5 1070.05   58.89
   4   1   6  837.95   41.71
  -4  -1  -6  778.77   44.21
   4   1   7  389.17   42.03
  -4  -1  -7  357.32   47.70
   4   1   8  146.09   80.91
  -4  -1  -8  158.32   36.71
   4   1   9  471.49   68.17
  -4  -1  -9  417.00   62.56
   4   1  10  124.50   72.17
  -4  -1 -10  106.47   71.69
   4   1  11   11.21   10.53
   4   1  12   28.43   23.74
  -4  -1 -12   15.06   21.26
  -4  -2   7   10.63   33.49
  -4  -2   6   24.45   32.55
  -4  -2   5    6.83   32.31
  -4  -2   4   19.77   22.62
  -4  -2   3  315.90  101.01
  -4  -2   2  363.58   39.74
  -4  -2   1  283.65   32.28
  -4  -2   0 2133.90   97.09
  -4  -2   0 1899.51   78.79
   4   2   0 1858.15   77.02
  -4  -2  -1 2025.73   92.56
  -4  -2  -1 2069.64   87.79
   4   2   1 1700.82   71.99
   4   2   2   73.80   46.65
  -4  -2  -2   62.11   17.72
   4   2   2   49.55    7.67
   4   2   3 1480.50   68.48
  -4  -2  -3 1195.63   57.18
   4   2   4   31.07   17.75
  -4  -2  -4   49.40   23.76
   4   2   5 1845.73   84.25
  -4  -2  -5 1710.46   81.55
   4   2   6 1709.29   89.34
  -4  -2  -6 1602.54   66.87
   4   2   7   86.64   58.91
  -4  -2  -7  113.67   62.78
   4   2   8   19.59   12.79
  -4  -2  -8   39.58   23.68
   4   2   9  412.90   63.77
  -4  -2  -9  508.09   73.42
   4   2  10  168.67   87.66
  -4  -2 -10  144.33   35.96
   4   2  11   -3.79   30.22
  -4  -2 -11   23.25   21.03
   4   2  12   34.58   27.41
  -4  -2 -12    8.95   19.20
  -4  -3   6   18.02   32.28
  -4  -3   5   13.84   33.94
  -4  -3   4   52.12   40.83
  -4  -3   3  269.95   97.91
  -4  -3   2  116.43   35.39
  -4  -3   2  108.93    7.75
  -4  -3   1 1509.96  111.47
  -4  -3   1 1263.23   85.69
   4   3  -1 1282.74   86.69
  -4  -3   0 2237.91   86.69
  -4  -3   0 2223.77   76.97
   4   3   0 1996.01   68.76
  -4  -3  -1  134.85   61.75
  -4  -3  -1  134.62   17.52
   4   3   1   90.23   24.94
   4   3   2  335.68   46.45
  -4  -3  -2  241.82   48.78
   4   3   3   88.98   42.18
  -4  -3  -3  194.28   21.91
   4   3   4  165.59   18.14
   4   3   5  844.21   45.41
  -4  -3  -5  956.04   60.26
   4   3   6 1142.19   48.74
  -4  -3  -6 1161.10   56.24
   4   3   7  460.22   43.66
  -4  -3  -7  485.20   53.65
   4   3   8  568.13   59.21
  -4  -3  -8  524.95   87.00
   4   3   9  217.12  112.92
  -4  -3  -9  173.20   92.58
   4   3  10  104.36   54.84
  -4  -3 -10  110.84   28.93
   4   3  11   78.49   50.29
  -4  -3 -11   77.04   35.06
   4   3  12   28.27   19.52
  -4  -3 -12   40.66   32.68
   4   3  13    9.54   13.43
  -4  -3 -13   16.59   18.11
  -4  -4   6    6.25   33.38
  -4  -4   5   49.88   33.61
  -4  -4   4   62.23   32.03
  -4  -4   3   28.81   21.06
  -4  -4   2   35.25   37.58
  -4  -4   1  324.64   45.48
  -4  -4   1  306.85   26.98
  -4  -4   0 1442.54  104.72
  -4  -4   0 1420.60   97.34
  -4  -4  -1 1287.54   56.22
  -4  -4  -1 1224.63   46.79
   4   4   2  278.20   44.31
  -4  -4  -2  333.74   29.87
   4   4   3  386.92   30.89
  -4  -4  -3  491.82   35.80
   4   4   4 1068.07   51.08
  -4  -4  -4  899.77   45.75
   4   4   5 1293.81   57.68
  -4  -4  -5 1151.14   55.99
   4   4   6  261.08   29.24
  -4  -4  -6  272.01   36.20
   4   4   7   85.15   35.35
  -4  -4  -7   76.58   29.44
   4   4   8  886.35   63.01
  -4  -4  -8  982.43   75.27
   4   4   9  430.67   60.55
  -4  -4  -9  402.42   62.05
   4   4  10   12.31   24.89
  -4  -4 -10   -4.68   28.81
   4   4  11   94.78   50.00
  -4  -4 -11   81.72   36.42
   4   4  12    8.52   14.20
  -4  -4 -12   15.79   24.47
   4   4  13   16.96   16.00
  -4  -4 -13   34.80   32.73
  -4  -5   5   15.24   30.24
  -4  -5   4  110.42   38.34
  -4  -5   3  223.73   39.03
  -4  -5   2  344.75  166.92
  -4  -5   1  351.10   55.43
  -4  -5   1  316.87   17.60
  -4  -5   0   16.61   24.05
  -4  -5   0   13.66    8.92
  -4  -5  -1   73.70   51.62
  -4  -5  -1   78.69   44.83
  -4  -5  -2  289.46   42.78
  -4  -5  -2  291.85   24.19
   4   5   3  187.74   82.87
  -4  -5  -3  212.41   26.02
   4   5   4  729.76   37.52
  -4  -5  -4  739.77   45.86
   4   5   5 2096.06   85.40
  -4  -5  -5 1663.09   85.59
   4   5   6  197.88   22.92
  -4  -5  -6  176.50   53.88
   4   5   7   47.50   30.40
  -4  -5  -7   53.62   29.85
   4   5   8  142.43   80.30
  -4  -5  -8  282.91  103.77
   4   5   9  487.46   84.36
  -4  -5  -9  405.08   61.77
   4   5  10   38.22   22.23
  -4  -5 -10   23.96   24.21
   4   5  11   14.66   17.27
  -4  -5 -11   38.47   30.18
   4   5  12    0.35   17.71
  -4  -5 -12   13.03   25.04
   4   5  13   71.80   29.74
  -4  -5 -13   71.73   62.35
  -4  -6   4   21.54   28.47
  -4  -6   3    7.35   20.72
  -4  -6   2  228.49   56.38
  -4  -6   1  323.51   37.69
  -4  -6   0   52.81   36.85
  -4  -6   0   60.83   30.16
  -4  -6  -1  228.62   40.48
  -4  -6  -1  193.04   18.63
  -4  -6  -2  193.32   27.49
  -4  -6  -2  195.60   18.62
   4   6   3   27.58   12.31
  -4  -6  -3   46.03   26.93
   4   6   4  370.79   26.82
  -4  -6  -4  356.50   46.87
   4   6   5 1514.20  100.45
  -4  -6  -5 1415.84   96.27
   4   6   6  353.13   33.10
  -4  -6  -6  335.85   60.87
   4   6   7  765.74  123.15
  -4  -6  -7  847.62   67.55
   4   6   8  643.55   86.88
  -4  -6  -8  741.29  102.20
   4   6   9  252.89   41.52
  -4  -6  -9  258.99   45.31
   4   6  10  173.00  100.43
  -4  -6 -10  148.62   30.89
   4   6  11   16.86   15.77
  -4  -6 -11   21.77   30.57
   4   6  12   74.48   52.58
  -4  -6 -12   32.00   31.92
   4   6  13   29.86   25.11
  -4  -6 -13   32.20   29.34
  -4  -7   3   19.38   27.16
  -4  -7   2   33.25   26.39
  -4  -7   1  252.07   45.93
  -4  -7   0  171.06   94.49
  -4  -7   0  211.12   30.76
  -4  -7  -1  108.07   62.16
  -4  -7  -1  104.81   57.22
  -4  -7  -2    8.55   15.19
  -4  -7  -2    9.54   13.76
  -4  -7  -3  285.50   63.03
  -4  -7  -3  283.47   25.45
   4   7   4  347.60   43.77
  -4  -7  -4  251.21  129.63
   4   7   5   93.40   53.82
  -4  -7  -5   83.39   62.11
   4   7   6   97.66   54.41
  -4  -7  -6  113.11   41.44
   4   7   7  520.02   68.38
  -4  -7  -7  742.04  110.93
   4   7   8  661.66   84.79
  -4  -7  -8  690.26   94.65
   4   7   9   16.51   23.54
  -4  -7  -9    9.68   33.87
   4   7  10  276.30   32.56
  -4  -7 -10  244.12   46.08
   4   7  11   32.28   23.04
  -4  -7 -11   10.10   14.85
   4   7  12   43.05   29.09
  -4  -7 -12   38.88   40.27
   4   7  13   52.60   39.48
  -4  -7 -13   22.96   23.03
  -4  -8   2   55.61   28.77
  -4  -8   1   69.51   34.40
  -4  -8   0   31.85   29.67
  -4  -8  -1  108.67   26.41
  -4  -8  -1   90.85   52.42
  -4  -8  -2   48.70   30.33
  -4  -8  -2   42.98   18.85
  -4  -8  -3   71.01   38.91
  -4  -8  -3   65.73   42.52
   4   8   4  832.85   91.16
  -4  -8  -4  691.54   80.32
   4   8   5   75.86   39.02
  -4  -8  -5  115.50   59.05
   4   8   6  140.85   72.45
  -4  -8  -6  120.10   75.56
   4   8   7  439.40   87.21
  -4  -8  -7  346.83   57.80
   4   8   8  145.89   29.51
  -4  -8  -8  182.24   85.14
   4   8   9   85.78   50.12
  -4  -8  -9   55.50   38.99
   4   8  10   21.84   12.82
  -4  -8 -10   28.68   33.94
   4   8  11   13.75   20.03
  -4  -8 -11   19.81   34.25
   4   8  12   81.50   44.17
  -4  -8 -12  121.39   46.54
   4   8  13   90.21   50.80
  -4  -8 -13  105.36   82.86
  -4  -9   1   11.35   22.73
  -4  -9   0   35.07   30.53
  -4  -9  -1   27.12   32.35
  -4  -9  -1    9.43   12.53
  -4  -9  -2   30.05   24.78
  -4  -9  -2   31.07   19.87
  -4  -9  -3  275.98   59.83
  -4  -9  -3  284.97   43.62
  -4  -9  -4   84.08   62.12
  -4  -9  -4  106.96   60.35
   4   9   5  132.42   68.13
  -4  -9  -5  186.46   40.74
   4   9   6  107.23   65.63
  -4  -9  -6  151.62   71.26
   4   9   7  135.70   70.60
  -4  -9  -7  238.85   55.50
   4   9   8    2.37   11.46
  -4  -9  -8    2.50   16.18
   4   9   9   46.24   25.45
  -4  -9  -9   31.94   23.53
   4   9  10  -12.34   21.04
  -4  -9 -10   31.02   29.53
   4   9  11   65.05   44.39
  -4  -9 -11   75.80   31.17
   4   9  12   82.08   37.16
  -4  -9 -12   82.11   33.51
   4   9  13   70.34   48.53
  -4  -9 -13   72.65   42.65
  -4 -10   0    3.26    7.03
  -4 -10  -1   29.54   25.43
  -4 -10  -2    1.39   20.62
  -4 -10  -2    9.89   17.37
  -4 -10  -3   49.24   29.72
  -4 -10  -3   36.49   29.30
  -4 -10  -4  128.79   77.76
  -4 -10  -4  148.44   89.65
   4  10   5   55.51   34.39
  -4 -10  -5   50.15   22.97
   4  10   6  112.47   63.43
  -4 -10  -6  186.92  112.71
   4  10   7  114.21   61.51
  -4 -10  -7  202.91  140.04
   4  10   8   24.28   13.11
  -4 -10  -8   20.72   35.29
   4  10   9   67.11   31.19
  -4 -10  -9   83.41   66.10
   4  10  10   41.85   22.95
  -4 -10 -10   38.03   39.88
   4  10  11   28.88   27.92
  -4 -10 -11   83.37   39.08
   4  10  12   97.24   61.84
  -4 -10 -12  118.23   78.78
  -4 -11  -2   13.47   24.97
  -4 -11  -3   28.43   21.87
  -4 -11  -3   30.13   19.90
  -4 -11  -4   41.90   33.08
  -4 -11  -4   48.91   27.82
  -4 -11  -5   94.55   67.97
  -4 -11  -5   94.63   38.67
   4  11   6  204.83   27.54
  -4 -11  -6  166.57   94.33
   4  11   7   17.16   19.81
  -4 -11  -7   16.68   19.00
   4  11   8   67.32   44.55
  -4 -11  -8   66.82   46.60
   4  11   9   16.12   11.24
  -4 -11  -9   12.77   26.15
   4  11  10   -4.34   17.53
  -4 -11 -10   10.60   33.64
   4  11  11    6.00   15.74
  -4 -11 -11   13.34   17.21
  -4 -12  -4    9.39   15.62
  -4 -12  -4    8.02   12.57
  -4 -12  -5    7.81   14.37
  -4 -12  -5    9.63   13.53
  -4 -12  -6   45.58   31.01
  -4 -12  -6   49.84   26.90
   4  12   7   35.22   22.60
  -4 -12  -7   28.40   18.83
   4  12   8   11.41   15.35
  -4 -12  -8   23.12   23.37
   4  12   9    7.97    8.08
  -4 -12  -9    4.68   18.67
   4  12  10   21.17   20.89
  -4 -12 -10   11.93   15.06
   5 -12  -4   25.16   19.54
   5 -12  -3    4.07   16.60
   5 -12  -2   -4.24   26.38
   5 -12  -1   29.94   32.64
   5 -11  -6   -3.78   19.59
   5 -11  -5   -7.54   23.14
   5 -11  -4   20.24   18.40
   5 -11  -3   56.10   45.78
   5 -11  -2   54.59   34.66
   5 -11  -1   46.98   40.73
   5 -11   0   31.85   27.64
   5 -11   1   20.78   27.35
   5 -11   2   14.17   31.61
   5 -10  -7   12.60   14.91
   5 -10  -6   -5.32   18.82
   5 -10  -5   37.52   21.40
   5 -10  -4   44.12   41.86
   5 -10  -3   31.31   26.18
   5 -10  -2   39.59   21.33
   5 -10  -1  158.45   94.58
   5 -10   0   40.52   20.65
   5 -10   1    3.70   17.64
   5 -10   2   18.74   18.40
   5 -10   3   18.24   19.11
   5  -9  -7   39.02   29.50
   5  -9  -6   13.24   15.22
   5  -9  -5  148.77   91.63
   5  -9  -4  154.43   71.42
   5  -9  -3   31.86   25.33
   5  -9  -2   44.06   24.23
   5  -9  -1   88.49   61.74
   5  -9   0   24.21   18.44
   5  -9   1   24.33   22.77
   5  -9   2    8.63   22.05
   5  -9   3   53.80   45.31
   5  -9   4   72.12   50.03
   5  -9   5    8.13   16.34
   5  -8  -7   10.66   11.28
   5  -8  -6    7.51   13.25
   5  -8  -5   56.37   31.90
   5  -8  -4  238.49   27.29
   5  -8  -3  199.17  113.43
   5  -8  -2  426.24   58.08
   5  -8  -1   50.16   29.07
   5  -8   0   19.00   15.84
   5  -8   1   68.64   39.11
   5  -8   2   16.14   18.15
   5  -8   3   38.32   23.84
   5  -8   4  101.11   49.99
   5  -8   5   95.97   55.61
   5  -8   6   10.13   15.64
  -5   7   8   12.46   14.57
  -5   7   7    4.56   13.39
  -5   7   6   54.13   41.77
   5  -7  -6   46.84   32.19
   5  -7  -5   81.44   50.31
   5  -7  -4   54.90   40.93
   5  -7  -3   55.16   41.99
   5  -7  -2  561.88   78.34
   5  -7  -1  527.67   73.17
   5  -7   0    8.41   17.22
   5  -7   1  267.39   70.19
   5  -7   2   35.81   30.14
   5  -7   3  138.21   68.53
   5  -7   4   24.55   18.38
   5  -7   5   32.87   28.09
   5  -7   6   41.64   38.77
   5  -7   7   11.44   24.28
  -5   6   9    8.23   24.25
  -5   6   8   54.54   32.27
  -5   6   7   39.30   33.40
  -5   6   6  106.08   29.88
   5  -6  -6   61.10   29.24
  -5   6   5  262.50   30.92
   5  -6  -5  212.65   44.50
  -5   6   4   46.68   16.48
   5  -6  -4   51.92   39.38
  -5   6   3  233.52   25.60
   5  -6  -3  208.96   23.82
  -5   6   2  340.83   40.81
   5  -6  -2  350.60   37.47
   5  -6  -1  121.84   75.81
   5  -6   0   71.26   35.38
   5  -6   1   18.71   23.78
   5  -6   2  123.43   69.29
   5  -6   3  173.44   31.32
   5  -6   4  167.64   97.18
   5  -6   5    4.79   15.86
   5  -6   6    9.53    9.90
   5  -6   7   30.45   25.49
   5  -6   8   16.69   20.14
  -5   5   9   12.33   23.94
  -5   5   8   23.52   25.66
  -5   5   7   26.10   27.27
  -5   5   6  210.41   33.23
  -5   5   5  286.11   40.48
   5  -5  -5  219.64   27.46
  -5   5   4  363.65   53.88
   5  -5  -4  291.50   26.55
  -5   5   3  912.27   80.26
   5  -5  -3  734.20   63.96
  -5   5   2  392.12   23.13
   5  -5  -2  362.92   30.52
  -5   5   1   82.38   16.49
  -5   5   1  100.25   11.15
   5  -5  -1  104.86   75.03
   5  -5   0  138.36   20.71
   5  -5   1   56.96   31.12
   5  -5   2  173.71   38.23
   5  -5   3  876.66   83.42
   5  -5   4  557.73   67.61
   5  -5   4  518.33   69.26
   5  -5   5  112.59   32.75
   5  -5   5  107.72   53.89
   5  -5   6   31.19   21.94
   5  -5   6   28.73   24.83
   5  -5   7   -0.16   15.62
   5  -5   7   12.19   16.39
   5  -5   8   15.76   15.92
  -5   5  -8    9.43   26.34
  -5   5  -9   11.62   23.84
  -5   4   8   16.37   29.47
  -5   4   7   32.18   32.89
  -5   4   6  208.29   39.11
  -5   4   5   17.00   30.00
   5  -4  -5   -2.61    8.92
  -5   4   4  136.47   28.85
   5  -4  -4  106.37   24.88
  -5   4   3  963.22   69.38
   5  -4  -3  812.62   55.83
  -5   4   2  606.41   48.77
   5  -4  -2  530.93   39.91
  -5   4   1  177.38   11.67
  -5   4   1  192.66   18.48
   5  -4  -1  181.07   28.80
  -5   4   0 1040.67   38.88
  -5   4   0 1098.41   42.73
   5  -4   0 1090.51   79.12
  -5   4  -1  214.17   17.43
  -5   4  -1  255.21   19.90
   5  -4   1  285.45   29.84
  -5   4  -2 1091.33   73.82
   5  -4   2 1205.65   92.36
   5  -4   3  925.89   67.11
  -5   4  -3  656.18   48.62
   5  -4   3  807.85   96.35
   5  -4   4  219.26   14.74
   5  -4   4  197.15  107.73
   5  -4   5  146.69   54.51
   5  -4   5  111.10   55.46
   5  -4   6  299.11   53.04
   5  -4   6  286.26   76.39
   5  -4   7   78.92   42.83
   5  -4   7   67.94   60.30
   5  -4   8   14.92   17.48
  -5   4  -8   23.56   25.25
   5  -4   9   28.53   25.48
  -5   4  -9   44.75   28.93
   5  -4  10   17.17   12.81
  -5   4 -10    1.47   22.83
  -5   3   8   30.05   28.38
  -5   3   7   10.94   29.37
  -5   3   6  211.38   35.77
  -5   3   5  169.44   41.60
  -5   3   4  252.23   43.44
   5  -3  -4  244.83   36.09
  -5   3   3  808.85   64.86
   5  -3  -3  779.99   55.11
  -5   3   2  221.12   62.50
   5  -3  -2  169.58   28.49
  -5   3   1  110.42   20.87
   5  -3  -1  176.04   33.15
  -5   3   0  133.44   19.45
  -5   3   0  144.12   16.48
   5  -3   0  126.23   18.91
  -5   3  -1   12.85    9.55
  -5   3  -1   13.58    5.35
   5  -3   1   22.78   15.66
   5  -3   2 1345.37   47.65
  -5   3  -2 1208.89   48.32
   5  -3   2 1193.36   50.08
   5  -3   3 1531.33   57.55
  -5   3  -3 1245.05   46.53
   5  -3   3 1391.75   63.12
   5  -3   4  199.69   21.90
   5  -3   4  184.13   23.33
   5  -3   5  407.12   47.42
   5  -3   5  386.37   33.16
   5  -3   6  161.19   55.54
   5  -3   6  163.68   91.03
   5  -3   7  133.27   76.04
  -5   3  -7  126.25   29.03
   5  -3   8   70.05   39.69
  -5   3  -8   47.66   26.73
   5  -3   9   44.27   23.55
  -5   3  -9   43.27   41.85
   5  -3  10   10.05   14.13
  -5   3 -10    8.67   23.94
  -5   2   8   30.56   44.50
  -5   2   7  100.87   37.49
  -5   2   6  109.45   34.75
  -5   2   5   35.89   44.40
  -5   2   4  530.27   73.19
  -5   2   3  765.92   62.79
  -5   2   2   91.02   18.84
   5  -2  -2   75.29   18.88
  -5   2   2   78.54   10.50
  -5   2   1  294.50   48.10
   5  -2  -1  236.40   21.16
  -5   2   1  280.92   24.09
  -5   2   0  130.56   18.12
   5  -2   0   62.14   44.18
  -5   2  -1  902.56   42.76
   5  -2   1 1058.31   52.11
   5  -2   2  914.21   41.88
  -5   2  -2  919.80   43.41
   5  -2   2  901.40   47.83
   5  -2   3  625.16   27.21
   5  -2   3  586.69   30.92
   5  -2   4   82.68   17.56
   5  -2   4   92.02   70.13
   5  -2   5  562.81   45.89
   5  -2   5  496.30   69.01
   5  -2   6  497.97   41.66
  -5   2  -6  438.46   34.77
   5  -2   7   75.29   46.24
  -5   2  -7   82.24   26.03
   5  -2   8   73.42   43.62
  -5   2  -8   37.12   26.21
   5  -2   9  110.11   66.19
  -5   2  -9   93.98   72.80
   5  -2  10   26.02   24.47
  -5   2 -10    5.18   24.02
   5  -2  11   18.56   22.08
  -5   2 -11   24.68   22.17
  -5   1   8   17.46   35.08
  -5   1   7   28.96   31.88
  -5   1   6  114.99   44.69
  -5   1   5  208.33   37.88
  -5   1   4  389.00   60.10
  -5   1   3  384.63   51.39
  -5   1   2   41.76   19.72
  -5   1   1  636.79   37.14
  -5   1   1  592.11   23.04
  -5   1   0  405.53   23.76
   5  -1   0  397.08   13.53
  -5   1   0  371.69   29.01
  -5   1  -1 1154.19   57.56
   5  -1   1 1038.03   48.19
   5  -1   2 4127.24  173.33
   5  -1   2 4052.52  173.44
   5  -1   3  903.04   44.01
   5  -1   3  917.11   51.27
   5  -1   4  360.27   42.61
   5  -1   4  362.69   65.43
   5  -1   5  388.10   21.33
  -5   1  -5  519.13   37.64
   5  -1   6  164.92   28.02
  -5   1  -6  157.74   24.52
   5  -1   7   74.72   53.31
  -5   1  -7   88.82   51.04
   5  -1   8   55.55   31.83
  -5   1  -8   52.55   22.51
   5  -1   9   78.57   57.63
  -5   1  -9   80.29   34.85
   5  -1  10  192.61   98.30
  -5   1 -10  174.18   30.02
   5  -1  11   65.19   36.49
  -5   1 -11   59.88   24.12
  -5   0   7   17.61   42.84
  -5   0   6    1.77   33.00
  -5   0   5  223.96   49.22
  -5   0   4  464.43   63.74
  -5   0   3   74.33   26.80
  -5   0   2  447.45   30.50
  -5   0   1  349.73   40.00
  -5   0   0   62.90   16.31
  -5   0   0   57.43    8.59
  -5   0   0   61.14   21.13
  -5   0  -1 1060.95   52.39
  -5   0  -1  961.70   49.80
  -5   0  -1 1011.04   46.44
   5   0   2 2636.22  116.41
  -5   0  -2 2857.08  128.91
   5   0   3   13.36   14.18
  -5   0  -3    9.01   21.57
   5   0   4 1056.88   51.45
  -5   0  -4 1326.69   66.29
   5   0   5 1193.57   48.48
  -5   0  -5 1579.75   68.81
   5   0   6  404.14   37.76
  -5   0  -6  352.66   39.48
   5   0   7  328.96   36.36
  -5   0  -7  313.41   36.30
   5   0   8  238.01   29.25
  -5   0  -8  231.76   31.27
   5   0   9   -2.40   22.94
  -5   0  -9   -0.14   27.72
   5   0  10  228.28   35.96
  -5   0 -10  210.72   30.18
   5   0  11  162.15  120.22
  -5   0 -11  129.27   54.68
   5   0  12   14.19   21.05
  -5   0 -12    9.70   16.04
  -5  -1   7    7.77   32.98
  -5  -1   6   23.17   37.77
  -5  -1   5   54.81   32.18
  -5  -1   4  172.07   36.81
  -5  -1   3   85.26   28.44
  -5  -1   2  100.09   24.65
  -5  -1   1   -0.46   21.73
  -5  -1   0  850.63   42.11
  -5  -1  -1 2255.92  102.11
  -5  -1  -1 2091.93   88.29
  -5  -1  -1 2095.28   96.37
   5   1   2  454.29   30.15
  -5  -1  -2  494.55   28.11
  -5  -1  -2  459.40   49.03
   5   1   3  172.05   18.95
  -5  -1  -3  216.72   53.98
   5   1   4  822.04   43.66
  -5  -1  -4  771.46   41.86
   5   1   5  731.34   36.19
  -5  -1  -5  861.39   46.82
   5   1   6   45.69   29.28
  -5  -1  -6   39.11   21.84
   5   1   7  684.64   66.82
  -5  -1  -7  559.99   82.21
   5   1   8   84.99   40.34
  -5  -1  -8   68.24   23.55
   5   1   9   82.16   60.69
  -5  -1  -9   86.14   26.93
   5   1  10   52.55   27.98
  -5  -1 -10   50.94   37.15
   5   1  11   37.62   36.78
  -5  -1 -11   32.27   23.47
   5   1  12    3.50   12.63
  -5  -1 -12    9.40   23.83
  -5  -2   6   55.56   47.44
  -5  -2   5   43.08   45.25
  -5  -2   4   87.78   37.31
  -5  -2   3   14.76   27.91
  -5  -2   2  232.58   39.55
  -5  -2   1   71.85   40.30
  -5  -2   0  811.44   63.22
  -5  -2   0  820.34   53.95
  -5  -2   0  809.43   53.26
  -5  -2  -1 2858.45  117.79
  -5  -2  -1 2951.45  101.23
   5   2   1 3126.90  103.30
   5   2   2 4231.18   63.59
  -5  -2  -2 3978.84  139.39
   5   2   2 4216.07  142.56
   5   2   3  141.90   27.30
  -5  -2  -3  130.62   34.67
   5   2   4 1113.96   53.94
  -5  -2  -4 1071.98   57.05
   5   2   5   27.44   22.78
  -5  -2  -5   60.78   29.02
   5   2   6  233.51   25.30
  -5  -2  -6  209.36   29.33
   5   2   7  168.63   21.29
  -5  -2  -7  172.46   29.44
   5   2   8   15.64   25.97
  -5  -2  -8   24.12   39.59
   5   2   9  351.42   89.64
  -5  -2  -9  349.32   53.54
   5   2  10  273.41   79.48
  -5  -2 -10  199.22   33.98
   5   2  11   25.99   21.29
  -5  -2 -11   25.02   36.27
   5   2  12   43.13   29.01
  -5  -2 -12   25.62   23.40
   5   2  13    2.86   15.87
  -5  -2 -13    9.44   20.69
  -5  -3   6   56.40   46.78
  -5  -3   5  154.19   48.07
  -5  -3   4   86.85   39.36
  -5  -3   3   54.58   35.20
  -5  -3   2  106.18   27.83
  -5  -3   1   21.18   22.72
  -5  -3   0  345.50   32.30
  -5  -3   0  297.81    9.77
   5   3   0  372.93   18.51
  -5  -3  -1  837.93  115.85
  -5  -3  -1  769.86   57.53
   5   3   1  811.55   56.19
   5   3   2  739.37   40.56
  -5  -3  -2  731.30   34.97
   5   3   3 2124.12   93.65
  -5  -3  -3 2519.86   93.26
   5   3   4  782.89   41.97
  -5  -3  -4  784.76   45.84
   5   3   5  135.12   32.57
  -5  -3  -5  133.97   29.55
   5   3   6  889.47   65.65
  -5  -3  -6  954.19   75.23
   5   3   7  121.19   77.42
  -5  -3  -7   71.77   27.81
   5   3   8   98.72   58.11
  -5  -3  -8  120.53   76.65
   5   3   9  279.44   34.63
  -5  -3  -9  265.75   35.94
   5   3  10  344.29   31.81
  -5  -3 -10  306.05   36.66
   5   3  11   52.86   36.45
  -5  -3 -11   27.23   21.60
   5   3  12   -3.34   25.53
  -5  -3 -12    9.47   26.89
   5   3  13   -4.52   26.34
  -5  -3 -13   -9.58   26.53
  -5  -4   5    3.16   32.34
  -5  -4   4   38.32   31.24
  -5  -4   3   -0.08   32.41
  -5  -4   2  120.67   67.38
  -5  -4   1  168.55   38.94
  -5  -4   0  329.60   49.71
  -5  -4   0  283.35   23.90
  -5  -4  -1  175.69   86.98
  -5  -4  -1  147.10   15.99
  -5  -4  -2  204.82   90.76
  -5  -4  -2  170.03   17.73
   5   4   3  573.79   50.98
  -5  -4  -3  714.51   58.28
   5   4   4  956.27   48.81
  -5  -4  -4 1056.16   58.77
   5   4   5  508.08   43.78
  -5  -4  -5  492.04  113.56
   5   4   6  995.05   76.89
  -5  -4  -6  866.02   71.39
   5   4   7  565.65   44.17
  -5  -4  -7  583.04   54.56
   5   4   8  263.33   28.72
  -5  -4  -8  326.34   84.73
   5   4   9  428.39   74.87
  -5  -4  -9  400.48   68.87
   5   4  10   99.72   61.10
  -5  -4 -10  123.75   27.25
   5   4  11   -2.46   19.64
  -5  -4 -11   27.69   31.73
   5   4  12   11.63   18.73
  -5  -4 -12   10.32   27.58
   5   4  13   27.18   23.71
  -5  -4 -13   21.97   26.94
  -5  -5   4   -0.21   27.21
  -5  -5   3   12.84   29.12
  -5  -5   2   17.58   26.57
  -5  -5   1   69.09   32.74
  -5  -5   0  920.71  120.19
  -5  -5   0  775.46   91.81
  -5  -5  -1  579.16   61.85
  -5  -5  -1  539.28   46.54
  -5  -5  -2  262.87   46.20
  -5  -5  -2  225.85   39.21
   5   5   3  598.97   53.74
  -5  -5  -3  630.07  100.66
   5   5   4  172.65  100.53
  -5  -5  -4  228.44  104.27
   5   5   5  346.86   38.76
  -5  -5  -5  231.71   32.81
   5   5   6  215.21   33.89
  -5  -5  -6  141.87   44.10
   5   5   7   64.91   33.40
  -5  -5  -7   47.06   29.93
   5   5   8  467.93   69.80
  -5  -5  -8  480.57   55.65
   5   5   9  716.04   82.26
  -5  -5  -9  783.38   57.13
   5   5  10   32.36   19.97
  -5  -5 -10   18.72   30.90
   5   5  11   80.80   50.03
  -5  -5 -11   66.29   30.00
   5   5  12   22.01   17.43
  -5  -5 -12   33.34   22.97
   5   5  13   28.36   14.98
  -5  -5 -13   43.50   30.23
  -5  -6   3    6.59   29.21
  -5  -6   2   23.54   18.42
  -5  -6   1  257.12   44.30
  -5  -6   0  317.11   33.83
  -5  -6  -1  510.76   94.09
  -5  -6  -1  508.37   57.51
  -5  -6  -2  130.13   68.41
  -5  -6  -2  128.36   57.93
  -5  -6  -3  273.97   33.14
  -5  -6  -3  262.47   34.99
   5   6   4   20.40   15.60
  -5  -6  -4   16.75   20.33
   5   6   5  307.73   38.69
  -5  -6  -5  367.12   47.80
   5   6   6  118.93   56.36
  -5  -6  -6   86.71   46.39
   5   6   7  258.06  109.74
  -5  -6  -7  244.32  108.90
   5   6   8  692.51   90.08
  -5  -6  -8  602.76   94.39
   5   6   9  242.61   40.69
  -5  -6  -9  303.44   55.42
   5   6  10  193.14   28.52
  -5  -6 -10  189.37   37.42
   5   6  11   12.16   14.05
  -5  -6 -11    1.30   21.96
   5   6  12   68.84   33.59
  -5  -6 -12   52.16   49.69
   5   6  13   10.45   14.77
  -5  -6 -13   16.23   28.01
  -5  -7   2   30.72   36.40
  -5  -7   1  106.78   38.06
  -5  -7   0  196.56   87.83
  -5  -7  -1  163.39   38.60
  -5  -7  -1  162.55   36.15
  -5  -7  -2  229.96   74.32
  -5  -7  -2  234.22   46.76
  -5  -7  -3   94.01   45.08
  -5  -7  -3  103.38   48.74
   5   7   4  263.06   48.76
  -5  -7  -4  247.31   43.01
   5   7   5  229.20   40.94
  -5  -7  -5  269.75   61.60
   5   7   6  183.35   86.29
  -5  -7  -6  192.84   36.37
   5   7   7   83.83   36.71
  -5  -7  -7  102.04   53.19
   5   7   8  400.53   76.58
  -5  -7  -8  435.40   66.10
   5   7   9  191.24   71.56
  -5  -7  -9  175.74   37.78
   5   7  10   44.00   22.55
  -5  -7 -10   62.10   35.91
   5   7  11   10.35   11.93
  -5  -7 -11  -10.22   29.57
   5   7  12   67.51   42.94
  -5  -7 -12   54.07   48.12
   5   7  13   23.35   22.11
  -5  -7 -13   35.54   30.26
  -5  -8   1   32.09   34.10
  -5  -8   0   44.05   33.21
  -5  -8  -1   98.76   40.20
  -5  -8  -2  216.05  128.50
  -5  -8  -2  207.28   43.28
  -5  -8  -3   73.89   38.32
  -5  -8  -3   68.73   38.55
  -5  -8  -4   51.45   25.26
  -5  -8  -4   49.83   22.72
   5   8   5  469.24   37.89
  -5  -8  -5  409.62   38.25
   5   8   6  143.54   65.02
  -5  -8  -6  199.72   48.12
   5   8   7  129.22   74.47
  -5  -8  -7  217.57  131.50
   5   8   8  148.09   67.66
  -5  -8  -8  238.96   45.99
   5   8   9   61.19   54.68
  -5  -8  -9   76.05   42.61
   5   8  10   54.77   28.69
  -5  -8 -10   99.47   38.65
   5   8  11   41.09   33.18
  -5  -8 -11   33.50   38.65
   5   8  12   56.17   30.06
  -5  -8 -12   66.33   53.33
   5   8  13   87.83   65.21
  -5  -8 -13   88.34   55.94
  -5  -9   0   14.96   14.13
  -5  -9  -1   10.99   13.60
  -5  -9  -2   38.33   20.42
  -5  -9  -3   29.51   28.42
  -5  -9  -3   22.49   12.97
  -5  -9  -4   12.87   18.33
  -5  -9  -4   13.58   15.16
   5   9   5  100.48   60.22
  -5  -9  -5   85.07   43.98
   5   9   6  165.57   65.12
  -5  -9  -6  212.92   41.59
   5   9   7  274.80   35.80
  -5  -9  -7  341.44   43.63
   5   9   8  163.55   87.85
  -5  -9  -8  256.88   69.61
   5   9   9   62.03   48.22
  -5  -9  -9   71.35   38.19
   5   9  10   20.50   17.91
  -5  -9 -10   32.24   41.55
   5   9  11   63.33   47.18
  -5  -9 -11   87.49   57.16
   5   9  12   17.99   12.53
  -5  -9 -12   25.95   33.53
   5   9  13   33.30   28.39
  -5  -9 -13   19.61   34.02
  -5 -10  -1   16.95   19.11
  -5 -10  -2   -2.97   13.52
  -5 -10  -3   20.61   20.04
  -5 -10  -3    6.99    7.45
  -5 -10  -4   14.68   24.43
  -5 -10  -4    4.88   10.00
  -5 -10  -5   10.33   27.94
  -5 -10  -5    6.17   15.89
   5  10   6   12.04   20.96
  -5 -10  -6   42.51   23.20
   5  10   7  234.51   38.01
  -5 -10  -7  184.27  149.20
   5  10   8  254.98   44.30
  -5 -10  -8  287.02  131.75
   5  10   9   11.15   16.46
  -5 -10  -9   14.66   42.08
   5  10  10   17.54   14.59
  -5 -10 -10   17.74   35.52
   5  10  11   -8.15   20.77
  -5 -10 -11   11.77   27.45
   5  10  12   16.07   13.99
  -5 -10 -12   44.62   32.94
  -5 -11  -3   17.85   13.34
  -5 -11  -4   44.94   20.25
  -5 -11  -4   31.36   23.37
  -5 -11  -5   24.65   17.82
  -5 -11  -5   38.82   30.70
  -5 -11  -6   25.68   27.22
  -5 -11  -6   25.96   17.10
   5  11   7   33.67   22.40
  -5 -11  -7   38.55   26.28
   5  11   8   10.53   18.86
  -5 -11  -8   15.10   14.52
   5  11   9   17.88   15.61
  -5 -11  -9   41.65   32.14
   5  11  10   19.44   21.30
  -5 -11 -10   45.72   50.90
   5  11  11    6.16   11.81
  -5 -11 -11    7.54   33.67
  -5 -12  -6   25.66   18.86
  -5 -12  -6   42.01   27.48
   5  12   7   19.94   23.50
  -5 -12  -7   16.84   21.50
   5  12   8    2.78   12.18
  -5 -12  -8    4.06   21.95
   5  12   9    4.51   16.67
  -5 -12  -9   20.80   21.07
   6 -11  -5   16.68   17.73
   6 -11  -4   -5.92   19.81
   6 -11  -3   19.24   31.15
   6 -11  -2   13.10   15.14
   6 -11  -1   14.70   14.40
   6 -11   0   17.83   23.46
   6 -11   1   72.18   63.61
   6 -10  -6    3.78   19.22
   6 -10  -5   14.44   31.29
   6 -10  -4    9.77   13.51
   6 -10  -3   46.92   18.11
   6 -10  -2   45.27   36.43
   6 -10  -1   36.82   32.08
   6 -10   0   29.06   27.49
   6 -10   1   15.03   15.72
   6 -10   2    7.71   20.11
   6 -10   3   36.30   34.26
   6  -9  -6   22.74   18.44
   6  -9  -5   -5.01   20.22
   6  -9  -4   18.54   31.91
   6  -9  -3   38.57   36.50
   6  -9  -2   23.01   15.71
   6  -9  -1  130.56   81.33
   6  -9   0   84.38   58.59
   6  -9   1   18.03   22.57
   6  -9   2   -5.19   24.70
   6  -9   3   -2.37   26.19
   6  -9   4   23.06   19.79
   6  -9   5    5.09   16.86
   6  -8  -5   -1.20   11.39
   6  -8  -4   77.16   49.22
   6  -8  -3    5.45   12.78
   6  -8  -2   97.75   51.95
   6  -8  -1  236.24   31.51
   6  -8   0  149.35   56.66
   6  -8   1   77.63   40.52
   6  -8   2   23.90   22.19
   6  -8   3   15.61   14.78
   6  -8   4    4.66   15.26
   6  -8   5    4.13    9.97
   6  -8   6   12.64   15.62
   6  -7  -5   27.00   21.92
   6  -7  -4   66.22   38.43
   6  -7  -3   47.86   26.00
   6  -7  -2  132.58   33.64
   6  -7  -1  503.27   65.38
   6  -7   0  103.08   66.26
   6  -7   1   49.65   36.64
   6  -7   2   36.15   19.61
   6  -7   3   18.45   16.99
   6  -7   4   94.84   70.89
   6  -7   5   42.19   24.68
   6  -7   6   10.51   11.22
   6  -7   7   17.63   17.94
  -6   6   8    6.62   20.24
  -6   6   7   99.73   30.84
  -6   6   6   38.17   28.19
  -6   6   5   73.15   25.73
   6  -6  -5   55.39   40.17
  -6   6   4   88.31   18.06
   6  -6  -4   70.35   46.30
  -6   6   3   76.29   17.98
   6  -6  -3   54.32   36.28
   6  -6  -2  435.35   56.61
   6  -6  -1  402.35   54.10
   6  -6   0   16.86   18.33
   6  -6   1  349.23   49.39
   6  -6   2   84.18   46.22
   6  -6   3  204.23   34.19
   6  -6   4   78.03   94.06
   6  -6   5  103.74   51.93
   6  -6   6   67.53   36.24
   6  -6   7   40.82   28.71
   6  -6   8   16.60   12.12
  -6   5   8   10.18   23.48
  -6   5   7    7.06   24.04
  -6   5   6   25.62   26.30
  -6   5   5   85.22   31.64
  -6   5   4   49.22   26.71
   6  -5  -4   43.19   27.28
  -6   5   3  100.20   26.96
   6  -5  -3  106.11   71.44
  -6   5   2  334.35   46.78
   6  -5  -2  305.79   28.26
  -6   5   1  422.96   39.02
   6  -5  -1  405.81   42.52
  -6   5   0  392.57   34.55
   6  -5   0  312.54   34.18
   6  -5   1  201.42   46.64
   6  -5   2  327.16   69.72
   6  -5   3   39.47   20.12
   6  -5   4  622.37   73.61
   6  -5   4  530.06  116.48
   6  -5   5  384.36   20.54
   6  -5   5  307.28   47.21
   6  -5   6  117.94   61.51
   6  -5   7   30.76   17.52
  -6   5  -9   22.10   26.17
  -6   4   8   -0.44   27.89
  -6   4   7   25.88   26.73
  -6   4   6    7.02   25.21
  -6   4   5   56.79   26.33
  -6   4   4  107.82   28.54
  -6   4   3  395.79   58.71
   6  -4  -3  339.12   44.52
  -6   4   2 1026.43   92.00
   6  -4  -2  993.35   83.45
  -6   4   1  649.02   49.92
   6  -4  -1  675.42   49.04
  -6   4   0  144.05    9.39
  -6   4   0  179.98   15.01
   6  -4   0  125.10   15.47
  -6   4  -1   42.52   15.25
  -6   4  -1   60.95   26.13
   6  -4   1   20.01    9.11
  -6   4  -2  154.67   10.06
  -6   4  -2  172.62   10.96
   6  -4   2  164.85   26.91
   6  -4   3   91.54   28.18
  -6   4  -3   51.09    8.40
   6  -4   3   87.01   49.96
   6  -4   4  163.10   13.69
   6  -4   4  136.50   20.90
   6  -4   5   29.06   20.15
   6  -4   5   38.65   30.63
   6  -4   6  478.76   26.82
   6  -4   6  388.97   33.99
   6  -4   7  110.89   46.81
   6  -4   7  121.74   57.71
   6  -4   8   12.02   19.06
  -6   4  -8   17.46   28.64
   6  -4   9    8.17   10.15
  -6   4  -9   -0.81   27.12
  -6   4 -10   13.20   24.03
  -6   3   7   18.53   31.34
  -6   3   6   72.68   31.34
  -6   3   5  124.75   33.55
  -6   3   4  175.08   34.13
  -6   3   3  228.61   33.76
   6  -3  -3  191.77   11.38
  -6   3   2  446.31   51.71
   6  -3  -2  403.77   35.77
  -6   3   1   84.00   31.25
   6  -3  -1   56.55   36.37
  -6   3   0  900.67   66.14
   6  -3   0  804.08   60.40
  -6   3  -1  178.47   13.40
   6  -3   1  153.62   33.16
   6  -3   2  127.78   31.09
   6  -3   2  111.80   16.29
   6  -3   3 1115.18   77.85
   6  -3   3  939.57   71.38
   6  -3   4  252.74   30.34
   6  -3   4  237.69   28.86
   6  -3   5   10.10   10.80
   6  -3   5    9.05   16.24
   6  -3   6   25.84   15.66
   6  -3   6   18.90   19.38
   6  -3   7  402.54   34.57
  -6   3  -7  339.33   44.74
   6  -3   8   91.43   79.54
  -6   3  -8   90.79   26.46
   6  -3   9   13.33   18.89
  -6   3  -9   31.46   29.30
   6  -3  10   10.92   16.60
  -6   3 -10    1.02   24.98
  -6   2   7   34.85   30.44
  -6   2   6    9.44   29.24
  -6   2   5   48.77   44.42
  -6   2   4  154.62   34.11
  -6   2   3  872.10  113.91
  -6   2   2  669.08   85.11
  -6   2   1  136.02   70.05
   6  -2  -1  160.99   12.33
  -6   2   1  130.05   13.81
  -6   2   0  581.92   47.17
   6  -2   0  599.80   44.52
  -6   2  -1  259.98   38.68
   6  -2   1  219.42   37.90
   6  -2   2  198.30   27.76
   6  -2   2  183.80   21.09
   6  -2   3 1465.14  100.09
   6  -2   3 1355.61   97.71
   6  -2   4  551.23   43.24
   6  -2   4  551.42   48.39
   6  -2   5  682.51   47.97
   6  -2   5  686.70   52.60
   6  -2   6  511.76   49.75
  -6   2  -6  565.39   66.68
   6  -2   7  136.37   20.29
  -6   2  -7  163.65   30.85
   6  -2   8   13.41   15.55
  -6   2  -8   25.14   35.99
   6  -2   9   12.78   18.90
  -6   2  -9    9.17   26.26
   6  -2  10   20.02   20.52
  -6   2 -10   26.27   27.43
   6  -2  11   19.21   18.44
  -6   2 -11   48.65   35.90
  -6   1   7   30.79   41.93
  -6   1   6   49.13   31.47
  -6   1   5   22.27   40.02
  -6   1   4   53.83   41.35
  -6   1   3  611.66   75.20
  -6   1   2  878.87  103.01
  -6   1   1  146.92   26.65
  -6   1   1  120.78    9.22
  -6   1   1  116.97    7.52
  -6   1   0  374.92   39.06
  -6   1   0  338.94   25.00
  -6   1  -1   53.26   25.89
   6  -1   1   63.81   11.02
   6  -1   2  565.55   30.31
   6  -1   2  499.84   53.33
   6  -1   3  850.44   39.43
   6  -1   3  812.06   41.69
   6  -1   4  400.44   22.02
  -6   1  -4  371.58   44.22
   6  -1   5  557.14   47.94
  -6   1  -5  582.84   50.43
   6  -1   6  917.78   61.53
  -6   1  -6  973.36   85.95
   6  -1   7  117.08   17.66
  -6   1  -7  154.36   92.97
   6  -1   8  141.88   88.58
  -6   1  -8  102.89   73.52
   6  -1   9   65.98   28.63
  -6   1  -9   47.76   24.78
   6  -1  10   49.96   36.35
  -6   1 -10   44.37   28.32
   6  -1  11    6.27   25.97
  -6   1 -11    8.14   15.28
  -6   0   6   18.93   31.73
  -6   0   5   29.49   33.43
  -6   0   4  140.32   33.81
  -6   0   3  338.02   59.98
  -6   0   2  250.97   39.76
  -6   0   1  213.57   26.90
  -6   0   0  372.26   35.94
  -6   0   0  323.81   22.90
  -6   0   0  342.13   27.19
  -6   0  -1  331.03   37.71
  -6   0  -1  288.35   23.62
  -6   0  -1  304.68   26.75
   6   0   2 2295.05   87.39
  -6   0  -2 2145.24   79.72
   6   0   3  875.67   39.32
  -6   0  -3  790.48   40.83
   6   0   4   25.28   15.20
  -6   0  -4   17.38   19.76
   6   0   5  856.71   86.93
  -6   0  -5  930.00   70.89
   6   0   6  375.84   25.96
  -6   0  -6  556.33   52.22
   6   0   7  123.05   70.74
  -6   0  -7   92.78   34.74
   6   0   8    5.70   16.94
  -6   0  -8   36.26   42.51
   6   0   9   32.73   21.66
  -6   0  -9   13.46   25.11
   6   0  10   24.28   22.99
  -6   0 -10   45.29   27.37
   6   0  11   61.69   41.69
  -6   0 -11   54.40   27.86
   6   0  12   12.36   16.72
  -6   0 -12  -14.02   25.33
  -6  -1   6   14.75   30.86
  -6  -1   5   56.73   31.57
  -6  -1   4  155.79  107.16
  -6  -1   3  105.11   29.72
  -6  -1   2  138.67   46.25
  -6  -1   1  182.54   37.31
  -6  -1   0  214.03   35.65
  -6  -1  -1  392.96   37.29
  -6  -1  -1  360.13   27.62
  -6  -1  -1  393.34   30.92
   6   1   2  620.65   32.31
  -6  -1  -2  524.93   28.82
   6   1   3 1221.17   63.26
  -6  -1  -3 1072.85   48.21
   6   1   4  285.02   28.56
  -6  -1  -4  366.92   37.75
   6   1   5  642.81   64.33
  -6  -1  -5  794.82   66.91
   6   1   6  227.87   60.95
  -6  -1  -6  220.12   48.37
   6   1   7   16.54   15.33
  -6  -1  -7   12.67   14.53
   6   1   8   34.43   27.70
  -6  -1  -8   79.33   42.57
   6   1   9   85.87   53.58
  -6  -1  -9   75.56   28.80
   6   1  10  112.53   63.28
  -6  -1 -10  107.98   56.88
   6   1  11  231.18  109.17
  -6  -1 -11  194.11   43.35
   6   1  12   47.73   37.88
  -6  -1 -12   59.58   36.64
  -6  -2   5   53.11   34.06
  -6  -2   4  160.39   65.23
  -6  -2   3  192.64  117.04
  -6  -2   2    8.52   16.60
  -6  -2   1  508.71   72.83
  -6  -2   0   73.83   22.26
  -6  -2  -1  258.57   25.97
  -6  -2  -1  266.96    9.72
  -6  -2  -1  273.90   24.09
  -6  -2  -2  584.48   50.53
  -6  -2  -2  549.26   42.47
   6   2   3   39.05   25.85
  -6  -2  -3   19.57   14.31
   6   2   4  834.44   40.39
  -6  -2  -4  926.96   49.81
   6   2   5 1540.30  108.11
  -6  -2  -5 1663.94  118.28
   6   2   6  569.98   47.89
  -6  -2  -6  681.10   88.39
   6   2   7  499.25   42.66
  -6  -2  -7  542.29   56.73
   6   2   8  143.47   72.55
  -6  -2  -8  162.08   31.76
   6   2   9   51.47   33.68
  -6  -2  -9   69.50   29.29
   6   2  10  157.02   60.16
  -6  -2 -10  143.55   44.98
   6   2  11  101.25   57.25
  -6  -2 -11   61.84   29.60
   6   2  12   22.26   26.45
  -6  -2 -12   20.81   27.76
   6   2  13   12.62   25.01
  -6  -2 -13   34.06   29.65
  -6  -3   5   39.76   29.50
  -6  -3   4   83.31   68.26
  -6  -3   3   42.81   27.34
  -6  -3   2   34.80   31.13
  -6  -3   1   59.83   25.08
  -6  -3   0  119.85   34.55
  -6  -3  -1  462.17   49.34
  -6  -3  -1  436.85   13.78
   6   3   1  441.02   13.66
  -6  -3  -2  870.99   79.96
  -6  -3  -2  895.68   60.61
   6   3   3  309.60   74.44
  -6  -3  -3  299.02   77.57
   6   3   4 1491.00  117.10
  -6  -3  -4 1369.30  102.51
   6   3   5  906.50   68.47
  -6  -3  -5  972.81   83.82
   6   3   6  604.07   50.66
  -6  -3  -6  642.87   57.44
   6   3   7  208.40   21.87
  -6  -3  -7  144.32   71.06
   6   3   8   99.20   55.39
  -6  -3  -8  124.09   61.09
   6   3   9   -3.22   22.58
  -6  -3  -9   -6.56   31.66
   6   3  10  357.24  117.62
  -6  -3 -10  320.20   38.31
   6   3  11   68.43   41.34
  -6  -3 -11   79.12   32.05
   6   3  12   16.71   19.81
  -6  -3 -12   30.51   36.11
   6   3  13   14.09   34.72
  -6  -3 -13   10.74   21.04
  -6  -4   4   31.02   26.74
  -6  -4   3   65.47   27.93
  -6  -4   2   48.98   40.54
  -6  -4   1   15.08   27.69
  -6  -4   0  216.81   42.66
  -6  -4  -1  496.08   84.96
  -6  -4  -1  476.65   57.35
  -6  -4  -2  454.70   41.10
  -6  -4  -2  542.30   42.44
   6   4   3  121.32   85.13
  -6  -4  -3  154.53   30.37
   6   4   4 1275.51   86.26
  -6  -4  -4 1461.11   97.94
   6   4   5 1086.78   78.57
  -6  -4  -5  916.82   77.26
   6   4   6   53.76   26.94
  -6  -4  -6   47.77   27.22
   6   4   7  105.48   71.99
  -6  -4  -7   77.59   46.17
   6   4   8   55.91   31.84
  -6  -4  -8   92.41   34.77
   6   4   9  191.40   60.27
  -6  -4  -9  174.82   32.54
   6   4  10  266.51   73.43
  -6  -4 -10  170.78  115.91
   6   4  11   41.36   47.79
  -6  -4 -11   56.67   32.66
   6   4  12   -5.23   24.45
  -6  -4 -12   -2.29   28.69
   6   4  13   53.73   43.48
  -6  -4 -13   53.73   40.21
  -6  -5   3    0.74   30.45
  -6  -5   2   76.40   31.86
  -6  -5   1   20.46   29.13
  -6  -5   0  118.93   62.88
  -6  -5  -1  369.49   52.00
  -6  -5  -2  296.08   29.91
  -6  -5  -2  288.42   19.98
  -6  -5  -3  116.01   53.06
  -6  -5  -3   89.99   20.93
   6   5   4  226.58   46.17
  -6  -5  -4  246.09   29.27
   6   5   5  195.44   47.59
  -6  -5  -5  227.71   42.17
   6   5   6  141.29   79.00
  -6  -5  -6  185.02   45.07
   6   5   7  360.02   41.22
  -6  -5  -7  461.70   57.48
   6   5   8   14.08   16.08
  -6  -5  -8   35.82   46.51
   6   5   9  591.89   70.85
  -6  -5  -9  660.31   88.20
   6   5  10  346.02   37.03
  -6  -5 -10  355.11   40.48
   6   5  11   11.88   18.81
  -6  -5 -11   25.59   28.31
   6   5  12    3.69   11.37
  -6  -5 -12    1.21   31.35
   6   5  13   24.62   23.48
  -6  -5 -13   25.25   28.28
  -6  -6   2   -0.91   26.18
  -6  -6   1   24.53   37.43
  -6  -6   0    1.87   25.33
  -6  -6  -1   21.99   25.16
  -6  -6  -2  176.79  103.61
  -6  -6  -2  158.11   14.12
  -6  -6  -3  804.42   78.83
  -6  -6  -3  760.87   84.35
   6   6   4  511.24  120.17
  -6  -6  -4  483.92   63.47
   6   6   5  108.85   80.23
  -6  -6  -5  164.09   48.18
   6   6   6  126.91   62.78
  -6  -6  -6  137.09   47.94
   6   6   7   57.09   34.15
  -6  -6  -7   86.98   51.05
   6   6   8    9.36   11.84
  -6  -6  -8  -12.25   37.82
   6   6   9  246.96   29.94
  -6  -6  -9  320.66  141.05
   6   6  10  292.87  122.05
  -6  -6 -10  223.83   38.85
   6   6  11   36.93   24.29
  -6  -6 -11   20.12   33.01
   6   6  12   46.84   38.54
  -6  -6 -12   48.81   35.10
   6   6  13   13.54   18.02
  -6  -6 -13   24.62   25.32
  -6  -7   2   -0.31   25.81
  -6  -7   1   24.72   25.96
  -6  -7   0   96.78   31.06
  -6  -7  -1   22.30   27.29
  -6  -7  -2   11.54   20.37
  -6  -7  -3  229.54   79.14
  -6  -7  -3  211.65   40.42
  -6  -7  -4  731.94   70.37
   6   7   5  112.04   61.19
  -6  -7  -5  109.81   27.82
   6   7   6  117.21   80.90
  -6  -7  -6   88.69   32.62
   6   7   7   23.11   17.16
  -6  -7  -7   19.87   36.97
   6   7   8  155.76   66.92
  -6  -7  -8  163.23  145.15
   6   7   9  225.06   38.10
  -6  -7  -9  249.66  139.50
   6   7  10   68.97   33.08
  -6  -7 -10   65.52   48.45
   6   7  11   45.24   18.98
  -6  -7 -11   48.01   30.53
   6   7  12  177.71  100.18
  -6  -7 -12  260.55   89.77
   6   7  13   56.06   32.03
  -6  -7 -13   61.72   32.79
  -6  -8   0  113.25   37.87
  -6  -8  -1   76.68   40.80
  -6  -8  -2   37.26   28.81
  -6  -8  -3  140.40   29.41
  -6  -8  -3  118.19   69.50
  -6  -8  -4  -11.68   25.36
  -6  -8  -4   10.70   12.30
   6   8   5   13.84   15.90
  -6  -8  -5   35.75   22.89
   6   8   6   -0.74   24.16
  -6  -8  -6   23.84   40.01
   6   8   7   22.66   17.58
  -6  -8  -7   25.92   23.32
   6   8   8  243.59  110.28
  -6  -8  -8  328.83   56.48
   6   8   9  228.56   37.32
  -6  -8  -9  249.43   41.54
   6   8  10    9.36   14.59
  -6  -8 -10   29.07   37.96
   6   8  11   22.36   23.29
  -6  -8 -11    7.82   19.82
   6   8  12   35.60   30.25
  -6  -8 -12   49.00   36.14
   6   8  13   27.68   26.32
  -6  -8 -13   29.24   31.95
  -6  -9  -1   57.62   26.49
  -6  -9  -2   81.95   67.45
  -6  -9  -3   60.44   52.91
  -6  -9  -4   31.56   29.53
  -6  -9  -4   32.16   21.54
  -6  -9  -5   25.12   23.33
  -6  -9  -5   29.53   12.75
   6   9   6    8.83   13.83
  -6  -9  -6   14.41   16.19
   6   9   7   28.41   16.38
  -6  -9  -7   65.58   34.38
   6   9   8  144.46   84.19
  -6  -9  -8  209.53   65.55
   6   9   9  200.01   92.45
  -6  -9  -9  282.72   56.22
   6   9  10   51.60   36.01
  -6  -9 -10   45.82   56.48
   6   9  11   35.88   16.20
  -6  -9 -11   39.25   34.51
   6   9  12   10.98   17.59
  -6  -9 -12   17.79   37.37
  -6 -10  -2   49.85   48.61
  -6 -10  -3   85.61   55.25
  -6 -10  -4   28.59   19.60
  -6 -10  -5   54.10   21.96
  -6 -10  -5   59.47   29.57
   6  10   6   19.47   23.46
  -6 -10  -6   11.35   19.64
   6  10   7   84.37   47.21
  -6 -10  -7   92.00   49.31
   6  10   8   87.67   61.07
  -6 -10  -8  120.92   72.76
   6  10   9   32.08   17.82
  -6 -10  -9   51.01   48.22
   6  10  10    8.59   11.66
  -6 -10 -10    8.46   35.73
   6  10  11   27.85   16.29
  -6 -10 -11   52.61   36.30
   6  10  12   26.27   18.38
  -6 -10 -12   48.81   31.83
  -6 -11  -4    7.00   20.27
  -6 -11  -5    6.10   12.09
  -6 -11  -5   15.03   12.86
  -6 -11  -6   11.25   21.31
  -6 -11  -6   -8.20   22.39
   6  11   7   15.28   25.65
  -6 -11  -7   26.66   17.73
   6  11   8   80.07   35.01
  -6 -11  -8   83.15   58.16
   6  11   9    5.09   20.21
  -6 -11  -9   12.39   23.07
   6  11  10   13.79   20.14
  -6 -11 -10   50.54   38.12
   6  11  11   15.37   10.57
  -6 -11 -11   27.89   30.86
   7 -11  -3   11.20   15.13
   7 -11  -2   -9.99   23.47
   7 -11  -1    3.22   10.47
   7 -11   0   30.71   19.49
   7 -10  -5   25.50   28.32
   7 -10  -4    7.83   17.01
   7 -10  -3   -0.28    9.13
   7 -10  -2   10.53    9.87
   7 -10  -1    6.84   13.24
   7 -10   0   22.03   21.81
   7 -10   1   57.67   36.42
   7 -10   2   13.44   14.56
   7 -10   3   21.01   27.45
   7  -9  -4   22.03   22.19
   7  -9  -3   19.21   15.81
   7  -9  -2   16.47   19.28
   7  -9  -1   10.18   12.75
   7  -9   0  105.93   69.58
   7  -9   2   15.82   17.58
   7  -9   3   38.71   25.75
   7  -9   4    7.63    8.25
   7  -8  -4   19.44   15.63
   7  -8  -3   25.02   15.66
   7  -8  -2   15.89   19.69
   7  -8  -1   17.02   21.99
   7  -8   0  130.60   88.09
   7  -8   1  100.33   62.21
   7  -8   2   20.00   21.19
   7  -8   3   25.88   26.63
   7  -8   4   49.27   44.44
   7  -8   5   -2.68   25.83
   7  -8   6    8.53   14.06
   7  -7  -4   13.01   10.70
   7  -7  -3   13.15   13.18
   7  -7  -2   25.91   15.56
   7  -7  -1   95.58   62.33
   7  -7   0   73.52   53.27
   7  -7   1  107.72   58.12
   7  -7   2   60.72   39.99
   7  -7   3   98.47   60.01
   7  -7   4   12.27   28.83
   7  -7   5   64.99   41.94
   7  -7   6   30.69   29.05
   7  -7   7   12.90   20.71
   7  -6  -3   46.14   35.18
   7  -6  -2   79.04   56.73
   7  -6  -1  641.81   35.46
   7  -6   0  223.72   25.23
   7  -6   1   14.86   15.64
   7  -6   2   37.48   19.38
   7  -6   3  117.87   69.78
   7  -6   4   36.40   28.99
   7  -6   5   22.72   14.97
   7  -6   6   21.03   19.51
   7  -6   7   58.66   40.85
   7  -6   8   18.60   20.68
  -7   5   7   76.03   28.99
  -7   5   6   32.06   22.42
  -7   5   5   26.64   21.90
  -7   5   4    6.90   20.80
  -7   5   3   55.14   23.30
   7  -5  -3   25.06   16.31
  -7   5   2    7.64   20.93
   7  -5  -2    5.16    7.65
  -7   5   1  485.14   58.26
   7  -5  -1  378.24   46.27
   7  -5   0  445.20   58.82
   7  -5   1  661.52   83.88
   7  -5   2  330.54   47.92
   7  -5   3   12.63   10.16
   7  -5   4   86.50   54.53
   7  -5   5   28.09   35.93
   7  -5   6    0.55   12.85
   7  -5   7   13.67   26.68
  -7   5  -8   83.96   65.06
  -7   5  -9   29.02   28.09
  -7   4   7   47.40   23.98
  -7   4   6  137.92   35.18
  -7   4   5   10.42   25.35
  -7   4   4  159.39   38.75
  -7   4   3   64.57   22.27
  -7   4   2  205.43   29.47
   7  -4  -2  199.05   29.13
  -7   4   1  285.73   60.22
   7  -4  -1  281.53   22.65
  -7   4   0   54.42   13.70
   7  -4   0   26.86   24.31
  -7   4  -1  204.26   24.29
   7  -4   1  184.50   27.54
  -7   4  -2  994.18   88.73
   7  -4   2  856.28   76.78
   7  -4   3  155.08   12.29
   7  -4   3  131.06   87.63
   7  -4   4  150.69   12.75
   7  -4   4   99.49   57.35
   7  -4   5  435.09   50.20
   7  -4   5  355.12   65.59
   7  -4   6   20.59   12.62
   7  -4   6   24.21   33.48
   7  -4   7  122.92   73.60
   7  -4   7  117.34   67.91
  -7   4  -8   44.63   27.23
  -7   4  -9   32.46   38.89
  -7   4 -10   16.52   28.38
  -7   3   6   16.77   25.88
  -7   3   5    7.85   26.73
  -7   3   4   61.80   34.39
  -7   3   3   64.46   29.10
  -7   3   2  609.14  126.55
   7  -3  -2  424.72   50.27
  -7   3   1  500.05   69.68
   7  -3  -1  421.78   53.34
  -7   3   0  106.56   20.60
   7  -3   0   73.73   45.10
  -7   3  -1  226.53   19.18
   7  -3   1  259.89   23.85
  -7   3  -2  381.54   32.81
   7  -3   2  368.23   26.70
   7  -3   3  272.36   17.87
   7  -3   3  226.22   50.77
   7  -3   4   40.29   28.38
   7  -3   4   43.63   28.76
   7  -3   5   48.49   32.91
   7  -3   5   32.99   20.85
   7  -3   6  269.32   38.05
   7  -3   6  275.84   59.21
   7  -3   7  329.33   51.79
  -7   3  -7  342.00   37.04
   7  -3   8  102.91   58.84
  -7   3  -8   77.16   39.86
   7  -3   9    4.59   10.16
  -7   3  -9    4.32   28.63
   7  -3  10   11.51   15.33
  -7   3 -10   -8.21   24.98
  -7   2   6   17.56   29.13
  -7   2   5   40.64   38.66
  -7   2   4   -3.18   25.89
  -7   2   3   72.05   42.64
  -7   2   2  347.10   88.84
  -7   2   1  885.65  113.33
  -7   2   0  363.47   42.41
   7  -2   0  273.67   16.92
  -7   2  -1  427.75   25.93
   7  -2   1  423.30   23.66
  -7   2  -2  131.50   40.88
   7  -2   2  127.98   26.80
   7  -2   3  194.53   25.81
   7  -2   3  182.01   31.86
   7  -2   4   67.16   44.82
   7  -2   4   72.66   51.12
   7  -2   5   26.34   15.87
   7  -2   5   38.88   24.67
   7  -2   6  134.99   52.58
  -7   2  -6  160.58   45.36
   7  -2   7  370.59   48.22
  -7   2  -7  418.35   62.87
   7  -2   8  184.10   29.65
  -7   2  -8  163.76   40.90
   7  -2   9    9.32   11.69
  -7   2  -9    5.00   30.14
   7  -2  10   27.85   21.25
  -7   2 -10   -1.99   29.59
   7  -2  11   -3.50   19.50
  -7   2 -11   11.52   25.31
  -7   1   6   20.59   28.78
  -7   1   5   59.62   46.45
  -7   1   4   37.40   40.28
  -7   1   3  126.26   45.97
  -7   1   2  431.47   63.99
  -7   1   1   82.42   22.37
  -7   1   0  699.04   64.68
  -7   1   0  688.03   56.58
  -7   1  -1  432.43   36.30
  -7   1  -1  480.03   37.38
  -7   1  -2  114.05   56.07
  -7   1  -2  149.60   36.48
   7  -1   3  449.67   38.34
  -7   1  -3  410.23   39.03
   7  -1   4  495.33   38.94
  -7   1  -4  529.94   48.01
   7  -1   5   31.78   16.58
  -7   1  -5   33.50   24.85
   7  -1   6  430.02   42.06
  -7   1  -6  405.29   47.18
   7  -1   7  218.43   41.76
  -7   1  -7  220.88   57.93
   7  -1   8   55.94   32.56
  -7   1  -8   82.70   58.11
   7  -1   9   62.18   37.75
  -7   1  -9   71.16   43.60
   7  -1  10   35.44   33.44
  -7   1 -10   43.80   47.57
   7  -1  11   -5.76   21.05
  -7   1 -11  -10.50   25.45
  -7   0   5    8.52   25.27
  -7   0   4   -0.60   27.69
  -7   0   3  140.10   39.16
  -7   0   2  293.59   38.86
  -7   0   1  181.03   33.00
  -7   0   0  742.90   69.70
  -7   0  -1  770.51   70.67
  -7   0  -1  678.61   43.18
  -7   0  -1  677.64   44.74
  -7   0  -2  357.76   26.25
  -7   0  -2  404.08   68.03
   7   0   3  243.62   46.43
  -7   0  -3  146.02   24.24
   7   0   4  242.66   18.73
  -7   0  -4  240.57   31.60
   7   0   5   92.68   53.47
  -7   0  -5  143.58   87.68
   7   0   6  724.99   51.74
  -7   0  -6  843.16   67.23
   7   0   7  476.58   62.89
  -7   0  -7  449.58   65.36
   7   0   8   64.62   45.93
  -7   0  -8   74.59   28.41
   7   0   9   56.95   36.21
  -7   0  -9   75.38   29.09
   7   0  10   91.33   36.92
  -7   0 -10   82.71   54.17
   7   0  11   72.56   62.79
  -7   0 -11   90.98   29.03
   7   0  12    7.63   13.21
  -7   0 -12   10.94   23.54
  -7  -1   5    6.37   32.64
  -7  -1   4   34.77   26.23
  -7  -1   3  145.69   33.68
  -7  -1   2  192.44   34.68
  -7  -1   1   43.15   24.38
  -7  -1   0  698.27   93.24
  -7  -1  -1  596.18   57.16
  -7  -1  -1  545.59   45.05
  -7  -1  -2   64.34   35.10
  -7  -1  -2   50.75   32.63
   7   1   3  786.83   57.92
  -7  -1  -3  534.71   66.41
   7   1   4  232.81   25.37
  -7  -1  -4  153.76   22.52
   7   1   5  858.15   59.22
  -7  -1  -5  821.87   59.93
   7   1   6  775.64   57.57
  -7  -1  -6  918.42   72.85
   7   1   7  461.91   50.54
  -7  -1  -7  592.29   72.53
   7   1   8    1.76   11.27
  -7  -1  -8    9.79   29.49
   7   1   9  264.80   70.00
  -7  -1  -9  186.12   32.30
   7   1  10   18.35   17.68
  -7  -1 -10   24.18   32.85
   7   1  11  117.32   71.13
  -7  -1 -11  123.93   35.76
   7   1  12   70.02   43.35
  -7  -1 -12   37.93   26.00
  -7  -2   4   20.89   27.30
  -7  -2   3  125.43   42.60
  -7  -2   2  195.35   47.24
  -7  -2   1   18.75   25.08
  -7  -2   0   72.45   23.18
  -7  -2  -1   93.72   39.92
  -7  -2  -2   97.83   41.82
  -7  -2  -2   84.93   39.81
   7   2   3  674.87  100.16
  -7  -2  -3  751.41  120.70
   7   2   4  207.25   23.18
  -7  -2  -4  199.72   84.71
   7   2   5 1427.99  101.66
  -7  -2  -5 1456.78   97.96
   7   2   6 1237.48   88.39
  -7  -2  -6 1263.16   93.12
   7   2   7  118.91   25.89
  -7  -2  -7  143.27   31.91
   7   2   8   68.70   30.47
  -7  -2  -8   32.06   28.19
   7   2   9   23.22   19.91
  -7  -2  -9   28.85   27.99
   7   2  10   91.97   45.59
  -7  -2 -10  111.95   32.32
   7   2  11   13.38   17.48
  -7  -2 -11   24.78   29.04
   7   2  12   23.36   16.58
  -7  -2 -12   19.66   28.43
   7   2  13   28.13   27.66
  -7  -2 -13   20.20   19.40
  -7  -3   4    9.52   30.76
  -7  -3   3   46.15   30.84
  -7  -3   2  153.30   32.21
  -7  -3   1  306.92   51.82
  -7  -3   0   80.23   40.74
  -7  -3  -1  129.42   26.31
  -7  -3  -2  343.77  128.70
  -7  -3  -2  297.76   16.61
   7   3   3   24.52   26.32
  -7  -3  -3    4.66    9.23
   7   3   4  203.97  106.23
  -7  -3  -4  142.42   24.45
   7   3   5  142.77   81.48
  -7  -3  -5  172.70   40.12
   7   3   6  830.96   72.04
  -7  -3  -6  852.86   88.49
   7   3   7  656.24   62.87
  -7  -3  -7  655.28   71.29
   7   3   8  323.83   45.91
  -7  -3  -8  407.74   61.41
   7   3   9   -0.01   20.76
  -7  -3  -9   22.22   25.65
   7   3  10  109.45   71.61
  -7  -3 -10  122.47   79.00
   7   3  11   76.51   57.69
  -7  -3 -11   81.18   30.04
   7   3  12   11.93   17.68
  -7  -3 -12    8.69   14.34
   7   3  13   14.86   23.16
  -7  -3 -13    7.56   28.41
  -7  -4   3   14.99   41.71
  -7  -4   2    2.46   26.08
  -7  -4   1  177.64   39.52
  -7  -4   0  377.93   37.53
  -7  -4  -1   99.77   36.67
  -7  -4  -2  266.68   28.83
  -7  -4  -2  251.90   27.10
  -7  -4  -3  417.37   98.51
  -7  -4  -3  374.02   55.62
   7   4   4  719.33   68.17
  -7  -4  -4  702.65   74.73
   7   4   5  806.82   74.94
  -7  -4  -5  654.96   69.39
   7   4   6   11.52   18.90
  -7  -4  -6    2.53   32.47
   7   4   7  181.92   45.20
  -7  -4  -7  189.18   33.38
   7   4   8  122.17   67.75
  -7  -4  -8  211.08   44.69
   7   4   9  206.88   61.04
  -7  -4  -9  258.52   47.40
   7   4  10  168.75   24.22
  -7  -4 -10  160.05   39.32
   7   4  11  194.14   88.62
  -7  -4 -11  140.12   41.61
   7   4  12   19.52   20.84
  -7  -4 -12   11.07   29.11
   7   4  13   19.31   17.76
  -7  -4 -13    8.95   31.62
  -7  -5   2   38.53   34.47
  -7  -5   1   34.31   24.76
  -7  -5   0   21.61   27.49
  -7  -5  -1   23.41   39.61
  -7  -5  -2   60.06   33.42
  -7  -5  -3   93.79   58.35
  -7  -5  -3   84.04   56.41
   7   5   4  670.88   90.17
  -7  -5  -4  801.95  102.31
   7   5   5 1059.32  132.36
  -7  -5  -5 1303.57   61.66
   7   5   6  146.82   91.30
  -7  -5  -6  156.94   32.73
   7   5   7  234.25   27.39
  -7  -5  -7  162.63   79.23
   7   5   8   68.60   44.27
  -7  -5  -8   46.62   52.48
   7   5   9  254.32   36.75
  -7  -5  -9  315.91   50.93
   7   5  10   52.14   34.65
  -7  -5 -10   39.03   32.90
   7   5  11   67.60   41.33
  -7  -5 -11   59.99   33.65
   7   5  12   17.90   15.53
  -7  -5 -12   28.69   30.99
   7   5  13   50.58   35.34
  -7  -5 -13   74.48   32.69
  -7  -6   1   66.13   41.92
  -7  -6   0   26.26   27.96
  -7  -6  -1   59.68   27.99
  -7  -6  -2   60.84   49.22
  -7  -6  -3   38.00   22.78
  -7  -6  -3   27.41   21.42
  -7  -6  -4  194.78   31.73
   7   6   5  534.56   66.47
  -7  -6  -5  641.17   79.51
   7   6   6  317.22   57.96
  -7  -6  -6  462.34  114.34
   7   6   7   32.19   21.39
  -7  -6  -7   48.79   20.21
   7   6   8   48.87   27.52
  -7  -6  -8   98.44   35.74
   7   6   9   24.29   20.60
  -7  -6  -9   46.69   50.48
   7   6  10   94.58   45.73
  -7  -6 -10   93.32   60.90
   7   6  11   10.02   19.09
  -7  -6 -11   16.92   24.65
   7   6  12   30.11   28.32
  -7  -6 -12   39.76   34.58
   7   6  13   26.45   27.27
  -7  -6 -13   22.92   31.24
  -7  -7   0   18.29   25.69
  -7  -7  -1    7.92   19.73
  -7  -7  -2   81.17   43.24
  -7  -7  -3   89.90   55.59
  -7  -7  -4  234.58   88.38
  -7  -7  -4  171.45   18.46
   7   7   5  189.18  127.29
  -7  -7  -5  142.19   68.16
   7   7   6   49.47   28.49
  -7  -7  -6   60.52   26.06
   7   7   7   48.55   28.48
  -7  -7  -7  107.84   39.71
   7   7   8   46.97   32.87
  -7  -7  -8   41.13   31.51
   7   7   9   45.98   26.27
  -7  -7  -9   62.26   33.32
   7   7  10  315.03   78.32
  -7  -7 -10  298.09   44.88
   7   7  11    6.98   19.98
  -7  -7 -11   -3.10   36.91
   7   7  12   37.35   27.00
  -7  -7 -12   56.20   48.14
   7   7  13   22.42   23.27
  -7  -7 -13   32.63   33.46
  -7  -8  -1    9.85   10.06
  -7  -8  -2   15.45   15.65
  -7  -8  -3  144.63   32.11
  -7  -8  -4  288.44   35.81
  -7  -8  -5   80.40   31.85
  -7  -8  -5   62.68   34.79
   7   8   6  150.63   85.94
  -7  -8  -6  172.84   30.99
   7   8   7   27.76   20.55
  -7  -8  -7   41.15   31.54
   7   8   8   85.65   44.88
  -7  -8  -8  103.29   37.42
   7   8   9  184.44  118.14
  -7  -8  -9  209.95   43.41
   7   8  10   29.56   21.23
  -7  -8 -10   31.89   46.86
   7   8  11   21.30   18.27
  -7  -8 -11   17.42   36.12
   7   8  12   38.15   24.24
  -7  -8 -12   47.19   33.74
   7   8  13   56.94   35.64
  -7  -8 -13   70.44   37.12
  -7  -9  -2   35.28   43.11
  -7  -9  -3   55.89   26.25
  -7  -9  -4   59.38   57.58
  -7  -9  -5   63.52   39.22
  -7  -9  -5   45.58   36.96
   7   9   6   16.56   21.56
  -7  -9  -6   34.03   19.93
   7   9   7   30.48   21.11
  -7  -9  -7   47.79   26.69
   7   9   8    8.58   11.99
  -7  -9  -8    8.32   23.71
   7   9   9   89.49   39.05
  -7  -9  -9   94.50   51.93
   7   9  10   32.15   26.83
  -7  -9 -10   32.49   53.55
   7   9  11    9.08   19.11
  -7  -9 -11   28.38   33.87
   7   9  12   35.23   47.12
  -7  -9 -12   61.11   39.10
  -7 -10  -4   14.68   25.19
  -7 -10  -5    5.65   25.37
  -7 -10  -6    3.86   10.70
  -7 -10  -6   -1.15   12.35
   7  10   7    2.12   16.18
  -7 -10  -7   16.68   17.41
   7  10   8   37.69   28.14
  -7 -10  -8   29.73   19.49
   7  10   9   13.74   15.97
  -7 -10  -9   39.18   35.91
   7  10  10   12.54   11.67
  -7 -10 -10   -1.58   35.26
   7  10  11   34.49   15.24
  -7 -10 -11   60.53   35.62
  -7 -11  -7    6.77    6.79
  -7 -11  -7    9.18   17.86
   7  11   8   64.86   45.28
   7  11   9   44.50   21.40
  -7 -11  -9   63.81   50.28
   8 -10  -3    3.19   18.14
   8 -10  -2    9.16   11.40
   8 -10  -1   16.35   16.84
   8 -10   0    8.00   16.29
   8 -10   1   17.30   21.68
   8  -9  -3   14.91   14.40
   8  -9  -2   17.68   12.69
   8  -9  -1   13.28   18.45
   8  -9   0   11.50   14.22
   8  -9   1   11.61   27.75
   8  -9   2   55.82   44.19
   8  -9   3   44.17   28.11
   8  -9   4   48.90   43.58
   8  -8  -3   37.96   30.53
   8  -8  -2   15.52   13.10
   8  -8  -1    5.53   12.95
   8  -8   0   56.51   30.93
   8  -8   1   18.31   17.13
   8  -8   2   11.34   15.30
   8  -8   3   50.78   38.98
   8  -8   4   59.21   52.19
   8  -8   5   58.21   39.44
   8  -7  -2   69.52   57.26
   8  -7  -1    9.89    8.37
   8  -7   0   83.71   68.09
   8  -7   1  183.22   72.43
   8  -7   2   36.18   22.73
   8  -7   3   35.52   30.71
   8  -7   4   10.20   12.96
   8  -7   5   18.27   32.35
   8  -7   6   18.02   20.40
   8  -7   7   11.43   16.39
   8  -6  -2    7.58   11.03
   8  -6  -1   17.47   17.37
   8  -6   0   58.97   29.90
   8  -6   1   75.06   50.10
   8  -6   2   81.62   49.25
   8  -6   3  262.98   50.63
   8  -6   4   90.95   61.77
   8  -6   5    5.89   16.16
   8  -6   6   12.61   12.58
   8  -6   7    9.25   12.35
   8  -6   8   14.19   26.88
   8  -5  -1   63.90   41.20
   8  -5   0  217.19   23.74
   8  -5   1   63.55   38.78
   8  -5   2  108.28   85.19
   8  -5   3  249.77   28.65
   8  -5   4  215.18   28.42
   8  -5   5    7.79   12.25
   8  -5   6    9.71   20.36
   8  -5   7   12.83   19.57
  -8   5  -8   52.83   44.64
  -8   5  -9   28.15   30.49
  -8   4   5   22.36   22.44
  -8   4   4   31.65   18.46
  -8   4   3   31.50   19.56
  -8   4   2   33.18   26.35
  -8   4   1  193.80   39.90
   8  -4  -1  147.64   21.95
  -8   4   0  309.40   38.55
   8  -4   0  274.18   36.29
  -8   4  -1  244.53   17.28
   8  -4   1  250.43   35.80
  -8   4  -2  148.99   31.64
   8  -4   2  157.49   35.78
   8  -4   3  266.27   41.37
   8  -4   4   63.50   34.59
   8  -4   4   62.60   53.86
   8  -4   5   25.59   20.14
   8  -4   6   31.94   19.77
   8  -4   7    8.48   15.03
  -8   4  -8   39.89   43.62
  -8   4  -9   30.58   36.19
  -8   3   5   10.70   35.19
  -8   3   4  141.60   40.75
  -8   3   3   85.64   33.18
  -8   3   2   77.03   33.05
  -8   3   1  305.47   67.23
  -8   3   0  101.96   25.06
   8  -3   0   79.49   49.95
  -8   3  -1  202.09   21.97
   8  -3   1  157.56   24.66
  -8   3  -2  487.61   60.89
   8  -3   2  386.94   53.28
  -8   3  -3  244.73   32.52
   8  -3   3  260.23   30.84
   8  -3   4  214.34   27.15
   8  -3   4  195.75  107.36
   8  -3   5  211.77   18.87
   8  -3   5  146.18   23.48
   8  -3   6    8.49   12.68
   8  -3   6    8.08   16.33
   8  -3   7  259.54   22.03
  -8   3  -7  225.82   35.14
   8  -3   8   44.55   26.19
  -8   3  -8   50.82   29.88
   8  -3   9   14.38   11.93
  -8   3  -9   23.46   28.96
  -8   3 -10   40.27   37.08
  -8   2   5    5.83   27.60
  -8   2   4   24.86   27.16
  -8   2   3   70.98   43.29
  -8   2   2    0.43   21.78
  -8   2   1  112.76   56.91
  -8   2   0  129.72   28.13
  -8   2  -1  316.06   31.10
   8  -2   1  324.97   43.50
  -8   2  -2  708.27   97.89
   8  -2   2  598.66   75.85
   8  -2   3  296.98   22.91
   8  -2   4   16.87   19.72
   8  -2   5  318.14   27.93
  -8   2  -5  265.03   28.85
   8  -2   6   51.29   35.85
  -8   2  -6   46.67   29.72
   8  -2   7  127.32   25.87
  -8   2  -7  154.30   94.79
   8  -2   8  382.85   29.39
  -8   2  -8  316.26   97.37
   8  -2   9   57.87   49.80
  -8   2  -9   26.14   28.34
   8  -2  10   11.73   13.03
  -8   2 -10   -2.13   28.85
   8  -2  11   27.95   30.17
  -8   2 -11   28.81   34.98
  -8   1   5    2.84   24.39
  -8   1   4    3.26   26.37
  -8   1   3   -0.90   25.58
  -8   1   2   33.67   22.02
  -8   1   1  287.92   31.84
  -8   1   0   27.56   20.84
  -8   1  -1  952.60  118.77
  -8   1  -1  878.43  104.98
  -8   1  -2 1200.47   43.77
  -8   1  -2 1180.52   98.07
   8  -1   3   78.75   42.29
  -8   1  -3  113.41   71.04
   8  -1   4  262.20   53.02
  -8   1  -4  196.97   89.17
   8  -1   5    4.56   12.37
  -8   1  -5   -0.82   25.07
   8  -1   6   30.64   19.62
  -8   1  -6   38.08   28.65
   8  -1   7   47.43   25.94
  -8   1  -7   71.46   42.45
   8  -1   8  227.88   24.83
  -8   1  -8  245.17   43.89
   8  -1   9   45.82   23.18
  -8   1  -9   47.92   28.03
   8  -1  10  152.55  115.38
  -8   1 -10  174.09   68.62
   8  -1  11   41.94   22.76
  -8   1 -11   29.01   32.54
  -8   0   4   15.46   30.91
  -8   0   3   28.18   19.24
  -8   0   2  129.59   67.63
  -8   0   1  142.69   36.63
  -8   0   0   50.97   26.42
  -8   0  -1  163.20   43.78
  -8   0  -2  326.53   60.42
  -8   0  -2  296.44   22.42
   8   0   3   53.01   35.49
  -8   0  -3  296.54   27.70
   8   0   4  103.74   66.00
  -8   0  -4   58.65   19.15
   8   0   5   67.87   49.34
  -8   0  -5   46.62   24.00
   8   0   6  350.19   48.69
  -8   0  -6  437.13   66.46
   8   0   7  296.98   38.92
  -8   0  -7  272.78   51.34
   8   0   8   69.44   39.12
  -8   0  -8   97.01   32.21
   8   0   9   40.07   37.67
  -8   0  -9   30.46   30.34
   8   0  10   55.33   33.44
  -8   0 -10   62.55   47.61
   8   0  11  132.75   93.58
  -8   0 -11  105.90   73.15
   8   0  12    5.05   14.36
  -8   0 -12   34.71   31.18
  -8  -1   4   67.48   40.48
  -8  -1   3   14.30   27.39
  -8  -1   2   84.03   32.67
  -8  -1   1  181.16   34.79
  -8  -1   0  207.79   29.86
  -8  -1  -1  239.29   36.70
  -8  -1  -2  151.89   86.99
  -8  -1  -2  133.48   16.79
  -8  -1  -3   37.45   19.46
  -8  -1  -3   33.83   14.77
   8   1   4  656.57   62.33
  -8  -1  -4  781.73   71.33
   8   1   5  126.58   74.34
  -8  -1  -5  146.88   29.78
   8   1   6  376.19   50.85
  -8  -1  -6  375.68   54.33
   8   1   7 1105.73  134.68
  -8  -1  -7 1033.90  128.73
   8   1   8  136.28   21.10
  -8  -1  -8  159.37   47.78
   8   1   9   83.03   55.87
  -8  -1  -9   71.86   45.99
   8   1  10   -0.89   14.89
  -8  -1 -10   12.19   26.94
   8   1  11   19.76   20.59
  -8  -1 -11   25.98   29.15
   8   1  12    9.29   11.22
  -8  -1 -12   15.01   20.43
  -8  -2   3   11.04   29.71
  -8  -2   2   21.55   29.73
  -8  -2   1   31.15   26.94
  -8  -2   0  592.77  106.57
  -8  -2  -1  714.93   84.31
  -8  -2  -2   81.03   53.18
  -8  -2  -3  225.66   74.41
  -8  -2  -3  193.94   21.43
   8   2   4   41.36   27.75
  -8  -2  -4   35.13   21.07
   8   2   5   95.28   47.95
  -8  -2  -5   71.23   31.71
   8   2   6  497.62   77.26
  -8  -2  -6  334.92   51.55
   8   2   7   50.34   32.80
  -8  -2  -7   32.29   33.55
   8   2   8   96.37   60.82
  -8  -2  -8  101.88   48.40
   8   2   9  204.55   73.43
  -8  -2  -9  256.37   36.75
   8   2  10  182.51  109.84
  -8  -2 -10  233.52   41.01
   8   2  11   22.93   21.82
  -8  -2 -11   24.60   31.94
   8   2  12   29.45   26.70
  -8  -2 -12   48.13   28.84
   8   2  13   24.64   27.28
  -8  -2 -13   -3.91   28.23
  -8  -3   3   39.70   29.49
  -8  -3   2  114.16   71.00
  -8  -3   1   23.22   42.74
  -8  -3   0  193.88   33.47
  -8  -3  -1  248.99   34.13
  -8  -3  -2  183.67   75.38
  -8  -3  -3   -3.02   23.34
  -8  -3  -3    3.39   13.76
   8   3   4  225.36   28.04
  -8  -3  -4  177.38   23.90
   8   3   5  189.35  100.41
  -8  -3  -5  153.26   28.27
   8   3   6  636.57   84.39
  -8  -3  -6  643.54  133.76
   8   3   7  207.47   25.10
  -8  -3  -7  240.77   60.15
   8   3   8   43.86   35.16
  -8  -3  -8   24.91   28.84
   8   3   9  269.41   36.61
  -8  -3  -9  274.40  128.84
   8   3  10  175.01   87.50
  -8  -3 -10  237.10  117.31
   8   3  11   95.55   62.62
  -8  -3 -11   64.55   51.25
   8   3  12   37.42   26.29
  -8  -3 -12   -0.02   32.36
   8   3  13    8.88   11.72
  -8  -3 -13   11.85   16.18
  -8  -4   2   20.95   31.32
  -8  -4   1   30.43   25.37
  -8  -4   0  116.86   56.58
  -8  -4  -1   22.30   20.32
  -8  -4  -2   56.64   33.70
  -8  -4  -3   23.81   23.74
   8   4   4   -6.77   20.36
  -8  -4  -4   -0.18   16.19
   8   4   5  219.64   99.86
  -8  -4  -5  217.54   26.78
   8   4   6  599.08   76.66
  -8  -4  -6  544.30   69.12
   8   4   7  299.09   66.93
  -8  -4  -7  285.66   47.42
   8   4   8   27.59   17.93
  -8  -4  -8   53.08   36.99
   8   4   9  272.90   78.84
  -8  -4  -9  241.32   39.75
   8   4  10   54.26   26.91
  -8  -4 -10   59.26   33.96
   8   4  11   50.16   29.31
  -8  -4 -11   20.42   22.52
   8   4  12    5.83    8.92
  -8  -4 -12  -13.40   31.59
   8   4  13   -6.50   25.41
  -8  -4 -13    8.46   28.81
  -8  -5   1   40.97   37.27
  -8  -5   0   56.20   38.66
  -8  -5  -1   11.76   26.15
  -8  -5  -2    6.01   15.45
  -8  -5  -3   42.33   21.87
  -8  -5  -4   86.99   50.56
  -8  -5  -4   79.21   48.87
   8   5   5  288.74   36.13
  -8  -5  -5  273.41   30.39
   8   5   6   62.01   32.77
  -8  -5  -6   88.67   38.72
   8   5   7  157.66   47.87
  -8  -5  -7  135.26   54.44
   8   5   8  111.25   75.12
  -8  -5  -8  192.85   37.80
   8   5   9  169.10   91.25
  -8  -5  -9  189.76   37.38
   8   5  10   12.86   16.08
  -8  -5 -10   -9.55   32.25
   8   5  11   25.06   14.26
  -8  -5 -11   27.97   24.17
   8   5  12   -8.80   21.40
  -8  -5 -12   22.13   36.22
   8   5  13   27.50   17.14
  -8  -5 -13   25.13   30.23
  -8  -6   0   36.17   28.65
  -8  -6  -1   47.67   27.81
  -8  -6  -2    3.29   13.05
  -8  -6  -3    1.95   19.67
  -8  -6  -4   55.16   29.15
   8   6   5  264.96  132.24
  -8  -6  -5  290.69   30.26
   8   6   6  270.82  141.16
  -8  -6  -6  196.76   31.39
   8   6   7   85.92   66.60
  -8  -6  -7   71.72   30.01
   8   6   8   83.77   60.92
  -8  -6  -8  110.74   64.42
   8   6   9  102.81   55.99
  -8  -6  -9  156.64   84.57
   8   6  10  143.94   89.66
  -8  -6 -10  131.27   63.09
   8   6  11   42.95   36.31
  -8  -6 -11   47.08   49.90
   8   6  12   21.74   18.35
  -8  -6 -12   55.98   36.38
   8   6  13   -4.72   22.11
  -8  -6 -13   25.87   32.41
  -8  -7  -1    6.43   16.57
  -8  -7  -2   -8.92   26.49
  -8  -7  -3    3.44   12.35
  -8  -7  -4   56.50   37.21
  -8  -7  -5  255.13  123.41
  -8  -7  -5  256.54   26.54
   8   7   6  195.48  106.07
  -8  -7  -6  183.23  135.41
   8   7   7  117.25   61.38
  -8  -7  -7  169.25  109.32
   8   7   8  277.02   31.80
  -8  -7  -8  335.45   73.53
   8   7   9   24.30   19.85
  -8  -7  -9   23.42   31.41
   8   7  10   98.10   69.67
  -8  -7 -10   92.15   36.62
   8   7  11   61.41   42.33
  -8  -7 -11   30.74   35.35
   8   7  12   20.25   47.39
  -8  -7 -12   -5.38   29.93
   8   7  13   -4.06   21.71
  -8  -7 -13   17.61   23.53
  -8  -8  -2   14.23   27.10
  -8  -8  -3   -5.11   24.71
  -8  -8  -4   63.18   35.54
  -8  -8  -5  100.20   59.81
   8   8   6    3.54   26.07
  -8  -8  -6   41.86   38.87
   8   8   7    3.86   17.55
  -8  -8  -7   12.27   28.11
   8   8   8   89.28   47.10
  -8  -8  -8  122.56   72.95
   8   8   9   62.49   33.32
  -8  -8  -9   66.12   46.06
   8   8  10   -0.20   21.76
  -8  -8 -10   30.91   50.83
   8   8  11   37.31   22.85
  -8  -8 -11   -0.14   33.14
   8   8  12   28.70   23.81
  -8  -8 -12   25.84   32.49
  -8  -9  -4   15.12   29.37
  -8  -9  -5   90.95   54.26
  -8  -9  -6  113.33   75.85
   8   9   7   37.15   27.98
  -8  -9  -7   55.38   53.04
   8   9   8   14.94   13.07
  -8  -9  -8   10.94   23.53
   8   9   9   20.58   17.30
  -8  -9  -9   26.26   32.99
   8   9  10   16.29   19.46
  -8  -9 -10    8.07   34.46
   8   9  11    7.18   14.38
  -8  -9 -11    6.23   33.40
   8   9  12   14.56   18.46
  -8  -9 -12   24.19   20.98
  -8 -10  -6   37.80   25.96
   8  10   7   60.41   44.70
  -8 -10  -7   71.63   31.69
   8  10   8   34.35   20.00
  -8 -10  -8   34.56   21.04
   8  10   9   10.13   18.88
  -8 -10  -9   17.56   19.64
   8  10  10   40.24   33.28
  -8 -10 -10   73.90   34.22
   9  -9  -2   25.27   20.84
   9  -9  -1   32.23   27.44
   9  -9   0   11.95   10.41
   9  -9   1    8.68    8.26
   9  -9   2   11.05   18.30
   9  -8  -1   55.77   39.09
   9  -8   0   14.15   14.58
   9  -8   1    2.17    7.27
   9  -8   2   25.86   18.55
   9  -8   3   12.91   14.17
   9  -8   4   31.18   27.16
   9  -8   5    8.52   17.74
   9  -7  -1   79.57   59.89
   9  -7   0   17.18   15.26
   9  -7   1   11.61   10.19
   9  -7   2   14.09   16.35
   9  -7   3   45.53   27.01
   9  -7   4   49.68   43.91
   9  -7   5   75.19   56.17
   9  -7   6    4.63   17.09
   9  -6  -1    8.09    7.71
   9  -6   0    7.87   13.56
   9  -6   1   40.45   25.33
   9  -6   2   15.68   27.11
   9  -6   3   46.57   34.67
   9  -6   4  122.03   77.58
   9  -6   5   53.98   33.18
   9  -6   6   27.79   30.08
   9  -6   7   11.94   18.97
   9  -5   0   47.70   43.06
   9  -5   1   29.69   22.77
   9  -5   2    9.21   18.98
   9  -5   3   75.53   51.30
   9  -5   4  117.51   64.29
   9  -5   5   59.59   40.76
   9  -5   6   21.66   32.27
   9  -5   7   16.75   22.72
  -9   5  -8   12.38   31.75
   9  -4   0   28.97   26.44
   9  -4   1   62.42   43.21
   9  -4   2   46.68   45.00
   9  -4   3   84.16   63.77
   9  -4   4   94.42   55.91
   9  -4   5   38.95   24.46
   9  -4   6  105.26   66.70
  -9   4  -7   50.13   36.25
  -9   4  -8   54.06   36.49
  -9   4  -9   45.01   37.86
  -9   3   4   -1.20   23.64
  -9   3   3   21.02   21.55
  -9   3   2   87.05   30.06
  -9   3   1   41.50   17.36
  -9   3   0    1.89   15.66
  -9   3  -1   52.12   40.43
   9  -3   1   60.94   42.61
  -9   3  -2  187.38   20.27
   9  -3   2  205.76   26.79
  -9   3  -3  483.65   28.68
   9  -3   3  469.73   33.96
   9  -3   4  190.82   20.96
   9  -3   4  133.21   92.13
   9  -3   5    8.98    6.90
   9  -3   5    5.68   12.71
   9  -3   6   29.64   15.92
  -9   3  -6   28.15   23.25
  -9   3  -7  101.45   54.21
  -9   3  -8   15.65   19.21
  -9   3  -9   38.49   35.44
  -9   3 -10   37.64   33.44
  -9   2   4   21.49   23.94
  -9   2   3   60.34   33.94
  -9   2   2    9.82   23.41
  -9   2   1   51.25   20.37
  -9   2   0   66.03   22.17
  -9   2  -1    1.85    9.21
  -9   2  -2  168.15   25.43
  -9   2  -2  175.27   30.79
  -9   2  -3  537.28  104.57
  -9   2  -3  503.76   61.68
   9  -2   4  326.42   42.63
  -9   2  -4  261.28   37.94
   9  -2   5    0.28    6.68
  -9   2  -5   15.05   21.30
   9  -2   6    9.36    8.96
  -9   2  -6    7.03   21.41
   9  -2   7   10.96   12.92
  -9   2  -7   20.76   22.04
   9  -2   8    9.30    7.59
  -9   2  -8   10.21   18.96
   9  -2   9    5.89   10.25
  -9   2  -9   -3.61   30.19
   9  -2  10   10.26   12.01
  -9   2 -10    0.95   30.30
  -9   2 -11   32.73   37.52
  -9   1   4   73.16   37.37
  -9   1   3  105.31   44.80
  -9   1   2   22.17   24.01
  -9   1   1   78.54   27.11
  -9   1   0   80.94   26.90
  -9   1  -1   36.18   15.98
  -9   1  -2  125.87   64.59
  -9   1  -2  127.00   21.66
  -9   1  -3  242.84   27.47
  -9   1  -3  232.28   22.66
   9  -1   4  159.21   82.53
  -9   1  -4  145.86   88.99
   9  -1   5  341.80   45.50
  -9   1  -5  400.79   86.02
   9  -1   6  119.03   53.79
  -9   1  -6  133.25   25.70
   9  -1   7   31.82   18.95
  -9   1  -7   24.21   23.96
   9  -1   8  273.73   42.38
  -9   1  -8  266.47   37.01
   9  -1   9   37.66   24.05
  -9   1  -9   23.41   30.20
   9  -1  10    8.39   12.68
  -9   1 -10   -2.02   29.78
   9  -1  11   40.17   15.05
  -9   1 -11   25.79   26.62
  -9   0   3   31.70   24.85
  -9   0   2   29.67   22.71
  -9   0   1   -6.75   22.36
  -9   0   0   15.59   28.58
  -9   0  -1  119.75   45.57
  -9   0  -2  628.26   45.61
  -9   0  -3  234.89   28.82
  -9   0  -3  199.61   69.42
   9   0   4  133.34   72.26
  -9   0  -4  118.22   20.48
   9   0   5  224.84   30.62
  -9   0  -5  289.74   47.53
   9   0   6  244.82   21.75
  -9   0  -6  317.41   53.70
   9   0   7  105.49   66.40
  -9   0  -7  109.34   26.10
   9   0   8   75.61   38.37
  -9   0  -8   77.86   30.29
   9   0   9  167.18   25.80
  -9   0  -9  139.03   31.89
   9   0  10   43.44   38.29
  -9   0 -10   45.56   40.67
   9   0  11   15.99   14.34
  -9   0 -11   43.35   44.71
   9   0  12    9.74   12.07
  -9   0 -12    4.54   28.71
  -9  -1   3   10.74   22.92
  -9  -1   2   12.34   26.00
  -9  -1   1   68.53   38.42
  -9  -1   0   -3.35   25.85
  -9  -1  -1  177.96   89.29
  -9  -1  -2  398.76   58.51
  -9  -1  -3  397.45   73.15
  -9  -1  -3  321.18   42.81
   9   1   4   17.64   19.32
  -9  -1  -4    5.57   18.07
   9   1   5  253.64   77.87
  -9  -1  -5  237.69   41.17
   9   1   6   63.20   37.38
  -9  -1  -6   86.31   36.24
   9   1   7   95.63   52.66
  -9  -1  -7   56.86   26.42
   9   1   8   59.40   33.52
  -9  -1  -8   60.50   38.21
   9   1   9   -0.66   17.98
  -9  -1  -9   17.17   29.14
   9   1  10   54.71   21.94
  -9  -1 -10   62.47   36.03
   9   1  11  126.67  102.03
  -9  -1 -11  164.64   37.37
   9   1  12   44.94   29.68
  -9  -1 -12   40.41   45.63
  -9  -2   2    8.99   26.88
  -9  -2   1   67.88   28.94
  -9  -2   0   36.57   26.62
  -9  -2  -1  189.91   35.44
  -9  -2  -2  316.31   33.39
  -9  -2  -3   26.88   20.78
   9   2   4    8.84   14.65
  -9  -2  -4    0.69   16.87
   9   2   5   14.91   11.74
  -9  -2  -5   24.37   31.23
   9   2   6    9.89   17.56
  -9  -2  -6   12.66   27.26
   9   2   7   52.85   32.34
  -9  -2  -7  112.67   28.72
   9   2   8  103.97   56.51
  -9  -2  -8   99.38   27.61
   9   2   9   44.24   29.38
  -9  -2  -9   51.27   28.33
   9   2  10  122.42   71.19
  -9  -2 -10  168.15   51.65
   9   2  11  101.35   80.24
  -9  -2 -11   90.39   31.69
   9   2  12   35.96   32.53
  -9  -2 -12   34.43   42.49
  -9  -3   2    9.39   27.53
  -9  -3   1   11.68   26.78
  -9  -3   0   38.26   38.08
  -9  -3  -1  101.73   39.08
  -9  -3  -2  192.86  103.03
  -9  -3  -3  178.06   31.03
  -9  -3  -4  279.21   86.40
  -9  -3  -4  226.75   46.18
   9   3   5   80.38   41.27
  -9  -3  -5   58.11   18.71
   9   3   6   70.63   42.91
  -9  -3  -6   77.50   30.48
   9   3   7  391.00   31.87
  -9  -3  -7  345.03   44.91
   9   3   8   53.72   29.06
  -9  -3  -8   36.74   26.86
   9   3   9   76.51   30.69
  -9  -3  -9   53.23   32.96
   9   3  10  145.13   89.44
  -9  -3 -10  138.58   74.48
   9   3  11   70.64   66.19
  -9  -3 -11   87.42   33.72
   9   3  12   11.09   13.61
  -9  -3 -12   12.18   28.73
  -9  -4   1   25.73   21.77
  -9  -4   0  128.83   40.35
  -9  -4  -1  182.87   60.50
  -9  -4  -2   76.94   27.85
  -9  -4  -3   44.84   30.72
  -9  -4  -4  194.06   96.03
   9   4   5   50.09   28.60
  -9  -4  -5   54.25   36.13
   9   4   6  171.15   89.47
  -9  -4  -6  159.29   38.39
   9   4   7  110.15   66.96
  -9  -4  -7   78.69   25.03
   9   4   8   34.70   16.64
  -9  -4  -8   25.11   44.29
   9   4   9    8.05   15.34
  -9  -4  -9   31.87   32.05
   9   4  10   80.28   45.89
  -9  -4 -10   92.01   72.49
   9   4  11   24.98   30.69
  -9  -4 -11   17.37   39.64
   9   4  12   21.03   28.57
  -9  -4 -12   14.82   27.06
   9   4  13   21.71   22.47
  -9  -4 -13   10.17   30.08
  -9  -5   0   75.78   30.84
  -9  -5  -1  150.13   34.86
  -9  -5  -2   64.24   33.42
  -9  -5  -3   16.54   16.02
  -9  -5  -4   25.42   26.75
   9   5   5   14.24   21.96
  -9  -5  -5   17.73   17.84
   9   5   6   43.59   31.74
  -9  -5  -6   54.14   20.58
   9   5   7  136.07   82.27
  -9  -5  -7  134.44   89.88
   9   5   8   34.24   26.21
  -9  -5  -8   35.00   30.38
   9   5   9  217.73   63.19
  -9  -5  -9  202.75  125.09
   9   5  10   88.25   66.80
  -9  -5 -10  120.64   38.46
   9   5  11   46.84   36.06
  -9  -5 -11   51.37   33.24
   9   5  12   24.96   34.66
  -9  -5 -12   13.42   20.14
   9   5  13   11.45   17.88
  -9  -5 -13   22.10   29.88
  -9  -6  -1   42.89   33.49
  -9  -6  -2   48.43   28.57
  -9  -6  -3   66.82   37.53
  -9  -6  -4    3.14   10.59
  -9  -6  -5   60.33   38.35
   9   6   6   98.85   64.17
  -9  -6  -6   88.37   56.33
   9   6   7   26.39   21.47
  -9  -6  -7   27.90   15.12
   9   6   8    9.80   22.55
  -9  -6  -8   14.03   41.64
   9   6   9  166.40   81.18
  -9  -6  -9  194.90   92.79
   9   6  10  197.10  113.17
  -9  -6 -10  245.11   60.52
   9   6  11   14.25   15.09
  -9  -6 -11   -3.42   32.18
   9   6  12   11.09   21.65
  -9  -6 -12    6.49   30.92
  -9  -7  -2    7.86   28.84
  -9  -7  -3   64.55   30.58
  -9  -7  -4   27.90   23.35
  -9  -7  -5   13.66   15.72
   9   7   6  145.98   93.18
   9   7   7   77.80   38.53
  -9  -7  -7  100.72   42.12
   9   7   8   34.50   27.02
  -9  -7  -8   35.13   23.00
   9   7   9   50.23   40.88
   9   7  10    8.40   24.16
  -9  -7 -10   48.80   45.08
   9   7  11   20.39   23.17
  -9  -7 -11   46.35   46.47
   9   7  12   12.67   13.48
  -9  -7 -12   36.08   42.62
  -9  -8  -4    5.84   19.95
  -9  -8  -5   26.01   29.64
  -9  -8  -6   14.49   22.47
   9   8   7   65.03   43.17
  -9  -8  -7   36.08   22.33
   9   8   8  100.85   54.94
  -9  -8  -8  192.60   39.77
   9   8   9   75.04   43.03
  -9  -8  -9   95.90   71.05
   9   8  10  -12.27   22.17
  -9  -8 -10  -11.74   39.05
   9   8  11   21.23   25.33
  -9  -8 -11    8.28   20.82
  -9  -8 -12   26.89   32.86
  -9  -9  -6   16.16   25.67
   9   9   7   12.47   21.93
   9   9   8   77.81   42.19
  -9  -9  -8   51.30   30.91
   9   9   9   62.89   29.61
  -9  -9  -9   79.37   49.49
   9   9  10   20.43   19.98
  -9  -9 -10   34.74   44.72
  10  -8   1   33.11   32.47
  10  -8   2   12.44   11.97
  10  -8   3    5.89    6.90
  10  -7   0   -0.39   13.19
  10  -7   1    3.55    7.19
  10  -7   2   34.07   22.37
  10  -7   3   18.18   18.11
  10  -7   4    9.07   18.89
  10  -6   1    2.12    8.37
  10  -6   2    2.96   12.29
  10  -6   3    1.43   10.85
  10  -6   4    4.01    9.54
  10  -6   5   16.52   18.41
  10  -6   6   39.88   43.65
  10  -5   1   14.69   11.53
  10  -5   2   31.74   32.25
  10  -5   3   19.97   21.10
  10  -5   4   54.25   34.94
  10  -5   5   17.36   24.04
  10  -5   6   11.18   13.47
 -10   5  -7   20.09   19.76
 -10   5  -8   59.52   29.24
  10  -4   2   11.51   14.50
  10  -4   3   15.29   17.02
  10  -4   4  179.77   57.37
  10  -4   5   78.44   50.33
 -10   4  -6   10.89   23.47
 -10   4  -7   -8.41   24.26
 -10   4  -8   28.15   26.58
 -10   4  -9    5.70   32.82
 -10   3   3   13.80   24.50
 -10   3   2   87.72   29.07
 -10   3   1   61.03   25.28
 -10   3   0   18.91   21.44
 -10   3  -2   14.85   15.58
 -10   3  -3   48.62   27.87
 -10   3  -4   58.02   37.95
 -10   3  -5  119.59   22.83
 -10   3  -6   48.17   30.19
 -10   3  -7   73.35   43.63
 -10   3  -8   14.35   26.01
 -10   3  -9   -8.68   28.38
 -10   2   2  111.32   34.05
 -10   2   1   71.25   27.89
 -10   2   0   15.23   16.88
 -10   2  -1   85.93   79.30
 -10   2  -2   13.45   15.23
 -10   2  -3  153.54   40.44
 -10   2  -3  123.95   19.51
 -10   2  -4  177.86   19.71
 -10   2  -4  179.31   28.66
  10  -2   5   41.16   25.25
 -10   2  -5   40.04   30.76
  10  -2   6   81.12   64.54
 -10   2  -6  108.30   29.06
  10  -2   7  156.13   27.21
 -10   2  -7  176.90  106.12
  10  -2   8   57.49   36.13
 -10   2  -8  100.83   49.91
 -10   2  -9   -8.91   27.61
 -10   2 -10   10.59   28.03
 -10   1   2   39.36   20.43
 -10   1   1    3.41   22.64
 -10   1   0   -0.39   19.29
 -10   1  -1   13.29   19.44
 -10   1  -2   12.37   12.31
 -10   1  -3   80.91   67.59
 -10   1  -4  243.46   33.53
 -10   1  -4  229.01   31.97
  10  -1   5  108.59   78.50
 -10   1  -5   90.59   22.89
  10  -1   6  267.18   56.82
 -10   1  -6  212.56   29.51
  10  -1   7  119.93   83.73
 -10   1  -7   92.31   30.27
  10  -1   8   64.88   46.69
 -10   1  -8  116.60   48.58
  10  -1   9   28.63   20.28
 -10   1  -9   19.54   29.76
  10  -1  10    9.32    7.71
 -10   1 -10   13.23   28.64
  10  -1  11    4.17   13.68
 -10   1 -11    9.28   20.62
 -10   0   2   60.56   28.74
 -10   0   1   22.98   24.42
 -10   0   0   87.28   33.39
 -10   0  -1   11.67   21.35
 -10   0  -2   95.22   29.66
 -10   0  -3  315.51   36.15
 -10   0  -4   81.33   48.73
 -10   0  -4   56.13   32.74
  10   0   5   23.19   15.47
 -10   0  -5   29.34   18.93
  10   0   6  104.11   62.19
 -10   0  -6   98.58   67.46
  10   0   7  125.18   30.13
 -10   0  -7   97.18   30.50
  10   0   8   -0.14   13.85
 -10   0  -8   -5.41   27.10
  10   0   9   15.30   10.69
 -10   0  -9   22.66   20.33
  10   0  10   28.88   35.51
 -10   0 -10   27.18   28.86
  10   0  11   57.21   38.53
 -10   0 -11   82.36   43.23
 -10  -1   1   18.31   32.33
 -10  -1   0   58.75   24.27
 -10  -1  -1   14.22   11.76
 -10  -1  -2   61.50   28.41
 -10  -1  -3  196.92   99.30
 -10  -1  -4  194.80   99.29
  10   1   5   76.77   58.20
 -10  -1  -5   90.96   25.05
  10   1   6   21.19   19.57
 -10  -1  -6   45.06   26.83
  10   1   7   17.06   20.91
 -10  -1  -7   29.00   19.65
  10   1   8    7.43   16.02
 -10  -1  -8    1.48   28.62
  10   1   9   14.16   12.24
 -10  -1  -9   36.27   33.37
  10   1  10   11.13   14.01
 -10  -1 -10    6.60    8.62
  10   1  11  107.34   94.36
 -10  -1 -11  123.06   45.11
  10   1  12   63.65   60.08
 -10  -1 -12   45.82   49.91
 -10  -2   1   12.00   14.74
 -10  -2   0   13.40   25.44
 -10  -2  -1    6.88   21.32
 -10  -2  -2   46.84   27.30
 -10  -2  -3   63.27   39.71
 -10  -2  -4   96.46   46.51
  10   2   5  414.55   37.87
 -10  -2  -5  376.03   33.01
  10   2   6  329.08   43.99
 -10  -2  -6  304.72   40.35
  10   2   7   40.23   22.80
 -10  -2  -7   45.15   32.86
  10   2   8   25.14   14.98
 -10  -2  -8   28.49   29.01
  10   2   9   13.95   23.58
 -10  -2  -9   11.44   28.07
  10   2  10   -0.32   17.99
 -10  -2 -10   19.13   36.97
  10   2  11   28.76   21.47
  10   2  12   38.02   27.85
 -10  -2 -12   28.42   29.39
 -10  -3   0    3.39   25.54
 -10  -3  -1   86.50   35.55
 -10  -3  -2  157.15   34.31
 -10  -3  -3   65.60   36.45
 -10  -3  -4   12.70   24.69
  10   3   5  116.86   69.64
  10   3   6  117.06   73.88
 -10  -3  -6  101.61   26.85
  10   3   7   16.47   34.19
 -10  -3  -7   15.18   26.47
  10   3   8   33.07   32.58
 -10  -3  -8   27.23   27.29
  10   3   9   38.40   25.88
 -10  -3  -9   51.56   45.64
  10   3  10   41.48   35.19
  10   3  11   27.43   25.29
 -10  -3 -11    9.26   29.97
  10   3  12   16.47   26.18
 -10  -3 -12    8.95   19.53
 -10  -4  -1   11.02   21.59
 -10  -4  -2  120.50   40.32
 -10  -4  -3  173.36   38.62
 -10  -4  -4   50.44   60.39
 -10  -4  -5   45.97   23.02
  10   4   6    3.33   14.01
 -10  -4  -6   12.47   20.21
  10   4   7   19.12   13.88
 -10  -4  -7   15.64   13.85
  10   4   8    1.22   15.21
 -10  -4  -8   32.93   35.35
  10   4   9    9.87   13.99
 -10  -4  -9    4.39   30.57
  10   4  10  115.63   77.44
 -10  -4 -10  156.24   34.44
  10   4  11   95.81   62.46
 -10  -4 -11  120.68   32.27
  10   4  12   24.46   21.01
 -10  -4 -12    7.80   28.02
 -10  -5  -2   20.76   26.08
 -10  -5  -3   43.96   33.42
 -10  -5  -4  155.36  108.53
 -10  -5  -5  126.24   64.75
  10   5   6   -7.38   23.91
  10   5   7   68.75   42.53
 -10  -5  -7   35.67   17.37
  10   5   8   15.42   21.05
 -10  -5  -8   17.97   25.13
  10   5   9   37.58   16.64
 -10  -5  -9   19.75   28.90
  10   5  10   56.22   31.56
 -10  -5 -10   45.56   29.78
  10   5  11   98.10   83.04
 -10  -5 -11  116.25   37.23
  10   5  12   24.04   21.29
 -10  -5 -12   29.56   29.39
 -10  -6  -3   31.92   30.93
 -10  -6  -4   63.37   44.07
 -10  -6  -5  153.27   57.24
  10   6   7   43.32   26.50
  10   6   8   47.36   28.49
 -10  -6  -8   27.75   25.35
  10   6   9   74.76   46.02
 -10  -6  -9   55.80   41.90
  10   6  10  127.43   85.82
 -10  -6 -10  103.38   75.24
  10   6  11    9.29   13.49
 -10  -6 -11    1.66   18.81
  10   6  12   10.66   16.16
 -10  -6 -12   11.52   29.95
 -10  -7  -4   36.57   28.17
 -10  -7  -5    4.27   14.25
 -10  -7  -6    8.38   15.77
  10   7   7   14.68   20.22
  10   7   8    3.22   16.71
 -10  -7  -8    9.35   21.22
  10   7   9   25.78   20.20
 -10  -7  -9   24.47   35.12
  10   7  10   73.11   63.35
 -10  -7 -10  113.84   30.77
  10   7  11   37.54   27.38
 -10  -7 -11   54.93   42.42
 -10  -8  -6    1.14   26.87
  10   8   8   16.29   15.90
  10   8   9   92.36   65.75
 -10  -8  -9  147.08   43.00
  10   8  10   34.36   22.02
 -10  -8 -10   37.32   24.29
  11  -7   2    3.02    7.37
  11  -6   3   17.14   15.26
  11  -6   4   -3.62   16.36
  11  -6   5    4.30   12.44
  11  -5   3   14.04   19.84
  11  -5   4    5.94   13.21
  11  -5   5    8.84   27.38
 -11   5  -6   23.38   16.88
 -11   5  -7   -3.65   23.33
 -11   4  -3   20.40   21.89
 -11   4  -4   10.92   15.94
 -11   4  -5   22.88   29.38
 -11   4  -6    7.12   22.33
 -11   4  -7   31.43   22.75
 -11   4  -8   33.29   25.59
 -11   3  -4   13.42   10.95
 -11   3  -5   17.02   12.58
 -11   3  -6   47.64   43.43
 -11   3  -7   49.64   25.22
 -11   3  -8   18.88   22.58
 -11   3  -9   29.64   38.49
 -11   2   1   83.24   28.37
 -11   2   0   34.57   21.35
 -11   2  -1   38.75   19.91
 -11   2  -2   14.06   10.88
 -11   2  -3    8.96   15.17
 -11   2  -4    3.34   17.53
 -11   2  -5   37.40   28.77
 -11   2  -6    4.36   15.93
 -11   2  -7   83.98   31.25
 -11   2  -8  159.58   48.75
 -11   2  -9   13.01   24.89
 -11   1   1   10.06   20.98
 -11   1   0   22.18   20.86
 -11   1  -1   80.06   22.62
 -11   1  -2   88.24   25.69
 -11   1  -3    2.60   11.69
 -11   1  -4  141.03   30.35
 -11   1  -5   14.10    7.35
 -11   1  -5   13.93   19.08
  11  -1   6    9.23   13.87
 -11   1  -6   21.62   27.30
  11  -1   7   17.12   17.86
 -11   1  -7   32.11   28.24
  11  -1   8   38.50   36.18
 -11   1  -8   32.88   22.37
  11  -1   9   53.92   44.45
 -11   1  -9   60.21   26.73
 -11   1 -10   17.33   25.76
 -11   0   0   -9.15   19.39
 -11   0  -1   21.88   20.07
 -11   0  -2   40.46   29.93
 -11   0  -3    6.88    5.79
 -11   0  -4   58.86   29.28
 -11   0  -5   71.24   37.38
 -11   0  -5   81.05   28.47
  11   0   6   88.32   49.86
 -11   0  -6   95.11   77.52
  11   0   7   86.68   57.78
 -11   0  -7   63.14   25.57
  11   0   8   13.34    9.85
 -11   0  -8   24.96   27.16
  11   0   9   20.93   18.44
 -11   0  -9   -2.82   26.37
  11   0  10   38.43   24.83
 -11   0 -10   50.08   40.32
 -11  -1   0   41.36   33.58
 -11  -1  -1   -5.55   24.11
 -11  -1  -2   19.01   30.53
 -11  -1  -3   23.62   18.39
 -11  -1  -4   11.75   20.91
 -11  -1  -5   -2.50   19.80
  11   1   6  214.74  105.75
 -11  -1  -6  225.13   36.48
  11   1   7  214.54   77.68
 -11  -1  -7  182.35   33.19
  11   1   8   41.46   26.51
 -11  -1  -8   20.25   24.79
  11   1   9   21.42   18.02
 -11  -1  -9   65.45   41.69
  11   1  10   -0.13   16.23
 -11  -1 -10    9.04   27.34
  11   1  11   11.66   18.81
 -11  -1 -11    9.62   20.38
 -11  -2  -1   75.26   24.84
 -11  -2  -2   -1.07   22.41
 -11  -2  -3   87.76   58.78
 -11  -2  -4   92.42   60.02
 -11  -2  -5   22.26   22.48
  11   2   6   72.62   36.93
  11   2   7  126.58   69.73
 -11  -2  -7  106.52   31.49
  11   2   8   27.05   16.40
 -11  -2  -8   35.35   33.24
  11   2   9   23.48   13.28
 -11  -2  -9   37.20   36.07
  11   2  10    7.82   13.57
 -11  -2 -10    7.06   26.65
  11   2  11   20.78   19.75
 -11  -2 -11   24.25   29.21
 -11  -3  -2   11.64   25.09
 -11  -3  -3   12.04   24.72
 -11  -3  -4   32.03   27.99
 -11  -3  -5  106.77   48.58
  11   3   6   97.22   72.82
  11   3   7   14.87   17.09
 -11  -3  -7   17.33   30.42
  11   3   8    0.20   11.54
 -11  -3  -8   13.14   14.63
  11   3   9    6.55    7.82
 -11  -3  -9   51.20   39.54
  11   3  10   21.25   14.24
 -11  -3 -10   24.32   34.22
  11   3  11   14.42   24.61
 -11  -3 -11   20.91   20.92
 -11  -4  -2   18.22   30.73
 -11  -4  -3   30.30   29.02
 -11  -4  -4   43.25   33.93
 -11  -4  -5   62.53   36.09
  11   4   7   56.43   40.62
  11   4   8   -1.51   20.63
 -11  -4  -8   -4.93   22.95
  11   4   9   22.32   23.47
 -11  -4  -9   20.64   28.07
  11   4  10   12.16   17.61
 -11  -4 -10    4.42   14.20
  11   4  11   47.68   26.91
 -11  -4 -11   23.29   27.94
 -11  -5  -4   28.75   18.80
 -11  -5  -5  147.79  101.19
 -11  -5  -6   74.66   50.00
  11   5   7   23.82   22.22
  11   5   8    9.52   10.86
 -11  -5  -8   10.21   20.99
  11   5   9    7.54   11.15
 -11  -5  -9   11.29   15.55
  11   5  10   10.04   11.38
 -11  -5 -10   18.78   25.43
  11   5  11   28.04   31.96
 -11  -5 -11   24.16   32.24
 -11  -6  -5   44.52   30.96
 -11  -6  -6   79.87   37.19
  11   6   7   18.42   18.60
  11   6   8   -0.59   23.62
  11   6   9   49.41   32.96
 -11  -6  -9   47.14   31.48
  11   6  10   49.90   27.41
 -11  -6 -10   31.91   30.15
 -11  -7  -7    4.21   12.22
  11   7   8   12.75   26.80
  11   7   9   -3.62   21.15
 -12   4  -5   -5.47   14.66
 -12   4  -6   -4.03   16.06
 -12   3  -5   -5.06   14.87
 -12   3  -6   -1.76   19.07
 -12   3  -7    3.68   18.74
 -12   2  -6    7.99   16.41
 -12   2  -7   16.93   21.78
 -12   2  -8   -0.78   23.32
 -12   1  -2   14.26   20.04
 -12   1  -3   15.90   15.93
 -12   1  -4   26.50   26.66
 -12   1  -6   -7.93   16.96
 -12   1  -7   18.40   26.77
 -12   1  -8   64.90   49.06
 -12   1  -9    5.88   16.22
 -12   0  -2   49.67   28.16
 -12   0  -3   14.01   19.89
 -12   0  -4   11.34   15.73
 -12   0  -5   -5.74   16.56
 -12   0  -6   20.69   21.49
  12   0   7   43.06   24.42
 -12   0  -7   16.82   17.60
  12   0   8   24.94   21.36
 -12   0  -8   33.98   24.25
  12   0   9   44.93   36.83
 -12   0  -9   59.71   25.63
 -12  -1  -2   81.35   30.64
 -12  -1  -3   18.89   19.58
 -12  -1  -4   17.01   16.86
 -12  -1  -5   67.93   51.42
 -12  -1  -6    3.14    9.56
  12   1   7   71.08   54.86
  12   1   8   41.00   31.37
 -12  -1  -8   52.92   23.62
  12   1   9    4.82   15.21
 -12  -1  -9   28.90   24.56
  12   1  10    8.22   11.88
 -12  -1 -10   13.30   29.65
 -12  -2  -3   14.16   31.19
 -12  -2  -4    7.24   11.30
 -12  -2  -5   -1.77   22.01
 -12  -2  -6    8.70   14.19
  12   2   7   35.46   17.38
  12   2   8   42.51   25.87
 -12  -2  -8   32.50   28.10
  12   2   9   29.53   21.25
 -12  -2  -9   20.37   19.54
  12   2  10   27.74   16.95
 -12  -2 -10   11.36   22.27
 -12  -3  -4   17.09   22.19
 -12  -3  -5   29.96   28.99
 -12  -3  -6   88.49   44.46
  12   3   7   86.72   62.55
  12   3   8   24.05   16.92
  12   3   9    7.43   12.44
 -12  -3  -9    1.42   23.34
  12   3  10   42.30   27.70
 -12  -3 -10   23.58   29.68
 -12  -4  -5   13.12   27.79
 -12  -4  -6   92.85   45.98
  12   4   7   79.04   68.89
  12   4   8   20.89   23.43
  12   4   9    8.97   14.33
 -12  -4  -9    5.67   20.77
 -12  -5  -7   53.76   48.12
  12   5   8   31.34   27.74
   0   0   0    0.00    0.00
;
_shelx_hkl_checksum              2769
loop_
_space_group_symop_operation_xyz
'x, y, z'
loop_
_atom_site_label
_atom_site_type_symbol
_atom_site_fract_x
_atom_site_fract_y
_atom_site_fract_z
_atom_site_U_iso_or_equiv
_atom_site_adp_type
_atom_site_occupancy
_atom_site_site_symmetry_order
_atom_site_calc_flag
_atom_site_refinement_flags_posn
_atom_site_refinement_flags_adp
Mn1 Mn 0.86717(17) 0.68953(17) 0.35980(18) 0.0366(4) Uani 1 1 d . U
Br1 Br 1.12564(13) 0.64772(13) 0.23085(15) 0.0596(4) Uani 1 1 d . U
Br2 Br 0.81651(16) 0.75576(16) 0.57395(16) 0.0698(5) Uani 1 1 d . U
P2 P 0.8185(3) 1.0036(3) 0.1064(3) 0.0370(7) Uani 1 1 d . U
P1 P 0.5427(3) 0.4480(3) 0.4824(4) 0.0391(7) Uani 1 1 d . U
O1 O 0.6968(8) 0.5199(8) 0.4383(9) 0.047(2) Uani 1 1 d . U
C22 C 0.3025(16) 0.9490(15) 0.3446(18) 0.063(4) Uani 1 1 d . U
H22 H 0.1965 0.9316 0.3970 0.076 Uiso 1 1 calc R U
C20 C 0.5355(14) 0.9769(14) 0.3475(14) 0.053(3) Uani 1 1 d . U
H20 H 0.5877 0.9786 0.4011 0.063 Uiso 1 1 calc R U
O2 O 0.8516(9) 0.8551(8) 0.1770(9) 0.050(2) Uani 1 1 d . U
C7 C 0.5345(13) 0.4631(13) 0.3097(13) 0.043(3) Uani 1 1 d . U
C1 C 0.3914(14) 0.5215(13) 0.5883(14) 0.043(3) Uani 1 1 d . U
C18 C 0.6227(14) 0.1858(14) 0.5941(16) 0.056(3) Uani 1 1 d . U
H18 H 0.7219 0.2415 0.5227 0.067 Uiso 1 1 calc R U
C27 C 0.999(2) 1.022(2) -0.3281(19) 0.094(5) Uani 1 1 d . U
H27 H 1.0289 0.9531 -0.3646 0.113 Uiso 1 1 calc R U
C19 C 0.6168(13) 0.9961(12) 0.1930(14) 0.043(3) Uani 1 1 d . U
C31 C 0.9077(13) 1.1375(13) 0.1311(13) 0.041(2) Uani 1 1 d . U
C13 C 0.5015(12) 0.2533(12) 0.6107(13) 0.038(2) Uani 1 1 d . U
C14 C 0.3562(14) 0.1716(13) 0.7195(15) 0.056(3) Uani 1 1 d . U
H14 H 0.2742 0.2175 0.7334 0.067 Uiso 1 1 calc R U
C12 C 0.4627(14) 0.3518(14) 0.3062(16) 0.055(3) Uani 1 1 d . U
H12 H 0.4113 0.2630 0.3986 0.066 Uiso 1 1 calc R U
C36 C 1.0449(15) 1.1209(13) 0.1319(16) 0.054(3) Uani 1 1 d . U
H36 H 1.0847 1.0408 0.1236 0.065 Uiso 1 1 calc R U
C15 C 0.3312(16) 0.0237(14) 0.8076(17) 0.065(4) Uani 1 1 d . U
H15 H 0.2320 -0.0324 0.8777 0.078 Uiso 1 1 calc R U
C16 C 0.4516(17) -0.0415(14) 0.7927(17) 0.064(4) Uani 1 1 d . U
H16 H 0.4352 -0.1415 0.8583 0.077 Uiso 1 1 calc R U
C29 C 0.9796(19) 1.253(2) -0.3750(19) 0.094(5) Uani 1 1 d . U
H29 H 0.9967 1.3506 -0.4475 0.113 Uiso 1 1 calc R U
C21 C 0.3829(15) 0.9560(16) 0.4210(17) 0.064(4) Uani 1 1 d . U
H21 H 0.3307 0.9461 0.5235 0.077 Uiso 1 1 calc R U
C11 C 0.4650(17) 0.3683(17) 0.1737(19) 0.069(4) Uani 1 1 d . U
H11 H 0.4135 0.2915 0.1759 0.082 Uiso 1 1 calc R U
C25 C 0.8965(13) 1.0706(13) -0.1048(13) 0.044(3) Uani 1 1 d . U
C24 C 0.5392(14) 0.9912(13) 0.1120(15) 0.051(3) Uani 1 1 d . U
H24 H 0.5920 1.0031 0.0087 0.061 Uiso 1 1 calc R U
C10 C 0.5413(18) 0.4952(19) 0.0345(19) 0.079(4) Uani 1 1 d . U
H10 H 0.5436 0.5044 -0.0579 0.095 Uiso 1 1 calc R U
C30 C 0.9138(17) 1.2125(15) -0.2031(16) 0.070(4) Uani 1 1 d . U
H30 H 0.8862 1.2815 -0.1659 0.084 Uiso 1 1 calc R U
C2 C 0.3998(16) 0.5568(14) 0.6964(15) 0.057(3) Uani 1 1 d . U
H2 H 0.4866 0.5500 0.7083 0.069 Uiso 1 1 calc R U
C35 C 1.1230(16) 1.2199(16) 0.1445(18) 0.069(4) Uani 1 1 d . U
H35 H 1.2175 1.2095 0.1388 0.083 Uiso 1 1 calc R U
C6 C 0.2660(14) 0.5344(15) 0.5644(17) 0.059(3) Uani 1 1 d . U
H6 H 0.2606 0.5126 0.4894 0.070 Uiso 1 1 calc R U
C26 C 0.9398(14) 0.9756(16) -0.1697(16) 0.059(3) Uani 1 1 d . U
H26 H 0.9283 0.8770 -0.1032 0.071 Uiso 1 1 calc R U
C8 C 0.6100(17) 0.5943(15) 0.1706(16) 0.073(4) Uani 1 1 d . U
H8 H 0.6576 0.6722 0.1701 0.088 Uiso 1 1 calc R U
C17 C 0.5980(17) 0.0394(15) 0.6811(18) 0.072(4) Uani 1 1 d . U
H17 H 0.6797 -0.0070 0.6659 0.086 Uiso 1 1 calc R U
C23 C 0.3803(15) 0.9678(14) 0.1911(18) 0.062(3) Uani 1 1 d . U
H23 H 0.3263 0.9650 0.1394 0.074 Uiso 1 1 calc R U
C5 C 0.1474(16) 0.5812(17) 0.657(2) 0.078(4) Uani 1 1 d . U
H5 H 0.0604 0.5885 0.6452 0.093 Uiso 1 1 calc R U
C9 C 0.615(2) 0.6094(19) 0.0327(18) 0.095(5) Uani 1 1 d . U
H9 H 0.6673 0.6968 -0.0613 0.113 Uiso 1 1 calc R U
C4 C 0.1579(19) 0.6165(18) 0.764(2) 0.089(5) Uani 1 1 d . U
H4 H 0.0795 0.6508 0.8215 0.107 Uiso 1 1 calc R U
C28 C 1.016(2) 1.151(3) -0.430(2) 0.108(6) Uani 1 1 d . U
H28 H 1.0513 1.1754 -0.5361 0.130 Uiso 1 1 calc R U
C3 C 0.2835(19) 0.6017(18) 0.7872(18) 0.078(4) Uani 1 1 d . U
H3 H 0.2888 0.6219 0.8632 0.094 Uiso 1 1 calc R U
C33 C 0.9292(18) 1.3456(16) 0.1651(17) 0.067(4) Uani 1 1 d . U
H33 H 0.8913 1.4262 0.1738 0.081 Uiso 1 1 calc R U
C34 C 1.0657(18) 1.3284(16) 0.1646(17) 0.069(4) Uani 1 1 d . U
H34 H 1.1162 1.3931 0.1783 0.082 Uiso 1 1 calc R U
C32 C 0.8466(15) 1.2493(14) 0.1534(16) 0.057(3) Uani 1 1 d . U
H32 H 0.7516 1.2602 0.1606 0.068 Uiso 1 1 calc R U
loop_
_atom_site_aniso_label
_atom_site_aniso_U_11
_atom_site_aniso_U_22
_atom_site_aniso_U_33
_atom_site_aniso_U_23
_atom_site_aniso_U_13
_atom_site_aniso_U_12
Mn1 0.0365(10) 0.0351(9) 0.0392(10) -0.0158(8) -0.0204(8) 0.0044(8)
Br1 0.0407(8) 0.0572(9) 0.0757(10) -0.0336(8) -0.0215(7) 0.0099(6)
Br2 0.0709(10) 0.0946(12) 0.0665(10) -0.0554(9) -0.0342(8) 0.0203(8)
P2 0.0414(17) 0.0323(15) 0.0370(16) -0.0134(13) -0.0214(14) 0.0061(13)
P1 0.0340(16) 0.0363(16) 0.0411(17) -0.0119(13) -0.0191(15) 0.0001(13)
O1 0.038(4) 0.041(4) 0.052(5) -0.013(4) -0.023(4) -0.006(3)
C22 0.038(7) 0.063(9) 0.068(8) -0.025(8) -0.015(6) -0.004(7)
C20 0.052(6) 0.057(8) 0.038(6) -0.015(6) -0.020(6) 0.003(6)
O2 0.066(5) 0.031(4) 0.055(5) -0.010(4) -0.039(5) 0.015(4)
C7 0.038(6) 0.047(6) 0.038(5) -0.016(5) -0.017(5) 0.008(5)
C1 0.043(6) 0.040(6) 0.042(6) -0.015(5) -0.019(5) 0.009(5)
C18 0.043(7) 0.045(6) 0.064(8) -0.014(6) -0.024(6) 0.007(5)
C27 0.078(11) 0.157(14) 0.052(8) -0.065(9) -0.020(9) 0.029(12)
C19 0.037(5) 0.042(6) 0.045(6) -0.020(6) -0.016(5) 0.005(5)
C31 0.039(6) 0.042(6) 0.035(6) -0.017(5) -0.012(5) -0.001(5)
C13 0.039(6) 0.033(5) 0.035(5) -0.010(4) -0.018(5) 0.004(4)
C14 0.041(6) 0.037(6) 0.065(8) -0.008(6) -0.021(6) 0.005(5)
C12 0.053(8) 0.053(7) 0.062(7) -0.025(6) -0.032(7) 0.000(6)
C36 0.060(8) 0.039(7) 0.076(9) -0.028(6) -0.040(7) 0.015(6)
C15 0.058(7) 0.040(7) 0.068(9) -0.010(6) -0.022(7) -0.002(6)
C16 0.085(9) 0.034(6) 0.074(9) -0.016(6) -0.048(7) 0.009(6)
C29 0.079(12) 0.096(11) 0.050(8) 0.014(7) -0.030(9) -0.032(9)
C21 0.046(7) 0.072(9) 0.048(8) -0.016(7) -0.012(6) 0.003(7)
C11 0.073(10) 0.072(9) 0.074(9) -0.035(7) -0.043(8) 0.003(7)
C25 0.039(6) 0.051(6) 0.038(5) -0.015(4) -0.019(5) 0.001(5)
C24 0.050(6) 0.052(7) 0.054(7) -0.027(6) -0.026(6) 0.007(6)
C10 0.090(11) 0.098(11) 0.072(8) -0.043(7) -0.054(9) 0.015(9)
C30 0.083(10) 0.055(7) 0.054(7) -0.005(6) -0.039(8) 0.000(7)
C2 0.063(8) 0.061(8) 0.043(7) -0.023(6) -0.023(6) 0.012(7)
C35 0.066(9) 0.069(9) 0.098(11) -0.044(8) -0.055(9) 0.008(7)
C6 0.046(7) 0.060(8) 0.069(9) -0.030(7) -0.028(7) 0.005(6)
C26 0.053(8) 0.080(9) 0.050(6) -0.035(6) -0.024(6) 0.007(7)
C8 0.093(10) 0.054(8) 0.060(7) -0.008(6) -0.043(8) -0.018(7)
C17 0.073(8) 0.043(7) 0.080(10) -0.019(7) -0.031(8) 0.028(6)
C23 0.052(7) 0.061(8) 0.083(9) -0.036(8) -0.039(7) 0.013(7)
C5 0.040(8) 0.075(10) 0.090(12) -0.028(9) -0.019(8) 0.014(7)
C9 0.131(14) 0.073(9) 0.048(7) -0.002(7) -0.041(9) -0.022(9)
C4 0.069(10) 0.080(11) 0.076(11) -0.040(9) 0.002(8) 0.020(9)
C28 0.081(12) 0.162(17) 0.052(9) -0.033(8) -0.025(10) -0.005(13)
C3 0.081(10) 0.076(10) 0.050(8) -0.032(7) -0.008(8) 0.009(9)
C33 0.080(10) 0.055(8) 0.060(9) -0.036(7) -0.021(9) 0.007(8)
C34 0.079(9) 0.057(8) 0.065(9) -0.034(7) -0.026(8) -0.007(7)
C32 0.047(7) 0.042(7) 0.065(8) -0.026(6) -0.014(7) 0.009(6)
loop_
_atom_type_symbol
_atom_type_description
_atom_type_scat_dispersion_real
_atom_type_scat_dispersion_imag
_atom_type_scat_source
C C 0.0033 0.0016 'International Tables Vol C Tables 4.2.6.8 and 6.1.1.4'
H H 0.0000 0.0000 'International Tables Vol C Tables 4.2.6.8 and 6.1.1.4'
N N 0.0061 0.0033 'International Tables Vol C Tables 4.2.6.8 and 6.1.1.4'
O O 0.0106 0.0060 'International Tables Vol C Tables 4.2.6.8 and 6.1.1.4'
P P 0.1023 0.0942 'International Tables Vol C Tables 4.2.6.8 and 6.1.1.4'
Mn Mn 0.3368 0.7283 'International Tables Vol C Tables 4.2.6.8 and 6.1.1.4'
Br Br -0.2901 2.4595 'International Tables Vol C Tables 4.2.6.8 and 6.1.1.4'
loop_
_geom_angle_atom_site_label_1
_geom_angle_atom_site_label_2
_geom_angle_atom_site_label_3
_geom_angle
O2 Mn1 O1 102.6(3)
O2 Mn1 Br1 104.0(3)
O1 Mn1 Br1 113.3(2)
O2 Mn1 Br2 111.0(2)
O1 Mn1 Br2 110.1(2)
Br1 Mn1 Br2 114.94(9)
O2 P2 C19 111.6(5)
O2 P2 C25 109.3(5)
C19 P2 C25 108.6(5)
O2 P2 C31 111.9(5)
C19 P2 C31 108.7(5)
C25 P2 C31 106.6(6)
O1 P1 C13 110.5(5)
O1 P1 C7 111.4(5)
C13 P1 C7 105.3(5)
O1 P1 C1 112.2(5)
C13 P1 C1 107.2(5)
C7 P1 C1 110.0(6)
P1 O1 Mn1 156.7(5)
C23 C22 C21 119.8(14)
C21 C20 C19 121.2(13)
P2 O2 Mn1 150.0(5)
C12 C7 C8 118.2(12)
C12 C7 P1 124.4(10)
C8 C7 P1 117.5(10)
C2 C1 C6 120.8(12)
C2 C1 P1 119.5(10)
C6 C1 P1 119.6(10)
C17 C18 C13 120.1(12)
C28 C27 C26 126(2)
C20 C19 C24 120.0(11)
C20 C19 P2 119.8(10)
C24 C19 P2 119.7(10)
C32 C31 C36 118.5(11)
C32 C31 P2 124.1(10)
C36 C31 P2 117.4(9)
C14 C13 C18 119.6(11)
C14 C13 P1 122.8(9)
C18 C13 P1 117.6(9)
C15 C14 C13 120.3(12)
C11 C12 C7 121.4(14)
C35 C36 C31 121.3(12)
C16 C15 C14 119.6(13)
C15 C16 C17 120.3(12)
C28 C29 C30 122.1(17)
C20 C21 C22 120.3(15)
C12 C11 C10 121.5(14)
C30 C25 C26 118.1(12)
C30 C25 P2 121.8(10)
C26 C25 P2 120.1(10)
C23 C24 C19 118.0(12)
C11 C10 C9 119.0(14)
C25 C30 C29 116.2(15)
C3 C2 C1 121.5(14)
C34 C35 C36 120.5(14)
C1 C6 C5 117.7(14)
C27 C26 C25 121.6(15)
C9 C8 C7 120.0(13)
C18 C17 C16 119.8(12)
C22 C23 C24 120.8(14)
C4 C5 C6 120.8(15)
C10 C9 C8 119.8(15)
C5 C4 C3 120.8(14)
C27 C28 C29 116(2)
C2 C3 C4 118.5(16)
C32 C33 C34 122.9(14)
C35 C34 C33 118.8(14)
C31 C32 C33 117.8(13)
loop_
_geom_bond_atom_site_label_1
_geom_bond_atom_site_label_2
_geom_bond_distance
Mn1 O2 2.040(7)
Mn1 O1 2.048(8)
Mn1 Br1 2.469(3)
Mn1 Br2 2.470(2)
P2 O2 1.499(8)
P2 C19 1.798(12)
P2 C25 1.801(11)
P2 C31 1.807(12)
P1 O1 1.494(8)
P1 C13 1.801(11)
P1 C7 1.804(12)
P1 C1 1.819(12)
C22 C23 1.378(19)
C22 C21 1.388(19)
C20 C21 1.341(17)
C20 C19 1.387(16)
C7 C12 1.375(16)
C7 C8 1.385(16)
C1 C2 1.368(17)
C1 C6 1.382(17)
C18 C17 1.346(16)
C18 C13 1.374(15)
C27 C28 1.26(3)
C27 C26 1.356(18)
C19 C24 1.401(16)
C31 C32 1.355(16)
C31 C36 1.387(16)
C13 C14 1.366(16)
C14 C15 1.359(16)
C12 C11 1.327(18)
C36 C35 1.368(17)
C15 C16 1.356(18)
C16 C17 1.376(18)
C29 C28 1.37(3)
C29 C30 1.49(2)
C11 C10 1.36(2)
C25 C30 1.344(16)
C25 C26 1.378(17)
C24 C23 1.396(17)
C10 C9 1.38(2)
C2 C3 1.365(18)
C35 C34 1.302(18)
C6 C5 1.398(18)
C8 C9 1.378(19)
C5 C4 1.37(2)
C4 C3 1.38(2)
C33 C32 1.369(19)
C33 C34 1.38(2)
