#------------------------------------------------------------------------------
#$Date: 2019-11-23 20:43:55 +0200 (Sat, 23 Nov 2019) $
#$Revision: 234910 $
#$URL: file:///home/coder/svn-repositories/cod/cif/4/34/96/4349602.cif $
#------------------------------------------------------------------------------
#
# This file is available in the Crystallography Open Database (COD),
# http://www.crystallography.net/
#
# All data on this site have been placed in the public domain by the
# contributors.
#
data_4349602
loop_
_publ_author_name
'Donsbach, C.'
'Dehnen, S.'
_publ_section_title
;
 Syntheses and properties of selenido mercurates with
 [HgSe2]2&#x2212;anions in diverse chemical environments
;
_journal_issue                   2
_journal_name_full               'Inorganic Chemistry Frontiers'
_journal_page_first              336
_journal_paper_doi               10.1039/C6QI00481D
_journal_volume                  4
_journal_year                    2017
_chemical_formula_moiety         'Cs4 H Hg O0.5 Se4'
_chemical_formula_sum            'Cs4 H Hg O0.5 Se4'
_chemical_formula_weight         1057.08
_space_group_crystal_system      monoclinic
_space_group_IT_number           14
_space_group_name_Hall           '-P 2yn'
_space_group_name_H-M_alt        'P 1 21/n 1'
_atom_sites_solution_primary     dual
_audit_creation_date             2016-10-27
_audit_creation_method
;
Olex2 1.2
(compiled 2016.09.09 svn.r3337 for OlexSys, GUI svn.r5227)
;
_audit_update_record
;
2016-11-02 deposited with the CCDC.
2016-12-07 downloaded from the CCDC.
;
_cell_angle_alpha                90
_cell_angle_beta                 100.637(3)
_cell_angle_gamma                90
_cell_formula_units_Z            4
_cell_length_a                   10.7624(5)
_cell_length_b                   8.8940(3)
_cell_length_c                   15.6140(7)
_cell_measurement_reflns_used    12889
_cell_measurement_temperature    100
_cell_measurement_theta_max      24.555
_cell_measurement_theta_min      2.225
_cell_volume                     1468.90(11)
_computing_molecular_graphics    'Olex2 (Dolomanov et al., 2009)'
_computing_publication_material  'Olex2 (Dolomanov et al., 2009)'
_computing_structure_refinement  'ShelXL (Sheldrick, 2015)'
_computing_structure_solution    'ShelXT (Sheldrick, 2015)'
_diffrn_ambient_temperature      100
_diffrn_measured_fraction_theta_full 1.000
_diffrn_measured_fraction_theta_max 0.995
_diffrn_measurement_device_type  'STOE IPDS-2T'
_diffrn_radiation_type           MoK\a
_diffrn_radiation_wavelength     0.71073
_diffrn_reflns_av_R_equivalents  0.0440
_diffrn_reflns_av_unetI/netI     0.0388
_diffrn_reflns_Laue_measured_fraction_full 1.000
_diffrn_reflns_Laue_measured_fraction_max 0.995
_diffrn_reflns_limit_h_max       14
_diffrn_reflns_limit_h_min       -14
_diffrn_reflns_limit_k_max       12
_diffrn_reflns_limit_k_min       -12
_diffrn_reflns_limit_l_max       21
_diffrn_reflns_limit_l_min       -20
_diffrn_reflns_number            15391
_diffrn_reflns_point_group_measured_fraction_full 1.000
_diffrn_reflns_point_group_measured_fraction_max 0.995
_diffrn_reflns_theta_full        25.242
_diffrn_reflns_theta_max         29.075
_diffrn_reflns_theta_min         2.127
_exptl_absorpt_coefficient_mu    30.111
_exptl_absorpt_correction_T_max  0.4951
_exptl_absorpt_correction_T_min  0.3291
_exptl_absorpt_correction_type   numerical
_exptl_absorpt_process_details   'STOE X-Area'
_exptl_crystal_colour            'dark red'
_exptl_crystal_colour_modifier   dark
_exptl_crystal_colour_primary    red
_exptl_crystal_density_diffrn    4.780
_exptl_crystal_description       block
_exptl_crystal_F_000             1764
_exptl_crystal_size_max          0.045
_exptl_crystal_size_mid          0.042
_exptl_crystal_size_min          0.039
_refine_diff_density_max         0.894
_refine_diff_density_min         -0.861
_refine_diff_density_rms         0.206
_refine_ls_extinction_coef       0.000141(8)
_refine_ls_extinction_expression Fc^*^=kFc[1+0.001xFc^2^\l^3^/sin(2\q)]^-1/4^
_refine_ls_extinction_method     'SHELXL-2014/7 (Sheldrick 2014'
_refine_ls_goodness_of_fit_ref   0.848
_refine_ls_hydrogen_treatment    undef
_refine_ls_matrix_type           full
_refine_ls_number_parameters     92
_refine_ls_number_reflns         3917
_refine_ls_number_restraints     0
_refine_ls_restrained_S_all      0.848
_refine_ls_R_factor_all          0.0348
_refine_ls_R_factor_gt           0.0195
_refine_ls_shift/su_max          0.002
_refine_ls_shift/su_mean         0.000
_refine_ls_structure_factor_coef Fsqd
_refine_ls_weighting_details
'w=1/[\s^2^(Fo^2^)+(0.0037P)^2^] where P=(Fo^2^+2Fc^2^)/3'
_refine_ls_weighting_scheme      calc
_refine_ls_wR_factor_gt          0.0242
_refine_ls_wR_factor_ref         0.0255
_reflns_Friedel_coverage         0.000
_reflns_number_gt                3018
_reflns_number_total             3917
_reflns_threshold_expression     'I > 2\s(I)'
_iucr_refine_instructions_details
;

    compound3.res created by SHELXL-2014/7

TITL compound3_a.res in P2(1)/n
REM Old TITL
REM SHELXT solution in P2(1)/n
REM R1 0.112, Rweak 0.003, Alpha 0.163, Orientation as input
REM Formula found by SHELXT: Hg2 Se3 I
CELL 0.71073 10.7624 8.894 15.614 90 100.637 90
ZERR 4 0.0005 0.0003 0.0007 0 0.003 0
LATT 1
SYMM 0.5-X,0.5+Y,0.5-Z
SFAC Cs H Hg O Se
UNIT 16 4 4 2 16
 
L.S. 100
PLAN  20
TEMP -173.15
BOND $H
list 4
fmap 2
acta
REM <olex2.extras>
REM <HklSrc "%.\\compound3.hkl">
REM </olex2.extras>
 
WGHT    0.003700
EXTI    0.000141
FVAR       0.11523
HG1   3    0.771035    0.008398    0.394832    11.00000    0.01315    0.01425 =
         0.01287   -0.00197    0.00231   -0.00159
CS1   1    0.598715    0.158026    0.616412    11.00000    0.01327    0.01380 =
         0.01222    0.00104    0.00240    0.00068
CS3   1    0.586384    0.330979    0.862095    11.00000    0.01231    0.01882 =
         0.01530   -0.00412    0.00340   -0.00055
CS2   1    0.326455    0.502022    0.581381    11.00000    0.01498    0.01332 =
         0.01883    0.00233    0.00266    0.00049
CS4   1    0.505779    0.828586    0.790262    11.00000    0.01506    0.01712 =
         0.01324    0.00239    0.00266    0.00283
SE3   5    0.589308    0.752089    0.584302    11.00000    0.01494    0.01414 =
         0.01217    0.00228   -0.00010    0.00015
SE4   5    0.678117    0.553053    0.678660    11.00000    0.01671    0.01184 =
         0.01542    0.00120   -0.00061    0.00019
SE1   5    0.689272   -0.162920    0.277784    11.00000    0.01311    0.01394 =
         0.01368   -0.00130    0.00205   -0.00119
SE2   5    0.862620    0.178879    0.510235    11.00000    0.01576    0.01354 =
         0.01326   -0.00189    0.00189   -0.00022
O1    4    0.528646    1.032890    0.969847    10.50000    0.08139    0.03476 =
         0.07324    0.01581    0.04570    0.01152
HKLF 4
 
REM  compound3_a.res in P2(1)/n
REM R1 =  0.0195 for    3018 Fo > 4sig(Fo)  and  0.0348 for all    3917 data
REM     92 parameters refined using      0 restraints
 
END  
     
WGHT      0.0038      0.0000 

REM Highest difference peak  0.894,  deepest hole -0.861,  1-sigma level  0.206
Q1    1   0.7735  0.0578  0.4044  11.00000  0.05    0.89
Q2    1   0.7060  0.4244  0.9005  11.00000  0.05    0.82
Q3    1   0.2542  0.4746  0.5563  11.00000  0.05    0.81
Q4    1   0.6995  0.0228  0.3578  11.00000  0.05    0.81
Q5    1   0.7059  0.1789  0.5353  11.00000  0.05    0.80
Q6    1   0.5237  0.3477  0.8069  11.00000  0.05    0.78
Q7    1   0.8444  0.0196  0.4212  11.00000  0.05    0.76
Q8    1   0.6591  0.3385  0.8965  11.00000  0.05    0.75
Q9    1   0.8398 -0.0363  0.4578  11.00000  0.05    0.74
Q10   1   0.8541  0.1184  0.4020  11.00000  0.05    0.73
Q11   1   0.5410  0.7196  0.6505  11.00000  0.05    0.72
Q12   1   0.7219  0.4472  0.6303  11.00000  0.05    0.72
Q13   1   0.4170  0.8210  0.7768  11.00000  0.05    0.72
Q14   1   0.7620 -0.0109  0.5383  11.00000  0.05    0.71
Q15   1   0.6000  0.7245  0.4632  11.00000  0.05    0.71
Q16   1   0.7496 -0.1462  0.3878  11.00000  0.05    0.71
Q17   1   0.8755  0.2182  0.4310  11.00000  0.05    0.71
Q18   1   0.3554  0.5378  0.6075  11.00000  0.05    0.70
Q19   1   0.1920  0.6151  0.5394  11.00000  0.05    0.69
Q20   1   0.4262  0.4578  0.4981  11.00000  0.05    0.69

  REM The information below was added by Olex2.
  REM
  REM R1 = 0.0195 for 3018 Fo > 4sig(Fo) and 0.0348 for all 15917 data
  REM n/a parameters refined using n/a restraints
  REM Highest difference peak 0.89, deepest hole -0.86
  REM Mean Shift 0, Max Shift 0.002.
  
  REM +++ Tabular Listing of Refinement Information +++
  REM R1_all = 0.0348
  REM R1_gt = 0.0195
  REM wR_ref = 0.0255
  REM GOOF = 0.848
  REM Shift_max = 0.002
  REM Shift_mean = 0
  REM Reflections_all = 15917
  REM Reflections_gt = 3018
  REM Parameters = n/a
  REM Hole = -0.86
  REM Peak = 0.89
  REM Flack = n/a
  
  
;
_cod_data_source_file            c6qi00481d1.cif
_cod_data_source_block           compound3
_cod_original_formula_sum        'Cs4 H Hg O0.50 Se4'
_cod_database_code               4349602
_shelx_space_group_comment
;
The symmetry employed for this shelxl refinement is uniquely defined
by the following loop, which should always be used as a source of
symmetry information in preference to the above space-group names.
They are only intended as comments.
;
_olex2_refinement_description
;
1. Others
 Fixed Sof: O1(0.5)
;
_shelx_shelxl_version_number     2014/7
_olex2_submission_special_instructions 'No special instructions were received'
loop_
_space_group_symop_operation_xyz
'x, y, z'
'-x+1/2, y+1/2, -z+1/2'
'-x, -y, -z'
'x-1/2, -y-1/2, z-1/2'
loop_
_atom_site_label
_atom_site_type_symbol
_atom_site_fract_x
_atom_site_fract_y
_atom_site_fract_z
_atom_site_U_iso_or_equiv
_atom_site_adp_type
_atom_site_occupancy
_atom_site_site_symmetry_order
_atom_site_calc_flag
_atom_site_refinement_flags_occupancy
Hg1 Hg 0.77103(2) 0.00840(2) 0.39483(2) 0.01344(4) Uani 1 1 d .
Cs1 Cs 0.59872(2) 0.15803(3) 0.61641(2) 0.01309(5) Uani 1 1 d .
Cs3 Cs 0.58638(2) 0.33098(3) 0.86209(2) 0.01537(6) Uani 1 1 d .
Cs2 Cs 0.32646(2) 0.50202(3) 0.58138(2) 0.01577(6) Uani 1 1 d .
Cs4 Cs 0.50578(2) 0.82859(3) 0.79026(2) 0.01513(6) Uani 1 1 d .
Se3 Se 0.58931(4) 0.75209(5) 0.58430(3) 0.01408(9) Uani 1 1 d .
Se4 Se 0.67812(4) 0.55305(5) 0.67866(3) 0.01511(9) Uani 1 1 d .
Se1 Se 0.68927(4) -0.16292(5) 0.27778(3) 0.01363(9) Uani 1 1 d .
Se2 Se 0.86262(4) 0.17888(5) 0.51024(3) 0.01429(9) Uani 1 1 d .
O1 O 0.5286(10) 1.0329(11) 0.9698(7) 0.059(3) Uani 0.5 1 d P
loop_
_atom_site_aniso_label
_atom_site_aniso_U_11
_atom_site_aniso_U_22
_atom_site_aniso_U_33
_atom_site_aniso_U_23
_atom_site_aniso_U_13
_atom_site_aniso_U_12
Hg1 0.01315(6) 0.01425(9) 0.01287(7) -0.00197(7) 0.00231(5) -0.00159(7)
Cs1 0.01327(10) 0.01380(14) 0.01222(11) 0.00104(11) 0.00240(9) 0.00068(10)
Cs3 0.01231(10) 0.01882(14) 0.01530(12) -0.00412(11) 0.00340(9) -0.00055(11)
Cs2 0.01498(11) 0.01332(13) 0.01883(12) 0.00233(12) 0.00266(9) 0.00049(11)
Cs4 0.01506(11) 0.01712(14) 0.01324(12) 0.00239(11) 0.00266(9) 0.00283(11)
Se3 0.01494(18) 0.0141(2) 0.01217(19) 0.00228(16) -0.00010(15) 0.00015(16)
Se4 0.01671(18) 0.0118(2) 0.0154(2) 0.00120(16) -0.00061(16) 0.00019(16)
Se1 0.01311(17) 0.0139(2) 0.0137(2) -0.00130(17) 0.00205(15) -0.00119(17)
Se2 0.01576(18) 0.0135(2) 0.01326(19) -0.00189(17) 0.00189(15) -0.00022(17)
O1 0.081(7) 0.035(6) 0.073(7) 0.016(5) 0.046(5) 0.012(5)
loop_
_atom_type_symbol
_atom_type_description
_atom_type_scat_dispersion_real
_atom_type_scat_dispersion_imag
_atom_type_scat_source
Cs Cs -0.3680 2.1192 'International Tables Vol C Tables 4.2.6.8 and 6.1.1.4'
H H 0.0000 0.0000 'International Tables Vol C Tables 4.2.6.8 and 6.1.1.4'
Hg Hg -2.3894 9.2266 'International Tables Vol C Tables 4.2.6.8 and 6.1.1.4'
O O 0.0106 0.0060 'International Tables Vol C Tables 4.2.6.8 and 6.1.1.4'
Se Se -0.0929 2.2259 'International Tables Vol C Tables 4.2.6.8 and 6.1.1.4'
loop_
_geom_angle_atom_site_label_1
_geom_angle_atom_site_label_2
_geom_angle_atom_site_label_3
_geom_angle
_geom_angle_site_symmetry_1
_geom_angle_site_symmetry_3
Cs1 Hg1 Cs1 67.015(7) 3_656 .
Cs1 Hg1 Cs2 60.491(6) . 3_666
Cs1 Hg1 Cs2 96.324(6) 3_656 3_666
Cs1 Hg1 Cs4 147.530(7) . 4_665
Cs1 Hg1 Cs4 110.220(7) 3_656 4_665
Cs3 Hg1 Cs1 120.383(7) 4_665 .
Cs3 Hg1 Cs1 169.919(7) 4_665 3_656
Cs3 Hg1 Cs1 95.260(6) 2_646 3_656
Cs3 Hg1 Cs1 62.280(6) 2_646 .
Cs3 Hg1 Cs3 94.446(7) 4_665 2_646
Cs3 Hg1 Cs2 110.206(7) 2_646 3_666
Cs3 Hg1 Cs2 82.839(7) 4_665 3_666
Cs3 Hg1 Cs4 67.672(7) 4_665 4_665
Cs3 Hg1 Cs4 109.229(7) 4_665 3_666
Cs3 Hg1 Cs4 86.545(7) 2_646 4_665
Cs4 Hg1 Cs1 95.267(7) 3_666 .
Cs4 Hg1 Cs1 61.857(6) 3_666 3_656
Cs4 Hg1 Cs3 153.888(7) 3_666 2_646
Cs4 Hg1 Cs2 63.774(6) 3_666 3_666
Cs4 Hg1 Cs2 147.371(7) 4_665 3_666
Cs4 Hg1 Cs4 112.161(6) 3_666 4_665
Se1 Hg1 Cs1 62.511(11) . 3_656
Se1 Hg1 Cs1 129.393(12) . .
Se1 Hg1 Cs3 118.362(13) . 2_646
Se1 Hg1 Cs3 110.156(13) . 4_665
Se1 Hg1 Cs2 127.813(12) . 3_666
Se1 Hg1 Cs4 56.402(11) . 4_665
Se1 Hg1 Cs4 64.253(12) . 3_666
Se1 Hg1 Se2 177.312(16) . .
Se2 Hg1 Cs1 53.207(11) . .
Se2 Hg1 Cs1 120.131(12) . 3_656
Se2 Hg1 Cs3 67.290(12) . 4_665
Se2 Hg1 Cs3 61.625(12) . 2_646
Se2 Hg1 Cs2 53.348(11) . 3_666
Se2 Hg1 Cs4 121.159(12) . 4_665
Se2 Hg1 Cs4 117.077(13) . 3_666
Hg1 Cs1 Hg1 112.985(7) 3_656 .
Hg1 Cs1 Cs3 55.690(6) . 2_646
Hg1 Cs1 Cs3 118.368(8) 3_656 2_646
Hg1 Cs1 Cs4 56.750(6) 3_656 1_545
Cs3 Cs1 Hg1 157.329(7) . .
Cs3 Cs1 Hg1 88.722(7) . 3_656
Cs3 Cs1 Cs3 109.097(6) . 2_646
Cs3 Cs1 Cs2 73.169(7) . .
Cs3 Cs1 Cs4 67.250(8) . 1_545
Cs2 Cs1 Hg1 67.684(6) . 3_656
Cs2 Cs1 Hg1 120.031(8) . .
Cs2 Cs1 Cs3 173.214(9) . 2_646
Cs2 Cs1 Cs4 110.212(8) . 1_545
Cs4 Cs1 Hg1 118.414(8) 1_545 .
Cs4 Cs1 Cs3 76.425(7) 1_545 2_646
Se3 Cs1 Hg1 67.929(10) 3_666 .
Se3 Cs1 Hg1 66.367(9) 1_545 .
Se3 Cs1 Hg1 69.963(9) 3_666 3_656
Se3 Cs1 Hg1 69.183(9) 1_545 3_656
Se3 Cs1 Cs3 119.256(10) 1_545 .
Se3 Cs1 Cs3 50.322(8) 1_545 2_646
Se3 Cs1 Cs3 121.747(11) 3_666 2_646
Se3 Cs1 Cs3 129.116(11) 3_666 .
Se3 Cs1 Cs2 56.100(9) 3_666 .
Se3 Cs1 Cs2 134.633(10) 1_545 .
Se3 Cs1 Cs4 124.509(11) 3_666 1_545
Se3 Cs1 Cs4 53.072(9) 1_545 1_545
Se3 Cs1 Se3 96.112(11) 3_666 1_545
Se3 Cs1 Se4 167.264(11) 1_545 .
Se3 Cs1 Se4 94.917(12) 3_666 .
Se3 Cs1 Se4 175.183(13) 3_666 2_646
Se3 Cs1 Se4 82.402(10) 1_545 2_646
Se3 Cs1 Se1 93.870(12) 1_545 3_656
Se3 Cs1 Se1 90.202(11) 3_666 3_656
Se3 Cs1 Se2 87.133(12) 3_666 .
Se4 Cs1 Hg1 112.405(10) . .
Se4 Cs1 Hg1 113.521(10) 2_646 3_656
Se4 Cs1 Hg1 107.330(10) 2_646 .
Se4 Cs1 Hg1 120.930(10) . 3_656
Se4 Cs1 Cs3 117.818(10) . 2_646
Se4 Cs1 Cs3 53.924(9) 2_646 2_646
Se4 Cs1 Cs3 55.175(9) 2_646 .
Se4 Cs1 Cs3 56.766(9) . .
Se4 Cs1 Cs2 57.649(8) . .
Se4 Cs1 Cs2 127.898(11) 2_646 .
Se4 Cs1 Cs4 123.934(11) . 1_545
Se4 Cs1 Cs4 58.034(9) 2_646 1_545
Se4 Cs1 Se4 86.089(8) . 2_646
Se4 Cs1 Se1 92.440(12) . 3_656
Se4 Cs1 Se1 94.465(11) 2_646 3_656
Se1 Cs1 Hg1 147.505(9) 3_656 .
Se1 Cs1 Hg1 34.643(7) 3_656 3_656
Se1 Cs1 Cs3 54.753(8) 3_656 .
Se1 Cs1 Cs3 130.778(11) 3_656 2_646
Se1 Cs1 Cs2 55.871(9) 3_656 .
Se1 Cs1 Cs4 54.354(9) 3_656 1_545
Se2 Cs1 Hg1 146.014(10) . 3_656
Se2 Cs1 Hg1 33.125(8) . .
Se2 Cs1 Cs3 53.325(9) . 2_646
Se2 Cs1 Cs3 125.198(10) . .
Se2 Cs1 Cs2 120.020(11) . .
Se2 Cs1 Cs4 129.750(11) . 1_545
Se2 Cs1 Se3 89.530(12) . 1_545
Se2 Cs1 Se4 84.675(12) . .
Se2 Cs1 Se4 88.271(11) . 2_646
Se2 Cs1 Se1 175.888(13) . 3_656
Hg1 Cs3 Hg1 85.553(7) 4_566 2_656
Hg1 Cs3 Cs1 156.687(8) 2_656 .
Hg1 Cs3 Cs1 62.030(6) 2_656 2_656
Hg1 Cs3 Cs1 115.612(9) 4_566 2_656
Hg1 Cs3 Cs1 116.376(7) 4_566 .
Hg1 Cs3 Cs4 62.572(6) 4_566 .
Hg1 Cs3 Cs4 83.004(7) 2_656 .
Cs1 Cs3 Cs1 99.120(7) . 2_656
Cs1 Cs3 Cs4 59.674(6) 2_656 .
Cs1 Cs3 Cs4 99.635(8) . .
Se3 Cs3 Hg1 156.460(11) 2_646 4_566
Se3 Cs3 Hg1 70.907(9) 2_646 2_656
Se3 Cs3 Cs1 53.107(9) 2_646 2_656
Se3 Cs3 Cs1 86.923(10) 2_646 .
Se3 Cs3 Cs4 112.619(11) 2_646 .
Se3 Cs3 Se4 84.096(12) 2_646 .
Se3 Cs3 Se4 38.712(10) 2_646 2_646
Se3 Cs3 Se1 136.194(13) 2_646 3_656
Se3 Cs3 Se2 89.804(11) 2_646 2_656
Se3 Cs3 Se2 126.187(12) 2_646 4_566
Se4 Cs3 Hg1 159.408(11) 2_646 4_566
Se4 Cs3 Hg1 105.330(9) 2_646 2_656
Se4 Cs3 Hg1 105.755(10) . 4_566
Se4 Cs3 Hg1 113.189(10) . 2_656
Se4 Cs3 Cs1 56.736(9) 2_646 .
Se4 Cs3 Cs1 53.697(8) . 2_656
Se4 Cs3 Cs1 84.978(10) 2_646 2_656
Se4 Cs3 Cs1 55.505(9) . .
Se4 Cs3 Cs4 51.239(9) . .
Se4 Cs3 Cs4 135.065(11) 2_646 .
Se4 Cs3 Se4 86.275(8) 2_646 .
Se1 Cs3 Hg1 65.712(9) 3_656 4_566
Se1 Cs3 Hg1 145.647(10) 3_656 2_656
Se1 Cs3 Cs1 146.825(11) 3_656 2_656
Se1 Cs3 Cs1 57.256(9) 3_656 .
Se1 Cs3 Cs4 98.710(10) 3_656 .
Se1 Cs3 Se4 93.316(11) 3_656 .
Se1 Cs3 Se4 97.511(12) 3_656 2_646
Se1 Cs3 Se2 133.794(12) 3_656 2_656
Se2 Cs3 Hg1 35.518(7) 2_656 2_656
Se2 Cs3 Hg1 66.570(8) 4_566 2_656
Se2 Cs3 Hg1 37.908(8) 4_566 4_566
Se2 Cs3 Hg1 69.981(9) 2_656 4_566
Se2 Cs3 Cs1 141.879(11) 2_656 .
Se2 Cs3 Cs1 123.700(10) 4_566 2_656
Se2 Cs3 Cs1 135.715(10) 4_566 .
Se2 Cs3 Cs1 50.900(9) 2_656 2_656
Se2 Cs3 Cs4 47.506(8) 2_656 .
Se2 Cs3 Cs4 93.495(10) 4_566 .
Se2 Cs3 Se4 130.718(14) 4_566 2_646
Se2 Cs3 Se4 142.724(13) 4_566 .
Se2 Cs3 Se4 86.377(12) 2_656 .
Se2 Cs3 Se4 128.481(11) 2_656 2_646
Se2 Cs3 Se1 79.091(11) 4_566 3_656
Se2 Cs3 Se2 74.020(12) 4_566 2_656
O1 Cs3 Hg1 88.64(17) 1_545 4_566
O1 Cs3 Hg1 84.86(19) 1_545 2_656
O1 Cs3 Cs1 135.28(19) 1_545 2_656
O1 Cs3 Cs1 102.52(19) 1_545 .
O1 Cs3 Cs4 149.45(17) 1_545 .
O1 Cs3 Se3 89.44(18) 1_545 2_646
O1 Cs3 Se4 157.29(18) 1_545 .
O1 Cs3 Se4 75.28(17) 1_545 2_646
O1 Cs3 Se1 76.43(19) 1_545 3_656
O1 Cs3 Se2 115.42(19) 1_545 2_656
O1 Cs3 Se2 55.97(17) 1_545 4_566
Cs1 Cs2 Hg1 58.777(6) 3_666 3_666
Cs1 Cs2 Hg1 149.261(7) . 3_666
Cs1 Cs2 Cs1 111.701(7) . 3_666
Se3 Cs2 Hg1 138.034(10) 3_666 3_666
Se3 Cs2 Hg1 66.162(9) . 3_666
Se3 Cs2 Cs1 85.443(10) . .
Se3 Cs2 Cs1 80.289(10) 3_666 3_666
Se3 Cs2 Cs1 49.636(8) . 3_666
Se3 Cs2 Cs1 52.171(8) 3_666 .
Se3 Cs2 Se3 95.379(12) . 3_666
Se3 Cs2 Se4 89.881(11) 3_666 .
Se3 Cs2 Se4 87.237(11) . 3_666
Se3 Cs2 Se4 35.366(9) 3_666 3_666
Se3 Cs2 Se4 37.307(10) . .
Se3 Cs2 Se1 87.817(12) 3_666 3_656
Se3 Cs2 Se1 162.795(13) 3_666 4_566
Se3 Cs2 Se1 100.012(12) . 4_566
Se3 Cs2 Se1 127.620(11) . 3_656
Se3 Cs2 Se2 84.477(12) . 3_666
Se3 Cs2 O1 105.54(14) 3_666 2_546
Se3 Cs2 O1 136.32(15) . 2_546
Se4 Cs2 Hg1 94.628(9) . 3_666
Se4 Cs2 Hg1 103.741(9) 3_666 3_666
Se4 Cs2 Cs1 50.846(8) 3_666 3_666
Se4 Cs2 Cs1 84.477(9) . 3_666
Se4 Cs2 Cs1 54.636(9) . .
Se4 Cs2 Cs1 85.536(9) 3_666 .
Se4 Cs2 Se4 103.767(10) . 3_666
Se4 Cs2 Se1 97.693(11) . 4_566
Se1 Cs2 Hg1 133.703(10) 3_656 3_666
Se1 Cs2 Hg1 56.981(8) 4_566 3_666
Se1 Cs2 Cs1 167.125(11) 3_656 3_666
Se1 Cs2 Cs1 115.690(11) 4_566 3_666
Se1 Cs2 Cs1 56.262(9) 3_656 .
Se1 Cs2 Cs1 121.290(10) 4_566 .
Se1 Cs2 Se4 90.629(10) 3_656 .
Se1 Cs2 Se4 119.519(12) 3_656 3_666
Se1 Cs2 Se4 152.481(10) 4_566 3_666
Se1 Cs2 Se1 76.726(7) 3_656 4_566
Se1 Cs2 O1 91.68(16) 3_656 2_546
Se2 Cs2 Hg1 32.364(7) 3_666 3_666
Se2 Cs2 Cs1 161.387(11) 3_666 .
Se2 Cs2 Cs1 50.376(9) 3_666 3_666
Se2 Cs2 Se3 113.391(12) 3_666 3_666
Se2 Cs2 Se4 78.390(10) 3_666 3_666
Se2 Cs2 Se4 120.269(13) 3_666 .
Se2 Cs2 Se1 140.942(12) 3_666 3_656
Se2 Cs2 Se1 75.972(11) 3_666 4_566
Se2 Cs2 O1 52.14(15) 3_666 2_546
O1 Cs2 Hg1 85.29(16) 4_575 3_666
O1 Cs2 Hg1 72.83(14) 2_546 3_666
O1 Cs2 Cs1 125.06(16) 4_575 .
O1 Cs2 Cs1 96.22(16) 2_546 3_666
O1 Cs2 Cs1 88.90(18) 4_575 3_666
O1 Cs2 Cs1 137.43(15) 2_546 .
O1 Cs2 Se3 85.07(16) 4_575 3_666
O1 Cs2 Se3 137.37(18) 4_575 .
O1 Cs2 Se4 172.28(17) 4_575 .
O1 Cs2 Se4 68.83(16) 4_575 3_666
O1 Cs2 Se4 164.48(14) 2_546 .
O1 Cs2 Se4 88.40(15) 2_546 3_666
O1 Cs2 Se1 67.97(15) 2_546 4_566
O1 Cs2 Se1 88.75(16) 4_575 4_566
O1 Cs2 Se1 95.01(18) 4_575 3_656
O1 Cs2 Se2 57.13(17) 4_575 3_666
O1 Cs2 O1 20.9(3) 4_575 2_546
Hg1 Cs4 Hg1 96.421(6) 3_666 4_566
Hg1 Cs4 Cs1 152.343(8) 3_666 2_656
Hg1 Cs4 Cs1 102.866(8) 4_566 2_656
Hg1 Cs4 Cs1 61.392(6) 3_666 1_565
Hg1 Cs4 Cs2 68.551(6) 4_566 .
Hg1 Cs4 Cs2 63.404(6) 3_666 .
Cs1 Cs4 Hg1 157.469(7) 1_565 4_566
Cs1 Cs4 Cs1 96.864(6) 1_565 2_656
Cs1 Cs4 Cs2 95.843(8) 1_565 .
Cs1 Cs4 Cs2 105.611(8) 2_656 .
Se3 Cs4 Hg1 72.345(8) . 3_666
Se3 Cs4 Hg1 117.428(11) . 4_566
Se3 Cs4 Cs1 81.179(9) . 2_656
Se3 Cs4 Cs1 54.887(9) . 1_565
Se3 Cs4 Cs2 51.068(9) . .
Se3 Cs4 Se4 38.338(10) . .
Se3 Cs4 Se4 81.386(11) . 2_656
Se3 Cs4 Se1 105.127(11) . 4_566
Se3 Cs4 Se1 96.849(11) . 3_666
Se4 Cs4 Hg1 95.467(11) . 4_566
Se4 Cs4 Hg1 114.770(10) 2_656 3_666
Se4 Cs4 Hg1 105.660(10) . 3_666
Se4 Cs4 Hg1 147.822(9) 2_656 4_566
Se4 Cs4 Cs1 54.667(8) 2_656 1_565
Se4 Cs4 Cs1 51.724(8) 2_656 2_656
Se4 Cs4 Cs1 87.601(10) . 1_565
Se4 Cs4 Cs1 53.310(8) . 2_656
Se4 Cs4 Cs2 54.499(8) . .
Se4 Cs4 Cs2 131.684(10) 2_656 .
Se4 Cs4 Se4 84.025(7) . 2_656
Se1 Cs4 Hg1 63.302(8) 4_566 3_666
Se1 Cs4 Hg1 36.253(7) 3_666 3_666
Se1 Cs4 Hg1 108.650(10) 3_666 4_566
Se1 Cs4 Hg1 33.133(7) 4_566 4_566
Se1 Cs4 Cs1 124.614(9) 4_566 1_565
Se1 Cs4 Cs1 56.365(9) 3_666 1_565
Se1 Cs4 Cs1 133.827(11) 4_566 2_656
Se1 Cs4 Cs1 145.138(10) 3_666 2_656
Se1 Cs4 Cs2 55.796(9) 4_566 .
Se1 Cs4 Cs2 99.545(9) 3_666 .
Se1 Cs4 Se4 171.535(13) 4_566 2_656
Se1 Cs4 Se4 93.459(12) 3_666 2_656
Se1 Cs4 Se4 104.440(12) 4_566 .
Se1 Cs4 Se4 135.082(12) 3_666 .
Se1 Cs4 Se1 80.523(7) 3_666 4_566
Se2 Cs4 Hg1 64.626(9) 2_656 4_566
Se2 Cs4 Hg1 156.449(11) 2_656 3_666
Se2 Cs4 Cs1 137.789(11) 2_656 1_565
Se2 Cs4 Cs1 50.959(9) 2_656 2_656
Se2 Cs4 Cs2 116.962(12) 2_656 .
Se2 Cs4 Se3 127.802(13) 2_656 .
Se2 Cs4 Se4 83.198(11) 2_656 2_656
Se2 Cs4 Se4 90.670(12) 2_656 .
Se2 Cs4 Se1 96.612(12) 2_656 4_566
Se2 Cs4 Se1 133.701(13) 2_656 3_666
O1 Cs4 Hg1 109.89(17) . 3_666
O1 Cs4 Hg1 91.00(17) . 4_566
O1 Cs4 Cs1 99.99(16) . 1_565
O1 Cs4 Cs1 89.59(18) . 2_656
O1 Cs4 Cs2 156.57(18) . .
O1 Cs4 Se3 151.36(17) . .
O1 Cs4 Se4 71.75(17) . 2_656
O1 Cs4 Se4 142.86(17) . .
O1 Cs4 Se1 100.82(18) . 4_566
O1 Cs4 Se1 75.55(16) . 3_666
O1 Cs4 Se2 59.49(16) . 2_656
Cs1 Se3 Cs1 83.887(11) 3_666 1_565
Cs1 Se3 Cs3 123.662(15) 3_666 2_656
Cs1 Se3 Cs2 134.623(14) 1_565 3_666
Cs1 Se3 Cs2 71.727(10) 3_666 3_666
Cs1 Se3 Cs2 78.812(10) 3_666 .
Cs1 Se3 Cs4 124.417(14) 3_666 .
Cs3 Se3 Cs1 76.572(11) 2_656 1_565
Cs3 Se3 Cs2 85.815(12) 2_656 3_666
Cs3 Se3 Cs2 150.896(15) 2_656 .
Cs3 Se3 Cs4 98.761(12) 2_656 .
Cs2 Se3 Cs1 128.098(14) . 1_565
Cs2 Se3 Cs2 84.621(12) . 3_666
Cs4 Se3 Cs1 72.041(11) . 1_565
Cs4 Se3 Cs2 78.478(11) . .
Cs4 Se3 Cs2 152.875(16) . 3_666
Se4 Se3 Cs1 130.698(18) . 1_565
Se4 Se3 Cs1 145.36(2) . 3_666
Se4 Se3 Cs3 74.548(15) . 2_656
Se4 Se3 Cs2 76.900(16) . .
Se4 Se3 Cs2 81.699(17) . 3_666
Se4 Se3 Cs4 73.941(17) . .
Cs1 Se4 Cs1 122.752(13) . 2_656
Cs1 Se4 Cs3 67.730(10) . .
Cs1 Se4 Cs3 72.381(10) 2_656 .
Cs1 Se4 Cs2 70.437(10) . 3_666
Cs1 Se4 Cs2 140.138(14) 2_656 3_666
Cs1 Se4 Cs2 67.715(9) . .
Cs1 Se4 Cs2 142.904(15) 2_656 .
Cs1 Se4 Cs4 72.571(10) . 2_646
Cs1 Se4 Cs4 67.298(9) 2_656 2_646
Cs3 Se4 Cs1 68.089(9) 2_656 2_656
Cs3 Se4 Cs1 136.475(15) 2_656 .
Cs3 Se4 Cs3 140.467(12) 2_656 .
Cs3 Se4 Cs2 132.212(13) 2_656 .
Cs3 Se4 Cs2 81.998(11) . .
Cs3 Se4 Cs2 137.609(14) . 3_666
Cs3 Se4 Cs2 77.920(11) 2_656 3_666
Cs3 Se4 Cs4 75.657(11) 2_656 2_646
Cs3 Se4 Cs4 93.310(12) 2_656 .
Cs3 Se4 Cs4 88.966(11) . 2_646
Cs2 Se4 Cs2 76.233(10) . 3_666
Cs2 Se4 Cs4 139.778(14) . 2_646
Cs4 Se4 Cs1 129.860(14) . .
Cs4 Se4 Cs1 74.378(10) . 2_656
Cs4 Se4 Cs3 76.349(12) . .
Cs4 Se4 Cs2 129.300(12) . 3_666
Cs4 Se4 Cs2 73.798(10) . .
Cs4 Se4 Cs2 84.970(11) 2_646 3_666
Cs4 Se4 Cs4 141.545(12) . 2_646
Se3 Se4 Cs1 119.664(18) . .
Se3 Se4 Cs1 117.567(19) . 2_656
Se3 Se4 Cs3 66.741(15) . 2_656
Se3 Se4 Cs3 136.77(2) . .
Se3 Se4 Cs2 65.793(15) . .
Se3 Se4 Cs2 62.936(15) . 3_666
Se3 Se4 Cs4 134.24(2) . 2_646
Se3 Se4 Cs4 67.721(16) . .
Hg1 Se1 Cs1 82.845(13) . 3_656
Hg1 Se1 Cs3 148.204(17) . 3_656
Hg1 Se1 Cs2 102.986(15) . 4_665
Hg1 Se1 Cs2 96.490(14) . 3_656
Hg1 Se1 Cs4 79.494(14) . 3_666
Hg1 Se1 Cs4 90.465(12) . 4_665
Cs1 Se1 Cs2 143.001(13) 3_656 4_665
Cs3 Se1 Cs1 67.992(9) 3_656 3_656
Cs3 Se1 Cs2 93.624(10) 3_656 4_665
Cs3 Se1 Cs2 84.393(11) 3_656 3_656
Cs3 Se1 Cs4 78.555(10) 3_656 3_666
Cs3 Se1 Cs4 120.511(14) 3_656 4_665
Cs2 Se1 Cs1 67.867(10) 3_656 3_656
Cs2 Se1 Cs2 144.814(14) 3_656 4_665
Cs4 Se1 Cs1 69.281(10) 3_666 3_656
Cs4 Se1 Cs1 143.910(14) 4_665 3_656
Cs4 Se1 Cs2 75.873(10) 3_666 4_665
Cs4 Se1 Cs2 73.060(10) 4_665 4_665
Cs4 Se1 Cs2 137.125(13) 3_666 3_656
Cs4 Se1 Cs2 77.815(11) 4_665 3_656
Cs4 Se1 Cs4 144.178(14) 3_666 4_665
Hg1 Se2 Cs1 93.668(14) . .
Hg1 Se2 Cs3 82.857(14) . 2_646
Hg1 Se2 Cs3 74.802(12) . 4_665
Hg1 Se2 Cs2 94.288(13) . 3_666
Hg1 Se2 Cs4 163.445(19) . 2_646
Cs1 Se2 Cs3 75.775(11) . 2_646
Cs1 Se2 Cs3 167.843(13) . 4_665
Cs1 Se2 Cs2 77.646(10) . 3_666
Cs3 Se2 Cs3 105.981(13) 4_665 2_646
Cs2 Se2 Cs3 153.010(14) 3_666 2_646
Cs2 Se2 Cs3 99.044(12) 3_666 4_665
Cs4 Se2 Cs1 80.128(11) 2_646 .
Cs4 Se2 Cs3 80.746(11) 2_646 2_646
Cs4 Se2 Cs3 112.014(13) 2_646 4_665
Cs4 Se2 Cs2 99.284(14) 2_646 3_666
Cs3 O1 Cs2 103.4(3) 1_565 2_556
Cs3 O1 Cs2 95.0(3) 1_565 4_676
Cs3 O1 Cs4 90.0(2) 1_565 .
Cs2 O1 Cs2 159.1(3) 4_676 2_556
Cs4 O1 Cs2 82.3(2) . 2_556
Cs4 O1 Cs2 107.6(3) . 4_676
O1 O1 Cs3 150.1(10) 3_677 1_565
O1 O1 Cs2 62.7(8) 3_677 2_556
O1 O1 Cs2 96.5(9) 3_677 4_676
O1 O1 Cs4 112.4(10) 3_677 .
loop_
_geom_bond_atom_site_label_1
_geom_bond_atom_site_label_2
_geom_bond_distance
_geom_bond_site_symmetry_2
Hg1 Cs1 4.4214(4) .
Hg1 Cs1 4.2189(3) 3_656
Hg1 Cs3 3.8028(3) 4_665
Hg1 Cs3 4.1351(3) 2_646
Hg1 Cs2 4.5103(4) 3_666
Hg1 Cs4 4.4220(4) 4_665
Hg1 Cs4 4.0189(3) 3_666
Hg1 Se1 2.4171(5) .
Hg1 Se2 2.4211(5) .
Cs1 Hg1 4.2190(3) 3_656
Cs1 Cs3 4.1578(4) .
Cs1 Cs3 4.4317(4) 2_646
Cs1 Cs2 4.2017(4) .
Cs1 Cs4 4.2375(4) 1_545
Cs1 Se3 3.4949(5) 3_666
Cs1 Se3 3.6439(6) 1_545
Cs1 Se4 3.7472(5) 2_646
Cs1 Se4 3.7030(5) .
Cs1 Se1 3.7720(5) 3_656
Cs1 Se2 3.5480(5) .
Cs3 Hg1 3.8028(3) 4_566
Cs3 Hg1 4.1351(3) 2_656
Cs3 Cs1 4.4317(4) 2_656
Cs3 Cs4 4.6085(5) .
Cs3 Se3 3.5067(5) 2_646
Cs3 Se4 3.6789(5) 2_646
Cs3 Se4 3.7581(6) .
Cs3 Se1 3.6625(5) 3_656
Cs3 Se2 3.6668(5) 2_656
Cs3 Se2 3.6351(5) 4_566
Cs3 O1 3.261(9) 1_545
Cs2 Hg1 4.5103(4) 3_666
Cs2 Cs1 4.4996(4) 3_666
Cs2 Se3 3.5922(5) .
Cs2 Se3 3.6726(6) 3_666
Cs2 Se4 4.0809(6) 3_666
Cs2 Se4 3.8360(5) .
Cs2 Se1 3.9119(5) 4_566
Cs2 Se1 3.7547(6) 3_656
Cs2 Se2 3.6287(5) 3_666
Cs2 O1 3.368(11) 4_575
Cs2 O1 3.767(10) 2_546
Cs4 Hg1 4.0189(3) 3_666
Cs4 Hg1 4.4220(4) 4_566
Cs4 Cs1 4.5004(4) 2_656
Cs4 Cs1 4.2375(4) 1_565
Cs4 Se3 3.5609(5) .
Cs4 Se4 3.6980(6) .
Cs4 Se4 3.8968(5) 2_656
Cs4 Se1 3.6816(5) 3_666
Cs4 Se1 3.6834(5) 4_566
Cs4 Se2 3.4429(5) 2_656
Cs4 O1 3.312(11) .
Se3 Cs1 3.4949(5) 3_666
Se3 Cs1 3.6439(6) 1_565
Se3 Cs3 3.5067(5) 2_656
Se3 Cs2 3.6727(6) 3_666
Se3 Se4 2.3870(6) .
Se4 Cs1 3.7472(5) 2_656
Se4 Cs3 3.6789(5) 2_656
Se4 Cs2 4.0810(6) 3_666
Se4 Cs4 3.8968(5) 2_646
Se1 Cs1 3.7720(5) 3_656
Se1 Cs3 3.6625(5) 3_656
Se1 Cs2 3.9119(5) 4_665
Se1 Cs2 3.7547(5) 3_656
Se1 Cs4 3.6816(5) 3_666
Se1 Cs4 3.6834(5) 4_665
Se2 Cs3 3.6668(5) 2_646
Se2 Cs3 3.6351(5) 4_665
Se2 Cs2 3.6287(5) 3_666
Se2 Cs4 3.4429(5) 2_646
O1 Cs3 3.261(9) 1_565
O1 Cs2 3.368(11) 4_676
O1 Cs2 3.767(10) 2_556
O1 O1 1.350(19) 3_677
loop_
_refln_index_h
_refln_index_k
_refln_index_l
_refln_F_squared_meas
_refln_F_squared_sigma
_refln_scale_group_code
-7 -10 8 125.96 20.37 0
-7 -8 7 213.04 16.07 0
-7 -5 10 47.82 15.17 0
-7 -4 13 166.45 14.34 0
-7 -4 14 74.03 14.63 0
-7 -4 15 795.04 17.14 0
-7 -4 16 5.57 15.1 0
-6 -9 4 22.22 17.62 0
-6 -7 4 622.04 19.31 0
-6 -4 7 40.9 11.01 0
-6 -3 9 21.87 13.52 0
-6 -3 19 3.17 12.97 0
-5 -3 5 -3.73 14.07 0
-5 -2 7 140.6 14.32 0
-5 -1 11 215.05 13.79 0
-5 -1 12 984.57 16.45 0
-5 -1 13 793.19 13.48 0
-5 -1 14 298.04 11.86 0
-5 -1 15 360.93 11.78 0
-5 -1 16 10.72 14.83 0
-5 -1 17 21.15 14.68 0
-4 -11 0 86.15 26.44 0
-4 -2 4 590.54 20.43 0
-4 -1 21 14.48 18.31 0
-4 0 11 -4.26 13.86 0
-4 0 16 142.12 14.87 0
-4 0 17 3.26 15.11 0
-3 0 21 351.43 18.53 0
-3 1 12 1223.29 19.24 0
-3 1 13 1399.42 20.27 0
-3 1 14 16.04 15 0
-3 1 15 -11.42 14.48 0
-2 1 7 393.98 15.2 0
-1 -7 -5 671.05 44.47 0
-1 2 17 8.45 15.15 0
0 -2 -3 47.24 27.89 0
0 2 20 40.56 19.33 0
1 3 16 92.7 15.65 0
2 -9 -8 49.15 19.89 0
2 -7 -8 482.03 21.59 0
3 -2 -6 490.41 15.61 0
4 4 14 722.69 30.05 0
5 -9 -10 12.66 17.25 0
5 -8 -10 59.27 16.58 0
5 -7 -10 38.37 15.36 0
5 1 -3 33.98 16.08 0
6 4 16 -0.75 32.15 0
7 -3 -9 37.85 9.86 0
7 -2 -8 -2.46 12.77 0
7 -1 -7 1.81 9.12 0
7 1 -4 145.97 10.03 0
7 3 1 228.21 15.26 0
7 4 6 102.81 18.69 0
8 -8 -11 114.06 16.33 0
8 -7 -11 51.68 16.41 0
8 3 1 805.33 16.74 0
8 4 6 66.65 16.73 0
9 -6 -11 149.35 12.08 0
9 -4 -10 89.22 14.27 0
9 0 -6 13.76 11.74 0
9 2 -2 112.66 14.76 0
9 3 1 3.79 12.92 0
9 4 6 260.72 18.6 0
10 -6 -11 -9.7 16.15 0
10 -4 -10 38.55 15.43 0
10 0 -6 939.03 15.37 0
10 2 -2 755.15 16.22 0
10 3 1 28.26 14.55 0
10 4 7 445.71 21.64 0
11 -6 -11 227.68 16.13 0
11 -4 -10 660.51 17.61 0
11 1 -4 35.64 14.33 0
12 -3 -9 62.02 14.54 0
12 -2 -8 70.88 13.02 0
12 -1 -7 450.85 15.29 0
13 0 -5 175.51 15.69 0
13 1 -3 118.99 15.78 0
13 3 4 -5.34 19.4 0
14 -1 -6 -17.72 17.47 0
14 1 -2 1.28 15.35 0
14 2 1 23.5 16.87 0
-8 -8 12 107.52 17.13 0
-8 -7 13 73.9 16.34 0
-8 -7 14 25.99 18.32 0
-7 -10 7 593.47 22.32 0
-7 -9 7 104.15 16.35 0
-7 -7 7 -12.74 16.76 0
-7 -6 8 2.67 11.24 0
-7 -5 9 188.12 16.24 0
-7 -4 11 780.86 17.1 0
-7 -4 12 0.58 10.87 0
-7 -4 17 64.75 11.34 0
-7 -4 18 15.67 15.88 0
-6 -10 4 21.6 19.39 0
-6 -5 5 707.59 19.07 0
-6 -3 8 24.65 13.44 0
-6 -3 20 7.47 14.1 0
-6 -2 12 1026.14 17.36 0
-6 -2 13 9.88 12.7 0
-6 -2 14 72.03 10.59 0
-6 -2 15 6.9 10.76 0
-6 -2 16 64.92 13.89 0
-6 -2 17 147.07 15.86 0
-5 -11 2 521.42 26.68 0
-5 -8 1 212.81 20.75 0
-5 -1 10 397.21 15.35 0
-5 -1 18 5.94 15.89 0
-4 -4 1 857.92 22.65 0
-4 -1 6 21.06 16.04 0
-4 0 10 161.45 13.94 0
-4 0 18 410.08 16.47 0
-3 0 6 -4.78 12.87 0
-3 1 11 273.93 15.97 0
-3 1 16 295.14 14.8 0
-3 1 17 38.73 14.68 0
-2 1 20 113.73 16.61 0
-1 1 4 1036.66 30.9 0
-1 2 8 360.46 18.18 0
-1 2 18 106.27 17.41 0
0 -3 -4 328.68 28.68 0
1 3 17 38.41 18.53 0
2 -8 -8 48.03 19.11 0
2 -3 -6 87.47 18.47 0
2 -2 -5 549.48 21.41 0
2 3 19 11.72 20.72 0
3 -5 -8 184.2 15.46 0
3 2 1 58.52 23.73 0
4 -6 -9 3.24 14.72 0
4 0 -4 1594.04 21.17 0
4 2 0 990.87 23.53 0
5 -3 -8 883.93 14.71 0
5 -2 -7 113.42 13.21 0
5 -1 -6 977.82 15.32 0
6 -6 -10 50.93 14.91 0
6 -4 -9 366.13 15.89 0
6 0 -5 -5.72 13.36 0
6 4 7 15.46 19.16 0
7 -5 -10 37.24 9.92 0
8 -3 -9 77.07 10.56 0
8 -2 -8 547.73 14.82 0
8 -1 -7 265.15 10.46 0
8 1 -4 273.59 10.93 0
9 -8 -11 168.95 19.16 0
9 -7 -11 32.23 12.17 0
9 -3 -9 -1.6 13.65 0
9 -1 -7 32.68 12.99 0
9 1 -4 5.1 13.03 0
9 4 7 5.09 16.75 0
10 -7 -11 44.38 15.45 0
10 -3 -9 40.93 14.29 0
10 -1 -7 10.28 12.97 0
10 1 -4 207.67 11.09 0
10 4 8 45.16 19.96 0
10 4 9 -5.36 22.01 0
10 4 11 -1.33 24.36 0
11 -3 -9 11.63 13.01 0
11 -2 -8 125.45 13.89 0
11 -1 -7 100.41 9.85 0
11 3 2 38.98 14.89 0
12 -5 -10 25.14 17.53 0
12 0 -5 -4.35 14.03 0
12 3 3 532.11 18.93 0
13 -4 -9 33.31 14.82 0
13 -1 -6 24.43 13.8 0
14 -2 -7 7.28 11.4 0
14 0 -4 378.12 15.91 0
-8 -8 11 153.12 18.57 0
-8 -7 11 63.14 15.69 0
-8 -7 12 16.07 15.82 0
-8 -6 13 2.64 17.57 0
-8 -6 14 110.86 16.09 0
-8 -6 15 83.99 16.61 0
-8 -6 16 306.06 17.83 0
-7 -9 6 136.99 19.53 0
-7 -8 6 4.72 15.41 0
-7 -6 7 82.68 15.45 0
-7 -5 8 99.02 15.68 0
-7 -4 10 -5.67 14.55 0
-7 -3 15 24.78 13.6 0
-6 -6 4 2115.86 20.93 0
-6 -4 6 16.87 10.72 0
-6 -2 11 796.18 15.84 0
-6 -2 18 910.47 14.93 0
-6 -2 19 21.2 15.73 0
-5 -9 1 0.81 17.79 0
-5 -7 1 409.42 21.56 0
-5 -5 2 1675.01 25.65 0
-5 -4 3 -11.91 15.81 0
-5 -1 9 115.75 13.61 0
-5 -1 19 21.54 12.18 0
-4 -9 -1 1969.23 35.53 0
-4 -8 -1 -1.82 21.42 0
-4 -5 0 515.1 23.13 0
-4 -3 2 84.62 18.13 0
-4 0 9 -1.21 13.55 0
-4 0 19 18.05 16.54 0
-3 1 10 1914.55 21.63 0
-3 1 18 59.09 16.01 0
-2 1 21 -0.46 18.3 0
-1 -9 -5 162.54 36.96 0
-1 2 19 13.28 17.06 0
1 -9 -7 7.13 21.77 0
1 -7 -7 400.58 22.09 0
1 -3 -5 851.65 25.16 0
1 -2 -4 274.68 22.12 0
1 3 8 474.84 22.06 0
3 -11 -8 4.15 24.42 0
4 -10 -9 11.17 17.97 0
4 -4 -8 891.64 17.78 0
4 4 15 -2.98 24.4 0
5 -5 -9 12.15 13.67 0
5 4 16 28.37 26.32 0
6 -9 -10 7.95 16.84 0
6 -8 -10 98.52 16.92 0
6 -7 -10 513.21 16.91 0
6 3 2 213.01 15.51 0
7 -6 -10 15.58 14.03 0
8 -5 -10 356.44 12.21 0
8 4 7 208.3 20.01 0
9 -5 -10 25.8 14.36 0
9 -2 -8 432.61 11 0
10 -5 -10 -1.21 15.11 0
10 -2 -8 866.5 13.19 0
10 3 2 5.92 14.63 0
10 4 10 9.53 21.59 0
11 -5 -10 426.67 16.07 0
11 0 -5 570.93 15.49 0
12 -4 -9 63.47 13.82 0
12 1 -3 17.56 10.78 0
12 3 4 7.42 17.61 0
13 -3 -8 42.26 15.25 0
13 -2 -7 131.5 14.95 0
13 0 -4 5.11 13.97 0
13 1 -2 50.45 15.48 0
14 -1 -5 18.17 16.88 0
14 1 -1 361.76 16.61 0
-8 -9 10 108.93 19.54 0
-8 -8 10 8.65 16.17 0
-8 -7 10 14.06 16.5 0
-8 -6 11 23.25 16.42 0
-8 -6 12 921.51 15.54 0
-8 -5 14 32.84 17.07 0
-8 -5 15 44.31 16.22 0
-8 -5 16 94.68 17.1 0
-8 -5 17 269.67 17.6 0
-7 -10 6 22.55 17.75 0
-7 -7 6 10.07 15.37 0
-7 -4 9 1576.43 20.07 0
-7 -3 12 202.49 14.88 0
-7 -3 13 32.27 13.14 0
-7 -3 14 522.54 12.47 0
-7 -3 16 18.25 10.87 0
-7 -3 17 0.11 14.05 0
-7 -3 18 309.85 17.02 0
-6 -9 3 52.28 18.6 0
-6 -8 3 34.62 16.9 0
-6 -7 3 391.37 18.47 0
-6 -3 7 128.43 14.35 0
-6 -2 10 55.54 10.05 0
-6 -2 20 71.26 17.91 0
-5 -10 1 14.94 22.37 0
-5 -3 4 439.31 17.11 0
-5 -2 6 3717.6 25.39 0
-5 -1 20 35.15 12.32 0
-5 -1 21 19.9 16.81 0
-4 -7 -1 294.47 23.24 0
-4 0 20 323 16.67 0
-3 -11 -2 11.38 30.35 0
-3 -4 -1 108.33 23.29 0
-3 -3 0 547.83 24.03 0
-3 -1 3 143.29 22.22 0
-3 1 9 95.3 14.82 0
-3 1 19 155.45 17.37 0
-2 1 6 58.46 18.86 0
-2 2 12 1.03 14.22 0
-2 2 13 1076.28 18.76 0
-2 2 14 23.97 10.85 0
-2 2 15 464.63 16.72 0
-2 2 16 18.47 15.68 0
0 -7 -6 547.57 27.62 0
0 3 12 56.48 14.58 0
0 3 13 563.09 17.62 0
0 3 14 12.68 14.19 0
0 3 15 294 16.41 0
1 -8 -7 10.97 19.85 0
1 3 18 175.74 17.55 0
3 0 -3 9839.37 52.25 0
4 -9 -9 1454.34 23.37 0
4 -8 -9 92.1 17.91 0
4 -7 -9 305.49 16.62 0
4 -1 -5 1207.43 21.35 0
4 1 -2 459.57 15.71 0
6 -3 -8 12.1 13.24 0
6 -2 -7 13.42 12.95 0
6 -1 -6 48.42 12.63 0
6 1 -3 2584.03 21.38 0
7 -7 -10 118.97 14.49 0
7 -4 -9 1453.14 18.04 0
7 0 -5 2131.7 17.98 0
7 3 2 579.4 18.03 0
7 4 7 14.28 17.57 0
8 -6 -10 120.88 14.19 0
8 0 -5 -4.56 12.4 0
9 0 -5 725.87 14.72 0
9 3 2 1.09 13.86 0
9 4 8 4.83 17.24 0
10 -6 -10 27.43 13.8 0
10 0 -5 -1.17 13.26 0
11 -6 -10 18.39 15.74 0
11 -4 -9 9.3 14.48 0
11 1 -3 180.14 14.28 0
11 3 3 6.29 14.73 0
12 -3 -8 38.21 14.08 0
12 -2 -7 101.82 13.81 0
12 -1 -6 28.22 9.61 0
13 2 1 -6.19 15.29 0
14 -3 -7 572.11 17.77 0
14 -2 -6 163.46 16.64 0
14 0 -3 8.42 16.13 0
-8 -9 9 51.06 19.26 0
-8 -8 9 186.36 17.68 0
-8 -7 9 -1.7 14.95 0
-8 -6 10 130.31 16.26 0
-8 -5 12 21.52 15.54 0
-8 -5 13 144.64 12.32 0
-7 -6 6 9.14 14.84 0
-7 -5 7 35.9 15.28 0
-7 -3 11 103.87 14.51 0
-7 -3 19 -3.01 12.31 0
-6 -10 3 44.05 19.63 0
-6 -5 4 1188.26 20.25 0
-6 -4 5 59.69 15.71 0
-6 -2 9 466.07 15.58 0
-6 -1 14 31.66 13.08 0
-6 -1 15 42.38 14.16 0
-6 -1 16 520.74 16.13 0
-5 -6 1 46.59 17.76 0
-5 -1 8 700.24 17.13 0
-5 0 13 54.46 13.03 0
-5 0 14 -0.5 14.72 0
-5 0 15 816.59 17.27 0
-5 0 16 -15.41 15.38 0
-4 -10 -1 3.58 24.04 0
-4 -1 5 1227.69 22.12 0
-4 0 8 2035.07 21.95 0
-4 0 21 7.85 17.49 0
-3 0 5 1176.12 24.8 0
-3 1 20 74.1 17.65 0
-2 0 3 -7.95 26.16 0
-2 2 11 20.69 14.27 0
-2 2 17 14.26 15.53 0
-1 2 20 5.44 16.57 0
0 -9 -6 7.03 25.16 0
0 2 5 69.18 23.34 0
0 3 11 93.86 14.46 0
0 3 16 57.61 15.87 0
1 3 19 -4.59 18.18 0
2 -5 -7 17.56 15.25 0
3 -6 -8 11.71 14.06 0
3 4 13 1170.49 30.01 0
4 -3 -7 938.31 15.55 0
4 -2 -6 85.07 14.58 0
4 4 16 391.88 28.11 0
5 -6 -9 367.95 15.66 0
5 0 -4 10.41 14.7 0
6 -5 -9 369.9 14.98 0
7 -9 -10 171.36 16.35 0
7 -8 -10 18.56 16.13 0
7 -3 -8 150.28 13.38 0
7 -1 -6 241.53 13.42 0
7 1 -3 18.95 13.16 0
8 -9 -10 96.35 16.73 0
8 -7 -10 1.04 15.34 0
8 -4 -9 300.99 11.1 0
8 1 -3 148.92 14.08 0
8 3 2 6.19 13.28 0
8 4 8 23.04 19.03 0
9 -7 -10 19.66 14.26 0
9 -6 -10 11.01 10.31 0
9 -4 -9 -4.61 12.42 0
9 1 -3 415.25 15.13 0
9 4 9 388.53 22.15 0
10 -7 -10 67.15 15 0
10 -4 -9 1.32 10.81 0
10 -1 -6 316.58 13.42 0
10 1 -3 14.68 9.74 0
10 3 3 38.73 16.05 0
11 -3 -8 152.82 14.26 0
11 -2 -7 92.53 13.72 0
11 -1 -6 239.14 10.51 0
12 -5 -9 9.49 16.45 0
12 0 -4 401.76 14.76 0
12 1 -2 329.95 15.35 0
12 3 5 118.54 17.81 0
13 -4 -8 -4.64 15.34 0
13 -1 -5 61.37 14.59 0
13 1 -1 2.08 14.23 0
13 2 2 28.12 17.38 0
14 -1 -4 17.21 15.04 0
14 1 0 36.94 17.45 0
-8 -9 8 6.77 17.48 0
-8 -8 8 337.73 18.35 0
-8 -6 9 2.01 14.38 0
-8 -5 11 2.81 10.89 0
-8 -4 13 94.5 14.34 0
-8 -4 14 494.87 16.25 0
-8 -4 15 21.28 14.37 0
-8 -4 16 34.47 14.5 0
-8 -4 17 305.68 16.27 0
-8 -4 18 276.63 17.33 0
-7 -9 5 -3.19 18.06 0
-7 -8 5 20.44 14.64 0
-7 -7 5 11.03 15.26 0
-7 -4 8 376.47 12.45 0
-7 -3 10 1464.65 18.58 0
-7 -2 15 556.57 14.92 0
-7 -2 16 -22.88 14.65 0
-7 -2 17 116.11 15.2 0
-6 -6 3 98.08 15.35 0
-6 -3 6 14.79 13.83 0
-6 -1 12 1026.85 16.51 0
-6 -1 13 355.18 11.46 0
-6 -1 17 10.78 10.78 0
-6 -1 18 12.09 15.84 0
-5 0 12 6.77 13.34 0
-5 0 17 104.88 11.53 0
-5 0 18 14.99 15.5 0
-4 -2 3 254.72 14.63 0
-4 1 13 94.99 15.13 0
-4 1 14 9.59 14.37 0
-4 1 15 946.73 18.11 0
-4 1 16 101.24 14.88 0
-4 1 17 4.16 13.78 0
-3 1 8 1063.48 19.97 0
-3 1 21 102.6 18.83 0
-2 -1 1 87.15 25.5 0
-2 2 10 122.21 15.99 0
-2 2 18 -5.51 14.59 0
-1 -8 -5 33.96 29.76 0
-1 2 7 2223.88 29.59 0
0 -8 -6 1504.35 35.52 0
0 3 10 0.2 15.87 0
0 3 17 62.82 15.86 0
2 -11 -7 5.7 22.63 0
2 0 -2 110.81 27.42 0
3 -10 -8 58.35 20.66 0
3 -4 -7 190.16 15.3 0
3 4 12 181.87 22.2 0
3 4 14 178.64 22.83 0
4 -5 -8 499.88 15.82 0
5 -10 -9 18.24 18.14 0
5 -7 -9 14.15 15.75 0
5 -4 -8 2.1 9.74 0
5 2 0 180.68 16.73 0
5 3 3 195.51 16.11 0
5 4 17 -2.04 29.88 0
6 4 8 166.98 22.26 0
7 -5 -9 181.5 14.27 0
7 -2 -7 755.27 12.73 0
8 -8 -10 -6.38 14.88 0
8 -3 -8 5.92 8.82 0
8 -2 -7 274.46 13.44 0
8 -1 -6 284.33 10.54 0
9 -8 -10 172.43 17.92 0
9 -3 -8 15.95 12.16 0
9 -2 -7 5.63 12.54 0
9 -1 -6 453.11 10.95 0
9 4 10 -0.4 19.55 0
9 4 11 76.01 22.4 0
9 4 12 2.41 23.82 0
10 -3 -8 1.4 9.73 0
10 -2 -7 32.95 11.79 0
11 -5 -9 7.31 15.26 0
11 0 -4 7.35 13.13 0
11 1 -2 -1.93 13.46 0
11 3 4 114.81 14.82 0
12 -6 -9 10.9 15.2 0
12 -4 -8 6.59 13.34 0
12 -1 -5 -2.85 13.76 0
12 2 1 12.55 14.1 0
12 3 6 73.84 17.97 0
13 -3 -7 -6.77 11.03 0
13 -2 -6 1.93 10.82 0
13 0 -3 539.8 15.71 0
14 -2 -5 10.35 14.84 0
14 0 -2 84.31 16.64 0
-9 -7 13 29.47 18.59 0
-9 -6 15 355.08 17.62 0
-8 -7 8 104.07 16.14 0
-8 -5 10 398.35 13.05 0
-8 -4 12 142.93 16.01 0
-7 -10 5 259.25 20.62 0
-7 -5 6 202.21 16.56 0
-7 -3 9 38.43 13.17 0
-7 -2 13 13.6 13.79 0
-7 -2 14 23.69 9.93 0
-7 -2 18 31.36 15.46 0
-7 -2 19 362.65 18.21 0
-6 -11 3 225.14 24.57 0
-6 -2 8 1134.04 15 0
-6 -1 11 41.46 13.77 0
-6 -1 19 49.96 12.21 0
-6 -1 20 75.56 17.08 0
-5 -11 1 17.16 23.63 0
-5 -2 5 337.02 12.51 0
-5 -1 7 339.8 15.45 0
-5 0 11 1017.13 16.93 0
-5 0 19 1100.75 15.98 0
-5 0 20 0.64 15.31 0
-4 -6 -1 30.15 18.47 0
-4 0 7 0.7 14.86 0
-4 1 12 11.2 14.52 0
-4 1 18 452.3 17.54 0
-3 -2 1 424.89 20.8 0
-2 2 19 43.26 15.51 0
0 3 18 19.23 16.37 0
1 -5 -6 85.87 18.85 0
3 -9 -8 46.08 17.96 0
3 -7 -8 272.26 15.94 0
3 4 11 200.56 24.16 0
3 4 15 64.05 21.97 0
5 -9 -9 151.36 16.66 0
5 -8 -9 73.31 15.62 0
5 -3 -7 1.91 13.49 0
5 -1 -5 684.28 16.94 0
5 1 -2 1778.96 23.05 0
6 -10 -9 59.12 18.72 0
6 -6 -9 7.08 13.33 0
6 -4 -8 229.19 14.38 0
6 0 -4 4021.47 26.18 0
7 4 8 99.69 18.7 0
8 -5 -9 12.11 13.22 0
8 4 9 4.53 18.64 0
9 -5 -9 16.41 13.02 0
9 3 3 5.58 13.81 0
10 -5 -9 2.2 10.64 0
10 0 -4 14.18 13.21 0
11 -6 -9 96.29 15.47 0
11 -4 -8 202.46 13.28 0
11 2 1 139.12 13.9 0
11 3 5 38.54 16.8 0
12 -3 -7 31.96 13.86 0
12 -2 -6 256.62 14.37 0
12 0 -3 0.96 12.8 0
12 1 -1 221.86 14.4 0
12 2 2 516.23 16.38 0
12 3 7 284.44 19.77 0
13 -1 -4 717.07 17.17 0
13 1 0 232.46 15.2 0
13 2 3 156.24 17.84 0
14 -3 -6 -5.41 11.92 0
14 1 1 14.06 15.65 0
-9 -8 11 217.92 17.47 0
-9 -7 12 27.53 18.38 0
-9 -6 13 0.81 17.47 0
-9 -6 14 -8.25 13.41 0
-8 -9 7 121.34 18.97 0
-8 -8 7 137.34 17.86 0
-8 -6 8 544.06 17.35 0
-8 -5 9 7.91 15.93 0
-8 -4 11 67.44 13.98 0
-8 -3 14 8.83 13.49 0
-8 -3 15 2.41 14.1 0
-8 -3 16 21.77 15.14 0
-8 -3 17 8.99 15.03 0
-8 -3 18 9.94 15.36 0
-7 -8 4 76.94 18.32 0
-7 -6 5 1014.87 16.23 0
-7 -4 7 297.86 12.23 0
-7 -2 11 1230.41 17.21 0
-7 -2 12 98.94 9.96 0
-6 -9 2 26.48 18.27 0
-6 -8 2 136.58 17.66 0
-6 -7 2 43.16 17.77 0
-6 -4 4 92.31 15.81 0
-6 -1 10 64.58 13.78 0
-5 -8 0 -6.39 19.51 0
-5 -4 2 89.32 15.44 0
-5 -3 3 5.35 15.22 0
-5 0 10 -14.52 13.21 0
-5 0 21 38.04 17.46 0
-4 1 11 626.91 16.14 0
-4 1 19 257.09 15.88 0
-4 1 20 24.42 15.51 0
-3 2 14 69.05 14.51 0
-3 2 15 316.66 15.66 0
-3 2 16 163.8 14.25 0
-2 2 9 53.69 16.06 0
-2 2 20 -4.67 15.94 0
-1 3 14 265.22 17.48 0
-1 3 15 74.64 16.42 0
0 1 2 13.42 27.52 0
0 3 19 808.8 21.16 0
1 0 -1 33.62 27.54 0
1 3 7 209.22 22.7 0
2 -6 -7 31.47 16.43 0
3 -8 -8 0.16 14.48 0
3 -3 -6 505.96 18.19 0
3 -1 -4 46.88 13.05 0
3 4 16 87.75 21.01 0
4 4 17 16.26 22.41 0
5 -2 -6 3611.14 25.11 0
6 -9 -9 71.17 17.33 0
6 -7 -9 530.36 17.17 0
6 2 0 203.1 15.11 0
6 3 3 1391.73 22.42 0
7 -6 -9 139.36 13.86 0
7 -4 -8 392.27 14.7 0
7 0 -4 -9.63 12.18 0
7 2 0 175.12 14.58 0
7 3 3 4.12 12.8 0
8 -6 -9 10.49 12.78 0
8 0 -4 667.83 14.53 0
8 3 3 663.9 16.62 0
8 4 14 -1.99 31.68 0
9 -6 -9 770.42 15.9 0
9 0 -4 0.21 11.74 0
10 -6 -9 -0.95 14.35 0
10 -4 -8 690.52 16.36 0
10 1 -2 40.99 9.68 0
10 3 4 96.87 15.28 0
11 -7 -9 103.71 17.22 0
11 -3 -7 51.09 12.69 0
11 -2 -6 -5.13 12.95 0
11 -1 -5 49.35 9.73 0
12 -5 -8 238.34 16.58 0
13 -4 -7 14.89 13.51 0
13 -3 -6 644.53 16.4 0
13 -2 -5 226.19 14.91 0
13 0 -2 15.28 14.85 0
13 2 4 99.83 16.4 0
14 -1 -3 149.53 12.65 0
14 0 -1 -1.72 15.51 0
-9 -8 10 200.28 17.36 0
-9 -7 11 57.66 15.84 0
-9 -6 12 16.04 15.4 0
-9 -5 13 123.66 15.48 0
-9 -5 14 456.03 18.92 0
-9 -5 15 193.97 13.27 0
-9 -5 16 -16.04 12.9 0
-8 -7 7 225.87 13.34 0
-8 -4 10 58.73 13.36 0
-8 -3 13 66.37 12.89 0
-7 -9 4 0.03 17.71 0
-7 -7 4 9.88 15.97 0
-7 -3 8 159.72 13.92 0
-6 -10 2 434.98 24.89 0
-6 -5 3 1301.96 19.89 0
-6 -3 5 140.99 15.52 0
-6 -2 7 13.54 9.83 0
-5 -9 0 630.3 24.28 0
-5 -5 1 98.82 16.62 0
-4 -11 -1 175.76 29.61 0
-4 -1 4 56.83 18.28 0
-4 1 10 0.81 14.17 0
-4 1 21 5.94 16.37 0
-3 -5 -2 387.28 25.3 0
-3 1 7 138.68 16.57 0
-3 2 12 12.3 13.89 0
-3 2 13 1.5 13.18 0
-3 2 17 428.77 16.23 0
-3 2 18 508.94 18.43 0
-2 1 5 349.41 17.74 0
-1 3 12 424.04 17.42 0
-1 3 13 2.7 13.8 0
-1 3 16 691 18.54 0
-1 3 17 32.63 16.8 0
0 3 9 43.54 14.14 0
1 -11 -6 72.21 24.65 0
2 -10 -7 4.69 20.55 0
2 -4 -6 432.84 18.71 0
3 -2 -5 31.07 11.71 0
4 -10 -8 325.25 20.44 0
4 -6 -8 547.12 16.47 0
4 -4 -7 109.96 14.32 0
4 0 -3 -5.66 13.11 0
4 2 1 0.13 15.65 0
4 3 4 229.4 19.68 0
5 -5 -8 309.52 14.33 0
6 -8 -9 158.72 14.93 0
6 -3 -7 115.34 13.21 0
6 -2 -6 249.34 12.98 0
6 -1 -5 1031.29 16.89 0
6 1 -2 0.4 9.36 0
7 -9 -9 28.64 15.16 0
7 -7 -9 61.83 14.89 0
7 1 -2 -1.68 12.48 0
7 4 9 14.24 19.27 0
8 -7 -9 -6.15 13.98 0
8 -4 -8 838.84 13.2 0
8 1 -2 100.89 13.7 0
8 4 10 100.77 21.59 0
9 -7 -9 15.84 15.12 0
9 -4 -8 108.29 9.98 0
9 -1 -5 502.33 13.35 0
9 1 -2 523.14 12.3 0
9 3 4 477.81 17.25 0
10 -8 -9 5.51 17.01 0
10 -7 -9 84.09 14.78 0
10 -3 -7 252.24 13.37 0
10 -2 -6 11.34 12.01 0
10 -1 -5 512.05 11.21 0
10 2 1 103.81 14.17 0
11 -5 -8 155.71 15.3 0
11 0 -3 110.1 14.01 0
11 1 -1 -0.64 13.61 0
11 3 6 36.9 16.02 0
12 -6 -8 311.34 15.91 0
12 -4 -7 121.83 14.44 0
12 -1 -4 -2.82 14.03 0
12 1 0 13.53 12.48 0
12 2 3 10.88 14.3 0
13 -5 -7 50.82 15.26 0
13 1 1 156.89 16.18 0
14 -3 -5 177.79 15.03 0
14 -2 -4 39.35 12.45 0
-9 -7 10 20.03 15.56 0
-9 -6 11 180.68 12.23 0
-9 -5 12 -1.16 16.01 0
-9 -4 15 64.84 14.34 0
-9 -4 16 10.14 15.96 0
-9 -4 17 7.83 16.31 0
-8 -9 6 11.39 16.31 0
-8 -8 6 258.95 18.01 0
-8 -6 7 -1.54 14.55 0
-8 -5 8 270.08 12.7 0
-8 -4 9 324.3 15.66 0
-8 -3 11 64.48 13.73 0
-8 -3 12 55.78 10.32 0
-7 -10 4 23.54 20.07 0
-7 -5 5 123.68 15.45 0
-7 -4 6 263.57 15.77 0
-7 -2 10 30.59 9.6 0
-7 -1 14 17.59 13.24 0
-7 -1 15 258.41 14.41 0
-7 -1 16 11.56 10.94 0
-7 -1 17 236.39 15.48 0
-7 -1 18 47.06 16.38 0
-7 -1 19 0.81 15.32 0
-6 -6 2 -3.5 15.26 0
-6 -1 9 418.07 12.09 0
-6 0 13 15.51 13.25 0
-6 0 14 667.12 15.84 0
-6 0 15 -0.3 10.55 0
-6 0 16 168.43 11.14 0
-6 0 17 -4.39 11.52 0
-6 0 18 0.08 16 0
-6 0 19 0.76 14.63 0
-5 -10 0 207.64 24.99 0
-5 -7 0 128.64 17.33 0
-5 -2 4 293.98 16.56 0
-5 -1 6 1002.47 18.91 0
-5 0 9 1274.2 15.84 0
-5 1 15 340.51 15.16 0
-5 1 16 -1.96 14.92 0
-5 1 17 16.42 13.49 0
-4 -4 0 308.07 19.13 0
-4 -3 1 1119.14 23.04 0
-4 0 6 -12.01 16.21 0
-3 -8 -3 1290.13 46.14 0
-3 0 4 10.86 20.75 0
-3 2 11 71.43 13.56 0
-3 2 19 286.08 17.46 0
-2 2 8 435.49 18.19 0
-1 2 6 271.05 19.19 0
-1 3 18 144.48 16.43 0
0 -5 -5 245.05 22.44 0
0 3 20 14.31 18.45 0
2 4 13 27.23 19.16 0
2 4 14 29.97 18.09 0
2 4 15 85.01 19.15 0
3 -5 -7 125.94 14.84 0
3 4 17 181.61 24.01 0
4 -7 -8 45.23 16.36 0
5 4 9 6.54 23.77 0
6 -5 -8 147.53 14.48 0
7 -8 -9 845.84 17.1 0
7 -3 -7 3.93 9.28 0
7 -2 -6 11.19 11.98 0
7 -1 -5 102.69 9.23 0
8 -9 -9 49.11 15.27 0
8 -8 -9 124.3 16.15 0
8 -3 -7 557.85 13.66 0
8 -2 -6 90.39 12.06 0
8 -1 -5 142.58 9.62 0
8 4 11 -2.13 20.31 0
8 4 12 12.01 24.07 0
8 4 13 1.75 24.98 0
9 -8 -9 3.24 14.55 0
9 -3 -7 16.64 9.52 0
9 -2 -6 97.43 11.99 0
10 -5 -8 417.37 15.4 0
10 0 -3 17.96 13.2 0
10 3 5 655.05 17.91 0
11 -6 -8 35.21 14.08 0
11 -4 -7 147.55 12.8 0
11 -1 -4 15.19 11.95 0
11 2 2 687.4 16.4 0
11 3 7 14.57 17.22 0
12 -3 -6 14.97 12.72 0
12 -2 -5 34.14 9.61 0
12 0 -2 252.34 13.87 0
13 -4 -6 118.3 13.99 0
13 -1 -3 102.99 11.23 0
13 0 -1 8.41 14.58 0
13 2 5 314.93 17.54 0
14 -1 -2 -3.03 11.85 0
14 0 0 21.35 12.17 0
-9 -8 9 -2.13 17 0
-9 -7 9 27.96 17.42 0
-9 -6 10 -5.65 14.74 0
-9 -5 11 184.17 17.28 0
-9 -4 13 -12.65 15.77 0
-9 -4 14 341.71 12.18 0
-8 -7 6 95.97 15.8 0
-8 -5 7 204.06 14.84 0
-8 -2 14 131.92 14.28 0
-8 -2 15 14.94 13.58 0
-8 -2 16 0.96 11.04 0
-8 -2 17 237.19 12.24 0
-8 -2 18 216.75 15.84 0
-8 -2 19 38.94 17.92 0
-7 -6 4 4.25 14.26 0
-7 -3 7 10.27 14.26 0
-7 -2 9 1071.95 17.17 0
-7 -1 12 17.49 12.81 0
-7 -1 13 31.18 10.3 0
-7 -1 20 76.51 15.99 0
-6 -11 2 36.62 24.33 0
-6 -2 6 256.68 14.89 0
-6 0 12 1021.97 16.56 0
-6 0 20 48 17.52 0
-5 1 13 778.37 17.02 0
-5 1 14 273.29 11.57 0
-5 1 18 5.78 14.83 0
-5 1 19 6.42 16.12 0
-4 -2 2 145.84 17.34 0
-4 1 9 129.55 13.31 0
-3 -9 -3 29.15 35.5 0
-3 -1 2 3406.94 37.43 0
-3 2 20 151.47 18.22 0
-1 3 11 -0.78 13.37 0
-1 3 19 6.85 17.21 0
2 -9 -7 228.09 18.47 0
2 -7 -7 21.4 14.85 0
2 -1 -3 1684.66 30.86 0
2 4 12 37.72 19.6 0
2 4 16 5.19 17.91 0
3 -11 -7 11.37 20.9 0
3 4 10 165.33 30.84 0
4 -9 -8 16.83 15.66 0
4 -8 -8 322.36 16.2 0
4 -3 -6 88.79 14.56 0
4 -1 -4 58.7 16.44 0
5 -6 -8 40.05 13.61 0
5 -4 -7 70.96 13.07 0
5 0 -3 -1.43 15.04 0
6 4 9 444.11 25.03 0
7 -5 -8 91.43 13.25 0
8 -5 -8 261.42 14.62 0
8 3 4 6.69 13.12 0
9 -5 -8 40.72 10.39 0
9 0 -3 121.48 12.49 0
9 2 1 686.42 13.27 0
10 -6 -8 104.38 13.62 0
10 1 -1 347.96 11.16 0
11 -7 -8 78.74 14.34 0
11 -3 -6 29.23 12.77 0
11 -2 -5 93.04 12.79 0
11 1 0 133.53 13.1 0
11 3 8 89.68 18.81 0
12 -5 -7 500.48 16.64 0
12 2 4 503.6 17.74 0
13 -3 -5 43.21 13.19 0
13 -2 -4 33.67 10.98 0
14 -3 -4 -7.61 15.99 0
14 -2 -3 113.21 15.2 0
14 0 1 -5.59 14.67 0
-10 -6 14 195.26 17.2 0
-9 -9 8 -0.03 18.04 0
-9 -8 8 190.61 17.08 0
-9 -6 9 875.61 19.07 0
-9 -5 10 13.64 16.42 0
-9 -4 12 -0.33 15.95 0
-9 -3 16 43.41 15.27 0
-9 -3 17 30.08 16.02 0
-9 -3 18 295.34 17.8 0
-8 -6 6 152.07 15.82 0
-8 -4 8 861.18 17.12 0
-8 -3 10 15.33 10.49 0
-8 -2 13 7.07 13.19 0
-7 -9 3 61.94 19.46 0
-7 -8 3 21.78 17.11 0
-7 -1 11 419.74 14.52 0
-6 -4 3 142.3 15.59 0
-6 -1 8 102.42 9.98 0
-6 0 11 -12.91 13.1 0
-5 -6 0 21.46 17.73 0
-5 0 8 -0.81 9.7 0
-5 1 12 918.59 17.73 0
-5 1 20 43.13 16.62 0
-4 2 15 30.55 13.34 0
-4 2 16 473.4 15.36 0
-4 2 17 34.19 14.66 0
-3 2 10 116.45 15.39 0
-2 3 15 1876.28 23.76 0
-2 3 16 0.83 16.15 0
-1 1 3 5.26 24.28 0
-1 3 20 39.23 18.87 0
0 3 8 108.52 17.64 0
1 -6 -6 3.18 16.39 0
2 -8 -7 458.99 17.44 0
2 -3 -5 3863.81 33.41 0
2 4 17 3.71 17.68 0
3 4 18 112.83 23.05 0
4 -2 -5 12.28 14.17 0
5 -10 -8 -6.44 16.84 0
5 -7 -8 42.34 13.39 0
5 2 1 623.36 19.04 0
5 3 4 259.35 17.97 0
6 -6 -8 696.56 15.38 0
6 0 -3 7.87 12.9 0
7 0 -3 1092.14 16.14 0
7 3 4 324.86 14.59 0
7 4 10 223.76 22.41 0
8 0 -3 2.63 11.78 0
8 2 1 962.41 17.28 0
9 -6 -8 149.94 13.95 0
9 -4 -7 14.17 12.71 0
9 1 -1 432.5 14.36 0
9 3 5 15.83 13.51 0
10 -7 -8 73.58 13.91 0
10 -4 -7 30.91 9.49 0
10 -3 -6 199.5 13.19 0
10 -2 -5 33.25 11.29 0
10 -1 -4 202.7 10.05 0
10 2 2 222.2 13.73 0
10 3 6 35.11 14.7 0
11 -5 -7 198.21 14.64 0
11 0 -2 3.06 9.4 0
11 2 3 532.74 16.97 0
11 3 9 13.87 19.44 0
12 -6 -7 25.95 16.41 0
12 -4 -6 58.28 14.1 0
12 -2 -4 232.64 13.18 0
12 -1 -3 24.6 10.11 0
12 0 -1 -18.07 14.03 0
12 1 1 9.95 10.76 0
13 -5 -6 3.94 14.98 0
13 -1 -2 39.12 14 0
13 0 0 9.63 14.89 0
14 -1 -1 350.18 13.08 0
-10 -7 12 24.3 18.92 0
-10 -6 13 7.09 17.54 0
-10 -5 15 77.82 18.63 0
-9 -7 8 10.28 15.34 0
-9 -4 11 356.42 16.72 0
-9 -3 14 -4.99 14.81 0
-9 -3 15 -8.59 11.09 0
-8 -9 5 -3.55 18.15 0
-8 -8 5 183.39 18.12 0
-8 -7 5 279.47 16.22 0
-8 -3 9 86.38 14.15 0
-8 -2 12 136.26 10.2 0
-7 -10 3 2.82 19.56 0
-7 -7 3 116.62 16.71 0
-7 -5 4 -0.63 14.81 0
-7 -4 5 545.47 13.65 0
-7 -3 6 796.41 17.94 0
-7 -2 8 -3.96 9.5 0
-6 -9 1 95.82 20.81 0
-6 -8 1 79.98 17.52 0
-6 -5 2 42.75 14.24 0
-6 -3 4 5.19 10.71 0
-5 -1 5 637.25 18.08 0
-5 1 11 213.99 15.14 0
-4 -5 -1 304.29 21.24 0
-4 1 8 1210.89 18.92 0
-4 2 13 6.15 13.85 0
-4 2 14 372.88 15.02 0
-4 2 18 90.85 15.75 0
-4 2 19 164.78 15.72 0
-3 1 6 1790.02 21.95 0
-2 3 13 407.43 15.13 0
-2 3 14 27.05 14.46 0
-2 3 17 11.36 15.74 0
-2 3 18 36.16 14.91 0
-1 0 1 23.71 19.98 0
-1 3 10 2430.07 26.38 0
0 -11 -5 4.93 25.54 0
1 -4 -5 56.4 19.52 0
1 1 1 11.36 35.51 0
2 -2 -4 62.08 17.7 0
3 -6 -7 54.22 13.64 0
3 0 -2 2.84 20.82 0
4 -5 -7 43.19 12.96 0
5 -9 -8 101.47 15.06 0
5 -8 -8 155.37 14.84 0
5 -3 -6 862.51 15.56 0
5 -1 -4 7.88 13.75 0
6 -10 -8 50.02 17.23 0
6 -7 -8 4.31 12.25 0
6 -4 -7 35.58 9.6 0
6 2 1 0.07 13.98 0
6 3 4 11.97 12.35 0
7 -10 -8 106.31 17.85 0
7 -6 -8 9.52 9.8 0
7 -4 -7 326.49 13.86 0
7 2 1 55.24 9.86 0
7 4 15 1.07 33.09 0
8 -6 -8 485.44 12.06 0
8 -4 -7 510.86 13.65 0
8 1 -1 155.39 13.38 0
9 -8 -8 152.77 14.47 0
9 -7 -8 19.85 14.29 0
9 -3 -6 76.48 12.57 0
9 -1 -4 23.11 11.16 0
10 -8 -8 104.76 14.64 0
10 -5 -7 67.87 13.19 0
10 0 -2 47.57 13.28 0
10 1 0 53.89 13.19 0
10 3 7 41.94 15.64 0
11 -1 -3 188.89 13.53 0
12 -3 -5 824.08 12.49 0
12 2 5 11.3 14.74 0
13 -4 -5 192.75 15.37 0
13 -3 -4 119.85 14.6 0
13 -2 -3 160.55 14.49 0
13 1 3 -2.07 13.77 0
14 -3 -3 32.42 16.61 0
14 -2 -2 49.8 15.37 0
14 -1 0 53.81 14.58 0
14 0 2 80.58 16.58 0
-10 -7 11 67.84 17.99 0
-10 -6 12 363.69 16.78 0
-10 -5 13 6.28 17.58 0
-10 -5 14 4.75 13.49 0
-10 -4 16 35.63 15.35 0
-9 -9 7 10.61 20.05 0
-9 -8 7 48.51 16.29 0
-9 -6 8 171.22 16.04 0
-9 -5 9 30.46 11.59 0
-9 -4 10 90.94 15.33 0
-9 -3 12 261.45 14.65 0
-9 -3 13 98.44 10.49 0
-8 -10 5 199.49 21.15 0
-8 -5 6 204.92 15.24 0
-8 -4 7 493.56 16.74 0
-8 -2 11 197.25 10.43 0
-8 -1 15 138.33 14.44 0
-8 -1 16 479.18 16.42 0
-8 -1 17 459.17 15.97 0
-8 -1 18 10.05 15.72 0
-8 -1 19 155.17 18.09 0
-7 -6 3 167.02 15.31 0
-7 -1 10 9.29 9.77 0
-7 0 14 12.32 13.72 0
-7 0 15 831.4 17.41 0
-7 0 16 10.2 11.31 0
-7 0 17 135.08 11.85 0
-7 0 18 15.14 14.57 0
-7 0 19 55.24 16.18 0
-7 0 20 -2.98 16.28 0
-6 -10 1 82.14 25.42 0
-6 -7 1 353.73 18.1 0
-6 -2 5 539.73 15.75 0
-6 -1 7 25.18 13.61 0
-6 0 10 33.75 9.56 0
-6 1 16 503.26 15.71 0
-6 1 17 13.24 13.72 0
-6 1 18 14.55 13.82 0
-5 -11 0 9.99 26.49 0
-5 -4 1 288.96 17.6 0
-5 -3 2 255.31 16.8 0
-5 0 7 349.18 15.29 0
-4 -8 -2 11.1 25.02 0
-4 0 5 -6.78 16.57 0
-4 2 12 309.7 15.92 0
-4 2 20 -8.64 16.87 0
-3 -7 -3 262.34 33.33 0
-3 2 9 204.32 15.91 0
-2 2 7 741.14 20.53 0
-2 3 12 1.51 12.73 0
-2 3 19 192.45 17.12 0
1 -10 -6 41.47 20.13 0
1 4 14 164.78 18.04 0
1 4 15 7.49 15.8 0
1 4 16 142.44 17.68 0
2 -5 -6 144.48 17.64 0
2 4 11 972.82 27.98 0
2 4 18 -0.64 19.52 0
3 -10 -7 17.12 16.56 0
3 -4 -6 577.91 17.45 0
3 2 2 -3.88 19.94 0
3 3 5 154.31 25.5 0
4 -11 -7 -4.04 18.46 0
5 -2 -5 319.23 14.2 0
6 -9 -8 4.18 13.96 0
6 -8 -8 59.54 14.46 0
6 -3 -6 5.67 11.81 0
6 -1 -4 390.29 14.14 0
6 1 -1 1275.85 15.97 0
6 4 10 658.93 27.9 0
7 -9 -8 14.34 15.4 0
7 -8 -8 41.4 14.41 0
7 -7 -8 4.72 12.86 0
7 -3 -6 778.71 14.96 0
7 -1 -4 119.28 12.59 0
7 1 -1 485.55 12.05 0
7 4 11 166.26 21.68 0
8 -9 -8 6.71 16.04 0
8 -8 -8 274.17 15.42 0
8 -7 -8 101.77 10.22 0
8 -3 -6 19.98 11.46 0
8 -2 -5 459.23 13.62 0
8 -1 -4 250.51 10.2 0
8 3 5 179.24 13.87 0
9 -5 -7 234.14 12.78 0
9 -2 -5 961.29 12.76 0
9 2 2 199.03 13.39 0
9 3 6 413.28 17.54 0
10 2 3 85.56 13.6 0
11 -7 -7 61.97 14.02 0
11 -6 -7 26.99 11.14 0
11 -4 -6 17.71 9.82 0
11 -3 -5 14.22 12.82 0
11 -2 -4 0.84 12.01 0
11 0 -1 1275.37 17.91 0
11 2 4 440.06 15.9 0
12 -5 -6 4.26 13.44 0
12 -1 -2 292.88 14.65 0
12 0 0 1000.04 16.05 0
12 2 6 184.08 17.09 0
13 -1 -1 -10.69 14.61 0
13 0 1 954.38 17.99 0
13 1 4 2.8 17.04 0
-10 -7 10 90.5 18.33 0
-10 -6 11 -11.68 17.05 0
-10 -5 12 31.94 17.95 0
-10 -4 14 41.58 15.37 0
-10 -4 15 1.73 15.77 0
-9 -7 7 274.84 17.56 0
-9 -5 8 55.86 14.83 0
-9 -2 15 364.63 16.26 0
-9 -2 16 42.55 15.07 0
-9 -2 17 29.13 14.69 0
-9 -2 18 9.22 15.19 0
-8 -6 5 100.11 14.86 0
-8 -3 8 -2.04 13.46 0
-8 -2 10 86.14 14.25 0
-8 -1 13 393.79 14.31 0
-8 -1 14 5.25 9.61 0
-7 -2 7 762.58 16.63 0
-7 -1 9 6.63 12.79 0
-7 0 13 9.99 14.15 0
-6 0 9 7.62 13.37 0
-6 1 14 31.86 14.51 0
-6 1 15 41 10.95 0
-6 1 19 40 15.07 0
-6 1 20 98.74 17.56 0
-5 -2 3 107.29 16.07 0
-5 1 10 372.7 11.87 0
-4 -9 -2 118.19 25.96 0
-4 -1 3 1616.65 22.45 0
-2 0 2 104.9 19.89 0
-2 1 4 815.72 25.91 0
-2 3 20 11.52 17.81 0
-1 3 9 183.46 17.9 0
1 -7 -6 77.06 17.9 0
1 4 13 829.33 21.83 0
1 4 17 459.12 21.11 0
2 4 19 -6.6 24.17 0
3 -9 -7 8.3 17.57 0
3 -7 -7 521.67 16.49 0
5 -5 -7 1253.2 15.83 0
6 -5 -7 8.1 13.34 0
6 -2 -5 526.45 11.63 0
7 -5 -7 49.84 12.01 0
7 -2 -5 667.76 11.8 0
7 4 12 27.5 23.26 0
8 -5 -7 188.99 13.69 0
8 2 2 236.21 13.92 0
9 0 -2 1.92 9.16 0
9 1 0 54.14 13.13 0
10 -6 -7 12.64 13.14 0
10 -4 -6 53.6 11.81 0
10 -1 -3 3.42 12.27 0
10 3 8 48.51 14.93 0
11 -5 -6 30.16 13.03 0
12 -6 -6 22.73 15.62 0
12 -4 -5 36.68 12.74 0
12 -3 -4 144.46 13.5 0
12 -2 -3 62.42 13.45 0
12 2 7 40.53 17.8 0
13 -5 -5 6.38 11.02 0
13 -4 -4 -1 13.17 0
13 -2 -2 39.87 15.2 0
14 -3 -2 -11.98 14.95 0
14 -2 -1 466.9 16.26 0
14 -1 1 14.31 16.71 0
-10 -8 9 0.54 17.39 0
-10 -6 10 20.14 16.93 0
-10 -5 11 70.97 16.66 0
-10 -4 13 93 17.45 0
-10 -3 17 548.1 16.95 0
-9 -6 7 927.64 19.16 0
-9 -4 9 -0.53 14.31 0
-9 -3 11 23.96 10.8 0
-9 -2 14 560.89 14.91 0
-8 -9 4 8.05 21.56 0
-8 -8 4 400.29 18.54 0
-8 -4 6 124.72 15.03 0
-8 -1 12 120.36 13.82 0
-7 -4 4 -0.83 14.95 0
-7 -3 5 33.45 14.99 0
-7 0 12 4.26 13.39 0
-6 -6 1 53.56 15.73 0
-6 1 13 347.52 14.69 0
-5 -5 0 20.98 18.01 0
-5 2 15 451.31 15.01 0
-5 2 16 76 14.3 0
-5 2 17 76.67 16.08 0
-5 2 18 164.34 16.49 0
-4 -7 -2 46.72 20.97 0
-4 1 7 175.5 15.11 0
-4 2 11 24.11 10.09 0
-3 3 15 24 14.02 0
-3 3 16 418.86 16.73 0
-3 3 17 19.38 15.05 0
-3 3 18 216.74 18.09 0
-2 3 11 175.26 14.83 0
1 -9 -6 1630.41 27.94 0
1 -8 -6 38.62 16.09 0
1 4 12 75.75 17.57 0
1 4 18 49.84 19.89 0
2 -11 -6 14.45 20.79 0
3 -8 -7 314.96 15.87 0
3 -3 -5 7.95 14.64 0
4 -10 -7 104.17 16.37 0
4 -6 -7 2.8 12.31 0
4 -4 -6 22.44 13.28 0
4 0 -2 761 21.51 0
7 3 5 6.4 12.39 0
7 4 13 93.76 24.28 0
7 4 14 -1.98 26.38 0
8 0 -2 715.65 14.94 0
9 -6 -7 830.79 16.7 0
9 -4 -6 78.47 12.26 0
9 -1 -3 416.57 12.63 0
9 2 3 40.95 12.21 0
9 3 7 12.31 15.99 0
10 -8 -7 5.39 15.49 0
10 -7 -7 30 13.69 0
10 -3 -5 327.16 10.2 0
10 -2 -4 1464.98 14.23 0
10 0 -1 -3.62 12.65 0
10 3 9 27.21 16.34 0
11 -1 -2 5.03 12.92 0
11 2 5 187.36 14.26 0
12 -1 -1 215.33 13.53 0
12 2 8 270.64 19.16 0
13 -3 -3 -1.6 10.05 0
13 -1 0 212.61 15.35 0
13 0 2 -2.27 15.25 0
13 1 5 130.89 15.79 0
-10 -7 9 80.91 16.33 0
-10 -4 12 844.71 18.87 0
-10 -3 15 191.2 16.09 0
-10 -3 16 -4.14 11.98 0
-9 -9 6 127.34 20.29 0
-9 -8 6 67.8 18.13 0
-9 -7 6 63.32 17.22 0
-9 -3 10 322.42 15.65 0
-9 -2 12 -3.95 12.78 0
-9 -2 13 -12.36 10.56 0
-8 -10 4 8.31 21.63 0
-8 -7 4 290.94 15.88 0
-8 -5 5 327.5 15.45 0
-8 -3 7 581.28 16.18 0
-8 -2 9 667.06 12.5 0
-8 -1 11 17.03 13.01 0
-7 -9 2 1726.77 27.38 0
-7 -8 2 149.88 18.81 0
-7 -7 2 99.68 18.29 0
-7 -5 3 40.73 14.41 0
-7 -1 8 129.01 13.68 0
-7 0 11 41.34 12.73 0
-6 -11 1 10.08 26.24 0
-6 -4 2 489.63 17.54 0
-6 -3 3 2.08 15.32 0
-6 -1 6 47.89 10.07 0
-6 0 8 1143.51 17.25 0
-6 1 12 1001.69 16.57 0
-5 -8 -1 97.9 21.88 0
-5 0 6 18.76 14.3 0
-5 1 9 90.21 9.79 0
-5 2 14 345.4 15.28 0
-5 2 19 75.17 15.43 0
-5 2 20 65.92 17.09 0
-4 2 10 96.03 13.79 0
-3 0 3 9999.99 50.63 0
-3 1 5 457.83 19.74 0
-3 2 8 61.3 15.14 0
-3 3 14 36.22 14.94 0
-3 3 19 34.33 16.93 0
-1 -5 -4 55.56 25.2 0
-1 2 5 336.13 19.72 0
0 2 4 931.61 31.57 0
0 4 14 232.65 17.28 0
0 4 15 46.28 16.43 0
0 4 16 124.21 17.63 0
0 4 17 44.97 18.23 0
1 4 19 74.01 20.68 0
3 -2 -4 85.9 16.4 0
3 -1 -3 140.8 15.28 0
4 -9 -7 54.49 14.55 0
4 -7 -7 23.63 13.04 0
5 -10 -7 11.34 16.11 0
5 -6 -7 94.7 13.44 0
5 -4 -6 1761.7 18.89 0
5 0 -2 7.35 14.99 0
5 4 10 2.78 22.58 0
6 -6 -7 14.5 12.58 0
6 0 -2 258.82 13.43 0
7 -10 -7 395.08 19.44 0
7 -6 -7 77.69 13.11 0
7 0 -2 8.58 11.78 0
7 2 2 111.18 13.41 0
8 -6 -7 17.62 12.53 0
8 -4 -6 112.61 11.96 0
8 3 6 25.24 12.66 0
9 -9 -7 3.98 16.99 0
9 -8 -7 35.48 14.64 0
9 -7 -7 232.38 13.43 0
9 -3 -5 92.25 12.29 0
9 -2 -4 43.72 12.01 0
10 -5 -6 273.74 12.84 0
10 2 4 188.73 13.23 0
10 3 10 9.84 18.15 0
11 -7 -6 86.93 13.82 0
11 -6 -6 65.24 11.09 0
11 -4 -5 293.14 10.47 0
11 -3 -4 1103.83 15.82 0
11 -2 -3 100.45 12.29 0
11 0 0 16.65 12.37 0
11 2 6 3.11 13.76 0
12 -5 -5 2.32 9.85 0
12 -4 -4 163.06 12.96 0
12 -2 -2 145.94 13.1 0
12 0 1 11.54 9.9 0
12 1 4 177.73 14.16 0
13 -5 -4 329.13 15.75 0
13 -2 -1 208.44 15.03 0
13 1 6 327.85 18.52 0
14 -3 -1 152.11 15.58 0
14 -2 0 81.09 12.51 0
14 -1 2 19.76 15.24 0
-10 -8 8 153.65 19.02 0
-10 -6 9 -24.26 15.58 0
-10 -5 10 21.43 12.05 0
-10 -4 11 55.54 15.95 0
-10 -3 13 919.7 17.74 0
-10 -3 14 26.63 11.34 0
-9 -6 6 4.97 16 0
-9 -5 7 215.04 12.67 0
-9 -4 8 113.26 12.11 0
-9 -1 15 524.08 15.36 0
-9 -1 16 22.91 15.41 0
-9 -1 17 169.08 14.83 0
-9 -1 18 25.81 16.16 0
-8 -6 4 61.08 16.39 0
-8 0 15 11.77 15.52 0
-8 0 16 119.12 14.66 0
-8 0 17 -1.77 12.04 0
-8 0 18 247 13.03 0
-8 0 19 6.82 12.91 0
-7 -10 2 9.8 22.52 0
-7 -2 6 25.35 9.8 0
-7 1 16 29.35 15.29 0
-7 1 17 219.85 15.74 0
-7 1 18 23.56 15.24 0
-7 1 19 -10.15 16.71 0
-6 -2 4 436.12 15.92 0
-6 1 11 28.5 12.97 0
-5 -9 -1 116.96 23.62 0
-5 -1 4 27.56 11.23 0
-5 2 13 12.11 13.23 0
-3 -3 -1 244.98 20.53 0
-3 -2 0 13.62 16.11 0
-3 3 13 8.77 13.15 0
-3 3 20 19.78 17.74 0
-2 -2 -1 256.22 26.69 0
-2 3 10 135.39 15.03 0
0 -6 -5 5.57 18.55 0
0 3 7 616.7 22.23 0
0 4 13 223.92 17.54 0
0 4 18 37.63 19.76 0
1 -3 -4 -4.64 16.54 0
1 -1 -2 851.5 31.55 0
2 -10 -6 295.71 19.51 0
2 -6 -6 172.49 16.59 0
3 -11 -6 276.06 20.45 0
3 -5 -6 1300.35 19.87 0
4 -8 -7 56.64 14.44 0
4 -3 -5 1726.58 19.87 0
4 2 2 1140.53 23.48 0
5 -9 -7 40.9 13.66 0
5 -7 -7 242.52 14.02 0
5 2 2 240.53 15.35 0
6 -10 -7 2.57 14.66 0
6 -7 -7 1.22 11.5 0
6 -4 -6 7.42 12.01 0
6 2 2 111.04 13.95 0
6 3 5 135.85 12.92 0
6 4 11 33.65 20.85 0
7 -9 -7 59.4 14.69 0
7 -7 -7 0.63 12.87 0
7 -4 -6 258.4 10.31 0
8 -9 -7 111.11 16.11 0
8 -8 -7 133.33 14.69 0
8 -7 -7 185.35 12.77 0
8 -3 -5 119.38 11.66 0
8 -2 -4 383.9 13.1 0
8 -1 -3 160.09 9.36 0
9 -5 -6 104.58 12.55 0
9 0 -1 1205.18 16.24 0
9 3 8 648.02 19.47 0
10 -6 -6 158.91 14.35 0
10 -4 -5 20.29 11.99 0
10 -1 -2 44.56 12.18 0
10 3 11 26.51 19.67 0
11 -5 -5 13.01 12.24 0
12 -6 -5 13.84 10.91 0
12 -3 -3 46.47 12.46 0
13 -4 -3 33.55 10.7 0
13 -3 -2 28.19 13.28 0
13 -1 1 138.62 15.12 0
13 0 3 171.24 12.13 0
14 -2 1 20.74 14.54 0
-11 -5 13 118.89 18.26 0
-10 -7 8 110.19 16.17 0
-10 -5 9 -8.86 15.83 0
-10 -3 12 2.37 15.2 0
-10 -2 16 53.88 15.77 0
-10 -2 17 9.69 14.89 0
-9 -3 9 -4.06 10.04 0
-9 -2 11 1151.01 14.4 0
-9 -1 14 356.65 15.11 0
-8 -4 5 607.45 17.65 0
-8 -2 8 542.26 12.14 0
-8 -1 10 14.85 13.77 0
-8 0 14 255.45 11.42 0
-7 -6 2 30.12 15.16 0
-7 0 10 -1.85 9.38 0
-7 1 14 24.68 14.16 0
-7 1 15 258.51 11.64 0
-7 1 20 78.66 13.27 0
-6 -5 1 326.26 16.06 0
-5 -7 -1 486.24 22.21 0
-5 1 8 706.49 16.2 0
-5 2 12 20.31 14.45 0
-4 -10 -2 10.87 31.75 0
-4 -3 0 384.09 19.02 0
-4 -2 1 1516.54 23.9 0
-4 0 4 1642.17 24.04 0
-3 3 12 1326.75 19.46 0
-2 2 6 895.46 21.42 0
-1 -11 -4 56.78 28.76 0
-1 3 8 66.18 18.09 0
0 -10 -5 20.53 21.19 0
0 4 19 222.35 21.14 0
1 4 11 500.79 20.57 0
2 -4 -5 753.54 19.39 0
2 4 10 616.32 28.13 0
4 -2 -4 555.24 17.04 0
4 -1 -3 1603.72 19.89 0
4 3 5 67.74 15.89 0
5 -8 -7 16.32 12.31 0
5 -3 -5 9.94 11.7 0
5 3 5 -0.01 13.96 0
6 -9 -7 -4.55 13.86 0
6 -8 -7 12.9 14.15 0
6 -3 -5 144.7 12.26 0
6 -1 -3 2656.49 21.44 0
7 -8 -7 174.17 13.43 0
7 -3 -5 30.72 11.39 0
7 -2 -4 32.14 11.43 0
7 -1 -3 19.91 8.41 0
8 -5 -6 175.68 13.54 0
8 2 3 558.76 14.85 0
9 2 4 18.15 13.25 0
10 -8 -6 -6.14 15.64 0
10 -7 -6 5.29 13.94 0
10 -3 -4 2.7 10.99 0
10 -2 -3 17.2 11.11 0
10 0 0 904.06 15.76 0
10 2 5 22.5 13.52 0
11 -4 -4 49.68 11.88 0
11 -1 -1 5.57 9.2 0
11 0 1 770.41 15.99 0
11 2 7 4.28 15.42 0
12 -5 -4 63.05 13.99 0
12 -1 0 1.9 9.94 0
12 0 2 17.29 12.55 0
12 1 5 64.4 15.96 0
13 -5 -3 177.87 15.09 0
13 -2 0 15.22 13.87 0
-11 -6 11 246.27 19.16 0
-11 -5 12 4.87 17 0
-11 -4 14 8.8 16.17 0
-10 -8 7 -4.2 16.89 0
-10 -6 8 80.13 13.39 0
-10 -4 10 41.01 11.14 0
-10 -2 14 68.13 15.13 0
-10 -2 15 128.12 11.83 0
-9 -9 5 11.54 18.77 0
-9 -8 5 245.84 17.28 0
-9 -7 5 470.38 18.73 0
-9 -5 6 121.25 15.87 0
-9 -4 7 21.39 15.93 0
-9 -3 8 27.74 13.94 0
-9 -2 10 445.98 15.62 0
-9 -1 13 108.09 13.98 0
-8 -9 3 107.08 20.44 0
-8 -8 3 7.02 17.95 0
-8 -7 3 44.89 17.36 0
-8 -5 4 333.02 16.41 0
-8 -3 6 17.01 10.58 0
-8 0 13 -5.6 10.3 0
-7 -4 3 80.42 14.84 0
-7 -3 4 109.51 15.81 0
-7 -1 7 6.99 12.35 0
-7 1 13 29.5 14.77 0
-6 -9 0 78.94 20.48 0
-6 -8 0 222.84 19.92 0
-6 -1 5 1026.75 17.96 0
-6 0 7 -9.15 13.47 0
-6 1 10 83.6 10.39 0
-6 2 15 3.88 13.47 0
-6 2 16 68.12 14.42 0
-6 2 17 135.73 14.84 0
-6 2 18 860.34 18.02 0
-6 2 19 20.95 16.07 0
-6 2 20 103.14 17.66 0
-5 -10 -1 84.44 26.74 0
-5 -3 1 332.78 17.74 0
-5 2 11 -5.4 14.24 0
-4 1 6 18.76 10.95 0
-4 2 9 224.95 11.39 0
-4 3 15 7.09 14.59 0
-4 3 16 10.32 14.26 0
-4 3 17 190.63 14.92 0
-4 3 18 15.93 14.64 0
-4 3 19 12.9 16.5 0
-4 3 20 30.66 18.28 0
-2 -3 -2 758.68 37.28 0
-1 4 15 209.17 15.04 0
-1 4 16 3.53 14.4 0
-1 4 17 124.36 16 0
-1 4 18 58.21 17.01 0
0 -4 -4 793.66 27.93 0
0 4 12 997.1 22.79 0
1 -2 -3 5547.84 48.67 0
1 3 6 145.79 22.37 0
2 -9 -6 267.2 17.45 0
2 -7 -6 298.31 17.56 0
2 0 -1 4.75 24.65 0
4 -11 -6 11.62 17.01 0
4 -5 -6 514.5 15 0
5 -2 -4 285.31 14.05 0
5 -1 -3 38.27 9.94 0
6 -2 -4 418.27 13.66 0
7 -5 -6 190.77 13.03 0
7 3 6 70.21 12.83 0
8 0 -1 -9.67 11.51 0
8 3 7 778.84 17.35 0
9 -9 -6 96.71 14.35 0
9 -7 -6 46.3 12.54 0
9 -6 -6 -2.06 9.99 0
9 -4 -5 405.44 10.66 0
9 -1 -2 514.99 12.8 0
9 3 9 67.12 16.95 0
10 -5 -5 271.13 14.03 0
11 -7 -5 7.15 13.63 0
11 -6 -5 234.13 11.72 0
11 -3 -3 31.92 11.78 0
11 -2 -2 285.02 10.39 0
11 1 4 1.35 13.18 0
11 2 8 6.79 16.53 0
12 -6 -4 79.67 15.3 0
12 -4 -3 1.43 13.4 0
12 -3 -2 -6.73 12.71 0
12 -2 -1 387.59 13.95 0
12 1 6 146.97 17.09 0
13 -4 -2 -1.56 14.16 0
13 -3 -1 0.46 15.26 0
13 -1 2 235.88 15.64 0
-11 -6 10 8.3 15.98 0
-11 -5 11 22.42 16.72 0
-11 -4 13 15.31 16.3 0
-11 -3 15 26.79 15.91 0
-10 -7 7 46.72 18.62 0
-10 -5 8 465.45 17.27 0
-10 -4 9 11.17 16.02 0
-10 -3 11 662.54 13.42 0
-10 -2 13 39.23 14.68 0
-9 -6 5 936.98 20.27 0
-9 -1 12 6.35 13.71 0
-9 0 17 39.29 15.54 0
-9 0 18 6.76 17.54 0
-8 -10 3 42.87 22 0
-8 -2 7 280.39 14.3 0
-8 -1 9 4.2 9.31 0
-8 0 12 2016.16 16.86 0
-7 -2 5 683.36 16.57 0
-7 0 9 204.92 10.58 0
-7 1 12 22.09 14.16 0
-6 -7 0 150.84 16.33 0
-6 2 14 66.41 15.11 0
-5 -6 -1 5.47 17.46 0
-5 -2 2 90.29 15.41 0
-5 0 5 1225.86 19.81 0
-4 -6 -2 127.96 21.35 0
-4 -4 -1 98.89 18.97 0
-4 -1 2 470.24 20.24 0
-4 3 14 13.61 12.91 0
-3 -1 1 539.9 18.85 0
-3 2 7 358.11 13.41 0
-3 3 11 56.33 9.67 0
-2 3 9 51.95 14.25 0
-1 4 14 216.88 15.13 0
-1 4 19 21.72 16.49 0
1 -11 -5 100.63 20.53 0
1 -5 -5 384.84 17.46 0
2 -8 -6 105.81 14.29 0
3 -10 -6 129.14 18.11 0
3 -6 -6 25.41 12.72 0
5 -11 -6 133.2 17.38 0
5 -5 -6 706.69 12.69 0
6 -5 -6 109.18 9.6 0
6 4 12 65.48 22.39 0
7 0 -1 149.19 12.01 0
7 2 3 143.48 13.09 0
8 -6 -6 160.39 12.95 0
8 -4 -5 586.1 13.09 0
9 -8 -6 63.38 13.61 0
9 -3 -4 6.05 8.16 0
9 -2 -3 486.36 10.45 0
9 0 0 0.74 11.42 0
10 -6 -5 9.16 12.34 0
10 -4 -4 507 12.72 0
10 -1 -1 353.19 14.03 0
10 1 3 33.76 12.42 0
10 2 6 358.23 15.43 0
11 -5 -4 10.22 12.51 0
11 -1 0 140.94 13.63 0
11 2 9 39.35 17.47 0
12 -1 1 24.87 13.35 0
12 0 3 -7.68 13.18 0
13 -2 1 5.21 13.57 0
-11 -7 9 97.22 19.55 0
-11 -4 12 -9.48 16.02 0
-11 -3 14 189.22 17.29 0
-10 -6 7 38.23 15.23 0
-10 -3 10 -8.06 15.65 0
-10 -2 12 577.07 15.82 0
-10 -1 16 40.08 15.74 0
-10 -1 17 114.97 15.53 0
-9 -4 6 74.64 13.95 0
-9 -2 9 86.42 13.57 0
-9 -1 11 26.1 13.25 0
-9 0 15 487.05 16.43 0
-9 0 16 15.91 12.12 0
-8 -6 3 30.83 15.95 0
-8 0 11 9.18 13.3 0
-8 1 16 490.17 17.29 0
-8 1 17 432.81 15.84 0
-8 1 18 8.47 11.93 0
-8 1 19 114.95 16.22 0
-7 -8 1 60.29 19.45 0
-7 -5 2 6.34 13.24 0
-6 -10 0 35.84 23.25 0
-6 -3 2 170.85 15.56 0
-6 1 9 397.53 11.04 0
-6 2 13 6.37 13.92 0
-5 -4 0 158.1 16.55 0
-5 1 7 310.85 14.35 0
-5 2 10 28.34 13.82 0
-4 2 8 1562.78 19.85 0
-4 3 13 521.17 15.55 0
-3 -4 -2 309.11 24.71 0
-2 -1 0 10.85 19.98 0
-2 4 16 28.9 17.14 0
-2 4 17 102.91 16.81 0
-1 4 13 19.77 13.56 0
0 -9 -5 82.3 20.71 0
0 -7 -5 166.87 17.9 0
3 -9 -6 391.76 18.12 0
3 -4 -5 435 16.26 0
4 -10 -6 -1.74 14.76 0
4 -6 -6 -0.41 12.79 0
4 4 10 838.96 39.88 0
5 -10 -6 501.81 18.14 0
6 -10 -6 182.24 15.15 0
6 -6 -6 538.75 14.48 0
6 3 6 6.79 14.12 0
7 -10 -6 30.43 14.86 0
7 -6 -6 6.47 11.46 0
7 -4 -5 531.4 12.92 0
8 -9 -6 -7.2 13.67 0
8 -8 -6 213.3 14.69 0
8 -7 -6 73.75 9.82 0
8 -3 -4 110.46 11.63 0
8 -2 -3 145.56 11.96 0
8 -1 -2 114.37 8.38 0
8 2 4 -8.29 12.44 0
8 3 8 112.33 14.82 0
9 -5 -5 409.28 10.75 0
9 2 5 990.99 17.91 0
9 3 10 456.81 17.89 0
10 -8 -5 40.62 13.74 0
10 -7 -5 50.3 14.68 0
10 -3 -3 486.05 12.78 0
10 -2 -2 702.94 14.14 0
10 0 1 -8.46 12.44 0
11 -6 -4 57.02 13.49 0
11 -4 -3 36.42 12.83 0
11 -2 -1 270.09 12.41 0
11 0 2 5.93 9.61 0
11 1 5 163.73 14.29 0
11 2 10 118.3 18.28 0
12 -5 -3 76.42 10.42 0
12 -4 -2 57.78 12.43 0
12 -2 0 -1.05 14.02 0
12 1 7 51.39 16.32 0
13 -5 -2 48.79 11.02 0
13 -4 -1 91.22 15.03 0
13 -3 0 27.51 15.01 0
13 -1 3 17.23 11.14 0
13 0 6 0.27 16.02 0
-11 -6 9 105.82 18.11 0
-11 -5 10 446.49 16.69 0
-11 -4 11 102.24 17.01 0
-11 -3 13 -16.5 15.18 0
-11 -2 16 2.85 16.38 0
-10 -8 6 -8.91 18.57 0
-10 -7 6 13.09 15.9 0
-10 -5 7 68.37 15.37 0
-10 -4 8 770.43 17.97 0
-10 -2 11 26.33 13.6 0
-10 -1 14 0.54 14.33 0
-10 -1 15 140.72 10.95 0
-9 -9 4 2.15 19.93 0
-9 -8 4 4.25 17.81 0
-9 -7 4 3.61 18.06 0
-9 -5 5 450.93 16.69 0
-9 -3 7 15.75 10.69 0
-9 0 14 -6.52 13.96 0
-8 -4 4 452.05 16.91 0
-8 -3 5 109.22 14.78 0
-8 -1 8 466.78 11.83 0
-8 1 14 -2.48 13.84 0
-8 1 15 144.12 11.66 0
-7 -9 1 0.99 20.35 0
-7 -7 1 152.63 16.42 0
-7 -1 6 230.89 10.91 0
-7 0 8 9.22 9.64 0
-7 1 11 430.48 11.4 0
-7 2 17 75.94 15.53 0
-7 2 18 3.84 16.29 0
-7 2 19 339.16 17.79 0
-6 -6 0 3.53 14.84 0
-6 -4 1 245.36 15.79 0
-6 -2 3 72.81 10.83 0
-6 0 6 -1.68 13.45 0
-6 2 12 1018.24 17.79 0
-5 -1 3 42.46 11.34 0
-5 3 15 4.49 13.14 0
-5 3 16 569.99 17.03 0
-5 3 17 62.1 14.19 0
-5 3 18 194.94 15.62 0
-5 3 19 17.29 16.74 0
-5 3 20 20.73 17.49 0
-4 3 12 88.4 13.85 0
-3 1 4 45.02 18.51 0
-3 3 10 327.16 15.63 0
-2 4 15 493.23 16.81 0
-2 4 18 127.84 16.5 0
-2 4 19 11.87 16.97 0
0 -8 -5 23.99 16.34 0
0 4 11 136.01 14.17 0
1 4 10 770.94 24.96 0
2 -3 -4 27.54 13.77 0
3 -8 -6 120.5 13.92 0
3 -7 -6 1590.66 20.16 0
3 0 -1 2016.65 29.58 0
4 -9 -6 26.83 15.3 0
4 -4 -5 480.76 14.99 0
5 -6 -6 53.34 9 0
5 -4 -5 441.08 13.46 0
6 -9 -6 2.93 12.75 0
6 -7 -6 30.43 11.71 0
6 -4 -5 33.6 12.27 0
6 0 -1 3.05 8.8 0
6 2 3 196.19 13.52 0
6 4 13 2.13 23.94 0
7 -9 -6 111.12 13.69 0
7 -8 -6 -6.13 13.55 0
7 -7 -6 6.11 11.75 0
7 -3 -4 100.03 10.95 0
7 -1 -2 3.01 11.5 0
7 3 7 95.19 15.05 0
8 -5 -5 298.04 13.68 0
9 -6 -5 810.75 15.14 0
9 -4 -4 288.54 12.85 0
9 -1 -1 443.05 12.78 0
9 3 11 -4.8 17.97 0
10 -5 -4 32.91 12.31 0
10 2 7 552.63 16.99 0
11 -7 -4 27.74 15.52 0
11 -3 -2 14.7 8.42 0
12 -6 -3 14.45 13.11 0
12 -3 -1 419.14 11.18 0
12 -1 2 4.75 13.78 0
12 1 8 25.05 17.03 0
13 -2 2 13.29 15.09 0
13 -1 4 0.65 15.83 0
-11 -7 8 124.87 19.18 0
-11 -5 9 -0.94 15.28 0
-11 -4 10 704.49 17.51 0
-11 -3 12 36.94 16.23 0
-11 -2 14 -25.88 14.54 0
-11 -2 15 7.43 14.63 0
-10 -6 6 172.63 15.98 0
-10 -3 9 57.97 11.08 0
-10 -1 13 31.21 14.05 0
-9 -2 8 458.32 14.77 0
-9 -1 10 80.59 9.74 0
-9 0 13 26.39 12.64 0
-8 -5 3 -5.35 14.61 0
-8 -2 6 84.67 10.43 0
-8 0 10 314.06 10.8 0
-8 1 13 384.12 15.74 0
-7 -3 3 363.09 16.14 0
-7 1 10 10.78 12.67 0
-7 2 15 519.42 16.63 0
-7 2 16 5.25 10.52 0
-6 -1 4 373.17 15.3 0
-6 1 8 107.01 13.61 0
-5 2 9 104.31 13.56 0
-5 3 14 674.03 16.54 0
-4 1 5 1184.51 20.88 0
-2 1 3 1615.86 26.35 0
-2 4 14 328.23 16.3 0
-2 4 20 125.96 18.73 0
-1 4 12 238.32 15.07 0
1 -10 -5 92.5 17.04 0
2 -11 -5 -1.28 18.76 0
4 -8 -6 82.45 13.36 0
4 -7 -6 160.46 12.62 0
4 0 -1 9.71 17.36 0
5 -9 -6 239.06 13.47 0
5 -8 -6 1135.21 17.56 0
5 -7 -6 568.47 14.65 0
5 0 -1 78.07 10.82 0
5 4 11 228.18 23.93 0
6 -8 -6 49.44 13.22 0
6 4 16 -0.71 30.18 0
7 -2 -3 9.8 10.87 0
8 -10 -5 139.07 15.15 0
8 0 0 5.36 8.61 0
8 3 9 178.71 16.12 0
9 -9 -5 6.53 14.01 0
9 -8 -5 220.51 13.81 0
9 -7 -5 390.17 14.77 0
9 -3 -3 97.3 12 0
9 -2 -2 106.45 11.62 0
9 1 3 67.37 12.47 0
9 2 6 6.65 14.69 0
9 3 12 534.65 22.56 0
9 3 13 5.69 19.25 0
10 -4 -3 156.07 11.33 0
10 -1 0 52.37 12.93 0
10 1 4 60.88 12.02 0
10 2 8 403.59 17.07 0
11 -5 -3 471.77 14.34 0
11 -1 1 80.77 12.73 0
11 0 3 64.14 12.94 0
11 1 6 22.37 14.53 0
12 -5 -2 18.8 13.1 0
12 -2 1 5.92 13.24 0
13 -5 -1 161.16 11.56 0
13 -4 0 99.89 15.75 0
13 -3 1 62.75 15.56 0
-12 -4 13 101.28 18.64 0
-11 -6 8 34.86 17.89 0
-11 -3 11 17.69 15.94 0
-11 -2 13 46.71 14.23 0
-10 -4 7 46.87 14.57 0
-10 -2 10 148.94 14.14 0
-10 -1 12 7.64 13.42 0
-10 0 17 -8.38 17.23 0
-9 -6 4 28.44 14.9 0
-9 -4 5 447.65 15.26 0
-9 -3 6 92.96 13.93 0
-9 0 12 -4.26 13.53 0
-9 1 17 186.79 15.62 0
-9 1 18 13.61 17.11 0
-8 -9 2 58.62 21.63 0
-8 -8 2 927.68 21.88 0
-8 -7 2 56.69 18.58 0
-8 -1 7 270.87 14.15 0
-8 0 9 7.04 12.57 0
-8 1 12 136.2 13.43 0
-7 -10 1 232.18 23.35 0
-7 -6 1 21.67 14.08 0
-7 -4 2 231.61 14.68 0
-7 -2 4 13.86 10.37 0
-7 0 7 1543.72 18.59 0
-7 2 14 39.52 13.85 0
-6 2 11 717.34 13.56 0
-5 1 6 989.78 17.98 0
-5 3 13 70.04 13.82 0
-4 0 3 -4.27 11.63 0
-4 3 11 105.85 13.7 0
-3 -6 -3 98.86 29.9 0
-3 0 2 16.23 21.41 0
-3 2 6 464.44 17.77 0
-3 3 9 5.77 13.35 0
-3 4 16 27.63 15.06 0
-3 4 17 31.27 15.66 0
-3 4 18 327.89 18.07 0
-3 4 19 59.72 18.35 0
-2 2 5 532.54 19.54 0
-2 3 8 51.81 14.86 0
-2 4 13 823.26 17.97 0
-1 3 7 15.56 14.25 0
1 -6 -5 1172.73 22.52 0
2 -5 -5 39.25 14.47 0
2 -2 -3 3470.3 33.46 0
2 -1 -2 107.37 16.4 0
3 -11 -5 3.93 16.31 0
3 -3 -4 499.78 15.8 0
5 -3 -4 414 13.38 0
5 2 3 22.23 12.75 0
5 3 6 207.97 15.42 0
6 -3 -4 12.45 7.75 0
6 -2 -3 77.01 11.92 0
6 -1 -2 0.29 8.61 0
6 4 14 71.96 23.19 0
6 4 15 1.1 26.49 0
7 -5 -5 125.42 9.2 0
7 2 4 112.33 12.24 0
8 -9 -5 1.27 13.57 0
8 -7 -5 260.31 12.77 0
8 -6 -5 91.94 9.93 0
8 -4 -4 446.05 12.4 0
8 2 5 22.97 11.82 0
9 -5 -4 22.41 11.79 0
9 0 1 93.16 9.58 0
10 -8 -4 97.07 13.54 0
10 -7 -4 86.47 14.32 0
10 -6 -4 56.92 9.55 0
10 -3 -2 139.7 12.16 0
10 -2 -1 97.13 12.08 0
10 0 2 1591.3 15.2 0
11 -6 -3 199.43 14.57 0
11 -4 -2 188.55 12.85 0
11 -3 -1 -10.18 12 0
11 -2 0 9.25 12.71 0
12 -6 -2 331.48 15.08 0
12 -4 -1 358.91 13.25 0
12 -3 0 -11.65 12.79 0
12 -1 3 12.61 13.51 0
13 -2 3 159.17 15.51 0
13 -1 5 135.56 14.76 0
-12 -5 11 184.45 19.25 0
-12 -4 12 -6.07 16.65 0
-12 -3 14 19.24 18.6 0
-11 -5 8 163.77 16.14 0
-11 -4 9 0.14 16.15 0
-11 -1 16 199.05 16.59 0
-10 -8 5 64.06 19.07 0
-10 -7 5 71.97 16.36 0
-10 -5 6 262 17.01 0
-10 -3 8 10.93 11.11 0
-10 0 15 -9.93 15.07 0
-10 0 16 33.47 11.52 0
-9 -5 4 41.53 14.66 0
-9 -2 7 -8.25 14.54 0
-9 -1 9 15.72 9.58 0
-9 0 11 173.58 14.07 0
-9 1 15 492.62 15.98 0
-9 1 16 17.33 14.51 0
-8 -3 4 108.3 15.58 0
-8 2 18 206.63 15.98 0
-8 2 19 38.57 15.68 0
-7 -1 5 97.5 13.8 0
-7 1 9 -2.44 12.77 0
-7 2 13 17.73 13.42 0
-6 -5 0 50.78 16.07 0
-6 2 10 60.02 13.14 0
-6 3 16 -3.44 15.4 0
-6 3 17 469.32 17.45 0
-6 3 18 5.46 14.82 0
-6 3 19 34.97 15.44 0
-6 3 20 6.39 17.92 0
-5 -5 -1 753.28 21.45 0
-5 0 4 -0.84 10.35 0
-4 2 7 4.07 12.53 0
-3 4 15 18.4 14.65 0
-3 4 20 58.76 18.31 0
-1 -10 -4 9.56 22.08 0
-1 4 11 70.5 13.16 0
0 4 10 475.54 18.45 0
3 -5 -5 248.63 14.48 0
3 -1 -2 3375.18 31.83 0
4 -11 -5 192.81 17.24 0
4 -3 -4 0.33 8.71 0
5 -11 -5 10.51 15.07 0
5 -5 -5 182.43 13.07 0
5 -2 -3 114.45 13.04 0
5 -1 -2 1681.9 19.69 0
6 -5 -5 671.81 11.85 0
7 -10 -5 192.22 14.79 0
7 -6 -5 967.36 15.56 0
7 0 0 2.42 10.42 0
7 3 8 1697.12 23.37 0
8 -8 -5 159.71 13.2 0
8 -3 -3 681.07 13.55 0
8 -2 -2 250.58 12.26 0
8 -1 -1 139.95 8.43 0
8 3 10 42.48 15.54 0
10 -5 -3 -11.44 12.1 0
10 1 5 27.8 12.99 0
10 2 9 2.27 14.43 0
11 -8 -3 34.62 15.83 0
11 -7 -3 173.6 14.21 0
11 -1 2 17.76 12.96 0
11 1 7 27.65 14.49 0
12 -5 -1 94.99 12.8 0
12 -2 2 507.56 14.26 0
13 -5 0 139.7 11.56 0
13 -4 1 -12.74 15.77 0
13 -3 2 6.29 14.18 0
13 -2 4 101.8 14.44 0
13 -1 6 332.41 17.77 0
-12 -3 13 172.79 18.39 0
-11 -7 7 81.26 13.91 0
-11 -6 7 46.45 16.38 0
-11 -3 10 20.34 12.04 0
-11 -2 12 -12.04 11.08 0
-11 -1 14 284.68 15.35 0
-11 -1 15 69.8 12.34 0
-10 -6 5 -8.18 15.43 0
-10 -2 9 18.13 10.24 0
-10 -1 11 70.1 10.32 0
-10 0 14 221.09 14.56 0
-9 -8 3 29.66 18.42 0
-9 1 14 375.86 16.38 0
-8 -10 2 98.23 22.98 0
-8 -6 2 272.15 16.39 0
-8 -4 3 52.12 14.65 0
-8 -2 5 488.62 12.68 0
-8 1 11 5.87 12.56 0
-8 2 16 6.36 15.13 0
-8 2 17 239.74 12.52 0
-7 -5 1 245.61 15.04 0
-7 2 12 89.26 14.61 0
-6 -11 0 13.73 27.71 0
-6 0 5 6.07 12.66 0
-6 1 7 12.54 12.59 0
-6 3 15 202.19 14.27 0
-5 -11 -1 188.39 39.98 0
-5 2 8 215.11 14.04 0
-5 3 12 11.81 10.18 0
-4 3 10 34.55 12.99 0
-4 4 18 244.69 17.91 0
-3 4 14 216.99 15.6 0
-2 -11 -3 10.71 28.53 0
-2 4 12 -1.95 13.24 0
-1 2 4 265.17 19.85 0
0 -11 -4 1.07 19.69 0
0 3 6 48.18 16.88 0
1 -9 -5 119.73 16.43 0
1 -7 -5 24.14 15.47 0
2 -10 -5 190.48 15.95 0
2 1 1 124.49 22.17 0
3 -2 -3 65.39 11.34 0
4 -5 -5 817.73 15.5 0
4 -2 -3 275.38 15.16 0
4 -1 -2 464.86 14.52 0
4 2 3 180.24 15.56 0
5 -10 -5 49.26 15.65 0
6 -10 -5 19.9 14.91 0
6 -6 -5 187.15 13.31 0
6 3 7 1930.28 26.08 0
7 -9 -5 -0 12.69 0
7 -8 -5 11.47 13.19 0
7 -7 -5 14.21 12.48 0
7 -4 -4 5.42 8.15 0
8 -5 -4 325.84 13.03 0
8 0 1 2.51 11.97 0
8 1 3 126.5 12.19 0
9 -9 -4 17.45 15.35 0
9 -8 -4 -9.01 12.9 0
9 -7 -4 -19.3 13.54 0
9 -6 -4 37.62 9.2 0
9 -4 -3 89.79 8.37 0
9 -3 -2 236.91 11.51 0
9 -2 -1 722.8 13.09 0
9 -1 0 48.23 8.82 0
9 1 4 254.06 13.39 0
9 2 7 124.15 14.09 0
10 -6 -3 17.13 12.08 0
10 -4 -2 504.81 12.52 0
10 -1 1 256.08 10.46 0
10 0 3 -15.22 12.28 0
10 2 10 17.02 15.54 0
11 -5 -2 48.26 9.2 0
11 -2 1 112.15 12.99 0
11 1 8 169.92 15.69 0
12 -6 -1 12.39 13.04 0
12 -4 0 31.03 13.18 0
12 -3 1 1.38 13.56 0
12 -1 4 207.56 13.86 0
12 0 7 6.42 16.04 0
13 -5 1 7.69 13.8 0
13 -3 3 15.43 14.79 0
-12 -6 9 1.62 18.73 0
-12 -5 10 22.37 13.49 0
-12 -4 11 -12.29 12.68 0
-12 -3 12 -9.62 16.05 0
-11 -4 8 207.45 16.38 0
-11 -3 9 4.04 14.61 0
-11 -2 11 -9.53 13.92 0
-11 -1 13 -7.15 13.85 0
-10 -4 6 54.02 15.46 0
-10 -3 7 262.54 16.6 0
-10 -1 10 148.1 13.76 0
-10 0 13 -0.69 13.29 0
-9 -9 3 47.66 19.01 0
-9 -7 3 497.72 17.88 0
-9 -3 5 96.87 14.26 0
-9 -1 8 86.82 9.83 0
-9 0 10 18.4 12.64 0
-9 1 13 109.21 15.15 0
-8 -1 6 291.69 14.02 0
-8 0 8 3030.31 19.95 0
-8 2 14 124.29 13.82 0
-8 2 15 14.51 10.7 0
-7 0 6 -19.89 12.59 0
-6 -3 1 68.05 14.01 0
-6 -2 2 1019.74 18.67 0
-6 3 14 43.48 10.62 0
-5 -2 1 152.01 16.71 0
-5 3 11 0.26 14.02 0
-4 -5 -2 2.52 16.24 0
-4 4 16 824.93 17.61 0
-4 4 17 24.99 14.33 0
-4 4 19 15.18 15.51 0
-4 4 20 48.14 18.44 0
-3 4 13 42.52 14.24 0
-2 0 1 1.13 24.35 0
-1 1 2 822.31 30.87 0
1 -8 -5 13.1 13.11 0
1 -4 -4 520.83 18.69 0
2 -6 -5 28.3 12.74 0
2 2 3 134.28 25.97 0
3 -10 -5 91.58 14.77 0
3 1 1 941.69 24.24 0
3 2 3 391.16 22.48 0
4 -10 -5 92.37 14.66 0
5 -6 -5 -7.88 12.31 0
6 -9 -5 128.3 13.93 0
6 -8 -5 170.36 13.5 0
6 -7 -5 665.33 14.5 0
6 -4 -4 115.84 11.76 0
6 0 0 44.66 12.06 0
6 2 4 306.15 14.34 0
7 -3 -3 344.59 12.6 0
7 -2 -2 197.02 12.07 0
7 -1 -1 487.5 10.61 0
8 -10 -4 0.79 16.14 0
8 -6 -4 77.81 11.35 0
8 2 6 418.89 14.51 0
8 3 11 3.61 17.35 0
9 0 2 3.91 9.07 0
10 -8 -3 1.92 14.67 0
10 -7 -3 18.94 14.23 0
10 -3 -1 207.33 12.35 0
10 -2 0 505.64 10.53 0
10 1 6 7 13.34 0
10 2 11 0.01 16.21 0
11 -8 -2 56.39 14.74 0
11 -7 -2 41.98 13.16 0
11 -6 -2 4.5 9.84 0
11 -4 -1 447.58 10.7 0
11 -3 0 180.69 12.26 0
11 -1 3 -14.06 12.86 0
11 1 9 469.03 16.1 0
12 -2 3 27.12 14.24 0
12 -1 5 74.25 13.69 0
12 0 8 424.17 17.56 0
13 -4 2 34.61 14.54 0
13 -2 5 323.82 17.13 0
-12 -5 9 6.57 16.25 0
-12 -4 10 7.97 16.85 0
-12 -2 14 100.39 12.06 0
-11 -7 6 95.03 19.19 0
-11 -5 7 188.27 16.29 0
-11 -2 10 453.7 15.68 0
-11 0 16 -2.08 16.56 0
-10 -5 5 307.95 18.4 0
-10 -2 8 917.08 14.25 0
-10 0 12 523.51 15.22 0
-10 1 16 50.2 15.5 0
-10 1 17 151.42 16.32 0
-9 -6 3 36.93 15.02 0
-9 -4 4 285.86 15.83 0
-9 -2 6 106.52 13.96 0
-9 1 12 5.75 12.91 0
-8 -5 2 135.47 14.79 0
-8 1 10 5.07 9.11 0
-8 2 13 27.12 13.48 0
-7 -3 2 4282.14 28.78 0
-7 -2 3 22.76 14.1 0
-7 1 8 163.05 10.32 0
-7 2 11 1254.29 15.14 0
-7 3 16 24.67 14.36 0
-7 3 17 -4.92 16.23 0
-7 3 18 337.25 15.96 0
-7 3 19 8.85 15.89 0
-6 -1 3 2589.22 23.05 0
-6 2 9 465.47 11.76 0
-6 3 13 76.42 13.19 0
-5 -3 0 3143.99 29.21 0
-5 -1 2 1670.08 19.57 0
-5 1 5 648.91 16.27 0
-4 -2 0 948.12 20.16 0
-4 1 4 67.23 16.12 0
-4 3 9 4386.48 28.05 0
-4 4 14 183.04 14.35 0
-4 4 15 116.13 13.98 0
-3 3 8 504.61 16.84 0
-2 3 7 1543.16 22.55 0
-2 4 11 20.55 12.44 0
-1 -6 -4 41.92 19.12 0
-1 4 10 333.14 16.82 0
0 -3 -3 5.95 20.17 0
2 -9 -5 496.76 16.39 0
2 -7 -5 3.02 13.87 0
3 -9 -5 22.23 14.97 0
3 -6 -5 579.51 15.15 0
4 -9 -5 293.27 13.81 0
4 -6 -5 29.67 12.16 0
4 3 6 8.96 15.24 0
5 -9 -5 12.16 13.24 0
5 -8 -5 239.23 12.81 0
5 -7 -5 260.03 12.83 0
5 -4 -4 61.32 11.37 0
5 4 12 37.35 21.75 0
6 1 2 1231.04 18.08 0
7 -10 -4 20.53 13.92 0
7 -5 -4 -1.46 10.95 0
7 2 5 15.05 11.4 0
7 3 9 28.89 14.38 0
8 -9 -4 6.77 13.07 0
8 -8 -4 355.08 14.38 0
8 -7 -4 220.78 13.61 0
8 -4 -3 48.4 10.58 0
8 -1 0 436.41 13.01 0
8 3 12 6.34 17.16 0
9 -5 -3 154.35 9.29 0
9 2 8 -9.7 13.39 0
10 -5 -2 117.35 12.02 0
10 -1 2 -10.3 12.77 0
10 2 12 25.57 17.72 0
11 -5 -1 150.23 12.45 0
11 1 10 185.86 18.09 0
12 -5 0 30.21 9.65 0
12 -4 1 74.47 13.94 0
12 -3 2 31.62 14.34 0
13 -4 3 25.53 14.86 0
13 -3 4 16.39 15.75 0
-12 -6 8 341.74 20.12 0
-12 -3 11 435.97 14.72 0
-12 -2 13 402.66 14.13 0
-12 -1 15 16.18 15.58 0
-11 -6 6 77.66 17.97 0
-11 -4 7 161.57 15.32 0
-11 -3 8 169.38 15.27 0
-11 -1 12 39.72 10.6 0
-11 0 15 540.01 16.05 0
-10 -8 4 104 19.11 0
-10 -7 4 82.82 18.16 0
-10 -1 9 19.61 13.96 0
-10 0 11 2.07 12.83 0
-10 1 15 127.46 16.55 0
-9 -5 3 161.12 15.39 0
-9 -1 7 14.52 12.56 0
-9 0 9 319.25 13.81 0
-9 2 16 28.63 14.22 0
-9 2 17 20.38 15.1 0
-9 2 18 3.28 12.48 0
-8 -3 3 683.35 17.1 0
-8 -2 4 388.63 15.86 0
-8 0 7 -13.5 12.85 0
-7 -8 0 202.87 19.5 0
-7 -7 0 137.76 18.26 0
-7 -1 4 157.97 13.52 0
-7 2 10 10.88 12.54 0
-7 3 15 17.87 13.95 0
-6 -8 -1 7.64 18.82 0
-6 -7 -1 836.92 23.81 0
-6 1 6 39.89 12.95 0
-6 3 12 8.28 13.88 0
-5 2 7 125.6 12.64 0
-5 3 10 218.06 13.81 0
-5 4 17 341.23 17.41 0
-5 4 18 165.61 17.32 0
-5 4 19 12.67 17.12 0
-4 -1 1 48.16 11.94 0
-4 2 6 86.69 13.18 0
-3 2 5 26.52 14.87 0
-3 4 12 124.86 13.07 0
1 -11 -4 29.81 17.76 0
1 4 9 239.95 19.58 0
2 -8 -5 96.74 13.22 0
2 -4 -4 463.57 17.1 0
2 4 9 25.02 26.44 0
3 -8 -5 248.3 13.87 0
3 -7 -5 119.9 12.61 0
4 -8 -5 46.34 13.3 0
4 -7 -5 157.45 12.83 0
4 -4 -4 114.95 12.65 0
5 -11 -4 4.75 16.01 0
5 0 0 6.62 13.61 0
6 -3 -3 7.23 7.85 0
6 -2 -2 1039.51 15.07 0
6 -1 -1 1310.32 17.08 0
7 -6 -4 8.37 12.25 0
7 0 1 279.76 12.95 0
8 -3 -2 14.49 10.34 0
8 -2 -1 -11.52 11.18 0
8 3 13 8.48 18.03 0
9 -9 -3 39.35 15.15 0
9 -8 -3 18.63 12.57 0
9 -7 -3 457.98 13.74 0
9 -6 -3 25.31 9.66 0
9 -4 -2 174.51 11.78 0
9 -1 1 166.95 9.12 0
9 1 5 11.54 11.41 0
9 2 9 49.43 15.15 0
10 -6 -2 170.61 12.79 0
10 -4 -1 3.85 11.49 0
10 -2 1 114.67 11.47 0
10 1 7 136.18 13.83 0
11 -6 -1 324.19 14.08 0
11 -4 0 -2.11 11.88 0
11 -3 1 1.48 12.78 0
11 -2 2 695.93 12.37 0
11 -1 4 7.14 12.68 0
12 -6 0 184.51 11.27 0
12 -2 4 492.75 15.15 0
12 -1 6 145.01 14.16 0
-12 -5 8 274.85 17.17 0
-12 -4 9 49.82 17.12 0
-12 -3 10 13.26 17.01 0
-12 -2 12 35.04 15.09 0
-12 -1 14 -3.51 15.71 0
-11 -5 6 33.67 16.72 0
-11 -2 9 20.92 15.97 0
-11 -1 11 48.41 13.44 0
-11 0 14 12.15 10.97 0
-10 -6 4 83.64 16.71 0
-10 -4 5 19.86 15.15 0
-10 -3 6 212.33 12.06 0
-10 -2 7 30.47 14.29 0
-10 1 14 -0.19 14.48 0
-9 1 11 -15.93 12.95 0
-9 2 15 394.9 16.9 0
-8 -8 1 14.53 16.52 0
-8 -7 1 24.69 16.24 0
-8 -1 5 147.57 13.76 0
-8 1 9 -4.12 8.92 0
-8 2 12 130.16 13.6 0
-7 -9 0 7.89 20.24 0
-7 -4 1 573.23 16.01 0
-7 1 7 4.45 12.73 0
-7 3 14 526.12 16.22 0
-6 -9 -1 228.59 25.36 0
-6 -4 0 20.59 13.29 0
-6 0 4 3907.92 25.92 0
-6 2 8 1083.52 17.03 0
-5 0 3 5.82 14.78 0
-5 4 15 498.33 17.07 0
-5 4 16 101.15 14.33 0
-4 -3 -1 5184.74 41.05 0
-4 4 13 18.16 14.67 0
-3 1 3 126.28 14.86 0
-1 -9 -4 58.07 19.55 0
0 -10 -4 14.22 18.21 0
0 -5 -4 19.61 15.97 0
0 4 9 83.8 16.24 0
2 -11 -4 34.66 17.34 0
3 -11 -4 -0.14 16.51 0
3 -4 -4 338.62 11.87 0
4 -11 -4 -1.35 15.32 0
5 -3 -3 22.94 11.43 0
6 -10 -4 9.48 14.82 0
6 -5 -4 1103.87 13.39 0
6 3 8 16.12 13.71 0
7 -9 -4 -0.29 10.29 0
7 -8 -4 51.46 12.92 0
7 -7 -4 10.82 12.75 0
7 -4 -3 83.06 10.9 0
7 1 3 84.65 12.45 0
8 -10 -3 57.73 15.59 0
8 -5 -3 -1.36 10.87 0
8 0 2 1301.55 16.44 0
8 1 4 45.68 11.58 0
8 2 7 431.07 14.91 0
8 3 14 11.41 18.34 0
9 -3 -1 202.69 9.11 0
9 -2 0 98.59 8.14 0
9 0 3 1855.95 16.17 0
10 -8 -2 489.37 16.16 0
10 -7 -2 255.27 13.59 0
10 -3 0 13.07 8.34 0
11 -7 -1 6 10.65 0
11 -5 0 178.42 12.47 0
11 0 7 7.08 13.59 0
12 -6 1 18.34 13.04 0
12 -5 1 11.5 10.17 0
12 -4 2 513.04 15.7 0
12 -3 3 511.96 14.79 0
12 -1 7 42.11 15.16 0
-12 -2 11 59.95 16.68 0
-12 -1 13 195.27 15.32 0
-11 -7 5 13.18 17.33 0
-11 0 13 0.92 11.14 0
-10 -5 4 50.79 16.99 0
-10 -1 8 21.13 13.91 0
-10 0 10 138.48 13.87 0
-10 1 13 20.62 13.54 0
-9 -8 2 146.89 18.48 0
-9 -7 2 172.57 18.34 0
-9 -3 4 7.78 14.83 0
-9 -2 5 1002.26 17.74 0
-9 0 8 -3.52 13.44 0
-9 2 14 574.03 16.94 0
-8 -9 1 0.56 20.15 0
-8 -6 1 146.83 15.68 0
-8 -4 2 768.5 17.49 0
-8 2 11 206.23 14.77 0
-8 3 16 30.18 14.28 0
-8 3 17 12.92 15.98 0
-8 3 18 3.66 12.39 0
-7 -6 0 46.26 14.36 0
-7 0 5 2022.03 19.37 0
-7 3 13 35.39 14.64 0
-6 -6 -1 122.78 18.08 0
-6 3 11 498 15.17 0
-6 4 18 229.06 15.67 0
-6 4 19 124.37 18 0
-5 -8 -2 27.11 22.29 0
-5 -7 -2 20.36 20.83 0
-5 -4 -1 22.71 13.72 0
-5 4 14 326.56 15.25 0
-4 0 2 771.6 20.51 0
-4 3 8 353.36 14.44 0
-4 4 12 602.5 15.56 0
-3 -9 -3 33.06 30.08 0
-3 4 11 136.39 13.57 0
-2 4 10 330.98 14.27 0
-1 3 6 4657.46 37.88 0
0 -12 -3 15.47 20.46 0
4 0 0 86.01 16.27 0
5 -10 -4 151.8 14.71 0
5 -5 -4 9.7 12.14 0
5 -2 -2 88.72 12.4 0
5 -1 -1 111.84 14.1 0
5 1 2 39.66 13.85 0
5 2 4 394.97 15.93 0
5 3 7 3.37 13.81 0
6 -9 -4 17.42 13.14 0
6 -6 -4 2048.87 18.81 0
7 -3 -2 4328.23 22.72 0
7 -1 0 353 12.48 0
7 2 6 920.97 17.48 0
7 3 10 8.45 14.31 0
8 -9 -3 71.63 14.49 0
8 -6 -3 26.33 11.92 0
9 -5 -2 340.85 9.86 0
9 1 6 144.14 13.58 0
9 2 10 26.3 14.06 0
10 -5 -1 30.45 10.89 0
10 -1 3 26.92 11.92 0
10 1 8 522.26 15.08 0
11 -6 0 4.1 12.48 0
11 -4 1 323.39 13.46 0
11 -3 2 49.53 13.01 0
11 -2 3 507.27 11.45 0
11 -1 5 167.05 13.61 0
11 0 8 6.31 14.16 0
12 -5 2 124.5 13.3 0
12 -2 5 -0.53 10.66 0
-12 -6 7 19.93 17.05 0
-12 -4 8 8.47 16.32 0
-12 -3 9 57.4 16.82 0
-11 -6 5 240.2 18.51 0
-11 -4 6 21.88 15.25 0
-11 -3 7 58.77 14.64 0
-11 -2 8 145.06 15.43 0
-11 -1 10 500.24 12.64 0
-11 0 12 -14.5 14.3 0
-11 1 16 213.88 15.83 0
-10 1 12 23 13.85 0
-10 2 17 11.53 17.18 0
-9 -9 2 66.54 21.37 0
-9 -6 2 57.91 14.48 0
-9 -4 3 113.42 14.68 0
-9 -1 6 465.68 14.08 0
-9 1 10 87.14 9.68 0
-9 2 13 -19.84 15.07 0
-8 0 6 221.16 13.58 0
-8 1 8 486.86 13.93 0
-8 3 15 -6.01 14.89 0
-7 2 9 1073.37 14.18 0
-7 3 12 195.23 13.64 0
-6 4 16 21.86 15.09 0
-6 4 17 170.79 15.63 0
-5 3 9 79.92 13.93 0
-5 4 13 59.94 12.98 0
-3 -2 -1 39.02 17.31 0
-3 -1 0 2557.82 32.4 0
-3 3 7 314.33 16.11 0
-2 2 4 65.66 16.57 0
-1 -8 -4 452.57 22.3 0
-1 -7 -4 17.28 19.11 0
-1 4 9 2.91 13.64 0
-1 5 16 302.62 18.28 0
-1 5 17 10.62 17.62 0
-1 5 18 352.92 21.41 0
-1 5 19 30.98 20.08 0
0 5 16 82.86 18.4 0
0 5 17 206.34 18.77 0
0 5 18 3.96 18.47 0
0 5 19 1.01 21.56 0
1 -10 -4 276.89 17.49 0
1 5 17 127.64 24.01 0
4 -10 -4 392.56 15.33 0
4 -5 -4 25.96 12.35 0
4 -3 -3 2380.89 21.82 0
5 4 13 12.52 20.87 0
6 -11 -3 175.05 16.42 0
6 -8 -4 14.84 11.51 0
6 -7 -4 565.34 13.36 0
6 -4 -3 130.41 11.59 0
6 0 1 4.68 11.54 0
6 2 5 34.58 11.89 0
7 -10 -3 5.3 15.15 0
7 -5 -3 36.01 11.01 0
7 -2 -1 2256.32 16.56 0
8 -8 -3 19.79 9.62 0
8 -7 -3 46.25 9.32 0
8 -4 -2 789.65 11.13 0
8 -3 -1 11.51 10.51 0
8 -1 1 791.12 14.01 0
8 2 8 31.05 13.86 0
9 -9 -2 75.09 13.55 0
9 -8 -2 124.63 13.32 0
9 -7 -2 184.09 12.74 0
9 -6 -2 45.06 11.79 0
9 -4 -1 659.67 13.62 0
9 -1 2 124.89 9.37 0
9 2 11 84.96 15.76 0
10 -8 -1 94.44 13.77 0
10 -7 -1 76.92 13.06 0
10 -6 -1 4.96 12.39 0
10 -4 0 222.67 12.09 0
10 -3 1 16.32 11.87 0
10 -2 2 258.75 13.1 0
10 1 9 -7.12 14.63 0
11 -7 0 167.89 15.13 0
12 -6 2 54.83 13.84 0
12 -4 3 26.55 13.89 0
12 -3 4 7.41 10.79 0
12 -2 6 194.35 15.9 0
-13 -4 10 -10.57 16.94 0
-13 -3 11 18.06 17.75 0
-12 -5 7 546.98 18.19 0
-12 -2 10 17.12 11.36 0
-12 -1 12 31.04 11.41 0
-12 0 14 22.62 15.07 0
-12 0 15 -3.07 11.97 0
-11 -5 5 5.96 16.27 0
-11 -1 9 429.69 15.37 0
-11 0 11 1362.86 17.09 0
-11 1 14 297.69 14.75 0
-11 1 15 63.29 12.31 0
-10 -8 3 -4.96 18.98 0
-10 -7 3 11.22 17.05 0
-10 -4 4 536.32 16.83 0
-10 -3 5 315.21 12.34 0
-10 -2 6 9.22 10.58 0
-10 0 9 4.83 13.34 0
-10 2 15 85.89 15.31 0
-10 2 16 26.35 12.27 0
-9 0 7 1506.73 17.38 0
-9 1 9 2.21 12.85 0
-9 2 12 8.61 14.22 0
-9 3 18 283.4 16.68 0
-8 -10 1 30.62 24.08 0
-8 -5 1 183.66 15.32 0
-8 -2 3 141.11 13.51 0
-8 2 10 77.76 13.44 0
-8 3 14 12.71 14.69 0
-7 -10 0 -3.31 21.64 0
-7 -5 0 253.74 14.44 0
-7 -2 2 189.72 14.4 0
-7 -1 3 15.38 12.72 0
-6 -2 1 9.71 13.89 0
-6 1 5 1001.57 16.63 0
-6 2 7 31.1 12.44 0
-6 3 10 196.04 14.07 0
-6 4 15 77.94 15.29 0
-5 1 4 26.28 13.62 0
-5 2 6 3609.79 24.52 0
-4 4 11 84.76 13.09 0
-3 4 10 548.04 14.78 0
-2 5 16 4.69 17.02 0
-2 5 17 52.21 15.67 0
-2 5 18 0.07 16.02 0
-2 5 19 444.38 21.39 0
-1 5 15 72.57 15.79 0
0 5 15 118.03 17.18 0
1 -5 -4 219.48 15.74 0
1 -3 -3 71.54 15.26 0
1 5 16 664.6 26.28 0
1 5 18 0.89 20.89 0
2 -10 -4 63.19 14.03 0
3 -10 -4 0.57 13.46 0
3 -5 -4 -1.56 12.97 0
3 -3 -3 -2.31 13.57 0
3 0 0 11.66 17.74 0
4 -2 -2 145.56 14.52 0
4 -1 -1 47.79 15.62 0
5 -11 -3 43.48 14.21 0
5 -9 -4 38.82 9.74 0
5 -8 -4 27.83 12.12 0
5 -7 -4 90.17 12.21 0
5 -6 -4 9.32 8.8 0
6 1 3 81.97 12.28 0
7 -9 -3 64.5 13.79 0
7 -6 -3 147.1 12.64 0
7 0 2 0.89 11.83 0
7 3 11 33.22 15.35 0
8 -10 -2 60.66 15.43 0
8 -5 -2 114.98 11.73 0
8 -2 0 92.27 8.32 0
8 1 5 584.77 14.68 0
9 -3 0 313.7 9.52 0
9 -2 1 660.19 11.1 0
9 1 7 46.48 13.12 0
9 2 12 16.14 15.66 0
10 -1 4 52.96 13.38 0
10 1 10 155.62 15.64 0
11 -5 1 453.81 11.12 0
11 -4 2 387.86 12.95 0
11 -3 3 13.55 12.1 0
11 -2 4 408.99 11.64 0
11 -1 6 2.19 13.12 0
11 0 9 488.04 16.16 0
12 -5 3 16.01 15.08 0
12 -4 4 154.25 14.57 0
12 -3 5 138.07 15.11 0
12 -2 7 22.57 14.04 0
-13 -2 12 -8.09 16.41 0
-12 -6 6 22.52 18.85 0
-12 -4 7 183.64 15.7 0
-12 -3 8 37.16 16.27 0
-12 -1 11 321.12 16.1 0
-12 0 13 6.88 14.6 0
-11 -3 6 35.13 14.27 0
-11 1 13 5.26 13.83 0
-10 -6 3 26.18 15.79 0
-10 -1 7 3.7 9.85 0
-10 1 11 59.97 10.25 0
-10 2 14 91.79 15.88 0
-9 -5 2 360.54 16.98 0
-9 -2 4 62.13 13.37 0
-9 3 16 65.75 14.48 0
-9 3 17 28.91 15.64 0
-8 -3 2 -1.69 14.22 0
-8 -1 4 265.49 14.08 0
-8 1 7 276.54 13.14 0
-8 3 13 59.03 14.85 0
-7 -3 1 48.96 13.57 0
-7 1 6 232.02 10.07 0
-7 2 8 9.77 12.41 0
-7 3 11 95.86 14.14 0
-7 4 17 62.07 16.12 0
-7 4 18 -0.34 16.44 0
-6 -5 -1 1255.62 22.36 0
-6 -1 2 -2.61 9.12 0
-6 4 14 18.69 14.68 0
-5 -6 -2 187.72 20.18 0
-5 4 12 51.65 14.03 0
-4 2 5 0.69 9.79 0
-3 0 1 2030.66 29.61 0
-3 5 17 4.2 17.41 0
-3 5 18 39.28 16.27 0
-3 5 19 92.62 17.89 0
-2 1 2 100.65 22.14 0
-2 3 6 94.86 15.11 0
-2 4 9 39.69 14.78 0
-2 5 15 86 15.93 0
-1 -11 -3 145.97 19.46 0
0 -9 -4 43.74 15.65 0
0 -6 -4 566.67 19.17 0
1 5 15 21.96 20.61 0
2 -5 -4 2071.41 23.25 0
2 -3 -3 266.92 12.08 0
3 3 6 1375.61 33.9 0
4 -9 -4 16.8 12.74 0
4 -6 -4 9.52 11.83 0
4 4 11 616.55 27.72 0
5 -4 -3 -5.98 10.88 0
6 -10 -3 33.88 14.59 0
6 -5 -3 1317.06 16.56 0
6 -3 -2 177.57 8.89 0
6 -2 -1 12.45 10.65 0
6 -1 0 110.73 12.1 0
6 3 9 98.65 14.92 0
7 -8 -3 13.73 11.44 0
7 -7 -3 110.97 12.32 0
7 -4 -2 229.21 11.56 0
7 1 4 2023.74 19.29 0
8 -9 -2 59.71 14.03 0
8 -6 -2 251.93 11.9 0
9 -5 -1 44.18 8.71 0
9 -1 3 63.52 11.51 0
9 2 13 80.85 16.65 0
10 -6 0 172.11 11.96 0
10 -5 0 166.4 9.67 0
10 -4 1 70.15 11.02 0
10 -2 3 68.04 12.49 0
10 0 7 15.87 12.47 0
10 1 11 391.01 17.15 0
11 -7 1 11.1 13.81 0
11 -6 1 66.25 9.72 0
11 -2 5 200.92 13.23 0
11 -1 7 28.39 14.34 0
11 0 10 2.06 14.67 0
12 -2 8 264.85 15.13 0
-13 -5 8 245.58 20.14 0
-13 -4 9 13.59 13.95 0
-13 -3 10 544.08 15.69 0
-13 -2 11 103.27 18.37 0
-13 -1 13 146.2 17.69 0
-12 -5 6 -1.55 15.94 0
-12 -2 9 137.89 12.17 0
-11 -8 4 8.8 18.96 0
-11 -7 4 43.55 19.04 0
-11 -6 4 73.82 16.21 0
-11 -4 5 316.13 17.39 0
-11 -2 7 100.76 11.05 0
-11 -1 8 436.61 15.18 0
-11 0 10 5.43 14.06 0
-10 -5 3 8.64 15.76 0
-10 0 8 204.15 14.42 0
-10 1 10 160.62 14.18 0
-10 2 13 21.91 13.77 0
-9 -3 3 77.4 14.66 0
-9 -1 5 497.97 14.8 0
-9 2 11 1137.11 16.54 0
-9 3 15 -6.4 14.95 0
-8 0 5 12.13 12.22 0
-8 2 9 698.31 14.67 0
-7 0 4 3.26 8.48 0
-7 4 15 813.2 17.15 0
-7 4 16 6.21 14 0
-6 -10 -1 -5.02 28.64 0
-6 -3 0 105.12 14.32 0
-6 0 3 11.97 12.7 0
-6 3 9 42.76 13.21 0
-6 4 13 89.07 14.05 0
-5 -9 -2 569.77 42.31 0
-5 -2 0 182.75 15.36 0
-5 -1 1 98.74 14.89 0
-5 3 8 866.7 16.08 0
-4 1 3 1522.01 19.45 0
-4 3 7 892.16 17.11 0
-4 5 18 100.45 17.99 0
-4 5 19 100.58 18.68 0
-3 5 16 173.35 15.57 0
-2 -10 -3 127.22 23.59 0
-1 5 14 3.5 14.83 0
0 5 14 18.73 16.63 0
1 -9 -4 79.35 15.38 0
2 -9 -4 3.43 12.77 0
3 -9 -4 32.74 13.12 0
3 -6 -4 95.43 12.52 0
3 -2 -2 233.22 16.52 0
4 -11 -3 199.3 16.5 0
4 -8 -4 46.8 12.23 0
4 -7 -4 66.39 12.64 0
4 1 2 13.45 13.09 0
4 2 4 1211.86 21.76 0
5 -10 -3 6.66 12.77 0
5 4 14 3.35 20.99 0
6 -11 -2 18.39 16.7 0
6 -9 -3 47.2 13.36 0
7 -10 -2 15.87 14.65 0
7 -3 -1 49.55 10.68 0
7 -1 1 678.9 13.57 0
7 2 7 42.65 12.19 0
7 3 12 51.43 15.24 0
8 -8 -2 775.52 14.34 0
8 -7 -2 55.97 12.14 0
8 -4 -1 241.14 11.43 0
8 -1 2 300.55 12.77 0
8 2 9 18.55 12.57 0
9 -9 -1 18.4 10.88 0
9 -8 -1 111.88 14.43 0
9 -7 -1 33.47 13.02 0
9 -6 -1 284.74 12.58 0
9 -4 0 219.82 11.81 0
9 1 8 523.95 15.17 0
10 -8 0 45.61 13.68 0
10 -7 0 170.58 13.05 0
10 -3 2 12.8 10.96 0
10 -1 5 21.44 12.85 0
10 1 12 43.05 16.61 0
11 -5 2 26.88 11.89 0
11 -4 3 116.28 13.35 0
11 -3 4 122.95 13.93 0
12 -5 4 94.06 14.01 0
12 -4 5 -7.56 15.94 0
12 -3 6 65.56 11.18 0
-13 -3 9 52.15 15.93 0
-13 -1 12 22.61 15.59 0
-12 -3 7 20.9 14.64 0
-12 -1 10 2.52 11.98 0
-12 0 12 13.99 10.69 0
-12 1 15 47.24 17.71 0
-11 1 12 51.27 13.57 0
-11 2 16 13.49 15.51 0
-10 -3 4 2.82 14.53 0
-10 -2 5 17.78 10.43 0
-10 -1 6 327.48 15.21 0
-9 -4 2 181.88 14.86 0
-9 0 6 1.46 12.37 0
-9 1 8 96.82 9.79 0
-9 3 14 24.56 14.82 0
-8 -4 1 224.73 14.55 0
-8 3 12 59.66 10.98 0
-8 4 18 281.02 16.49 0
-7 3 10 1426.84 18.17 0
-7 4 14 95.87 13.79 0
-5 0 2 6.52 14.74 0
-5 4 11 299.48 14.74 0
-4 -4 -2 19.26 16.57 0
-4 4 10 181.78 13.78 0
-4 5 16 120.68 15.24 0
-4 5 17 -2.91 16.1 0
-3 2 4 90.32 11.93 0
-3 5 15 47.07 14.36 0
-2 5 14 13.26 13.43 0
0 -11 -3 23.28 17.11 0
0 -8 -4 678.64 19.39 0
0 -7 -4 2.15 15.14 0
0 -2 -2 261.45 26.29 0
1 -6 -4 44.54 12.52 0
1 5 14 14.49 19.3 0
2 -11 -3 146.82 17.58 0
2 -8 -4 304.57 15.33 0
2 -6 -4 145.9 13.31 0
3 -11 -3 78.38 15.05 0
3 -8 -4 56.86 12.8 0
3 -7 -4 14.6 12.11 0
3 -1 -1 562.37 16.52 0
4 -4 -3 1130.08 16.51 0
5 -5 -3 900.58 14.69 0
5 -3 -2 247.99 12.65 0
5 0 1 118.28 9.89 0
5 4 15 5.65 24.3 0
5 4 17 2.06 25.25 0
6 -8 -3 17.73 11.88 0
6 -7 -3 393.03 13.15 0
6 -6 -3 92.64 9.19 0
6 2 6 32.08 12.72 0
7 -5 -2 18.47 10.58 0
7 -2 0 162.7 10.96 0
7 3 13 8.04 16.1 0
8 -10 -1 24.33 15.23 0
8 -3 0 56.2 10.89 0
8 -2 1 993.81 14.49 0
8 1 6 139.57 11.88 0
8 2 10 9.58 14.24 0
9 -3 1 8.46 7.84 0
9 -2 2 190.75 9.28 0
10 -5 1 135.62 12.05 0
10 -2 4 168.71 12.63 0
10 0 8 323.63 14.71 0
11 -7 2 5.56 13.87 0
11 -6 2 7.38 9.54 0
11 -2 6 -0.37 13.64 0
12 -5 5 25.13 16.55 0
12 -4 6 557.32 15.58 0
12 -3 7 288.7 15.25 0
-13 -4 8 11.9 16.52 0
-13 -2 10 4.62 16.56 0
-12 -6 5 16.46 17.42 0
-12 -4 6 44.06 17.29 0
-12 -2 8 85.65 11.89 0
-12 -1 9 12.71 14.35 0
-12 0 11 -4.08 15.23 0
-12 1 14 12.67 14.84 0
-11 -5 4 5.08 15.34 0
-11 -3 5 23.62 14.14 0
-11 -2 6 6.14 15.39 0
-11 0 9 160.65 13.56 0
-11 1 11 32.54 14.38 0
-11 2 15 -2.16 12.77 0
-10 -4 3 137.42 14.97 0
-10 0 7 -6.81 12.81 0
-10 1 9 8.87 13.02 0
-10 2 12 582.93 13.07 0
-10 3 16 28.17 14.97 0
-10 3 17 490.38 17.71 0
-9 -8 1 119.27 19.74 0
-9 -7 1 29.09 15.64 0
-9 2 10 436.71 11.82 0
-9 3 13 120.93 15.33 0
-8 -8 0 19.87 17.41 0
-8 -7 0 412.63 18.98 0
-8 1 6 267.5 13.17 0
-8 3 11 72.56 14.29 0
-8 4 16 28.66 15.1 0
-8 4 17 315.8 16.05 0
-7 -4 0 243.33 13.37 0
-7 1 5 99.91 12.58 0
-7 2 7 707.27 14.56 0
-6 1 4 391.2 14.05 0
-6 2 6 226.22 9.88 0
-6 4 12 204.42 13.59 0
-5 2 5 313.8 13.9 0
-5 5 17 2.85 14.34 0
-5 5 18 -4.09 16.86 0
-5 5 19 16.4 17.63 0
-4 5 15 435.52 16.87 0
-3 3 6 494.6 16.76 0
-3 4 9 30.37 12.23 0
-3 5 14 60 13.72 0
-2 5 13 474.72 16.51 0
-1 5 13 67.28 14.93 0
0 5 13 233.17 18.32 0
1 -11 -3 5.02 14.97 0
1 -8 -4 2.33 12.48 0
1 -7 -4 16.26 13.89 0
2 -7 -4 674.62 15.61 0
2 -2 -2 113.24 18.19 0
2 5 17 0.16 32.77 0
4 -10 -3 164.54 14.41 0
5 -11 -2 409.76 15.77 0
5 -9 -3 5.69 12.64 0
5 -2 -1 143.32 12.48 0
5 -1 0 511.29 15.35 0
5 2 5 143.4 13.15 0
5 3 8 297.27 16.02 0
5 4 16 -0.42 22.02 0
6 -10 -2 359.41 14.17 0
6 -4 -2 462.17 10.41 0
6 3 10 17.29 13.75 0
7 -9 -2 1454.17 15.65 0
7 -8 -2 151.75 12.75 0
7 -7 -2 104.03 11.97 0
7 -6 -2 18.69 12.13 0
7 1 5 7.85 11.16 0
7 3 14 514.42 21.01 0
7 3 15 4.85 19.86 0
8 -9 -1 8.63 13.88 0
8 -5 -1 166.82 9.24 0
9 -9 0 189.04 15.24 0
9 -5 0 5.78 8.35 0
9 -1 4 256.61 12.54 0
9 1 9 196.6 13.71 0
10 -8 1 9.81 15.01 0
10 -7 1 -9.62 13 0
10 -6 1 78.04 12.12 0
10 -4 2 68.07 11.35 0
10 -3 3 48.08 12.42 0
10 -1 6 4.59 12.53 0
10 0 9 2.65 12.81 0
11 -6 3 -10.92 12.53 0
11 -5 3 136.25 10.3 0
11 -4 4 113.3 13.72 0
11 -3 5 30.77 13.91 0
11 -2 7 -2.63 12.73 0
-13 -5 7 80.58 14.93 0
-13 -3 8 43.92 16.16 0
-13 -1 11 13.54 15.87 0
-13 0 13 18.12 16.76 0
-12 -5 5 30.61 15.89 0
-12 1 13 223.75 16.03 0
-11 -4 4 46.45 15.24 0
-11 -1 7 101.23 11.18 0
-11 2 14 -6.1 12.46 0
-10 -8 2 537.1 19.95 0
-10 -7 2 245.21 17.64 0
-10 -6 2 162.14 15.56 0
-10 2 11 15.87 14.52 0
-10 3 15 154.67 16.31 0
-9 -6 1 312.15 16.61 0
-9 -2 3 520.55 16.32 0
-9 -1 4 -0.44 12.51 0
-9 1 7 30.03 13.21 0
-8 -6 0 89.69 14.49 0
-8 -2 2 265.84 14.51 0
-8 -1 3 158.58 13.89 0
-8 2 8 552.76 11.46 0
-8 4 15 49.32 15.32 0
-7 -7 -1 1095.84 23.87 0
-7 -1 2 5.41 12.12 0
-7 3 9 49.02 12.8 0
-7 4 13 170.81 14.06 0
-6 3 8 7.88 12.59 0
-6 4 11 546.11 14.68 0
-5 -5 -2 22.32 16.81 0
-5 -3 -1 8.13 13.34 0
-5 3 7 1.37 12.69 0
-5 4 10 85.12 13.4 0
-5 5 16 20.66 15.61 0
-4 -1 0 877.73 20.31 0
-4 5 14 390.71 15.65 0
-3 -3 -2 384.57 22.57 0
-3 1 2 3194.42 31.26 0
-3 5 13 237.45 15.71 0
-1 -12 -2 8.33 19.88 0
-1 4 8 568.27 16.69 0
0 2 3 44.01 22.29 0
0 4 8 247.54 16.72 0
1 -2 -2 723.22 24.2 0
2 -1 -1 99.67 21.92 0
3 -10 -3 56.05 14.37 0
3 -4 -3 133.31 13.85 0
4 3 7 767.63 20.77 0
5 -8 -3 20.92 12 0
5 -7 -3 -1.46 11.8 0
5 -6 -3 -4.2 11.64 0
5 1 3 163.17 14.61 0
6 1 4 1.12 12.29 0
7 -10 -1 177.4 13.96 0
7 -4 -1 569.41 12.77 0
7 2 8 387 13.72 0
8 -8 -1 8.54 12.51 0
8 -7 -1 30.61 12.25 0
8 -6 -1 150.84 9.12 0
8 -4 0 22.64 10.88 0
8 -1 3 126.81 11.59 0
8 1 7 152.03 13.43 0
8 2 11 5.78 13.4 0
9 -8 0 23.2 10.49 0
9 -7 0 4.55 11.93 0
9 -6 0 28.37 8.17 0
9 -4 1 305.46 11.43 0
9 -3 2 18.21 11.3 0
9 -2 3 51.45 12.29 0
9 1 10 11.48 12.5 0
10 -5 2 141.65 12.74 0
10 -2 5 27.28 11.9 0
10 0 10 11.97 15.72 0
11 -7 3 14.02 10.8 0
11 -5 4 6.12 12.88 0
11 -3 6 34.44 12.72 0
-13 -4 7 19.82 17.93 0
-13 -2 9 -1.93 12.81 0
-13 -1 10 64.44 15.66 0
-13 0 12 -2.69 14.95 0
-12 -3 6 29.89 15.97 0
-12 -2 7 85.79 15.55 0
-12 -1 8 531.95 15.75 0
-12 0 10 -15.67 13.8 0
-12 1 12 33.73 15.4 0
-11 -8 3 32.68 20.31 0
-11 -7 3 179.85 18.91 0
-11 -6 3 180.18 16.48 0
-11 0 8 -12.97 13.68 0
-11 1 10 533.51 14.8 0
-11 2 13 17.49 12 0
-10 -2 4 1495.33 19.09 0
-10 -1 5 508.03 16.25 0
-10 1 8 34.04 12.14 0
-10 3 14 39.25 16.41 0
-9 -9 1 25.43 20.74 0
-9 -5 1 51.45 14.61 0
-9 -3 2 233.83 14.73 0
-9 0 5 693.99 14.55 0
-9 2 9 90.62 10.08 0
-9 3 12 250.26 12.05 0
-9 4 17 16.14 16.62 0
-8 -9 0 65.8 20.99 0
-8 -3 1 23.14 12.13 0
-8 0 4 645.63 14.41 0
-8 3 10 23.4 14.12 0
-8 4 14 472.15 16.12 0
-7 -8 -1 164.09 20.91 0
-7 -6 -1 595.11 18.95 0
-7 -2 1 2128.84 21.1 0
-7 0 3 1046.79 16.18 0
-7 4 12 5.14 14.25 0
-6 -4 -1 83.28 13.18 0
-6 5 17 32.41 16.04 0
-6 5 18 4.13 17.32 0
-5 1 3 33.31 9.72 0
-5 5 15 -2.45 14.42 0
-4 0 1 -6.06 15.44 0
-4 2 4 518.11 16.58 0
-4 3 6 57.87 12.49 0
-4 4 9 15.65 11.74 0
-3 -11 -2 9.76 23.54 0
-2 4 8 41.26 12.95 0
-1 -10 -3 884.11 22.94 0
-1 -4 -3 2007.13 43.55 0
-1 -1 -1 9.35 27.97 0
-1 2 3 5726.62 47.3 0
-1 5 12 681.66 18.5 0
0 -12 -2 11.33 19.11 0
1 -12 -2 28.74 17.19 0
2 -10 -3 238.27 16.18 0
3 4 10 164.26 26.29 0
4 -11 -2 156.77 15.43 0
4 -9 -3 404.27 14.59 0
4 -5 -3 939.54 13.26 0
4 -3 -2 82.3 13.05 0
5 -10 -2 15.78 11.92 0
6 -11 -1 2.75 15.92 0
6 -9 -2 26.29 13.22 0
6 -5 -2 41.37 8.56 0
6 -3 -1 58.52 8.13 0
6 -2 0 202.98 12.01 0
6 -1 1 2054.83 18.69 0
7 -3 0 63.55 11.16 0
7 -1 2 101.66 11.28 0
8 -10 0 30.57 11.83 0
8 -3 1 806.52 13.4 0
8 -2 2 222.06 11.84 0
8 2 12 5.29 15.4 0
9 -9 1 38.33 15.39 0
9 -5 1 106.98 11.61 0
9 -1 5 15.24 11.91 0
9 0 7 36.28 12.56 0
9 1 11 11.6 15.41 0
10 -8 2 22.49 15.22 0
10 -7 2 6.03 13.27 0
10 -6 2 1810.29 17.24 0
10 -4 3 29.68 12.1 0
10 -3 4 102.47 12.93 0
10 -1 7 120.69 12.18 0
10 0 11 -0.15 16.51 0
11 -6 4 21.97 13.76 0
11 -4 5 396.14 14.19 0
11 -2 8 -3.82 13.6 0
-13 -5 6 -1.72 19.52 0
-12 -4 5 33.85 17.48 0
-11 -5 3 507.57 17.09 0
-11 -2 5 86.68 14.84 0
-11 -1 6 248.9 15.36 0
-11 2 12 1.98 13.84 0
-10 -5 2 114.02 14.22 0
-10 -3 3 470.63 14.78 0
-10 0 6 874.71 15.83 0
-10 2 10 158.13 13.75 0
-10 3 13 924.45 17.98 0
-9 3 11 11.64 14.01 0
-9 4 16 -0.86 16.06 0
-8 -5 0 953.27 18.22 0
-8 2 7 289.81 13.49 0
-8 4 13 92.54 14.21 0
-7 2 6 19.18 11.99 0
-6 -1 1 1305.4 16.16 0
-6 0 2 249.67 13.7 0
-6 2 5 536.25 13.78 0
-6 5 16 91.01 15.85 0
-5 5 14 59.05 14.27 0
-4 -2 -1 0.41 13.94 0
-4 5 13 153.27 14.85 0
-3 4 8 24.71 12.73 0
-3 5 12 430.93 16.02 0
-2 5 12 31.44 12.56 0
-1 3 5 814.27 20.87 0
0 -10 -3 66.34 15.25 0
0 3 5 24.73 17.87 0
1 -10 -3 528.32 17.35 0
1 5 13 17.28 20.64 0
2 -4 -3 815.44 18.07 0
3 -9 -3 -5.24 13.73 0
3 1 2 1556.01 25.97 0
4 -8 -3 13.12 11.52 0
4 -7 -3 258.22 12.03 0
4 -6 -3 78.15 12.06 0
5 -4 -2 85.42 8.22 0
6 -8 -2 130.21 12.02 0
6 -7 -2 29.37 11.91 0
6 -6 -2 -5.2 10.98 0
6 2 7 98.98 13 0
6 3 11 1425.23 22.66 0
7 -9 -1 3.42 11.78 0
7 -5 -1 261.75 8.88 0
7 -2 1 61.45 8.04 0
7 2 9 327.72 15.07 0
8 -9 0 69 12.63 0
8 -5 0 967.17 13.58 0
8 1 8 292.82 13.29 0
8 2 13 66.04 14.49 0
9 -8 1 108.47 14.49 0
9 -7 1 83.5 12.9 0
9 -6 1 297.16 12.89 0
9 -4 2 135.88 10.77 0
9 1 12 30.83 16.05 0
10 -5 3 31.6 12.58 0
10 -2 6 387.96 14.12 0
10 0 12 165.33 16.56 0
11 -5 5 145.92 14.66 0
11 -4 6 13.02 14.47 0
11 -3 7 14.11 13.35 0
11 -2 9 59.08 14.97 0
-13 -4 6 134.44 16.97 0
-13 -3 7 24.41 15.87 0
-13 -2 8 3.76 12.21 0
-13 -1 9 15.45 17.48 0
-13 0 11 232.2 15.42 0
-13 1 13 171.62 15.9 0
-12 -6 4 94.17 18.7 0
-12 -2 6 246.75 15.39 0
-12 0 9 -7.55 10.35 0
-12 1 11 310.36 12.41 0
-12 2 14 77.51 13.19 0
-11 -3 4 1118.54 15.64 0
-11 0 7 315.89 14.6 0
-11 1 9 400.58 11.43 0
-11 2 11 9.44 13.24 0
-11 3 15 36.45 16.88 0
-10 -4 2 505.01 15.47 0
-9 -4 1 668.8 16.48 0
-9 1 6 474.49 13.75 0
-9 2 8 460.96 13.6 0
-9 4 15 60.72 14.64 0
-8 1 5 135.04 9.69 0
-8 3 9 102.16 13.76 0
-7 -5 -1 637.66 18.87 0
-7 -3 0 54.5 12.69 0
-7 1 4 130.68 12.59 0
-7 3 8 143.44 10.12 0
-7 4 11 791.14 16.78 0
-7 5 17 13.29 16.57 0
-6 -2 0 193.15 11.11 0
-6 3 7 120.12 12.56 0
-6 4 10 6.99 9.97 0
-6 5 15 6.27 13.63 0
-5 4 9 162 13.94 0
-5 5 13 73.33 14.24 0
-2 2 3 3383.15 32.46 0
-2 3 5 3840.65 30.89 0
0 5 12 432.81 19.32 0
1 -4 -3 2435.45 27.74 0
1 -1 -1 12.85 16.14 0
1 4 8 26.73 18.53 0
3 -11 -2 289.76 15.3 0
3 -5 -3 145.41 13.28 0
3 2 4 71.61 17.07 0
4 -2 -1 1527.39 17.53 0
4 -1 0 894.47 18.93 0
4 4 12 10.45 18.81 0
5 -11 -1 7.43 14.83 0
5 -9 -2 250.1 14.12 0
5 3 9 108.25 15.01 0
6 -10 -1 88.71 13.15 0
6 -4 -1 246.65 11.78 0
7 -10 0 11 14.43 0
7 -8 -1 73.49 9.49 0
7 -7 -1 148.4 12.21 0
7 -6 -1 16.76 8.56 0
7 1 6 -0.98 11.05 0
8 -8 0 17.93 9.57 0
8 -7 0 402.51 13.63 0
8 -6 0 90.16 8.87 0
8 -4 1 499.89 12.27 0
8 -1 4 26.28 12.21 0
8 2 14 41.82 15.31 0
8 2 15 85.39 17.02 0
9 -9 2 2.91 13.98 0
9 -3 3 9.72 10.98 0
9 -2 4 10.36 9.17 0
9 -1 6 159.84 12.28 0
9 0 8 -9.11 13.07 0
9 1 13 344.34 16.99 0
9 1 14 62.65 17.42 0
10 -8 3 64.54 13.96 0
10 -7 3 47.97 13.26 0
10 -6 3 14.69 12.76 0
10 -4 4 45.99 12.7 0
10 -3 5 624.8 14.26 0
11 -6 5 251.65 11.45 0
11 -5 6 -8.24 13.73 0
11 -3 8 91.47 14.94 0
11 -2 10 103.52 14.51 0
-13 0 10 17.8 14.68 0
-12 -5 4 76.32 16.63 0
-12 -3 5 886.29 18.15 0
-12 -1 7 468.87 13.27 0
-12 1 10 -11.29 14.86 0
-12 2 13 405.7 16.35 0
-11 -4 3 49.73 15.42 0
-11 3 14 208.2 17.19 0
-10 -1 4 203.21 13.78 0
-10 1 7 11.24 9.11 0
-10 2 9 10.81 12.36 0
-10 3 12 9.83 10.61 0
-10 4 16 35.73 15.88 0
-9 -1 3 409.5 14.97 0
-9 3 10 308.08 14.9 0
-9 4 14 351.59 12.62 0
-8 -4 0 15.6 13 0
-8 4 12 155.05 13.42 0
-7 -9 -1 6.8 22.75 0
-7 5 16 85.28 15.46 0
-6 1 3 2597.4 21.32 0
-6 5 14 13.61 14.04 0
-5 2 4 264.55 13.76 0
-5 3 6 845.68 15.24 0
-4 1 2 455.66 14.21 0
-4 4 8 892.98 16.38 0
-4 5 12 4.29 12.97 0
-3 -8 -3 1331.31 38.43 0
-3 3 5 8.55 13.22 0
-2 -9 -3 -1.01 17.86 0
-2 5 11 40.42 14.58 0
0 -4 -3 211.67 16.82 0
2 -11 -2 43.48 14.64 0
2 -9 -3 154.67 13.13 0
3 -8 -3 8.15 12.18 0
3 -7 -3 -8.24 10.74 0
3 -6 -3 1442.32 17.8 0
3 -3 -2 53.68 10.1 0
4 -10 -2 6.93 12.33 0
5 -8 -2 45.57 11.94 0
5 -5 -2 1662.94 15.25 0
5 -3 -1 329.48 9.99 0
5 2 6 729.12 17.76 0
6 -11 0 8.15 15.74 0
6 -9 -1 68.29 12.3 0
6 1 5 567.54 14.01 0
6 3 12 27.96 14.33 0
7 -4 0 270.87 9.05 0
7 2 10 408.99 15.32 0
8 -9 1 132.08 14.4 0
8 -3 2 5.92 10.38 0
8 -2 3 579.15 13 0
8 1 9 1.98 12.65 0
9 -8 2 106.32 14.62 0
9 -6 2 -0.39 10.76 0
9 -5 2 143.07 8.87 0
9 0 9 60.92 12.45 0
10 -5 4 4.78 11.95 0
10 -2 7 577.46 14.64 0
11 -6 6 36.42 15.59 0
11 -4 7 77.37 11.14 0
11 -3 9 18.85 15.99 0
-14 -2 9 41.47 13.5 0
-13 -5 5 3.5 19.31 0
-13 -3 6 641.83 19.45 0
-13 -2 7 125.67 17.02 0
-13 -1 8 455.76 18.07 0
-13 1 12 -7.32 11.9 0
-12 -4 4 169.41 17.48 0
-12 0 8 258.65 11.79 0
-12 2 12 16.92 15.66 0
-11 -2 4 -20.26 15.06 0
-11 -1 5 40.48 14.78 0
-11 1 8 473.78 14.27 0
-11 2 10 450.88 15.6 0
-11 3 13 -11.84 16.53 0
-10 -7 1 111.08 18.11 0
-10 -2 3 13.99 13.06 0
-10 0 5 -14.14 12.98 0
-10 3 11 657.49 16.35 0
-10 4 15 9.28 16.66 0
-9 -2 2 111.03 10.71 0
-9 0 4 8.3 9.15 0
-9 2 7 4.64 12.62 0
-9 4 13 -7.11 13.75 0
-8 -2 1 2.31 12.96 0
-8 -1 2 106.14 9.73 0
-8 0 3 8.89 11.71 0
-8 2 6 86.65 12.07 0
-8 3 8 -5.04 11.47 0
-8 4 11 66.4 13.43 0
-8 5 17 260.14 18.13 0
-7 2 5 644.99 13.84 0
-7 4 10 9.56 13.11 0
-7 5 15 251.88 12.02 0
-6 -7 -2 221.48 20.82 0
-6 -3 -1 721.02 18.52 0
-6 4 9 352.04 14.81 0
-6 5 13 202.47 14.93 0
-5 -1 0 498.81 16.15 0
-5 0 1 75.14 14.45 0
-5 5 12 888.85 17.3 0
-4 -10 -2 15.55 27.09 0
-3 2 3 56.32 15.29 0
-3 5 11 381.18 14.58 0
-2 -11 -2 13.22 18.49 0
-1 5 11 547.12 17.88 0
1 -11 -2 108.63 16.62 0
1 -9 -3 2.04 12.39 0
2 -5 -3 944.32 17.98 0
3 -10 -2 -1.02 13.37 0
4 -11 -1 57.38 14.8 0
4 -9 -2 17.48 11.91 0
4 -4 -2 123.62 9.14 0
4 1 3 1130.79 19.8 0
4 2 5 164.27 15.9 0
5 -10 -1 7.02 13.55 0
5 -7 -2 1330.29 16.03 0
5 -6 -2 122.83 9.3 0
5 -2 0 201.62 12.96 0
5 -1 1 1273 17.78 0
6 -8 -1 65.02 11.86 0
6 -5 -1 332.37 12.23 0
6 -3 0 121.67 11.39 0
7 -9 0 9.86 9.44 0
7 -5 0 257.52 11.43 0
7 -3 1 210.89 11.95 0
7 -2 2 116.2 10.65 0
7 -1 3 82.49 8.8 0
7 1 7 -3.78 12.98 0
8 -8 1 302.04 14.26 0
8 -6 1 16.64 10.61 0
8 -5 1 256.28 9.32 0
9 -9 3 11.1 14.35 0
9 -7 2 292.34 10.42 0
9 -4 3 8.51 10.84 0
9 -3 4 467.64 13.52 0
9 -2 5 994.99 14.62 0
9 -1 7 57.22 12.2 0
10 -8 4 21.09 10.83 0
10 -7 4 32.83 12.95 0
10 -6 4 206.6 10.21 0
10 -4 5 31.64 9.68 0
10 -3 6 32.24 10.2 0
10 -2 8 443.17 14.79 0
10 -1 11 379.27 15.52 0
11 -5 7 28.91 11.72 0
11 -4 8 25.86 11.33 0
-13 -4 5 205.32 16.83 0
-13 0 9 300.48 16.7 0
-13 1 11 29.9 16.3 0
-12 -7 3 33.01 20.33 0
-12 -2 5 23.46 14.82 0
-12 -1 6 24.88 15.27 0
-12 1 9 5.78 14.13 0
-11 -8 2 58.72 20.64 0
-11 -7 2 38.38 18.3 0
-11 -6 2 13.88 16.41 0
-11 -3 3 26.97 14.26 0
-11 0 6 -11.36 12.94 0
-11 3 12 35.23 14.62 0
-10 -8 1 77.28 20.5 0
-10 -6 1 11.81 15.68 0
-10 -3 2 112.8 14.18 0
-10 1 6 309.44 13.31 0
-10 2 8 918.94 15.89 0
-10 4 14 27.16 15.98 0
-9 -7 0 3.74 14.72 0
-9 -6 0 14.08 14.8 0
-9 -3 1 224.3 14.25 0
-9 1 5 487.37 13.43 0
-9 3 9 -2.46 13.34 0
-9 4 12 3.43 14.44 0
-8 -10 0 24.6 22.72 0
-8 1 4 258.85 13.13 0
-8 5 15 31.37 14.48 0
-8 5 16 93.94 15.86 0
-7 -4 -1 8.81 13.86 0
-7 -1 1 466.78 14.67 0
-7 0 2 11.05 11.62 0
-7 3 7 10.27 9.03 0
-7 5 14 -4.59 13.4 0
-6 -6 -2 33.68 16.05 0
-6 3 6 11.23 11.84 0
-5 -11 -1 186.85 36.11 0
-5 -4 -2 1110.69 20.66 0
-5 4 8 16.47 11.77 0
-4 3 5 1637.45 19.31 0
-4 5 11 269.29 13.98 0
-2 -1 -1 114.61 19.4 0
-2 0 0 364.55 24.28 0
-2 4 7 29.35 12.93 0
-1 -11 -2 133.76 17.97 0
-1 -9 -3 113.31 15.79 0
0 -11 -2 71.24 15.22 0
0 -9 -3 44.33 12.82 0
0 -1 -1 516.18 35.88 0
1 -12 -1 28.51 16.64 0
2 -8 -3 1055.05 17.11 0
2 -6 -3 194.07 12.7 0
3 -2 -1 416.06 17.96 0
5 -11 0 8.01 14.87 0
5 1 4 3426.02 26.19 0
6 -10 0 23.23 13.86 0
6 -7 -1 332 13.31 0
6 -6 -1 52.73 10.82 0
6 -2 1 -1.2 7.68 0
6 -1 2 1240.58 13.82 0
6 2 8 28.39 11.32 0
6 3 13 182.11 15.89 0
7 -10 1 39.26 13.64 0
7 -8 0 180.42 10.44 0
7 -7 0 116.5 12.39 0
7 -6 0 40.49 11.14 0
7 2 11 8.01 14.55 0
8 -7 1 156.27 10.21 0
8 -4 2 323.91 12.31 0
8 -1 5 615.92 14.43 0
8 0 7 15.91 11.43 0
8 1 10 20.46 12.76 0
9 -8 3 -9.7 13.98 0
9 -5 3 150.25 12.28 0
9 0 10 2.2 12.52 0
10 -7 5 17.2 12.84 0
10 -6 5 14.4 12.42 0
10 -5 5 12.77 11.72 0
10 -4 6 73.67 14.03 0
10 -3 7 15.11 13.86 0
10 -2 9 16.86 12.79 0
10 -1 12 55.39 16.16 0
11 -4 9 31.95 11.26 0
-14 -3 7 564.01 20.47 0
-14 -2 8 74.2 13.27 0
-14 -1 9 221.97 18.81 0
-13 -2 6 19.32 15.22 0
-13 -1 7 25.14 15.6 0
-12 -6 3 -3.3 16.19 0
-12 -5 3 84.02 16.24 0
-12 -3 4 129.69 16.32 0
-12 0 7 22.57 13.71 0
-12 2 11 60.88 11.59 0
-12 3 14 -7.75 16.25 0
-11 -5 2 34.39 14.77 0
-11 1 7 93 13.72 0
-11 2 9 23.67 13.67 0
-10 -5 1 62.76 13.91 0
-10 3 10 9.12 10.26 0
-10 4 13 90.69 14.46 0
-9 -8 0 37.64 18.3 0
-9 -5 0 10.23 13.94 0
-8 -3 0 51.09 12.79 0
-8 4 10 61.34 14.35 0
-7 -2 0 177.32 13.56 0
-7 1 3 6.95 11.8 0
-7 4 9 1481.4 17.97 0
-7 5 13 191.24 15.53 0
-6 -8 -2 6.5 22.83 0
-6 2 4 395.3 10.78 0
-6 5 12 543.15 14.66 0
-5 -2 -1 619.74 17.88 0
-5 1 2 1647.55 17.54 0
-5 5 11 90.09 12.37 0
-4 -3 -2 161.98 16.7 0
-4 2 3 245.07 15.25 0
-3 4 7 214 13.8 0
-1 4 7 321.58 15.25 0
0 -12 -1 131.82 18.4 0
0 5 11 9.56 16.16 0
1 -8 -3 657.54 17.35 0
1 -5 -3 619.76 17.01 0
2 -10 -2 541.49 15.84 0
2 -7 -3 1027.96 15.92 0
2 -3 -2 8.23 14.23 0
3 -11 -1 115.68 14.63 0
4 -8 -2 510.21 13.62 0
4 -5 -2 30.48 8.48 0
4 3 8 5 14.21 0
4 4 13 16.51 18.68 0
5 -9 -1 4.44 12.36 0
5 -4 -1 289.69 9.31 0
5 3 10 163.8 16.17 0
6 -9 0 70.8 11.85 0
6 -4 0 11.26 10.21 0
6 3 14 5.17 16.49 0
7 -9 1 14.68 12.9 0
7 -4 1 -1.2 11.11 0
8 -9 2 6.58 10.48 0
8 -5 2 15.27 10.37 0
8 -3 3 667.98 12.92 0
8 -2 4 10.74 11.5 0
8 1 11 1433.54 18.87 0
9 -7 3 79.56 9.15 0
9 -6 3 282.55 10 0
9 -4 4 60.95 11.84 0
9 -3 5 8.89 11.64 0
9 -2 6 -6.91 11.94 0
9 0 11 109.21 14.5 0
10 -5 6 18.91 12.49 0
10 -3 8 49.86 12.63 0
10 -2 10 2.17 13.43 0
-14 0 10 62.39 18.56 0
-13 -5 4 368.73 18.82 0
-13 -3 5 38.23 16.62 0
-13 0 8 -0.01 16.73 0
-13 1 10 66.5 11.83 0
-13 2 12 12.36 16.38 0
-12 1 8 501.06 15.97 0
-12 2 10 -11.59 14.92 0
-12 3 13 184.03 17.43 0
-11 -4 2 184.98 16.6 0
-11 -1 4 12.14 14.54 0
-11 3 11 12.44 13.95 0
-10 -4 1 5.79 14.16 0
-10 -1 3 8.21 13.5 0
-10 0 4 15.05 13.52 0
-10 2 7 28.6 12.79 0
-9 -1 2 485.23 14.4 0
-9 0 3 129.22 12.32 0
-9 2 6 115.04 12.83 0
-9 3 8 28.53 12.67 0
-9 4 11 336.45 14.32 0
-9 5 16 -2.42 15.71 0
-8 -7 -1 152.16 16.81 0
-8 -6 -1 14 15.72 0
-8 2 5 466.93 13.58 0
-8 3 7 556.62 13.66 0
-8 5 14 11.18 11.37 0
-7 5 12 11.83 12.82 0
-6 -5 -2 107.23 14.96 0
-6 0 1 4.37 12.03 0
-6 4 8 241.9 10.72 0
-6 5 11 19.28 12.2 0
-5 3 5 3.44 11.24 0
-5 6 17 -2.64 17.63 0
-5 6 18 1.85 17.3 0
-4 4 7 106.84 12.22 0
-4 5 10 49.42 12.57 0
-4 6 17 38.96 15.87 0
-4 6 18 257.86 18.7 0
-3 0 0 2 18.19 0
-3 5 10 1246.94 18.08 0
-3 6 17 25.24 17.51 0
-3 6 18 2.09 16.77 0
-2 5 10 3.48 11.72 0
-2 6 18 81.5 21.39 0
-1 -12 -1 80.53 19.17 0
0 -8 -3 5.97 13.98 0
1 -7 -3 126.16 14.12 0
1 5 12 6.51 21.4 0
3 -9 -2 5.26 11.57 0
3 -4 -2 31.43 8.65 0
3 -1 0 2704.29 25.64 0
4 -10 -1 61.55 12.4 0
4 -7 -2 2.15 8.67 0
4 -6 -2 290.77 9.89 0
4 -3 -1 1117.89 14.56 0
5 -10 0 166.21 12.91 0
5 -8 -1 194.48 12.55 0
5 -5 -1 95.24 11.38 0
6 1 6 437.93 13.29 0
6 3 15 657.98 20.94 0
6 3 16 18.63 18.77 0
7 -10 2 18.84 14.96 0
7 -8 1 152.47 12.53 0
7 -5 1 616.03 12.62 0
7 -3 2 577.19 12.79 0
7 -1 4 2029.64 18.43 0
7 1 8 470.04 13.69 0
7 2 12 82.4 13.81 0
8 -8 2 306.53 11.32 0
8 -7 2 28.38 12.35 0
8 -6 2 259.47 12.08 0
8 -1 6 129.43 12.3 0
8 0 8 480.15 14.19 0
8 1 12 381.48 14.47 0
9 -8 4 -4.16 14.52 0
9 -7 4 24.1 11.95 0
9 -5 4 181.32 11.88 0
9 -2 7 124.57 12.2 0
9 0 12 2.73 13.44 0
9 0 13 -10.85 15.66 0
9 0 14 1.04 17.3 0
10 -7 6 57.21 13.48 0
10 -6 6 184.12 13.33 0
10 -4 7 401.59 14.32 0
10 -2 11 -12.64 14.83 0
-14 -3 6 17.57 16.77 0
-14 -2 7 6.69 16.31 0
-14 -1 8 204.44 18.33 0
-13 -4 4 20.5 15.96 0
-13 1 9 16.55 14.32 0
-12 -4 3 -2.43 14.2 0
-12 -2 4 245.1 15.71 0
-12 -1 5 18.01 15.12 0
-12 0 6 98.11 15.04 0
-12 3 12 -28.27 16.75 0
-11 -2 3 116.03 13.9 0
-11 0 5 503.19 12.28 0
-11 2 8 118.25 14.09 0
-11 4 14 21.7 15.08 0
-10 -2 2 691.84 15.15 0
-10 1 5 508.19 14.48 0
-10 3 9 56.62 10.48 0
-10 4 12 852.75 14.36 0
-9 -9 0 181.34 22 0
-9 -4 0 226 14.71 0
-9 -2 1 723.16 16.36 0
-9 1 4 20.72 11.21 0
-9 5 15 154.13 12.57 0
-8 -8 -1 325.13 21.04 0
-8 -5 -1 243.14 14.38 0
-8 0 2 702.56 14.71 0
-8 4 9 303.38 14.42 0
-8 5 13 138.73 14.28 0
-7 2 4 14.99 11.5 0
-7 3 6 724.8 11.88 0
-6 -1 0 95.73 10.04 0
-6 1 2 5.64 12.03 0
-6 6 17 14.34 15.62 0
-5 2 3 94.81 12.96 0
-5 4 7 68.04 12.95 0
-5 5 10 65.39 12.47 0
-5 6 16 -4.8 15.91 0
-4 6 16 365.93 16.83 0
-3 -1 -1 909.64 23.03 0
-3 6 16 39.06 15.02 0
-2 -8 -3 4.59 17.45 0
-2 1 1 90.61 21.9 0
-2 6 16 279.92 18.61 0
-2 6 17 25.88 18.12 0
-1 -8 -3 583.06 18.78 0
-1 5 10 69.69 15.06 0
0 -5 -3 82.99 16.32 0
0 4 7 476.26 20.51 0
1 -10 -2 38.79 13.29 0
1 -6 -3 77.11 12.74 0
2 -11 -1 7.51 14.1 0
2 1 2 41.61 18.08 0
3 -8 -2 83.67 11.89 0
4 -11 0 59.25 13.61 0
5 -11 1 171.12 15.59 0
5 -7 -1 369.93 13.12 0
5 -6 -1 46.44 11.84 0
5 -3 0 3125.97 21.4 0
5 2 7 1302.25 20.11 0
6 -10 1 -0.88 12.82 0
6 -8 0 196.72 9.89 0
6 -7 0 138.45 12.53 0
6 -6 0 13.53 10.67 0
6 -5 0 42.39 10.51 0
6 -3 1 732.86 13.64 0
6 2 9 12.82 11.68 0
7 -7 1 1052.38 14.91 0
7 -6 1 602.91 13.33 0
7 -2 3 156.37 8.4 0
7 2 13 65.65 13.72 0
7 2 14 -4.38 16.02 0
8 -9 3 33.55 10.96 0
8 -4 3 811.73 13.22 0
8 -2 5 15.23 11.21 0
8 1 13 120.04 15.57 0
8 1 14 29.31 16.44 0
9 -6 4 -4.49 8.54 0
9 -4 5 1175.12 14.79 0
9 -3 6 405.22 13.41 0
10 -6 7 3.61 14.86 0
10 -5 7 215.55 11.83 0
10 -4 8 46.45 14.62 0
10 -3 9 23.39 9.95 0
10 -3 10 10.02 13.69 0
10 -2 12 41.89 16.86 0
-14 0 9 -9.67 13.23 0
-13 -2 5 230.28 16.59 0
-13 -1 6 14.74 16.28 0
-13 0 7 18.75 15.45 0
-13 2 11 128.48 12.04 0
-12 -3 3 71.14 15.07 0
-12 1 7 464.03 14.5 0
-12 2 9 133.98 15.12 0
-11 -3 2 22.54 15.61 0
-11 1 6 260.92 10.5 0
-11 3 10 21.48 10.72 0
-11 4 13 27.57 14.9 0
-10 -3 1 200.81 13.96 0
-10 4 11 29.04 14.65 0
-9 4 10 78.25 10.25 0
-9 5 14 457.81 13.53 0
-8 -1 1 152.44 9.67 0
-8 1 3 155.18 11.88 0
-8 5 12 26.9 13.37 0
-7 -3 -1 217.32 13.72 0
-7 4 8 373.03 11.18 0
-7 5 11 93.83 13.49 0
-7 6 17 146.04 18.84 0
-6 3 5 140.9 12.03 0
-6 6 16 242.02 16.96 0
-5 6 15 255.92 16.01 0
-4 0 0 75.48 16.3 0
-4 6 15 27.61 14.3 0
-3 -7 -3 279.45 28.35 0
-3 1 1 546.46 20.59 0
-3 6 15 291.94 15.96 0
-1 1 1 13.52 22.91 0
0 -10 -2 197.57 15.38 0
0 -7 -3 545.13 17.37 0
1 3 5 161.65 32.14 0
2 -9 -2 10.36 12.37 0
3 -10 -1 1.65 12.64 0
3 -7 -2 1581.67 17.59 0
3 -5 -2 1960.39 19.68 0
4 -9 -1 57 11.39 0
4 -2 0 1004.81 14.92 0
4 -1 1 128.86 14.61 0
4 4 14 677.72 25.28 0
5 -9 0 547.82 13.27 0
5 -2 1 659.15 14.58 0
6 -9 1 209.74 12.58 0
6 -2 2 109.39 11.23 0
6 -1 3 88.96 8.41 0
7 -10 3 103.3 13.66 0
7 -9 2 359.66 13.4 0
7 -4 2 7.07 10.59 0
7 1 9 423.49 14.45 0
7 2 15 5.97 14.17 0
7 2 16 10.74 15.99 0
8 -9 4 -3.08 14.03 0
8 -8 3 125.77 10.31 0
8 -7 3 210.76 12.76 0
8 -6 3 64.66 11.54 0
8 -5 3 263.75 11.22 0
8 -3 4 6.83 7.89 0
8 -1 7 154.56 11.74 0
8 0 9 -7.33 12.26 0
8 1 15 481.97 18.17 0
9 -8 5 732.46 12.75 0
9 -7 5 25.53 12.96 0
9 -6 5 116.51 12.53 0
9 -5 5 136.14 11.75 0
9 -2 8 -1.41 12.44 0
10 -6 8 401.5 16.74 0
10 -5 8 189.49 14.33 0
10 -4 9 -6.45 14.44 0
10 -3 11 31.61 15.31 0
-14 -2 6 129.63 18.66 0
-14 -1 7 196.53 18.68 0
-13 -3 4 125.82 17.54 0
-13 1 8 428.92 15.36 0
-13 2 10 -1.52 16.08 0
-12 -6 2 385.42 19.61 0
-12 -5 2 0.78 15.22 0
-12 3 11 464.17 13.23 0
-11 -7 1 -3.21 16.64 0
-11 -6 1 331.54 17.46 0
-11 -5 1 163.86 17.27 0
-11 2 7 101.71 13.68 0
-11 3 9 17.44 12.96 0
-11 4 12 -12.32 16.39 0
-10 -6 0 205.35 18.13 0
-10 2 6 18.99 11.8 0
-10 3 8 8.16 12.2 0
-10 5 15 58.17 15.65 0
-9 2 5 931.22 15.09 0
-9 3 7 12.62 8.69 0
-9 5 13 93.22 14.7 0
-8 -4 -1 475.17 15.47 0
-8 -2 0 100.43 13.03 0
-8 3 6 9.01 11.49 0
-7 0 1 132.65 11.51 0
-7 6 16 3.84 16.61 0
-6 -4 -2 148.53 15.06 0
-6 -2 -1 2.38 12.41 0
-6 2 3 83.37 11.8 0
-6 4 7 28.78 9.69 0
-6 5 10 28.37 8.68 0
-6 6 15 98.57 15.76 0
-5 6 14 0.05 14.55 0
-4 -1 -1 128.15 15.48 0
-4 1 1 53.52 14.73 0
-4 3 4 0.56 11.65 0
-4 5 9 128.26 12.38 0
-4 6 14 3.31 13.85 0
-3 -10 -2 70.15 18.84 0
-3 3 4 493.52 12.91 0
-3 5 9 115.53 12.34 0
-3 6 14 50.62 15.71 0
-2 3 4 20.92 13.68 0
-2 6 15 6.7 14.95 0
-1 -10 -2 357.08 16.93 0
-1 -5 -3 945.92 26.31 0
-1 6 17 828.4 25.84 0
-1 6 18 -2.41 19.46 0
0 -6 -3 71.15 12.42 0
1 -12 0 5.96 16.6 0
1 -11 -1 75.34 14.41 0
1 -3 -2 232.91 16.46 0
2 -4 -2 16.79 13.24 0
2 -2 -1 1990.65 27.02 0
3 -11 0 224.64 14.83 0
3 -6 -2 63.29 8.65 0
3 3 7 2.21 14.64 0
4 -10 0 207.56 13.63 0
4 -8 -1 714.96 14.15 0
4 -4 -1 824.13 12.36 0
5 -4 0 168.47 10.8 0
5 -1 2 36.8 8.73 0
5 1 5 729.27 16.11 0
5 3 11 123.6 14.51 0
6 -10 2 -2.05 14.14 0
6 -4 1 88.27 11.11 0
6 2 10 277.25 14.68 0
7 -8 2 103.28 12.22 0
7 -5 2 420.72 11.87 0
7 -3 3 -6.05 10.11 0
7 -1 5 24.65 12.02 0
8 -4 4 201.28 12.04 0
8 0 10 339.73 14.48 0
9 -8 6 6.84 14.48 0
9 -5 6 138.05 11.87 0
9 -4 6 244.99 10.14 0
9 -3 7 12.01 8.75 0
9 -2 9 40.48 12.36 0
9 -1 11 12.24 9.59 0
9 -1 12 42.84 15.15 0
10 -5 9 63.11 14.96 0
10 -4 10 -7.66 15.01 0
-14 -3 5 191.78 18.41 0
-14 0 8 128.12 13.24 0
-13 -5 3 187.1 19.54 0
-12 -4 2 54.06 14.54 0
-12 -1 4 0.78 15.28 0
-12 0 5 28.38 14.66 0
-12 2 8 90.28 14.1 0
-12 3 10 0.52 14.74 0
-12 4 13 83.35 16.06 0
-11 -1 3 175.93 11.56 0
-11 0 4 3.8 9.79 0
-11 1 5 34.11 13.39 0
-10 -7 0 185.03 17.78 0
-10 -5 0 163.76 15.26 0
-10 -1 2 56.91 12.99 0
-10 0 3 8.15 12.39 0
-10 1 4 198.7 12.72 0
-10 4 10 48.7 14.63 0
-10 5 14 19.35 12.39 0
-9 -3 0 303.67 13.94 0
-9 4 9 8.7 9.68 0
-9 5 12 -13.67 14.67 0
-8 2 4 366.16 10.34 0
-8 4 8 864.06 13.44 0
-8 5 11 6.67 13.62 0
-8 6 16 303.25 16.56 0
-7 -6 -2 62.45 15.41 0
-7 -1 0 337.96 13.99 0
-7 1 2 -0.35 10.91 0
-7 3 5 32.66 11.33 0
-7 4 7 321.15 12.42 0
-7 5 10 38.25 12.82 0
-7 6 15 131.31 16.22 0
-6 6 14 959.63 18.79 0
-5 -3 -2 2174.88 25.95 0
-5 5 9 4.51 12.12 0
-4 4 6 11.98 12.49 0
-4 6 13 53.99 14.78 0
-3 4 6 585.15 12.95 0
-2 -10 -2 20.11 16.81 0
-2 -5 -3 39.8 22.44 0
-2 4 6 426.46 15.4 0
-2 5 9 2118.74 22.55 0
-2 6 14 14.37 14.42 0
-1 -7 -3 1268.56 23.49 0
-1 3 4 4.81 16.88 0
-1 6 16 1.05 17.47 0
0 -11 -1 61.91 15.39 0
1 -9 -2 12.84 12.6 0
2 -10 -1 405.34 14.1 0
2 -8 -2 14.36 11.92 0
3 -9 -1 58.97 11.65 0
3 -3 -1 -1.81 13.34 0
4 -11 1 154.23 15.26 0
4 -7 -1 13.8 11.92 0
4 -5 -1 68.13 11.5 0
4 4 15 -2.97 18.14 0
4 4 16 375.4 24.39 0
4 4 17 -2.96 20.85 0
5 -11 2 11.9 14.96 0
5 -10 1 74.26 10.36 0
5 -8 0 6.11 12.43 0
6 -8 1 15.54 9.14 0
6 -7 1 808.68 13.79 0
6 -5 1 1303.02 14.53 0
6 1 7 441.95 13.12 0
7 -10 4 87.69 15.45 0
7 -9 3 9.49 14.17 0
7 -7 2 74.85 8.81 0
7 -6 2 51.56 10.99 0
7 -2 4 118.78 8.85 0
7 0 7 9.64 10.69 0
7 1 10 373.41 14.18 0
8 -9 5 78.39 15.34 0
8 -8 4 6.81 9.97 0
8 -7 4 7.99 12.15 0
8 -6 4 99.57 11.13 0
8 -5 4 470.71 12.74 0
8 -3 5 170.21 9.07 0
8 -2 6 442.15 10.52 0
8 0 11 2.77 12.1 0
9 -7 6 133.49 10.44 0
9 -6 6 8.99 11.86 0
9 -4 7 -22.65 12.96 0
9 -3 8 632.28 15.37 0
9 -2 10 44.58 12.65 0
9 -1 13 364.14 16.81 0
9 -1 14 44.11 16.61 0
10 -5 10 19.01 12.22 0
10 -4 11 4.01 11.71 0
-14 -1 6 28.08 15.92 0
-14 1 9 207.85 13.42 0
-13 -4 3 58.22 18.08 0
-13 -2 4 27.87 16.19 0
-13 -1 5 41.78 11.98 0
-13 0 6 10.02 11.35 0
-13 2 9 19.54 15.76 0
-13 3 11 0.7 15.19 0
-12 -2 3 75.75 10.57 0
-12 1 6 7.23 10.48 0
-11 -4 1 470.38 15.31 0
-11 -2 2 280.21 11.31 0
-11 3 8 160.19 13.57 0
-11 4 11 88.22 11.65 0
-10 -8 0 55.08 20.52 0
-10 -4 0 212.03 16.35 0
-10 -2 1 81.95 13.42 0
-10 3 7 272.1 13.5 0
-10 5 13 -7.5 14.82 0
-9 -6 -1 317.02 18.31 0
-9 -1 1 434.35 14.89 0
-9 0 2 4.77 9.16 0
-9 1 3 412.02 12.91 0
-9 3 6 91.78 12.57 0
-8 6 15 74.45 15.62 0
-7 -7 -2 66.86 18.47 0
-7 -5 -2 416.2 17.85 0
-7 2 3 21.08 11.35 0
-7 6 14 1.08 15.44 0
-6 5 9 384.74 13.88 0
-6 6 13 33.03 13.15 0
-5 0 0 -2.98 9.65 0
-5 1 1 106.94 13.91 0
-5 3 4 417.23 10.53 0
-5 4 6 1629.7 18.02 0
-5 6 13 297.47 14.73 0
-3 2 2 221.76 17.44 0
-3 6 13 137.42 13.86 0
-2 -7 -3 103.94 17.98 0
-1 -6 -3 735.88 20.52 0
-1 6 15 275.03 19.64 0
0 -12 0 1230.71 21.93 0
0 5 10 48.11 16.02 0
2 -11 0 5.82 13.16 0
2 -7 -2 142.51 11.68 0
2 -5 -2 19.65 11.94 0
2 5 17 0.52 31.97 0
3 1 3 662.59 19.73 0
4 -9 0 9.61 11.22 0
4 -6 -1 17.24 8.4 0
4 1 4 584.6 17.03 0
4 2 6 122.88 12.92 0
4 3 9 380.64 18.08 0
5 -7 0 122.05 11.43 0
5 -6 0 6.86 11.2 0
5 -5 0 18.98 7.63 0
5 3 12 9.72 14.24 0
6 -10 3 2.21 12.94 0
6 -9 2 -15.37 12.75 0
6 -6 1 126.73 8.36 0
6 -3 2 205.13 11.39 0
6 -1 4 -9.31 10.63 0
6 2 11 20.24 13.87 0
7 -8 3 2.08 13.12 0
7 -4 3 28.22 11.07 0
8 -8 5 -6.59 13.59 0
8 -4 5 12.08 11.5 0
8 -2 7 415.92 12.77 0
8 0 12 106.13 13.76 0
9 -7 7 5.01 14.14 0
9 -6 7 71.26 13.86 0
9 -5 7 -0.5 12.92 0
9 -4 8 30.12 12.59 0
9 -3 9 72.73 13.44 0
9 -2 11 80.94 14.79 0
-14 -2 5 -5.24 17.75 0
-14 0 7 1.21 16.35 0
-13 -3 3 6.09 14.98 0
-13 1 7 51 11.24 0
-12 -3 2 12.93 15.77 0
-12 2 7 99.49 14 0
-12 3 9 64.32 14.12 0
-12 4 12 -5.97 12.9 0
-11 -3 1 4.54 13.75 0
-11 2 6 -6.36 9.31 0
-11 4 10 726.94 17.47 0
-10 2 5 21.79 9.16 0
-10 4 9 13.91 13.23 0
-10 5 12 28.89 15.45 0
-9 -7 -1 86.62 17.9 0
-9 -5 -1 112.67 14.5 0
-9 -2 0 91.11 12.46 0
-9 2 4 39.77 11.93 0
-9 4 8 107.21 9.4 0
-9 5 11 173.84 10.8 0
-8 -9 -1 130.93 24.69 0
-8 -3 -1 786.68 16.56 0
-8 0 1 -11.26 12.41 0
-8 1 2 93.12 11.51 0
-8 3 5 123.66 11.65 0
-8 4 7 477.65 14.49 0
-8 5 10 376.35 13.99 0
-8 6 14 88.64 14.56 0
-7 -2 -1 57.31 12.74 0
-7 5 9 205.01 13.4 0
-7 6 13 64.12 13.88 0
-6 3 4 3 11.1 0
-6 4 6 -3.38 12.38 0
-5 -9 -2 591.88 39.12 0
-5 -1 -1 1303.75 19.86 0
-5 6 12 162.8 13.05 0
-4 -11 -1 170.3 22.01 0
-4 2 2 151.23 10.68 0
-4 6 12 35.45 11.87 0
-3 -6 -3 112.04 26.51 0
-3 -2 -2 2.3 16.95 0
-2 -6 -3 10.25 17.58 0
-2 2 2 101.7 13.25 0
-2 6 13 -0.03 13.93 0
-1 -12 0 19.31 16.37 0
-1 -11 -1 29.97 15.32 0
-1 4 6 35.22 15.24 0
-1 5 9 201.09 14.95 0
0 -9 -2 89.46 14.19 0
2 -6 -2 1347.51 18.12 0
2 -1 0 15.37 20.75 0
3 -11 1 3.75 12.83 0
3 -10 0 50.16 13.06 0
3 -8 -1 4.3 11.34 0
3 4 11 194.35 19.89 0
4 -10 1 11.16 11.95 0
4 -3 0 394.92 11.13 0
5 -11 3 20.99 15.19 0
5 -10 2 159.62 13.94 0
5 -9 1 102.21 9.18 0
5 -3 1 2.24 7.68 0
5 2 8 327.42 13.24 0
6 -8 2 13.86 11.48 0
6 -2 3 196.43 8.64 0
7 -9 4 5.22 12.84 0
7 -7 3 22.42 11.5 0
7 -6 3 3.01 11.28 0
7 -5 3 56.41 11.45 0
7 -3 4 333.49 11.84 0
7 -2 5 12.49 10.85 0
7 -1 6 1.88 8.37 0
7 0 8 -17.55 12.24 0
7 1 11 251.92 13.05 0
8 -9 6 19.47 11.5 0
8 -7 5 578.25 14.44 0
8 -6 5 -7.28 12.04 0
8 -5 5 362.1 12.44 0
8 -3 6 26.79 8.47 0
8 0 13 9.39 14.46 0
8 0 14 4.27 13.7 0
8 0 15 1.76 16.9 0
9 -7 8 33.54 14.35 0
9 -6 8 3.62 12.1 0
9 -5 8 262.38 15.33 0
9 -3 10 469.2 14.83 0
9 -2 12 7.32 14.6 0
-14 -3 4 -4.05 19.6 0
-14 1 8 155.34 13.15 0
-13 -1 4 689.18 16.39 0
-13 0 5 191.01 16.75 0
-13 2 8 -1.24 13.58 0
-13 3 10 604.08 17.42 0
-12 -1 3 17.18 14.99 0
-12 0 4 396.5 15.08 0
-12 1 5 -2.27 14.06 0
-12 4 11 28.08 16.91 0
-11 -1 2 7.06 14.4 0
-11 0 3 100.19 13.82 0
-11 1 4 15.27 13.03 0
-11 5 13 110.48 17.44 0
-10 -3 0 -2.94 12.62 0
-10 0 2 29.99 12.09 0
-9 -4 -1 315.32 16.17 0
-9 5 10 8.83 13.07 0
-9 6 15 343.02 16.93 0
-8 -1 0 422.92 14.38 0
-7 -4 -2 11.74 13.96 0
-7 4 6 262.6 12.25 0
-6 -3 -2 222.49 14.15 0
-6 0 0 37.61 8.43 0
-6 1 1 1243.42 16.5 0
-6 6 12 753.45 16.65 0
-5 2 2 88.28 9.41 0
-5 5 8 288.98 13.63 0
-4 5 8 464.27 11 0
-3 -11 -1 9.36 16.92 0
-3 5 8 165.8 12.33 0
-3 6 12 93.33 12.73 0
-2 -12 0 8.46 18.45 0
-2 -11 -1 97.07 17.59 0
-2 -2 -2 10.79 19.27 0
-1 6 14 31.05 17.4 0
1 -12 1 76.02 16.93 0
1 -10 -1 538.34 15.6 0
1 -8 -2 204.18 12.85 0
2 -9 -1 54.1 12.47 0
2 3 6 303.36 26.94 0
2 4 9 26.03 25.42 0
3 -4 -1 5.49 11.98 0
3 -2 0 1.91 14.97 0
4 -11 2 -0.18 13.82 0
4 -8 0 74.86 12.08 0
5 -8 1 98.57 12.5 0
5 -2 2 246.46 12.58 0
5 -1 3 173.84 11.67 0
5 1 6 64.53 11.28 0
5 3 13 57.24 14.4 0
6 -9 3 626.59 13.89 0
6 -7 2 212.27 12 0
6 -4 2 148.95 8.6 0
6 1 8 133.36 11.7 0
6 2 12 37.9 12.63 0
7 -8 4 4.45 13.12 0
7 1 12 179.56 13.52 0
7 1 13 447.63 16.78 0
8 -8 6 46.7 12.68 0
8 -4 6 61.83 11.62 0
8 -3 7 828.44 14.26 0
8 -2 8 29.54 12.73 0
9 -6 9 -0.63 13.81 0
9 -5 9 153.87 15.08 0
9 -4 9 338.45 11.55 0
9 -4 10 14.74 12.9 0
9 -3 11 -5.66 14.11 0
-14 -1 5 -22.91 16.88 0
-14 0 6 2.91 17.76 0
-14 2 9 44.4 15.78 0
-13 -5 2 38.77 18.52 0
-13 -2 3 139.38 16.42 0
-13 1 6 20.76 14.41 0
-12 -6 1 17.06 18.1 0
-12 -5 1 80.11 16.88 0
-12 -2 2 143.03 15.26 0
-12 2 6 227.21 13.49 0
-12 3 8 33.64 14.31 0
-11 -6 0 -3.19 16.98 0
-11 2 5 81.91 12.79 0
-11 3 7 30.75 9.81 0
-11 4 9 -13.33 14.71 0
-11 5 12 5.95 15.69 0
-10 -1 1 335.85 14.44 0
-10 1 3 15.34 8.88 0
-10 3 6 196.95 10.06 0
-10 4 8 745.1 14.81 0
-10 5 11 80.64 11.65 0
-9 -8 -1 94.1 20.04 0
-9 3 5 98.73 12.46 0
-9 4 7 15.76 12.68 0
-9 6 14 -4.68 14.88 0
-8 2 3 127.97 8.98 0
-8 5 9 32.29 12.55 0
-8 6 13 12.97 11.03 0
-7 3 4 100.11 8.13 0
-7 6 12 21.79 14.13 0
-6 -1 -1 1989.82 20.9 0
-6 2 2 1002.64 15.53 0
-6 5 8 154.52 10.07 0
-5 6 11 347.25 13.74 0
-4 -5 -3 595.78 27.81 0
-4 -2 -2 1164.05 22.29 0
-4 4 5 478.29 14.34 0
-4 6 11 2.62 13.52 0
-2 5 8 208.55 14.57 0
-1 -9 -2 243.41 15.91 0
1 -11 0 25.81 14.41 0
1 -4 -2 21.94 13.12 0
3 -9 0 5.32 10.95 0
3 -7 -1 364.8 12.52 0
3 -6 -1 848.86 15.16 0
3 -5 -1 2443.85 20.51 0
3 2 5 1.53 12.22 0
4 -7 0 1043.69 15.02 0
4 -4 0 309.78 12.21 0
4 -2 1 0.49 9.24 0
5 -9 2 541.98 13.55 0
5 -7 1 480.86 13.22 0
5 -4 1 30.76 7.84 0
5 3 14 250.4 15.92 0
6 -10 4 91.69 10.73 0
6 -6 2 16.3 8.2 0
6 -5 2 109.4 8.29 0
6 -3 3 1442.46 15.57 0
6 2 13 57.42 15.42 0
7 -9 5 44.89 10.97 0
7 -7 4 387.4 13.16 0
7 -5 4 1065.55 13.88 0
7 -4 4 141.46 8.09 0
7 -1 7 3.4 11.86 0
7 0 9 -2.37 11.74 0
7 1 14 231.88 15.35 0
7 1 15 8.44 15.88 0
7 1 16 73.32 17.38 0
8 -8 7 87.83 14.08 0
8 -7 6 -5.68 9.46 0
8 -6 6 7.49 11.78 0
8 -5 6 14.92 10.76 0
8 -2 9 35.12 11.73 0
9 -6 10 80.41 16.25 0
9 -5 10 30.47 15.47 0
9 -4 11 71.3 14.77 0
9 -3 12 548.06 15.28 0
9 -3 13 -1.14 15.22 0
-14 -2 4 38.24 15.95 0
-14 1 7 227.97 13.83 0
-13 -4 2 3.38 15.86 0
-13 2 7 141.11 14.49 0
-13 3 9 75.77 11.81 0
-12 -4 1 337.22 17.37 0
-12 4 10 16.47 12 0
-11 -7 0 175.7 20.1 0
-11 -5 0 203.28 16.14 0
-11 -4 0 -7.68 15.04 0
-11 -2 1 277.54 11.23 0
-10 2 4 1429.65 14.15 0
-10 5 10 5.2 14.89 0
-10 6 14 180.13 16.37 0
-9 -3 -1 15.46 11.88 0
-9 0 1 1183.62 16.12 0
-9 1 2 467.89 12.66 0
-9 5 9 24.49 13.64 0
-9 6 13 10.81 15.23 0
-8 -6 -2 262.26 17.51 0
-8 -2 -1 982.42 16.62 0
-8 3 4 108.84 11.69 0
-8 4 6 139.65 11.66 0
-8 6 12 906.58 17.5 0
-7 -8 -2 95.76 23.57 0
-7 0 0 -1.15 11.04 0
-7 1 1 484.57 10.51 0
-7 5 8 100.24 9.35 0
-7 6 11 97.78 12.91 0
-6 4 5 54.82 11.25 0
-6 6 11 14.79 12.58 0
-5 -2 -2 243.52 14.24 0
-5 3 3 15.23 10.98 0
-5 4 5 415.93 11.01 0
-4 3 3 2258.97 21.02 0
-3 3 3 8.22 13.27 0
-3 4 5 420.78 15.14 0
-3 6 11 1420.15 20.57 0
-2 6 12 17.44 13.77 0
-1 2 2 686.4 23.51 0
0 -12 1 110 17.35 0
0 -10 -1 0.09 13.21 0
0 -8 -2 427.09 16.27 0
0 -3 -2 5.52 14.31 0
1 -7 -2 53.45 11.35 0
2 -11 1 86.31 14.17 0
2 -10 0 298.72 13.54 0
2 -3 -1 3.62 14.32 0
2 2 4 4879.23 56.13 0
3 -10 1 27.9 11.92 0
3 -1 1 922.85 17.29 0
4 -11 3 144.69 14.74 0
4 -10 2 7.14 12.55 0
4 -9 1 1707.29 16.64 0
4 -6 0 65.97 11.58 0
4 -5 0 531.55 13.15 0
4 -1 2 15.34 9.84 0
5 -10 3 71.15 12.33 0
5 -6 1 3.21 10.55 0
5 -5 1 740.38 10.9 0
5 2 9 159.97 12.23 0
5 3 15 13.76 15.75 0
5 3 16 88.69 17.11 0
5 3 17 0.59 17.59 0
6 -10 5 -4.3 13.03 0
6 -9 4 53.94 12.5 0
6 -8 3 79.14 11.6 0
6 -2 4 343.16 11.94 0
6 -1 5 546.12 13.17 0
6 1 9 50.44 11.46 0
6 2 14 99.61 14.07 0
6 2 15 91.48 15.37 0
6 2 16 411.55 17.93 0
6 2 17 0.43 18.24 0
7 -9 6 11.57 14.7 0
7 -8 5 101.04 13.43 0
7 -6 4 15.44 8.23 0
7 -3 5 11.25 7.71 0
7 -2 6 899.09 14.17 0
7 0 10 -17.21 12 0
8 -8 8 73.9 14.98 0
8 -7 7 260.38 13.7 0
8 -6 7 -5.62 11.97 0
8 -5 7 67.69 11.96 0
8 -4 7 211.82 9.69 0
8 -3 8 114.36 12.75 0
8 -1 12 357.51 13.81 0
8 -1 13 126.75 13.9 0
9 -5 11 257.21 15.15 0
9 -4 12 17.37 14.41 0
-14 -3 3 28.91 18.33 0
-14 0 5 17.76 15.36 0
-14 2 8 51.27 12.22 0
-13 -3 2 18.54 16.49 0
-13 -1 3 119.34 14.44 0
-13 0 4 -1.56 15.81 0
-13 1 5 56.01 15.87 0
-12 -3 1 428.2 16.67 0
-12 -1 2 314.36 14.05 0
-12 0 3 2.84 14.37 0
-12 1 4 6.96 14.79 0
-12 3 7 19.41 13.97 0
-12 4 9 57.89 15.14 0
-11 0 2 -6.04 12.63 0
-11 1 3 152.95 12.99 0
-11 3 6 38.94 12.91 0
-11 4 8 219.92 14.55 0
-11 5 11 28.33 11.91 0
-10 -6 -1 71.51 16.62 0
-10 -5 -1 110.22 15.84 0
-10 -2 0 483.41 14.02 0
-10 3 5 311.91 13.09 0
-10 4 7 39.19 12.74 0
-10 6 13 1.24 14.84 0
-9 -1 0 43.88 12.28 0
-9 2 3 465.71 10.23 0
-9 6 12 9.63 14.92 0
-8 -5 -2 6.34 12.48 0
-8 5 8 252.42 14.12 0
-7 -3 -2 567.1 15.26 0
-7 -1 -1 633.06 15.14 0
-7 2 2 197.05 9.09 0
-6 3 3 5.62 10.98 0
-6 5 7 15.8 12.01 0
-5 5 7 1270.91 17.3 0
-4 5 7 31.13 11.67 0
-2 -9 -2 77.74 15.81 0
-1 6 13 526.55 20.16 0
0 -11 0 -1.48 13.7 0
0 6 17 0.36 26.77 0
1 -9 -1 3.46 12.05 0
1 -6 -2 13.02 12.24 0
1 -5 -2 507.54 15.74 0
1 -2 -1 494.29 21.94 0
1 5 11 144.81 30.27 0
2 -8 -1 351.42 12.51 0
3 -11 2 8.21 10.54 0
4 3 10 27.39 14.19 0
5 -8 2 31.25 12.51 0
5 -3 2 2262.84 18.71 0
6 -7 3 2.93 10.91 0
6 -6 3 102.51 10.41 0
6 -4 3 306.99 11.61 0
6 0 7 -5.95 11.48 0
7 -7 5 18.04 12.14 0
7 -4 5 81.75 11.21 0
7 0 11 43 12.42 0
8 -7 8 5.22 13.12 0
8 -4 8 14.42 13.31 0
8 -3 9 202.76 13.35 0
8 -2 10 7.25 9.34 0
8 -2 11 4.13 12.29 0
8 -1 14 39.82 14.49 0
8 -1 15 477.74 17.71 0
-14 -1 4 -2.34 15.7 0
-14 1 6 36.83 15.9 0
-13 2 6 17.52 14.53 0
-13 3 8 53.32 11.51 0
-13 4 10 4.09 17.82 0
-12 2 5 33.14 12.86 0
-11 -3 0 158.52 15.14 0
-11 -1 1 11.69 13.43 0
-11 2 4 -3.61 12.36 0
-11 5 10 508.32 17.36 0
-10 -7 -1 8.39 17.61 0
-10 -4 -1 61.74 14.17 0
-10 0 1 1 11.69 0
-10 1 2 59.13 12.47 0
-10 5 9 16.79 14.55 0
-9 3 4 7.04 11.74 0
-9 4 6 63.07 9.03 0
-9 5 8 40.87 12.5 0
-8 -7 -2 26.46 17.96 0
-8 -4 -2 331.12 14.37 0
-8 0 0 -0.51 12.19 0
-8 1 1 124.8 8.56 0
-8 2 2 246.63 11.89 0
-8 6 11 18.95 10.1 0
-7 3 3 358.37 12.22 0
-7 4 5 531.15 10.99 0
-7 5 7 37.73 12.55 0
-7 6 10 11.2 12.5 0
-6 -2 -2 105.21 13.56 0
-6 6 10 64.38 13.19 0
-6 7 16 44.81 16.51 0
-5 -5 -3 470.94 21.49 0
-5 6 10 6.87 12.39 0
-5 7 16 7.53 16.15 0
-4 -9 -2 123.21 22.57 0
-4 1 0 886.92 18.7 0
-4 6 10 196.44 13.97 0
-4 7 17 26.26 17.71 0
-3 -9 -2 251.22 19.05 0
-3 5 7 121.31 12.45 0
-2 3 3 242.48 15.94 0
-2 4 5 701.73 16.51 0
-1 -12 1 40.91 18.09 0
-1 -10 -1 128.93 15.49 0
0 3 4 322.38 22.76 0
0 6 16 36.1 25.68 0
1 -12 2 4.15 15.77 0
1 -10 0 42.49 13.8 0
2 -7 -1 29.69 10.57 0
3 -8 0 1.97 10.69 0
3 -3 0 520.99 15.89 0
4 -11 4 7.88 13.6 0
4 -8 1 -5.14 10.64 0
4 -3 1 5198.01 27.13 0
4 1 5 558.63 15.83 0
4 2 7 82.75 11.56 0
5 -10 4 25.2 13.64 0
5 -9 3 -3.49 11.66 0
5 -7 2 7.4 12.07 0
5 -2 3 18.35 10.58 0
5 1 7 108.27 12.1 0
6 -10 6 2.21 15.07 0
6 -9 5 225.83 14.29 0
6 -8 4 25.95 12.78 0
6 -5 3 -2.55 7.64 0
6 -3 4 4.06 10.39 0
6 1 10 63.41 11.8 0
7 -9 7 -5.16 11.38 0
7 -8 6 547.49 11.53 0
7 -6 5 1271.39 12.82 0
7 -5 5 127.8 8.28 0
7 -3 6 91.71 10.82 0
7 -2 7 39.91 11.12 0
7 0 12 -2.9 11.97 0
8 -7 9 45.03 13.78 0
8 -6 8 162.75 9.93 0
8 -5 8 217.98 9.81 0
8 -4 9 -14.11 13.33 0
8 -3 10 57.15 13.05 0
8 -2 12 19.36 14.44 0
-14 -2 3 114.82 16.4 0
-14 2 7 -0.27 11.87 0
-13 -5 1 130.67 18.58 0
-13 -2 2 22.31 11.85 0
-12 -2 1 431.13 16.4 0
-12 3 6 11.23 13.6 0
-12 4 8 1.67 14.61 0
-12 5 11 210.86 13.79 0
-11 3 5 22.12 12.14 0
-11 4 7 158.56 14.24 0
-10 2 3 6.15 11.45 0
-10 4 6 35.84 11.89 0
-10 6 12 362.27 15.34 0
-9 -2 -1 697.37 15.22 0
-9 6 11 177.42 14.31 0
-8 4 5 572.41 12.66 0
-8 5 7 201.96 12.61 0
-8 6 10 110.91 13.3 0
-7 7 15 335.14 17.96 0
-6 7 15 3.12 14.28 0
-5 -6 -3 416.24 26.05 0
-5 0 -1 141.3 13.17 0
-5 1 0 491.35 12.13 0
-5 7 15 14.69 15.5 0
-4 0 -1 1.52 14.66 0
-4 7 16 52.79 15.7 0
-3 1 0 2622.71 27.99 0
-3 6 10 225.39 14.83 0
-2 6 11 14.49 11.74 0
-1 -11 0 28.02 14.23 0
-1 -8 -2 1074.34 20.06 0
-1 5 8 37.79 13.56 0
0 -7 -2 3.83 13.48 0
1 -11 1 34.72 13.75 0
2 -11 2 24.46 12.91 0
2 -9 0 -6.74 11.72 0
2 -4 -1 700.56 16.14 0
3 -11 3 0.97 14.29 0
3 -9 1 49.29 11.82 0
3 -7 0 111.46 12.1 0
3 4 12 177.74 19.66 0
4 -10 3 10.4 13.56 0
4 -9 2 123.08 11.81 0
4 -7 1 271.52 12.74 0
5 -6 2 203.96 11.28 0
5 -5 2 21.83 10.52 0
5 -4 2 1111.67 12.6 0
5 -1 4 3364.94 21.05 0
5 2 10 44.89 12.03 0
6 -7 4 12.03 11.44 0
6 -2 5 41.79 11.02 0
6 -1 6 459.66 10.84 0
6 0 8 2085.88 18.99 0
7 -8 7 3.5 12.96 0
7 -7 6 19.29 8.87 0
7 -6 6 67.88 12.08 0
7 -5 6 31.2 10.78 0
7 -4 6 115.3 11.52 0
7 0 13 389.67 15.09 0
7 0 14 -6.82 15.41 0
8 -7 10 4.11 14.27 0
8 -6 9 55.93 9.65 0
8 -6 10 393.75 14.07 0
8 -5 9 18.73 9.58 0
8 -4 10 94.84 13.92 0
8 -3 11 18.95 13.31 0
8 -2 13 64.25 13.42 0
-14 0 4 362.9 16.92 0
-14 1 5 -4.51 17.58 0
-13 -4 1 92.96 15.84 0
-13 0 3 525.31 16.86 0
-13 1 4 698.48 16.57 0
-13 2 5 213.31 14.12 0
-13 3 7 -1.44 11.36 0
-13 4 9 27.12 12.21 0
-12 -6 0 181.45 18.23 0
-12 -5 0 25.83 16.81 0
-12 -4 0 19.1 14.2 0
-12 0 2 255.21 15.33 0
-12 1 3 13.43 13.94 0
-12 5 10 26.47 17.17 0
-11 -2 0 8.35 13.41 0
-11 5 9 7.63 14.07 0
-11 6 12 11.59 15.73 0
-10 -3 -1 17.56 13.5 0
-10 -1 0 36.45 9.44 0
-10 3 4 5.02 11.3 0
-10 5 8 444.68 15.68 0
-10 6 11 -12.88 15.37 0
-9 0 0 3.4 12.31 0
-9 1 1 397.5 12.61 0
-9 2 2 127.57 11.62 0
-9 4 5 449.09 12.89 0
-9 6 10 -4.18 12.65 0
-8 -3 -2 -4.73 11.67 0
-8 -1 -1 713.76 12.49 0
-8 3 3 636.65 13.05 0
-8 7 14 30.54 14.74 0
-7 -2 -2 107.68 12.24 0
-7 6 9 154.04 12.17 0
-7 7 14 24.11 15.82 0
-6 0 -1 -0.47 11.12 0
-6 1 0 109.46 8.73 0
-6 2 1 3.24 11.09 0
-6 4 4 90.25 11.79 0
-6 6 9 2.2 12.41 0
-6 7 14 52.77 14.09 0
-5 2 1 136.89 9.57 0
-5 4 4 68.64 11.23 0
-5 5 6 693.27 13.96 0
-5 6 9 364.62 13.65 0
-5 7 14 48.76 14.01 0
-4 -4 -3 210.82 18.67 0
-4 2 1 1522.34 17.39 0
-4 4 4 117.29 12.13 0
-4 7 15 224.93 15.78 0
-3 0 -1 5644.03 39.03 0
-3 7 17 41.29 20.7 0
-2 -10 -1 123.89 15.53 0
-2 5 7 25.83 13.39 0
-1 6 12 38.3 16.17 0
0 -12 2 9.53 16.47 0
0 -9 -1 107.88 12.99 0
0 4 6 1493.41 29.12 0
0 5 9 646.51 22.45 0
0 6 15 4.61 24.32 0
1 -8 -1 18.49 11.25 0
2 -10 1 132.55 12.47 0
2 -6 -1 -2.99 10.95 0
2 -5 -1 34.09 12.8 0
3 -10 2 65 12.11 0
3 -6 0 158.33 11.63 0
3 -4 0 124.75 12.31 0
3 3 8 195.22 16.14 0
4 -11 5 355.13 14.85 0
4 -6 1 37.62 11.56 0
4 -5 1 315.62 11.42 0
4 -4 1 97.57 10.94 0
4 -2 2 1180.58 17.36 0
4 3 11 438.28 18.02 0
5 -10 5 113.43 13.41 0
5 -9 4 24.74 13.34 0
5 -8 3 56.53 9.14 0
6 -9 6 11.66 12.73 0
6 -8 5 49.5 12.09 0
6 -6 4 467.71 12.25 0
6 -5 4 621.44 12.9 0
6 -4 4 46.94 8.06 0
6 1 11 429.54 14.2 0
7 -8 8 110.68 13.7 0
7 -7 7 125.13 12.45 0
7 -3 7 96.19 8.84 0
7 -2 8 357.6 10.08 0
7 0 15 32.27 13.93 0
7 0 16 5.53 14.87 0
8 -6 11 15.36 15.67 0
8 -5 10 4.55 10.12 0
8 -5 11 751.89 15.93 0
8 -4 11 5.81 14.06 0
8 -3 12 4.83 12.45 0
8 -3 13 0.92 15.54 0
8 -3 14 -3.97 14.11 0
-14 -3 2 3.79 13.17 0
-14 -1 3 142.45 13.61 0
-14 2 6 150.24 15.53 0
-13 -3 1 -12.92 15.36 0
-13 -1 2 40.31 11.23 0
-13 4 8 5.39 13.65 0
-12 -3 0 -5.72 14.02 0
-12 -1 1 213.05 14.3 0
-12 2 4 257.79 10.82 0
-12 4 7 179.74 14.77 0
-11 -5 -1 470.71 18.54 0
-11 0 1 1218.99 17.6 0
-11 1 2 16.99 9.3 0
-11 2 3 122.04 12.91 0
-11 4 6 26.5 12.3 0
-10 -8 -1 21.03 19.78 0
-9 -9 -1 30.52 25.98 0
-9 -6 -2 28.74 15.69 0
-9 -5 -2 137.89 14.01 0
-9 -4 -2 132.05 13.97 0
-9 3 3 75.27 11.33 0
-9 5 7 213.67 10.28 0
-8 6 9 -3.24 13.1 0
-8 7 13 71.99 14.97 0
-7 1 0 331.12 12.27 0
-7 2 1 2088.66 17.71 0
-7 4 4 6.06 11.04 0
-7 5 6 199.99 12.89 0
-7 7 13 13.7 15.24 0
-6 -5 -3 6.61 14.25 0
-6 5 6 113.5 9.71 0
-6 7 13 179.56 14.93 0
-5 -4 -3 10.24 13.5 0
-5 3 2 252.01 12.11 0
-5 7 13 252.55 15.86 0
-4 5 6 500.56 13.71 0
-4 6 9 17.05 11.97 0
-4 7 14 85.66 14.38 0
-3 2 1 401.13 13.44 0
-3 4 4 312.38 14.19 0
-3 7 16 315.46 21.12 0
-2 -11 0 1 17.06 0
0 -11 1 74 15.19 0
0 -10 0 20.37 14.31 0
0 -6 -2 11.45 14.1 0
0 -4 -2 927.8 23.39 0
0 1 1 488.94 35.98 0
2 -8 0 530.44 13.36 0
2 -2 0 4445.29 34.32 0
3 -5 0 1245.64 15.96 0
4 -10 4 151.03 13.79 0
4 -9 3 20.49 11.19 0
4 -8 2 4.91 12.53 0
4 -1 3 1143.33 17.93 0
5 -10 6 309.06 13.91 0
5 -7 3 393.49 13.17 0
5 -3 3 200.96 8.79 0
5 0 6 9.44 11.72 0
5 1 8 482.03 14.85 0
5 2 11 658.34 15.39 0
6 -9 7 519.24 16.04 0
6 -7 5 693.16 13.1 0
6 -3 5 154.02 11.05 0
6 -1 7 426.51 12.96 0
6 0 9 3.94 11.21 0
6 1 12 3.56 12.76 0
7 -8 9 12.35 14.01 0
7 -7 8 120.25 13.04 0
7 -6 7 25.25 8.91 0
7 -5 7 64.67 11.6 0
7 -4 7 15.36 8.39 0
7 -3 8 1736.65 16.96 0
7 -2 9 333.94 13.79 0
8 -6 12 178.16 12.98 0
8 -5 12 80.28 14.2 0
8 -5 13 155.45 16.48 0
8 -4 12 21.57 10.85 0
8 -4 13 334.84 15.84 0
-14 -2 2 56.68 17.17 0
-14 3 7 608.3 18.07 0
-13 -2 1 254.78 16 0
-13 3 6 647.95 13.26 0
-12 3 5 872.54 13.13 0
-12 5 9 9.94 14.84 0
-11 -6 -1 62.07 15.96 0
-11 -4 -1 324.94 16.19 0
-11 -1 0 125.74 13.49 0
-11 3 4 1159.48 16.02 0
-11 5 8 143.34 14.32 0
-11 6 11 255.64 15.88 0
-10 -2 -1 102.67 12.52 0
-10 1 1 328.04 14.3 0
-10 2 2 652.58 14.27 0
-10 4 5 19.5 12.06 0
-10 5 7 77.71 14.24 0
-10 6 10 31.53 13.63 0
-9 -1 -1 177.04 13.01 0
-9 6 9 881.72 16.37 0
-9 7 13 36.33 15.17 0
-8 -2 -2 210.13 12.48 0
-8 1 0 423.84 12.46 0
-8 4 4 413.34 12.34 0
-8 5 6 192.57 13.63 0
-7 0 -1 256.16 9.92 0
-7 3 2 4179.3 22.35 0
-7 7 12 52.56 13.82 0
-6 -6 -3 101.65 19.38 0
-6 -4 -3 307.01 16.01 0
-6 3 2 165.3 8.77 0
-6 6 8 713.72 14.03 0
-6 7 12 293.68 14.67 0
-5 -1 -2 46.97 14.12 0
-4 -1 -2 7.99 13.36 0
-4 3 2 88.82 12.24 0
-4 7 13 88.72 15.61 0
-3 -10 -1 27.81 15.23 0
-3 5 6 1284.32 17.42 0
-3 6 9 57.08 13.39 0
-3 7 15 10.21 17.53 0
-2 1 0 15.94 20.68 0
-2 6 10 9.73 14.43 0
-1 4 5 63.73 12.84 0
0 -5 -2 1386.58 23.15 0
1 -11 2 100.49 13.23 0
1 -9 0 126.02 13.32 0
2 -11 3 12.16 12.77 0
3 -11 4 7.5 13.08 0
3 -10 3 106.18 12.66 0
3 -9 2 235.6 12.11 0
3 -8 1 158.02 9.01 0
3 -2 1 55.74 11.37 0
3 1 4 397.14 16.66 0
4 2 8 307.62 14.77 0
5 -9 5 7.65 13.21 0
5 -8 4 165.29 12.47 0
5 -6 3 433.17 11.82 0
5 -5 3 479.45 12.39 0
5 -4 3 -3.66 10.6 0
5 -2 4 398.19 12.15 0
5 -1 5 737.62 14.09 0
5 2 12 5.24 13.84 0
6 -8 6 40.57 9.84 0
6 -6 5 -6.55 11.2 0
6 -5 5 584.36 13.27 0
6 -4 5 2.14 10.55 0
6 -2 6 44.9 8.4 0
6 1 13 4.11 12.03 0
6 1 14 84.91 13.91 0
6 1 15 -4.55 13.19 0
6 1 16 484.66 17.26 0
6 1 17 28.21 16.42 0
7 -8 10 297.89 15.93 0
7 -7 9 30.12 12.87 0
7 -6 8 37.7 11.91 0
7 -5 8 288.88 12.65 0
7 -4 8 102.29 12.41 0
7 -2 10 442.72 13.54 0
7 -1 13 451.12 15.13 0
7 -1 14 247.06 14.19 0
7 -1 16 60.58 15.22 0
-14 0 3 1.66 14.62 0
-14 1 4 -0.75 12.41 0
-14 2 5 4.21 16.92 0
-13 0 2 11.62 14.58 0
-13 1 3 106.22 12 0
-13 2 4 20.71 15.09 0
-13 4 7 22.47 13.65 0
-12 -2 0 10.71 14.5 0
-12 1 2 304.48 14.76 0
-12 2 3 64.36 12.62 0
-12 4 6 46.47 13.45 0
-11 -7 -1 7.73 19.59 0
-11 -3 -1 13.92 13.81 0
-11 6 10 -8.52 15.51 0
-10 0 0 874.53 12.63 0
-10 3 3 461.77 13.03 0
-10 6 9 4.98 13.06 0
-9 -7 -2 314.34 19.99 0
-9 -3 -2 11.04 12.57 0
-9 4 4 277.58 12.71 0
-9 5 6 105.77 12.71 0
-8 -8 -2 305.53 26.64 0
-8 0 -1 -2.37 12.06 0
-8 2 1 1.54 8.21 0
-8 6 8 506.62 14.79 0
-8 7 12 0 15.24 0
-7 6 8 8.2 12.04 0
-6 -1 -2 1228.62 18.27 0
-5 6 8 38.55 11.67 0
-5 7 12 253.24 14.93 0
-3 -11 0 226.63 18.05 0
-3 -4 -3 1213.29 52.5 0
-3 3 2 51.39 13.44 0
-3 7 14 1.61 15.65 0
-2 -8 -2 43.03 14.58 0
-1 -12 2 32.32 15.98 0
-1 -9 -1 28.59 13.99 0
-1 -7 -2 121.79 14.63 0
-1 3 3 74.1 15.25 0
0 6 14 76.24 25.38 0
1 -10 1 120.27 12.54 0
1 -7 -1 98.39 10.78 0
2 -10 2 7.62 12.98 0
2 -9 1 519.12 13.84 0
3 -7 1 89.15 11.43 0
3 4 13 1070.95 25.22 0
4 -10 5 20.4 13.45 0
4 -7 2 52.31 8.51 0
4 -3 2 154.96 12.26 0
4 1 6 687.69 15.97 0
4 3 12 37.59 13.59 0
5 -10 7 172.69 14.43 0
5 -7 4 899.6 13.68 0
5 2 18 9.46 17.86 0
6 -9 8 98.59 11.32 0
6 -8 7 -4.3 12.74 0
6 -7 6 179.71 11.7 0
6 -3 6 16.61 10.69 0
6 0 10 44.63 12.11 0
7 -7 10 493.12 15 0
7 -6 9 0.65 12.23 0
7 -5 9 215.74 11.89 0
7 -4 9 20.57 12.39 0
7 -3 9 23.92 8.87 0
7 -2 11 0.54 12.36 0
7 -1 15 4.05 14.02 0
-14 -3 1 175.54 18.42 0
-14 -1 2 -6 14.96 0
-14 3 6 12.32 16.12 0
-13 -5 0 133.43 18.31 0
-13 -4 0 97.22 17.6 0
-13 -1 1 -5.61 15.24 0
-13 3 5 44.3 13.08 0
-12 0 1 -9.51 10.17 0
-12 3 4 157.58 13.84 0
-12 5 8 268.92 12.57 0
-11 -2 -1 143.34 13.39 0
-11 1 1 10.58 12.41 0
-11 2 2 279.44 13.32 0
-11 4 5 303.94 10.62 0
-11 5 7 182.37 14.02 0
-10 -5 -2 134.54 17.48 0
-10 -4 -2 77.25 15.5 0
-10 -1 -1 253.87 13.12 0
-10 5 6 279.58 13 0
-9 1 0 57.65 11.84 0
-9 2 1 737.5 13.5 0
-9 6 8 148.26 13.7 0
-9 7 12 41.98 14.73 0
-8 3 2 3.04 8.06 0
-8 7 11 73 13.61 0
-7 -5 -3 49.6 15.06 0
-7 -4 -3 32.98 15.51 0
-7 -1 -2 92.74 12.4 0
-7 5 5 124.68 12.03 0
-7 7 11 24.16 14.23 0
-6 -10 -1 0.7 24.4 0
-6 -3 -3 1430.9 21.84 0
-6 4 3 134.11 11.44 0
-6 5 5 641.62 13.55 0
-6 7 11 -4.52 13.36 0
-5 -3 -3 194.4 14.53 0
-5 4 3 9.62 10.67 0
-5 5 5 160.35 12.59 0
-4 -11 0 75 19.47 0
-4 -10 -1 -0.09 16.88 0
-4 6 8 533.86 13.85 0
-4 7 12 172.49 15.34 0
-3 -1 -2 1520.17 25.09 0
-2 0 -1 -1.18 13.87 0
-2 2 1 1930.69 23.77 0
-2 4 4 440.03 15.6 0
-1 -11 1 67.78 14.35 0
-1 -10 0 32.17 14.55 0
-1 6 11 9.63 14.56 0
0 -8 -1 2.97 11.78 0
1 -3 -1 4.25 15.02 0
1 -1 0 98.04 21.73 0
2 -7 0 40.42 11.13 0
3 -11 5 53.11 13.7 0
3 -1 2 1528.69 19.72 0
3 2 6 9.47 13.88 0
3 4 14 154.8 18.45 0
3 4 18 -0.12 18.8 0
4 -9 4 9.1 11.41 0
4 -8 3 285.97 9.8 0
4 -6 2 132.42 8.96 0
4 -5 2 3.87 10.66 0
4 -4 2 16.33 11.05 0
4 3 13 1.17 13.92 0
5 -10 8 115.68 15.97 0
5 -9 6 13.07 9.93 0
5 -8 5 -8.56 12.78 0
5 -3 4 259.27 11.76 0
5 0 7 222.44 12.49 0
5 1 9 164.21 11.66 0
5 2 13 134.23 13.03 0
5 2 14 44.47 15.06 0
5 2 15 23.8 15.57 0
5 2 16 7.2 16.44 0
5 2 17 339.21 18.41 0
6 -9 9 -0.16 11.36 0
6 -8 8 121.3 12.94 0
6 -7 7 41.21 11.29 0
6 -6 6 11.22 10.61 0
6 -5 6 802.17 13.77 0
6 -4 6 296.55 12.14 0
6 -2 7 96.26 9.09 0
6 0 11 -1.13 11.97 0
7 -7 11 385.23 14.01 0
7 -6 10 2 13.11 0
7 -5 10 390.59 13.11 0
7 -4 10 232.25 13.37 0
7 -3 10 0.13 9.6 0
7 -3 11 28.58 12.33 0
7 -2 12 81.54 11.99 0
7 -2 13 88.24 14.42 0
7 -2 14 3.51 13.16 0
-14 -2 1 439.19 16.86 0
-14 1 3 122.62 17.09 0
-14 2 4 14.5 15.31 0
-13 -3 0 45.13 14.52 0
-13 4 6 133.86 14.31 0
-13 5 8 247.34 16.43 0
-12 -5 -1 -3.94 16.22 0
-12 -4 -1 61.13 16.05 0
-12 -1 0 5.64 13.29 0
-12 5 7 565.65 15.49 0
-11 0 0 15.73 12.31 0
-11 3 3 24.81 11.97 0
-11 6 9 105.58 14.4 0
-10 -6 -2 1851.33 26.33 0
-10 -3 -2 10.8 12.2 0
-10 4 4 528.46 10.83 0
-10 6 8 106.12 13.07 0
-10 7 12 -3.83 12.19 0
-9 -2 -2 188.01 12.67 0
-9 0 -1 105.1 12.53 0
-9 3 2 201.27 11.78 0
-9 7 11 51.26 15.36 0
-8 -1 -2 260.99 12.53 0
-8 4 3 51.81 11.13 0
-8 5 5 278.56 10.13 0
-7 -6 -3 15.06 17.19 0
-7 4 3 60.55 8.18 0
-7 6 7 77.48 12.68 0
-6 -11 0 12.97 23.19 0
-6 2 0 170.8 11.38 0
-6 6 7 19.01 11.62 0
-5 -11 0 17.99 19.58 0
-5 -10 -1 74.74 19.95 0
-5 7 11 32.18 13.36 0
-4 -3 -3 59.79 15.6 0
-4 4 3 1047.07 15.58 0
-4 5 5 801.91 15.2 0
-3 7 13 171.98 15.46 0
-2 7 17 -1.12 22.17 0
-1 5 7 446.86 16.4 0
0 -11 2 58.68 14.1 0
1 -11 3 124.7 13.79 0
1 -8 0 56.9 11.06 0
1 -6 -1 1092.75 16.78 0
2 -11 4 319.94 15.21 0
2 -6 0 178.93 12.55 0
2 -3 0 45.23 15.02 0
2 -1 1 119.81 20.17 0
3 -11 6 2.37 13.41 0
3 -10 4 4.2 12.45 0
3 -9 3 27.48 12.26 0
3 -8 2 38.62 11.61 0
3 -6 1 1357.85 16.36 0
3 -3 1 257.51 11.02 0
3 4 15 57.34 18.46 0
3 4 16 92.39 18.58 0
3 4 17 178.79 19.87 0
4 -10 6 207.61 14.24 0
4 -7 3 567.26 12.91 0
4 -2 3 195.43 13.16 0
4 3 14 38.03 14.12 0
4 3 17 112.51 18.25 0
4 3 18 4.92 18.31 0
5 -9 7 -0.79 14.32 0
5 -6 4 69.66 7.72 0
5 -5 4 1408.74 15.09 0
5 -4 4 45.99 10.95 0
5 -2 5 127.76 11.11 0
6 -8 9 19.32 13.46 0
6 -6 7 3.81 11.07 0
6 -3 7 2005.59 16.87 0
6 0 12 58.18 13.33 0
7 -6 11 3.14 10.13 0
7 -6 12 22.5 15.55 0
7 -6 13 54.44 14.77 0
7 -5 11 5.28 13.77 0
7 -4 11 152.87 13.58 0
7 -3 12 48.63 13.82 0
7 -3 13 5.87 12.7 0
-14 0 2 65.7 15.03 0
-14 3 5 191.66 16.43 0
-13 -2 0 18.7 15.72 0
-13 0 1 9.2 14.35 0
-13 1 2 55.37 11.28 0
-13 2 3 154.75 11.95 0
-13 3 4 105.23 13.54 0
-12 -6 -1 14.3 17.19 0
-12 -3 -1 4.79 15.17 0
-12 1 1 196.43 13.6 0
-12 2 2 129.2 14.67 0
-12 4 5 27.51 10.39 0
-12 6 9 14.73 15.39 0
-11 -1 -1 69.52 12.49 0
-11 4 4 40.14 12.66 0
-11 5 6 40.54 12.72 0
-10 1 0 45.05 11.98 0
-10 2 1 81.1 9.33 0
-10 3 2 114.49 12.48 0
-10 7 11 78.5 15.9 0
-9 4 3 86.22 12 0
-9 5 5 411.42 10.76 0
-9 6 7 919.43 15.63 0
-8 -5 -3 248.77 16.44 0
-8 -4 -3 820.1 18.72 0
-8 6 7 -0.49 9.75 0
-8 7 10 -12.61 14.27 0
-7 -3 -3 -0.21 11.74 0
-7 1 -1 645.55 13.4 0
-7 2 0 152.41 11.3 0
-7 7 10 102.66 13.16 0
-6 1 -1 1955.77 16.65 0
-6 3 1 59.94 11.24 0
-6 7 10 542.15 15.58 0
-5 1 -1 1194.53 15.07 0
-5 2 0 179.34 9.47 0
-5 6 7 74.7 11.17 0
-4 7 11 390.71 15.83 0
-3 -8 -2 32.36 16.03 0
-3 6 8 7.42 11.13 0
-2 -9 -1 515.62 17.24 0
-2 5 6 124.75 12.31 0
-2 6 9 161.98 12.69 0
-2 7 16 12.3 19.62 0
0 -10 1 15.26 12.65 0
0 -9 0 -1.03 11.97 0
1 -10 2 345.37 13.22 0
1 -9 1 30.16 11.42 0
1 -5 -1 120.69 13.82 0
1 -4 -1 79.73 13.6 0
2 -10 3 99.4 13.3 0
2 -9 2 73.53 11.96 0
2 -8 1 8.21 8.3 0
2 -5 0 903.41 15.27 0
2 1 3 752.3 22.95 0
3 -5 1 131.41 8.66 0
3 -4 1 107.25 8.95 0
4 -10 7 0.64 12.53 0
4 -9 5 15.76 11.92 0
4 -8 4 159.29 12.74 0
4 -1 4 620.74 14.98 0
4 2 9 912.96 18.13 0
4 3 15 46.82 14.86 0
4 3 16 2.79 16.02 0
5 -9 8 123.8 13.75 0
5 -8 6 163.34 10.3 0
5 -7 5 25.71 8.09 0
5 -1 6 64.61 8.33 0
5 1 10 236.78 12.28 0
6 -8 10 418.43 15.31 0
6 -7 8 3.7 8.78 0
6 -5 7 367.72 11.93 0
6 -4 7 9.05 10.22 0
6 -2 8 16.77 8.71 0
6 0 13 1.25 13.08 0
6 0 14 185.38 14.31 0
6 0 15 8.64 14.26 0
6 0 16 -6.83 15.07 0
6 0 17 4.51 14.95 0
7 -5 12 355.76 12.07 0
7 -5 13 42.81 15.56 0
7 -5 14 155.21 16.53 0
7 -4 12 28.22 10.64 0
7 -4 13 81.34 14.88 0
7 -4 14 1.61 14.99 0
7 -4 15 43.57 16.88 0
7 -3 14 496.25 13.13 0
7 -3 15 -4 11.94 0
-14 -1 1 383.64 18.1 0
-13 5 7 66.24 14.98 0
-12 -2 -1 8.2 14.35 0
-12 0 0 928.42 16.77 0
-12 3 3 65.87 12.45 0
-11 -5 -2 9.3 17.2 0
-11 -4 -2 398.14 17.24 0
-11 2 1 235.59 12.35 0
-11 6 8 30.21 11.83 0
-10 -7 -2 2.46 18.72 0
-10 -2 -2 228.3 13.48 0
-10 0 -1 -4.64 12.35 0
-10 5 5 302.4 12.97 0
-10 6 7 6.62 13.12 0
-10 7 10 93.91 14.26 0
-9 -1 -2 133.28 12.29 0
-9 7 10 16.73 10.9 0
-8 -3 -3 646.46 16.64 0
-8 1 -1 745.45 14.43 0
-8 2 0 94.26 8.27 0
-8 3 1 31.97 10.92 0
-7 3 1 48.77 7.99 0
-7 5 4 -9.58 11.42 0
-6 -2 -3 183.2 12.4 0
-6 0 -2 618.81 14.69 0
-6 5 4 1092.29 15.88 0
-5 0 -2 2.39 12.22 0
-5 3 1 298.66 9.75 0
-5 7 10 40.25 12.95 0
-4 1 -1 125.23 10.13 0
-4 2 0 949.48 14.68 0
-4 6 7 -1.67 11.35 0
-3 4 3 106.07 13.4 0
-3 5 5 248.2 13.29 0
-3 7 12 306.85 15.86 0
-2 -11 1 8.36 13.75 0
-2 -10 0 311 15.92 0
-2 3 2 -0.76 13.8 0
-2 7 15 20.01 16.59 0
-1 -6 -2 -1.1 13.59 0
0 -7 -1 259.65 12.54 0
2 -11 5 25.2 14.11 0
2 -4 0 1732.53 17.87 0
3 -10 5 52.03 13.63 0
3 -7 2 234.77 12.9 0
3 3 9 47.11 13.78 0
4 -6 3 50.95 10.74 0
4 -3 3 53.29 11.52 0
5 -9 9 9.16 13.47 0
5 -8 7 415.12 13.65 0
5 -7 6 157.98 12.23 0
5 -6 5 -7.12 7.83 0
5 -5 5 77.56 10.58 0
5 -3 5 -5.43 10.93 0
5 0 8 8.06 11.08 0
5 1 11 365.88 14.56 0
6 -8 11 19.23 11.1 0
6 -7 9 34.64 9.78 0
6 -6 8 820.02 11.58 0
6 -5 8 43.96 11.7 0
6 -4 8 161.15 12.08 0
6 -3 8 5.82 11.01 0
6 -2 9 23.61 12.02 0
-14 1 2 0.35 16.23 0
-14 2 3 107.49 16.98 0
-13 -4 -1 0.15 17.6 0
-13 -1 0 190.46 12.42 0
-13 2 2 23.66 13.8 0
-13 4 5 186.54 12.13 0
-12 4 4 164.55 13.87 0
-12 5 6 7.47 10.18 0
-12 6 8 362.13 17.51 0
-11 -3 -2 46.85 13.5 0
-11 1 0 142.16 12.69 0
-11 3 2 27.23 10.99 0
-11 5 5 -8.56 13.14 0
-10 4 3 129.36 9.13 0
-9 -8 -2 103.59 26.26 0
-9 1 -1 163.85 11.44 0
-9 2 0 102.97 10.85 0
-9 3 1 206.85 12.21 0
-9 5 4 39.63 11.29 0
-9 7 9 26.89 14.58 0
-8 -6 -3 66.53 18.71 0
-8 5 4 316.16 10.07 0
-8 6 6 150.17 13.35 0
-8 7 9 10.78 13.07 0
-7 -2 -3 149.53 12.68 0
-7 0 -2 6.97 11.17 0
-7 4 2 215.83 11.13 0
-7 6 6 3.93 11.13 0
-7 7 9 66.01 12.68 0
-7 8 14 29.43 16.58 0
-6 4 2 454.91 12.72 0
-6 6 6 539.69 13.82 0
-6 7 9 565.52 15.58 0
-5 -2 -3 23.23 12.33 0
-5 5 4 26.23 11.09 0
-4 3 1 1051.25 14.35 0
-2 -7 -2 290.69 16.44 0
-2 7 14 12.99 16.93 0
-1 -11 2 110.95 14.88 0
-1 -8 -1 1237.48 18.77 0
-1 6 10 109.79 16.18 0
0 -11 3 11.84 14.85 0
0 6 13 44.69 24.93 0
1 -11 4 65.37 14.26 0
1 -7 0 3.01 10.33 0
2 -10 4 568.99 14.4 0
2 -7 1 359.54 13.27 0
3 -9 4 401.53 12.68 0
3 -8 3 1234.93 15.23 0
3 -2 2 -1.83 13.55 0
4 -10 8 -6.76 13.98 0
4 -9 6 59.64 10.04 0
4 -8 5 70.68 11.73 0
4 -7 4 1047.89 15.09 0
4 -5 3 603.79 10.46 0
4 -4 3 200.98 8.71 0
4 1 7 946.49 16.46 0
5 -9 10 105.63 15.14 0
5 -8 8 93.77 12.05 0
5 -4 5 23 8.14 0
5 -2 6 752.31 13.89 0
5 -1 7 107.77 11.83 0
5 1 18 134.82 17.96 0
6 -7 10 216.3 10.71 0
6 -7 11 43.43 13.38 0
6 -6 9 8.54 8.22 0
6 -5 9 79.51 11.4 0
6 -3 9 84.57 12.86 0
6 -2 10 254.65 13 0
6 -1 13 16.89 12.27 0
6 -1 16 508.05 15.99 0
6 -1 17 25.6 17.06 0
-14 -2 0 35.88 17.56 0
-14 0 1 4.49 14.97 0
-14 3 4 0.54 11.88 0
-13 -5 -1 1.9 17.88 0
-13 -3 -1 48.74 16.6 0
-13 1 1 8.04 10.98 0
-13 3 3 10.84 13.32 0
-13 5 6 -10.01 14.98 0
-12 -1 -1 3.91 14.48 0
-12 2 1 408.9 14.22 0
-11 -6 -2 9.31 16.29 0
-11 -2 -2 682.33 16.55 0
-11 0 -1 740.39 15.52 0
-11 4 3 10.29 12.98 0
-11 6 7 10.4 11.27 0
-10 -1 -2 3.85 12.2 0
-10 2 0 472.29 13.34 0
-10 5 4 60.24 12.41 0
-10 6 6 184.79 13.18 0
-10 7 9 72.18 15.81 0
-9 -5 -3 141.56 16.08 0
-9 -4 -3 16.12 12.83 0
-9 -3 -3 -1.62 12.77 0
-9 4 2 186.11 11.41 0
-9 6 6 -19.38 9.46 0
-8 -2 -3 560.82 14.78 0
-8 0 -2 1276.26 14.19 0
-8 4 2 778.96 11.14 0
-7 8 13 68.58 16.51 0
-6 8 14 35.18 16.04 0
-5 4 2 73.21 8.06 0
-5 6 6 68.02 10.92 0
-5 7 9 12.75 12.6 0
-5 8 15 192.63 17.9 0
-4 -2 -3 186.88 17.29 0
-4 0 -2 634.38 16.97 0
-4 5 4 30.32 11.83 0
-4 7 10 -0.24 12.42 0
-3 -11 1 100.28 17.07 0
-3 1 -1 930.42 20.59 0
-3 2 0 8.44 14.62 0
-3 7 11 432.55 16.3 0
-1 -10 1 528.58 16.81 0
-1 -9 0 125.46 13.84 0
0 2 2 256 24.98 0
0 5 8 1169.9 26.56 0
1 -10 3 825.07 15.19 0
2 -11 6 94.36 13.75 0
2 -9 3 10.3 11.87 0
2 -8 2 41.62 11.37 0
3 -10 6 12.99 9.91 0
3 -6 2 24.89 8.35 0
3 1 5 68.48 15.2 0
4 -10 9 33.01 14.34 0
4 -9 7 78.18 13.43 0
4 -6 4 5.14 10.08 0
4 -2 4 1243.79 16.58 0
4 2 10 389.63 13.37 0
5 -8 9 -0.92 12.19 0
5 -7 7 88.77 11.05 0
5 -6 6 105.11 8.81 0
5 -5 6 228.82 11.22 0
5 -3 6 223.5 11.36 0
5 0 9 645.43 14.14 0
5 1 12 5.27 12.15 0
5 1 13 108.87 13.5 0
5 1 16 22.68 15.36 0
5 1 17 5.62 15.98 0
6 -7 12 5.11 10.31 0
6 -7 13 19.96 15.25 0
6 -6 10 75.04 9.83 0
6 -6 11 36.16 12.97 0
6 -5 10 13.09 12.3 0
6 -4 9 430.64 10.72 0
6 -3 10 7.39 12.83 0
6 -2 11 20.28 12.77 0
6 -1 14 78.39 12.86 0
6 -1 15 1.6 13.59 0
-14 -1 0 60.72 15.07 0
-13 -2 -1 2.34 16.13 0
-13 0 0 8.05 10.74 0
-13 4 4 2.52 13.4 0
-12 -4 -2 510.53 18.81 0
-12 1 0 6.27 12.91 0
-12 3 2 0.79 9.57 0
-12 5 5 -3.05 10.74 0
-12 6 7 22.24 16.33 0
-11 7 9 55.36 16.84 0
-10 1 -1 239.35 12.99 0
-10 3 1 197.68 9.1 0
-10 4 2 520.8 12.49 0
-9 0 -2 1.94 12.46 0
-9 7 8 8.85 13.35 0
-8 7 8 119.32 12.62 0
-8 8 12 74.1 16.36 0
-7 5 3 42.4 10.49 0
-7 6 5 974.19 14.61 0
-7 7 8 -6.86 12.25 0
-7 8 12 86.15 15.56 0
-6 7 8 7.9 12.22 0
-6 8 13 0.3 15.16 0
-5 8 14 193.12 17.71 0
-4 -8 -2 16.93 19.04 0
-4 4 2 124.21 11.45 0
-4 6 6 4.72 10.99 0
-3 -10 0 42.22 15.14 0
-3 -9 -1 56.23 14.55 0
-3 -3 -3 83.55 21.98 0
-3 3 1 6.65 13.69 0
-3 6 7 48.24 10.8 0
-2 6 8 25.13 11.54 0
-2 7 13 452.84 19.25 0
-1 -5 -2 205.95 16.55 0
-1 -3 -2 3401.28 52.89 0
0 -10 2 203.6 12.88 0
0 -9 1 109.65 11.95 0
0 -8 0 19.6 11.4 0
0 -6 -1 21.56 14.83 0
1 -11 5 38.35 14.57 0
1 -9 2 233.62 12.89 0
1 -8 1 1205.68 16.07 0
2 -11 7 18.99 13.69 0
2 -6 1 98.62 11.9 0
3 -10 7 9.6 14.16 0
3 -9 5 20.62 11.77 0
3 -8 4 21.7 12.6 0
3 -7 3 283.74 12.29 0
3 -5 2 369.54 12.16 0
3 -4 2 301.53 12.35 0
3 -3 2 384.5 14.26 0
3 -1 3 649.45 17.78 0
4 -9 8 72.69 13.95 0
4 -8 6 2.2 12.09 0
4 -7 5 265.16 12.35 0
4 -1 5 572.69 13.96 0
5 -8 10 2.04 13.51 0
5 -7 8 513.25 13.27 0
5 -6 7 63.55 11.29 0
5 -4 6 1045.27 12.14 0
5 -2 7 1302.55 16.11 0
5 0 10 -3.7 11.19 0
5 1 14 948.48 17.14 0
5 1 15 7.04 13.73 0
6 -6 12 16.03 10.18 0
6 -6 13 102.92 15.48 0
6 -6 14 279.54 16.83 0
6 -5 11 144.89 14.01 0
6 -5 12 -2.62 12.86 0
6 -4 10 660.91 11.44 0
6 -4 11 27.91 13.2 0
6 -3 11 1432.34 17.07 0
6 -2 12 45.19 9.46 0
6 -2 13 69.34 13.27 0
6 -2 14 81.51 14.18 0
6 -2 15 75.49 14.76 0
-14 1 1 369.59 16.97 0
-14 2 2 59.39 12.71 0
-14 3 3 39.01 16.77 0
-13 -1 -1 149.37 14.02 0
-13 2 1 221.5 14.63 0
-13 5 5 1.16 13.85 0
-12 -5 -2 144.73 16.86 0
-12 -3 -2 11.84 14.99 0
-12 0 -1 -17.72 13.41 0
-12 4 3 8.97 9.99 0
-11 -1 -2 13.62 13.47 0
-11 2 0 -3.78 11.76 0
-11 3 1 6.57 12.23 0
-11 5 4 -6.53 9.55 0
-11 6 6 65.42 10.94 0
-10 -4 -3 17.71 13.75 0
-10 -3 -3 48.14 12.57 0
-10 0 -2 1568.13 17.44 0
-10 7 8 87.56 13.45 0
-9 -6 -3 279.35 18.22 0
-9 -2 -3 34.85 11.53 0
-9 5 3 147.03 12.34 0
-9 6 5 886.11 14.93 0
-9 8 11 221.39 15.62 0
-8 -1 -3 118.5 11.69 0
-8 2 -1 932.82 13.96 0
-8 3 0 64 10.95 0
-8 5 3 5.9 8.11 0
-8 6 5 83.7 9.89 0
-8 8 11 134.69 14.71 0
-7 -1 -3 79.95 12.05 0
-7 2 -1 61.79 7.93 0
-7 3 0 48.52 10.71 0
-6 -1 -3 96.41 11.89 0
-6 2 -1 -4.67 7.63 0
-6 3 0 105.89 11.28 0
-6 5 3 1210.32 13.53 0
-6 6 5 211.61 12.92 0
-6 8 12 33.64 14.72 0
-5 -1 -3 145.21 13.65 0
-5 7 8 38.86 11.9 0
-5 8 13 53.13 15.33 0
-4 -11 1 73.16 18.12 0
-4 7 9 307.97 13.83 0
-2 -11 2 40.65 14.42 0
-2 4 3 779.18 17.32 0
-2 5 5 32.07 12.35 0
-1 1 0 97.84 15.97 0
-1 2 1 475.12 21.71 0
-1 4 4 517.08 16.49 0
0 -11 4 5.54 14.44 0
1 -6 0 204.66 13.25 0
2 -10 5 185.8 10.76 0
2 -2 1 268.12 13.76 0
2 4 10 610.04 25.97 0
3 -10 8 4.94 13.18 0
3 2 7 60.98 12.21 0
3 3 10 320.24 15.95 0
4 -9 9 47.79 13.47 0
4 -8 7 87.46 11.76 0
4 -5 4 626.2 10.46 0
4 -4 4 1396.82 15.84 0
4 -3 4 234.19 9.11 0
4 1 8 84.53 12.12 0
4 2 11 1596.57 19.9 0
4 2 18 36.95 18.69 0
5 -8 11 31.57 13.34 0
5 -8 12 -23.66 14.82 0
5 -7 9 26.04 12.16 0
5 -6 8 -13.66 10.65 0
5 -5 7 47.18 11.5 0
5 -3 7 3.1 10.94 0
6 -5 13 50.97 13.92 0
6 -5 14 45.66 14.02 0
6 -5 15 2.49 15.02 0
6 -4 12 60.91 12.98 0
6 -4 13 -2.21 14.24 0
6 -4 14 76.88 14.85 0
6 -4 15 164.04 15.72 0
6 -4 16 485.16 18.58 0
6 -3 12 27.24 9.95 0
6 -3 13 180.44 13.73 0
6 -3 14 2.31 13.82 0
6 -3 15 670.5 17.49 0
6 -3 16 18.3 14.75 0
-14 0 0 6.18 15.93 0
-13 1 0 205.75 14 0
-13 3 2 29.57 10.48 0
-13 4 3 49.95 14.65 0
-12 -6 -2 54.88 18.75 0
-12 -2 -2 478.01 15.34 0
-12 5 4 89.47 14.53 0
-12 6 6 29.32 14.65 0
-11 -7 -2 11.32 18.81 0
-11 1 -1 80.8 9.91 0
-11 4 2 197.62 9.57 0
-11 7 8 121.34 14.45 0
-10 -5 -3 43.84 14.53 0
-10 -2 -3 91.55 12.52 0
-10 5 3 0.93 11.52 0
-10 6 5 -3.28 12.43 0
-9 2 -1 661.44 13.03 0
-9 3 0 285.55 12.44 0
-9 7 7 248.54 14.15 0
-8 1 -2 270.28 12.76 0
-8 4 1 212.07 11.68 0
-8 7 7 210.55 12.25 0
-7 -7 -3 1.75 22.9 0
-7 1 -2 90.64 8.78 0
-7 4 1 536 12.56 0
-7 7 7 9.04 12.28 0
-7 8 11 395.63 15.25 0
-6 1 -2 1121.48 13.35 0
-6 4 1 237.46 11.61 0
-5 2 -1 587.69 11.64 0
-5 3 0 2909.1 20.6 0
-5 5 3 832.35 12.19 0
-5 6 5 2.58 11.77 0
-4 8 15 16.68 19.13 0
-3 0 -2 2.26 15.21 0
-3 5 4 25.54 12.19 0
-3 7 10 630.82 15.43 0
-2 -1 -2 35.86 17.17 0
-2 7 12 354.92 16.72 0
-1 -11 3 -4.47 13.03 0
-1 -4 -2 2528.97 35.1 0
-1 5 6 85.99 13.86 0
0 -2 -1 2.69 18.21 0
1 -11 6 23.6 14.59 0
1 -10 4 10.12 13.09 0
1 -2 0 80.36 18.94 0
2 -10 6 152.49 12.83 0
2 -9 4 51.33 11.5 0
2 -8 3 14.46 11.98 0
2 -7 2 282.02 12.67 0
2 -5 1 260.89 12.63 0
3 -10 9 124.52 14.45 0
3 -9 6 636.62 11.78 0
3 -6 3 115.27 11.2 0
4 -9 10 59.5 15.37 0
4 -7 6 160.51 11.95 0
4 -6 5 65.4 8.01 0
4 2 12 453.77 14.21 0
4 2 17 5.6 15.53 0
5 -7 10 319.42 13.54 0
5 -5 8 277.61 11.82 0
5 -4 7 156.09 8.61 0
5 -2 8 353.4 13.52 0
5 0 11 82.58 11.98 0
5 0 12 -9.34 11.44 0
5 0 17 108.4 15.93 0
5 0 18 -10.11 15.42 0
-14 -2 -1 22.32 16.02 0
-14 2 1 502.53 16.35 0
-14 3 2 6.31 15.02 0
-13 -4 -2 20.5 17.59 0
-13 -3 -2 12.92 17.57 0
-13 0 -1 929.48 18.01 0
-12 -1 -2 18.81 14.06 0
-12 1 -1 6.3 13.45 0
-12 2 0 6.61 10.24 0
-12 3 1 378.98 11.29 0
-12 4 2 48.79 13.69 0
-11 -4 -3 128.89 16.21 0
-11 -3 -3 3.96 14.9 0
-11 0 -2 6.66 12.82 0
-11 5 3 474.3 14.13 0
-11 6 5 228.8 11.43 0
-11 7 7 45.47 14.05 0
-10 -8 -2 20.05 24.2 0
-10 2 -1 99.43 12.4 0
-10 3 0 -0.84 11.61 0
-10 7 7 50.55 11.05 0
-9 -1 -3 58.71 9.36 0
-9 1 -2 131.28 12.35 0
-9 4 1 656.66 11.17 0
-9 8 10 227.38 16.45 0
-8 6 4 69.75 12.34 0
-8 8 10 5.39 14.81 0
-7 6 4 -15.53 12.23 0
-7 8 10 34.14 14.85 0
-6 7 7 -2 11.05 0
-6 8 11 154.38 14.09 0
-5 1 -2 35.31 8.54 0
-5 4 1 279.29 11.64 0
-5 8 12 -1.33 13.66 0
-4 -10 0 223.53 16.81 0
-4 -9 -1 1780.92 27.01 0
-4 2 -1 6.13 12.12 0
-4 5 3 888.38 14.59 0
-4 8 14 95.43 17.77 0
-3 4 2 30.74 12.19 0
-3 6 6 14.9 10.81 0
-2 -10 1 410.51 15.13 0
-2 -9 0 4.73 13.75 0
-2 -8 -1 3.86 11.63 0
-1 -10 2 45.85 13.89 0
-1 -7 -1 272.82 13.41 0
-1 6 9 811.19 19.94 0
0 -10 3 69.43 13.17 0
0 -5 -1 439.54 15.72 0
0 4 5 229.53 18.98 0
1 -9 3 109.93 12 0
1 -7 1 252.75 12.61 0
1 -5 0 64.24 13.12 0
1 1 2 15.04 27.55 0
1 5 11 144.49 31.2 0
2 -4 1 301.25 10.81 0
2 -3 1 908.97 15.83 0
3 -10 10 192.33 16.32 0
3 -9 7 38.94 13.46 0
3 -8 5 38.33 8.67 0
3 -7 4 279.01 9.82 0
3 -2 3 383.97 15.53 0
3 3 19 16.44 19.07 0
4 -9 11 40.07 14.02 0
4 -8 8 300.05 10.6 0
4 -7 7 80.92 11.35 0
4 -5 5 1046.6 14.53 0
4 -2 5 172.12 8.81 0
4 0 7 7.19 12.36 0
4 1 9 29.1 11.32 0
4 2 13 -1.09 12.07 0
4 2 14 146.39 15.16 0
4 2 15 36.55 14.98 0
4 2 16 285.74 15.05 0
5 -7 11 1.64 9.88 0
5 -7 12 74.43 13.64 0
5 -7 13 16.86 14.25 0
5 -7 14 210.85 14.99 0
5 -6 9 185.72 9.24 0
5 -6 10 -7.54 11.37 0
5 -4 8 885.94 13.6 0
5 -3 8 312.93 12.24 0
5 -2 9 151.83 11.88 0
5 0 13 2021.21 19.57 0
5 0 14 3.67 13.15 0
5 0 15 52.67 14.47 0
5 0 16 5.72 14.66 0
-14 -1 -1 -2.84 17.13 0
-14 1 0 61.97 16.56 0
-13 -2 -2 39.48 16.13 0
-13 2 0 5.12 13.95 0
-13 3 1 11.69 15.63 0
-13 5 4 367.26 12.52 0
-12 5 3 90.39 12.41 0
-12 6 5 9.33 15.17 0
-11 -5 -3 151.6 16.82 0
-11 -2 -3 516.09 15.83 0
-11 2 -1 139.73 12.14 0
-11 3 0 179.41 13.22 0
-10 -6 -3 22.94 16.12 0
-10 -1 -3 31.19 12.31 0
-10 1 -2 1.02 12.55 0
-10 4 1 19.75 8.47 0
-10 6 4 52.69 13.41 0
-9 5 2 348.08 12.66 0
-9 6 4 32.51 9.15 0
-9 7 6 38.35 13.49 0
-9 8 9 -3.16 13.69 0
-8 -7 -3 206.24 23.28 0
-8 0 -3 2.32 11.67 0
-8 5 2 95.97 8.42 0
-8 7 6 101.88 12.76 0
-8 8 9 164.79 14.07 0
-7 0 -3 98.53 11.53 0
-7 5 2 15.5 7.88 0
-7 7 6 22.89 11.95 0
-6 0 -3 2.29 11.39 0
-6 5 2 45.96 11.26 0
-6 6 4 2020.67 18.26 0
-6 8 10 111.46 14.61 0
-5 -11 1 17.21 17.62 0
-5 7 7 230.12 13.33 0
-5 8 11 266.86 15.81 0
-4 -1 -3 1093.29 19.44 0
-4 3 0 376.92 10.84 0
-4 6 5 26.18 11.49 0
-4 7 8 63.76 12.41 0
-4 8 13 4.51 16.44 0
-3 -11 2 280.45 15.65 0
-3 7 9 5.55 13.21 0
-2 -6 -2 16.92 14.59 0
-2 2 0 4329.63 34.11 0
-2 6 7 31.19 12.57 0
-1 -9 1 -6.57 13.23 0
-1 -8 0 54.46 13.94 0
-1 3 2 230.07 16.07 0
0 -11 5 -6.3 13.62 0
0 -9 2 94.96 12.33 0
0 -7 0 3.02 11.41 0
0 6 12 435.12 32.58 0
1 -11 7 1.01 13.3 0
1 -10 5 -5.7 13.73 0
1 -8 2 1030.75 15.52 0
1 -4 0 281.12 14.85 0
2 -10 7 53.42 13.43 0
2 -9 5 334.93 13.35 0
2 -6 2 19.88 11.41 0
2 2 5 812.1 24.55 0
2 3 7 976.01 26.43 0
3 -9 8 248.9 13.44 0
3 -8 6 1.2 12.33 0
3 -5 3 228.5 8.91 0
3 -4 3 1292.73 16.07 0
3 -3 3 95.43 11.98 0
3 3 11 3.4 14.45 0
3 3 18 249.07 19.14 0
4 -8 9 471.78 11.29 0
4 -8 10 400.92 13.64 0
4 -6 6 1032.6 12.05 0
4 -4 5 -3.7 7.6 0
4 -3 5 77.36 8.2 0
4 -1 6 677.18 11.97 0
5 -6 11 83.46 13.03 0
5 -6 12 28.4 12.28 0
5 -5 9 -3.23 8.53 0
5 -5 10 129.41 11.33 0
5 -4 9 10.97 11.43 0
5 -3 9 95.08 12.02 0
5 -1 17 -2.22 16.19 0
5 -1 18 142.08 15.88 0
-14 0 -1 0.99 14.61 0
-13 -1 -2 232.19 15.81 0
-13 1 -1 154.27 15.12 0
-13 4 2 0.79 13.3 0
-12 0 -2 23.78 12.93 0
-11 1 -2 10.73 13.08 0
-11 4 1 455.54 10.82 0
-11 6 4 62.05 14.66 0
-11 7 6 66.08 14.28 0
-10 5 2 113.41 8.9 0
-10 7 6 10.72 10.5 0
-10 8 9 -6.43 14.69 0
-9 0 -3 1808.79 18.2 0
-8 -4 -4 213.07 15.41 0
-8 -3 -4 6.7 12.05 0
-8 3 -1 785.81 13.33 0
-7 -4 -4 138.15 15.67 0
-7 -3 -4 312.19 13.62 0
-7 3 -1 208.78 11.79 0
-7 8 9 1068.54 17.32 0
-6 -3 -4 4.91 13.73 0
-6 7 6 22.78 12.02 0
-5 0 -3 92.4 12.21 0
-5 6 4 30.7 11.82 0
-4 1 -2 8.85 9.45 0
-4 4 1 784.21 14.25 0
-3 -7 -2 227.26 16.27 0
-3 -2 -3 379.23 21.26 0
-2 -11 3 145.84 15.03 0
-2 1 -1 123.67 19.94 0
-2 3 1 12.13 13.93 0
-2 7 11 9.12 13.57 0
-1 -11 4 34.18 13.21 0
0 -8 1 -3.61 10.88 0
0 -4 -1 295.41 16.44 0
0 -3 -1 1310.86 26.98 0
1 -11 8 232.75 15.83 0
1 -3 0 1018.56 17.8 0
2 -10 8 130.09 14.39 0
2 -8 4 139.9 12.08 0
2 -7 3 105.73 12.28 0
2 -1 2 41.15 19.24 0
2 4 19 -3.25 20.77 0
3 -9 9 28.66 13.12 0
3 -7 5 10.64 11.67 0
3 -6 4 275.97 11.73 0
3 1 6 525.12 16.05 0
3 2 8 21.81 13.34 0
3 3 17 6.04 16.79 0
4 -8 11 632.17 15.53 0
4 -8 12 20.53 13.32 0
4 -7 8 80.68 8.54 0
4 -6 7 -10.5 11.26 0
4 -5 6 14.57 10.86 0
4 -2 6 130.05 11.11 0
4 1 10 102.35 11.71 0
5 -6 13 1666.72 16 0
5 -6 14 4.01 13.82 0
5 -6 15 15.26 12.05 0
5 -5 11 322.14 13.71 0
5 -5 12 10.48 12.74 0
5 -5 16 -3.97 15.14 0
5 -4 10 -2.12 12.36 0
5 -3 10 149.59 13 0
5 -2 10 46.33 9.4 0
5 -2 11 694.15 13.73 0
5 -1 14 1012.1 16.39 0
5 -1 15 6.38 14.22 0
5 -1 16 13.93 13.6 0
-14 2 0 63.76 15.48 0
-14 3 1 183.61 17.14 0
-13 5 3 206.37 14.19 0
-12 -4 -3 43.94 15.96 0
-12 -3 -3 496.06 17.27 0
-12 -2 -3 16.43 13.61 0
-12 2 -1 -3.67 12.8 0
-12 3 0 4.19 10.42 0
-12 4 1 340.57 13.56 0
-12 6 4 99.02 15.72 0
-11 -6 -3 7.01 20.46 0
-11 -1 -3 -0.62 10.49 0
-11 5 2 36.32 9.73 0
-10 0 -3 -6.18 12.47 0
-10 3 -1 25.05 11.17 0
-10 8 8 154.42 14.68 0
-9 -7 -3 90.78 22.24 0
-9 -4 -4 44.33 14.41 0
-9 -3 -4 479.32 14.89 0
-9 2 -2 182.8 12.46 0
-9 3 -1 6.95 7.69 0
-9 4 0 191.4 11.94 0
-9 6 3 30.63 13.22 0
-9 7 5 481.67 13.77 0
-9 8 8 184.91 15.27 0
-8 -2 -4 3.18 12.01 0
-8 2 -2 217.52 9.2 0
-8 4 0 19.58 7.95 0
-8 6 3 24.09 12.24 0
-8 7 5 257.11 12.82 0
-8 8 8 331.41 15.25 0
-7 -2 -4 94.02 12.05 0
-7 2 -2 110.43 8.05 0
-7 4 0 238.14 11.28 0
-7 6 3 154.33 12.52 0
-6 -11 1 8.56 20.39 0
-6 -4 -4 49.95 14.46 0
-6 2 -2 85.44 11.1 0
-6 3 -1 678.62 11.08 0
-6 4 0 12.72 10.18 0
-6 8 9 267.41 14.76 0
-5 -10 0 171.87 18.62 0
-5 -8 -2 29.19 18.17 0
-5 5 2 1540.53 14.67 0
-5 8 10 61.38 13.78 0
-4 7 7 16.18 11.2 0
-4 8 12 34.82 14.26 0
-3 -10 1 2.02 13.99 0
0 -11 6 3.74 10.89 0
0 -10 4 4.9 13.14 0
1 -10 6 47.76 13.56 0
1 -9 4 47.92 12.11 0
1 -6 1 99.22 12.24 0
2 -10 9 6.68 14.14 0
2 -9 6 17.4 11.68 0
2 -5 2 17.12 11.15 0
3 -9 10 53.53 14.79 0
3 -8 7 108.42 11.6 0
3 -5 4 157.75 10.98 0
3 -1 4 397.66 12.33 0
3 3 12 30.86 11.51 0
3 3 16 144.49 16.41 0
4 -8 13 11.79 10.98 0
4 -7 9 61.68 8.54 0
4 -4 6 46.93 8.55 0
4 -3 6 9.52 10.64 0
4 0 8 239.3 9.87 0
4 1 11 174.52 13.65 0
4 1 17 22.96 16.38 0
4 1 18 25.36 15.88 0
5 -5 13 164.68 10.58 0
5 -5 14 503.23 15.25 0
5 -5 15 3.86 11.41 0
5 -4 11 223.05 10.08 0
5 -4 12 25.75 13.09 0
5 -4 13 12.12 12.83 0
5 -4 14 29.79 12.88 0
5 -4 15 7.05 14.9 0
5 -4 16 54.91 15.51 0
5 -4 17 94.32 13.07 0
5 -3 11 114.28 12.62 0
5 -3 12 9.91 12.68 0
5 -3 15 3.37 12.93 0
5 -3 16 82.32 15.82 0
5 -3 17 32.23 14.99 0
5 -2 12 15.26 13.14 0
5 -2 13 149.2 13.4 0
5 -2 14 24.69 13 0
5 -2 15 26.18 14.44 0
5 -2 16 -0.36 13.78 0
-14 1 -1 14.72 16.8 0
-13 0 -2 -0.65 13.82 0
-13 3 0 45.94 14.99 0
-13 4 1 80.1 13.95 0
-12 -5 -3 12.88 18.26 0
-12 -1 -3 11.37 13.11 0
-12 1 -2 39.29 13.64 0
-12 5 2 -0.5 12.2 0
-11 0 -3 66.85 12.77 0
-11 3 -1 9.44 11.74 0
-11 6 3 196.44 14.06 0
-11 7 5 -1.3 13.77 0
-10 -3 -4 97.66 14.89 0
-10 2 -2 234.44 12.32 0
-10 4 0 197.66 9.35 0
-10 6 3 35.39 9.6 0
-10 7 5 63.61 13.65 0
-9 -2 -4 17.35 12.76 0
-9 1 -3 68.19 11.48 0
-9 5 1 40.4 11.71 0
-8 -5 -4 478.62 18.59 0
-8 1 -3 113.68 12.31 0
-8 5 1 187.57 11.92 0
-7 -5 -4 1059.41 24.61 0
-7 1 -3 78.92 11.83 0
-7 5 1 233.61 11.36 0
-7 7 5 12.3 11.67 0
-7 8 8 36.32 13.63 0
-6 -2 -4 323.27 13.79 0
-6 6 3 113.86 12.35 0
-5 3 -1 -1.19 10.65 0
-5 7 6 589.44 14.09 0
-4 -11 2 159.62 15.2 0
-4 6 4 8.54 10.73 0
-4 8 11 66.27 15.03 0
-3 2 -1 40.6 14.76 0
-3 3 0 512.21 15.77 0
-3 5 3 145.84 11.9 0
-3 6 5 542.36 13.92 0
-3 7 8 258.87 14.34 0
-3 8 15 59.55 18.97 0
-2 -10 2 523.47 15.64 0
-2 5 4 1947.77 21.7 0
-2 7 10 19.07 13.5 0
-1 -11 5 107.41 14.95 0
-1 -10 3 481.3 14.32 0
-1 -6 -1 97.72 14.64 0
-1 0 -1 195.34 23.08 0
0 -11 7 231.97 16 0
0 -6 0 6832.24 33.8 0
0 3 3 10.81 17.66 0
1 -8 3 555.01 13.93 0
1 -7 2 112.68 12.19 0
2 -10 10 426.32 16.62 0
2 -9 7 488.01 14.1 0
2 -8 5 233.88 13.15 0
2 4 11 936.1 24.2 0
2 4 18 5.43 17.45 0
3 -9 11 156.38 11.58 0
3 -9 12 42.88 15.48 0
3 -8 8 22.38 12.83 0
3 -7 6 22.19 10.92 0
3 -6 5 222.18 11.38 0
3 3 13 39.61 11.67 0
3 3 14 443.23 16.81 0
3 3 15 12.39 12.43 0
4 -7 10 25.46 8.61 0
4 -7 11 22.15 12.38 0
4 -7 12 163.78 13.03 0
4 -6 8 43.71 8.01 0
4 -5 7 411.28 10 0
4 0 9 -0.71 10.78 0
4 0 19 -16.86 17.29 0
4 1 12 786.75 15.65 0
4 1 16 336.93 15.54 0
5 -3 13 77.04 10.06 0
5 -3 14 241.77 10.85 0
-13 -3 -3 42.34 16.79 0
-13 -2 -3 137.62 17.63 0
-13 2 -1 4.12 10.57 0
-13 5 2 20.09 15.01 0
-12 6 3 -4.63 14.28 0
-11 2 -2 668.36 14.74 0
-11 4 0 14.15 8.99 0
-11 5 1 161.75 12.08 0
-10 -4 -4 57.24 14.38 0
-10 -2 -4 171.66 13.84 0
-10 1 -3 15.04 13.13 0
-10 5 1 68.29 9.13 0
-10 8 7 -14.36 15.12 0
-9 -5 -4 166.55 16.01 0
-9 -1 -4 257.66 12.98 0
-9 8 7 23.83 14.42 0
-8 -1 -4 22.34 11.41 0
-8 8 7 153.22 14.3 0
-7 -1 -4 1940.49 18.83 0
-6 1 -3 84.69 8.17 0
-6 5 1 321.9 12.08 0
-6 7 5 696.52 13.84 0
-6 8 8 82.45 13.78 0
-5 -9 -1 107.18 16.1 0
-5 -3 -4 263.75 16 0
-5 2 -2 221.11 9.37 0
-5 4 0 157.48 10.8 0
-5 8 9 98.79 13.48 0
-4 0 -3 -2.58 13.05 0
-4 5 2 29.6 10.74 0
-3 -11 3 77.02 14.85 0
-3 -9 0 17.87 12.63 0
-3 -8 -1 177.2 14.85 0
-3 8 14 -2.52 15.82 0
-2 -11 4 40.02 14.38 0
-2 4 2 12.1 13.15 0
-2 6 6 164.08 13.72 0
-1 6 8 3.65 13.39 0
0 -11 8 181.37 14.45 0
0 -10 5 21.38 13.06 0
0 -9 3 46.99 8.92 0
0 5 7 874.57 24.93 0
0 6 17 -1.32 28.86 0
1 -10 7 186.32 10.75 0
1 -9 5 174.54 12.9 0
1 5 18 -1.38 18.87 0
2 -9 8 18.39 12.11 0
2 -7 4 896.91 14.34 0
2 -6 3 4.5 8.2 0
2 -4 2 63.93 11.95 0
2 -2 2 19.42 15.86 0
2 1 4 2800.73 34.06 0
2 4 17 10.51 15.78 0
3 -8 9 458.98 14.37 0
3 -7 7 0.61 11.47 0
3 -4 4 85.28 8.29 0
3 -3 4 1621.8 17.79 0
3 -2 4 72.27 9.73 0
3 2 19 264.66 18.73 0
4 -7 13 119.46 10.63 0
4 -7 14 21.54 10.76 0
4 -7 15 31.37 11.71 0
4 -6 9 63.03 8.41 0
4 -6 10 378.91 12.91 0
4 -5 8 232.24 12.12 0
4 -4 7 14.98 8.11 0
4 -3 7 757.78 13.9 0
4 -2 7 87.12 8.63 0
4 0 18 22.13 16.42 0
4 1 13 9.82 12.46 0
4 1 14 0.89 13.02 0
4 1 15 56.28 12.41 0
-14 0 -2 35.78 16.88 0
-14 2 -1 9.7 14.44 0
-13 -4 -3 21.65 17.27 0
-13 -1 -3 8.15 14.22 0
-13 1 -2 218.64 11.96 0
-12 0 -3 -1.04 13.24 0
-12 2 -2 479.15 15.52 0
-12 3 -1 -2.52 10.07 0
-12 4 0 30.63 9.9 0
-12 5 1 104.15 12.91 0
-11 -3 -4 109.46 14.67 0
-11 -2 -4 424.3 14.32 0
-11 1 -3 1.44 12.63 0
-11 7 4 42.28 13.92 0
-10 -7 -3 27.35 20.99 0
-10 -1 -4 64.44 12.69 0
-10 6 2 157.58 12.92 0
-10 7 4 111.54 14.2 0
-9 3 -2 13.39 11.05 0
-9 4 -1 292.23 11.44 0
-9 6 2 52.47 12.12 0
-9 7 4 2.71 10.05 0
-8 3 -2 7.75 10.33 0
-8 4 -1 483.81 12.77 0
-8 6 2 252.33 11.69 0
-8 7 4 296.69 12.79 0
-7 6 2 13.5 12.21 0
-7 7 4 10.29 12.62 0
-7 8 7 194.11 12.9 0
-7 9 11 32.81 16.88 0
-6 -10 0 29.61 18.1 0
-6 -5 -4 655.85 23.31 0
-6 -1 -4 -1.87 8.52 0
-5 -4 -4 48.49 16.33 0
-5 -2 -4 388.97 15.68 0
-5 1 -3 159.16 12 0
-5 6 3 10 8.32 0
-5 7 5 272.09 12.1 0
-4 7 6 156.7 12.3 0
-4 8 10 122.46 13.73 0
-3 1 -2 1528.78 21.71 0
-3 4 1 7.72 8.38 0
-3 8 13 5.17 15.06 0
-2 -9 1 44.57 12.88 0
-2 -7 -1 361.81 15.98 0
-1 -11 6 56.23 15.78 0
-1 -9 2 4.39 11.45 0
-1 4 3 2352.67 26.42 0
-1 5 5 363.62 14.7 0
0 -8 2 427.05 12.74 0
0 -7 1 261.86 12.72 0
1 -10 8 65.41 14.12 0
1 -5 1 625.62 15.16 0
2 -9 9 14.15 12.54 0
2 -8 6 440.39 13.85 0
2 -3 2 803.19 14.59 0
2 4 12 29.85 15.5 0
2 4 16 8.29 17.07 0
3 -8 10 16.95 11.98 0
3 -8 11 73.77 13.41 0
3 -6 6 70.44 10.96 0
3 -5 5 231.73 11.54 0
3 1 7 88.08 12.51 0
3 2 9 874.05 17 0
4 -6 11 40.51 11.65 0
4 -6 12 0.33 12.91 0
4 -6 13 2.36 12.34 0
4 -6 14 86.42 13.73 0
4 -6 15 -7.02 15.8 0
4 -6 16 125.98 17.79 0
4 -5 9 65.1 11.96 0
4 -4 8 609.47 13.09 0
4 -3 8 8.42 10.66 0
4 -2 8 308.01 13.02 0
4 -1 19 23.35 16.34 0
4 0 10 378.28 13.37 0
4 0 17 -6.42 15.57 0
-14 1 -2 9.26 14.97 0
-13 3 -1 43.65 15.44 0
-13 4 0 66.36 15.53 0
-12 7 4 71.93 17.39 0
-11 -4 -4 148.02 15.27 0
-11 -1 -4 1.22 14.03 0
-11 6 2 -10.37 9.49 0
-10 -5 -4 0.15 14.06 0
-10 3 -2 -10.63 11.92 0
-10 4 -1 62.91 10.9 0
-10 5 0 145.37 12.07 0
-10 8 6 7.36 13.84 0
-9 0 -4 1.09 12.03 0
-9 2 -3 50.7 12.26 0
-9 5 0 5.83 10.96 0
-9 8 6 59.58 13.6 0
-8 0 -4 1157.06 14.27 0
-8 2 -3 537.38 12.62 0
-8 5 0 958.87 14.27 0
-8 8 6 243.51 14.12 0
-8 9 10 113.51 15.22 0
-7 0 -4 -6.47 11.7 0
-7 2 -3 149.59 10.81 0
-7 3 -2 561.1 10.53 0
-7 4 -1 11.48 7.76 0
-6 6 2 2.72 11.29 0
-6 7 4 573.31 13.44 0
-6 8 7 -0.15 13.46 0
-6 9 12 1.39 16 0
-5 -11 2 409.18 17.89 0
-5 5 1 100.02 8.4 0
-5 8 8 166.76 13.18 0
-4 -10 1 63.27 14.16 0
-4 2 -2 1165.33 17.23 0
-4 3 -1 4985.33 25.24 0
-4 4 0 280.84 11.99 0
-3 -1 -3 635.97 19.13 0
-3 7 7 532.98 15.78 0
-3 8 12 5.24 14.73 0
-2 -11 5 8.91 14.73 0
-2 -8 0 530.14 14.94 0
-2 0 -2 647.82 22.72 0
-2 7 9 824.61 18.62 0
-1 -10 4 256.25 12.87 0
-1 -8 1 19.86 11.35 0
-1 -7 0 11.16 11.68 0
0 -10 6 129.29 14.61 0
0 -9 4 46.84 12.11 0
1 -10 9 341.45 15.57 0
1 -9 6 55.81 12.49 0
1 -8 4 419.01 10.63 0
1 5 17 131.73 22.48 0
2 -9 10 16.16 14.7 0
2 -8 7 -6.3 12.66 0
2 -7 5 -0.96 11.39 0
2 -5 3 38.57 10.52 0
2 4 13 30.22 16.04 0
2 4 15 76.32 17.01 0
3 -8 12 -0.44 10.55 0
3 -8 13 705.18 15.53 0
3 -8 14 25 14.45 0
3 -7 8 85.91 9.15 0
3 -7 9 98.27 11.85 0
3 -4 5 24.8 11.15 0
3 -1 5 70.48 9.67 0
3 2 18 28 15.7 0
4 -5 10 22.26 8.71 0
4 -5 11 78.32 11.91 0
4 -5 16 1.23 15.9 0
4 -5 17 19.61 15.39 0
4 -4 9 134.2 11.15 0
4 -3 18 0.92 14.71 0
4 -2 18 28.92 16.62 0
4 -1 17 18.79 14.13 0
4 -1 18 20.98 15.64 0
4 0 11 4.47 11.11 0
4 0 12 53.94 12.67 0
4 0 13 6.98 11.62 0
4 0 14 575.98 14.5 0
4 0 15 10.93 13.65 0
4 0 16 610.78 15.73 0
-13 0 -3 189.1 11.89 0
-13 2 -2 26.13 13.99 0
-13 5 1 26.76 12.17 0
-12 -3 -4 4.44 15.28 0
-12 -2 -4 475.55 16.43 0
-12 1 -3 11.56 9.95 0
-12 6 2 316.96 11.98 0
-11 -7 -3 15.52 21.96 0
-11 3 -2 42.03 9.71 0
-11 4 -1 339.51 10.57 0
-11 5 0 188.84 12.78 0
-10 0 -4 633.55 11.83 0
-10 2 -3 87.25 11.8 0
-10 7 3 -1.29 14 0
-9 7 3 497.51 14.75 0
-8 7 3 39.25 12.64 0
-8 9 9 59.65 15.83 0
-7 5 0 253.29 8.9 0
-7 8 6 -0.87 13.32 0
-7 9 10 220.84 16.26 0
-6 0 -4 2238.23 20.01 0
-6 2 -3 179.7 10.89 0
-6 3 -2 215.12 8.64 0
-6 4 -1 81.65 7.98 0
-6 9 11 80.84 15.55 0
-5 -1 -4 3425.54 26.47 0
-4 -11 3 212.16 16.44 0
-4 6 3 69.7 11.66 0
-4 8 9 123.18 13.45 0
-3 -11 4 6.67 14.69 0
-3 -10 2 7.96 13.36 0
-3 5 2 1830.19 19.03 0
-3 6 4 94.65 11.76 0
-2 -10 3 211.02 13.04 0
-2 -5 -2 23.2 15.41 0
-1 -11 7 113.58 11.75 0
-1 7 14 63.58 26.95 0
0 -10 7 54.37 12.95 0
0 -5 0 -2.99 12.89 0
1 -10 10 82.55 11.25 0
1 -10 11 6.78 15.74 0
1 -9 7 -2.27 11.82 0
1 -7 3 1245.2 14.13 0
1 -6 2 -0.8 8.17 0
1 -4 1 1147.31 18.37 0
1 -1 1 6.54 21.3 0
2 -9 11 0.71 11.42 0
2 -9 12 14.19 15.8 0
2 -9 13 66.5 16.61 0
2 -6 4 261.54 9.41 0
2 4 14 29.05 15.39 0
3 -7 10 38.04 11.74 0
3 -6 7 2818.5 17.15 0
3 -5 6 81.26 11.4 0
3 -3 5 158.24 12.12 0
3 -2 5 12.59 12.2 0
3 2 10 309.52 13.03 0
3 2 17 238.81 15.36 0
4 -5 12 234.47 10.07 0
4 -5 13 2.89 12.63 0
4 -5 14 61.13 13.31 0
4 -5 15 193.26 11.71 0
4 -4 10 885.02 13.9 0
4 -4 11 616.25 13.66 0
4 -4 16 361.45 16.44 0
4 -4 17 8.15 11.88 0
4 -3 9 396.38 10.15 0
4 -3 10 24.91 11.22 0
4 -3 17 93.07 16.48 0
4 -2 9 915.86 12.8 0
4 -2 10 384.39 13.24 0
4 -2 17 2.83 15.39 0
4 -1 16 359.72 15.34 0
-13 1 -3 4.97 15.43 0
-12 -4 -4 129.17 16.57 0
-12 -1 -4 195.06 13.9 0
-12 3 -2 33.05 13.17 0
-12 4 -1 75.93 10.46 0
-12 5 0 3.88 13.5 0
-11 -5 -4 10.21 15.8 0
-11 0 -4 -1.56 9.4 0
-11 2 -3 517.92 11.49 0
-11 6 1 320.69 13.62 0
-11 7 3 191 11.72 0
-10 1 -4 43.71 12.19 0
-10 6 1 4.57 9.2 0
-10 8 5 77.82 13.36 0
-9 -6 -4 -0.53 18.81 0
-9 1 -4 253.96 12.62 0
-9 6 1 297.95 10.05 0
-9 8 5 219.96 13.44 0
-9 9 8 -0.57 16.28 0
-8 -6 -4 95.5 20.07 0
-8 1 -4 21.38 12.18 0
-8 6 1 125.13 9.04 0
-8 8 5 152.12 13.69 0
-7 -10 0 4.22 18.62 0
-7 1 -4 2025.45 17.87 0
-7 6 1 7.02 11.85 0
-7 7 3 94.79 13.22 0
-7 9 9 24.44 15.43 0
-6 -11 2 14.64 18.63 0
-6 -9 -1 217.78 19.74 0
-6 5 0 40 8.07 0
-6 8 6 62.85 13.9 0
-6 9 10 5.28 15.63 0
-5 3 -2 2104.56 18.08 0
-5 4 -1 14.1 10.71 0
-5 6 2 111.31 11.98 0
-5 7 4 91.79 11.39 0
-5 8 7 7.36 12.53 0
-5 9 13 5.07 15.13 0
-4 -9 0 0.83 13.97 0
-4 1 -3 1092.33 17.65 0
-4 5 1 72.96 11.22 0
-4 7 5 165.39 12.16 0
-3 8 11 18.33 14.94 0
-2 -11 6 28.25 15.08 0
-2 5 3 902.19 16.97 0
-1 -11 8 2.51 14.26 0
-1 -10 5 90.38 13.57 0
-1 -9 3 10.58 11.83 0
-1 -5 -1 622.45 19.04 0
-1 7 13 9.65 22.77 0
0 -9 5 91.85 11.96 0
0 -8 3 -1.58 11.5 0
0 6 16 36.34 27.34 0
1 -8 5 35.7 10.98 0
1 5 16 652.51 25.94 0
2 -8 8 58.94 9.16 0
2 -8 9 1.49 11.91 0
2 -7 6 71.71 10.96 0
2 -4 3 71.7 12.28 0
2 -1 3 744.46 20.37 0
2 3 8 1.48 12.78 0
2 3 19 6.92 18.71 0
3 -7 11 -16.68 9.23 0
3 -7 12 26.27 12.61 0
3 -7 13 347.56 14.76 0
3 -7 14 29.11 13.96 0
3 -7 15 40.7 13.65 0
3 -6 8 51.34 8.32 0
3 -4 6 88.43 10.74 0
3 1 8 17.45 12.01 0
3 1 19 81.54 17.01 0
3 2 11 816.55 16.07 0
3 2 15 37.19 15.65 0
3 2 16 302.68 15.41 0
4 -4 12 17.73 9.26 0
4 -4 13 23.06 12.28 0
4 -4 14 657.74 14.99 0
4 -4 15 2.36 10.52 0
4 -3 11 434.94 14.19 0
4 -3 12 23.96 12.68 0
4 -3 13 8.29 12.56 0
4 -3 14 39.22 12.96 0
4 -3 15 61.55 14.38 0
4 -3 16 4.5 10.77 0
4 -2 11 1640.45 18.2 0
4 -2 12 466.28 13.25 0
4 -2 14 154.02 12.82 0
4 -2 15 51.67 13.47 0
4 -2 16 275.27 14.7 0
-13 -3 -4 8.95 17.54 0
-13 -2 -4 77.82 16.37 0
-13 -1 -4 -17.59 14.84 0
-13 3 -2 27.04 15.59 0
-13 4 -1 -3.03 14.66 0
-13 5 0 127.57 15.82 0
-12 0 -4 168.52 15.32 0
-12 2 -3 -3.36 10.38 0
-12 6 1 15.81 14.14 0
-11 1 -4 7.79 12.69 0
-10 4 -2 76.3 11.87 0
-10 5 -1 106.04 11.3 0
-9 -3 -5 20.6 14.98 0
-9 -2 -5 1015.37 17.27 0
-9 3 -3 4.98 11.41 0
-9 4 -2 139.21 11.37 0
-9 5 -1 102.64 11.46 0
-9 7 2 176.26 12.78 0
-8 -3 -5 172.3 14.82 0
-8 -2 -5 27.52 11.59 0
-8 3 -3 678.75 12.83 0
-8 4 -2 332.15 12.33 0
-8 5 -1 250.58 11.29 0
-8 9 8 5.17 14.22 0
-7 8 5 22.23 12.64 0
-6 -8 -2 2.76 21.39 0
-6 7 3 378.44 13.06 0
-5 -10 1 8.01 16.32 0
-5 0 -4 13.99 11.58 0
-5 2 -3 25.18 10.86 0
-5 9 12 -2.59 14.72 0
-4 -7 -2 45.51 16.43 0
-4 8 8 349.44 14.22 0
-3 -11 5 1.7 15.96 0
-3 -9 1 65.74 13.57 0
-3 7 6 1558.66 18.1 0
-2 -10 4 41.07 11.58 0
-2 -9 2 10.98 12.66 0
-2 2 -1 252.99 18.63 0
-2 3 0 45.45 14.85 0
-2 6 5 27.6 11.1 0
-2 7 8 498.75 16.51 0
-1 6 7 377.23 16.16 0
0 -10 8 3.81 12.79 0
0 -7 2 3.58 11.46 0
0 -6 1 20.6 12.54 0
1 -9 8 35.9 9.9 0
1 -9 9 120.34 13.05 0
1 -7 4 25.28 11.94 0
1 -3 1 113.72 15.85 0
1 5 12 5.75 20.93 0
2 -8 10 738.39 15.39 0
2 -7 7 221.59 12.62 0
2 -6 5 101.86 11.59 0
2 -5 4 1394.05 16.12 0
2 -3 3 106.33 13.81 0
2 2 6 564.29 19.88 0
3 -6 9 457.73 10.3 0
3 -6 10 15.06 11.04 0
3 -6 16 23.83 15.14 0
3 -5 7 267.9 9.32 0
3 -3 6 1404.13 16.05 0
3 -1 6 544.22 14.47 0
3 0 7 8208.27 36.89 0
3 1 18 4.65 15.77 0
3 2 12 2.8 11.81 0
3 2 13 668.53 15.74 0
3 2 14 111.15 13.14 0
4 -2 13 10.23 9.63 0
-13 0 -4 -6.14 14.47 0
-13 2 -3 162.7 15.35 0
-12 -5 -4 74.53 17.28 0
-12 1 -4 198.46 13.71 0
-11 3 -3 -11.32 13.18 0
-11 4 -2 387.83 10.56 0
-11 5 -1 450.97 13.85 0
-11 7 2 24.54 13.9 0
-10 -6 -4 203.02 19.1 0
-10 -3 -5 645.57 17.04 0
-10 -2 -5 5.13 13.09 0
-10 -1 -5 39.36 12.7 0
-10 3 -3 41.28 9.27 0
-10 6 0 212.99 12.41 0
-10 7 2 231.55 10.86 0
-10 8 4 108.46 13.67 0
-9 -1 -5 3.31 10.93 0
-9 2 -4 21.29 11.65 0
-9 6 0 2.74 11.68 0
-9 8 4 -6.43 12.7 0
-9 9 7 6.78 14.59 0
-8 -10 0 20.33 23.52 0
-8 -1 -5 557.38 14.3 0
-8 7 2 41.52 11.41 0
-8 8 4 398.05 14.21 0
-8 9 7 104.49 14.38 0
-7 -3 -5 4.45 13.72 0
-7 -2 -5 23.08 11.29 0
-7 -1 -5 -5.62 10.42 0
-7 3 -3 3.8 10.03 0
-7 4 -2 8.76 7.76 0
-7 5 -1 598.49 12.74 0
-7 9 8 14.2 13.37 0
-6 1 -4 0.46 8.12 0
-6 6 1 44.51 8.19 0
-6 8 5 205.1 12.81 0
-6 9 9 82.29 14.78 0
-5 -11 3 33.1 15.75 0
-5 5 0 21.96 7.46 0
-5 8 6 1182.37 16.22 0
-5 9 11 0.07 14.34 0
-4 -11 4 -0.15 15.18 0
-4 -8 -1 -4.67 13.15 0
-4 -3 -4 233.52 19.15 0
-4 -2 -4 1192.77 21.59 0
-3 -10 3 94.8 14.48 0
-3 0 -3 585.15 14.5 0
-3 3 -1 241.34 10.69 0
-3 4 0 113.25 12.02 0
-3 8 10 39.89 14.21 0
-2 -11 7 10.56 15.44 0
-2 4 1 693.34 16.36 0
-1 -10 6 28.36 12.15 0
-1 -8 2 209 12.45 0
-1 2 0 81.37 19.21 0
-1 3 1 -4.9 14.99 0
-1 7 12 333.75 24.26 0
0 -10 9 -11.28 10.84 0
0 -10 10 38.29 13.73 0
0 -9 6 12.97 12.3 0
1 -9 10 14.94 14.7 0
1 -8 6 44.25 9.05 0
1 -6 3 731.12 14.7 0
1 -5 2 211.07 9.87 0
1 -2 1 1062.78 20.57 0
1 5 14 17.68 19.16 0
1 5 15 26.04 18.44 0
2 -8 11 -0.55 9.83 0
2 -8 12 45.35 12.65 0
2 -8 13 -9.29 14.44 0
2 -8 14 4.85 14.67 0
2 -7 8 94.93 11.4 0
2 -2 3 146.54 12.18 0
2 3 18 10.2 17.11 0
3 -6 11 185.13 12.08 0
3 -6 12 15.47 12.23 0
3 -6 13 38.43 13.24 0
3 -6 14 66.63 13.94 0
3 -6 15 -2.82 13.17 0
3 -5 8 79.42 8.53 0
3 -5 17 160.76 15.93 0
3 -4 7 332.89 12.01 0
3 -2 6 11.19 8.31 0
3 0 19 20.59 15.51 0
3 1 9 530.23 15.06 0
3 1 17 711.59 17.97 0
-12 3 -3 498.35 15.72 0
-12 4 -2 524.2 12.55 0
-12 5 -1 -0.42 10.26 0
-12 6 0 169.2 13.67 0
-11 -6 -4 18.11 20.21 0
-11 -3 -5 58.17 14.45 0
-11 -2 -5 198.2 14.79 0
-11 -1 -5 154.67 15.2 0
-11 2 -4 436.18 14.35 0
-11 6 0 9.07 12.6 0
-10 -4 -5 44.65 15.09 0
-10 0 -5 -7.91 12.51 0
-10 2 -4 177.31 10.33 0
-9 -4 -5 1204.98 19.32 0
-9 0 -5 551.74 14.01 0
-9 9 6 132.85 14.26 0
-8 -4 -5 13.97 14.35 0
-8 0 -5 -1.51 11.94 0
-8 2 -4 -8 8.28 0
-8 6 0 94.57 9.11 0
-7 -6 -4 22.01 21.95 0
-7 2 -4 93.46 11.34 0
-7 6 0 28.46 10.54 0
-7 7 2 97.63 9.54 0
-7 8 4 58.14 12.58 0
-7 9 7 78.41 14.06 0
-6 3 -3 1357.52 15.35 0
-6 4 -2 135.39 8.53 0
-6 5 -1 1230.39 14.58 0
-6 9 8 1.17 14.92 0
-5 6 1 46.99 11.01 0
-5 7 3 2.2 11.75 0
-5 9 10 9.31 14.15 0
-4 -10 2 3.36 13.39 0
-4 -1 -4 592.84 17.32 0
-4 3 -2 145.41 11.89 0
-4 4 -1 109.11 11.12 0
-4 6 2 268.49 12.04 0
-4 7 4 61.5 12.12 0
-4 8 7 63.46 12.09 0
-3 -11 6 260.89 14.88 0
-3 -8 0 -3.38 13.75 0
-3 -6 -2 25.04 14.38 0
-3 2 -2 -4.85 10.18 0
-3 6 3 1354.92 17.12 0
-2 -11 8 58.89 16.03 0
-2 -8 1 360.68 13.45 0
-1 -10 7 140.54 14.69 0
-1 -9 4 85.9 11.74 0
-1 -7 1 91.57 11.87 0
-1 -6 0 203.58 13.88 0
-1 5 4 217.31 13.73 0
0 -10 11 32.27 13.64 0
0 -8 4 674.02 11.86 0
0 -4 0 579.67 17.06 0
0 4 4 777.02 23.75 0
1 -9 11 43.42 10.57 0
1 -9 12 406.19 15.11 0
1 -9 13 105.25 16.44 0
1 -8 7 273.22 13.93 0
1 -7 5 628.54 13.43 0
1 5 13 14.84 17.9 0
2 -7 9 1.71 11.83 0
2 -6 6 1815 15.11 0
2 -5 5 73.68 11.31 0
2 -4 4 1601.45 17.53 0
3 -5 9 1121.44 12.79 0
3 -5 10 14.16 11.88 0
3 -5 15 88.71 13.89 0
3 -5 16 4.68 15.41 0
3 -4 8 33.13 11.4 0
3 -4 18 188.86 15.25 0
3 -3 7 3.41 10.92 0
3 -3 19 24.76 16.3 0
3 -2 19 246.85 18.34 0
3 -1 7 86.45 11.88 0
3 -1 19 79.19 15.83 0
3 0 18 -3.52 16.36 0
3 1 16 134.87 14.3 0
-13 1 -4 2.82 14.21 0
-13 3 -3 34.14 15.95 0
-13 4 -2 36.93 11.37 0
-13 5 -1 13.91 11.58 0
-12 -3 -5 118.99 16.67 0
-12 -2 -5 13.64 15.33 0
-12 -1 -5 61.38 15.27 0
-12 2 -4 446.27 15.33 0
-11 -4 -5 436.01 18.85 0
-11 0 -5 637.15 15.76 0
-11 7 1 8.64 14.9 0
-11 8 3 56.2 15.86 0
-10 4 -3 22.39 11.5 0
-10 5 -2 125.32 11.47 0
-10 7 1 81.2 13.49 0
-10 8 3 12.33 13.18 0
-9 4 -3 4.12 11.53 0
-9 5 -2 125.39 11.03 0
-9 7 1 -11.11 13.65 0
-9 8 3 13.63 13.69 0
-8 7 1 47.55 11.5 0
-8 9 6 15.18 14.52 0
-7 -9 -1 6.48 21.24 0
-7 -4 -5 85.23 14.8 0
-7 0 -5 734.93 14.59 0
-6 -3 -5 140.5 14.59 0
-6 -2 -5 31.11 11.91 0
-6 -1 -5 569.77 14.68 0
-6 7 2 44.99 11.87 0
-5 1 -4 3288.38 22.25 0
-4 2 -3 177.22 12.44 0
-4 5 0 502.02 12.84 0
-4 9 13 308.95 19.49 0
-3 -7 -1 80.77 13.99 0
-3 5 1 2300.56 19.99 0
-3 7 5 99.31 12.96 0
-3 8 9 174.83 13.2 0
-2 -10 5 177.53 13.22 0
-2 -9 3 160.67 12.3 0
-2 -7 0 45.34 12.88 0
-2 -6 -1 87.49 14.29 0
-2 7 7 27.76 13.2 0
-1 -10 8 15.51 12.65 0
-1 7 11 397.24 23.89 0
0 -9 7 126.99 9.77 0
0 -7 3 526.98 14.29 0
1 -8 8 21.26 12.7 0
1 4 19 42.68 19.2 0
2 -7 10 67.09 11.94 0
2 -7 11 98.26 12.17 0
2 -7 14 5.53 13.13 0
2 -7 15 348.79 15.89 0
2 -7 16 13.54 14.47 0
2 -6 7 142.63 11.93 0
2 1 5 39.92 14.5 0
2 2 19 6.07 17.76 0
2 3 9 159.1 14.65 0
2 3 17 370.61 17 0
3 -5 11 22.25 8.29 0
3 -5 12 43.08 11.85 0
3 -5 13 15.51 12.51 0
3 -5 14 44.46 12.66 0
3 -4 9 1697.55 16.5 0
3 -4 16 101.3 15.3 0
3 -4 17 177.19 12.62 0
3 -3 17 -6.79 13.19 0
3 -3 18 211.93 12.98 0
3 -2 7 61.59 7.99 0
3 -2 18 28.88 15.98 0
3 -1 18 26.77 14.36 0
3 0 8 -0.77 8.94 0
3 0 17 162.24 15.05 0
3 1 10 0.36 10.96 0
3 1 11 131.26 11.81 0
3 1 14 7.02 12.83 0
3 1 15 101.29 13.98 0
-13 2 -4 88.11 15.05 0
-12 0 -5 12.81 14.29 0
-12 5 -2 140.04 13.21 0
-11 1 -5 163.29 13.14 0
-11 4 -3 124.35 12.69 0
-11 5 -2 -6.67 12.1 0
-11 6 -1 88.31 12.63 0
-10 1 -5 20.14 11.88 0
-10 3 -4 105.21 12.94 0
-10 6 -1 77.34 12.63 0
-9 1 -5 9.7 8.47 0
-9 3 -4 442.93 13.46 0
-9 6 -1 306.49 12.63 0
-9 9 5 24.35 15.28 0
-8 1 -5 587.95 13.63 0
-8 3 -4 -5.01 10.95 0
-8 4 -3 779.25 11.17 0
-8 5 -2 10.06 7.8 0
-8 8 3 9.81 9.74 0
-7 4 -3 35.63 10.16 0
-7 7 1 163.76 12.58 0
-7 9 6 132.14 14.68 0
-6 -11 3 182.53 16.93 0
-6 -10 1 73.96 16.83 0
-6 0 -5 10.12 10.97 0
-6 2 -4 301.26 9.12 0
-6 6 0 4.57 7.96 0
-6 8 4 19.18 12.35 0
-6 9 7 14.7 14.28 0
-5 -11 4 -6.48 15.77 0
-5 -9 0 567.8 17.83 0
-5 3 -3 192.9 11.32 0
-5 4 -2 1062.82 12.44 0
-5 5 -1 693.4 13.02 0
-5 8 5 268.27 13.31 0
-5 9 9 169.64 14.68 0
-4 -11 5 182.14 14.93 0
-4 0 -4 354.76 14.52 0
-4 9 12 4.03 17.63 0
-3 -11 7 9.08 15.49 0
-3 -10 4 -10.64 12.54 0
-2 -10 6 283.46 13.3 0
-2 1 -2 35.62 12.94 0
-2 5 2 22.55 12.61 0
-2 6 4 135.79 12.12 0
-1 -10 9 32.95 14.86 0
-1 -9 5 114.91 11.96 0
-1 -8 3 650.74 14.28 0
-1 4 2 14.98 12.57 0
0 -9 8 51.23 10.04 0
0 -8 5 36.98 8.61 0
0 -6 2 8.39 12.02 0
0 -5 1 438.87 15.46 0
0 5 6 274.41 17.79 0
0 6 15 3.19 24.58 0
1 -8 9 -2.32 12.98 0
1 -7 6 -1.81 12.46 0
1 -6 4 42.63 8.57 0
1 -5 3 942.9 15.38 0
1 -4 2 2512.54 20.73 0
2 -7 12 27.88 9.5 0
2 -7 13 -2.52 10.18 0
2 -6 8 34.98 11.28 0
2 -6 17 5.74 15.63 0
2 -5 6 13.84 11.06 0
2 -3 4 1.95 8.91 0
2 1 20 113.12 18.67 0
2 3 16 53.93 13.64 0
3 -4 10 173.59 11.53 0
3 -4 11 176.17 12.71 0
3 -4 12 177.72 12.28 0
3 -4 13 1056.51 15.51 0
3 -4 14 155.02 13.96 0
3 -4 15 57.7 12.84 0
3 -3 8 193.79 9.11 0
3 -3 16 136.41 14.98 0
3 -2 8 44.62 11.36 0
3 -2 17 220.94 16.29 0
3 0 9 21.59 12.26 0
3 0 16 -8.72 14.61 0
3 1 12 22.42 11.91 0
3 1 13 47.16 11.84 0
-13 -2 -5 316.98 16.85 0
-13 -1 -5 133.52 15.76 0
-13 0 -5 229.06 15.28 0
-13 4 -3 34 14.71 0
-12 -4 -5 0.64 16.42 0
-12 1 -5 75.56 14.72 0
-12 3 -4 3.78 14.5 0
-12 4 -3 51.44 11.34 0
-12 6 -1 17.96 14.17 0
-11 3 -4 100.29 10.24 0
-11 8 2 50.52 16.36 0
-10 -5 -5 11.91 15.76 0
-10 7 0 180 13.14 0
-10 8 2 545.95 16.63 0
-9 -5 -5 144.13 16.08 0
-9 8 2 151.48 14.5 0
-8 6 -1 13.72 8.69 0
-8 9 5 -8.95 14.43 0
-7 1 -5 -0.41 8.65 0
-7 3 -4 329.96 11.89 0
-7 5 -2 395.53 9.61 0
-7 8 3 7.24 9.09 0
-5 -10 2 13.83 16.09 0
-5 7 2 1368.43 16.5 0
-5 9 8 94.72 13.92 0
-4 -10 3 175.32 14.78 0
-4 -9 1 53.76 14.51 0
-4 6 1 11.59 11.6 0
-4 7 3 252.42 12.25 0
-4 8 6 92.63 12.69 0
-4 9 11 38.17 17.09 0
-3 -11 8 -2.19 16.5 0
-3 -9 2 13 12.49 0
-3 1 -3 625.76 14.49 0
-3 8 8 5.89 11.59 0
-1 -10 10 62.09 15.48 0
-1 -10 11 38.53 14.35 0
-1 -9 6 1556.26 16.78 0
-1 -4 -1 1191 24.22 0
-1 1 -1 9.59 21.14 0
-1 6 6 6.09 10.18 0
0 -9 9 2.09 9.83 0
0 -9 10 20.55 14.02 0
0 -8 6 1466.72 16.43 0
0 -3 0 0.37 15.31 0
1 -8 10 531.96 11.56 0
1 -8 11 82.56 12.59 0
1 -8 12 16.09 14.57 0
1 -8 13 522.85 15.32 0
1 -8 14 429.98 16.21 0
1 -8 15 11.2 11.54 0
1 -7 7 228.32 12.19 0
2 -6 9 70.94 11.86 0
2 -6 15 -6.84 13.24 0
2 -6 16 1053.62 18.41 0
2 -5 18 110.11 15.77 0
2 -4 5 1611.58 15.26 0
2 -2 4 4831.64 28.38 0
2 -1 4 2736.25 24.56 0
2 2 18 12.51 15.55 0
2 3 10 7.98 12.97 0
2 3 15 184.67 15.59 0
3 -3 9 48.16 8.52 0
3 -3 10 321.96 11.97 0
3 -3 11 11.69 11.2 0
3 -3 14 467.37 15.2 0
3 -3 15 9.26 13 0
3 -2 9 871.23 15.11 0
3 -2 15 23.74 13.86 0
3 -2 16 327.69 11.39 0
3 0 10 0.12 11.56 0
3 0 11 584.03 14.15 0
3 0 13 130.43 12.45 0
3 0 14 6.44 13.39 0
3 0 15 34.54 10.58 0
-13 1 -5 116.89 14.83 0
-13 3 -4 1.27 15.97 0
-11 -5 -5 154.56 18.58 0
-11 2 -5 202.46 13.93 0
-11 7 0 194.79 11.21 0
-10 -2 -6 384 15.74 0
-10 -1 -6 -0.39 12.12 0
-10 2 -5 -3.75 9.49 0
-10 5 -3 45.29 11.75 0
-9 -2 -6 -3.51 12.28 0
-9 -1 -6 132.15 13.22 0
-9 2 -5 995.03 12.74 0
-9 7 0 -8.81 9.57 0
-9 9 4 24.7 15.45 0
-8 -5 -5 364.15 19.79 0
-8 2 -5 23 11.75 0
-8 7 0 421.4 14.11 0
-8 8 2 894.35 14.99 0
-7 6 -1 559.59 10.51 0
-7 9 5 2.16 13.93 0
-6 1 -5 587.95 14.01 0
-6 4 -3 299 11.31 0
-6 5 -2 108.08 10.81 0
-6 7 1 335.08 12.53 0
-6 8 3 12.91 12.15 0
-6 9 6 5.44 13.33 0
-5 -5 -4 1344.93 51.12 0
-5 -2 -5 142.68 15.63 0
-5 -1 -5 714.16 16.45 0
-5 2 -4 401.57 11.77 0
-5 6 0 6.98 10.86 0
-5 8 4 37.79 11.95 0
-4 -11 6 14.08 14.63 0
-4 9 10 73.92 15.15 0
-3 -10 5 91.36 13.06 0
-3 4 -1 99.44 11.9 0
-3 6 2 72.91 11.58 0
-2 -10 7 -2.81 14.17 0
-2 -9 4 -2.11 13.03 0
-2 -8 2 16.79 11.7 0
-2 8 13 423.08 24.48 0
-2 8 14 11.81 23.34 0
-1 -7 2 42.57 11.55 0
-1 7 10 88.44 19.13 0
0 -9 11 173.53 11.66 0
0 -9 12 48.73 14.01 0
0 -9 13 218.66 15.29 0
0 -7 4 -0.95 12.42 0
0 6 14 77.86 28.15 0
1 -6 5 -3.9 11.41 0
1 -3 2 3337.04 27.87 0
1 4 18 45.78 18.3 0
2 -6 10 507.83 10.89 0
2 -6 11 4.01 11.18 0
2 -6 12 1040.49 15.61 0
2 -6 13 16.91 13 0
2 -6 14 824.91 15.27 0
2 -5 7 410.07 10.41 0
2 -5 17 5.94 16.27 0
2 -4 19 17.27 15.48 0
2 -1 20 145.52 18.18 0
2 0 20 52.13 16.98 0
2 1 19 429.35 18.71 0
2 2 7 31.96 12.4 0
2 3 11 18.09 13.96 0
2 3 14 77.95 14.66 0
3 -3 12 45.91 9.38 0
3 -3 13 40.75 9.33 0
3 -2 10 309.34 12.76 0
3 -2 11 834.6 15.34 0
3 -2 12 -5.53 12.77 0
3 -2 13 660.58 15.19 0
3 -2 14 103.28 12.75 0
3 0 12 -4.93 12.08 0
-12 2 -5 3.12 13.14 0
-12 5 -3 -7.89 15.11 0
-11 -2 -6 -4.21 14.62 0
-11 -1 -6 15.47 13.89 0
-11 0 -6 1.59 12.64 0
-11 4 -4 135.96 13.88 0
-11 5 -3 164.82 10.5 0
-11 6 -2 0.97 13.37 0
-10 -3 -6 38.94 15.21 0
-10 0 -6 178.56 14.14 0
-10 4 -4 47.89 9.24 0
-10 6 -2 1850.92 17.13 0
-10 8 1 90.88 15.7 0
-9 -3 -6 415 16.12 0
-9 0 -6 -0.67 12.03 0
-9 4 -4 50.28 11.24 0
-9 5 -3 135.86 8.96 0
-9 6 -2 25.2 11.34 0
-9 8 1 114.01 13.56 0
-8 -9 -1 125.01 25.19 0
-8 -2 -6 421.9 14.58 0
-8 -1 -6 120.64 12.22 0
-8 0 -6 41.18 11.4 0
-8 4 -4 214.36 11.88 0
-8 5 -3 246.82 11.39 0
-8 9 4 20.94 13.1 0
-7 -10 1 198.49 20.38 0
-7 2 -5 18.43 10.92 0
-7 7 0 136.66 12.12 0
-7 8 2 178.56 13.08 0
-6 -4 -5 8.64 14.64 0
-6 3 -4 2.93 7.27 0
-6 6 -1 125.44 10.96 0
-5 -11 5 18.57 15.9 0
-5 -8 -1 96.94 17.17 0
-5 0 -5 242.83 13.22 0
-5 9 7 75.4 13.79 0
-4 -11 7 1.02 15.9 0
-4 1 -4 581.77 12.12 0
-4 3 -3 52.79 11.32 0
-4 4 -2 20.38 7.88 0
-4 5 -1 289.53 11.72 0
-4 8 5 41.34 12.56 0
-3 3 -2 371.87 11.01 0
-3 5 0 1169.54 15.53 0
-3 7 4 9.2 11.02 0
-3 8 7 345.23 15.64 0
-2 -10 8 2.49 14.49 0
-2 3 -1 850.67 18.28 0
-2 4 0 1643.86 19.74 0
-2 7 6 300.78 13.48 0
-2 8 12 55.51 17.89 0
-1 -9 7 12.9 11.82 0
-1 -8 4 10.21 11.02 0
0 -8 7 7.82 9.17 0
0 5 19 0.86 21.08 0
1 -7 8 92.45 8.97 0
1 -7 9 453.83 13.33 0
1 -7 15 34.71 13.71 0
1 -7 16 62.27 15.47 0
1 -5 4 47.55 10.85 0
2 -5 8 17.31 8.32 0
2 -5 15 227.02 13.22 0
2 -5 16 228.39 15 0
2 -4 6 143.58 9.03 0
2 -4 18 0.33 14.79 0
2 -3 5 1530.07 15.78 0
2 -3 19 11.67 15.61 0
2 -2 19 26.25 15.5 0
2 0 19 -11.1 16.71 0
2 1 18 49.97 14.73 0
2 2 17 23.49 14.51 0
2 3 12 145.2 13.39 0
2 3 13 484.34 15.28 0
-13 2 -5 325.17 15.89 0
-12 -5 -5 44.56 19.97 0
-12 -2 -6 212.67 16.65 0
-12 -1 -6 141.99 15.78 0
-12 0 -6 43.28 15.1 0
-12 4 -4 147.61 11.95 0
-12 6 -2 58.73 11.05 0
-11 -3 -6 31.58 14.47 0
-11 1 -6 19.6 12.79 0
-11 3 -5 53.67 13.87 0
-11 7 -1 17.13 13.92 0
-10 1 -6 9.73 12.48 0
-10 3 -5 653.31 11.67 0
-10 7 -1 -6.38 12.23 0
-9 1 -6 133.79 12.71 0
-9 3 -5 14.64 11.2 0
-9 7 -1 86.22 13.16 0
-9 9 3 47.38 15.5 0
-8 -3 -6 28.72 14.18 0
-8 3 -5 172.44 12.69 0
-8 6 -2 264.36 9.27 0
-8 8 1 5.2 13.68 0
-7 -8 -2 94.05 23.96 0
-7 -2 -6 881.96 17.36 0
-7 -1 -6 2.29 11.28 0
-7 4 -4 137.91 10.62 0
-7 5 -3 41.54 11.36 0
-7 9 4 2.17 13.61 0
-7 10 8 121.94 16.4 0
-6 -9 0 76.66 17.84 0
-6 9 5 123.7 13.76 0
-5 4 -3 4.87 10.5 0
-5 5 -2 33.51 10.47 0
-5 7 1 368.15 13.38 0
-4 -10 4 413.2 15.71 0
-4 -8 0 91.29 13.78 0
-4 7 2 1.66 12.16 0
-4 9 9 1673.23 20.84 0
-3 -10 6 134.29 14.38 0
-3 -9 3 -3.09 12.58 0
-3 -8 1 10.76 12.01 0
-3 2 -3 385.5 15.17 0
-2 -10 9 -1.67 14.44 0
-2 -10 10 10.36 13.91 0
-2 -9 5 495.29 14.79 0
-2 6 3 177.24 12.57 0
-2 8 11 42.02 17.57 0
-1 -9 8 9.03 12.14 0
-1 -6 1 1100.5 17.65 0
-1 -5 0 64.29 12.96 0
-1 5 3 597.32 15.91 0
0 -8 8 25.32 9.53 0
0 -8 9 -0.73 11.5 0
0 -7 5 161.34 13.08 0
0 -6 3 70.86 11.4 0
1 -7 10 401.86 10.77 0
1 -7 11 44.71 12.04 0
1 -7 12 6.72 12.47 0
1 -7 13 26.68 13.27 0
1 -7 14 3.59 12.89 0
1 -6 6 103.71 9.02 0
1 -4 3 1920.64 18.08 0
1 -2 2 3671.87 32.83 0
1 3 19 -2.2 18.47 0
1 4 17 454.39 19.45 0
2 -5 9 28.78 8.49 0
2 -5 10 3.12 11.99 0
2 -5 11 13.38 11.99 0
2 -5 12 15.74 12.36 0
2 -5 13 24.5 12.84 0
2 -5 14 172.5 12.69 0
2 -4 7 294.82 12.42 0
2 -4 16 -1.75 13.77 0
2 -4 17 -6.48 11.52 0
2 -3 18 13.22 15.93 0
2 -2 5 829.82 16.83 0
2 -1 5 31.3 14.37 0
2 0 18 153.78 17.73 0
2 1 6 206.86 15.23 0
2 2 16 214.5 15.17 0
-13 -1 -6 311.16 18.16 0
-13 0 -6 -4.62 15.24 0
-12 -3 -6 82.07 16.73 0
-12 1 -6 124.6 15.45 0
-12 3 -5 114.31 11.57 0
-10 2 -6 388.99 13.27 0
-10 8 0 48.85 13.98 0
-8 1 -6 121.53 9.12 0
-8 7 -1 151.5 10.18 0
-8 9 3 90.68 13.6 0
-7 -5 -5 123.54 20.22 0
-7 0 -6 -6.97 8.59 0
-7 3 -5 0.72 10.54 0
-7 6 -2 52.85 8.06 0
-7 8 1 74.52 13.05 0
-7 10 7 539.64 18.29 0
-6 -10 2 362.88 16.95 0
-6 2 -5 35 7.97 0
-6 7 0 136.16 9.13 0
-6 8 2 136.17 9.8 0
-6 10 9 76.46 15.85 0
-5 -11 6 129.7 15.37 0
-5 -10 3 5.67 13.74 0
-5 -3 -5 1.86 11.31 0
-5 1 -5 698.7 14.3 0
-5 3 -4 260.69 11.45 0
-5 6 -1 4.78 10.73 0
-5 8 3 22.61 8.63 0
-5 9 6 416.61 15.06 0
-4 -9 2 0.44 13.83 0
-4 -4 -4 1337.88 42.31 0
-4 2 -4 1196.41 16.34 0
-4 6 0 51.23 11.5 0
-4 8 4 76.14 11.8 0
-4 9 8 0.23 14.94 0
-3 8 6 132.27 14.75 0
-2 -10 11 19.9 14.75 0
-2 -10 12 45.13 16.3 0
-2 -8 3 1029.23 15.99 0
-2 -7 1 27.55 11.83 0
-2 -4 -2 68.06 20.06 0
-2 2 -2 18.23 11.07 0
-2 5 1 21.59 12.81 0
-2 8 10 -2.78 15.68 0
-1 -9 9 8.99 10.01 0
-1 -9 10 964.1 16.9 0
-1 -9 11 71.89 13.82 0
-1 -9 14 36.49 15.68 0
-1 -8 5 -0.56 11.5 0
-1 -7 3 132.05 12.34 0
-1 6 5 1114.47 19.88 0
-1 7 9 8.57 15.9 0
0 -8 10 152.03 13.68 0
0 -8 11 7.62 14.21 0
0 -8 12 257.26 15.44 0
0 -8 13 71.45 14.33 0
0 -8 14 156.11 15.17 0
0 -8 15 31.58 11.06 0
0 -5 2 1347.53 18.39 0
0 -4 1 288.82 15.29 0
0 -2 0 30.69 18.87 0
0 2 1 0.64 19.02 0
0 3 2 4.95 15.51 0
0 6 13 48.52 26.06 0
1 -6 7 401.69 12.84 0
1 -6 16 2.23 13.16 0
1 -6 17 -3.17 12.03 0
1 -5 5 187.94 11.98 0
1 -1 2 21.55 21.77 0
1 2 20 11.09 18.66 0
2 -4 8 118.89 11.6 0
2 -4 15 83.21 14.53 0
2 -3 6 296.07 10.12 0
2 -3 17 335.92 15.8 0
2 -2 18 -2.72 11.67 0
2 1 17 28.74 15.17 0
2 2 8 482.98 16.28 0
2 2 15 69.08 13.72 0
-13 1 -6 314.83 17.68 0
-12 2 -6 177.91 14.01 0
-12 5 -4 84.95 15.83 0
-11 -4 -6 11.25 16.28 0
-11 2 -6 1.47 12.64 0
-11 4 -5 457.77 15.57 0
-11 5 -4 -15.42 10.33 0
-11 6 -3 -9.39 10.2 0
-11 7 -2 25.68 12.93 0
-10 -4 -6 69.49 14.54 0
-10 4 -5 34.27 13.5 0
-10 5 -4 7.95 8.78 0
-10 6 -3 24.16 9.56 0
-10 7 -2 4.53 12.56 0
-9 -4 -6 234.13 16.38 0
-9 2 -6 -2.26 9.41 0
-9 4 -5 1222.88 15.55 0
-9 5 -4 171.33 8.95 0
-9 6 -3 303.6 12.32 0
-9 8 0 31.82 13.15 0
-9 9 2 53.01 14.69 0
-8 -10 1 19.8 20.4 0
-8 2 -6 417.42 13.44 0
-8 5 -4 461.99 12.21 0
-7 -3 -6 64.13 14.64 0
-7 1 -6 -4.83 11.7 0
-7 7 -1 1135.38 14.77 0
-7 9 3 62.91 13.65 0
-6 -1 -6 428.13 13.53 0
-6 4 -4 45.79 10.27 0
-6 5 -3 0.33 7.58 0
-6 6 -2 16.62 10.79 0
-6 9 4 15.89 13.1 0
-6 10 8 77.44 16.13 0
-5 -9 1 4.2 12.31 0
-5 -7 -2 10.32 18.65 0
-4 -10 5 86.79 14.35 0
-3 -10 7 8.28 13.09 0
-3 -1 -4 389.86 17.01 0
-3 6 1 783.91 12.49 0
-3 7 3 4.65 10.55 0
-2 -9 6 268.1 13.46 0
-2 -1 -3 742.3 23.11 0
-2 7 5 1.12 11.17 0
-1 -9 12 17.14 11.67 0
-1 -9 13 53.15 12.69 0
-1 -8 6 43.07 12.24 0
-1 3 0 1002.96 20.81 0
-1 4 1 74.95 13.53 0
0 -7 6 536.72 11.38 0
0 -7 17 206.65 15.64 0
0 -6 4 570.85 14.37 0
0 5 18 3.43 19.48 0
1 -6 8 -6.33 10.76 0
1 -6 15 20.64 14 0
1 -5 18 40.47 16.08 0
1 4 16 129.63 16.2 0
2 -4 9 33.71 11.15 0
2 -4 10 616.82 13.51 0
2 -4 11 893.97 14.04 0
2 -4 12 40.67 12.42 0
2 -4 13 15.11 12.96 0
2 -4 14 42.03 9.73 0
2 -3 7 999.65 15.33 0
2 -3 16 34.54 13.19 0
2 -2 6 578.17 15.39 0
2 -2 17 9.95 13.24 0
2 0 17 -8.89 15.52 0
2 1 16 45.69 14.27 0
2 2 14 235.28 14.86 0
-12 -4 -6 523.45 19.88 0
-12 4 -5 -8.08 11.7 0
-11 3 -6 33.99 13 0
-10 -7 -4 31.26 30.59 0
-10 -1 -7 109.38 12.77 0
-10 3 -6 38.72 13.46 0
-9 -9 -1 28.31 25.59 0
-9 7 -2 329.1 10.14 0
-8 -4 -6 67.34 14.9 0
-8 4 -5 9.56 11.01 0
-8 6 -3 71.04 8.99 0
-8 7 -2 42.61 11.44 0
-8 8 0 3.56 9.8 0
-8 9 2 61.52 12.94 0
-8 10 5 181.12 15.02 0
-7 2 -6 868.95 14.27 0
-7 5 -4 1060.65 14.08 0
-7 10 6 20.68 14.34 0
-6 -2 -6 38.56 11.71 0
-6 0 -6 390.88 12.84 0
-6 3 -5 117.65 10.85 0
-6 8 1 81.8 12.26 0
-6 10 7 19.1 14.08 0
-5 2 -5 137.18 11.09 0
-5 7 0 139.17 11.9 0
-5 8 2 62.58 12.42 0
-5 9 5 20.19 13.07 0
-5 10 10 35.16 16.96 0
-4 4 -3 216.23 11.47 0
-4 5 -2 4.95 10.65 0
-4 7 1 2.36 12.09 0
-4 9 7 52.23 13.44 0
-3 -10 8 74.49 13.38 0
-3 -10 9 20.26 13.74 0
-3 -9 4 26.58 11.98 0
-3 -7 0 118.6 12.11 0
-3 0 -4 5.52 9.26 0
-3 4 -2 296.83 12.49 0
-3 9 13 -0.63 21.24 0
-2 -9 7 247.75 13.45 0
-2 -6 0 188.41 13.09 0
-2 0 -3 -1.89 16.8 0
-2 8 9 0.79 14.39 0
-1 -8 7 25.04 12.12 0
0 -7 7 232.97 12.34 0
0 -7 16 65.62 15.65 0
0 6 9 6.52 25.36 0
1 -6 9 1156.88 12.75 0
1 -6 10 17.91 11.36 0
1 -6 11 8.69 12.04 0
1 -6 12 23.22 12.12 0
1 -6 13 72.52 11.87 0
1 -6 14 36.87 10.16 0
1 -5 6 126.61 11.84 0
1 -5 17 94.36 15.13 0
1 -4 4 46.81 8.91 0
1 -4 19 67.61 13.01 0
1 -3 3 222.53 12.04 0
1 -2 20 28.17 15.87 0
1 1 20 72.17 18.29 0
1 2 19 22.17 17.59 0
1 3 18 155.94 16.32 0
2 -3 8 -7.15 11.05 0
2 -3 14 76.81 13.39 0
2 -3 15 167.32 10.96 0
2 -2 16 180.28 13.66 0
2 -1 6 212.52 14.49 0
2 0 16 1035.11 18.29 0
2 1 7 1278.18 20.69 0
2 1 15 224.42 14.51 0
2 2 9 9.69 11.59 0
2 2 13 10.68 11.87 0
-12 -1 -7 28.15 14.56 0
-12 0 -7 15.91 14.73 0
-12 3 -6 95.04 14.97 0
-11 -6 -5 237.86 25.18 0
-11 -2 -7 -3.6 15.67 0
-11 -1 -7 -8.17 14.6 0
-11 0 -7 19.53 13.46 0
-11 1 -7 11.05 13.07 0
-11 6 -4 17.62 13.12 0
-10 -6 -5 3.64 22.02 0
-10 -2 -7 552.84 16.29 0
-10 0 -7 3.9 12.56 0
-10 1 -7 113.38 13.18 0
-10 6 -4 202.72 12.47 0
-10 8 -1 14.9 11.38 0
-9 -2 -7 108.24 14.85 0
-9 -1 -7 37.87 12.8 0
-9 0 -7 43.95 12.26 0
-9 3 -6 402.62 10.51 0
-9 8 -1 92.47 14.55 0
-9 9 1 42.69 14.91 0
-8 3 -6 23.59 11.95 0
-8 10 4 12.12 14.64 0
-7 -10 2 4.8 16.45 0
-7 4 -5 87.08 11.13 0
-7 6 -3 27.88 8.26 0
-7 8 0 192.09 13.13 0
-7 9 2 1678.82 18.92 0
-7 10 5 260.76 16.39 0
-6 -10 3 34.04 16.4 0
-6 1 -6 449.49 12.93 0
-6 7 -1 813.83 12.1 0
-6 9 3 55.11 13.74 0
-5 -10 4 154.94 15.03 0
-5 4 -4 57.43 10.71 0
-5 5 -3 461.14 12.3 0
-5 10 9 15.34 16.01 0
-4 -10 6 0.51 14.35 0
-4 -7 -1 281.58 17.21 0
-4 -1 -5 574.22 16.59 0
-4 0 -5 -1.94 12.6 0
-4 3 -4 220.19 11.74 0
-4 6 -1 29.37 11.47 0
-4 8 3 30.87 11.52 0
-3 -10 10 71.52 15.47 0
-3 -10 11 5.95 15.72 0
-3 -8 2 87.23 12.49 0
-3 -2 -4 68.39 15.21 0
-3 1 -4 401.11 15.22 0
-3 3 -3 95.42 12.23 0
-3 5 -1 129.82 8.65 0
-3 8 5 265 13.51 0
-3 9 11 36.1 16.56 0
-3 9 12 288.21 19.02 0
-3 9 14 1.27 22.88 0
-2 -9 8 55.74 12.62 0
-2 -8 4 310.44 13.18 0
-2 -5 -1 276.58 16.72 0
-2 4 -1 286.34 13.35 0
-2 6 2 1306.78 17.72 0
-1 -8 8 194.29 13.55 0
-1 -8 15 141.17 14.94 0
-1 -7 4 16.8 12.43 0
-1 -6 2 15.61 12.33 0
-1 2 -1 1049.23 20.64 0
-1 7 8 191.49 16.88 0
0 -7 8 460.83 11.31 0
0 -7 9 475.27 13.73 0
0 -7 13 380.19 13.98 0
0 -7 14 33.96 14.01 0
0 -7 15 190.55 11.45 0
0 -6 5 11.86 12.24 0
0 -6 18 124.06 17.44 0
0 -5 3 95.85 12.56 0
0 -1 0 2.16 19.24 0
0 4 3 206.06 17.99 0
0 5 5 236.88 17.41 0
0 6 12 431.71 33.87 0
1 -5 7 175.98 11.89 0
1 -5 15 26.17 12.44 0
1 -5 16 650.03 13.83 0
1 -4 18 37.81 12.39 0
1 -3 19 10.18 15.54 0
1 0 20 4.55 17.58 0
1 3 5 161.41 33.69 0
1 4 15 14.48 15.09 0
2 -3 9 162.16 8.85 0
2 -3 10 -9.75 11.03 0
2 -3 11 30.77 11.55 0
2 -3 12 140.1 12.93 0
2 -3 13 492.25 11.67 0
2 -2 7 42.2 8.7 0
2 -2 14 225.23 13.54 0
2 -2 15 92.39 10.76 0
2 0 15 -3.64 13.8 0
2 1 14 259.33 14.62 0
2 2 10 2209.11 23.35 0
2 2 11 182.56 12.77 0
2 2 12 34.19 11.93 0
-12 -2 -7 30.16 16.08 0
-12 1 -7 34.63 15.05 0
-12 5 -5 52.53 16.79 0
-11 2 -7 29.36 12.89 0
-11 4 -6 -0.05 13.26 0
-11 5 -5 167.76 11.04 0
-11 7 -3 47.9 13.49 0
-10 2 -7 556.07 13.92 0
-10 4 -6 75.41 12.87 0
-10 5 -5 -7.33 9.7 0
-10 7 -3 49.81 13.53 0
-9 1 -7 51.63 8.95 0
-9 5 -5 154.15 12.13 0
-9 6 -4 4.49 10.99 0
-9 7 -3 73.7 12.38 0
-8 -1 -7 158.39 12.75 0
-8 0 -7 -1.45 11.16 0
-8 1 -7 141.06 12.17 0
-8 8 -1 294.11 14.99 0
-8 9 1 2.43 14.4 0
-7 -9 0 9.72 16.2 0
-7 3 -6 75.11 10.65 0
-7 7 -2 72.86 8.85 0
-6 2 -6 30.62 11.57 0
-6 5 -4 654.1 13.11 0
-6 6 -3 113.92 10.56 0
-6 10 6 221.83 16.08 0
-5 6 -2 192.5 8.72 0
-5 9 4 39.68 12.5 0
-5 10 8 2.1 15.92 0
-4 -10 7 90.39 16.19 0
-4 -9 3 388.2 14.16 0
-4 -2 -5 170.42 17.22 0
-4 1 -5 556.47 13.97 0
-4 9 6 37.55 13.85 0
-3 -9 5 23.79 12.46 0
-3 -4 -3 1340.99 54.08 0
-3 6 0 137.32 12.29 0
-3 7 2 1480.59 16.86 0
-3 9 10 77.84 16.29 0
-2 -9 9 16.89 10.24 0
-2 -9 10 -9.34 13.85 0
-2 -9 11 137.8 14.83 0
-2 -9 12 94.77 15.79 0
-2 -9 13 297.13 17.3 0
-2 -9 14 3.78 14.94 0
-2 -7 2 143.02 12.14 0
-2 1 -3 738.6 20.1 0
-2 3 -2 756.7 17.36 0
-2 5 0 846.29 15.8 0
-2 7 4 659.43 14.75 0
-2 8 8 57.95 14.39 0
-1 -8 9 207.49 13.95 0
-1 -8 10 -8.36 13.55 0
-1 -8 11 58.39 12.81 0
-1 -8 12 9.31 12.95 0
-1 -8 13 4.68 14.81 0
-1 -8 14 45.74 13.84 0
-1 -3 -1 110.52 19.07 0
-1 5 2 455.77 15.2 0
-1 6 4 46.89 13.26 0
0 -7 10 108.65 9.49 0
0 -7 11 14.64 9.12 0
0 -7 12 6.05 9.71 0
0 -6 17 39.56 15.49 0
0 -5 19 99.3 18.29 0
1 -5 8 458.02 13.21 0
1 -5 13 19.01 11.62 0
1 -5 14 27.48 12.74 0
1 -4 5 35.87 8.7 0
1 -4 17 418.36 13.36 0
1 -3 18 155.07 16.06 0
1 -2 3 3457.95 30.27 0
1 -2 19 36.65 16.45 0
1 1 19 104.55 16.74 0
1 2 18 6.99 16.79 0
1 3 17 26.72 14.74 0
1 4 14 167.46 16.33 0
2 -2 8 474.27 10.75 0
2 -2 9 14.67 11.77 0
2 -2 12 32.56 12.25 0
2 -2 13 -7.21 12.83 0
2 -1 7 1304.89 15.8 0
2 0 14 1344.27 17.94 0
2 1 8 92.56 13.31 0
2 1 13 63.22 12.71 0
-12 2 -7 36.69 15.35 0
-12 4 -6 541.92 16.11 0
-11 -3 -7 9.61 15.13 0
-10 -3 -7 34.62 14.07 0
-10 8 -2 36.09 15.54 0
-9 -6 -5 129.53 23.44 0
-9 -3 -7 3.12 15.73 0
-9 2 -7 113.03 12.16 0
-9 4 -6 252.11 10.18 0
-9 9 0 204.74 15.76 0
-8 -2 -7 434.03 14.62 0
-8 4 -6 67.54 10.96 0
-8 5 -5 348.68 9.64 0
-8 6 -4 85.43 8.72 0
-8 7 -3 219.97 13.13 0
-8 10 3 60.38 15.79 0
-7 -1 -7 8.37 11.1 0
-7 0 -7 4.93 12.16 0
-7 8 -1 172.12 13.35 0
-7 9 1 12.68 13.36 0
-7 10 4 28.2 15.32 0
-6 -9 1 80.47 15.88 0
-6 -8 -1 5.64 17.14 0
-6 -3 -6 14.57 14.79 0
-6 4 -5 12.87 7.57 0
-6 7 -2 217.04 11.61 0
-6 8 0 203.17 10.22 0
-6 9 2 23.73 13.51 0
-6 10 5 31.17 13.43 0
-5 -10 5 70.34 14.82 0
-5 -9 2 251.06 14.22 0
-5 -6 -3 442.79 28.68 0
-5 -1 -6 55.11 12.36 0
-5 0 -6 4.66 11.87 0
-5 3 -5 -7.59 7.65 0
-5 7 -1 514.22 13.16 0
-5 8 1 189.22 9.82 0
-4 -10 8 320.29 16.03 0
-4 -8 1 738.89 15.86 0
-4 7 0 1036.93 15.64 0
-4 8 2 534.41 13.29 0
-4 9 5 342.44 15.29 0
-3 -9 6 383.39 15.1 0
-3 -6 -1 1341.97 21.53 0
-3 8 4 57.51 12.26 0
-3 9 9 1.85 15.31 0
-2 -8 5 96.3 11.8 0
-2 -2 -3 131.81 24.81 0
-1 -7 5 16.13 12.36 0
-1 -7 17 7.74 16.03 0
-1 -5 1 70.25 13.47 0
-1 7 7 403.28 18.51 0
0 -6 6 311.56 12.73 0
0 -6 16 31.23 13.98 0
0 -5 18 1.13 15.38 0
0 -4 2 921.92 14.98 0
0 -3 1 1307.86 20.33 0
0 4 19 227.12 20.45 0
0 5 17 194.45 17.9 0
1 -5 9 5.71 8.26 0
1 -5 10 231.31 12.22 0
1 -5 11 151.54 11.93 0
1 -5 12 9.59 8.63 0
1 -4 6 33.27 11.78 0
1 -4 15 19.53 13.19 0
1 -4 16 130.65 11.57 0
1 -3 4 29.37 10.02 0
1 -3 17 34.98 15.28 0
1 -2 18 14.92 15.61 0
1 0 19 230.09 13.67 0
2 -2 10 2230.98 17.75 0
2 -2 11 200.54 10.06 0
2 -1 8 91.34 11.71 0
2 -1 9 299.71 12.75 0
2 0 12 2295.08 20.73 0
2 0 13 -5.13 12.98 0
2 1 9 286.9 14.25 0
2 1 10 137.45 13.32 0
2 1 11 22.4 11.66 0
2 1 12 155.38 12.89 0
-12 -3 -7 288.66 18.4 0
-12 3 -7 268.23 16.98 0
-11 -5 -6 2.33 18.66 0
-11 3 -7 28.98 14.3 0
-11 6 -5 292.18 14.73 0
-10 -5 -6 17 17.58 0
-10 3 -7 20.54 13.71 0
-10 6 -5 -13.9 13.09 0
-9 3 -7 -4.99 12.42 0
-9 8 -2 98.57 10.99 0
-8 -10 2 75.36 18.05 0
-8 2 -7 398.8 10.46 0
-8 8 -2 308.2 13.71 0
-8 9 0 74.31 14.46 0
-7 -4 -6 100.29 16.39 0
-7 1 -7 9.34 11.23 0
-7 5 -5 116.22 10.52 0
-7 6 -4 17.69 10.88 0
-7 7 -3 7.55 10.98 0
-6 -10 4 5.59 15.46 0
-6 3 -6 15.64 10.97 0
-5 -10 6 520.7 15.82 0
-5 -8 0 4.08 12.41 0
-5 1 -6 59.6 11.02 0
-5 9 3 9.67 12.27 0
-5 10 7 20.42 14.92 0
-4 -10 9 -6.76 13.86 0
-4 -10 10 8.66 15.64 0
-4 -10 11 0.46 14.2 0
-4 -9 4 18.52 12.61 0
-4 -6 -2 136.88 18.02 0
-4 2 -5 158.35 11.47 0
-4 5 -3 591.89 12.84 0
-3 -9 7 -10.66 13.77 0
-3 -8 3 17.32 12.13 0
-3 2 -4 67.76 9.46 0
-3 9 8 31.03 14.72 0
-2 -8 6 120.46 12.63 0
-2 6 1 18.61 11.03 0
-2 8 7 482.82 15.12 0
-1 -7 6 92.22 12.95 0
-1 -7 16 273.36 16.1 0
-1 -6 3 76.24 12.63 0
-1 -4 0 272.79 14.79 0
0 -6 7 412.11 12.76 0
0 -6 14 65.81 13.08 0
0 -6 15 -5.54 9.8 0
0 -5 4 15.19 11.61 0
0 -5 17 222.72 15.46 0
0 -4 19 230.68 18.07 0
0 -3 20 29.11 16.4 0
0 3 20 14.37 18.22 0
0 6 11 100.69 32.59 0
1 -4 7 1838.64 17.81 0
1 -4 14 154.85 13.57 0
1 -3 16 95.23 13.95 0
1 0 18 3.83 15.28 0
1 1 3 1462.81 34.44 0
1 1 18 -7.64 15.86 0
1 2 17 69.51 15.61 0
1 3 16 86.76 14.69 0
1 4 13 821.84 20.92 0
2 -1 10 147.36 9.55 0
2 -1 11 14.97 8.75 0
2 0 9 14.48 11.83 0
2 0 10 27.38 12.76 0
2 0 11 -5.15 12.32 0
-11 0 -8 -1.85 15.74 0
-11 5 -6 12.41 11.12 0
-10 0 -8 301.67 14.52 0
-10 5 -6 1.78 10.23 0
-10 7 -4 32.34 10.62 0
-10 8 -3 90.92 13.72 0
-9 -5 -6 136.74 19.58 0
-9 5 -6 138.64 12.99 0
-9 6 -5 152.08 9.4 0
-9 7 -4 39.27 12.95 0
-9 9 -1 31.07 15.67 0
-8 -8 -2 293.55 27.45 0
-8 -3 -7 764.04 18.27 0
-8 3 -7 783.43 14.32 0
-8 10 2 98.77 14.35 0
-7 -10 3 1.42 14.75 0
-7 -7 -3 8.71 26.1 0
-7 -2 -7 37.85 12.33 0
-7 2 -7 36.96 11.96 0
-7 4 -6 92.97 8.39 0
-7 9 0 8.32 12.15 0
-7 10 3 9.35 13.59 0
-6 8 -1 26.34 12.45 0
-6 9 1 101.92 12.71 0
-6 10 4 13.15 15.09 0
-5 -10 7 28.33 13.74 0
-5 -4 -5 21.85 17.53 0
-5 -2 -6 722.75 16.73 0
-5 2 -6 721.63 13.58 0
-5 4 -5 12.93 10.89 0
-5 5 -4 1362.71 13.15 0
-5 6 -3 414.57 9.75 0
-5 8 0 -0.64 12.32 0
-5 10 6 610.87 16.87 0
-4 4 -4 1332.26 13.48 0
-4 6 -2 127.48 8.89 0
-4 9 4 17.58 11.9 0
-4 10 11 12.06 18.45 0
-3 -9 8 27.51 13.31 0
-3 -9 9 -11.01 12.39 0
-3 -9 14 14.89 17.22 0
-3 -7 1 369.51 13.21 0
-3 -5 -2 389.45 20.47 0
-3 4 -3 1196.34 13.82 0
-3 5 -2 348.65 9.54 0
-3 7 1 341.63 12.67 0
-2 -8 7 469.94 14.41 0
-2 -8 15 267.35 17.31 0
-2 -7 3 1083.24 16.55 0
-2 -6 1 3.41 12.4 0
-2 2 -3 130.77 11.92 0
-2 7 3 1039.99 16.37 0
-1 -7 7 409.27 14.04 0
-1 -7 14 67.22 12.49 0
-1 -7 15 1.6 10.59 0
-1 -6 18 26.22 16.33 0
-1 4 0 272.12 15.04 0
-1 6 18 0.45 21.78 0
0 -6 8 984.99 12.62 0
0 -6 9 -4.43 10.98 0
0 -6 10 783.98 14.88 0
0 -6 11 102.16 12.4 0
0 -6 12 447.26 13.8 0
0 -6 13 43.84 9.54 0
0 -5 16 73.63 13.2 0
0 -4 18 25.48 14.99 0
0 6 8 941.62 33.68 0
1 -4 8 22.15 11.57 0
1 -4 12 83.07 12.16 0
1 -4 13 807.91 14.51 0
1 -3 5 175.83 14.03 0
1 -3 15 55.81 14.27 0
1 -2 17 49.54 11.18 0
1 -1 3 1464.8 23.23 0
1 1 17 91.5 13.87 0
1 3 15 49.79 15.07 0
1 4 8 25.98 17.79 0
1 4 12 75.41 16.89 0
-12 -1 -8 21.75 16.78 0
-12 0 -8 384.7 16 0
-12 1 -8 18.03 16.42 0
-11 -4 -7 60.65 18.6 0
-11 -1 -8 146.08 14.08 0
-11 1 -8 147.7 11.23 0
-11 2 -8 4.23 14.68 0
-11 4 -7 69.05 11.36 0
-10 -4 -7 428.84 19.63 0
-10 -1 -8 550.41 15.02 0
-10 1 -8 521.94 12.82 0
-10 2 -8 394.79 14.39 0
-10 4 -7 404.61 11.73 0
-9 -1 -8 509.95 15.11 0
-9 0 -8 -3.48 12.21 0
-9 1 -8 525.69 14.12 0
-9 4 -7 -2.33 12.95 0
-9 8 -3 1.94 14.27 0
-8 -9 0 65.75 19.11 0
-8 5 -6 0.24 10.68 0
-8 6 -5 -3.46 8.98 0
-8 7 -4 10.49 11.54 0
-8 9 -1 139.59 14.19 0
-7 3 -7 91 11.32 0
-7 8 -2 86.11 9.67 0
-7 10 2 6.02 13.86 0
-6 -10 5 23.62 14.83 0
-6 -1 -7 417.04 13.3 0
-6 0 -7 6.09 10.61 0
-6 1 -7 432.57 13.58 0
-6 5 -5 537.88 10.33 0
-6 6 -4 441.27 9.76 0
-6 7 -3 12.51 11.56 0
-5 -10 8 1.43 14.63 0
-5 -9 3 16.92 13.66 0
-5 7 -2 6.67 11.27 0
-5 9 2 281.26 14.29 0
-4 -9 5 316.79 14.47 0
-4 -8 2 536.07 15.99 0
-4 3 -5 68.14 11.03 0
-4 7 -1 267.16 12.75 0
-4 8 1 743.26 14.38 0
-4 10 9 11.87 15.48 0
-4 10 10 28.59 16.41 0
-3 -9 10 62.95 13.44 0
-3 -9 11 25.22 13.75 0
-3 -9 12 269.51 15.25 0
-3 -9 13 16.26 11.65 0
-3 -8 4 61.91 12.21 0
-3 3 -4 1533.94 17.38 0
-3 6 -1 1268.97 13.99 0
-3 8 3 12.4 11.27 0
-3 9 7 7.94 13.14 0
-2 -8 8 58.68 12.82 0
-2 -8 9 2.21 13.53 0
-2 -8 12 45.61 14.03 0
-2 -8 13 427.21 16.59 0
-2 -8 14 15.4 11.92 0
-2 4 -2 57.04 12.35 0
-2 8 6 103.35 12.15 0
-1 -7 8 194.16 12.89 0
-1 -7 9 14.93 13.27 0
-1 -7 10 75.93 12.53 0
-1 -7 11 414.42 14.41 0
-1 -7 12 336.68 14.51 0
-1 -7 13 -2.98 12.72 0
-1 -6 4 54.76 12.75 0
-1 -6 17 804.38 17.42 0
-1 -5 19 22.29 16.17 0
-1 0 -2 3.99 14.99 0
-1 3 -1 100.06 15.76 0
-1 6 3 75.16 11.91 0
-1 7 6 80.79 14.81 0
0 -5 5 237.51 9.2 0
0 -5 15 110.9 14.26 0
0 -4 3 213.87 14.2 0
0 -3 19 757.97 17.19 0
0 -2 20 15.21 13.06 0
0 -1 20 702.42 18.41 0
0 2 20 29.19 17.75 0
0 3 19 766.25 21.45 0
0 4 18 26.88 16.88 0
0 5 16 89.69 17.52 0
1 -4 9 245.92 9.96 0
1 -4 10 751.92 11.83 0
1 -4 11 490.5 10.73 0
1 -3 14 19.33 13.06 0
1 -2 4 896.28 16.45 0
1 -2 16 168.83 13.76 0
1 0 17 88.78 14.57 0
1 2 16 170.46 15.28 0
1 4 11 487.95 20.57 0
-12 -2 -8 254.93 16.13 0
-12 2 -8 283.67 13.33 0
-11 -2 -8 12.56 15.24 0
-11 3 -8 83.09 14.29 0
-11 6 -6 41.65 15.96 0
-10 -2 -8 384.7 15.62 0
-10 6 -6 166.04 14.34 0
-10 7 -5 6.7 13.95 0
-9 2 -8 -0.05 11.7 0
-9 9 -2 28.99 14.33 0
-8 -10 3 41.27 18.34 0
-8 -1 -8 289.32 13.17 0
-8 0 -8 446.21 13.79 0
-8 1 -8 288.18 13.06 0
-8 4 -7 212.68 12.65 0
-8 8 -3 132.82 13.61 0
-8 10 1 43.39 14.25 0
-7 -10 4 15.95 17.83 0
-7 5 -6 19.53 11.63 0
-7 6 -5 1325.29 14.78 0
-7 7 -4 400.86 13.01 0
-6 -10 6 177.85 16.82 0
-6 -9 2 20.2 15.37 0
-6 2 -7 98.66 12.01 0
-6 4 -6 306.74 9.16 0
-6 9 0 70.02 12.35 0
-6 10 3 24.52 14.75 0
-5 -10 9 -7.23 15.56 0
-5 -10 10 21.54 17.22 0
-5 3 -6 188.83 11.2 0
-5 10 5 70.88 13.57 0
-4 -9 6 26.91 13.54 0
-4 9 3 438.49 14.02 0
-4 10 8 388.26 18.27 0
-3 9 6 433.78 15.23 0
-2 -8 10 19.36 9.73 0
-2 -8 11 35.52 10.47 0
-2 -7 4 691.7 15.25 0
-2 -7 17 14.28 16.21 0
-2 5 -1 256.36 9.92 0
-1 -6 16 -8.02 13.68 0
-1 -5 2 479.99 15.99 0
-1 1 -2 13.62 15.15 0
-1 5 1 57.32 12.42 0
0 -5 6 289.4 12.64 0
0 -5 14 41.72 12.43 0
0 -4 17 59.58 11.78 0
0 -3 18 1.01 15.27 0
0 -2 19 423.74 18.13 0
0 0 20 -1.03 16.84 0
0 1 20 688.21 19.02 0
0 5 4 14.04 14.34 0
1 -3 6 152.96 9.71 0
1 -3 13 26.45 13.4 0
1 -2 15 333.53 15.71 0
1 -1 16 838.03 15.9 0
1 0 16 -2.29 14.49 0
1 1 16 869.81 18.09 0
1 3 14 28.94 14.72 0
1 4 9 235.16 18.95 0
1 4 10 788.14 23.75 0
-11 5 -7 31.21 11.92 0
-10 3 -8 45.06 9.9 0
-10 5 -7 204.53 14.54 0
-9 -4 -7 3.52 13.38 0
-9 -2 -8 0.63 13.48 0
-9 3 -8 581.91 15.1 0
-9 5 -7 24.32 12.79 0
-9 6 -6 32.2 9.67 0
-9 7 -5 43.11 9.61 0
-9 8 -4 -5.11 13.49 0
-8 -5 -6 9.31 18.17 0
-8 2 -8 12.12 11.82 0
-8 9 -2 5.31 13.18 0
-7 -9 1 3.43 16.88 0
-7 -3 -7 84.99 14.76 0
-7 4 -7 16.27 11.37 0
-7 8 -3 -7.68 13.06 0
-7 9 -1 5.28 9.73 0
-7 10 1 243.66 15.21 0
-6 -2 -7 101.74 14.15 0
-6 3 -7 1888.06 16.32 0
-6 8 -2 11.14 8.83 0
-5 -9 4 37.01 13.27 0
-5 5 -5 70.85 10.97 0
-5 6 -4 69 10.53 0
-5 8 -1 91.92 9.92 0
-5 9 1 -1.9 12.8 0
-5 10 4 186.49 15.03 0
-4 -9 7 64.14 14.31 0
-4 -7 0 1113.49 19.6 0
-4 0 -6 879.17 16.82 0
-4 1 -6 662.24 14.65 0
-4 5 -4 588.52 10.57 0
-4 6 -3 52.96 10.87 0
-4 8 0 94.32 11.58 0
-4 10 7 131.78 14.68 0
-3 -8 5 263.01 12.99 0
-3 -7 2 1639.26 20.13 0
-3 0 -5 -3.73 13.33 0
-3 1 -5 81.66 13.03 0
-3 5 -3 221.91 11.1 0
-3 7 0 110.81 9.16 0
-3 8 2 96.27 12.08 0
-2 -7 5 18.91 12.14 0
-2 -7 16 5.84 14.18 0
-2 3 -3 99.77 10 0
-2 6 0 181.69 12.45 0
-2 7 2 121.72 12.17 0
-2 8 5 87.77 12.14 0
-1 -6 5 1153.2 16.64 0
-1 -6 15 263.01 13.59 0
-1 -5 18 330.33 13.31 0
-1 5 19 -1.57 20.05 0
-1 7 14 68.22 29.13 0
0 -5 7 904.72 15.01 0
0 -5 8 1212.76 15.59 0
0 -5 12 456.29 13.75 0
0 -5 13 218.47 10.09 0
0 -4 16 116.41 11.33 0
0 -3 2 8.95 15.68 0
0 -1 19 331.05 17.7 0
0 1 0 0.1 23.08 0
0 2 19 411.88 18.6 0
0 3 1 1245.7 25.45 0
0 4 17 46.41 17.85 0
1 -3 7 194.89 9.67 0
1 -3 8 428.88 13.68 0
1 -3 9 25.13 11.73 0
1 -3 10 51.29 11.54 0
1 -3 11 5.16 11.87 0
1 -3 12 1910.5 15.99 0
1 -2 5 737.97 18.56 0
1 -2 14 831.39 16.56 0
1 -1 15 253.29 14.28 0
1 2 4 880.1 34.9 0
1 2 15 345.31 15.24 0
-11 -3 -8 103.58 17.75 0
-11 4 -8 27.35 13.86 0
-10 -3 -8 41.15 16.55 0
-10 4 -8 35.15 14.85 0
-8 -6 -5 2.64 28.89 0
-8 -2 -8 30.18 13.11 0
-8 3 -8 109.81 13.04 0
-8 5 -7 62.09 12.09 0
-8 6 -6 4.58 8.34 0
-8 7 -5 557.21 11.21 0
-8 8 -4 -1.82 13.63 0
-8 10 0 33.28 12.13 0
-7 -10 5 191.32 16.64 0
-7 -1 -8 446.24 13.33 0
-7 0 -8 1.81 8.89 0
-7 1 -8 464.82 11.36 0
-7 2 -8 358.27 12.9 0
-6 -10 7 11.5 14.23 0
-6 -10 8 57.55 14.82 0
-6 -5 -5 558.95 32.53 0
-6 5 -6 825.17 13.69 0
-6 6 -5 -5.49 7.65 0
-6 7 -4 -1.36 11.53 0
-6 10 2 433.65 12.36 0
-5 -8 1 178.35 13.73 0
-5 0 -7 215.19 12.77 0
-5 1 -7 101.82 12.1 0
-5 4 -6 1037.21 13.84 0
-5 7 -3 382.23 10.09 0
-4 -9 8 -6.94 13.55 0
-4 -9 9 1501.16 19.16 0
-4 -9 10 62.34 13.74 0
-4 -9 11 33.34 13.94 0
-4 -9 12 0.52 15.76 0
-4 -9 13 252.01 15.58 0
-4 -8 3 33.24 12.81 0
-4 -5 -3 625.7 30.07 0
-4 -3 -5 72.25 15.59 0
-4 -1 -6 681.7 16.76 0
-4 2 -6 118.91 10.82 0
-4 4 -5 -7.38 7.28 0
-4 7 -2 54.32 11.67 0
-4 9 2 18.89 12.23 0
-4 10 6 -1.23 14.31 0
-3 -8 6 108.48 13.08 0
-3 -8 14 -2.42 16.48 0
-3 -8 15 74.62 12.39 0
-3 -6 0 147.72 15.22 0
-3 2 -5 1.07 11.9 0
-3 4 -4 85.47 11.15 0
-3 6 -2 36.13 11.47 0
-3 9 5 21.11 12.94 0
-2 -7 14 22.43 13.16 0
-2 -7 15 9.06 11.28 0
-2 -6 2 1401.05 18.93 0
-2 -6 18 105.19 15.01 0
-2 -5 0 897.96 18.78 0
-1 -6 6 -8.57 12.54 0
-1 -6 13 518.47 14.76 0
-1 -6 14 30.27 9.63 0
-1 -5 17 14.45 13.88 0
-1 -4 19 41.1 12.99 0
-1 -3 20 44.5 17.48 0
-1 2 -2 3683.3 32.97 0
-1 6 2 6.63 13.07 0
-1 6 17 405.28 23.46 0
-1 7 5 23.17 11.7 0
0 -5 9 665.87 11.52 0
0 -5 10 41.97 8.88 0
0 -5 11 1.56 8.9 0
0 -4 4 821.48 13.81 0
0 -4 15 49.53 10.24 0
0 -3 17 76.76 11.64 0
0 -2 1 7.37 14.11 0
0 -2 18 42.57 14.72 0
0 0 19 -4.78 15.39 0
0 1 19 307.34 17.67 0
0 3 18 11.88 15.69 0
0 4 2 908.32 21.43 0
0 5 15 114.43 17.24 0
0 6 7 391.86 23.22 0
1 -2 13 431.48 14.19 0
1 -1 4 26.7 12.94 0
1 -1 14 22.92 13.15 0
1 0 15 95.11 13.09 0
1 1 15 264.33 15.15 0
1 2 14 838.87 19.12 0
1 3 13 9.9 12.39 0
-11 -1 -9 439.09 16.08 0
-11 0 -9 446.01 15.8 0
-11 1 -9 438.27 13.21 0
-11 2 -9 43.82 15.34 0
-10 0 -9 9.58 13.7 0
-10 1 -9 -4.24 12.99 0
-10 2 -9 14.11 14.25 0
-10 6 -7 7.28 15.07 0
-10 7 -6 65.13 13.63 0
-9 -9 0 160.61 21.36 0
-9 -3 -8 631.64 18.9 0
-9 0 -9 47.89 12.79 0
-9 1 -9 180.35 14.12 0
-9 4 -8 6.04 9.32 0
-9 7 -6 136.43 12.86 0
-9 9 -3 -7.73 11.85 0
-8 -10 4 9.05 18.66 0
-8 -4 -7 204.51 17.13 0
-8 4 -8 22.6 12.34 0
-8 10 -1 193.06 15.34 0
-7 -10 6 7.76 16.99 0
-7 -8 -1 154.49 17.63 0
-7 3 -8 1699.19 16.85 0
-7 5 -7 58.64 10.9 0
-7 6 -6 69 11.43 0
-7 7 -5 25.1 11.56 0
-7 9 -2 365 13.68 0
-7 10 0 -2.48 14.53 0
-6 -10 9 49.17 16.71 0
-6 -9 3 52.34 13.86 0
-6 -8 0 207.27 16.75 0
-6 -4 -6 320.12 19.56 0
-6 4 -7 5.56 10.8 0
-6 8 -3 97.09 12.59 0
-6 9 -1 234.18 10.53 0
-6 10 1 101.24 13.26 0
-5 -9 5 18.63 12.92 0
-5 -7 -1 505.95 19.51 0
-5 -3 -6 212.87 15.99 0
-5 2 -7 1241.92 16.01 0
-5 8 -2 26.15 12.67 0
-5 9 0 578.57 14.41 0
-5 10 3 0.94 13.09 0
-3 -8 7 331.13 13.58 0
-3 -8 8 -0.74 13.3 0
-3 -8 12 0.07 14.86 0
-3 -8 13 -1.04 13.87 0
-3 -7 17 17.02 15.2 0
-3 -1 -5 78.81 14.37 0
-3 7 -1 100.34 12.39 0
-3 8 1 4.23 11.53 0
-3 9 4 28.73 14.18 0
-2 -7 6 319.23 10.98 0
-2 -7 7 23.12 12.25 0
-2 -7 12 362.6 14.27 0
-2 -7 13 437.25 14.72 0
-2 -6 17 16.93 15.57 0
-2 -5 19 451.04 17.8 0
-2 0 -4 212.44 16.92 0
-2 1 -4 2701.85 26.3 0
-2 5 -2 36.27 10.85 0
-2 7 1 29.94 10.65 0
-2 8 4 292.55 13.43 0
-1 -6 7 395.65 13.57 0
-1 -6 8 17.1 11.64 0
-1 -6 9 837.81 14.09 0
-1 -6 10 90.53 11.91 0
-1 -6 11 22.52 12.58 0
-1 -6 12 25.44 12.01 0
-1 -5 3 596.01 15.61 0
-1 -5 16 305.36 14.28 0
-1 -4 1 87.5 13.91 0
-1 -4 18 78.97 16.36 0
-1 -2 20 4.33 16.45 0
-1 -1 -2 18.69 27.85 0
-1 -1 21 2.9 17.01 0
-1 0 21 154.8 17.77 0
-1 1 21 -5.52 20.41 0
-1 4 -1 1126.41 18.68 0
0 -4 5 240.78 13.33 0
0 -4 13 227.31 12.48 0
0 -4 14 224.81 10.66 0
0 -3 16 79.93 13.28 0
0 -2 17 23.92 14.6 0
0 -1 18 0.53 16 0
0 2 18 41.41 15.14 0
1 -2 6 6.49 9.93 0
1 -2 7 1693.84 19.14 0
1 -2 11 78.16 13.12 0
1 -2 12 -1.48 9.17 0
1 -1 13 348.67 14.76 0
1 0 14 3.49 12.52 0
1 1 14 1.25 13.21 0
-11 3 -9 15.51 14.56 0
-10 -1 -9 0.12 13.19 0
-10 3 -9 23.9 13.95 0
-10 5 -8 186.07 14.46 0
-9 -1 -9 198.89 12.95 0
-9 2 -9 52 11.63 0
-9 5 -8 295.63 14.09 0
-9 6 -7 79.36 10.2 0
-9 8 -5 695.08 15.61 0
-8 1 -9 3.02 11.3 0
-8 6 -7 -16.88 11.68 0
-8 7 -6 17.76 12.8 0
-8 9 -3 61.67 11.26 0
-7 -10 7 405.9 18.64 0
-7 -9 2 1450.49 23.48 0
-7 8 -4 -1.5 10.16 0
-6 -7 -2 219.86 20.49 0
-6 0 -8 2074.99 19.62 0
-6 1 -8 129.34 12.51 0
-6 2 -8 33.87 10.85 0
-6 11 4 -4.36 16.73 0
-5 -9 6 368.08 14.98 0
-5 -1 -7 103.6 11.91 0
-5 3 -7 -1.02 10.37 0
-5 6 -5 -2.45 11.29 0
-5 7 -4 955.76 13.84 0
-5 10 2 15.9 12.21 0
-4 -8 4 54.65 13.18 0
-4 3 -6 6.25 7.53 0
-4 5 -5 1009.62 14.34 0
-4 6 -4 1 10.77 0
-4 8 -1 12.18 11.2 0
-4 9 1 50.49 12.48 0
-4 10 5 99.33 14.51 0
-3 -8 9 164.68 10.54 0
-3 -8 10 41.72 10.62 0
-3 -8 11 8.39 10.31 0
-3 -7 3 -4.05 11.77 0
-3 -7 16 289.15 15.24 0
-3 -3 -4 1574.67 43.97 0
-3 3 -5 145.85 11.49 0
-2 -7 8 519.92 13.72 0
-2 -7 9 812.15 15.62 0
-2 -7 10 25.13 12.52 0
-2 -7 11 2.5 12.54 0
-2 -6 3 195.22 12.63 0
-2 -6 16 258.12 15.55 0
-2 -4 20 133.34 18.55 0
-2 2 -4 4901.6 30.09 0
-2 4 -3 75.45 8.85 0
-2 6 -1 93.88 11.98 0
-1 -5 15 78.46 12.91 0
-1 -4 17 117.37 15.34 0
-1 -3 19 10 12.1 0
-1 3 20 48.68 19.46 0
-1 5 0 59.56 13.42 0
-1 7 4 9 12.8 0
0 -4 6 1464.9 17.16 0
0 -4 12 1011.63 15.46 0
0 -3 15 252.24 14.48 0
0 0 18 63.43 14.25 0
0 1 18 11.66 15.44 0
0 3 17 61.51 16.74 0
0 4 16 132.33 16.29 0
1 -2 8 140.91 12.28 0
1 -2 9 282.81 13.15 0
1 -2 10 1147.06 14.16 0
1 -1 5 1031.1 21.18 0
1 -1 12 29.89 13.3 0
1 2 13 448.67 15.36 0
1 3 12 1917.27 23.55 0
-11 -5 -7 38.08 20.81 0
-11 -2 -9 28.78 16.13 0
-11 4 -9 28.86 15.53 0
-10 -2 -9 11.34 15.57 0
-10 4 -9 -7.28 14.44 0
-9 3 -9 57.69 10.04 0
-8 -10 5 139.99 17 0
-8 -9 1 6.84 17.29 0
-8 0 -9 -1.47 11.51 0
-8 2 -9 28.1 11.7 0
-8 5 -8 266.72 13.47 0
-8 8 -5 15.05 12.48 0
-7 -10 8 83.43 16.62 0
-7 -2 -8 373.09 13.82 0
-7 4 -8 86.69 11.73 0
-7 9 -3 1.88 14.94 0
-7 10 -1 57.13 15.02 0
-6 -9 4 16.3 13.56 0
-6 3 -8 -1.13 10.94 0
-6 5 -7 355.14 12.28 0
-6 6 -6 29.24 8.21 0
-6 7 -5 725.59 13.31 0
-6 9 -2 12.47 12.14 0
-6 10 0 18.8 14.25 0
-6 11 3 208.49 17.59 0
-5 -9 7 77.85 14.16 0
-5 -9 8 93.14 13.3 0
-5 -9 12 -13.17 14.92 0
-5 -9 13 10.4 17.07 0
-5 -8 2 55.79 13.2 0
-5 5 -6 228.54 8.95 0
-5 9 -1 117.83 12.83 0
-5 11 6 159.8 16.82 0
-4 -8 15 12.99 16.82 0
-4 -7 1 16.62 14 0
-4 4 -6 50.3 11.02 0
-4 7 -3 538.33 13 0
-4 10 4 465.26 16.01 0
-3 -7 15 18.78 13.27 0
-3 5 -4 146.97 11.44 0
-3 6 -3 97.23 11.59 0
-3 9 3 6.8 12.5 0
-2 -6 15 -6.45 13.72 0
-2 -5 18 8.89 12.09 0
-2 8 3 1021.32 16.95 0
-1 -5 4 227.33 13.4 0
-1 -5 14 -9.47 12.3 0
-1 -3 18 136.14 15.45 0
-1 -2 19 3.79 15.83 0
-1 -1 20 53.69 16.12 0
-1 3 -2 3152.25 25.54 0
-1 4 19 20.76 18.19 0
-1 5 18 353.4 21.91 0
0 -4 7 465.92 13.82 0
0 -4 8 246.92 12.76 0
0 -4 9 83.14 12.31 0
0 -4 10 469.69 13.14 0
0 -4 11 135.07 9.29 0
0 -3 3 12.41 11.7 0
0 -3 14 13.24 13.28 0
0 -2 16 14.61 10.85 0
0 -1 17 172.22 11.29 0
0 2 0 33.31 20.31 0
0 5 3 78.51 14.84 0
0 5 14 24.99 16.18 0
0 6 6 295.48 19.53 0
1 -1 6 77.07 14.85 0
1 -1 11 63.83 13.12 0
1 1 4 26.17 17.74 0
1 1 13 352.56 14.98 0
1 3 11 3.5 13.81 0
-11 -6 -6 28.96 27.25 0
-11 -4 -8 21.84 19.47 0
-10 -5 -7 196.27 21.81 0
-10 6 -8 410.98 15.32 0
-9 -8 -2 99.66 24.21 0
-9 -2 -9 34.69 15.38 0
-9 4 -9 393.58 13.83 0
-9 6 -8 14.38 11.87 0
-9 7 -7 -1.26 14.06 0
-9 8 -6 30.37 14.77 0
-8 -3 -8 114.9 13.85 0
-8 -1 -9 8.14 12.99 0
-8 3 -9 175.34 10.06 0
-8 9 -4 6.99 13.82 0
-7 1 -9 436.05 13.55 0
-7 2 -9 325.95 12.94 0
-7 6 -7 38.81 11.07 0
-7 7 -6 7.26 8.96 0
-7 8 -5 101.31 13.62 0
-6 -3 -7 1908.95 25.67 0
-6 -1 -8 122.66 11.54 0
-6 8 -4 11.96 9.85 0
-5 -9 9 160.16 14.19 0
-5 -9 10 11.93 13.74 0
-5 -9 11 -2.97 11.53 0
-5 4 -7 155.94 10.71 0
-5 8 -3 57.64 9.23 0
-5 10 1 23.41 13.74 0
-5 11 5 13.58 16.65 0
-4 -8 5 42.49 12.12 0
-4 -8 13 13.92 14.32 0
-4 -8 14 73.81 12.71 0
-4 -2 -6 112.87 16.28 0
-4 8 -2 8.73 12.64 0
-4 9 0 -2.25 11.7 0
-3 -7 4 4.34 12.64 0
-3 -7 14 -0.42 15.22 0
-3 -6 18 14.29 12.35 0
-3 4 -5 11.71 10.98 0
-3 7 -2 227.79 12.94 0
-3 8 0 0.17 11.03 0
-2 -6 4 139.79 13.12 0
-2 -6 14 17.96 13.16 0
-2 -5 17 36.16 14.81 0
-2 -4 -1 303.08 20.58 0
-2 -4 19 6.97 15.45 0
-2 -3 20 1.71 15.94 0
-2 3 -4 8.68 8.68 0
-2 7 0 39 11.9 0
-2 9 8 53.14 15.29 0
-2 9 9 29.96 17.03 0
-2 9 10 3.47 18.98 0
-1 -5 5 376.04 13.06 0
-1 -5 12 659.77 13.97 0
-1 -5 13 70.39 9.58 0
-1 -4 16 9.54 10.8 0
-1 1 20 25.74 18.86 0
-1 2 20 -13.35 16.94 0
-1 6 1 1054.45 17.29 0
0 -3 13 556.9 14.67 0
0 -2 15 198.65 14.97 0
0 -1 16 50.97 14.45 0
0 1 17 161.48 16.18 0
0 2 17 4.21 13.94 0
1 -1 7 10.8 13.82 0
1 -1 8 129.49 13.04 0
1 -1 9 1412.66 17.74 0
1 -1 10 163.82 12.95 0
1 1 12 26.58 12.36 0
1 2 12 -5.26 12.57 0
1 3 6 150.32 20.96 0
1 3 10 40.03 14.37 0
-11 0 -10 5.02 15.99 0
-11 1 -10 179.35 12.89 0
-11 2 -10 130.57 15.1 0
-10 -4 -8 45.07 17.79 0
-10 0 -10 16.11 14.4 0
-10 1 -10 146.54 15.27 0
-10 2 -10 24.02 14.68 0
-10 5 -9 83.37 14.6 0
-9 1 -10 -12.02 12.55 0
-9 5 -9 144.86 14.2 0
-8 4 -9 14.14 12.16 0
-8 6 -8 172.25 12.55 0
-8 7 -7 278.55 13.92 0
-8 8 -6 40.07 13.82 0
-7 -9 3 54.85 14.48 0
-7 0 -9 13.62 11.55 0
-7 3 -9 43.3 12.29 0
-7 5 -8 280.4 10.08 0
-7 9 -4 13.97 14.45 0
-7 10 -2 5.51 15.44 0
-6 -9 5 59.52 13.15 0
-6 -8 1 70.91 15.42 0
-6 4 -8 165.23 11.6 0
-6 9 -3 684.82 15.31 0
-6 10 -1 8.88 14.85 0
-6 11 2 24.63 16.46 0
-5 -8 3 31.13 13.99 0
-5 -2 -7 1286.29 19.54 0
-5 1 -8 457.87 13.66 0
-5 2 -8 350.67 13.44 0
-5 6 -6 121.48 11.47 0
-5 7 -5 24.66 11.87 0
-5 9 -2 596.12 14.45 0
-5 11 4 -3.44 14.71 0
-4 -8 6 84.12 9.57 0
-4 -8 7 42.35 13.02 0
-4 -8 11 52.91 14.77 0
-4 -8 12 18.44 14.22 0
-4 -7 17 21.72 15.58 0
-4 -6 -1 37.93 15.29 0
-4 0 -7 -0.91 12.35 0
-4 1 -7 931.65 13.37 0
-4 2 -7 88.98 11.14 0
-4 6 -5 70.04 10.71 0
-4 10 3 184.06 14.02 0
-3 -7 5 127.6 13.27 0
-3 -7 13 185.63 15.04 0
-3 -6 1 830.39 17.13 0
-3 -6 17 32.32 14.71 0
-3 -5 19 77.07 17.8 0
-3 1 -6 531.62 14.48 0
-3 2 -6 17.63 11.35 0
-3 9 2 16.18 12.66 0
-3 10 7 9.81 16.58 0
-3 10 8 83.14 17.21 0
-3 10 9 0.33 17.78 0
-3 10 10 92.83 19.32 0
-2 -6 13 -2.73 11.86 0
-2 -5 1 24.89 12.27 0
-2 -5 16 -4.27 14.47 0
-2 -4 18 113.45 15.56 0
-2 -1 -4 2661.77 33.12 0
-2 5 -3 39.4 10.57 0
-2 6 -2 11.45 10.96 0
-2 8 2 2.42 11.56 0
-2 9 7 266.8 16.08 0
-2 9 11 179.58 26.02 0
-1 -5 6 86.48 12.17 0
-1 -5 11 557.12 14.56 0
-1 -4 2 16.3 13.5 0
-1 -4 15 195.76 13.25 0
-1 -3 0 1011.75 22.75 0
-1 -3 17 43.66 11.35 0
-1 -2 18 106.47 15.74 0
-1 -1 19 26.23 15.15 0
-1 3 19 11.72 18.6 0
-1 6 16 4.01 20.25 0
-1 7 3 122.13 12.02 0
0 -3 4 304.14 12.66 0
0 -3 12 53.97 12.32 0
0 -2 2 258.71 21.51 0
0 -2 14 1001.12 16.24 0
0 3 16 60.79 15.08 0
0 4 1 272.17 15.99 0
0 4 15 41.71 15.59 0
1 1 11 64.11 13.27 0
1 2 11 100.8 12.85 0
1 3 9 15.54 14.11 0
-11 -3 -9 12.33 17.35 0
-11 -1 -10 185.55 17.02 0
-10 3 -10 -1.34 11.33 0
-9 -9 1 17.51 19.16 0
-9 0 -10 0.87 13.93 0
-9 2 -10 29.61 10.44 0
-9 3 -10 452.25 14.81 0
-8 -9 2 42.89 17.96 0
-8 -2 -9 20.54 14.2 0
-8 5 -9 13.72 12.14 0
-8 9 -5 91.6 15.36 0
-7 -4 -7 13.62 15.8 0
-7 -1 -9 418.4 14.87 0
-7 4 -9 20.44 12.11 0
-7 7 -7 138.97 11.98 0
-6 -9 6 5.32 13.11 0
-6 -9 7 8.89 12.91 0
-6 -9 12 6.14 16.35 0
-6 6 -7 1.05 8.01 0
-6 7 -6 176.62 9.05 0
-6 8 -5 42.14 12.96 0
-6 11 1 17.22 14.81 0
-5 -8 15 215.36 17.6 0
-5 0 -8 -8.27 11.47 0
-5 3 -8 301.02 11.84 0
-5 5 -7 46.83 10.66 0
-5 8 -4 160.19 12.84 0
-5 10 0 186.79 14.91 0
-4 -8 8 331.21 11.41 0
-4 -8 9 97.12 10.36 0
-4 -8 10 116.58 10.96 0
-4 -7 2 3.08 11.41 0
-4 -7 16 27.19 16.81 0
-4 3 -7 736.9 11.28 0
-4 5 -6 19.11 7.81 0
-4 7 -4 986.56 12.43 0
-4 9 -1 1872.32 17.42 0
-4 10 2 3.08 13.91 0
-3 -7 6 1577.01 18.6 0
-3 -7 11 457.95 15.24 0
-3 -7 12 296.64 11.34 0
-3 -6 16 14.3 14.31 0
-3 -4 20 52.88 18.61 0
-3 -2 -5 6.35 16.8 0
-3 0 -6 0.51 13.71 0
-3 3 -6 1340.25 16.16 0
-3 5 -5 216.94 11.07 0
-3 6 -4 252.87 11.33 0
-3 8 -1 155.33 12.51 0
-3 10 6 142.1 15.76 0
-3 10 11 1.25 19.07 0
-2 -6 5 28.23 9.2 0
-2 -6 6 161.7 13.43 0
-2 -6 11 20.33 12.24 0
-2 -6 12 19.31 9.3 0
-2 -5 15 90.57 12.99 0
-2 -3 19 169.51 17.56 0
-2 -2 20 0.06 17.94 0
-2 -1 21 15.26 13.59 0
-2 4 -4 1590.49 17.52 0
-2 9 6 291.24 14.22 0
-1 -5 7 466.59 10.9 0
-1 -5 8 68.95 11.73 0
-1 -5 9 203.39 9.78 0
-1 -5 10 66.85 8.96 0
-1 -4 14 198.55 13.75 0
-1 -3 16 631.21 16.51 0
-1 1 19 17.73 16.96 0
-1 2 19 14.98 17.48 0
-1 4 -2 2501.72 22.63 0
-1 5 -1 617.23 12.72 0
0 -3 5 25.9 13.98 0
0 -3 11 94.72 11.83 0
0 -1 15 166.97 13.63 0
0 1 16 41.64 15.12 0
0 2 16 22.03 14.68 0
0 3 0 6.28 16.62 0
0 5 13 240.61 19.48 0
0 6 5 3.84 13.69 0
1 1 5 1007.15 26.66 0
1 1 10 177.57 14.14 0
1 2 5 730.76 25.94 0
1 2 10 1119.14 19.44 0
1 3 7 198.12 18.21 0
1 3 8 435.14 19.1 0
-10 -6 -6 162.99 32.27 0
-10 -3 -9 27.21 15.47 0
-10 -1 -10 141.92 14.17 0
-10 4 -10 -2.4 11.05 0
-9 -5 -7 5.35 21.35 0
-9 -4 -8 0.35 17.24 0
-9 -1 -10 5.22 15.04 0
-9 4 -10 17.67 14.46 0
-9 6 -9 12.86 15.05 0
-9 7 -8 61.93 10.74 0
-8 -8 -1 307.86 20.44 0
-8 0 -10 317.99 13.87 0
-8 1 -10 7.53 12.35 0
-8 2 -10 4.24 11.98 0
-8 3 -10 41.36 13.4 0
-7 -9 4 -1.42 13.96 0
-7 -8 0 196.69 16.76 0
-7 -5 -6 22.24 24.08 0
-7 -3 -8 1729.59 23.35 0
-7 6 -8 10.66 8.85 0
-7 8 -6 569.73 11.53 0
-7 10 -3 90.12 15.09 0
-6 -9 8 2.42 13.46 0
-6 -9 9 82.76 15.35 0
-6 -9 10 -2.77 14.14 0
-6 -9 11 65.91 12.21 0
-6 -2 -8 21.28 12.06 0
-6 0 -9 -5.66 11.15 0
-6 1 -9 55.79 9.12 0
-6 2 -9 18.41 8.68 0
-6 3 -9 107.06 12.5 0
-6 5 -8 29.17 8.54 0
-6 9 -4 52.36 13.94 0
-6 10 -2 0.3 14.65 0
-5 -8 4 25.35 12.96 0
-5 -8 14 171.2 15.49 0
-5 -7 0 127.1 13.76 0
-5 4 -8 831.36 12.99 0
-5 9 -3 6.46 12.41 0
-5 11 3 41.58 14.16 0
-4 -7 15 198.35 16.01 0
-4 -6 18 229.47 17.14 0
-4 4 -7 26.8 10.3 0
-4 8 -3 277.07 10.71 0
-4 11 7 7.71 17.11 0
-3 -7 7 528 11.77 0
-3 -7 8 252.65 13.12 0
-3 -7 9 13.87 9.27 0
-3 -7 10 611.27 12.04 0
-3 -6 15 266.35 14.88 0
-3 -5 -1 138.55 16.8 0
-3 -5 18 23.82 12.02 0
-3 7 -3 236.23 11.87 0
-3 9 1 69.18 13 0
-3 10 5 101.82 16.38 0
-2 -6 7 20.1 9.61 0
-2 -6 8 2.99 12.4 0
-2 -6 9 170.09 12.14 0
-2 -6 10 11.44 9.33 0
-2 -4 17 88.92 14.4 0
-2 1 -5 29.93 14.34 0
-2 1 21 -1.55 19.13 0
-2 2 -5 824.89 17.06 0
-2 7 -1 335.23 13.57 0
-2 7 17 -0.15 25.25 0
-2 8 1 330.06 13.29 0
-2 9 5 532.53 15.79 0
-1 -4 13 2.36 13.19 0
-1 -2 17 40.1 14 0
-1 -1 18 343.6 13.12 0
-1 1 -3 1438.23 23.82 0
-1 2 -3 3378.37 27.72 0
-1 4 18 68.2 16.68 0
-1 5 17 3.79 18.38 0
-1 6 0 200.78 13.59 0
-1 7 2 40.89 11.43 0
-1 8 7 14.84 15.35 0
-1 8 8 215.27 19.66 0
-1 8 9 229.31 22.01 0
0 -3 6 46.52 13.55 0
0 -3 7 626.76 15.12 0
0 -3 8 93.56 12.66 0
0 -3 9 48.29 12.39 0
0 -3 10 -1.65 8.48 0
0 -2 13 447.51 11.57 0
0 -1 14 18.99 13.76 0
0 3 15 281.17 16.79 0
0 5 2 1332.01 21.85 0
1 1 9 1428.5 20.99 0
1 2 9 273.35 17.19 0
-11 -2 -10 114.65 18.08 0
-9 -3 -9 77.26 17.01 0
-8 -9 3 80.55 17.67 0
-8 4 -10 82.79 13.84 0
-8 6 -9 43.46 13.29 0
-8 7 -8 -9.91 10.12 0
-8 8 -7 77.3 10.49 0
-8 9 -6 35.48 14.41 0
-7 -9 5 10.46 14.72 0
-7 2 -10 425.15 13.34 0
-7 5 -9 227.88 12.18 0
-7 9 -5 41.45 11.36 0
-6 -8 2 123.19 15.82 0
-6 4 -9 433.48 13.38 0
-6 7 -7 67.24 11.81 0
-6 8 -6 60.04 12.39 0
-6 11 0 3.85 16.28 0
-5 -8 5 269.61 14.17 0
-5 -8 12 -4.46 14.63 0
-5 -8 13 39.67 11.57 0
-5 -1 -8 478.91 14.56 0
-5 6 -7 59.14 11.53 0
-5 7 -6 181.6 11.65 0
-5 8 -5 -7.6 12.2 0
-5 10 -1 80.23 13.53 0
-5 11 2 509.78 17.02 0
-4 -7 3 249.1 13.42 0
-4 -7 14 80.4 15.63 0
-4 -6 17 44.7 14.59 0
-4 -1 -7 974.65 18.12 0
-4 6 -6 1000.86 14.24 0
-4 7 -5 281.9 12.47 0
-4 9 -2 114.7 12.19 0
-4 10 1 53.07 13.12 0
-4 11 6 8.82 16.13 0
-3 -6 2 68.81 12.61 0
-3 -6 14 48.63 14.05 0
-3 -5 17 -4.08 14.9 0
-3 -4 19 71.79 16.08 0
-3 -3 20 25.75 16.79 0
-3 4 -6 81.52 8.17 0
-3 8 -2 36.83 11.96 0
-3 10 4 1.34 14.59 0
-2 -5 2 18.65 13.25 0
-2 -5 14 17.57 9.5 0
-2 -4 16 18.74 14.31 0
-2 -3 18 31.71 14.59 0
-2 -2 19 37.34 16.59 0
-2 -1 20 125.33 16.39 0
-2 3 -5 1457.23 17.77 0
-2 4 20 129.14 20.74 0
-2 5 -4 1304.89 15.56 0
-2 6 -3 19.04 11.57 0
-2 9 4 6.81 14.62 0
-1 -4 3 2504.18 22.05 0
-1 -4 12 239.62 13.47 0
-1 -3 15 80.66 10.5 0
-1 -2 16 67.65 14.22 0
-1 3 -3 236.16 11.4 0
-1 3 18 141.89 15.65 0
-1 8 6 35.74 14.26 0
0 -2 12 370.88 14.19 0
0 -1 1 491.76 27.7 0
0 1 15 172.26 14.69 0
0 2 15 180.17 15.52 0
0 4 14 219.63 16.84 0
0 6 4 545.24 18.24 0
1 1 6 69.57 15.65 0
1 1 7 9.03 14.43 0
1 1 8 126.76 15.22 0
1 2 6 1.67 17.93 0
1 2 8 136.94 16.63 0
-10 -8 -2 24.63 25.02 0
-10 -2 -10 6.91 15.41 0
-10 1 -11 385.06 17.06 0
-10 2 -11 -5.8 13.83 0
-10 3 -11 33.77 15.47 0
-9 -9 2 65.65 18.81 0
-9 2 -11 87.63 13.83 0
-9 5 -10 16.82 10.9 0
-8 -1 -10 19.3 13.27 0
-7 -9 6 109.36 15.53 0
-7 -9 11 35.06 15.11 0
-7 -2 -9 324.34 14.37 0
-7 1 -10 336.04 10.5 0
-7 3 -10 1.23 12.06 0
-7 7 -8 106.91 13.14 0
-7 8 -7 22.45 13.66 0
-7 10 -4 94.65 15.99 0
-6 -1 -9 45.56 13.56 0
-6 6 -8 815.38 11.58 0
-6 9 -5 226.34 13.79 0
-6 10 -3 5.38 15.13 0
-5 -8 6 1094.59 17.13 0
-5 -8 7 12.34 13.19 0
-5 -8 8 147.94 13.08 0
-5 -8 9 92.7 12.75 0
-5 -8 10 58.36 13.98 0
-5 -8 11 262.97 14.15 0
-5 -7 16 -9.26 16.72 0
-5 -5 -4 1449.93 53.36 0
-5 5 -8 268.45 12.08 0
-5 11 1 27.91 14.24 0
-4 -7 13 75.98 14.08 0
-4 -5 19 88.79 13.09 0
-4 2 -8 304.82 12.82 0
-4 5 -7 382.81 12.4 0
-4 8 -4 155.55 12.72 0
-4 10 0 239.99 13.62 0
-4 11 5 232.85 16.8 0
-3 -6 13 136.07 13.47 0
-3 -5 16 152.04 13.73 0
-3 -2 21 130.11 14.59 0
-3 -1 -6 530.89 17.25 0
-3 6 -5 230.52 11.36 0
-3 7 -4 260.63 12.11 0
-3 9 0 9.24 11.55 0
-3 10 3 106.44 15.34 0
-2 -5 13 503.77 11.33 0
-2 -3 17 17.35 14.3 0
-2 0 -5 11.76 13.51 0
-2 7 -2 264.45 12.86 0
-2 8 0 550.71 14.54 0
-1 -4 4 540.78 15.7 0
-1 -4 11 64.14 12.02 0
-1 -3 14 227.36 13.01 0
-1 -1 17 52.98 11.2 0
-1 1 18 338.72 16.16 0
-1 2 18 104.32 17.56 0
-1 5 -2 204.39 12.63 0
-1 7 1 84.95 11.77 0
-1 7 13 8.3 26.79 0
-1 8 5 11.18 13.87 0
-1 8 10 4.76 26.65 0
0 -2 3 50.49 13.62 0
0 -2 11 40.9 12.29 0
0 -1 13 357.34 14.77 0
1 2 7 1653.46 26.19 0
-10 0 -11 -2.16 14.12 0
-9 -2 -10 29.62 16.53 0
-9 1 -11 -0.49 12.97 0
-9 3 -11 -8.07 13.45 0
-9 4 -11 83.32 13.69 0
-9 6 -10 59.25 15.97 0
-8 -9 4 4.24 15.56 0
-8 -4 -8 21.78 17.46 0
-8 5 -10 7.16 10.13 0
-8 7 -9 45.12 12.83 0
-8 8 -8 94.41 14.96 0
-7 -9 7 80.11 13.75 0
-7 -9 8 16.25 15.72 0
-7 -9 9 36.07 15.72 0
-7 -9 10 164.51 15.26 0
-7 -8 1 71.85 16.39 0
-7 0 -10 0.77 9.15 0
-7 4 -10 203.1 10.28 0
-7 6 -9 12.05 9.06 0
-7 9 -6 2.32 11.42 0
-6 -8 3 13.03 13.4 0
-6 -8 14 33.16 15.55 0
-6 -7 -1 825.9 20.58 0
-6 5 -9 89.01 8.65 0
-5 -7 1 372.99 17.03 0
-5 -7 15 20.28 16.33 0
-5 -6 -2 185.88 17.52 0
-5 1 -9 164.71 12.98 0
-5 2 -9 143.93 9.41 0
-5 3 -9 105.59 11.98 0
-5 9 -4 13.76 10.21 0
-5 10 -2 181.43 11.09 0
-4 -7 4 74.45 12.75 0
-4 -7 11 379.93 14.65 0
-4 -7 12 171.45 11.49 0
-4 -6 0 58.21 15.12 0
-4 -6 16 333.39 12.37 0
-4 -5 18 110.57 15.9 0
-4 1 -8 72.54 9.08 0
-4 3 -8 11.84 7.97 0
-4 11 4 9.18 15.43 0
-3 -6 3 1489.16 19.08 0
-3 -6 12 89.72 13.41 0
-3 -4 18 296.86 12.58 0
-3 -3 19 61.29 15.98 0
-3 -1 21 134.72 19.12 0
-3 1 -7 87.7 11.97 0
-3 2 -7 60.12 10.99 0
-3 3 -7 0.2 10.64 0
-3 5 -6 82.34 8.54 0
-2 -5 3 959.22 17.86 0
-2 -5 11 42.31 12.26 0
-2 -5 12 21.6 8.87 0
-2 -4 15 488.81 12.4 0
-2 -2 18 18.27 15.81 0
-2 -1 19 557.07 18.6 0
-2 1 20 111.78 18.76 0
-2 2 20 -10.42 18.32 0
-2 3 20 8.78 18.53 0
-2 4 -5 1576.98 15.14 0
-2 5 19 432.41 20.85 0
-2 6 18 -2.13 20.32 0
-2 9 3 173.92 13.74 0
-1 -4 5 71.16 12.92 0
-1 -4 9 0.23 11.74 0
-1 -4 10 334.17 10.69 0
-1 -3 13 5.56 12.46 0
-1 -2 15 40.31 14.12 0
-1 -1 16 668.89 16.21 0
-1 0 -3 388.73 18.14 0
-1 4 -3 1903.3 18.3 0
-1 4 17 118.79 16.47 0
-1 6 -1 101.32 9.22 0
-1 6 15 282.89 21.06 0
-1 8 4 1.52 13.81 0
0 -2 10 184.06 12.56 0
0 -1 12 94.87 14.05 0
0 1 14 22.04 13.64 0
0 2 14 951.45 19.8 0
0 3 14 3.76 13.59 0
0 4 0 578.32 17.83 0
0 5 1 415.77 17.76 0
0 5 12 439.1 20.97 0
-10 -1 -11 354.28 18.25 0
-9 -9 3 37.87 17.35 0
-9 0 -11 114.81 13.57 0
-8 -9 5 -1.61 14.73 0
-8 -7 -3 206.28 23.81 0
-8 -3 -9 177.65 16.04 0
-8 1 -11 1388.55 18.38 0
-8 2 -11 2.16 9.64 0
-8 3 -11 4.5 12.27 0
-8 4 -11 17.43 12.76 0
-8 6 -10 402.89 15.26 0
-7 -7 -2 62.38 19.31 0
-7 5 -10 357.16 14.35 0
-6 -8 12 31.64 14.41 0
-6 -8 13 -0.76 11.94 0
-6 1 -10 57.19 11.99 0
-6 2 -10 258.85 9.91 0
-6 3 -10 25.63 12.64 0
-6 6 -9 6.44 11.05 0
-6 7 -8 -0.58 11.32 0
-6 8 -7 5.39 11.79 0
-6 10 -4 111.24 14.88 0
-5 -7 14 42.68 14.86 0
-5 0 -9 619.91 14.52 0
-5 4 -9 11.63 10.93 0
-5 6 -8 -1.54 11.1 0
-5 7 -7 97.9 8.75 0
-5 8 -6 142.63 12.43 0
-5 10 -3 75.61 13.19 0
-5 11 0 4.93 15.7 0
-4 -7 5 176.54 12.91 0
-4 -7 6 189.15 13.69 0
-4 -7 7 35.07 12.38 0
-4 -7 8 52.18 12.86 0
-4 -7 9 311.41 15.45 0
-4 -7 10 8.09 13.14 0
-4 -6 15 26.71 13.91 0
-4 0 -8 220.93 13.19 0
-4 4 -8 577.41 10.7 0
-4 6 -7 -3.24 11.23 0
-4 7 -6 158.63 11.38 0
-4 8 -5 85.63 11.64 0
-4 9 -3 12.14 9.22 0
-4 10 -1 -0.16 13.7 0
-4 11 3 242.41 16.78 0
-3 -6 4 88.17 12.85 0
-3 -6 10 239.47 13.15 0
-3 -6 11 1386.25 16.88 0
-3 -5 15 51.51 13.28 0
-3 -4 17 45.82 14.74 0
-3 -2 20 131.09 13.21 0
-3 4 -7 317.68 11.94 0
-3 8 -3 1253.63 13.85 0
-3 9 -1 56.81 9.27 0
-3 10 2 6.34 14.16 0
-2 -5 4 2041.67 20.86 0
-2 -5 10 -6.38 12.26 0
-2 -4 0 1754.41 26.19 0
-2 -4 14 317.09 14.6 0
-2 -3 16 2.47 15.24 0
-2 6 -4 236.06 12.02 0
-2 8 -1 -1.37 11.74 0
-2 9 2 -0 12.56 0
-1 -4 6 35.59 8.95 0
-1 -4 7 326.68 10.49 0
-1 -4 8 556.39 11.53 0
-1 -3 1 -0.34 14.42 0
-1 -3 12 423.99 13.45 0
-1 -2 -1 1098.97 38.1 0
-1 1 17 68.8 15.74 0
-1 2 17 21.71 16.62 0
-1 3 17 34.12 16.45 0
-1 5 16 330.46 17.6 0
-1 7 0 7.44 10.99 0
0 -2 4 924.94 17.91 0
0 -2 5 76.57 16.71 0
0 -2 8 203.67 13.74 0
0 -2 9 0.48 8.48 0
0 2 -1 1.01 20.52 0
0 4 13 229.28 17.21 0
0 6 3 69.84 12.11 0
-11 -4 -9 29.75 20.86 0
-10 2 -12 39.03 15.64 0
-9 -8 -1 98.97 19.23 0
-9 -1 -11 7.27 15.33 0
-9 5 -11 268.02 12.4 0
-8 -9 6 9.11 15.61 0
-8 -9 7 90.41 14.98 0
-8 -9 8 12.63 14.81 0
-8 -9 9 47.38 15.33 0
-8 -9 10 92.43 17.36 0
-8 -8 0 15.5 16.41 0
-8 -2 -10 22.4 15.44 0
-8 0 -11 0.69 13.69 0
-7 -1 -10 363.05 14.8 0
-7 2 -11 4.45 12.89 0
-7 3 -11 39.36 12.51 0
-7 7 -9 39.86 9.53 0
-7 8 -8 118.03 10.47 0
-7 9 -7 12.4 15.42 0
-6 -8 4 21.3 11.78 0
-6 -8 5 195.69 13.08 0
-6 -8 11 120.66 15.26 0
-6 -7 16 46.27 17.66 0
-6 0 -10 50.05 11.91 0
-6 4 -10 622.45 11.36 0
-6 9 -6 2.58 11.09 0
-5 -7 13 218.04 15.14 0
-5 -6 17 17.19 11.88 0
-5 -5 19 41.87 17.26 0
-5 -3 -7 6.67 14.78 0
-5 -2 -8 315.81 16.08 0
-5 5 -9 15.55 11.14 0
-5 9 -5 5.36 12.69 0
-5 11 -1 227.92 14.82 0
-4 -6 14 16.75 13.55 0
-4 -5 17 14.79 13.83 0
-4 -4 19 3.02 13.31 0
-4 -3 20 29.41 16.77 0
-4 5 -8 208.76 12.02 0
-4 11 2 188.62 16.23 0
-3 -6 5 567.64 15.27 0
-3 -6 6 32.58 12.54 0
-3 -6 7 56.99 13.05 0
-3 -6 8 19.21 12.75 0
-3 -6 9 42.76 13.06 0
-3 -5 0 1288.74 24.35 0
-3 -5 14 58.92 13.57 0
-3 -3 18 191 16.91 0
-3 -1 20 68 16.23 0
-3 0 -7 8083.25 37.75 0
-3 0 21 329.56 16.03 0
-3 1 21 140.75 18.15 0
-3 6 -6 63.55 10.94 0
-3 7 -5 -5.11 11.78 0
-3 9 -2 253.78 12.74 0
-3 10 1 6.48 14.01 0
-2 -5 5 42.09 12.7 0
-2 -5 6 149.03 12.86 0
-2 -5 7 33.66 12.61 0
-2 -5 8 210.94 12.94 0
-2 -5 9 2231.67 17.43 0
-2 -4 13 801.37 15.55 0
-2 -2 17 5.36 15.61 0
-2 -1 18 28.65 15.15 0
-2 1 19 530.37 18.04 0
-2 2 -6 552.19 14.89 0
-2 3 -6 284.3 12.85 0
-2 4 19 8.51 18.39 0
-2 5 -5 71.68 8.26 0
-2 7 -3 89.65 11.99 0
-2 9 1 41.95 14.51 0
-1 -2 14 -2.59 10.31 0
-1 -1 15 342.54 15.73 0
-1 2 -4 889.64 19.32 0
-1 3 -4 16.73 13.95 0
-1 5 -3 878.93 15.38 0
-1 6 -2 -0.17 12.1 0
-1 8 3 635.94 15.67 0
0 -2 6 511.1 13.59 0
0 -2 7 24.09 10.07 0
0 -1 11 175.66 10.5 0
0 1 13 345.19 14.93 0
0 3 -1 1282.92 23.91 0
-10 -4 -9 5.85 19.59 0
-10 -3 -10 1.29 17.35 0
-10 1 -12 41.45 16.46 0
-9 -9 4 7.3 16.26 0
-9 2 -12 34.33 14.74 0
-9 3 -12 512.09 16.64 0
-8 -5 -7 62.47 23.64 0
-8 5 -11 765.62 13.84 0
-8 7 -10 1.01 14.64 0
-7 -8 2 130.73 15.09 0
-7 -8 13 61.32 15.14 0
-7 -8 14 22.84 12.46 0
-7 1 -11 224.38 14.13 0
-7 4 -11 157.67 13.92 0
-7 6 -10 5.16 9.25 0
-6 -8 6 54.96 14.14 0
-6 -8 7 5.06 14.43 0
-6 -8 8 76.04 14.71 0
-6 -8 9 245.16 15.44 0
-6 -8 10 95.77 11.44 0
-6 -7 15 0.97 15.26 0
-6 -3 -8 13.21 12.92 0
-6 -2 -9 16.42 14.1 0
-6 5 -10 39.08 11.47 0
-6 8 -8 116.45 13.04 0
-6 10 -5 10.99 13.66 0
-5 -7 2 1384.83 19.31 0
-5 -7 12 233.01 15.66 0
-5 -6 16 -10.73 15.15 0
-5 7 -8 516.07 13.36 0
-5 8 -7 471.75 14.32 0
-5 10 -4 33.53 13.08 0
-4 -6 13 31.2 13.53 0
-4 -5 16 81.33 14.01 0
-4 -4 18 252 15.43 0
-4 -2 -7 81.29 13.21 0
-4 2 -9 894.64 15.62 0
-4 3 -9 364.26 12.09 0
-4 7 -7 84.12 11.37 0
-4 9 -4 -1.12 9.7 0
-4 10 -2 31.23 13.26 0
-4 11 1 82.89 15.49 0
-3 -5 13 236.91 13.73 0
-3 -4 16 28.79 10.58 0
-3 -2 19 272.15 15.94 0
-3 5 -7 268.32 11.55 0
-3 8 -4 28.01 11.51 0
-2 -3 -2 821.24 36.73 0
-2 -3 15 1839.93 18.73 0
-2 1 -6 205.84 14.21 0
-2 2 19 48.82 17.78 0
-2 3 19 151.53 18.39 0
-2 4 -6 149.46 12.1 0
-2 8 -2 40.76 12.39 0
-1 -3 11 3.57 9.04 0
-1 -2 13 115.9 13.67 0
-1 1 -4 22.38 17.69 0
-1 1 16 652.33 16.71 0
-1 4 -4 50.79 12.42 0
-1 4 16 -7.54 17.78 0
-1 8 2 195.41 13.07 0
0 -1 10 1040.78 16.73 0
0 2 13 450.74 15.45 0
0 3 13 541.16 16.6 0
0 5 0 -1.06 13.33 0
0 6 2 -1.11 11.86 0
-10 -7 -4 28.2 31.31 0
-10 -2 -11 6.58 17.37 0
-10 0 -12 163.58 17.29 0
-9 -9 5 7.26 15.91 0
-9 -9 6 107.84 17.79 0
-9 1 -12 43.58 13.99 0
-9 4 -12 21.46 14.85 0
-8 -1 -11 1366 19.46 0
-8 2 -12 15.59 13.73 0
-8 3 -12 13.86 12.97 0
-8 6 -11 -6.96 15.62 0
-7 -8 3 1.64 16.13 0
-7 -8 12 65.89 16.67 0
-7 0 -11 28.3 14.26 0
-7 5 -11 38.16 13.77 0
-7 7 -10 535.89 14.3 0
-7 8 -9 5.48 13.89 0
-7 9 -8 423.19 16.88 0
-6 -7 0 149.01 16.14 0
-6 -7 14 56.56 15.25 0
-6 -6 -3 97.44 21.37 0
-6 3 -11 1400 16.36 0
-6 6 -10 95.76 12.82 0
-6 7 -9 38.91 9.36 0
-6 9 -7 583.26 15.36 0
-5 -7 3 -1.86 12.05 0
-5 -7 11 43.28 14.66 0
-5 -6 15 219.64 14.51 0
-5 -5 18 10.69 11.75 0
-5 -1 -9 168.95 12.31 0
-5 1 -10 230.16 12.62 0
-5 2 -10 37.2 9.18 0
-5 3 -10 148.36 9.45 0
-5 4 -10 0.62 12.27 0
-5 6 -9 169.58 11.58 0
-5 9 -6 16.01 12.66 0
-5 11 -2 11.7 16.02 0
-4 -6 1 21.94 12.55 0
-4 -6 12 50.11 13.7 0
-4 -3 -6 8.64 14.7 0
-4 -3 19 19.81 15.86 0
-4 -1 -8 67.15 13.33 0
-4 -1 21 2.46 17.31 0
-4 1 -9 25.58 12.28 0
-4 4 -9 117.9 10.98 0
-4 6 -8 40.93 11.04 0
-4 8 -6 12.18 9.29 0
-4 11 0 74.5 14.36 0
-3 -5 12 431.19 13.42 0
-3 -4 15 18.31 13.23 0
-3 -3 17 9.9 15.74 0
-3 0 20 -4.17 17.35 0
-3 2 -8 24.35 10.96 0
-3 3 -8 171.26 11.98 0
-3 7 -6 39.44 11.52 0
-3 9 -3 44.52 11.91 0
-3 10 0 46.29 12.93 0
-3 11 6 345.71 18.5 0
-3 11 7 6.43 18.76 0
-2 -4 12 -1.09 9.12 0
-2 -3 14 24.35 12.99 0
-2 -2 16 -9.51 13.91 0
-2 -1 17 36.42 14.84 0
-2 0 18 185.11 15.68 0
-2 5 18 4.41 17.37 0
-2 6 -5 69.56 11.58 0
-2 6 17 15.61 22.21 0
-2 7 -4 881.32 15 0
-2 7 16 -2.43 22.02 0
-2 9 0 -10.3 13.26 0
-2 10 6 315.87 18.47 0
-1 -3 2 246.59 17.85 0
-1 -3 10 2314.29 18.08 0
-1 -1 14 -3.06 14.22 0
-1 2 16 60.65 15.35 0
-1 3 16 622.72 18.55 0
-1 7 -1 250.66 12.44 0
0 -1 2 23.67 24.13 0
0 -1 9 1876.94 20.15 0
0 1 -1 485.7 28.23 0
0 1 12 92.86 13.34 0
0 4 -1 279.57 11.72 0
0 4 12 997.04 22.14 0
0 5 11 3.8 17.82 0
-10 -5 -8 143.17 25.14 0
-9 -9 7 5.27 16.56 0
-9 -9 8 -1.33 17.28 0
-9 -4 -9 377.44 21.46 0
-9 -3 -10 460.5 19.87 0
-9 0 -12 11.99 15.23 0
-8 -8 1 15.53 16.7 0
-8 1 -12 361.31 15.71 0
-8 4 -12 18.52 13.46 0
-7 -8 11 360.04 17.32 0
-7 -3 -9 32.79 13.43 0
-7 -2 -10 410.59 16.49 0
-7 6 -11 -6.05 12.96 0
-6 -6 17 2.07 14.85 0
-6 -4 -7 19.8 17.55 0
-6 -1 -10 45.24 13.25 0
-6 1 -11 416.44 13.99 0
-6 2 -11 16.83 9.28 0
-6 4 -11 22.86 13.01 0
-6 10 -6 -16.9 14.26 0
-5 -7 4 75.77 12.92 0
-5 -7 9 9.92 14.33 0
-5 -7 10 37.39 13.38 0
-5 -5 17 -19.33 13.7 0
-5 -4 19 19.04 17.57 0
-5 5 -10 124.71 12.14 0
-5 10 -5 129.46 15.23 0
-5 11 -3 27.48 14.71 0
-4 -6 11 -5.31 13.31 0
-4 -5 15 375.9 13.88 0
-4 -4 17 32.2 14.36 0
-4 -2 20 -14.14 15.76 0
-4 5 -9 46.09 11.72 0
-4 9 -5 22.4 9.95 0
-4 10 -3 7.73 10.64 0
-3 -5 11 389.56 13.79 0
-3 -2 18 495.26 16.64 0
-3 -1 19 133.63 15.4 0
-3 1 -8 13.7 11.84 0
-3 1 20 54.27 17.68 0
-3 4 -8 26.16 8.28 0
-3 6 -7 2691.83 16.98 0
-3 8 -5 41.7 12.65 0
-3 10 -1 33.19 13.74 0
-3 11 4 -2.68 15.79 0
-3 11 5 3.23 14.78 0
-3 11 8 4.12 19.26 0
-2 -4 1 723.46 18.29 0
-2 -4 11 8.37 9.23 0
-2 -1 -5 34.18 15.36 0
-2 1 18 29.64 16.4 0
-2 4 18 138.55 18.73 0
-2 5 -6 23.22 7.83 0
-2 8 -3 6.01 12.14 0
-2 10 4 71.18 15.73 0
-2 10 5 199.34 15.39 0
-2 10 7 2.35 16.32 0
-2 10 8 8.13 17.94 0
-1 -3 8 56.53 12.59 0
-1 -3 9 194.51 10.03 0
-1 -2 12 147.01 10.28 0
-1 5 -4 51.8 10.9 0
-1 5 15 83.44 16.97 0
-1 6 -3 690.51 14.81 0
-1 6 14 25.09 17.72 0
-1 8 1 15.35 11.21 0
0 -1 8 545.57 16.13 0
0 2 12 362.73 14.08 0
0 6 1 13.06 12.86 0
-10 -8 -1 20.5 19.67 0
-10 -1 -12 55.63 16.72 0
-9 -8 0 31.68 19.27 0
-9 -2 -11 88.3 15.11 0
-8 5 -12 56.56 11.71 0
-7 -8 4 68.86 13.45 0
-7 -8 5 19.34 12.94 0
-7 -8 8 33.88 13.36 0
-7 -8 9 870.8 18.18 0
-7 -8 10 43.06 11.2 0
-7 -7 15 303.53 18.29 0
-7 -4 -8 99.92 18.72 0
-7 2 -12 119.13 13.27 0
-7 3 -12 46.92 13.71 0
-7 4 -12 39.75 14.07 0
-7 8 -10 284.73 14.75 0
-6 -7 13 173.4 12.53 0
-6 -6 16 172.25 16.41 0
-6 5 -11 166.43 12.92 0
-6 7 -10 220.08 13.78 0
-6 8 -9 9.07 12.71 0
-6 9 -8 113.56 15.63 0
-5 -7 5 286.42 13.96 0
-5 -7 6 606.49 15.14 0
-5 -7 7 239.18 14.43 0
-5 -7 8 48.91 12.58 0
-5 -6 -1 5.82 15.52 0
-5 -6 14 7 10.53 0
-5 -4 -6 1049.82 33.03 0
-5 -3 20 10.05 17.91 0
-5 0 -10 6.07 12.04 0
-5 7 -9 15.16 9.12 0
-5 8 -8 87.86 9.88 0
-5 9 -7 9.02 14.49 0
-4 -6 2 273.63 14.13 0
-4 -6 10 209.71 14.53 0
-4 -5 -2 4.74 15.17 0
-4 -5 14 385.35 14.39 0
-4 -3 18 12.49 14.94 0
-4 0 -9 -4.37 11.79 0
-4 0 21 -0.54 18.2 0
-4 7 -8 76.39 11.96 0
-4 8 -7 98.15 13 0
-4 10 -4 162.52 14.65 0
-4 11 -1 168.95 14.44 0
-3 -5 1 2499.37 26.35 0
-3 -5 10 1252.74 16.15 0
-3 -4 14 197.26 13.38 0
-3 -3 16 419.47 16.13 0
-3 -1 -7 84.65 13.14 0
-3 2 20 129.23 19.77 0
-3 3 20 18.34 19.51 0
-3 4 20 69.87 19.97 0
-3 5 -8 88.5 10.84 0
-3 9 -4 430.31 14.1 0
-3 11 3 96.45 15.85 0
-2 -4 10 349.55 10.84 0
-2 -3 13 396.95 14.27 0
-2 -2 15 433.37 11.97 0
-2 -1 16 162.32 16.13 0
-2 0 -6 1450.23 20.89 0
-2 0 17 -4.46 15.03 0
-2 2 -7 28.02 11.64 0
-2 2 18 2.04 16.41 0
-2 3 -7 964.68 14.96 0
-2 3 18 37.11 17.27 0
-2 9 -1 531.32 14.08 0
-2 10 3 232.96 15.02 0
-1 -3 3 77.45 12.89 0
-1 -3 4 0.21 15.34 0
-1 -3 7 19.73 13.31 0
-1 -2 11 355.87 13.89 0
-1 -1 13 7.67 13.63 0
-1 1 15 351.75 15.51 0
-1 3 -5 164.76 13.67 0
-1 7 -2 118.33 11.96 0
-1 8 0 58.1 12.41 0
0 -1 3 106.54 23.38 0
0 -1 7 1093.04 20.11 0
0 1 11 158.69 14.58 0
0 3 -2 2.26 15.93 0
0 3 12 59.06 13.38 0
0 5 -1 416.96 16.07 0
0 6 9 7.67 28.65 0
0 7 4 6.38 14.05 0
0 7 5 155.19 16.17 0
0 7 6 537.33 24.53 0
-9 -1 -12 25.3 16.65 0
-9 2 -13 77.17 16.39 0
-9 3 -13 0.72 11.83 0
-8 -8 2 759.07 18.42 0
-8 -8 12 78.57 15.6 0
-8 0 -12 103.23 13.22 0
-8 6 -12 187.16 15.31 0
-7 -8 6 10.39 13.01 0
-7 -8 7 144.32 13.62 0
-7 -7 -1 1059.09 23.12 0
-7 -7 14 14.43 15.35 0
-7 -6 17 117.86 16.29 0
-7 -1 -11 222.32 14.53 0
-7 1 -12 154.83 14.45 0
-7 5 -12 332.8 15.28 0
-7 7 -11 377.66 15.13 0
-6 -7 1 338.42 15.03 0
-6 -7 12 248.71 12.26 0
-6 -5 18 13.56 14.72 0
-6 0 -11 -12.64 12.56 0
-6 6 -11 50.12 12.93 0
-5 -6 13 308.82 15.43 0
-5 -5 16 19.88 14.81 0
-5 -4 18 138.88 16.16 0
-5 2 -11 619.49 13.58 0
-5 3 -11 113.15 12.86 0
-5 4 -11 229.55 12.24 0
-5 6 -10 9.06 8.73 0
-5 10 -6 371.44 15.49 0
-5 11 -4 179.03 16.92 0
-4 -6 3 74.32 12.1 0
-4 -6 8 555.76 14.61 0
-4 -6 9 12.11 12.67 0
-4 -4 16 735.5 15.57 0
-4 -2 19 175.9 17.29 0
-4 -1 20 -6.1 16.36 0
-4 2 -10 344.55 13.55 0
-4 3 -10 25.45 11.62 0
-4 4 -10 829.33 14.5 0
-4 6 -9 50.47 8.37 0
-4 9 -6 51.38 12.95 0
-4 11 -2 6.67 15.79 0
-3 -5 9 114.96 12.81 0
-3 -4 13 49.99 13.06 0
-3 -2 -6 15.25 16.29 0
-3 -2 17 356.13 15.14 0
-3 -1 18 55.91 16.38 0
-3 0 19 102.71 12.99 0
-3 6 -8 53.49 11.07 0
-3 7 -7 7.32 11.66 0
-3 8 -6 6.91 12.5 0
-3 10 -2 76.81 12.99 0
-3 11 1 122.6 16.61 0
-3 11 2 323.03 15.47 0
-2 -4 2 21.41 13.76 0
-2 -4 9 26.96 9.07 0
-2 -3 12 -6.02 12.02 0
-2 4 -7 296.31 9.4 0
-2 6 -6 1656.13 14.77 0
-2 7 -5 2.66 8.49 0
-2 8 -4 159.71 12.75 0
-2 9 -2 83.06 12.83 0
-2 10 2 577.91 16.81 0
-2 10 9 6.51 20.31 0
-1 -3 5 839.37 15.42 0
-1 -3 6 4738.53 27.26 0
-1 2 -5 695.42 14.72 0
-1 2 15 31.6 15.41 0
-1 3 15 69.29 16.73 0
-1 4 -5 26.71 8.53 0
-1 4 15 224.53 15.97 0
-1 6 -4 33.09 12.17 0
-1 9 4 89.47 15.2 0
-1 9 5 120.91 16.23 0
-1 9 6 1734.99 25.75 0
0 -1 4 367.11 22.5 0
0 -1 5 1269.77 23.76 0
0 -1 6 806.91 19.89 0
0 2 -2 242.42 16.26 0
0 4 -2 873.24 18.42 0
0 6 0 6432.2 34.88 0
0 7 3 534.7 17.86 0
-9 1 -13 330.64 15.66 0
-8 -8 3 10.11 16 0
-8 -8 10 13.05 14.46 0
-8 -8 11 107.27 12.54 0
-8 -6 -5 0.08 30.33 0
-8 -3 -10 44.87 14.24 0
-8 -2 -11 6.32 14.16 0
-8 2 -13 71.04 15.6 0
-8 3 -13 13.08 13.89 0
-8 4 -13 327.33 16.24 0
-7 -7 13 10.87 14.34 0
-7 -6 -4 20.98 24.75 0
-7 6 -12 23.39 15.66 0
-6 -7 2 45.39 14.97 0
-6 -7 10 501.18 15.05 0
-6 -7 11 -2.07 10.38 0
-6 -6 15 70.7 11.61 0
-6 -4 19 78.58 15.36 0
-6 2 -12 33.05 13 0
-6 3 -12 30.43 13.23 0
-6 4 -12 75.51 14.01 0
-6 8 -10 452.03 15.49 0
-6 9 -9 7.29 15.62 0
-5 -6 12 139.82 15.38 0
-5 -3 19 -7.41 17.85 0
-5 5 -11 283.79 13.66 0
-5 7 -10 328.34 13.36 0
-5 8 -9 4.26 13.2 0
-5 9 -8 142.94 15.15 0
-4 -6 4 20.12 12.81 0
-4 -6 5 36 13.43 0
-4 -6 6 5.8 13.46 0
-4 -6 7 -3.64 13.58 0
-4 -5 13 159.65 10.37 0
-4 -3 17 145.78 14.78 0
-4 1 -10 81.86 12.1 0
-4 5 -10 32.63 11.45 0
-4 7 -9 55.32 11.4 0
-4 8 -8 307.84 14.32 0
-4 10 -5 -0.91 13.94 0
-3 -5 2 1990.21 22.08 0
-3 -5 8 177.08 12.72 0
-3 -3 15 24.72 10.33 0
-3 0 -8 -5.21 9.24 0
-3 2 -9 846.52 15.12 0
-3 3 -9 42.55 8.29 0
-3 4 -9 1654.71 16.26 0
-3 5 19 96.98 21.13 0
-3 9 -5 30.75 13.11 0
-3 10 -3 83.66 15.12 0
-2 -4 3 822.4 18.29 0
-2 -4 7 27.8 12.38 0
-2 -4 8 43.57 9.05 0
-2 -2 -4 4734.74 58.55 0
-2 -2 14 23.94 10.08 0
-2 -1 15 166.22 13.99 0
-2 0 16 582.96 16.55 0
-2 1 -7 1301.8 17.71 0
-2 1 17 22.77 15.18 0
-2 5 -7 399.94 10.3 0
-2 5 17 35.47 17.29 0
-2 8 14 -2.18 26.26 0
-2 10 1 461.93 15.2 0
-1 -2 10 44.65 9.21 0
-1 -1 12 1599.74 19.79 0
-1 0 -4 1.84 18.16 0
-1 1 14 -1.68 13.83 0
-1 5 -5 188.18 11.93 0
-1 7 -3 1219.24 16.68 0
-1 8 -1 1255.22 17.04 0
-1 9 3 11.84 12.57 0
-1 9 7 1.2 17.7 0
0 2 11 49.9 13.73 0
0 4 11 124.25 17.37 0
0 7 2 2.84 13.71 0
0 7 7 246.36 26.77 0
-10 -8 0 40.56 19.76 0
-10 -3 -11 33.87 19.75 0
-9 -8 1 107.34 16.91 0
-9 0 -13 4.56 14.64 0
-8 -8 4 314.18 15.86 0
-8 -8 8 251.52 14.88 0
-8 -8 9 120.71 15.84 0
-8 -7 -2 29.34 18.62 0
-8 -4 -9 -3.49 18.3 0
-8 -1 -12 347.72 15.95 0
-8 1 -13 108.37 15.14 0
-8 5 -13 176.83 12.35 0
-7 -6 16 -4.58 17.24 0
-7 0 -12 27.18 12.58 0
-7 3 -13 -0.77 13.73 0
-7 4 -13 91.77 13.66 0
-6 -7 9 541.82 15.87 0
-6 -6 14 923.31 17.94 0
-6 -5 17 25.43 11.71 0
-6 -2 -10 290.11 16.23 0
-6 1 -12 12.13 11.78 0
-6 5 -12 0.73 12.44 0
-6 7 -11 52.56 9.79 0
-5 -6 11 333.42 14.77 0
-5 -5 15 -6.14 10.19 0
-5 -4 17 318.97 15 0
-5 -2 -9 164.26 13.53 0
-5 -2 20 41.26 13.65 0
-5 -1 -10 231.52 12.83 0
-5 1 -11 340.93 10.51 0
-5 6 -11 79.1 13.1 0
-5 10 -7 193 16.39 0
-4 -5 12 3.27 13.08 0
-4 -4 15 101.06 10.33 0
-4 -2 18 44.6 16.52 0
-4 -1 19 248.68 16.89 0
-4 0 20 311.35 17.61 0
-4 6 -10 368.01 12.29 0
-4 9 -7 72.54 12.92 0
-4 11 -3 173.22 14.71 0
-3 -5 3 140.4 13.25 0
-3 -5 4 21.89 13.44 0
-3 -5 5 255.95 14.41 0
-3 -5 6 1344.06 18.72 0
-3 -5 7 120.89 9.91 0
-3 -4 -2 330.53 21.62 0
-3 -4 12 123.92 10.22 0
-3 -2 16 167.05 15.4 0
-3 -1 17 22.64 14.78 0
-3 0 18 8.24 15.55 0
-3 2 19 281.52 18.57 0
-3 3 19 42.75 19.64 0
-3 4 19 62.14 20.36 0
-3 5 -9 1047.74 12.44 0
-3 7 -8 98.23 12.17 0
-3 8 -7 122.3 11.89 0
-3 11 0 224.34 14.85 0
-2 -4 4 474.15 16.28 0
-2 -4 5 752.9 16.55 0
-2 -4 6 430.09 11.48 0
-2 -3 11 191.17 13.41 0
-2 2 17 6.13 16.07 0
-2 3 -8 -7.23 10.65 0
-2 3 17 8.74 15.33 0
-2 4 17 84.02 17.11 0
-2 6 -7 124.41 11.81 0
-2 6 16 288.58 20.96 0
-2 7 -6 78.36 11.35 0
-2 8 -5 232.03 13.43 0
-2 9 -3 10.21 12.55 0
-2 10 0 354.35 15.09 0
-1 -2 9 135 13.34 0
-1 1 -5 971.5 17.01 0
-1 5 14 -2.28 17.13 0
-1 8 -2 1092.86 16.65 0
-1 9 2 2.21 13.2 0
0 1 10 979.97 16.24 0
0 3 11 78.5 13.07 0
0 5 -2 1293.02 16.7 0
0 6 -1 17.61 13.29 0
0 7 1 262.09 14.93 0
-10 -2 -12 35.5 17.64 0
-9 -8 2 140.43 18.15 0
-9 -8 11 186.09 17.23 0
-9 -7 -3 80.88 22.32 0
-9 -5 -8 280.01 27.1 0
-8 -8 5 99.48 13.15 0
-8 -8 6 209.11 15.68 0
-8 -8 7 122.48 14.14 0
-8 -7 14 6.91 16.08 0
-7 -7 0 127.99 16.77 0
-7 -7 12 54.46 11.32 0
-7 -5 18 -6.12 12.57 0
-7 2 -13 75.35 13.48 0
-7 5 -13 40.89 15.75 0
-7 7 -12 96.84 12 0
-6 -7 3 383.15 14.89 0
-6 -7 4 576.86 15.8 0
-6 -7 5 653.59 15.25 0
-6 -7 6 27.1 12.21 0
-6 -7 7 13.18 13.46 0
-6 -7 8 3.21 10.19 0
-6 -6 13 35.38 14.23 0
-6 -5 16 56.24 15.29 0
-6 -4 18 188.07 16.72 0
-6 -3 -9 100.4 15.6 0
-6 -1 -11 409.32 15.17 0
-6 6 -12 10.07 12.88 0
-5 -6 0 13.92 12.77 0
-5 -6 10 4.49 13.63 0
-5 -5 14 56.52 14.22 0
-5 -3 18 163.77 17.41 0
-5 0 21 28.45 19.23 0
-5 3 -12 4.23 12.32 0
-5 8 -10 -6.5 13.93 0
-5 9 -9 1.37 13.93 0
-4 -5 11 270.33 14.11 0
-4 -4 14 165.58 13.74 0
-4 -3 16 7.5 14.27 0
-4 -2 -8 299.79 16.63 0
-4 -1 -9 27.25 12.53 0
-4 3 -11 416.16 13.95 0
-4 4 -11 593.9 13.42 0
-4 10 -6 201 15.23 0
-4 11 -4 11 15.86 0
-3 -4 11 150.38 13.26 0
-3 -3 14 49.87 9.68 0
-3 1 -9 512.69 11.54 0
-3 6 -9 434.43 12.77 0
-3 6 18 12.2 21.2 0
-3 9 -6 707.46 15.53 0
-3 10 -4 7.82 14.43 0
-3 11 -1 0.37 15.42 0
-2 -3 10 150.69 12.7 0
-2 -2 13 1030.71 13.99 0
-2 2 -8 476.47 13.02 0
-2 4 -8 111.25 8.47 0
-2 5 -8 17.95 11.18 0
-2 7 15 20.95 21.04 0
-2 10 -1 154.03 14.63 0
-2 10 10 0 27.92 0
-1 -1 11 132.07 13.92 0
-1 2 -6 4.59 12.84 0
-1 2 14 11.36 14.04 0
-1 3 -6 162.93 9.47 0
-1 4 -6 27.9 8.36 0
-1 6 -5 1.3 8.35 0
-1 7 -4 22.07 12.25 0
-1 7 12 345 26.05 0
-1 9 1 1.9 12.75 0
-1 9 8 12.97 23.61 0
0 3 -3 11.1 10.66 0
0 4 -3 218.37 14.18 0
0 5 10 52.29 19.26 0
-10 -4 -10 8.07 19 0
-9 -8 3 19.17 16.31 0
-9 -8 9 6.26 16.47 0
-9 -8 10 163.42 15.67 0
-9 -3 -11 -5.35 18.26 0
-9 -2 -12 14.44 18.11 0
-8 -7 13 93.5 16.39 0
-8 0 -13 5.43 14.98 0
-8 3 -14 -1.59 15.81 0
-7 -7 11 30.83 10.92 0
-7 -6 15 117.7 12.65 0
-7 -5 17 5.95 14.47 0
-7 -2 -11 8.56 13.83 0
-7 1 -13 426.72 15.52 0
-7 6 -13 45.37 14.75 0
-6 -3 19 18 16.64 0
-6 0 -12 73.1 12.66 0
-6 3 -13 169.43 13.58 0
-6 4 -13 0.62 13.94 0
-6 7 -12 20.71 14.01 0
-6 8 -11 4.91 10.89 0
-5 -6 9 363.38 15.37 0
-5 -4 16 86.34 11.63 0
-5 -3 -8 293.29 18 0
-5 -2 19 80.52 15.78 0
-5 -1 20 24.79 16.19 0
-5 0 -11 58.81 11.98 0
-5 2 -12 6.87 12.68 0
-5 4 -12 22.53 9.25 0
-5 5 -12 1.32 13.74 0
-5 7 -11 -0.76 12.44 0
-5 10 -8 141.64 16.53 0
-4 -5 -1 314.17 18.22 0
-4 -5 10 53.18 12 0
-4 -2 17 16.61 14.76 0
-4 0 -10 353.2 13.72 0
-4 0 19 11.8 15.39 0
-4 2 -11 1555.86 17.61 0
-4 2 20 15.41 17.22 0
-4 5 -11 64.12 12.2 0
-4 7 -10 24.13 12.21 0
-4 8 -9 506.19 11.1 0
-4 9 -8 94.76 13.46 0
-3 -3 13 14.5 13.26 0
-3 -2 15 311.84 15.43 0
-3 3 -10 292.11 12.27 0
-3 4 -10 156.64 11.25 0
-3 11 -2 14.96 15.77 0
-2 -2 12 15.88 13.05 0
-2 -1 14 6.27 10.23 0
-2 0 -7 4.31 14.34 0
-2 0 15 -7.5 14.4 0
-2 7 -7 216.4 12.82 0
-2 8 -6 452.17 13.93 0
-2 9 -4 49.49 9.78 0
-2 10 -2 18.01 13.04 0
-1 -2 0 81.41 21.36 0
-1 -2 8 331.1 11.7 0
-1 1 13 24.07 14.34 0
-1 3 14 243.09 16.43 0
-1 4 14 200.27 15.62 0
-1 5 -6 106.11 8.76 0
-1 6 13 538.52 22.45 0
-1 8 -3 537.33 14.34 0
-1 9 0 136 14.02 0
0 1 -2 11.72 23.7 0
0 1 9 1823.14 23.52 0
0 2 -3 42.54 18.97 0
0 2 10 167.31 14.91 0
0 5 -3 81.4 12.71 0
0 6 -2 1.47 12.8 0
0 7 0 4.24 12.03 0
-10 -8 1 79.02 17.3 0
-9 -8 4 0.32 15.4 0
-9 -8 5 187.6 14.96 0
-9 -8 6 60.22 14.55 0
-9 -8 7 34.21 15.73 0
-9 -8 8 162.09 16.88 0
-9 -1 -13 320.42 17.82 0
-9 1 -14 43.55 15.37 0
-8 -7 12 3.96 15.81 0
-8 -6 16 256.83 14.44 0
-8 2 -14 49.08 14.64 0
-7 -7 1 155.56 16.5 0
-7 -7 9 81.13 13.41 0
-7 -7 10 95.24 11.28 0
-7 -6 14 15.71 15.87 0
-7 -3 -10 5.34 15.67 0
-7 -1 -12 155.48 13.24 0
-6 -6 -2 25.75 18.25 0
-6 -6 12 718.1 13.53 0
-6 -5 15 12.01 13.35 0
-6 -4 17 150.39 15.82 0
-6 -2 20 101.4 18.3 0
-6 2 -13 61.8 12.94 0
-6 5 -13 56.73 13.55 0
-5 -6 1 53.31 12.8 0
-5 -6 8 43.05 13.93 0
-5 -5 13 65.66 10.01 0
-5 -3 17 34.9 15.31 0
-5 1 -12 3.13 11.62 0
-5 6 -12 24.4 12.78 0
-4 -4 13 5.01 13.67 0
-4 -3 15 7.5 13.88 0
-4 -1 18 432.25 13.68 0
-4 1 -11 153.39 12.27 0
-4 3 20 13.62 19.6 0
-4 6 -11 36.59 12.11 0
-4 10 -7 11.74 13.52 0
-4 11 -5 433.18 15.8 0
-3 -4 10 575.44 12 0
-3 -1 -8 9.39 13.67 0
-3 -1 16 270.99 15.37 0
-3 0 -9 16.98 12.58 0
-3 0 17 26.28 11.43 0
-3 2 -10 296.28 10.33 0
-3 2 18 488.13 18.95 0
-3 5 -10 12.64 8.63 0
-3 5 18 30.72 18.8 0
-3 7 -9 93.09 8.86 0
-3 7 17 2.02 21.88 0
-3 8 -8 26.16 9.55 0
-3 9 -7 43.53 14.37 0
-3 10 -5 58 10.77 0
-3 11 -3 -8.2 14.42 0
-2 -3 9 51.19 12.5 0
-2 -1 -6 204.81 16.6 0
-2 1 -8 92.06 12.52 0
-2 2 16 -9.32 15.91 0
-2 5 16 1.71 16.53 0
-2 6 -8 25.52 8.25 0
-2 9 -5 341.73 14.02 0
-2 11 3 186.34 17.03 0
-2 11 4 39.19 17.66 0
-2 11 5 8.03 18.43 0
-1 -2 7 2206.51 20.78 0
-1 -1 -3 1429.62 35.87 0
-1 -1 10 4.59 12.67 0
-1 6 -6 94.56 11.76 0
-1 7 -5 644.62 14.65 0
-1 9 -1 22.18 13.2 0
0 3 10 3.04 15.51 0
0 4 10 464.17 19.51 0
0 7 -1 244.07 13.21 0
-10 -8 2 415.7 20.25 0
-10 -8 9 4.16 17.68 0
-9 -7 13 32.38 17.35 0
-9 -4 -10 3.35 19.9 0
-9 0 -14 3.36 18.22 0
-8 -7 -1 134.99 17.3 0
-8 -7 11 65.61 14.07 0
-8 -6 15 74.93 17.65 0
-8 -2 -12 16.55 15.76 0
-8 1 -14 8.53 15.86 0
-7 -7 8 8.69 13.37 0
-7 -6 13 54.93 15.03 0
-7 -5 16 96.58 15.69 0
-7 -4 18 21.52 16.21 0
-7 0 -13 367.81 15.83 0
-7 2 -14 4.56 14.49 0
-7 3 -14 456.8 13.02 0
-7 4 -14 4.99 11.11 0
-7 5 -14 150.93 15.32 0
-6 -6 11 -5.41 13.8 0
-6 1 -13 5.98 14.26 0
-6 6 -13 90.06 11.48 0
-5 -6 2 122.51 13.58 0
-5 -6 6 66.27 13.55 0
-5 -6 7 78.49 13.51 0
-5 -5 12 865.05 16.5 0
-5 -4 15 433.61 11.97 0
-5 -2 18 128.79 16.8 0
-5 -1 19 25.47 16.97 0
-5 0 20 -0.74 18.02 0
-5 7 -12 107.25 13.56 0
-5 8 -11 25.79 10.44 0
-5 9 -10 111.05 11.43 0
-4 -5 9 145.75 10.16 0
-4 4 -12 14.74 11.9 0
-4 7 -11 28.33 11.35 0
-4 8 -10 406.26 13.68 0
-4 9 -9 32.91 14 0
-3 -4 9 29.31 12.6 0
-3 -3 12 1227.43 17.18 0
-3 -2 14 81.27 14.08 0
-3 1 -10 2.32 11.62 0
-3 3 18 193.98 18.34 0
-3 4 18 306.19 19.96 0
-3 6 -10 4.04 8.32 0
-3 10 -6 18.55 14.06 0
-2 -3 8 62.13 13.04 0
-2 -2 11 7.26 12.66 0
-2 -1 13 390.79 15.42 0
-2 0 14 208.95 14.74 0
-2 3 -9 165.54 8.71 0
-2 3 16 -1.08 15.53 0
-2 4 -9 20.5 8.39 0
-2 4 16 45.17 15.41 0
-2 5 -9 22.71 11.5 0
-2 7 -8 95.92 12.35 0
-2 8 -7 2.53 12.86 0
-2 10 -3 126.51 13.66 0
-2 11 1 1.81 15.56 0
-2 11 2 68.19 15.61 0
-2 11 6 11.08 20.84 0
-1 -2 6 244.13 17.08 0
-1 1 -6 75.1 14.69 0
-1 2 13 106.52 14.93 0
-1 3 -7 182.72 9.4 0
-1 4 -7 1740.66 15.82 0
-1 5 -7 147.57 11.82 0
-1 8 -4 423.5 13.9 0
-1 9 -2 257.32 14.3 0
0 1 8 529.46 19.21 0
0 3 -4 296.46 12.47 0
0 4 -4 725.77 13.5 0
0 5 -4 2.04 11.89 0
0 6 -3 53.5 12.83 0
0 8 2 436.31 17.4 0
0 8 3 -3.15 15.12 0
0 8 4 683.46 19.85 0
-10 -8 3 -1.48 16.95 0
-10 -8 4 80.87 17.92 0
-10 -8 7 2.95 15.11 0
-10 -8 8 96.09 16.94 0
-9 -7 12 14.43 15.49 0
-8 -7 10 0.28 13.68 0
-8 -5 17 215.9 16.03 0
-8 -3 -11 5.68 17.54 0
-8 -1 -13 110.19 16.54 0
-7 -7 2 86.96 14.55 0
-7 -7 3 102.46 14.27 0
-7 -7 4 10.86 14.67 0
-7 -7 5 12.29 12.24 0
-7 -7 6 -1.11 13.18 0
-7 -7 7 21.27 13.33 0
-7 -3 19 -6.66 15.43 0
-6 -6 10 64.89 14.21 0
-6 -5 14 5.53 10.76 0
-6 -4 16 25.92 14.32 0
-6 -3 18 -3.19 11.74 0
-6 -2 19 33.12 17.82 0
-6 -1 20 48.64 16.49 0
-6 4 -14 65.42 13.42 0
-6 7 -13 17.78 14.43 0
-5 -6 3 6.68 12.01 0
-5 -6 4 8.23 12.57 0
-5 -6 5 9.73 12.03 0
-5 -4 14 283.12 14.62 0
-5 -3 16 493.12 15.76 0
-5 -1 -11 349.14 14.6 0
-5 3 -13 57.87 12.71 0
-5 4 -13 17.99 10.36 0
-5 5 -13 180.16 13.13 0
-4 -5 0 526.64 19.86 0
-4 -5 8 467.37 12.34 0
-4 -4 12 602.57 12.11 0
-4 -3 14 12.71 13.42 0
-4 -2 16 444.16 12.58 0
-4 -1 17 4.08 15.71 0
-4 0 18 342.24 17.05 0
-4 2 -12 408.44 13.21 0
-4 2 19 151.33 17.05 0
-4 3 -12 37.88 8.99 0
-4 5 -12 232.28 13 0
-4 10 -8 -7.26 11.84 0
-3 -4 8 22.33 13.01 0
-3 -1 15 -1.13 14.87 0
-3 0 16 6.62 15.56 0
-3 3 -11 9.09 11.74 0
-3 4 -11 195.54 12.72 0
-3 5 -11 20.37 12.02 0
-3 7 -10 45.88 12.11 0
-3 8 -9 463.08 11.78 0
-3 9 -8 270.48 15.13 0
-3 11 -4 1.28 14.19 0
-2 -3 -1 905.82 29.48 0
-2 2 -9 4.93 8.51 0
-2 6 -9 73.22 11.98 0
-2 9 -6 9.18 13.65 0
-2 10 -4 675.92 16.71 0
-2 11 0 10.52 15.69 0
-2 11 7 7 20.57 0
-1 -2 1 482.33 22.43 0
-1 -2 5 376.04 19.07 0
-1 -1 9 474.67 12.38 0
-1 0 -5 151.61 13.08 0
-1 1 12 1537.56 20.44 0
-1 2 -7 1639.2 19.21 0
-1 3 13 10.3 13.98 0
-1 5 13 62.96 16.96 0
-1 6 -7 371.79 12.96 0
-1 7 -6 1.48 12.49 0
-1 8 -5 22.96 11.71 0
-1 9 -3 109.36 12.41 0
-1 10 2 38.62 15.5 0
-1 10 3 591.11 19.2 0
-1 10 4 310.43 17.99 0
0 2 9 1.89 14.38 0
0 7 -2 7.47 8.86 0
0 8 1 0.01 13.15 0
-10 -8 5 42.67 15.14 0
-10 -8 6 2.92 14.86 0
-10 -7 -3 32.68 22.6 0
-9 -7 -2 283.52 21.73 0
-9 -6 15 266.55 18.37 0
-8 -7 9 8 15.35 0
-8 -6 14 38.41 12.27 0
-8 0 -14 -1.12 15.89 0
-8 2 -15 70.01 17.33 0
-7 -6 12 11.5 14.08 0
-7 -5 15 226.78 14.74 0
-7 -4 17 45.75 15.33 0
-7 1 -14 211.4 14.35 0
-6 -6 9 36.45 14.64 0
-6 -5 13 181.05 14.79 0
-6 -2 -11 19.3 13.71 0
-6 -1 -12 7.53 13.81 0
-6 2 -14 84.27 13.71 0
-6 3 -14 -3.97 10.4 0
-6 5 -14 22.52 11.53 0
-6 6 -14 276.63 16.69 0
-5 -5 11 93.28 10 0
-5 -2 -10 45.96 13.39 0
-5 -2 17 34.76 15.18 0
-5 0 -12 3.68 12.77 0
-5 1 20 16.82 13.46 0
-5 2 -13 120.25 10.19 0
-5 6 -13 1666.92 15.89 0
-5 8 -12 -0.57 13.46 0
-4 -5 6 493.38 14.98 0
-4 -5 7 34.78 10.58 0
-4 -4 11 81.37 12.65 0
-4 -3 -7 762.79 22.73 0
-4 -1 -10 84.4 12.44 0
-4 0 -11 1.42 12.49 0
-4 3 19 18.03 16.44 0
-4 5 19 102.15 21.58 0
-4 6 -12 6.79 9.47 0
-4 8 -11 656.04 15.89 0
-4 9 -10 53.76 15.35 0
-4 10 -9 64.81 14.78 0
-3 -4 -1 132.19 18.81 0
-3 -4 7 229.9 13.71 0
-3 -3 11 50.65 13.08 0
-3 -2 -7 65.23 14.29 0
-3 -2 13 19.51 12.5 0
-3 2 -11 746.79 15.29 0
-3 2 17 388.35 18.12 0
-3 6 -11 180.94 12.91 0
-3 6 17 27.01 18.97 0
-3 10 -7 8.58 14.8 0
-3 11 -5 60.26 16.29 0
-2 -3 7 1519.58 17.03 0
-2 -2 10 125.86 13.43 0
-2 -1 12 1210.08 18.41 0
-2 2 15 415.4 16.49 0
-2 4 -10 561.35 13.18 0
-2 6 15 -5.78 17.8 0
-2 7 -9 16.17 11.53 0
-2 8 -8 67.66 13.07 0
-2 11 -1 89.57 14.39 0
-1 -2 2 728.36 24.95 0
-1 -2 3 5940.67 42.98 0
-1 -2 4 265.85 14.96 0
-1 4 -8 22.56 11.35 0
-1 4 13 20.52 14.2 0
-1 10 0 35.27 13.7 0
-1 10 1 601.89 17.11 0
-1 10 5 103.67 18.22 0
0 2 -4 897.8 17.73 0
0 4 -5 214.74 13.44 0
0 5 -5 213.44 12.39 0
0 6 -4 528.35 11.76 0
0 7 -3 521.46 14.83 0
0 8 0 16.29 12.29 0
0 8 5 30.94 16.96 0
-11 -8 3 13.45 18.11 0
-10 -7 12 6.12 16.39 0
-9 -7 11 45.25 12.16 0
-9 -2 -13 87.22 18.67 0
-8 -7 0 376.22 16.78 0
-8 -7 8 92.33 15.33 0
-8 -6 13 39.79 16.66 0
-8 -5 16 62.16 12.09 0
-8 -4 18 243.98 13.59 0
-7 -6 11 91.97 15.02 0
-7 -4 -9 18.81 19.3 0
-7 -2 -12 90.79 16.38 0
-7 -1 -13 401.18 16.31 0
-7 3 -15 3.1 15.96 0
-7 4 -15 39.51 12.84 0
-6 -6 -1 131.31 16.99 0
-6 -6 8 663.95 16.34 0
-6 -4 -8 167.28 22.17 0
-6 -4 15 75.97 14.62 0
-6 -3 17 442.68 12.87 0
-6 0 -13 4.89 12.63 0
-5 -5 10 61.8 13.63 0
-5 -4 13 49.04 13.35 0
-5 -3 15 -0.84 13.34 0
-5 -1 18 -18.28 15.3 0
-5 0 19 966.32 16.08 0
-5 1 -13 100.81 13.33 0
-5 7 -13 16.35 13.02 0
-4 -5 1 81.99 15.24 0
-4 -5 5 843.14 17.57 0
-4 -3 13 510.11 15.44 0
-4 -2 15 20.03 13.43 0
-4 1 -12 764 15.32 0
-4 1 18 415.57 18.52 0
-4 4 -13 23.44 13.04 0
-4 4 19 4.28 19.42 0
-4 7 -12 205.82 10.73 0
-3 -4 6 614.83 15.13 0
-3 -3 -5 158.81 27.37 0
-3 3 17 5.92 14.97 0
-3 7 -11 10.24 12.4 0
-3 8 -10 29.97 12.22 0
-3 9 -9 54.78 13.5 0
-3 11 -6 4.07 14.04 0
-2 -3 6 96.55 10.57 0
-2 0 -8 77.83 14.42 0
-2 0 13 1.32 14.45 0
-2 1 -9 283.62 13.71 0
-2 3 -10 -6.07 8.26 0
-2 3 15 1795.2 23.26 0
-2 5 -10 5.58 8.26 0
-2 5 15 78.67 18.88 0
-2 6 -10 513.65 12.93 0
-2 9 -7 486.97 14.03 0
-2 10 -5 200.31 11.49 0
-2 11 -2 10.68 13.87 0
-1 -1 8 252.59 11.97 0
-1 2 12 146.57 14.4 0
-1 3 -8 426.27 10.64 0
-1 5 -8 459.1 10.67 0
-1 6 -8 -5.03 10.8 0
-1 7 -7 221.51 12.28 0
-1 8 -6 40.46 13.28 0
-1 9 -4 49.17 12.14 0
-1 10 -1 150.92 14.03 0
-1 10 6 47.28 19.1 0
0 1 -3 93.63 16.67 0
0 1 7 1035.02 21.9 0
0 3 -5 39.93 10.01 0
0 3 9 44.4 16.01 0
0 8 -1 0.27 11.72 0
-10 -5 -9 64.51 31.61 0
-9 -7 10 30.4 14.49 0
-9 -6 14 1.38 15.82 0
-9 -3 -12 522 22.98 0
-8 -7 1 33.88 15.13 0
-8 -7 6 107.87 13.59 0
-8 -7 7 213.73 15.67 0
-8 1 -15 419.56 16.73 0
-7 -6 10 0.05 13.36 0
-7 -5 14 -1.04 10.67 0
-7 -4 16 -5.87 15.1 0
-7 -3 18 287.27 13.04 0
-7 -2 19 300.45 16.98 0
-7 0 -14 -1.29 15.03 0
-7 2 -15 -21.63 14.36 0
-6 -6 7 9.06 13.77 0
-6 -5 12 534.16 12.3 0
-6 -3 -10 23.4 15.7 0
-6 -2 18 763.9 14.81 0
-6 -1 19 3.22 17.07 0
-6 0 20 20.89 13.53 0
-6 1 -14 88.62 14.55 0
-6 4 -15 146.26 14.4 0
-6 5 -15 -3.23 14.86 0
-5 -5 -3 491.74 24.26 0
-5 -5 9 0.58 13.43 0
-5 3 -14 250.66 14.49 0
-5 3 20 -2.51 19.82 0
-5 4 -14 2 10.28 0
-5 5 -14 570.66 13.11 0
-5 6 -14 22.1 15.16 0
-4 -5 2 19.66 13.01 0
-4 -5 3 944.58 17.85 0
-4 -5 4 27.93 9.71 0
-4 -4 10 178.56 13.05 0
-4 -2 -9 883.97 18.61 0
-4 -1 16 81.05 11.76 0
-4 0 17 18.73 14.51 0
-4 3 -13 1.23 9.71 0
-4 5 -13 -6.98 10.1 0
-4 6 -13 13.23 13.34 0
-4 8 -12 22.93 14.33 0
-4 9 -11 62.11 15.27 0
-3 -4 0 119.93 18.84 0
-3 -4 5 449.44 15.41 0
-3 -3 10 325.32 11.53 0
-3 -2 12 5.57 12.58 0
-3 -1 -9 516.58 16.3 0
-3 -1 14 5.66 10.65 0
-3 0 -10 -1.3 8.45 0
-3 0 15 10.2 14.65 0
-3 1 -11 123.57 13.37 0
-3 3 -12 30.28 13.06 0
-3 4 -12 171.63 12.09 0
-3 4 17 27.2 17.41 0
-3 5 -12 41.83 11.97 0
-3 5 17 -5.66 17.69 0
-3 10 -8 -9.06 10.69 0
-2 -3 5 4012.46 29 0
-2 -2 9 57.6 13.53 0
-2 2 -10 2141.63 19.46 0
-2 4 15 480.42 17.9 0
-2 7 14 17.87 21.11 0
-2 8 -9 15.54 13.23 0
-2 10 -6 172.34 15.13 0
-2 11 -3 28.54 14.44 0
-2 11 8 1.61 22 0
-1 1 -7 20.27 13.01 0
-1 1 11 119.39 14.18 0
-1 2 -8 145.38 12.33 0
-1 6 12 35.82 18.38 0
-1 9 -5 168.1 13.55 0
-1 10 -2 386.75 15.96 0
0 2 8 174.85 16.05 0
0 4 -6 1395.16 17.45 0
0 4 9 71.07 18.13 0
0 5 -6 261.28 12.15 0
0 5 9 650.23 26.18 0
0 6 -5 -3.24 8.83 0
0 7 -4 9.3 9.5 0
0 8 -2 401.41 14.22 0
0 8 6 1525.36 33.33 0
-11 -7 -3 16.39 24.05 0
-10 -7 11 73.44 12.23 0
-9 -7 -1 80.23 18.89 0
-9 -7 9 25.83 14.61 0
-9 -6 13 -8.84 15.02 0
-9 -5 16 -18.6 16.61 0
-8 -7 2 59.05 14.65 0
-8 -7 3 35.69 14.45 0
-8 -7 4 266.1 15.34 0
-8 -7 5 234.41 14.68 0
-8 -6 12 835.91 14.69 0
-8 -5 15 38.24 11.72 0
-8 -4 -10 93.34 21.57 0
-8 -4 17 284.71 12.91 0
-8 -2 -13 59.46 17.97 0
-8 -1 -14 27.37 17.56 0
-7 -6 -3 16.29 17.56 0
-7 -5 13 155.66 15.28 0
-7 -3 -11 44.7 16.32 0
-7 -1 20 69.93 13.73 0
-7 1 -15 3.92 14.66 0
-6 -6 0 -4.82 14.37 0
-6 -6 6 557.31 15.62 0
-6 -5 11 14.64 14.44 0
-6 -4 14 26.48 13.79 0
-6 -3 16 12.42 13.49 0
-6 1 20 87.86 16.95 0
-6 3 -15 651.53 16.05 0
-5 -4 12 79.14 13.44 0
-5 -3 -9 114.29 19.24 0
-5 -3 14 650.08 15.33 0
-5 -2 16 60.02 11.46 0
-5 -1 17 23.14 14.99 0
-5 0 18 9.77 14.92 0
-5 1 19 9.01 12.7 0
-5 2 -14 29.6 13.09 0
-5 7 -14 249.92 16.43 0
-4 -4 9 26.83 12.33 0
-4 -3 12 96.61 13.35 0
-4 -2 14 356.22 15.24 0
-4 2 -13 15.23 12.56 0
-4 2 18 99.98 15.58 0
-4 7 -13 132.41 13.83 0
-3 -4 4 322.81 15.28 0
-3 2 -12 -8.17 12.2 0
-3 2 16 162.2 15.16 0
-3 6 -12 -11.84 9.16 0
-3 7 16 299.33 24.06 0
-3 8 -11 84.28 12.88 0
-3 9 -10 55.5 14.18 0
-3 10 -9 136.82 14.94 0
-3 11 -7 -0.54 16.8 0
-2 -3 0 52.73 17.3 0
-2 -3 4 35.05 11.77 0
-2 -1 -7 1292.61 22.09 0
-2 -1 11 25.57 10.03 0
-2 2 14 21.81 14.56 0
-2 4 -11 920.69 14.43 0
-2 5 -11 -2.49 11.7 0
-2 7 -10 87.8 8.96 0
-2 8 13 419.82 28.81 0
-2 9 -8 28.59 10.35 0
-2 10 -7 81.45 13.27 0
-2 11 -4 397.27 15.45 0
-2 12 1 118.64 18.69 0
-2 12 2 95.91 18.77 0
-1 -1 7 1110.44 20.79 0
-1 0 -6 11.42 15.1 0
-1 3 12 390.01 16.07 0
-1 4 -9 235.54 12.35 0
-1 5 -9 11.03 11.3 0
-1 7 -8 77.02 11.7 0
-1 8 -7 292.75 12.71 0
-1 10 -3 921.71 17.88 0
0 2 -5 64.51 12.18 0
0 3 -6 46.9 13.35 0
0 6 -6 295.09 13.14 0
0 7 -5 150.74 13.68 0
0 8 -3 7.22 11.84 0
0 9 1 101.4 14.81 0
0 9 2 92.54 15.64 0
1 4 0 262.86 19.95 0
1 4 1 1142.63 25.37 0
1 4 2 2481.28 39.18 0
1 5 1 607.21 20.74 0
1 5 2 207.38 18.41 0
-10 -7 -2 -1.54 18.57 0
-10 -7 10 68.96 15.54 0
-9 -7 7 223.89 14.68 0
-9 -7 8 13.4 13.95 0
-8 -6 11 23.88 15.5 0
-8 -5 14 9.37 16.06 0
-8 -3 18 -14.02 15.74 0
-8 0 -15 -10.43 17.54 0
-7 -6 9 138.67 11.72 0
-7 -4 15 721.69 16.44 0
-7 -3 17 17.21 11.3 0
-6 -6 1 50.55 14.24 0
-6 -6 2 -4.12 13.13 0
-6 -6 3 102.17 12.88 0
-6 -6 4 2070.17 21.02 0
-6 -6 5 202.36 13.52 0
-6 -2 17 108.58 16.12 0
-6 -1 -13 3.43 13.02 0
-6 0 19 6.49 15.75 0
-6 2 -15 70.14 13.94 0
-5 -5 8 308.58 11.33 0
-5 -1 -12 -1.95 13.73 0
-5 0 -13 1950.85 20.45 0
-5 4 -15 0.24 13.46 0
-5 5 -15 -5.36 14.32 0
-4 -1 15 929.46 18.09 0
-4 0 -12 52.3 13.1 0
-4 0 16 105.99 15.21 0
-4 1 17 2.77 15.39 0
-4 3 18 27.78 17.28 0
-4 4 -14 687.1 16.1 0
-4 4 18 252.55 20.49 0
-4 5 -14 62.89 14.1 0
-4 5 18 110.42 20.68 0
-4 6 18 257.9 21.19 0
-4 8 -13 -12.24 13.51 0
-3 -4 1 11.04 14.96 0
-3 -4 2 31.05 14.7 0
-3 -4 3 125.54 11.48 0
-3 -3 9 6.4 9.3 0
-3 -1 13 1240.52 18.04 0
-3 7 -12 37.46 9.88 0
-2 -3 1 11.27 16.47 0
-2 -3 2 3.84 14.6 0
-2 -3 3 268.01 14.11 0
-2 -2 -5 822.38 28.26 0
-2 -2 8 423.41 15.77 0
-2 0 12 40.13 14.42 0
-2 1 -10 148.63 13.16 0
-2 3 -11 11.33 8.62 0
-2 6 -11 6.01 8.62 0
-2 8 -10 762.87 15.83 0
-2 9 -9 2.91 14.49 0
-2 11 -5 20.58 15.82 0
-2 12 -1 29.55 16.14 0
-2 12 0 3.79 17.23 0
-1 3 -9 16.13 8.14 0
-1 4 12 219.35 18.01 0
-1 5 12 706.45 21.94 0
-1 6 -9 1101.9 12.76 0
-1 9 -6 41.82 10.09 0
-1 10 -4 4.14 14.4 0
-1 10 7 178.86 24.49 0
0 1 -4 356.83 22.01 0
0 1 6 837.02 22.12 0
0 8 -4 663.06 14.95 0
0 9 -1 112.97 15.1 0
0 9 0 -2.36 13.91 0
0 9 3 54.76 15.5 0
1 4 -1 78.23 15.77 0
1 5 -1 56.41 14.6 0
1 5 0 50.59 14.03 0
-10 -7 9 82.28 14.95 0
-10 -6 13 8.5 16.53 0
-9 -7 0 17.11 14.77 0
-9 -7 6 49.03 15.12 0
-9 -6 12 7.8 14.41 0
-9 -5 15 164.89 15.57 0
-9 -4 17 22.4 16.71 0
-8 -6 10 98.42 15.1 0
-8 -4 16 49.5 14.27 0
-8 -3 -12 19.5 18.89 0
-8 -2 19 28.28 18.04 0
-7 -6 8 10.23 14.29 0
-7 -5 12 16.21 15.2 0
-7 -2 18 20.62 12.26 0
-7 -1 19 15.47 17.77 0
-7 0 20 -11.72 16.98 0
-7 2 -16 31.73 17 0
-6 -5 10 14.54 14.62 0
-6 -4 13 65.18 13.34 0
-6 -3 15 177.76 14.32 0
-6 -2 -12 43.68 15.96 0
-6 -1 18 7.05 11.89 0
-6 0 -14 173.65 14.42 0
-6 2 20 70.99 19.74 0
-6 4 -16 496.25 16.9 0
-5 -5 7 1367.64 17.98 0
-5 -4 11 306.4 10.9 0
-5 -2 -11 645.05 18.2 0
-5 -2 15 419.48 15.99 0
-5 1 -14 961.34 17.27 0
-5 3 -15 -8.54 14.17 0
-5 3 19 13.31 16.81 0
-5 6 -15 -2.86 15.05 0
-4 -4 8 895.86 16.42 0
-4 -3 11 85.34 13.51 0
-4 -2 13 14.79 12.7 0
-4 -1 -11 161.34 12.87 0
-4 1 -13 9.21 11.99 0
-4 3 -14 34.7 12.85 0
-4 6 -14 86.41 10.79 0
-4 7 -14 17.58 13.53 0
-3 -3 8 503.72 15.28 0
-3 -2 11 92.94 9.82 0
-3 0 14 2.69 14.07 0
-3 3 -13 59.26 12.93 0
-3 3 16 423.11 17.55 0
-3 4 -13 1036.24 13.16 0
-3 5 -13 1.49 9.35 0
-3 6 -13 31.58 13.5 0
-3 6 16 37.96 20.42 0
-3 8 -12 4.77 14.39 0
-3 8 15 -2.99 22.13 0
-3 9 -11 126.31 12.1 0
-3 10 -10 226.82 16.9 0
-2 -1 10 338.57 14.93 0
-2 0 -9 -3.09 13.35 0
-2 2 -11 173.13 13.33 0
-2 3 14 27.29 15.57 0
-2 6 14 22.5 17.65 0
-2 7 -11 111.33 9.22 0
-2 10 -8 133.1 15.52 0
-2 11 -6 115.7 16.26 0
-1 -1 -4 30.78 18.68 0
-1 -1 6 3.9 17.56 0
-1 1 -8 121.03 13.08 0
-1 1 10 5.31 14.72 0
-1 2 -9 248.15 12.84 0
-1 2 11 339.39 16.55 0
-1 4 -10 751.15 14.07 0
-1 5 -10 227.55 12.35 0
-1 7 -9 475.41 10.71 0
-1 7 11 402.29 27.09 0
-1 8 -8 25.05 9.62 0
-1 9 -7 -0.84 13.99 0
-1 10 -5 -17.45 14.79 0
-1 11 -1 38.39 14.35 0
-1 11 0 20.65 15.64 0
-1 11 1 73 16.06 0
-1 11 2 115.69 16.39 0
-1 11 3 0.22 18.26 0
0 2 -6 483.96 16.86 0
0 4 -7 458.57 10.88 0
0 5 -7 853.82 12.49 0
0 6 -7 378.58 12.62 0
0 7 -6 517.53 11.51 0
0 8 -5 23.68 13.12 0
0 9 -2 87.07 13.83 0
0 9 4 56.68 17.16 0
1 4 -2 21.06 14.61 0
1 5 -2 470.2 17.22 0
1 5 3 900.36 28.07 0
1 6 -1 1041.03 18.78 0
1 6 0 197.7 15.21 0
1 6 1 94.58 13.65 0
1 6 2 0.46 14.84 0
-11 -7 9 94.83 16.42 0
-10 -7 -1 4.17 19.31 0
-10 -7 8 80.15 14.73 0
-9 -7 1 22 15.41 0
-9 -7 2 167.01 15.8 0
-9 -7 3 436.04 16.21 0
-9 -7 4 -4.5 14.24 0
-9 -7 5 340.35 15.62 0
-9 -6 11 165.32 15.38 0
-9 -3 18 230.22 16.19 0
-8 -5 13 140.22 16.14 0
-8 -3 17 -8.66 13.97 0
-7 -6 -2 65.17 17.09 0
-7 -6 7 73.62 13.82 0
-7 -4 14 64.49 14.42 0
-7 -3 16 -1.03 15.28 0
-7 -2 -13 71.9 16.88 0
-7 -1 -14 215.27 16.57 0
-7 0 -15 33.08 15.8 0
-6 -5 -5 591.55 36.46 0
-6 -5 9 369.76 14.61 0
-6 -2 16 76.58 14.19 0
-6 1 -15 7.05 13.7 0
-6 1 19 49.74 15.95 0
-6 3 -16 9.22 16.07 0
-6 3 20 10.29 17.76 0
-5 -5 6 709.92 16.57 0
-5 -3 13 56.07 9.81 0
-5 -1 16 6.65 15.37 0
-5 0 17 107.75 16.71 0
-5 1 18 -7.1 12.52 0
-5 2 -15 34.6 14.91 0
-5 4 19 23.37 18.94 0
-4 2 -14 153.17 13.82 0
-3 -2 -8 30.05 13.47 0
-3 0 -11 526.41 12.01 0
-3 1 -12 6.3 9.41 0
-3 4 16 43.04 16.63 0
-3 5 16 164.99 17.8 0
-3 7 -13 323.27 13.86 0
-3 9 14 2.37 27.76 0
-2 -2 7 741.82 18.11 0
-2 3 -12 144.42 12.14 0
-2 4 -12 19.25 8.88 0
-2 4 14 326.74 17.48 0
-2 5 -12 12.17 8.82 0
-2 5 14 1.02 16.93 0
-2 6 -12 1022.55 15.78 0
-2 8 -11 -0.58 13.38 0
-2 9 -10 15 15.31 0
-2 11 -7 25.12 14.8 0
-1 3 -10 39.56 11.41 0
-1 6 -10 -6.03 8.87 0
-1 8 -9 8.32 13.89 0
-1 10 -6 59.27 13.44 0
-1 11 -2 129.09 16.48 0
-1 11 4 34.83 18.21 0
0 2 7 21.69 18.39 0
0 3 -7 581.84 12 0
0 3 8 98.01 15.17 0
0 5 -8 1119.35 15.48 0
0 7 -7 248.55 13.43 0
0 9 -3 52.75 12.67 0
1 3 0 964.04 25.65 0
1 3 1 101.21 22.89 0
1 4 3 1887.72 46.28 0
1 5 -3 563.7 16.34 0
1 6 -2 0.78 13.55 0
-11 -7 -2 1.84 21.38 0
-11 -7 8 91.77 18.03 0
-10 -7 6 14.97 14.25 0
-10 -7 7 59.31 14.71 0
-10 -6 -6 150.95 31.77 0
-10 -6 12 318.44 16.08 0
-10 -5 15 59.62 13.14 0
-9 -5 14 364.12 14.14 0
-9 -4 -11 62.97 23.46 0
-9 -4 16 3 15.49 0
-8 -6 -4 88.98 22.08 0
-8 -6 9 -7.66 10.72 0
-8 -4 15 40.74 14.39 0
-8 -2 18 177.69 15.92 0
-7 -6 6 0.35 13.22 0
-7 -5 11 88.28 10.88 0
-7 -2 17 105.41 16.41 0
-7 1 -16 55.76 17.74 0
-7 1 20 76.29 18.19 0
-6 -4 12 210.1 13.74 0
-6 -3 14 32.01 13.96 0
-6 -1 17 -7.74 16.33 0
-6 0 18 16.27 16.46 0
-6 2 -16 367.17 17.31 0
-5 -5 -2 28.6 17.04 0
-5 -5 5 170.07 14.69 0
-5 -4 -7 175.91 27.97 0
-5 -4 10 88.53 9.87 0
-5 4 -16 64.97 14.15 0
-5 5 -16 4.13 16.3 0
-4 -4 7 108.99 10.47 0
-4 -3 10 37.38 13.65 0
-4 -2 -10 377.25 15.22 0
-4 -1 14 -1.96 13.82 0
-4 0 15 9.57 15.95 0
-4 1 16 89.5 15.92 0
-4 3 17 165.12 16.1 0
-4 4 -15 -2.21 14.68 0
-4 5 -15 212.38 13.97 0
-4 6 -15 21.84 15.39 0
-4 7 17 22.54 21.78 0
-3 -3 7 315.93 14.87 0
-3 -2 10 123.92 13.41 0
-3 -1 -10 8.81 12.86 0
-3 -1 12 1165.68 15.57 0
-3 2 -13 645.41 12.11 0
-3 2 15 319.18 16.57 0
-3 4 -14 140.41 13.99 0
-3 5 -14 32.18 14.22 0
-3 6 -14 53.32 13.05 0
-3 8 -13 739.15 16.72 0
-3 9 -12 37.31 11.58 0
-2 -1 -8 94.39 14.71 0
-2 0 11 3.28 10.51 0
-2 2 13 970.67 19.05 0
-2 7 -12 17.47 11.96 0
-2 10 -9 6.28 10.86 0
-1 -1 5 741.99 23.12 0
-1 0 -7 2733.69 26.19 0
-1 3 11 18.73 13.43 0
-1 5 -11 139.19 11.87 0
-1 7 -10 370.51 10.83 0
-1 8 10 5.31 29.72 0
-1 9 -8 46.33 10.48 0
-1 11 -4 70.02 14.85 0
-1 11 -3 173.34 15.25 0
0 1 -5 1247.45 23.5 0
0 4 -8 238.64 9.67 0
0 6 -8 906.46 14.66 0
0 8 -6 1437.01 15.19 0
0 9 -4 51.5 9.78 0
0 9 5 82.4 20.26 0
1 3 -1 10.07 17.49 0
1 4 -3 2343.88 22.24 0
1 6 -3 77.13 13.65 0
1 6 3 712.49 22.31 0
1 7 -1 72.89 13.15 0
1 7 0 7.98 12.98 0
1 7 1 262.82 16.47 0
-11 -7 7 37.89 16.57 0
-11 -6 12 4.71 17.51 0
-10 -7 0 161.45 17.57 0
-10 -7 1 61.72 18.83 0
-10 -7 4 56.92 17.15 0
-10 -7 5 50.73 15.6 0
-10 -6 11 -8.27 15.98 0
-10 -5 14 -0.07 15.68 0
-9 -6 10 -6.22 13.9 0
-9 -5 13 89.26 14.94 0
-9 -3 -13 2.52 22.92 0
-8 -6 8 475.28 16.15 0
-8 -5 12 1.43 14.26 0
-8 -2 -14 40.92 19.49 0
-8 -1 -15 455.46 19.55 0
-8 -1 19 86.12 17 0
-7 -6 -1 581 20.04 0
-7 -6 5 957.53 17.12 0
-7 -5 10 47.67 14.34 0
-7 -4 13 129.55 14.38 0
-7 -3 15 23.68 14.57 0
-7 -1 18 8.75 12.46 0
-7 0 19 25.24 12.86 0
-6 -5 8 183.36 14.61 0
-6 -1 -14 86.98 16.49 0
-6 0 -15 5.73 13.68 0
-6 2 19 9.46 15.84 0
-5 -5 4 19.04 13.12 0
-5 -4 9 157.19 13.55 0
-5 -3 12 0.5 12.91 0
-5 -2 14 315.13 11.17 0
-5 -1 -13 108.88 15.01 0
-5 0 -14 2.16 14.07 0
-5 1 -15 28.65 14.64 0
-5 3 -16 69.99 15.9 0
-4 -4 6 16.62 12.75 0
-4 -3 -8 7.89 16.15 0
-4 -2 12 303.5 14.09 0
-4 0 -13 1.93 13 0
-4 1 -14 0.79 13.11 0
-4 3 -15 56.73 13.14 0
-4 4 17 22.84 19.02 0
-4 6 17 47.96 20.97 0
-4 7 -15 64.55 14.48 0
-3 0 13 15.04 10.79 0
-3 3 -14 423.18 14.89 0
-3 7 -14 54.35 14.5 0
-2 -2 6 882.61 20.07 0
-2 -1 9 2634.95 21.28 0
-2 0 -10 24.56 12.94 0
-2 1 -11 7.82 9 0
-2 2 -12 26.34 12.86 0
-2 4 -13 23.85 12.48 0
-2 5 -13 25.02 13.01 0
-2 6 -13 6.23 12.42 0
-2 8 -12 42.27 14.23 0
-2 9 -11 -0.51 13.89 0
-2 10 -10 475.22 17.63 0
-1 1 -9 1365.79 17.9 0
-1 1 9 479.1 18.66 0
-1 2 -10 1118.88 16.06 0
-1 4 -11 470.71 10.53 0
-1 6 -11 7.24 11.54 0
-1 8 -10 543.07 15.16 0
-1 9 -9 135.66 14.7 0
-1 10 -7 205.67 11.74 0
-1 11 -5 28.23 14.76 0
-1 11 5 122.05 20.93 0
0 1 5 1269.43 28.31 0
0 2 -7 23.68 13.16 0
0 3 -8 84.54 11.8 0
0 5 -9 636.37 13.59 0
0 7 -8 467.46 14.88 0
0 8 -7 7.93 13.84 0
0 9 -5 90.17 9.93 0
0 10 -2 215.47 13.99 0
0 10 -1 0.08 14.47 0
0 10 0 22.09 14.7 0
0 10 1 6.63 14.47 0
1 3 -2 217.26 14.35 0
1 4 -4 502.06 16.14 0
1 5 -4 197.48 10.67 0
1 6 -4 46.1 13.59 0
1 7 -3 115.89 12.91 0
1 7 -2 44.86 12.54 0
1 7 2 115.99 16.56 0
-11 -7 -1 -0.73 20.82 0
-11 -7 6 67 16.83 0
-10 -7 2 210.6 16.85 0
-10 -7 3 9.85 16.03 0
-10 -4 16 36.31 15.04 0
-9 -6 -5 123.08 25.45 0
-9 -6 9 759.12 17.51 0
-9 -4 15 47.54 15.14 0
-9 -3 17 22.06 12.18 0
-8 -6 7 -1.68 13.67 0
-8 -4 14 452.79 14.77 0
-8 -3 16 21.41 11.28 0
-7 -6 0 45.4 16.48 0
-7 -6 2 17.43 15.8 0
-7 -6 3 150.78 14.42 0
-7 -6 4 4.65 12.17 0
-7 -3 -12 46.74 17.43 0
-7 2 20 -3.53 17.59 0
-6 -5 7 15.26 13.36 0
-6 -4 11 527.42 12.09 0
-6 -3 -11 1387.25 24.86 0
-6 -3 13 55.77 12.89 0
-6 -2 15 -28.58 13.86 0
-6 1 -16 449.4 18.06 0
-5 -5 -1 799.7 19.96 0
-5 -5 2 1665.04 21.75 0
-5 -5 3 901.85 17.5 0
-5 -1 15 319.05 12.35 0
-5 0 16 -4.18 15.96 0
-5 1 17 27.93 11.25 0
-5 2 -16 -0.68 13.84 0
-5 3 18 189.55 18.31 0
-4 -4 -4 1505.95 47.86 0
-4 -3 9 4356.98 25.92 0
-4 -1 -12 770.13 16.85 0
-4 2 -15 33.72 13.15 0
-4 5 -16 7.6 14.43 0
-4 5 17 5.96 18.2 0
-3 -3 6 535.42 16.78 0
-3 -2 9 195 14.6 0
-3 -1 11 262.25 14.42 0
-3 0 -12 2.03 12.85 0
-3 1 -13 28.37 12.99 0
-3 3 15 30.54 16 0
-3 7 15 12.53 20.48 0
-3 8 -14 49.56 15.8 0
-2 3 -13 456.84 14.89 0
-2 3 13 394.5 17.02 0
-2 7 -13 23.39 13.67 0
-2 7 13 432.1 24.45 0
-1 2 10 56 14.07 0
-1 3 -11 9.77 8.5 0
-1 4 11 74.35 16.79 0
-1 6 11 15.18 19.08 0
-1 7 -11 35.51 9.78 0
-1 10 -8 96.59 15.02 0
-1 11 -6 14.85 14.62 0
0 4 -9 69.27 11.59 0
0 4 8 239.39 19.24 0
0 6 -9 0.65 8.16 0
0 6 8 937.14 39.1 0
0 8 -8 13.49 13.8 0
0 8 7 10.33 32.4 0
0 9 -6 2.58 12.44 0
0 10 -3 71.03 15.05 0
0 10 2 219.41 15.93 0
1 3 -3 60.05 13.2 0
1 3 2 3233.45 61.12 0
1 4 -5 64.9 13.17 0
1 5 -5 359.17 12.78 0
1 6 -5 1104.41 17.12 0
1 7 -4 19.97 13.56 0
-11 -7 0 153.32 18.42 0
-11 -7 1 -2.27 17.76 0
-11 -7 2 30.68 19.74 0
-11 -7 3 157.48 18.72 0
-11 -7 4 36 17.26 0
-11 -7 5 -2.59 15.32 0
-11 -6 11 197.61 16.08 0
-10 -6 10 7.49 14.56 0
-10 -5 13 5.47 16.52 0
-9 -6 8 131.12 13.63 0
-9 -5 12 1.63 15.39 0
-9 -2 18 -6.03 11.84 0
-8 -6 6 156.55 13.93 0
-8 -5 11 6.59 10.4 0
-8 -2 17 187.74 14.69 0
-8 -1 18 1.09 15.85 0
-8 0 19 5.08 16.31 0
-7 -6 1 17.15 13.61 0
-7 -5 9 184.66 15.56 0
-7 -4 -10 209.48 22.72 0
-7 -4 12 -0.97 14.11 0
-7 -3 14 460.58 14.58 0
-7 -2 16 1.43 10.73 0
-7 -1 -15 2.96 16.37 0
-7 -1 17 185.11 15.51 0
-7 0 -16 -1.75 17.81 0
-7 0 18 -1.26 15.33 0
-7 1 19 10.41 17.44 0
-6 -2 -13 60.26 17.86 0
-6 -1 16 454.04 15.51 0
-6 0 17 -26.56 16.26 0
-6 1 18 12.72 11.99 0
-6 2 -17 -20.61 15.85 0
-6 3 19 18.75 16.2 0
-5 -5 0 21.19 14.12 0
-5 -5 1 100.72 14.85 0
-5 -4 8 -0.37 13.55 0
-5 -3 -10 154.2 18.43 0
-5 -3 11 -10.48 13.36 0
-5 -2 -12 -5.76 16.14 0
-5 -2 13 19.83 13.81 0
-5 4 -17 68.69 17.53 0
-5 4 18 155.52 18.44 0
-5 5 18 27.95 19.74 0
-5 6 18 20.31 21.51 0
-4 -4 5 492.71 12.75 0
-4 -2 11 26.69 13.65 0
-4 -1 13 67.24 10.44 0
-4 0 14 27.15 15 0
-4 1 15 870.15 18.84 0
-4 4 -16 362.58 14.93 0
-4 6 -16 125.42 13.17 0
-3 2 -14 102.71 10.55 0
-3 2 14 71.44 14.68 0
-3 4 -15 45.78 14.07 0
-3 4 15 16.83 16.44 0
-3 5 -15 109.17 11.01 0
-3 6 -15 1.2 10.64 0
-3 6 15 265.3 21.77 0
-3 7 -15 64.17 14.93 0
-2 -1 8 938.26 19.14 0
-2 0 10 728.11 16.85 0
-2 5 -14 170.76 12.8 0
-2 6 -14 814.74 15.27 0
-2 8 -13 5.61 14.69 0
-2 9 -12 22.59 11.99 0
-1 -1 -5 1008.59 24.99 0
-1 -1 4 979.8 27.07 0
-1 0 -8 -3.82 14.32 0
-1 4 -12 83.76 11.95 0
-1 5 -12 3.64 9.14 0
-1 5 11 580.26 21.84 0
-1 6 -12 -5.57 11.86 0
-1 8 -11 78.09 13.01 0
-1 9 -10 27.45 14.04 0
-1 10 -9 384.16 15.61 0
-1 10 8 13.17 34.5 0
-1 11 -7 -6.31 14.69 0
-1 12 -2 12.03 18.12 0
-1 12 -1 86.43 18.04 0
-1 12 0 17.75 17.95 0
-1 12 1 42.8 20.44 0
0 1 -6 815.33 17.05 0
0 2 -8 193.04 13.5 0
0 3 -9 51.93 12.03 0
0 5 -10 45.3 11.51 0
0 7 -9 424.68 10.82 0
0 9 -7 151.44 13.88 0
0 10 -5 16 13.55 0
0 10 -4 -0.52 10.95 0
0 10 3 70.79 14.73 0
1 3 -4 1.9 15.61 0
1 5 -6 74.93 12.31 0
1 5 4 55.15 23.94 0
1 6 -6 24.08 13.11 0
1 7 -5 19.81 13.69 0
1 7 3 1255.12 25.92 0
1 8 -3 636.94 15.39 0
1 8 -2 214.41 14.03 0
1 8 -1 27.48 13.01 0
1 8 0 56.14 14.21 0
1 8 1 1276.69 22.29 0
-11 -6 10 16.17 16.34 0
-10 -6 9 2.54 14.92 0
-10 -4 15 -5.06 14.8 0
-10 -3 17 434.99 14.03 0
-9 -4 14 309.29 16.19 0
-9 -3 16 48.55 13.73 0
-8 -6 -3 59.99 18.89 0
-8 -6 5 99.17 13.49 0
-8 -5 10 353.8 15.88 0
-8 -4 -11 2.51 21.71 0
-8 -4 13 94.91 13.93 0
-8 -3 -13 -1.2 20.24 0
-8 -3 15 6.44 12.74 0
-7 -2 -14 -4.39 17.02 0
-6 -5 6 92.72 14.65 0
-6 -4 -9 437.75 26.76 0
-6 -4 10 10.04 9.73 0
-6 -2 14 59.85 13.48 0
-6 4 19 107.65 18.36 0
-5 -1 14 268.12 14.53 0
-5 0 -15 49.1 14.19 0
-5 3 -17 10.21 16.11 0
-4 -4 4 138.89 14.58 0
-4 0 -14 529.7 15.21 0
-4 1 -15 61.45 13.84 0
-4 3 -16 3.83 10.68 0
-4 3 16 -4.33 17.09 0
-3 -3 5 5.42 15.2 0
-3 -2 -9 889.02 19.49 0
-3 -1 -11 126.03 13.38 0
-3 0 12 0.26 13.88 0
-3 3 -15 25.22 13.3 0
-3 5 15 49.55 16.81 0
-2 -2 -6 563.34 21.03 0
-2 -2 5 547.59 16.18 0
-2 -1 -9 282.14 15.59 0
-2 1 -12 152.02 13.4 0
-2 2 -13 -13.02 12.68 0
-2 2 12 4.1 10.31 0
-2 4 -14 19.06 9.82 0
-2 4 13 786.55 19.05 0
-2 5 13 500.49 20.61 0
-2 6 13 -3.32 17.68 0
-2 7 -14 -7.67 13.71 0
-2 9 -13 95.53 15.47 0
-1 1 -10 162.05 13.52 0
-1 2 -11 97.83 9.46 0
-1 3 -12 1846.71 17.65 0
-1 7 -12 21.45 9.42 0
-1 9 -11 43.32 14.2 0
-1 11 6 76.98 23.58 0
-1 12 2 15.59 18.74 0
0 0 -2 6.2 17.59 0
0 4 -10 464.73 13.21 0
0 5 8 1178.28 31.97 0
0 6 -10 762.83 12 0
0 7 -10 101.26 13.03 0
0 8 -9 -0.75 12.49 0
0 9 -8 75 14.41 0
0 10 -6 150.09 16.14 0
1 3 -5 816.13 18.67 0
1 4 -6 32.67 12.13 0
1 6 4 34.7 20.04 0
1 7 -6 84.14 13.65 0
1 8 -4 13.71 12.92 0
-11 -6 -6 30.47 28.97 0
-11 -5 13 86.62 12.93 0
-10 -6 8 61.61 14.97 0
-10 -5 12 15.25 16.45 0
-9 -6 7 798.87 16.63 0
-9 -5 11 131.15 15.28 0
-9 -2 17 19.18 15.87 0
-8 -6 4 79.08 13.88 0
-8 -2 16 6.79 13.55 0
-7 -5 8 94.53 10.6 0
-7 -4 11 768.03 16.64 0
-7 -2 15 465.65 15.56 0
-7 2 19 312.54 17.54 0
-6 -5 5 687.19 17.38 0
-6 -3 12 6.36 9.41 0
-6 0 -16 2.73 16.26 0
-6 2 18 776.55 16.01 0
-5 -4 7 73.41 13.82 0
-5 -3 10 201.69 14 0
-5 -1 -14 936.95 18.37 0
-5 0 15 744.68 17.68 0
-5 1 -16 12.47 13.93 0
-5 1 16 6.52 14.73 0
-4 -4 3 1136.56 19.09 0
-4 -3 8 342.05 11.48 0
-4 -2 -11 1588.55 22.11 0
-4 -1 12 19.88 13.72 0
-4 2 -16 274.06 15.93 0
-4 4 -17 34.7 14.14 0
-4 4 16 767.36 20.81 0
-4 5 -17 33.4 16.99 0
-4 7 16 51.72 21.93 0
-3 -2 8 69.09 13.49 0
-3 -1 10 1764.67 20.25 0
-3 0 -13 136.45 12.91 0
-3 1 -14 18.7 13.12 0
-3 2 -15 42.22 12.9 0
-3 4 -16 70.36 14.49 0
-3 5 -16 -6.18 15.72 0
-3 6 -16 45.9 16.4 0
-3 8 14 6.51 22.58 0
-2 0 -11 7.81 11.66 0
-2 3 -14 79.21 12.83 0
-2 8 -14 -12.69 14.86 0
-1 3 10 2295.12 26.8 0
-1 4 -13 779.54 14.56 0
-1 5 -13 12.39 11.7 0
-1 6 -13 69.49 12.61 0
-1 7 -13 26.28 12.29 0
-1 8 -12 -1.3 10.86 0
-1 10 -10 103.84 14.71 0
-1 11 -8 238.63 13.75 0
0 0 -3 2.93 24.09 0
0 1 -7 1045.85 19.55 0
0 2 -9 -1.68 11.41 0
0 2 6 495.27 22.05 0
0 3 -10 11.98 11.63 0
0 3 7 615.04 23.82 0
0 5 -11 -2.68 12.66 0
0 6 -11 104.18 12.89 0
0 8 -10 136.49 14.31 0
0 9 -9 2.72 13.33 0
0 9 6 9.25 22.42 0
0 10 -7 64.92 15.72 0
0 10 4 10.82 17.74 0
0 11 -3 8.64 14.86 0
0 11 -2 82.54 16.67 0
0 11 -1 83.2 16.85 0
0 11 0 6.12 16.75 0
1 4 -7 342.9 13.78 0
1 5 -7 440.02 11.03 0
1 6 -7 373.73 11.33 0
1 7 -7 392.57 14.27 0
1 8 -5 17.33 12.15 0
1 8 2 1094.94 21.12 0
-11 -6 9 94.42 12.38 0
-11 -5 12 6.04 14.86 0
-10 -4 14 7.78 16.3 0
-10 -3 16 14.22 14.72 0
-9 -6 6 2.85 15.41 0
-9 -4 13 -5.44 14.44 0
-9 -3 15 -9.92 15.07 0
-9 -1 18 28.18 16.06 0
-8 -6 -2 241.25 19.06 0
-8 -6 3 18.48 14.95 0
-8 -5 9 16.24 15.11 0
-8 -4 12 132.71 14.49 0
-8 -3 14 27.3 14.32 0
-8 -2 -15 86.43 19.79 0
-8 -1 17 420.07 17.73 0
-8 0 18 211.83 17.92 0
-8 1 19 118.36 16.65 0
-7 -5 7 51.75 14.23 0
-7 -3 13 42.91 10.05 0
-7 -1 16 9.6 16.08 0
-7 0 17 91.08 14.97 0
-7 1 18 35.9 15.68 0
-6 -5 4 1139.22 17.94 0
-6 -4 9 387.88 11.63 0
-6 -1 -15 -2.58 16.08 0
-6 -1 15 43.34 10.48 0
-6 0 16 149.42 15.5 0
-6 1 -17 17.84 16.09 0
-6 1 17 -10.59 12.03 0
-5 -2 12 13.33 9.57 0
-5 2 -17 334.99 13.39 0
-5 3 17 47.12 15.86 0
-4 -2 10 99.72 13.19 0
-4 -1 -13 -6.34 14.22 0
-4 0 13 0.32 13.94 0
-4 3 -17 115.28 14.97 0
-4 5 16 101.13 16.73 0
-4 6 16 341.84 20.8 0
-3 -3 -6 1420.4 38.13 0
-3 -3 4 536.5 18.43 0
-3 3 14 46.92 16.24 0
-2 -2 4 71.53 19.76 0
-2 -1 7 340.98 18.37 0
-2 0 9 12.48 14.27 0
-2 3 12 20.32 13.79 0
-2 4 -15 83.09 14.62 0
-2 5 -15 221.86 11.57 0
-2 6 -15 6.8 10.34 0
-2 7 -15 341.37 15.97 0
-2 8 12 62.65 25.33 0
-1 -1 -6 63.34 16.76 0
-1 -1 3 0.14 25.37 0
-1 0 -9 1090.42 18.99 0
-1 2 -12 7.2 12.6 0
-1 2 9 134.09 16.88 0
-1 8 -13 595.35 15.27 0
-1 9 -12 469.29 17.51 0
-1 10 -11 14.61 16.21 0
0 1 4 378.56 25.39 0
0 4 -11 122.24 11.68 0
0 7 -11 16.21 12.02 0
0 10 -8 1.27 13.93 0
0 11 -5 10.77 15.02 0
0 11 -4 12.94 16.52 0
0 11 1 87.73 16.49 0
1 2 -3 5814.85 43.28 0
1 2 -2 703.68 25.99 0
1 2 -1 472.32 26.32 0
1 3 -6 4697.15 27.31 0
1 5 -8 36.05 12.04 0
1 6 -8 11.31 11.85 0
1 8 -6 25.86 10.17 0
1 9 -4 84.57 14.16 0
1 9 -3 -2.32 13.9 0
1 9 -2 8.67 13.17 0
1 9 -1 -5.38 14.08 0
1 9 0 112.65 15.05 0
-12 -6 9 6.87 15.77 0
-11 -6 8 31.85 16.08 0
-11 -4 14 -13 15.47 0
-10 -6 7 8.1 13.9 0
-10 -5 11 84.02 14.53 0
-10 -2 17 9.59 15.72 0
-9 -6 -4 -6.84 21.77 0
-9 -6 5 793.3 17.62 0
-9 -5 10 23.62 11.1 0
-9 -4 -12 32.41 26.82 0
-8 -6 -1 5.36 14.19 0
-8 -6 0 83.53 15.18 0
-8 -6 1 134.5 15.43 0
-8 -6 2 268.72 15.18 0
-7 -4 10 17.06 14.25 0
-7 -1 -16 61.72 18.2 0
-6 -5 -4 681.62 28.26 0
-6 -3 -12 34.54 17.13 0
-6 -3 11 461.59 15.52 0
-6 -2 13 -7.05 13.67 0
-6 4 18 204.48 20.27 0
-5 -4 6 1797.06 20.94 0
-5 -2 -13 134.11 17.55 0
-5 -1 13 750.82 16.07 0
-5 4 17 328.56 19.4 0
-4 -4 2 122.28 16.1 0
-4 -3 -9 375.21 20.01 0
-4 -3 7 913.13 17.4 0
-4 1 14 20.52 11.04 0
-3 -1 -12 19.55 12.56 0
-3 0 11 1131.93 19.21 0
-3 2 13 2.41 14.77 0
-3 3 -16 130.24 11.14 0
-3 4 14 199.9 19.07 0
-3 5 -17 143.2 15.95 0
-2 1 -13 54.07 10.48 0
-2 2 -14 223.17 10.79 0
-2 3 -15 174.41 14.28 0
-1 1 -11 57.73 12.49 0
-1 3 -13 6.73 10.05 0
-1 5 -14 20.99 13.1 0
-1 6 -14 35.96 12.64 0
-1 7 -14 4.59 14.13 0
0 0 -4 2848.07 37.46 0
0 1 -8 518.49 15.9 0
0 3 -11 78.14 12.05 0
0 5 -12 466.35 13.47 0
0 6 -12 436.96 13.77 0
0 8 -11 27.12 12.83 0
0 9 -10 19.94 13.75 0
0 10 -9 1.72 14.31 0
0 11 -6 8.14 16.57 0
0 11 2 73.44 19.6 0
1 2 -4 273.76 20.59 0
1 3 -7 33.21 13.04 0
1 4 -8 549.13 11.44 0
1 5 -9 192.31 12.21 0
1 6 -9 789.64 14.36 0
1 7 -8 189.34 10.54 0
1 7 4 28.5 19.81 0
1 8 -7 12.87 10.27 0
1 8 3 570.74 21.74 0
1 9 -6 1688.13 18.62 0
1 9 -5 114.4 13.35 0
1 9 1 25.67 13.88 0
-12 -6 8 272 18.33 0
-11 -6 7 24.75 15.92 0
-11 -5 11 37.28 16.01 0
-10 -6 -5 4.47 23.41 0
-10 -6 6 149.18 15.61 0
-10 -5 10 10.22 13.88 0
-10 -4 13 95.3 16.35 0
-10 -3 15 138.72 15.7 0
-9 -6 4 35.88 14.29 0
-9 -5 9 26.08 14.75 0
-9 -4 12 -7.5 15.37 0
-9 -3 14 34.52 13.82 0
-9 -2 16 16.12 11.03 0
-9 -1 17 150.63 14.9 0
-8 -5 8 235.45 11.99 0
-8 -4 11 52.71 14.58 0
-8 -2 15 -10.97 13.26 0
-8 2 19 44.99 16.5 0
-7 -5 6 187.88 14.65 0
-7 -3 -13 -0.44 18.77 0
-7 -3 12 190.06 14.63 0
-7 -2 14 42.15 9.97 0
-7 2 18 20.33 17.14 0
-6 -5 3 1309.11 18.61 0
-6 -4 8 254.67 11.65 0
-6 -2 -14 85.77 16.29 0
-6 -1 14 32.55 14.01 0
-6 2 17 111.46 17.38 0
-6 5 18 1.34 17.68 0
-5 -3 -11 119.97 16.98 0
-5 -3 9 86.52 10.14 0
-5 -2 11 6.37 13.54 0
-5 0 -16 -6.4 15.59 0
-5 0 14 3.9 15.35 0
-5 1 -17 0.93 16.56 0
-5 1 15 319.31 17.23 0
-5 5 17 8.8 18.3 0
-5 6 17 12.52 20.26 0
-4 -4 -3 224.04 24.26 0
-4 -4 1 855.4 20.92 0
-4 -1 11 641.72 16.01 0
-4 0 -15 -0.61 14.52 0
-4 1 -16 343.62 12.34 0
-4 2 -17 3.73 16.32 0
-4 3 15 6.65 16.42 0
-3 -3 3 -2.76 15.73 0
-3 -2 -10 298.26 17.62 0
-3 -2 7 333.36 12.83 0
-3 -1 9 97.22 14.42 0
-3 1 -15 123.26 14.49 0
-3 2 -16 296.15 14.31 0
-3 4 -17 191.01 16.1 0
-3 7 14 0.17 21.56 0
-2 -2 -7 36.69 18.68 0
-2 -1 -10 155.4 14.57 0
-2 0 -12 2299.47 21.22 0
-2 2 11 4.78 14.01 0
-2 5 -16 252.28 15.91 0
-2 6 -16 1042.95 17.02 0
-2 7 -16 6.13 15.39 0
-1 4 -14 165.94 10.06 0
-1 4 10 330.42 17.4 0
-1 8 -14 482.45 16.58 0
-1 9 -13 133.99 12.81 0
0 2 -10 176.65 9.47 0
0 4 -12 992.9 14.81 0
0 7 -12 8.81 9.91 0
0 8 -12 271.63 14.89 0
0 9 -11 202.02 16.29 0
0 10 5 6.49 20.72 0
0 11 -7 275.71 17.33 0
1 2 -5 350.35 18.57 0
1 4 -9 7.88 11.78 0
1 7 -9 6.1 12.56 0
1 8 -8 230.67 11.18 0
1 9 -7 -6.28 14.06 0
-12 -6 7 25.35 16.74 0
-12 -5 11 154.39 18.02 0
-11 -6 6 43.1 14.73 0
-11 -4 13 21.46 15.39 0
-11 -3 15 20.22 14.49 0
-10 -6 5 7.25 15.21 0
-10 -2 16 25.72 14.74 0
-9 -6 -3 270.25 20.37 0
-9 -6 3 15.89 14.57 0
-9 0 18 -8.61 13.5 0
-8 -5 7 213.16 15.33 0
-8 -3 13 72.06 9.81 0
-8 -1 16 425.03 15.05 0
-8 0 17 -14.79 16.95 0
-8 1 18 15.19 15.2 0
-7 -5 5 117.67 14.29 0
-7 -4 9 1493.86 19.23 0
-7 -2 -15 -2.75 16.73 0
-7 -1 15 239.27 14.4 0
-7 0 16 16.96 15.46 0
-7 1 17 205.78 16.73 0
-6 -5 2 43.07 13.85 0
-6 -3 10 205.41 13.27 0
-6 -1 -16 471.2 19.71 0
-6 0 -17 0.06 17.54 0
-6 0 15 4.8 15.07 0
-6 1 16 448 17.19 0
-5 -4 5 424.67 15.45 0
-5 -1 -15 6.91 15.23 0
-5 3 16 498.57 17.07 0
-4 -4 0 310.06 17.8 0
-4 -3 6 60.7 14.23 0
-4 -2 -12 435.77 16.53 0
-4 -2 9 243.08 11.27 0
-4 -1 -14 6.85 14.45 0
-4 3 -18 -5.04 15.94 0
-4 8 15 23.04 22.57 0
-3 0 -14 -0.3 12.8 0
-3 3 -17 19.87 14.75 0
-3 5 14 61.39 16.23 0
-3 6 14 50.48 17.4 0
-3 9 13 -0.79 23.41 0
-2 -2 3 3559.32 32.51 0
-2 1 -14 271.41 13.85 0
-2 2 -15 66.87 14.2 0
-2 4 -16 2.89 10.7 0
-2 4 12 7.33 14.88 0
-1 -1 -7 5.34 15.96 0
-1 0 -10 -1.3 13.69 0
-1 1 -12 31.61 13.17 0
-1 2 -13 421.77 11.5 0
-1 3 -14 21.8 13.43 0
-1 5 -15 28.51 13.55 0
-1 6 -15 22.35 13.74 0
-1 7 -15 33.99 14.91 0
-1 7 10 77.86 24.81 0
-1 11 7 -1.38 31.73 0
0 0 -5 -1.57 13.08 0
0 1 -9 1869.83 20.33 0
0 3 -12 52.35 11.82 0
0 5 -13 206.14 13.41 0
0 6 -13 50.72 12.73 0
0 7 -13 387.42 14.98 0
0 10 -10 50.89 11.99 0
0 11 -8 229.72 15.98 0
0 11 3 4.05 19.64 0
0 12 -3 13.21 18.42 0
0 12 -2 13.55 18.4 0
0 12 -1 148.78 20.07 0
1 2 -6 249.27 16.85 0
1 2 0 72.55 23.89 0
1 3 -8 71.84 9.32 0
1 5 -10 40.98 11.98 0
1 6 -10 104.11 9.48 0
1 7 -10 85.63 13.48 0
1 8 -9 207.8 14.3 0
1 9 -8 4.13 14.03 0
1 9 2 246.54 16.07 0
1 10 -5 118.7 15.51 0
1 10 -4 284.6 16.41 0
1 10 -3 574.49 16.27 0
1 10 -2 44.67 15.4 0
1 10 -1 586.28 18.23 0
-12 -6 6 7.56 15.18 0
-12 -4 13 34.43 16.18 0
-11 -6 -5 215.89 26.32 0
-11 -6 5 174.49 17.38 0
-11 -5 10 373.36 16.9 0
-10 -6 4 54.14 15.06 0
-10 -5 9 3.05 14.57 0
-10 -4 12 720.85 17.47 0
-10 -3 14 28.27 14.77 0
-10 -1 17 89.16 17.17 0
-9 -6 -2 16.57 18.31 0
-9 -6 1 257.03 16.66 0
-9 -6 2 50.44 14.94 0
-9 -5 8 41.14 14.53 0
-9 -4 11 307.07 16.19 0
-9 -2 15 324.94 15.88 0
-8 -4 10 57.71 13.96 0
-8 -3 -14 -2.49 21.05 0
-8 -2 14 120.05 13.92 0
-7 -3 11 90.52 13.53 0
-7 -2 13 12.31 13.75 0
-7 3 18 274.89 18.12 0
-6 -5 -3 2.96 17.49 0
-6 -5 0 46.42 16.58 0
-6 -5 1 344.22 16.24 0
-6 -4 7 35.79 11.02 0
-6 -2 12 965.61 14.01 0
-5 -3 8 905.17 17.39 0
-5 -1 12 870.44 16.75 0
-4 -4 -2 24.23 18.78 0
-4 -4 -1 114 16.63 0
-4 0 12 685.99 14.34 0
-4 1 13 68.07 15.95 0
-4 4 15 116.18 16.74 0
-3 -3 2 53.01 13.89 0
-3 -2 6 515.49 18.43 0
-3 3 13 5.44 15.15 0
-2 -1 6 63.7 13.63 0
-2 0 8 261.05 16.62 0
-2 3 -16 43.46 13.08 0
-2 5 -17 28.38 16.4 0
-2 5 12 16.92 17.67 0
-2 6 -17 5.75 16.82 0
-2 7 12 338.52 22.32 0
-1 -1 2 911.61 33.51 0
-1 4 -15 7.8 12.83 0
-1 5 10 65.55 19.05 0
-1 8 -15 42.21 14.71 0
0 0 -6 1069.71 23.53 0
0 2 -11 39.68 9.29 0
0 4 -13 226.9 12.69 0
0 8 -13 70.25 14.96 0
0 9 -12 46.73 11.49 0
0 10 -11 33.66 15.96 0
0 12 0 1561.55 25.75 0
1 2 -7 2070.26 22.18 0
1 3 -9 178.39 13.21 0
1 4 -10 329.75 13.03 0
1 6 -11 36.6 12.92 0
1 7 -11 373.06 13.85 0
1 8 -10 2.01 14.18 0
1 9 -9 -2.5 14.74 0
1 10 -7 152.72 14.78 0
1 10 -6 48.5 13.72 0
1 10 0 29.61 15.52 0
2 6 -5 31.31 12.95 0
2 6 -4 122.35 14.47 0
2 6 -3 173.33 14.96 0
2 6 -2 1294.53 19.89 0
-12 -6 5 10.17 15.31 0
-12 -5 10 0.42 17.19 0
-11 -4 12 12.39 15.01 0
-11 -2 16 -2.08 15.02 0
-10 -6 -4 187.5 21.67 0
-10 -6 3 26 14.05 0
-9 -6 -1 286.62 17 0
-9 -6 0 -3.31 15.69 0
-9 -3 13 86.71 10.88 0
-9 -1 16 -10.18 15.36 0
-9 0 17 34.18 15.41 0
-9 1 18 11.06 17.61 0
-8 -5 6 183.2 14.26 0
-8 -3 12 52.99 12.86 0
-8 2 18 183.52 18.09 0
-7 -5 4 7.95 13.82 0
-7 -4 -11 164.39 23.54 0
-7 -4 8 378.16 15.86 0
-7 2 17 89.07 15.25 0
-7 4 18 -0.34 16.24 0
-6 -5 -2 109.97 17.53 0
-6 -5 -1 1303.61 22.68 0
-6 -1 13 347.01 15.05 0
-6 2 16 51.61 14.5 0
-6 4 17 149.95 17.51 0
-5 -4 4 66.89 13.88 0
-5 -2 10 26.53 13.5 0
-5 0 -17 95.59 16.91 0
-5 0 13 38.33 14.72 0
-5 1 -18 133.61 17.96 0
-5 2 15 416.14 17.2 0
-5 4 16 101.4 16.82 0
-4 -2 8 1531.53 19.66 0
-4 -1 10 -0.9 13.65 0
-4 0 -16 628.99 17.04 0
-4 1 -17 18.63 14.46 0
-4 2 -18 32.93 17.48 0
-4 5 15 407.68 19.07 0
-4 6 15 24.48 18.61 0
-4 7 15 210.66 21.39 0
-3 -1 -13 45.93 13.87 0
-3 0 10 -2.01 9.92 0
-3 1 -16 118.46 15.55 0
-3 2 -17 230.89 15.89 0
-3 4 -18 190.05 13 0
-2 -1 -11 3.53 13.11 0
-2 0 -13 -15.38 13.09 0
-2 3 11 173.09 16.03 0
-2 4 -17 4.07 15.4 0
-2 6 12 6.84 18 0
-2 9 11 166.75 31.15 0
-1 0 -11 646.58 15.61 0
-1 2 -14 844.69 16.63 0
-1 2 8 338.79 18.75 0
-1 3 -15 40.73 13.98 0
-1 3 9 190.71 16.81 0
-1 5 -16 649.18 16.83 0
-1 6 -16 -0.46 14.28 0
-1 6 10 101.94 20.31 0
-1 7 -16 83.33 15.28 0
0 1 -10 1008.87 16.65 0
0 3 -13 551.31 14.29 0
0 4 7 465.46 24.92 0
0 5 -14 15.31 12.44 0
0 6 -14 60.17 10.05 0
0 7 -14 44.94 13.28 0
0 9 -13 232.96 17.62 0
0 11 4 2.88 21.05 0
0 12 1 159.3 20.69 0
1 4 -11 76.25 11.89 0
1 5 -11 512.71 11.2 0
1 8 -11 76.89 14.27 0
1 8 4 450.13 24.38 0
1 9 -10 1056.06 18.12 0
1 9 3 132.68 18.28 0
1 10 -8 8.78 15.77 0
1 10 1 141.39 15.95 0
2 5 -6 142.85 12.76 0
2 5 -5 40.69 13.32 0
2 5 -4 1915.13 19.21 0
2 5 -3 884.21 18.42 0
2 5 -2 24.88 15.27 0
2 6 -6 167.65 14.16 0
2 6 -1 6.17 13.96 0
2 7 -6 287.65 15.23 0
2 7 -5 3.51 13.34 0
2 7 -4 646.66 13.68 0
2 7 -3 1015.15 17.92 0
2 7 -2 143.38 14.21 0
-12 -6 4 74.4 18.06 0
-12 -4 12 -1.29 15.59 0
-11 -6 3 154.24 17.72 0
-11 -6 4 41.02 14.67 0
-11 -5 9 -1.4 11.42 0
-11 -3 14 167.55 12.55 0
-10 -6 -3 16.86 18.95 0
-10 -6 1 15.89 16.71 0
-10 -6 2 133.09 15.86 0
-10 -5 8 395.57 15.28 0
-10 -4 11 50.01 15.51 0
-10 -2 15 96 14.23 0
-9 -5 7 200.28 14.11 0
-9 -4 10 80.45 14.77 0
-8 -4 -12 6.83 25.39 0
-8 -4 9 295.33 15.15 0
-8 -1 15 117.59 11.21 0
-8 0 16 82.22 16.34 0
-8 1 17 443.35 16.32 0
-7 -5 3 32 13.67 0
-7 -1 14 14.35 10.56 0
-7 0 15 753.5 17.63 0
-7 1 16 0.29 15.73 0
-7 5 18 -4.24 19.13 0
-6 -4 -10 647.94 31.33 0
-6 -4 6 3.15 13.65 0
-6 -3 -13 182.22 18.71 0
-6 -3 9 13.96 12.89 0
-6 -2 -15 81.8 17.03 0
-6 -2 11 707.4 15.92 0
-6 0 14 623.56 16.86 0
-6 1 15 41.08 15.86 0
-6 5 17 15.38 19.32 0
-5 -4 -8 898.16 40.42 0
-5 -2 -14 40.64 15.95 0
-5 -1 -16 18.13 17.72 0
-5 1 14 265.37 12.3 0
-5 5 16 21.22 17.76 0
-5 7 16 -0.42 20.92 0
-4 -3 -10 30.18 17.26 0
-4 -3 5 1759.04 19.31 0
-4 3 14 19.52 15.09 0
-3 -3 -7 7.74 18.96 0
-3 -3 1 5.64 16.85 0
-3 -2 -11 835.96 18.56 0
-3 -1 8 1031.13 16.29 0
-3 0 -15 28.62 13.94 0
-3 1 11 258.02 12.07 0
-3 3 -18 224.23 15.1 0
-3 4 13 43.4 15.87 0
-2 -2 -8 491.58 19.11 0
-2 -2 2 110.5 20.83 0
-2 1 -15 218.14 14.23 0
-2 2 -16 201.94 13.81 0
-2 2 10 118.45 16.79 0
-2 3 -17 364.89 15.63 0
-2 5 -18 137.52 15.73 0
-1 -1 -8 129.84 15.61 0
-1 1 -13 343.27 14.45 0
-1 4 -16 135.35 15.34 0
0 0 -7 7.17 15.1 0
0 2 -12 358.89 11.52 0
0 2 5 66.23 19.6 0
0 4 -14 209.97 13.06 0
0 6 -15 0.04 13.06 0
0 8 -14 142.82 11.62 0
1 2 -8 316.67 11.64 0
1 3 -10 2232.73 17.85 0
1 5 -12 685.05 14.72 0
1 6 -12 45.92 9.44 0
1 7 -12 371.99 14.05 0
1 9 -11 83.06 14.65 0
1 10 -9 33.29 16.31 0
1 11 -6 94 17.96 0
1 11 -5 116.57 17.79 0
1 11 -4 19.63 16.84 0
1 11 -3 9.14 16.88 0
1 11 -2 111.32 17.7 0
2 4 -4 455.96 17 0
2 5 -7 31.39 12.44 0
2 5 -1 31.47 15 0
2 6 -8 26.28 12.29 0
2 6 -7 26.13 9.99 0
2 7 -7 21.9 13.19 0
2 7 -1 21.87 13.83 0
2 8 -6 92.25 14.6 0
2 8 -5 103.13 13.91 0
2 8 -4 309.22 14.39 0
2 8 -3 1055.93 18.61 0
2 8 -2 10.06 13.87 0
-12 -6 3 0.79 15.47 0
-12 -5 9 11.28 11.95 0
-12 -3 14 16.27 13.28 0
-11 -6 -4 15.92 22.31 0
-11 -6 2 3.86 14.97 0
-11 -5 8 142.6 15.89 0
-11 -4 11 78.25 15.44 0
-11 -2 15 -9.07 15.74 0
-10 -6 -2 1675.75 27.83 0
-10 -6 -1 60.83 19.04 0
-10 -6 0 175.43 17.14 0
-10 -3 13 762.68 13.71 0
-10 -1 16 5.1 14.52 0
-10 0 17 -3.36 16.72 0
-9 -5 6 120.8 13.27 0
-9 -3 12 213.06 14.86 0
-9 -2 14 500.67 12.07 0
-9 2 18 -11.73 16.33 0
-8 -5 5 276.03 11.6 0
-8 -3 11 54.98 13.46 0
-8 -2 13 9.46 13.92 0
-8 3 18 6.21 16.23 0
-7 -5 -6 22.16 27.69 0
-7 -4 7 323.59 15.05 0
-7 -3 -14 486.97 23.12 0
-7 -3 10 1330.2 17.14 0
-7 -2 -16 15.53 19.63 0
-7 -2 12 90.31 12.81 0
-7 3 17 10.79 15.81 0
-6 -1 -17 32.94 19.4 0
-6 6 17 12.6 19.3 0
-5 -4 3 -2.38 12.59 0
-5 -3 -12 3.87 17.58 0
-5 -3 7 0.52 9.59 0
-5 -1 11 219.67 14.5 0
-5 6 16 9.71 18.51 0
-4 -2 -13 14.19 14.56 0
-4 -1 -15 56.37 15.55 0
-4 0 11 -6.7 13.91 0
-3 -2 5 38.69 16.75 0
-3 8 13 1.62 21.33 0
-2 -1 5 343.01 22.13 0
-2 0 -14 1332.86 17.87 0
-2 4 -18 -20.22 15.67 0
-1 2 -15 294.22 15.53 0
-1 3 -16 87.53 13.49 0
-1 5 -17 100.19 16.49 0
-1 6 -17 1.78 16.59 0
0 0 -8 533.07 17.24 0
0 1 -11 162.57 14.18 0
0 3 -14 -1.64 12.78 0
0 5 -15 119.53 13.22 0
0 7 -15 184.33 11.11 0
0 8 -15 54.94 15.41 0
0 9 -14 67.38 13.59 0
0 12 2 1.72 19.35 0
1 2 -9 147.7 13.14 0
1 3 -11 0 12.39 0
1 4 -12 224.48 13.51 0
1 6 -13 526.6 14.52 0
1 7 -13 15.81 14.02 0
1 8 -12 0.05 10.93 0
1 10 -10 54.62 16.95 0
1 10 2 421.57 19.68 0
1 11 -8 14.12 15.99 0
1 11 -7 151.61 16.07 0
1 11 -1 83.51 16.92 0
2 4 -6 388.91 14.61 0
2 4 -5 700.5 13.84 0
2 4 -3 759.52 16.39 0
2 5 -8 209.7 13.11 0
2 6 -9 168.07 12.83 0
2 6 0 180.87 15.52 0
2 7 -9 812 15.2 0
2 7 -8 464.94 12.32 0
2 7 0 45.27 15.72 0
2 8 -8 43.4 14.83 0
2 8 -7 510.42 15.04 0
2 8 -1 368.62 15.75 0
2 9 -5 552.75 15.8 0
2 9 -4 2.27 13.55 0
-12 -6 2 298.66 18.94 0
-12 -5 8 223.72 16.71 0
-12 -4 11 25.22 16.08 0
-11 -6 -3 -4.47 21.39 0
-11 -6 -2 4.11 19.91 0
-11 -6 0 11.45 17.91 0
-11 -6 1 277.48 17.55 0
-11 -3 13 14.76 14.51 0
-11 -1 16 189.85 16.48 0
-10 -5 7 65.08 10.47 0
-10 -4 10 32.97 15.43 0
-10 -2 14 34.5 13.55 0
-9 -4 9 5.36 13.83 0
-9 -1 15 456.38 12.63 0
-9 0 16 24.75 16.26 0
-9 1 17 146 17.04 0
-8 -5 4 338.66 14.67 0
-8 -4 8 787.17 17.48 0
-8 -1 14 -4.36 13.25 0
-8 2 17 211.07 16.95 0
-7 -5 2 13.34 13.96 0
-6 -4 5 55.94 14.84 0
-6 -3 8 22.48 13.04 0
-6 -1 12 914.52 16.42 0
-5 -2 9 98.77 10.32 0
-4 -3 4 -0.39 15.35 0
-4 -2 7 0.45 13.87 0
-4 0 -17 2.6 16.16 0
-4 1 -18 29.37 15.67 0
-4 1 12 -13.78 14.3 0
-4 4 14 157.55 15.84 0
-3 -1 -14 4.45 14.92 0
-3 0 9 14.88 14.27 0
-3 1 -17 683.02 16.45 0
-3 2 -18 24.43 14.98 0
-3 5 13 227.13 17.31 0
-2 -1 -12 165.98 13.23 0
-2 0 7 -9.04 17.68 0
-2 2 -17 26.66 14.86 0
-2 4 11 14.31 14.7 0
-1 -1 -9 1451.32 22.59 0
-1 0 -12 -5.66 13.76 0
-1 1 -14 2.78 14.01 0
-1 4 -17 406.87 16.83 0
0 1 3 81.72 32.11 0
0 2 -13 438.19 11.49 0
0 3 6 41.34 19.43 0
0 4 -15 45.34 13.21 0
0 6 -16 33.33 14.56 0
0 7 -16 31.65 14.76 0
1 5 -13 71.1 9.42 0
1 8 -13 21.53 14.08 0
1 9 -12 17.16 11.62 0
1 10 -11 94.09 17 0
1 11 -9 193.57 18.55 0
1 11 0 18.68 16.96 0
2 4 -8 40.64 12.42 0
2 4 -7 25.25 9.04 0
2 4 -2 11.77 12.61 0
2 5 -9 2102.59 18.83 0
2 5 0 848.06 23.73 0
2 6 -10 21.52 12.96 0
2 7 -10 10.03 12.32 0
2 8 -9 0.82 14.5 0
2 9 -7 243.87 15.4 0
2 9 -6 305.99 14.73 0
2 9 -3 175 14.61 0
2 9 -2 20.62 15.29 0
-12 -6 -2 41.73 19.91 0
-12 -6 -1 9.35 19.49 0
-12 -6 0 138.56 18.82 0
-12 -6 1 14.84 17.98 0
-12 -3 13 177.14 15.71 0
-11 -6 -1 56.53 17.21 0
-11 -5 7 145.77 15.93 0
-11 -4 10 563.58 16.16 0
-10 -5 6 241.79 15.06 0
-10 -3 12 1.07 13.41 0
-10 -1 15 103.6 14.62 0
-9 -5 5 389.25 15.32 0
-9 -3 11 10.87 12.81 0
-9 -2 13 19.9 13.87 0
-9 3 18 262.09 19.22 0
-8 0 15 -5.05 15.43 0
-8 1 16 414.27 17.46 0
-7 -5 1 255.55 15.89 0
-7 -3 9 32.02 12.87 0
-7 -1 13 23.6 9.64 0
-7 0 14 -1.98 13.86 0
-7 1 15 256.38 14.84 0
-7 2 16 -10.55 14.62 0
-6 -2 10 64.04 13.53 0
-6 0 13 -21.72 14.64 0
-6 2 15 -1 15.58 0
-6 4 16 10.53 15.54 0
-5 -4 2 88.57 14.53 0
-5 -3 6 878.75 17.58 0
-5 -2 -15 32.96 18.49 0
-5 0 -18 3.72 16.61 0
-5 0 12 3.11 10.21 0
-5 1 13 701.45 17.98 0
-5 2 14 302.29 12.16 0
-5 4 15 466.28 18.77 0
-4 -1 9 115.36 10.54 0
-3 -3 0 543.56 22.01 0
-3 -2 -12 -2.45 15.84 0
-3 -1 7 137.24 17.06 0
-3 0 -16 12.97 13.83 0
-3 3 12 1212.79 20.34 0
-3 6 13 128.9 17.21 0
-3 7 13 162.3 17.95 0
-2 -2 -9 5.37 14.23 0
-2 1 -16 50.7 13.63 0
-2 3 -18 8.61 15 0
-1 4 9 -4.34 14.36 0
-1 5 -18 31.84 15.77 0
0 0 -9 -0.62 14.28 0
0 1 -12 96.03 13.94 0
0 3 -15 261.39 14.46 0
0 5 -16 76.78 10.73 0
0 12 3 0.71 23.21 0
1 1 -6 10.63 16.19 0
1 1 -5 713.16 18.36 0
1 1 -4 959.8 21.86 0
1 2 -10 54.72 8.94 0
1 3 -12 375.25 13.13 0
1 4 -13 16.18 9.69 0
1 5 -14 13.11 12.98 0
1 6 -14 5.94 12.89 0
1 7 -14 80.56 13.04 0
1 8 -14 57.4 15.45 0
1 9 -13 24.7 15.62 0
1 10 -12 151.04 17.3 0
1 11 1 31.02 20 0
1 12 -3 -14.97 19.74 0
2 4 -9 16.41 12.65 0
2 4 -1 698.58 20.77 0
2 5 -10 1.05 12.16 0
2 6 -11 8.29 11.73 0
2 7 -11 13.46 12.84 0
2 8 -10 2.49 14.33 0
2 8 0 531.12 17.36 0
2 9 -9 48.6 14.42 0
2 9 -8 67.15 10.57 0
2 9 -1 54 15.36 0
2 10 -5 196.37 15.34 0
-13 -5 7 51.93 17.89 0
-12 -5 7 448.88 16.23 0
-12 -4 10 4.37 15.89 0
-11 -5 6 32.21 13.68 0
-11 -3 12 14.82 16.36 0
-11 -2 14 -0.37 11.31 0
-10 -4 9 -10.16 14.98 0
-10 0 16 26.39 15.79 0
-10 1 17 115.67 16.78 0
-9 -4 8 71.12 14.48 0
-9 -1 14 317.17 14.38 0
-8 -5 3 6.24 13.03 0
-8 -4 7 469.97 15.87 0
-8 -3 10 15.42 9.81 0
-8 -2 12 115.09 10.17 0
-8 3 17 12.13 17.14 0
-7 -5 0 274.06 16 0
-7 -4 6 256.47 11.86 0
-7 -2 11 1149.06 14.62 0
-7 5 17 21.4 18.62 0
-6 -4 4 101.23 14.68 0
-6 -2 -16 375.69 21.26 0
-6 1 14 28.21 11.32 0
-5 -1 -17 -9.2 17.97 0
-4 -2 -14 146.01 17.27 0
-4 -1 -16 346.11 17.41 0
-4 5 14 367.03 18.05 0
-4 8 14 99.1 20.34 0
-3 1 -18 7.62 15.31 0
-3 1 10 1807.29 19.76 0
-3 2 -19 267.8 17.43 0
-2 -2 1 2092 34.12 0
-2 -1 -13 60.27 13.12 0
-2 0 -15 13.26 14.5 0
-1 -1 -10 167.24 15.34 0
-1 -1 1 7.76 18.09 0
-1 0 -13 45.43 13.33 0
-1 1 -15 251.99 14.34 0
-1 2 -16 155.27 11.19 0
-1 3 -17 40.61 10.84 0
-1 4 -18 53.24 14.98 0
0 2 -14 1005.34 13.88 0
0 4 -16 132.82 10.8 0
0 6 -17 43.75 15.95 0
0 7 -17 203.75 17.19 0
1 1 -7 1092.51 17.5 0
1 1 -3 6.88 18 0
1 2 -11 325.92 13.62 0
1 2 1 1062.92 47.11 0
1 3 -13 13.68 11.86 0
1 4 -14 225.21 13.68 0
1 6 -15 265.52 13.3 0
1 7 -15 -7.96 14.38 0
1 9 -14 54.16 17.56 0
1 9 4 52.15 21.18 0
1 10 3 960.41 27.03 0
1 12 -2 26.96 18.68 0
2 3 -7 1531.96 19.69 0
2 3 -6 98.06 10.61 0
2 3 -5 3870.82 27.2 0
2 3 -4 30.89 15.86 0
2 4 -10 324.8 13.69 0
2 5 -11 41.84 13.26 0
2 6 1 98.45 14.59 0
2 7 1 362.07 16.29 0
2 8 -11 53.26 15.29 0
2 9 -10 11.69 15.22 0
2 10 -8 22.5 16.2 0
2 10 -7 17.1 16 0
2 10 -6 331.15 13.2 0
2 10 -4 67.97 14.66 0
2 10 -3 258.83 16.91 0
-13 -5 6 -4.2 15.86 0
-13 -4 10 -3.23 13.02 0
-12 -5 6 5.3 15.56 0
-12 -3 12 11.88 16.83 0
-12 -2 14 63.49 11.8 0
-11 -4 9 -2.93 15.22 0
-11 -1 15 53.57 14.56 0
-11 0 16 -4.17 14.83 0
-10 -5 5 272.67 15.92 0
-10 -3 11 574.55 17.17 0
-10 -2 13 27.54 13.26 0
-9 -5 4 16.5 12.59 0
-9 0 15 405.44 16.11 0
-9 1 16 41.87 16.85 0
-9 2 17 26.31 11.99 0
-8 -5 2 136.38 14.65 0
-8 -1 13 333.56 14.81 0
-7 -5 -1 659.06 19.11 0
-7 3 16 21.54 16.14 0
-7 6 17 139.06 20.05 0
-6 -3 -14 7.21 18.86 0
-6 -3 7 120.28 14.7 0
-6 -1 11 37.99 13.38 0
-6 5 16 60.46 16.33 0
-6 6 16 210.81 20.24 0
-6 7 16 48.6 20.2 0
-5 -4 1 283.6 17.76 0
-5 -2 8 226.53 10.94 0
-5 -1 10 367.44 11.93 0
-5 5 15 2.39 16.01 0
-5 6 15 242.13 19.71 0
-5 8 15 211.91 21.26 0
-4 -3 -11 450.57 20.33 0
-4 -3 3 2412.96 26.28 0
-4 0 -18 52.79 16.03 0
-4 0 10 163.93 14.05 0
-4 3 13 494.95 13.98 0
-4 6 14 18.03 16.98 0
-4 7 14 78.07 17.95 0
-3 -3 -8 201.8 19.35 0
-3 -2 4 78.6 17.79 0
-3 -1 -15 112.69 15.33 0
-3 0 -17 145.09 17.68 0
-3 4 12 151.15 17.76 0
-2 -2 -10 2312.21 27.95 0
-2 1 -17 12.42 15.6 0
-2 2 -18 21.25 14.58 0
-2 2 9 44.3 16.83 0
-2 3 -19 13.85 17.01 0
-2 3 10 147.62 15.21 0
-2 5 11 35.06 15.6 0
-2 8 11 47.93 21.35 0
-1 2 7 2183.13 29.94 0
-1 3 8 73.71 17.36 0
0 0 -10 2774.38 24.44 0
0 1 -13 383.79 15.46 0
0 3 -16 59.97 14.07 0
0 5 -17 193.06 12.31 0
1 1 -8 230.55 11.71 0
1 5 -15 54.93 13.06 0
1 8 -15 141.48 14.9 0
1 12 -1 42.59 19.69 0
2 3 -8 53.12 9.38 0
2 3 -3 243.96 14.69 0
2 4 -11 -0.4 12.45 0
2 5 -12 11.2 12.63 0
2 6 -12 19.3 9.48 0
2 7 -12 360.57 11.71 0
2 8 -12 71.53 15.64 0
2 8 1 -0.65 16.44 0
2 9 -11 147.38 15.85 0
2 9 0 -2.09 14.57 0
2 10 -9 11.58 14.7 0
2 10 -2 586.49 18.91 0
-13 -4 9 9.67 15.98 0
-12 -4 9 29.76 15.66 0
-12 -1 15 18.31 12.54 0
-11 -5 5 4.45 14.54 0
-11 -3 11 12.04 15.73 0
-11 -2 13 23.44 15.16 0
-10 -5 4 47.53 13.98 0
-10 -4 8 706.78 16.83 0
-10 -1 14 10.57 14.63 0
-10 2 17 -3.4 17.76 0
-9 -5 3 133.24 14.86 0
-9 -3 10 311.93 14.33 0
-9 -2 12 4.76 9.66 0
-8 -3 9 91.43 14.01 0
-8 -2 11 191.98 14.16 0
-8 0 14 213.97 14.81 0
-8 1 15 131.58 16.17 0
-8 2 16 -3.34 11.63 0
-8 4 17 284.5 18.27 0
-7 -5 -2 416.48 18.55 0
-7 -4 5 563.05 16.16 0
-7 -3 8 140.88 14.03 0
-7 -2 10 -11.52 12.54 0
-7 -1 12 22.76 9.78 0
-7 2 15 463.86 16.08 0
-6 -4 3 126.1 14.34 0
-6 -2 9 479.77 15.7 0
-5 -3 5 -7.39 13.5 0
-5 0 11 963.68 17.02 0
-5 7 15 24.46 18.78 0
-4 -2 6 90.12 11.27 0
-4 -1 8 1214.78 19.39 0
-4 1 11 592.27 17.19 0
-3 -3 -1 274.47 21.33 0
-3 0 8 -13.58 15.53 0
-2 -1 4 871.78 27.54 0
-1 -1 -11 65.39 14.35 0
-1 0 -14 4.99 12.88 0
-1 2 -17 49.05 14.34 0
-1 3 -18 150.76 16.07 0
0 2 -15 163.53 13.91 0
0 4 -17 39.66 11.7 0
0 6 -18 142.59 17.58 0
1 1 -9 474.14 12.23 0
1 1 -2 862.43 27.31 0
1 2 -12 153.69 10.29 0
1 3 -14 258.7 13.89 0
1 4 -15 219.44 13.95 0
1 6 -16 -5.54 14.29 0
1 7 -16 290.89 15.65 0
2 3 -10 134.1 12.66 0
2 3 -9 51.2 9.31 0
2 3 -2 3.08 18.11 0
2 6 -13 0 11.99 0
2 7 -13 452.35 12.18 0
2 8 -13 427.68 17.06 0
2 9 -12 99.22 16.64 0
2 10 -11 42.75 15.9 0
2 10 -10 6.97 12.06 0
2 10 -1 458.97 18.49 0
2 11 -8 51.82 16.65 0
2 11 -7 -8.03 17.91 0
2 11 -6 34.28 17.86 0
2 11 -5 0.03 17.68 0
2 11 -4 34.46 15.67 0
-9 -4 7 12.61 10.69 0
-9 3 17 24.53 13.37 0
-8 -4 6 118.59 11.1 0
-7 0 13 21.14 10.59 0
-6 0 12 909.36 13.94 0
-5 2 13 15.13 10.86 0
-2 0 6 21.5 14.7 0
-1 4 -19 68.73 12.81 0
0 0 -11 -0.37 9.8 0
0 5 -18 1.14 12.51 0
1 5 -16 312.54 11.49 0
2 4 -12 7.7 8.99 0
2 5 -13 485.69 11.23 0
-10 -7 7 41.14 17.86 0
-10 -6 -8 326.54 19.45 0
-10 -6 5 3.57 14.85 0
-10 -5 -4 -7.5 14.01 0
-10 -5 -3 20.38 14.44 0
-10 -5 -2 98.85 14.87 0
-10 -5 -1 95.02 14.83 0
-10 -5 0 169.13 15.68 0
-10 -5 1 50.44 14 0
-9 -5 -9 136.14 18.58 0
-9 -4 -5 1138.46 15.92 0
-9 -4 -4 50.45 14.73 0
-9 -4 0 197.94 13.84 0
-9 -4 1 672.51 16.67 0
-8 -5 -12 70.08 16.26 0
-8 -4 -9 -11.1 15.18 0
-8 -4 5 561.71 19.38 0
-8 -3 -4 7.05 10.29 0
-8 -3 -3 665.94 17.06 0
-8 -3 -2 7.33 14.82 0
-8 -3 -1 833.79 17.61 0
-7 -5 -14 125.95 19.09 0
-7 -4 -12 23.5 12.13 0
-7 -3 -9 42.99 10.53 0
-7 -3 4 117.02 14.42 0
-6 -4 -14 61.93 12.98 0
-6 -3 -11 1337.86 17.85 0
-6 -2 -7 82.05 13.62 0
-5 -3 -13 61.29 14.86 0
-5 -2 -10 49.95 14.33 0
-4 -2 -12 442.89 15.96 0
-4 -1 -7 986.41 17.6 0
-4 -1 1 59.77 18.54 0
-3 -4 -18 163.17 14.47 0
-3 -3 -16 128.9 16.64 0
-2 -7 15 22.01 16.16 0
-2 -5 13 499.17 17.03 0
-2 -3 -17 319.48 17.77 0
-1 -3 -18 146.83 12.44 0
-1 -3 10 2344.84 24.71 0
0 -2 8 189.1 15.9 0
1 -3 -19 16.56 16.27 0
1 -2 -17 8.66 14.91 0
1 -2 8 145.32 11.48 0
1 -1 -14 3.49 13.47 0
2 -7 15 322.63 18.78 0
2 -6 14 872.38 17.51 0
2 -5 13 24.25 15.06 0
2 -3 10 2.12 13.75 0
2 -2 8 488.13 15.57 0
2 0 -10 694.62 19.24 0
3 0 -10 0.13 15.74 0
4 -4 11 587.58 16.97 0
5 -6 13 1776.49 20.62 0
6 -7 13 1.43 13.74 0
6 -5 11 139.51 11.95 0
6 -3 8 5.14 14.3 0
6 -1 -14 23.61 18.68 0
6 0 -4 3981.78 37.35 0
7 -4 9 7.96 14.42 0
7 -3 7 93.42 10.64 0
7 -1 1 622.99 13.74 0
8 -4 8 21.26 15.46 0
8 -3 6 19.91 14.82 0
9 -2 2 208.01 14.5 0
9 -1 -4 11.49 13.57 0
10 -5 7 225.18 16.69 0
10 -3 3 31.01 15.6 0
11 -3 1 10.66 15.33 0
11 -2 -4 10.44 14.52 0
12 -5 4 82.4 17.81 0
12 -3 -13 2.95 19.32 0
12 -3 -2 10.45 15.94 0
-11 -7 2 31.18 17.9 0
-11 -7 3 145.58 17.46 0
-10 -6 -7 -4.14 17.57 0
-9 -5 -8 282.22 18.04 0
-9 -5 5 397.13 17.98 0
-9 -4 -3 19.54 11.16 0
-9 -4 -2 122.6 13.87 0
-9 -4 -1 284.37 13.88 0
-8 -5 -11 642.15 18.89 0
-8 -4 -8 24.15 14.55 0
-7 -4 -11 153 15.92 0
-7 -4 7 324.46 21.37 0
-7 -3 -8 1583.55 16.25 0
-6 -5 -15 12.28 19.1 0
-6 -4 -13 14.81 15.01 0
-6 -3 6 5.99 16.05 0
-6 -2 -6 22.85 13.05 0
-6 -2 1 14.77 15.45 0
-5 -7 14 57.26 20.66 0
-5 -6 13 313.23 22.65 0
-5 -4 -15 -6.47 16.84 0
-5 -2 -9 150.3 13.58 0
-4 -3 -14 16.79 14.68 0
-4 -1 -6 703.4 16.67 0
-3 -7 15 13.91 17.81 0
-3 -6 14 59.17 15.01 0
-3 -2 -13 648.76 17.05 0
-3 -1 -9 528.33 15.73 0
-2 -8 16 109.7 20.83 0
-2 -3 10 160.13 16.98 0
-2 -1 -11 17.93 10.8 0
-1 -4 12 235.04 14.75 0
-1 -2 8 338.21 17.83 0
-1 0 -5 156.91 19.29 0
-1 0 -2 8.76 27.5 0
0 -4 12 990.8 15.33 0
0 -3 -18 27.54 14.44 0
0 -2 -16 17.92 15.01 0
0 -1 -13 346.95 15.4 0
0 0 -8 515.99 15.65 0
1 -4 12 84.07 13.77 0
1 0 -9 275.48 16.68 0
2 -4 12 38.01 13.74 0
2 -3 -19 160.94 15.73 0
2 -2 -17 -0.88 14.54 0
3 -7 15 37.18 18.59 0
3 -6 14 49.1 15.2 0
3 -5 13 0.75 14.67 0
3 -3 10 333.89 15.72 0
3 -2 8 21.64 13.18 0
3 -1 5 72.52 11.58 0
4 0 0 80.35 19.57 0
5 -7 14 219.82 18.07 0
5 -5 12 8.1 12.5 0
5 -3 9 91.02 13.05 0
5 -2 7 1308.27 18.51 0
5 -1 4 3323.85 25.16 0
6 -4 10 647.92 13.62 0
6 -2 -17 122.93 16.98 0
6 -2 6 34.25 10.29 0
6 -1 3 78.33 13.67 0
7 -6 12 -0.91 17.55 0
7 -3 -19 3.09 18.51 0
7 -2 5 12.85 9.83 0
7 -1 -13 29.27 24.7 0
8 -6 11 11.17 17.26 0
8 -5 10 21.91 15.18 0
8 -2 4 17.26 13.34 0
8 -1 0 415.56 16.24 0
9 -6 10 87.67 17.38 0
9 -4 7 -9.19 11.51 0
9 -3 5 16.58 11.19 0
9 -1 -10 71.77 18.97 0
9 -1 -3 381.18 15.44 0
10 -4 6 90.84 16.28 0
10 -2 0 503.38 12.78 0
11 -5 6 12.25 17.99 0
11 -4 4 125.48 13.94 0
11 -2 -11 3.93 18 0
11 -2 -3 114.62 15.32 0
12 -4 2 518.08 17.86 0
12 -3 -1 442.07 18.18 0
13 -4 -1 94.22 13.43 0
-11 -7 -3 21.21 18.73 0
-11 -7 -2 9.32 18.17 0
-11 -7 -1 -5 16.02 0
-11 -7 0 149.95 16.13 0
-11 -7 1 -9.76 16.95 0
-10 -6 -6 152.81 17.23 0
-10 -6 4 43 15.47 0
-9 -7 9 25.88 19.77 0
-9 -6 -10 87.05 17.26 0
-9 -5 -7 9.2 16.41 0
-8 -4 -7 164.74 14.83 0
-7 -5 -13 37.77 13.52 0
-7 -3 -7 106.61 13.29 0
-6 -3 -10 25.92 13.93 0
-6 -2 -5 25.77 9.29 0
-6 -2 -4 335.39 14.93 0
-6 -2 0 207.54 15.78 0
-5 -5 -16 -9.04 17.77 0
-5 -4 10 80.57 27.85 0
-5 -3 -12 14.98 14.75 0
-5 -2 4 294.15 17.31 0
-4 -4 -16 329.89 14.92 0
-4 -2 -11 1598.91 16.31 0
-4 -1 -5 563.59 17.06 0
-4 -1 0 925.47 22.66 0
-3 -5 13 246.84 17.62 0
-3 -4 -17 174.09 18.01 0
-3 -3 -15 2.22 16.07 0
-2 -4 -18 0.15 17.41 0
-2 -3 -16 29.72 14.36 0
-2 -2 -14 217.86 12.04 0
-1 -4 -19 54.46 13.3 0
-1 -3 -17 8.44 15.86 0
-1 -2 -15 309.36 12.01 0
-1 -1 5 744.08 25.64 0
-1 0 -4 11.59 21.22 0
-1 0 -3 417.58 26.9 0
2 -1 -14 15.72 13.08 0
2 0 1 -7.5 25.21 0
3 -4 12 187.49 15.44 0
3 -3 -19 40.58 17.63 0
3 -2 -17 372.48 16.39 0
4 -7 15 58.17 17.02 0
4 -6 14 93.61 17.3 0
4 -5 13 3.77 15.26 0
4 -3 10 19.4 14.13 0
4 -2 -17 11.23 16.93 0
4 -1 5 553.19 16.83 0
5 -4 11 242.4 14.39 0
5 -2 -17 70.98 16.59 0
5 0 -1 86.74 17.12 0
6 -6 13 82.44 17.43 0
6 -5 12 20.86 15.42 0
6 -3 -19 13.28 19.22 0
6 0 -8 1084.46 41.17 0
6 0 -3 2.04 15.03 0
7 -5 11 7.1 12.08 0
7 -3 8 1727.22 19.49 0
7 -1 2 93.74 10.87 0
8 -3 7 782 16.93 0
9 -5 9 125.08 12.44 0
9 -2 3 52.99 15.36 0
9 -1 -2 496.92 16.23 0
10 -5 8 188.02 18.14 0
10 -3 4 112.36 15.92 0
10 -2 1 117.42 15.84 0
11 -4 5 434.33 17.68 0
11 -3 2 51.78 12.75 0
11 -2 -2 275.05 16.04 0
12 -5 5 19.63 20.5 0
12 -4 3 46.33 16.33 0
12 -3 0 -1.32 15.43 0
13 -4 0 106.02 16.75 0
13 -3 -9 67.01 16.04 0
13 -3 -8 54.92 16.69 0
13 -3 -7 -2.84 16.28 0
13 -3 -6 627.05 19.02 0
13 -3 -5 57.55 17.04 0
-10 -8 8 86.1 20.35 0
-10 -7 6 8.79 17.72 0
-10 -6 -5 9.99 14.79 0
-10 -6 -4 182.72 15.5 0
-10 -6 3 8.47 15.22 0
-9 -6 -9 13.88 18.91 0
-9 -6 7 796.79 21 0
-9 -5 -6 130.15 16.44 0
-9 -5 4 28.2 16.72 0
-8 -5 -10 12.64 12.12 0
-8 -4 -6 67.29 14.12 0
-8 -4 4 442.89 15.99 0
-7 -5 -12 311.77 16.62 0
-7 -4 -10 195.84 14.96 0
-7 -3 -6 54.7 13.2 0
-7 -3 3 375.24 16.28 0
-6 -5 -14 11.12 17.89 0
-6 -4 -12 38.37 15.78 0
-6 -3 -9 88.31 13.59 0
-6 -2 -3 192.36 14.02 0
-6 -2 -2 122.7 13.58 0
-6 -2 -1 5.96 14.12 0
-5 -8 15 190.7 21.89 0
-5 -4 -14 -7.9 16.01 0
-5 -2 -8 322.79 11.65 0
-4 -5 -17 22.48 19.59 0
-4 -2 -10 377.81 14.61 0
-4 -1 -4 618.13 14.28 0
-4 -1 -3 1130.32 21.2 0
-4 -1 -2 4.81 17.08 0
-4 -1 -1 129.58 18.21 0
-3 -2 -12 0.48 14.55 0
-3 -2 7 353 26.5 0
-3 -1 -8 22.76 9.51 0
-2 -4 12 8.61 14.04 0
-2 -1 -10 141.42 11.09 0
-1 -6 15 270.45 17.53 0
-1 -1 -11 60 13.53 0
0 -7 16 74.07 18.65 0
0 -6 15 0.59 15.77 0
0 -5 14 33.3 13.7 0
1 -7 16 104.5 18.63 0
1 -6 15 7.15 15.91 0
1 -5 14 19.72 14.02 0
1 -3 -18 118.63 16.03 0
1 -3 11 -4.5 13.06 0
1 -2 -16 69.78 15.2 0
1 -1 -13 16.05 13.34 0
1 0 -8 1.11 16.15 0
1 0 1 214.91 29.06 0
2 -6 15 -4.58 14.88 0
2 -1 6 219.05 16.21 0
2 0 -9 2.39 14.15 0
3 -1 -14 13.99 13.14 0
3 0 1 5719.29 41.41 0
4 -4 12 24.99 14.38 0
4 -3 -19 24.34 16.5 0
4 -2 8 333.24 10.93 0
4 -1 -14 24.81 15.04 0
5 -6 14 9.22 16.33 0
5 -3 -19 1.69 17.23 0
5 -1 -14 270.97 17.21 0
6 -3 9 113.22 10.47 0
6 -2 7 107.38 13.81 0
6 -1 4 -9.19 12.77 0
6 0 -2 256.89 17.32 0
7 -4 10 228.64 14.83 0
7 -2 6 892.39 16.62 0
8 -6 12 189.69 18.7 0
8 -4 9 22.02 11.07 0
8 -2 5 28.07 13.88 0
8 -1 1 743.49 16.69 0
9 -4 8 -13.38 14.87 0
9 -3 6 396.42 12.72 0
9 -1 -1 429.15 16.38 0
10 -4 7 426.47 17.19 0
11 -5 7 29.82 17.4 0
11 -3 3 43.11 16.45 0
11 -2 -1 276.17 15.51 0
13 -4 1 -6.81 18.2 0
13 -3 -10 586.35 20.21 0
13 -3 -4 113.75 17.38 0
13 -3 -3 -4.63 16.15 0
-11 -8 3 13.37 18.36 0
-10 -6 -3 10.56 16.68 0
-10 -6 -2 1542.74 20.41 0
-10 -6 1 8.12 16.28 0
-10 -6 2 120.53 14.8 0
-9 -8 10 151.92 25.12 0
-9 -6 -8 16.88 17.94 0
-9 -5 -5 120.89 16.78 0
-8 -6 -11 -12.4 17.19 0
-8 -5 -9 -4.6 16.26 0
-8 -5 7 210.87 17.24 0
-8 -4 -5 -2.3 13.86 0
-7 -4 -9 11.89 14.31 0
-7 -3 -5 3.05 9.88 0
-7 -3 2 4471.8 31.46 0
-5 -5 -15 17.37 17.05 0
-5 -3 -11 141.92 15.09 0
-5 -2 -7 1309.93 18.42 0
-4 -7 15 212.38 19.3 0
-4 -6 14 5.19 17.06 0
-4 -4 -15 25.3 15.81 0
-4 -4 11 90.28 17.11 0
-4 -3 -13 3.67 11.53 0
-3 -4 -16 88.02 15.74 0
-3 -3 -14 379.78 15.74 0
-3 -1 -7 83.54 14.45 0
-2 -2 -13 -1.44 13.79 0
-2 -2 8 418.92 21.28 0
-1 -7 16 261.63 18.09 0
-1 -5 14 -1.27 14.79 0
-1 -4 -18 41.84 17.44 0
-1 -2 -14 812.28 17.22 0
0 -3 11 93.76 13.62 0
1 -2 9 278.14 15.49 0
1 -1 6 67.97 12.49 0
2 -7 16 -1.97 18.05 0
2 -5 14 175.52 15.05 0
2 -4 -20 143.66 16.92 0
2 -3 11 10.03 13.43 0
2 -2 -16 5.06 13.39 0
2 -2 9 6.3 13.98 0
3 -6 15 -14.09 16.98 0
3 -3 11 24.12 13.85 0
3 -1 6 539.51 16.9 0
3 0 -9 16.43 17.01 0
4 0 1 -4.52 18.21 0
5 -5 13 197.25 15.51 0
5 -3 10 146.53 14.26 0
5 -2 8 355.58 13.93 0
5 -1 5 731.9 16.41 0
5 0 0 -5.3 16.71 0
6 -4 11 25.07 11.3 0
7 -6 13 78.03 18.97 0
7 -5 12 350.58 17.13 0
7 -1 3 88.3 9.87 0
8 -5 11 762.94 17.72 0
8 -3 -18 -2.86 20.44 0
9 -5 10 -2.73 15.85 0
9 -2 4 24.67 14.91 0
10 -5 9 57.48 18.08 0
10 -3 5 661.72 14.11 0
10 -2 2 244.34 15.18 0
10 -1 -7 6.94 15.16 0
10 -1 -6 306.35 15.2 0
10 -1 -5 483.71 16.48 0
10 -1 -4 188.2 16.28 0
11 -4 6 7.31 18.23 0
11 -2 -12 -0.8 19.85 0
11 -2 0 -6.6 13.63 0
12 -4 4 150.72 19 0
12 -3 -14 -3.15 23.13 0
12 -3 1 -9.68 15.16 0
12 -2 -8 70.5 17.61 0
12 -2 -7 97.35 15.3 0
12 -2 -6 248.62 16.4 0
12 -2 -5 26.42 14.29 0
13 -4 2 17.13 17.32 0
13 -3 -11 1.85 19.3 0
13 -3 -2 34.37 15.6 0
-10 -7 -6 61.04 14.32 0
-10 -7 5 49.25 17.7 0
-10 -6 -1 70.35 14.48 0
-10 -6 0 160.62 14.8 0
-9 -6 -7 91.45 16.34 0
-9 -5 -4 165.97 14.48 0
-9 -5 -3 124.32 15.33 0
-9 -5 3 138.2 14.59 0
-8 -6 9 14.54 22.12 0
-8 -5 -8 244.12 16.76 0
-8 -4 -4 213.37 15.5 0
-8 -4 3 56.38 13.68 0
-7 -6 -13 31.18 14.49 0
-7 -5 -11 1.7 16.39 0
-7 -5 9 201.43 24.87 0
-7 -3 -4 319.87 12.09 0
-7 -3 -3 -1.61 14.48 0
-7 -3 1 44.67 14.4 0
-6 -5 -13 52.23 16.9 0
-6 -4 -11 7.29 15.5 0
-6 -3 -8 11.82 13.22 0
-5 -4 -13 28.29 14 0
-5 -2 -6 761.51 16.24 0
-4 -5 -16 -5.28 19.06 0
-4 -2 -9 942.52 16.8 0
-3 -2 -11 826.46 16.41 0
-2 -7 16 9.57 15.97 0
-2 -6 15 3.73 14.97 0
-2 -4 -17 -0.16 12.02 0
-2 -3 -15 178.14 15.76 0
-2 -1 -9 282.34 11.63 0
-1 -3 -16 75.25 14.9 0
-1 -3 11 -1.05 13.35 0
0 -4 13 226.93 15.27 0
0 -2 9 -2.24 14.75 0
0 -1 6 837.37 21.33 0
1 -4 -19 17.17 16.05 0
1 -4 13 792.16 16.75 0
2 -4 13 35.41 14.23 0
2 -3 -18 29.96 15.9 0
2 -1 -13 356.16 15.15 0
3 -5 14 36.82 11.5 0
3 -4 -20 56.33 18.38 0
3 -2 9 893.26 14.18 0
4 -6 15 1.01 17.08 0
4 -3 11 437.18 15.23 0
4 -1 6 641.62 16.31 0
4 0 -9 2.14 17.45 0
5 -4 12 20.43 13.77 0
6 -6 14 258.87 18.92 0
6 -5 13 72.51 15.71 0
6 -3 10 8.64 13.54 0
6 0 -1 2.19 11.27 0
7 -4 11 200.22 14.97 0
7 -3 9 29.81 13.78 0
7 -2 -16 8.84 17.69 0
7 -2 7 41.67 13.32 0
7 0 -6 -0.19 15.58 0
7 0 -5 2028.84 26.3 0
7 0 -4 -0.7 14.17 0
7 0 -3 1034.41 21.74 0
8 -4 10 105.16 15.8 0
8 -3 8 96.6 11.14 0
8 -1 2 264.33 12.16 0
9 -4 9 365.65 17.54 0
9 -3 7 -3.39 13.88 0
9 -1 -11 5.72 21.73 0
9 -1 0 49.81 10.45 0
10 -4 8 58.19 15.6 0
10 -2 3 83.61 14.84 0
10 -1 -8 27.34 15.33 0
10 -1 -3 7.62 13.76 0
11 -3 4 115.67 16.93 0
12 -3 2 28.96 16.31 0
12 -2 -9 126.3 18.06 0
12 -2 -4 204.28 15.89 0
12 -2 -3 62.04 14.23 0
13 -3 -1 2.1 16.8 0
-10 -8 7 1.11 19.05 0
-10 -7 -5 3.86 13.43 0
-10 -7 -4 30.17 15.58 0
-9 -6 6 14.58 15.63 0
-9 -5 -2 129.91 13.96 0
-9 -5 -1 97.52 14.81 0
-9 -5 0 -3.63 13.85 0
-9 -5 1 28.88 14.98 0
-9 -5 2 322.77 15.24 0
-8 -6 -10 344.73 14.38 0
-8 -4 -3 816.29 16.34 0
-8 -4 -2 346.37 15.59 0
-8 -4 1 237.25 13.81 0
-8 -4 2 809.61 17.39 0
-7 -6 -12 6.57 16.57 0
-7 -4 -8 82.49 11.4 0
-7 -3 -2 575.39 12.97 0
-7 -3 -1 215.03 14.52 0
-7 -3 0 50.21 13.31 0
-6 -6 -14 252.05 19.66 0
-6 -3 -7 1899.76 19.62 0
-5 -5 -14 487.6 17.82 0
-5 -5 12 888.44 31.01 0
-5 -3 -10 144.32 10.48 0
-5 -2 3 107.43 15.5 0
-4 -4 -14 621.6 18.01 0
-4 -3 -12 20.96 11.27 0
-4 -3 9 4338.02 57.2 0
-3 -5 -17 131.85 16.96 0
-3 -4 12 137.16 16.93 0
-3 -3 10 312.19 19.52 0
-3 -1 -6 537.47 13.75 0
-2 -5 -18 82.76 17.26 0
-2 -5 14 22.86 13.89 0
-2 -2 -12 32.22 14.34 0
-2 -1 -8 105.95 13.58 0
-1 -4 13 19.44 13.78 0
-1 -1 -10 164.83 14 0
1 -3 -17 31.63 14.89 0
1 -2 -15 29.77 14.41 0
1 -1 -12 1468.56 19.94 0
1 0 -7 381.59 19.33 0
2 0 -8 233.54 17.15 0
2 0 2 679.27 27.65 0
3 -4 13 1070.11 15.33 0
3 -3 -18 175.84 16.3 0
3 -2 -16 165.26 14.81 0
3 0 2 9.23 13.95 0
4 -5 14 54.08 11.8 0
4 -2 9 933.82 14.36 0
5 -6 15 -3.55 17.1 0
5 0 1 125.94 15.84 0
6 -4 12 67.6 16.14 0
6 -2 8 0.77 12.71 0
6 -1 5 573.27 12.46 0
6 0 0 39.6 15.3 0
7 -1 4 1993.12 18.14 0
7 0 -2 5 14.88 0
8 -5 12 76.89 17.5 0
8 -2 6 406.5 11.86 0
8 -1 3 109.75 14.59 0
9 -5 11 218.15 18.92 0
9 -2 5 1092.13 18.04 0
9 -1 1 190.44 15.63 0
10 -5 10 27.79 19.33 0
10 -3 6 24.48 12.04 0
10 -1 -9 10.23 17 0
10 -1 -2 64.09 14.08 0
11 -4 7 66.13 18.72 0
11 -2 1 117.78 11.88 0
12 -4 5 -5.02 15.02 0
12 -2 -2 133.68 16.39 0
13 -4 3 25.68 17.49 0
13 -3 0 32.46 17.34 0
-10 -7 -3 33.85 16.88 0
-10 -7 4 56.86 15.26 0
-9 -7 -8 35.41 17.49 0
-9 -7 8 8.69 18.63 0
-9 -6 -6 7.84 12.19 0
-8 -6 -9 51.28 18.12 0
-8 -5 -7 42.03 12.25 0
-8 -4 -1 455.42 13.06 0
-8 -4 0 14.03 12.94 0
-7 -5 -10 353.8 13.63 0
-7 -4 -7 -4.01 13.47 0
-7 -4 6 261.35 17.91 0
-6 -5 -12 23.26 15.54 0
-6 -4 -10 627.44 13.01 0
-6 -3 -6 9.29 12.75 0
-6 -3 5 152.77 17.54 0
-5 -6 -15 4.7 18.1 0
-5 -4 -12 37.64 10.96 0
-5 -3 -9 116.53 13.73 0
-5 -2 -5 143.42 10.31 0
-4 -5 13 162.3 18.77 0
-4 -2 -8 314.08 14.7 0
-3 -7 16 304.5 20.85 0
-3 -6 15 249.29 19.11 0
-3 -4 -15 60.26 15.29 0
-3 -3 -13 49.92 10.56 0
-3 -2 -10 307.88 14.48 0
-3 -1 -5 70.8 15.41 0
-3 -1 2 3427.12 44.23 0
-2 -4 -16 12 16.06 0
-2 -3 -14 76.44 14.78 0
-1 -4 -17 394.39 17.48 0
-1 -2 -13 405.11 15.56 0
-1 -2 9 163.35 16.34 0
0 -6 16 51.87 15 0
1 -6 16 5.73 16.44 0
1 -5 15 29.08 14.28 0
2 -6 16 1003.5 20.63 0
2 -5 15 234.11 15.11 0
2 -4 -19 1.55 17.37 0
2 -3 12 144.16 14.3 0
2 -1 7 1305.59 19.91 0
3 -1 -13 1171.36 19.53 0
3 -1 7 94.43 13.58 0
4 -4 13 15.1 11 0
4 -3 -18 6.36 17.57 0
4 -2 -16 439.87 15.87 0
4 0 2 619.32 16.56 0
5 -5 14 543.94 17.18 0
5 -3 11 129.1 11.2 0
5 -2 -16 65.64 15.41 0
5 -2 9 155.05 13.7 0
5 -1 6 56.04 9.85 0
6 -2 -16 61.73 16.35 0
7 -5 13 76.12 18.7 0
7 -3 -18 290.37 20.91 0
7 -3 10 2.82 15.11 0
7 0 -7 1427.29 28.18 0
7 0 -1 138.84 15.41 0
8 -4 11 -2.62 14.65 0
8 -3 9 192.58 15.15 0
9 -4 10 -8.55 16.49 0
9 -3 8 611.64 17.44 0
9 -1 2 140.52 14.44 0
10 -4 9 -6.75 16.02 0
10 -3 7 24.74 14.97 0
10 -2 4 178.97 16.09 0
10 -1 -1 307.13 14.93 0
11 -3 5 46.18 12.55 0
11 -2 2 644.79 17.67 0
12 -4 6 537.11 20.67 0
12 -3 3 495.73 14.28 0
12 -2 -10 2.8 17.04 0
12 -2 -1 388.91 17.22 0
13 -3 1 57.8 15.88 0
14 -3 -7 563.52 20.08 0
14 -3 -6 26.57 17.81 0
14 -3 -5 175.57 18.93 0
14 -3 -4 0.74 16.64 0
-10 -8 6 1.58 18.16 0
-10 -7 -2 3.8 12.25 0
-10 -7 -1 0.17 16.28 0
-10 -7 0 134.92 17.06 0
-10 -7 1 77.2 16.06 0
-10 -7 2 186.29 16.41 0
-10 -7 3 3.84 15.42 0
-9 -7 -7 1.46 18.32 0
-9 -6 -5 121.31 12.33 0
-9 -6 -4 -6.22 14.18 0
-9 -6 5 751.88 20.41 0
-8 -7 -10 14.48 19.61 0
-8 -5 -6 0.78 10.88 0
-8 -5 6 193.42 16.27 0
-7 -6 -11 20.84 16.77 0
-7 -5 -9 191.53 15.97 0
-7 -4 -6 102.03 14.5 0
-6 -6 -13 60.96 17.85 0
-6 -4 -9 422.21 15.89 0
-5 -2 -4 400.49 11.79 0
-5 -2 -3 23.41 13.71 0
-5 -2 2 93.61 16.8 0
-4 -6 -16 127.28 20.27 0
-4 -5 -15 159.94 13.89 0
-4 -4 -13 24.12 16.7 0
-4 -3 -11 442.01 13.1 0
-3 -5 -16 7.57 17.25 0
-3 -1 -4 396.05 19.57 0
-2 -5 -17 -1.26 16.51 0
-2 -4 13 781.16 20.14 0
-2 -3 11 177.11 14.44 0
-2 -1 -7 1330.01 19.96 0
-1 -6 16 -10.08 16.6 0
-1 -5 -18 29.27 18.18 0
-1 -3 -15 41.93 11.39 0
-1 -1 -9 1371.33 19.96 0
0 -7 17 206.13 19.02 0
0 -5 -19 116.46 17.38 0
0 -5 15 123.69 15.11 0
0 -3 12 55.78 13.86 0
1 -3 12 1924.14 18.99 0
1 -2 10 1162.95 19.04 0
1 -1 7 -4.53 15.34 0
1 0 2 -2.04 27.03 0
2 -3 -17 20.13 13.71 0
2 -2 -15 393.91 16.78 0
2 -2 10 2210.61 21.84 0
3 -6 16 14.48 16.25 0
3 -5 15 90.83 16.64 0
3 -3 12 56.14 13.37 0
3 -2 10 294.57 15.98 0
3 0 3 579.27 21.49 0
4 -1 -13 70.19 15.92 0
4 -1 7 992.19 17.1 0
5 -4 13 4.99 11.12 0
5 -3 -18 172.07 16.47 0
5 -1 -13 725.17 22.74 0
5 0 2 -4.1 10.78 0
6 -5 14 19.42 17.32 0
6 -3 -18 5.56 18.11 0
6 -3 11 1419.14 18.59 0
6 -2 9 28.17 12.79 0
6 -1 -13 331.09 20.9 0
6 -1 6 465.04 15.59 0
6 0 1 -3.51 9.71 0
7 -4 12 19.61 16.45 0
7 -2 8 383.02 11.46 0
7 -1 5 8.02 9.58 0
8 -2 7 425.27 12.47 0
8 -1 4 17.78 13.49 0
9 -2 6 -12.94 14.9 0
10 -1 0 60.83 14.37 0
11 -4 8 20.28 18.18 0
11 -3 6 30.46 16.61 0
11 -2 3 511.47 16.61 0
12 -3 4 -4.29 17.78 0
12 -2 0 14.66 15.8 0
14 -3 -3 11.16 18.29 0
14 -3 -2 -5.63 16.77 0
-10 -8 -4 -4.24 17.19 0
-10 -8 -3 64.91 16.46 0
-10 -8 5 42.78 18.69 0
-9 -7 -6 128.59 17.67 0
-9 -6 -3 264.89 15.43 0
-8 -6 -8 163.91 13.45 0
-8 -5 -5 354.12 15.67 0
-7 -4 -5 106.59 14.74 0
-6 -5 -11 158.67 14.78 0
-6 -3 -5 141.49 10.57 0
-5 -5 -13 154.12 12.54 0
-5 -4 -11 204.99 11.67 0
-5 -3 -8 300.64 15.09 0
-5 -2 -2 252.63 15.34 0
-5 -2 1 149.05 16.59 0
-4 -2 -7 87.32 10.19 0
-3 -5 14 43.81 16.57 0
-3 -4 -14 142.19 15.96 0
-3 -3 -12 31.59 15.51 0
-3 -2 -9 900.27 16.99 0
-3 -1 -3 678.08 22.42 0
-2 -2 -11 188.75 11.88 0
-1 -7 17 -3.98 17.79 0
-1 -5 15 65.25 15.09 0
-1 -2 -12 1.87 13.94 0
-1 -1 6 -2.79 20.65 0
0 -4 14 210.84 17.07 0
0 -2 10 181.76 15.22 0
1 -4 -18 39.24 15.24 0
1 -4 14 167.87 14.95 0
1 -2 -14 10.19 14.16 0
1 -1 -11 124.05 13.63 0
1 0 -6 12.03 18.75 0
2 -4 14 33.79 13.75 0
2 -1 -12 1095.01 19.02 0
2 0 3 -1.81 21.22 0
3 -4 -19 72.65 16.01 0
3 -4 14 141.66 15.15 0
3 0 -8 1.37 17.57 0
4 -6 16 125.23 13.9 0
4 -5 15 186.12 15.86 0
4 -3 12 34.83 10.74 0
4 -2 10 379.46 11.94 0
4 0 3 6.94 11.55 0
5 -1 7 109.58 13.36 0
6 -4 13 14.66 16.46 0
6 0 2 610.89 16.32 0
7 0 0 6.19 10.03 0
8 -5 13 182.13 18.33 0
8 -3 10 28.21 15.47 0
8 0 -5 2.62 12.78 0
8 0 -4 639.23 17.27 0
8 0 -3 -6.26 13.7 0
8 0 -2 706.62 17.4 0
9 -3 -17 -4.04 22.16 0
9 -3 9 67.75 15.28 0
9 -1 3 39.06 14.79 0
10 -3 8 45.54 15.49 0
10 -2 5 16.96 11.96 0
10 -1 -10 141.26 19.48 0
10 -1 1 236.68 15.35 0
11 -1 -7 77.44 16.35 0
11 -1 -6 242.92 15.62 0
11 -1 -5 38.41 14.49 0
11 -1 -4 20.89 14.53 0
11 -1 -3 188.69 15.66 0
12 -2 -11 63.35 19.05 0
12 -2 1 15.47 15.86 0
13 -3 2 9.56 13.31 0
13 -2 -7 127.81 17.29 0
13 -2 -6 -1.19 15.93 0
13 -2 -5 210.48 16.59 0
13 -2 -4 54.35 16.46 0
13 -2 -3 152.41 18.41 0
14 -3 -1 161.3 19.31 0
-10 -8 -2 15.28 17.53 0
-10 -8 4 85.37 17.97 0
-9 -8 9 1.87 20.32 0
-9 -7 -5 32.35 15.33 0
-9 -6 -2 17.75 14.41 0
-9 -6 -1 280.32 15.09 0
-9 -6 3 44.99 15.77 0
-9 -6 4 25.51 14.58 0
-8 -7 -9 6.29 17.52 0
-8 -6 -7 -7.25 17.04 0
-8 -5 -4 462.81 15.79 0
-8 -5 5 285.21 15.83 0
-7 -6 -10 8.86 12.17 0
-7 -5 -8 279.42 12.06 0
-7 -4 -4 137.71 13.72 0
-7 -4 5 571.51 18.84 0
-6 -6 -12 7.41 16.3 0
-6 -4 -8 160.18 14.68 0
-6 -3 -4 7.47 13.26 0
-6 -3 4 3.59 15.55 0
-5 -6 -14 14.37 13.74 0
-5 -2 -1 650.05 15.02 0
-5 -2 0 195.41 13.32 0
-4 -5 -14 54.42 15.87 0
-4 -4 -12 11.94 14.2 0
-4 -3 -10 29.62 9.97 0
-4 -2 -6 136.71 14.44 0
-3 -1 -2 1583.43 26.53 0
-3 -1 1 565.64 24.47 0
-2 -7 17 6.61 19.74 0
-2 -6 16 249.68 19.47 0
-2 -4 -15 74.17 15.11 0
-2 -3 -13 484.17 16.73 0
-2 -1 -6 214.34 16.94 0
-1 -4 -16 145.91 15.5 0
-1 -3 -14 22.18 14.25 0
-1 -3 12 405.4 15.6 0
0 -1 7 1111.51 22.18 0
1 -5 -19 -14.62 15.37 0
1 -3 -16 592.12 16.97 0
2 0 -7 6.18 20.21 0
3 -3 -17 14.87 15 0
3 -2 -15 294.91 15.38 0
3 -1 8 27.53 13 0
4 -4 -19 10.03 17.08 0
4 -4 14 680.99 16.79 0
5 -5 15 2.25 15.9 0
5 -3 12 17.96 11.05 0
5 -2 10 44.16 9.85 0
5 0 3 102.8 10.9 0
6 -1 7 437.13 15.25 0
7 -5 14 161.83 14.82 0
7 -3 11 33.64 10.86 0
7 -2 9 338.7 14.97 0
7 -1 6 -2.2 12.75 0
7 0 1 284.01 15.37 0
8 -4 12 15.18 15.41 0
8 -2 8 20.62 10.22 0
8 -1 5 609.52 14.86 0
8 0 -6 223.61 14.53 0
8 0 -1 -9.01 13.9 0
9 -4 11 65.76 12.98 0
9 -2 7 145.19 14.16 0
10 -4 10 5.48 13.15 0
10 -2 6 382.2 16.08 0
10 -1 2 -0.27 15.14 0
11 -4 9 37.28 19 0
11 -3 7 4.06 18.12 0
11 -2 -13 32.94 28.16 0
11 -2 4 455.5 16.73 0
11 -1 -2 16.1 13.63 0
11 -1 -1 15.84 14.27 0
12 -3 5 119.77 13.95 0
12 -2 2 537.31 17.55 0
13 -3 3 12.54 17.34 0
13 -2 -8 -1.39 17.74 0
13 -2 -2 27.27 16.66 0
-10 -8 -1 14.67 15.99 0
-10 -8 0 45.53 17.26 0
-10 -8 1 61.13 17.34 0
-10 -8 2 411.69 18.74 0
-10 -8 3 7.51 16.49 0
-9 -8 -6 10.28 16.74 0
-9 -7 -4 28 15.16 0
-9 -7 7 232.76 16.64 0
-9 -6 0 26.76 14.3 0
-9 -6 1 271.92 16.46 0
-9 -6 2 45.16 14.57 0
-8 -7 -8 0.45 18.75 0
-8 -7 10 6.14 22.55 0
-8 -6 -6 -3.46 16.03 0
-8 -6 8 495.54 22 0
-8 -5 -3 237.13 15.05 0
-8 -5 -2 8.93 13.69 0
-7 -7 -11 292.99 14.51 0
-7 -6 -9 2.49 15.06 0
-7 -5 -7 61.36 14.83 0
-7 -4 -3 33.23 14.45 0
-6 -7 -13 13.76 14.23 0
-6 -5 -10 24.38 11.49 0
-6 -3 -3 1428.39 18.84 0
-5 -7 15 28.29 22.48 0
-5 -5 -12 11.36 10.81 0
-5 -4 -10 12.02 10.03 0
-5 -3 -7 4.4 10.08 0
-4 -6 -15 0.33 14.23 0
-3 -6 -16 34.13 17.44 0
-3 -5 -15 78.85 13.19 0
-3 -3 -11 8.75 13.59 0
-3 -2 -8 31.04 13.76 0
-3 -1 -1 964.15 20.93 0
-3 -1 0 2700.78 31.89 0
-2 -5 -16 213.58 17.39 0
-2 -5 15 89.46 17.83 0
-2 -2 -10 2219.18 21.66 0
-1 -5 -17 136.44 18.11 0
-1 -4 14 219.29 15.77 0
-1 -1 -8 131.32 10.92 0
0 -5 -18 10.6 16.07 0
1 -6 17 1.35 16.94 0
1 -5 16 657.58 17.55 0
1 -3 13 19.27 12.95 0
2 -6 17 19.86 17.65 0
2 -5 16 241.31 17.04 0
2 -4 -18 136.17 16.11 0
2 -3 13 467.37 15.44 0
2 -2 11 191.46 14.73 0
2 -1 8 92.9 10.42 0
3 -5 16 1.2 15.35 0
3 -3 13 50.49 14.98 0
3 -2 11 795.43 16.7 0
3 -1 -12 1039.73 19.35 0
3 0 4 1.47 17.31 0
4 -2 -15 21.91 16.01 0
4 -1 8 79.04 9.94 0
4 0 4 366.2 16.65 0
5 -4 -19 10.5 16.89 0
5 -4 14 16.63 11.58 0
5 -1 8 493.15 14.88 0
6 -5 15 6.85 18.51 0
6 -4 -19 100.68 19.83 0
6 -3 12 33.86 15.02 0
6 -2 10 259.51 14.32 0
6 0 3 2.79 12.85 0
7 -4 13 83.73 13.4 0
7 0 -8 3.05 18.63 0
7 0 2 -3.93 13.83 0
8 -3 11 -15.32 14.26 0
8 -2 -15 5.84 20.79 0
8 0 0 -2.86 14.61 0
9 -3 10 454.63 17.56 0
9 -1 4 247.22 11.73 0
10 -3 9 9.19 15.38 0
11 -2 5 196.91 16.09 0
11 -1 -8 446.59 16.75 0
11 -1 0 161.64 15.2 0
12 -3 6 75.31 19.72 0
12 -2 3 -0.8 14.97 0
13 -3 4 3.94 18.62 0
13 -2 -9 8.31 18.78 0
13 -2 -1 259.46 16.34 0
13 -2 0 -9.17 15.49 0
-9 -7 -3 86.83 16.91 0
-9 -7 6 29.98 17.01 0
-8 -6 -5 17.78 14.73 0
-8 -5 -1 233.07 14.56 0
-8 -5 3 -3.08 15.58 0
-8 -5 4 330.5 15.03 0
-7 -7 -10 448.65 18.93 0
-7 -4 -2 24.58 14.51 0
-7 -4 4 1.48 14.63 0
-6 -6 -11 -1.61 16.63 0
-6 -5 -9 81.72 14.2 0
-6 -4 -7 14.04 9.74 0
-6 -3 -2 222.83 11.72 0
-6 -3 -1 739.24 17.63 0
-6 -3 3 2.6 15.19 0
-5 -7 -14 178.13 20.31 0
-5 -6 -13 1603.6 18.78 0
-5 -6 14 11.31 22.35 0
-5 -3 -6 223.66 14.51 0
-4 -7 16 44.54 19 0
-4 -6 15 22.19 19.43 0
-4 -5 -13 -13.15 16.41 0
-4 -3 -9 387.27 11.88 0
-4 -2 -5 172.39 10.89 0
-3 -4 -13 1022.88 15.27 0
-2 -6 -17 9.1 14.3 0
-2 -4 -14 27.13 15.05 0
-2 -2 9 47.86 15.36 0
-1 -2 -11 90.16 15.11 0
-1 -2 10 52.29 15.03 0
0 -6 17 34.46 17.06 0
0 -5 16 73.81 15.67 0
1 -4 -17 121.79 15.75 0
1 -2 11 101.96 14.1 0
1 -1 8 128.47 11.63 0
1 0 -5 4779.34 50.83 0
1 0 3 402.98 26.18 0
2 -5 -19 418.71 17.94 0
2 -4 15 88.89 15.63 0
2 -3 -16 9.1 14.62 0
2 -2 -14 10.97 13.34 0
2 0 4 217.6 20.8 0
3 -4 -18 278.21 18.44 0
3 -4 15 47.66 15.92 0
4 -5 16 14.64 17.26 0
4 -3 -17 151.59 15.75 0
4 -3 13 4.76 11.07 0
4 -2 11 1629.33 16.74 0
5 -3 13 63.92 14.87 0
5 -2 11 653.78 16.96 0
5 0 4 1.3 9.65 0
6 -4 14 74.05 15.73 0
7 -3 12 62.75 16.1 0
7 -2 10 426 15.45 0
7 -1 7 -4.68 12.78 0
8 -4 13 322.87 19.58 0
8 -3 -17 6.18 19.46 0
8 -2 9 36.83 13.87 0
8 -1 6 119.26 10.22 0
8 0 -7 -3.84 15.95 0
8 0 1 -3.08 14.39 0
9 -4 12 44.91 16.63 0
9 -2 8 9.77 10.81 0
9 -1 5 14.7 14.53 0
9 0 -4 -8.79 13.07 0
9 0 -3 126.3 14.14 0
9 0 -2 -2.95 13.53 0
10 -4 11 7.16 13.83 0
10 -2 7 590.48 17.15 0
10 -1 3 22.78 11.46 0
11 -3 8 88.02 17.24 0
11 -1 1 65.01 15.08 0
13 -2 1 25.55 15.68 0
-9 -8 -5 589.5 16.12 0
-9 -8 8 149.5 20.04 0
-9 -7 -2 264.96 16.89 0
-8 -8 -8 68.32 19.5 0
-8 -7 -7 235.99 13.84 0
-8 -5 0 920.72 14.85 0
-8 -5 1 190.53 14.54 0
-8 -5 2 113.4 14.07 0
-7 -6 -8 21.81 16.11 0
-7 -5 -6 16.29 10.39 0
-7 -4 -1 9.44 14.19 0
-7 -4 0 276.42 14.35 0
-7 -4 3 57.11 13.51 0
-6 -7 -12 10.88 13.04 0
-6 -4 -6 299.73 14.12 0
-6 -4 8 254.34 24.75 0
-6 -3 0 114.34 15.06 0
-6 -3 1 68.09 15.3 0
-6 -3 2 193.24 15.93 0
-5 -5 -11 304.51 12.07 0
-5 -4 -9 5.55 10.24 0
-4 -7 -15 37.85 21.1 0
-4 -6 -14 65.78 18.98 0
-4 -4 -11 544.86 13.03 0
-4 -4 12 602.52 24.07 0
-4 -2 -4 1250.99 19.76 0
-3 -7 17 30.8 19.75 0
-3 -6 16 46.11 18.5 0
-3 -5 -14 31.7 17.3 0
-3 -4 13 47.87 15.78 0
-3 -2 -7 65.13 13.7 0
-2 -3 -12 140.79 11.4 0
-2 -2 -9 6.47 13.02 0
-2 -1 -5 38.03 13.13 0
-1 -6 17 836.92 20.99 0
-1 -4 -15 28.11 14.13 0
-1 -3 -13 -2.69 14.29 0
-1 -1 -7 -2.82 15.92 0
0 -4 -16 107.77 14.91 0
0 -3 13 526.99 15.32 0
0 -2 11 46.35 13.06 0
1 -4 15 8.75 13.76 0
1 -3 -15 63.91 14.58 0
1 -2 -13 101.85 13.33 0
1 -1 -10 10.71 15.02 0
2 -1 -11 25.84 14.14 0
3 -1 9 528.18 15.01 0
3 0 5 2.42 15.57 0
4 -4 15 -0.88 14.84 0
4 -1 -12 -4.15 14.76 0
4 -1 9 23.52 12.83 0
4 0 -8 1880.74 41.39 0
4 0 5 2.85 13.96 0
5 -5 16 0.81 16.37 0
5 -3 -17 54.81 15.12 0
5 -2 -15 398.09 16.02 0
6 -3 -17 441.31 20.05 0
6 -3 13 168.09 15.71 0
6 -2 -15 0.96 15.2 0
6 -2 11 5.24 14.04 0
6 -1 8 126.12 10.27 0
6 0 4 2064.57 18.59 0
7 -4 14 15.88 18.34 0
7 -3 -17 11.64 19.09 0
7 -2 -15 476.73 21.35 0
7 0 3 112.59 10.63 0
8 0 2 1270.91 19.57 0
9 -3 11 0.23 15.12 0
9 0 -5 671.55 17.29 0
9 0 -1 1182.17 19.16 0
9 0 0 4.82 13.42 0
10 -3 10 19.98 17.36 0
10 -1 4 62.9 15.02 0
11 -2 6 -15.35 17.05 0
11 -1 -9 392.56 18.8 0
11 -1 2 -3.41 15.84 0
12 -3 7 297.18 18.75 0
12 -2 -12 13.42 22.48 0
12 -2 4 442.63 17.02 0
12 -1 -6 15.77 16.08 0
12 -1 -5 1.55 15.33 0
12 -1 -4 14.63 15.05 0
12 -1 -3 22.06 14.97 0
12 -1 -2 342.47 17.19 0
13 -2 -10 -6.97 21.13 0
13 -2 2 36.44 16.22 0
14 -2 -5 4.1 18.01 0
14 -2 -4 56.52 18.83 0
-9 -8 -4 12.86 12.92 0
-9 -7 -1 84.83 14.73 0
-9 -7 0 -10.93 15.38 0
-9 -7 4 2.51 15.85 0
-9 -7 5 381.17 16.52 0
-8 -8 11 111.82 24.5 0
-8 -7 -6 -17.29 16.56 0
-8 -6 -4 92.38 11.79 0
-8 -6 7 -0.58 16.04 0
-7 -8 -10 203.95 20.73 0
-7 -7 -9 9.05 17.64 0
-7 -7 12 44.53 29.68 0
-7 -5 -5 113.75 15.38 0
-7 -5 8 97.05 18.15 0
-7 -4 1 582.08 16.06 0
-7 -4 2 251.29 14.44 0
-6 -7 -11 39 15.74 0
-6 -6 -10 65.94 14.72 0
-6 -5 -8 45.44 14.4 0
-5 -7 -13 2.95 17.53 0
-5 -6 -12 42.46 15.29 0
-5 -4 -8 863.01 16.53 0
-5 -3 -5 1.65 13.85 0
-5 -3 7 0.84 22.71 0
-4 -5 -12 241.8 15.23 0
-4 -3 -8 9.31 10.24 0
-4 -2 5 0.25 26.07 0
-3 -6 -15 -3.04 17.16 0
-3 -4 -12 173.13 16.11 0
-3 -3 -10 321.49 12.13 0
-3 -3 11 54.66 16.41 0
-2 -6 -16 931.49 19.75 0
-2 -5 -15 197.41 16.11 0
-2 -4 14 324.86 15.87 0
-2 -3 12 9.37 13.41 0
-1 -6 -17 3.11 16.88 0
-1 -5 -16 607.38 18.21 0
-1 -5 16 340.37 16.84 0
0 -6 -18 113.41 18.77 0
0 -5 -17 202.56 16.17 0
0 -4 15 30.05 14.56 0
0 -1 8 551.6 19.78 0
2 -4 -17 91.22 16.57 0
2 -3 14 78.62 14.08 0
2 -2 12 32.94 13.38 0
2 -1 9 278.23 11.41 0
3 -5 -19 75.88 16.3 0
3 -3 -16 397.19 16.37 0
3 -3 14 443.27 16.18 0
3 -2 -14 68.19 13.82 0
3 -2 12 -0.77 14.56 0
4 -4 -18 258.04 17.39 0
4 -3 14 27.19 13.84 0
4 -2 12 439.96 15.95 0
5 -4 15 0.96 12.08 0
5 -1 9 179.14 13.45 0
5 0 5 239.51 10.99 0
6 -4 15 159.68 16.45 0
6 0 5 4.28 12.91 0
7 -1 8 479.69 15.01 0
7 0 4 17.14 12.91 0
8 -3 12 -4.32 15.01 0
8 -2 10 0.72 13.56 0
8 -1 7 156.95 10.69 0
8 0 3 -11.03 13.88 0
9 -2 9 36.23 11.33 0
9 -1 6 148.53 10.87 0
9 0 -6 1.62 13.66 0
9 0 1 85.06 15.18 0
10 -2 8 440.81 15.7 0
10 -1 5 18.6 14.28 0
11 -3 9 22.78 13.21 0
11 -1 3 -17.33 15.66 0
12 -2 5 3.72 17.67 0
12 -1 -7 432.7 18.88 0
12 -1 -1 204.75 15.33 0
12 -1 0 -4.22 15.99 0
13 -2 3 155.2 16.72 0
14 -2 -7 9.03 18.05 0
14 -2 -6 135.63 17.56 0
14 -2 -3 129.92 16.74 0
14 -2 -2 42.19 17.82 0
14 -2 -1 480.01 18.44 0
-9 -8 -3 2.73 12.28 0
-9 -8 7 38.26 18.41 0
-9 -7 1 16.36 14.47 0
-9 -7 2 95.67 14.86 0
-9 -7 3 408.29 16.61 0
-8 -8 -7 80.38 17.03 0
-8 -7 -5 510.24 18.11 0
-8 -6 -3 60.62 11.5 0
-7 -6 -7 33.22 12.15 0
-7 -5 -4 1040.87 18.53 0
-6 -4 -5 42.56 10.54 0
-5 -5 -10 145.66 11.42 0
-4 -7 -14 20.59 17.83 0
-4 -6 -13 -18.14 17.32 0
-4 -5 14 364.27 21.86 0
-4 -4 -10 792.12 13.89 0
-4 -2 -3 195.99 15.87 0
-3 -5 15 49.71 17.32 0
-3 -2 8 60.94 21.65 0
-2 -6 17 34.6 18.06 0
-2 -4 -13 7.49 15.26 0
-2 -3 -11 15.66 14.44 0
-2 -1 -4 2767.49 27.62 0
-2 -1 5 339.85 31.69 0
-1 -3 13 -0.43 13.56 0
-1 -2 -10 1130.57 18.9 0
-1 -1 7 1062.75 23.92 0
1 -5 17 103.71 16.98 0
1 -3 14 22.24 13.64 0
1 -2 12 -0.33 13.06 0
1 -1 9 1389.09 20.16 0
1 0 4 9.65 21.17 0
2 -5 -18 1.32 18.01 0
2 -5 17 9.63 15.34 0
2 0 5 1.63 12.48 0
3 -5 17 139.76 16.49 0
4 -5 -19 93.17 18.25 0
4 -5 17 39.87 18.59 0
4 0 6 864.76 17.1 0
5 -4 -18 166.73 17.94 0
5 -3 14 222.68 16.71 0
5 -2 12 8.54 13.41 0
5 -1 -12 853.9 22.01 0
6 -1 9 46.97 10.03 0
7 -3 13 -7.07 11.97 0
7 -2 11 23.1 10.99 0
8 -1 8 275.05 14.41 0
9 -3 12 563.93 18.1 0
9 -1 7 56.56 13.98 0
9 0 2 -8.9 15.12 0
10 -3 -16 2.92 25.62 0
10 -3 11 24.24 17.55 0
10 0 -4 32.19 15.12 0
10 0 -3 8.1 13.63 0
10 0 -2 34.45 14 0
11 -2 7 -8.83 12.55 0
11 -1 4 2.38 15.04 0
12 -1 1 2.67 15.57 0
14 -2 -8 59.47 19 0
14 -2 0 71.25 18.65 0
-9 -9 -3 9.04 17.08 0
-9 -8 -2 90.82 13.23 0
-9 -8 -1 67.56 16.83 0
-8 -8 -6 31.29 18.15 0
-8 -7 9 2.54 18.92 0
-8 -6 -2 223.22 11.61 0
-8 -6 -1 28.65 13.41 0
-8 -6 6 157.01 16.75 0
-7 -8 -9 12.56 19.48 0
-7 -7 -8 111.62 13.1 0
-7 -6 -6 71.67 15.44 0
-7 -5 -3 61.46 14.05 0
-6 -8 -11 -5.81 17.52 0
-6 -7 -10 190.47 16.31 0
-6 -6 -9 17.2 11.44 0
-6 -5 -7 363.65 14.47 0
-6 -4 -4 56.24 13.97 0
-5 -7 -12 99.11 17.18 0
-5 -6 -11 93.04 14.88 0
-5 -4 -7 161.83 14.16 0
-5 -3 -4 262.1 11.22 0
-4 -3 -7 764.71 13.71 0
-4 -2 -2 1230.51 21.9 0
-3 -7 -15 45.76 20.27 0
-3 -6 -14 50.28 17.59 0
-3 -5 -13 14.3 11.86 0
-3 -3 -9 43.93 13.64 0
-3 -2 -6 10.09 10.36 0
-2 -5 16 2.2 17.5 0
-2 -2 -8 495.97 15.72 0
-1 -4 -14 168.59 12.16 0
-1 -4 15 211.86 15.46 0
-1 -3 -12 1849.53 21.02 0
-1 -1 -6 76.4 17.45 0
0 -6 18 129.69 18.28 0
0 -5 17 200.66 17.09 0
0 -4 -15 47.2 14.17 0
0 -3 14 11.52 15.8 0
1 -6 -18 30.1 17.58 0
1 -4 16 126.85 14.58 0
1 -2 -12 132.84 14.71 0
2 -4 16 0.73 13.99 0
2 -3 -15 1754.47 20.56 0
2 -2 -13 938.22 17.64 0
2 0 -6 17 18.07 0
3 -4 -17 29.26 15.02 0
3 -4 16 89.57 12.28 0
3 -1 -11 243.03 14.98 0
3 -1 10 -7.31 14.04 0
3 0 -7 13.83 20.9 0
3 0 6 0.35 10.16 0
4 -4 16 359.41 16.71 0
4 -3 -16 1.56 14.6 0
4 -2 -14 337.57 16.45 0
4 -1 10 84.13 12.96 0
5 -5 -19 22.56 18.82 0
5 -4 16 62.69 16.24 0
5 -1 10 221.58 13.83 0
5 0 6 7.97 9.35 0
6 -4 -18 203.75 18.91 0
6 -3 14 12.91 16.86 0
6 -2 12 45.77 11.13 0
6 0 6 399.66 15.48 0
7 -4 15 38.37 13.86 0
7 -1 9 394.43 14.93 0
7 0 5 770.41 13.29 0
8 -3 13 -11.49 18.2 0
8 -2 11 23.42 15.55 0
8 0 -8 2853.25 39.81 0
8 0 4 1213.87 15.2 0
9 -2 10 33.88 11.51 0
9 0 -7 1403.97 25.28 0
9 0 3 1780.9 20.02 0
10 -2 9 13.08 11.71 0
10 -1 -11 73.5 23.29 0
10 -1 6 16.62 14.31 0
10 0 -5 0.83 13.15 0
10 0 -1 -4.67 10.16 0
10 0 0 890.21 17.07 0
11 -2 8 2.83 16.74 0
11 -1 -10 498.19 23.15 0
12 -2 6 186.15 13.49 0
12 -1 -8 469.39 19.09 0
12 -1 2 9.52 15.19 0
13 -2 4 93.97 13.91 0
14 -2 1 6.93 17.32 0
-9 -9 -2 16.68 18.82 0
-9 -8 0 11.47 16.71 0
-9 -8 1 93.57 15.3 0
-9 -8 5 176.54 17.28 0
-9 -8 6 58.33 15.95 0
-8 -8 -5 -9.36 16 0
-8 -7 -4 -1.51 11.89 0
-8 -6 0 97.65 14.54 0
-8 -6 5 96.35 16.08 0
-7 -7 -7 95.62 17.26 0
-6 -6 -8 770.46 17.08 0
-6 -4 -3 299.89 15.85 0
-5 -5 -9 -10.23 10.39 0
-5 -3 -3 198.22 14.07 0
-4 -5 -11 86.97 11.02 0
-4 -4 -9 122.8 14.09 0
-3 -4 -11 197.2 11.63 0
-2 -7 -16 21.43 17.71 0
-2 -6 -15 15.71 17.8 0
-2 -5 -14 157.1 11.94 0
-2 -2 10 124.8 17.67 0
-2 -1 -3 746.68 20.84 0
-1 -6 -16 -10.24 17.47 0
-1 -5 -15 9.01 15.7 0
-1 -2 11 340.33 15.35 0
0 -6 -17 46.8 17.76 0
0 -5 -16 88.63 16.9 0
0 -3 -13 490.27 16.23 0
0 -2 12 355.08 14.88 0
1 -3 -14 253.25 11.54 0
1 -1 -9 455.77 18.01 0
1 0 -4 0.4 27.86 0
2 -1 -10 315.35 16.49 0
2 -1 10 148.71 10.66 0
2 0 6 1501.32 22.47 0
3 -5 -18 42.36 15.69 0
3 -3 15 13.6 14.41 0
3 -2 13 653.98 16.36 0
4 -3 15 50.3 14.35 0
4 -2 13 13.68 14.82 0
4 0 7 11.13 13.08 0
5 -2 13 142.38 14.15 0
5 0 7 224.13 13.52 0
6 -4 16 486.73 19.99 0
6 -1 -12 915.96 25.97 0
6 -1 10 44.66 13.61 0
7 -4 -18 8.87 18.66 0
7 -3 14 504.8 19.08 0
7 -2 12 92.11 14.5 0
7 -1 -12 22.47 21.33 0
7 0 6 -1.6 13.19 0
8 -4 -18 4.04 18.91 0
8 -1 9 -11.9 14.08 0
8 0 5 6.59 13.25 0
9 -1 8 493.5 16.03 0
10 -1 7 116.35 15.19 0
10 0 -6 866.59 20.19 0
10 0 1 6.25 13.55 0
11 -1 5 172.58 11.93 0
12 -2 7 37.51 19.6 0
12 -1 3 -1.96 15.97 0
13 -2 -11 -5.17 18.67 0
13 -2 5 340.35 17.61 0
13 -1 -5 53.8 15.63 0
13 -1 -4 638.21 17.46 0
13 -1 -3 113.49 15.31 0
13 -1 -2 33.69 15.25 0
13 -1 -1 2.8 15.75 0
13 -1 0 205.31 15.98 0
14 -2 -9 29.56 18.6 0
-9 -9 -1 39.63 18.33 0
-9 -9 7 1.81 19.74 0
-9 -8 2 131.34 16.27 0
-9 -8 3 6.45 15.39 0
-9 -8 4 -0.81 15.81 0
-8 -9 -6 25.53 14.45 0
-8 -7 -3 169.86 14.86 0
-8 -6 1 117.65 14.38 0
-8 -6 2 223.89 15.29 0
-8 -6 3 29.41 14.61 0
-8 -6 4 74.81 14.22 0
-7 -8 -8 100.85 14.27 0
-7 -8 13 55.43 32.74 0
-7 -6 -5 1233.49 16.07 0
-7 -6 10 0.29 20.42 0
-7 -5 -2 396.46 13.02 0
-7 -5 7 43.28 16.65 0
-6 -8 -10 383.43 19.59 0
-6 -7 -9 39.05 15.85 0
-6 -5 -6 798.54 14.03 0
-5 -8 -12 7.66 18.39 0
-5 -7 -11 14.03 15.66 0
-5 -6 -10 4.71 15.1 0
-5 -4 -6 1067.15 17.6 0
-5 -3 -2 2231.53 22.43 0
-4 -7 -13 112.74 13.21 0
-4 -6 -12 26.8 11.3 0
-4 -3 -6 13.84 9.79 0
-4 -2 -1 4.04 12.16 0
-3 -5 -12 43.46 15.37 0
-3 -2 -5 -0.07 10.86 0
-2 -4 -12 34.64 14.67 0
-2 -3 -10 9.22 14.19 0
-1 -6 18 41.69 17.8 0
-1 -5 17 4.56 17.96 0
-1 -2 -9 277.73 15.1 0
0 -4 16 108.76 14.89 0
0 -1 9 1940.19 24.08 0
0 0 2 7.14 26.14 0
1 -1 10 161.66 14.74 0
1 0 5 160.93 14.25 0
2 -5 18 93.56 18.58 0
2 -4 -16 57.14 16.02 0
2 -3 15 185.96 14.56 0
2 -2 13 -1.43 10.51 0
3 -3 -15 25.83 14.34 0
3 0 7 8331.14 36.07 0
4 -4 -17 24.9 14.45 0
4 -1 11 175.7 14.53 0
5 -3 -16 520.69 17.32 0
5 -3 15 12.43 14.62 0
5 -2 -14 319.89 17.09 0
5 -1 11 374.68 14.42 0
6 -3 15 649.88 17.58 0
6 -2 13 59.72 16.21 0
6 0 7 -10.11 13.21 0
7 -1 10 399.7 14.56 0
8 -3 14 -5.47 16.92 0
8 -2 12 3.27 15.62 0
9 -3 13 4.57 13.88 0
9 -2 11 86.01 11.63 0
9 0 4 2.18 10.54 0
10 -2 10 22.66 11.89 0
10 0 2 1528.83 16.95 0
10 0 3 15.64 13.94 0
11 -2 9 37.16 16.57 0
11 -1 6 35.38 16.97 0
11 0 -3 109.23 14.89 0
11 0 -2 8.96 14.47 0
11 0 -1 1210.22 18.84 0
12 -2 8 262.89 18.75 0
12 -1 -9 6.87 16.46 0
12 -1 4 178.92 16.97 0
13 -1 -6 1.88 15.49 0
13 -1 1 153.18 17.77 0
-9 -9 0 143.23 16.7 0
-9 -9 1 20.84 15.97 0
-9 -9 6 81.23 18.51 0
-8 -9 -5 75.41 19.39 0
-8 -8 -4 4.17 15.36 0
-8 -8 10 4.57 20.27 0
-8 -7 -2 49.47 14.29 0
-8 -7 8 105.72 16.96 0
-7 -8 -7 18.72 18.27 0
-7 -7 -6 11.86 14.86 0
-7 -6 -4 32.16 15.56 0
-7 -5 -1 591.12 13.74 0
-7 -5 0 251.46 14.5 0
-6 -6 -7 -1.98 14.86 0
-6 -5 -5 546.93 15.97 0
-6 -4 -2 149.46 11.21 0
-6 -4 7 32.26 17.51 0
-5 -5 -8 258.36 11.42 0
-5 -5 13 68.94 26.54 0
-4 -7 17 24.67 21.72 0
-4 -5 -10 8.58 14.32 0
-4 -4 -8 604.17 16.53 0
-4 -3 10 47.7 22.45 0
-4 -2 0 1017.32 22.03 0
-4 -2 4 567.38 26.54 0
-3 -7 -14 38.57 17.59 0
-3 -6 -13 55.49 15.79 0
-3 -6 17 27.42 21.51 0
-3 -4 -10 137.05 14.09 0
-3 -4 14 206.5 18.26 0
-3 -3 -8 205.05 10.92 0
-2 -7 -15 313.88 18.1 0
-2 -5 -13 36.35 15.91 0
-2 -4 15 487.72 17.24 0
-2 -3 13 380.06 16.7 0
-2 -2 -7 31.35 10.39 0
-2 -1 -2 31.54 24.52 0
-1 -4 -13 753.96 14.24 0
-1 -3 -11 -1.56 14.77 0
-1 -3 14 250.09 15.43 0
-1 -1 -5 1054.49 24.24 0
-1 -1 8 244.4 17.39 0
0 -4 -14 210.42 16.14 0
1 -5 18 40.11 17.79 0
1 -3 15 46.45 13.55 0
1 -2 13 424.67 15.71 0
2 -5 -17 48.6 16.96 0
2 -4 17 7.86 17.52 0
2 -1 11 2.91 12.83 0
2 0 7 7.15 14.18 0
3 -4 17 166.78 15.55 0
3 -2 -13 3.13 13.16 0
3 -1 11 118.69 10.75 0
4 -5 -18 97.22 17.43 0
4 -4 17 43.59 16.15 0
4 -1 -11 588.28 19.74 0
4 0 8 234.75 13.77 0
5 -4 17 63.7 18.36 0
5 0 8 -8.84 13.51 0
6 -3 -16 7.46 15.22 0
6 -1 11 417.55 15.72 0
7 -3 15 -6.57 17.24 0
7 -2 13 85.31 16.31 0
7 0 7 8.93 12.35 0
8 -1 10 19.78 15.04 0
8 0 6 28.54 9.93 0
9 -3 -16 36.08 20.87 0
9 -1 9 201.32 14.63 0
9 0 5 539.36 12.79 0
10 -2 11 3.28 16.26 0
10 -1 8 532.98 16.14 0
10 0 -7 -5.88 14.82 0
10 0 4 621.69 16.49 0
11 -1 7 22.28 15.69 0
11 0 -5 528.09 17.73 0
11 0 -4 3.35 14.36 0
11 0 0 -0.73 10.38 0
11 0 1 725.86 17.15 0
12 -1 5 60.56 17.36 0
13 -1 -7 35.72 15.11 0
13 -1 2 228.37 16.4 0
-9 -9 2 75.12 17.57 0
-9 -9 3 35 17.71 0
-9 -9 4 20.35 17.19 0
-9 -9 5 -3.37 17.48 0
-8 -9 -4 7.35 18.62 0
-8 -8 -3 135.72 16.62 0
-8 -7 -1 141.45 14.05 0
-7 -7 -5 10.83 15.52 0
-7 -6 -3 20.86 15.69 0
-7 -5 1 265.76 15.84 0
-7 -5 6 193.67 16.03 0
-6 -8 -9 -4.75 17.27 0
-6 -7 -8 18.81 16.26 0
-6 -4 -1 85.44 15.5 0
-5 -8 -11 20.23 18.8 0
-5 -7 -10 281.87 16.04 0
-5 -6 -9 150.4 15.85 0
-5 -4 -5 9.69 13.75 0
-5 -3 -1 6.32 14.56 0
-4 -8 -13 21.77 13.66 0
-4 -7 -12 206.31 17.48 0
-4 -6 -11 42.98 14.21 0
-4 -6 16 344.73 21.7 0
-4 -3 -5 81.7 13.9 0
-4 -2 1 1650.48 25.9 0
-4 -2 2 151.73 16.32 0
-4 -2 3 269.23 22.61 0
-3 -3 12 1232.84 24.93 0
-3 -2 -4 82.25 16.51 0
-2 -6 -14 756.49 15.67 0
-1 -7 -16 81.59 16.96 0
-1 -6 -15 46.13 16.97 0
-1 -5 -14 9.03 15.25 0
-1 -4 16 3.95 14.51 0
0 -7 -17 206.89 18.33 0
0 -6 -16 43.21 16.9 0
0 -5 -15 121.52 15.49 0
0 -5 18 0.19 17.85 0
0 -3 -12 53.07 15.08 0
0 -3 15 275.79 15.73 0
0 0 3 5.3 24.94 0
1 -6 -17 811.45 18.74 0
1 -5 -16 316.31 16.02 0
1 -4 17 427.61 17.75 0
1 -2 -11 331.73 15.76 0
1 0 6 -2.98 16.75 0
2 -3 -14 14.77 13.81 0
2 -2 -12 -5.7 13.14 0
3 -4 -16 28.43 13.9 0
3 -3 16 154 16.64 0
3 -2 14 87.15 14.45 0
3 0 8 -7.62 12.68 0
4 -3 16 5.42 16.62 0
4 -2 14 158.85 14.48 0
5 -4 -17 337.93 17.18 0
5 -3 16 81.76 15.75 0
5 -2 14 13.26 15.46 0
6 -2 -14 57.19 15.6 0
6 0 8 2076.81 17.65 0
6 1 0 104.37 14.54 0
7 -3 -16 6.37 16.29 0
7 -1 11 253.88 14.59 0
8 -3 -16 10.17 18.5 0
8 -2 13 49.76 17.05 0
8 0 7 -4.21 14.15 0
9 -2 -14 543.25 29.2 0
9 -2 12 12.49 12.5 0
9 0 -8 -0.01 16.47 0
9 0 6 9.95 14.39 0
11 -2 10 134.25 13.77 0
11 0 2 -2.71 13.98 0
12 -1 6 134.43 17.18 0
13 -1 3 12.55 12.95 0
14 -1 -4 12.91 18.49 0
14 -1 -3 131.14 17.95 0
14 -1 -2 0.81 17.59 0
14 -1 -1 365.35 17.39 0
-8 -9 -3 33.91 15.99 0
-8 -8 -2 272.67 17.33 0
-8 -7 0 336.04 15.51 0
-8 -7 1 28.14 14.02 0
-8 -7 7 184 17.95 0
-7 -9 -7 -0.16 15.02 0
-7 -8 -6 497.37 17.79 0
-7 -5 2 18.6 14.05 0
-7 -5 3 26.78 13.68 0
-7 -5 4 2.29 12.59 0
-7 -5 5 129.34 14.26 0
-6 -9 -9 6.31 17.78 0
-6 -6 -6 20.65 15.13 0
-6 -5 -4 635.14 15.79 0
-6 -4 0 7.26 14.54 0
-5 -7 16 5.39 28.26 0
-5 -5 -7 56.82 10.48 0
-5 -3 0 3246.83 28.07 0
-5 -3 6 925.94 26.49 0
-4 -5 -9 45.93 14.96 0
-4 -4 -7 6.51 13.37 0
-3 -8 -14 13.4 16.11 0
-3 -7 -13 331.74 18.93 0
-3 -6 -12 -2.55 15.34 0
-3 -5 -11 27.71 11.06 0
-3 -5 16 160.89 18.85 0
-3 -3 -7 3.88 14.22 0
-2 -6 18 85.2 17.88 0
-2 -5 17 48.09 18.36 0
-2 -4 -11 884.38 14.64 0
-2 -3 -9 160.51 10.77 0
-1 -2 -8 138.8 14.73 0
-1 -2 12 153.36 14.32 0
0 -2 13 446.98 15.82 0
0 -1 10 1031.82 19.78 0
1 -1 -8 225.52 17.27 0
1 -1 11 74.34 13.89 0
2 -3 16 30.74 15.43 0
2 -2 14 229.22 11.38 0
3 -6 -18 3.27 17.93 0
3 -5 -17 -8.07 16.37 0
3 -1 -10 1653.43 26.41 0
3 -1 12 3.61 14.91 0
4 -3 -15 10.31 14.39 0
4 -1 12 723.1 13.57 0
4 0 9 7.7 12.1 0
5 -5 -18 -7.64 17.39 0
5 -1 12 3.79 13.45 0
5 0 -8 0.94 25.56 0
5 0 9 647.99 15.46 0
5 1 -1 103.05 17.08 0
5 1 0 498.4 18.79 0
5 1 1 1234.84 21.2 0
5 1 2 40.73 14.9 0
6 -3 16 27.28 17.83 0
6 -2 14 95.64 12.19 0
6 -1 12 -4.65 14.75 0
6 1 -2 0.41 15.12 0
6 1 -1 1228.68 19.02 0
6 1 1 1980.04 20.22 0
6 1 2 1188.9 18.57 0
7 -2 14 -4.71 15.69 0
7 0 8 2.38 9.69 0
7 1 -2 7.45 15.97 0
7 1 -1 474.33 17.64 0
7 1 0 307.63 15.98 0
7 1 1 647.01 17.08 0
8 -1 11 1390.06 18.77 0
9 -1 10 1.38 10.98 0
9 0 7 28.77 14.07 0
10 -2 12 26.79 18.76 0
10 -1 9 8.22 11.69 0
10 0 5 -3.72 11 0
11 -1 8 150.06 17.28 0
11 0 -6 -5.21 13.07 0
11 0 3 59.96 11.43 0
12 0 -3 -3.26 14.86 0
12 0 -2 245.39 15.77 0
12 0 -1 -6.46 15.13 0
12 0 0 967.54 19.22 0
13 -1 -8 443.08 18.82 0
13 -1 4 -7.16 13.55 0
14 -1 -5 8.33 16.8 0
14 -1 0 45.52 16.46 0
14 -1 1 -2.38 18.81 0
-8 -8 -1 251.14 17.97 0
-8 -8 9 135.22 19.42 0
-8 -7 2 55.68 15.08 0
-8 -7 3 41.57 13.66 0
-8 -7 5 213.31 16.8 0
-8 -7 6 71.85 15.6 0
-7 -9 -6 -16.59 19.02 0
-7 -8 -5 88.69 15.82 0
-7 -7 -4 351.17 15.62 0
-7 -6 -2 58.6 10.38 0
-6 -8 -8 107.68 17.86 0
-6 -7 -7 48.39 15.71 0
-6 -5 -3 12.52 13.64 0
-6 -4 1 260.97 15.63 0
-6 -4 6 15.97 16.33 0
-5 -8 -10 -0.19 17.56 0
-5 -6 -8 8.07 14.95 0
-5 -4 -4 72.34 13.71 0
-5 -3 1 322.02 17.99 0
-4 -8 -12 30.99 16.54 0
-4 -7 -11 25.27 17 0
-4 -6 -10 382.15 16.58 0
-4 -4 13 12.7 19.46 0
-4 -3 -4 223.03 15.44 0
-3 -4 -9 1669.29 17.01 0
-3 -2 -3 414.98 19.33 0
-2 -7 -14 -25.08 18.81 0
-2 -6 -13 -17.38 15.2 0
-2 -5 -12 -7.87 15.54 0
-2 -2 -6 556.09 14.49 0
-2 -2 11 21.76 16.01 0
-2 -1 -1 131.32 18.42 0
-2 -1 6 61.89 21.84 0
-1 -4 -12 77.1 11.11 0
-1 -3 -10 51.67 13.96 0
0 -4 -13 201.47 15.53 0
0 -4 17 41.26 14.74 0
0 0 4 2901.1 39.86 0
1 -7 -17 1.2 16.82 0
1 -3 16 84.79 15.59 0
1 -2 14 881.88 16.92 0
1 0 7 2755.08 26.81 0
2 -4 -15 455.1 15.36 0
2 -4 18 -12.02 15.98 0
2 -1 -9 2507.55 28.13 0
2 -1 12 173.41 15.17 0
2 0 8 78.45 9.79 0
3 -4 18 161.76 18.32 0
3 0 9 14.43 12.81 0
4 -2 -13 10.81 13.41 0
4 -2 15 40.42 14.56 0
4 1 0 888.22 22.94 0
4 1 1 138.45 18.32 0
4 1 2 17.94 17.29 0
5 -2 15 0.42 14.65 0
5 1 -2 1640.11 26.21 0
5 1 3 161.42 15.02 0
6 -5 -18 2.43 17.78 0
6 -4 -17 182.33 16.25 0
6 0 9 -9.82 9.77 0
6 1 3 85.15 12.99 0
7 -2 -14 20.67 16.25 0
7 -1 12 150.13 15.44 0
7 0 9 18.52 13.75 0
7 1 2 86.57 10.85 0
7 1 3 89.02 13.79 0
8 -2 -14 116.82 20.27 0
8 -2 14 32.69 17.54 0
8 0 8 443.58 12.16 0
8 1 -2 91.92 13.65 0
8 1 -1 126.82 14.34 0
8 1 0 424.59 16.13 0
8 1 1 748.67 17.24 0
9 -2 13 75.03 13.17 0
9 -1 11 -12.41 16.02 0
10 -1 10 126.82 17.01 0
10 0 6 183.85 12.39 0
11 -1 9 483.22 17.79 0
11 0 4 2.98 11.9 0
11 0 5 615.47 17.56 0
12 -1 -10 4.47 19.31 0
12 -1 7 32.25 14.27 0
12 0 -4 416.94 16.74 0
12 0 1 14.91 14.73 0
12 0 2 19.58 15.79 0
13 -2 -12 1.01 26.25 0
13 -1 5 125.79 13.97 0
14 -1 -6 25.15 16.92 0
14 -1 2 17.9 17.02 0
-8 -9 -2 15.66 16.16 0
-8 -8 0 10.61 15.69 0
-8 -7 4 226.24 14.8 0
-7 -7 -3 8.84 15.63 0
-7 -6 -1 521.47 16.29 0
-7 -6 9 139.68 19.61 0
-6 -9 -8 108.81 20.01 0
-6 -6 -5 -7.43 13.84 0
-6 -4 2 476.85 16.21 0
-6 -4 3 137.34 14.67 0
-6 -4 4 100.05 16.73 0
-6 -4 5 51.1 14.48 0
-5 -7 -9 21.42 11.02 0
-5 -5 -6 226.47 11.03 0
-5 -3 2 263.13 16.94 0
-5 -3 5 2.34 17.89 0
-4 -5 15 394.68 23.22 0
-3 -8 -13 710.5 21.42 0
-3 -5 -10 -6.09 14.87 0
-3 -2 9 197.54 19.32 0
-2 -4 -10 600.33 15.89 0
-2 -3 14 27.87 15.97 0
-1 -7 -15 31.07 13.2 0
-1 -6 -14 65.74 17.46 0
-1 -5 -13 8.6 14.75 0
-1 -5 18 337.54 18.61 0
-1 -3 15 66.35 14.51 0
-1 -1 -4 35.2 17.03 0
-1 -1 9 476.81 18.1 0
0 -7 -16 88.78 16.79 0
0 -6 -15 -11.81 16.27 0
0 -5 -14 49.56 15.69 0
1 -6 -16 10.72 16.77 0
1 -5 -15 56.9 15.85 0
3 -3 -14 30.99 13.22 0
3 -3 17 7.54 16 0
3 -2 15 29.3 13.66 0
4 -6 -18 222.17 19.81 0
4 -5 -17 -1.88 15.19 0
4 -4 -16 748.89 17.92 0
4 -3 17 129.31 16.77 0
4 -1 13 -5.56 14.7 0
4 0 10 372.38 14.21 0
4 1 -1 45.95 17.91 0
4 1 3 1100 21 0
5 -3 -15 7.21 13.74 0
5 -3 17 -2.79 17.66 0
5 -1 -11 201.97 16.87 0
5 -1 13 105.45 15.17 0
5 0 10 -4.54 13.07 0
5 1 4 3229.41 24.66 0
6 -2 15 68.36 17.13 0
6 -1 13 -12.21 14.82 0
6 0 10 56.07 14.01 0
6 1 -3 2487.44 29.05 0
6 1 4 -0.17 9.17 0
7 -4 -17 62.43 15.95 0
7 1 -3 16.21 14.53 0
7 1 4 1974.77 20.31 0
8 -1 12 343.98 15.19 0
8 0 9 12.76 14.01 0
8 1 -3 151.48 13.76 0
8 1 2 263.61 11.72 0
8 1 3 118.36 14.37 0
9 0 8 14.31 13.25 0
9 1 -1 421.28 15.65 0
9 1 0 70.03 14.31 0
9 1 1 172.4 14.65 0
10 0 -8 215.5 18.02 0
10 0 7 4.83 16.39 0
11 -1 -11 45.91 25.95 0
11 0 -7 294.87 17.91 0
12 -1 8 6.4 17.05 0
12 0 -5 -11.93 14.24 0
12 0 3 19.08 15.79 0
13 -1 -9 21.57 19.7 0
13 -1 6 281.32 15.43 0
14 -1 -7 202.58 18.59 0
-8 -9 -1 108.98 16.46 0
-8 -9 10 86.65 21.7 0
-8 -8 1 4.32 15.45 0
-8 -8 8 253.76 19.79 0
-7 -9 -5 33.13 16.96 0
-7 -8 -4 0.29 16.38 0
-7 -7 11 16.98 22.88 0
-7 -6 0 69.91 14.07 0
-6 -8 -7 19.53 15.81 0
-6 -7 -6 175.67 12.35 0
-6 -5 -2 118.92 15 0
-5 -9 -10 97.18 14.34 0
-5 -8 -9 16.3 15.83 0
-5 -6 -7 80.54 14.39 0
-5 -6 15 230.57 29.77 0
-5 -4 -3 -0.06 13.64 0
-5 -3 3 15.29 14.06 0
-5 -3 4 435.31 18.95 0
-4 -8 -11 578.89 18.84 0
-4 -6 -9 52.46 13.7 0
-4 -5 -8 234.06 11.49 0
-4 -4 -6 55.53 11.11 0
-4 -3 -3 47.07 14.75 0
-3 -7 -12 32.23 15.71 0
-3 -6 -11 190.91 15.52 0
-3 -4 -8 15.89 14.1 0
-3 -3 -6 1355.32 16.91 0
-2 -8 -14 -11.07 19.84 0
-2 -4 16 27.8 15.07 0
-2 -3 -8 -9.4 9.91 0
-2 -1 0 20.09 24.63 0
-1 -8 -15 20.5 18.23 0
-1 -4 17 138.56 16.07 0
-1 -2 13 100.25 15.79 0
0 -5 19 86.29 19.07 0
0 -3 -11 76.61 10.76 0
0 -3 16 70.41 14.84 0
0 -2 14 1060.71 18.01 0
0 -1 11 178.15 14.75 0
0 0 5 4.65 19.64 0
1 -4 18 41.69 15.3 0
1 -1 12 27.57 14.15 0
1 0 8 9.99 13.88 0
2 -3 -13 379.29 15.5 0
2 -3 17 362.41 16.74 0
2 -2 -11 8.44 13.93 0
2 -2 15 93.37 10.7 0
2 0 -5 5.55 23.94 0
2 0 9 7.76 12.65 0
3 -2 -12 8.09 12.75 0
3 -1 13 52.78 10.13 0
3 0 10 4.72 13.6 0
4 1 4 592.77 14.2 0
5 1 5 718.73 16.33 0
6 1 5 553.02 12.46 0
7 -5 -18 -1.39 17.71 0
7 -2 15 0.62 13.4 0
7 -1 13 434.54 17.59 0
7 0 10 16.9 13.28 0
7 1 5 -3.32 13.19 0
8 -4 -17 305.82 19.06 0
8 1 4 44.97 13.1 0
9 -4 -17 -1.16 19.24 0
9 -1 12 32.77 16.26 0
9 0 9 69.12 14.83 0
9 1 -2 471.39 15.65 0
9 1 2 127.67 14.67 0
9 1 3 66.39 14.79 0
10 -1 11 359.91 17.08 0
10 0 8 305.61 16.95 0
11 -1 10 201.03 17.08 0
11 0 6 4.59 11.99 0
12 0 -6 85.68 16.48 0
12 0 4 217.04 12.52 0
13 0 -3 515.03 17.1 0
13 0 -2 8.17 16.39 0
13 0 -1 19.48 16.25 0
13 0 0 -7.3 16.66 0
13 0 1 962.32 19.62 0
-8 -10 -1 134.11 17.82 0
-8 -9 0 57.89 15.82 0
-8 -9 9 36.05 20.23 0
-8 -8 2 676.9 17.02 0
-8 -8 3 5.51 14.97 0
-8 -8 7 103.88 18.04 0
-7 -9 -4 19.96 17.5 0
-7 -8 -3 -11.84 14.72 0
-7 -7 -2 55.38 11.65 0
-7 -6 1 19.56 14.14 0
-7 -6 8 6.41 16.75 0
-6 -9 -7 462.44 20.42 0
-6 -6 -4 421.21 12.92 0
-6 -5 10 23.06 23.72 0
-5 -7 -8 511.24 12.94 0
-5 -5 -5 73.28 13.42 0
-4 -9 -11 72.82 19.24 0
-4 -7 -10 12.8 11.68 0
-3 -6 18 7.37 22.04 0
-3 -4 15 16.68 16.13 0
-3 -2 -2 8.02 17.75 0
-2 -7 -13 6.11 15.68 0
-2 -6 -12 1013.73 20.13 0
-2 -5 -11 4.34 14.02 0
-2 -2 -5 813.68 16.56 0
-1 -7 -14 17.19 16.1 0
-1 -4 -11 476.89 15.82 0
-1 -2 -7 1647.29 19.44 0
0 -4 18 47.9 17.45 0
1 -3 17 20.5 14.44 0
1 -2 15 302.93 16.03 0
2 -7 -17 18.23 18.96 0
2 -1 13 60.99 13.38 0
3 -6 -17 32.75 17.67 0
3 -5 -16 156.78 16.83 0
3 -4 -15 18.08 14.14 0
3 -2 16 307.53 15.53 0
3 1 1 928.94 25.83 0
3 1 2 1533.09 26.8 0
3 1 3 671.26 21.3 0
4 -2 16 279.3 16.44 0
4 -1 14 6.57 13.96 0
4 0 11 2.51 12.65 0
4 1 5 531.58 13.24 0
5 -6 -18 4.27 18.67 0
5 -5 -17 -0.61 17.54 0
5 -4 -16 94.43 15.68 0
5 -2 -13 1.14 13.69 0
5 -2 16 18 15.7 0
5 -1 14 996.17 18.17 0
5 0 11 81.34 14.17 0
5 1 -3 32.4 16.47 0
5 1 6 63.45 13.62 0
6 -3 -15 167.44 17.35 0
6 -2 16 386.08 18.47 0
6 -1 14 96.97 15.31 0
6 0 11 7.69 13.43 0
6 1 6 446.59 12.08 0
7 1 -4 125.57 14.7 0
7 1 6 6.25 13.71 0
8 -2 15 68.91 15.02 0
8 -1 13 122.97 15.06 0
8 0 10 267.26 11.96 0
8 1 -4 252.57 14.91 0
8 1 5 564.47 12.57 0
9 1 -3 376.52 15.38 0
9 1 4 259.84 15.91 0
10 -1 12 47.64 16.28 0
10 1 -2 37.98 13.31 0
10 1 -1 336.85 15.25 0
10 1 0 54.14 14.01 0
10 1 1 231.32 14.77 0
10 1 2 5.54 14.66 0
11 -3 -15 -0.29 28.26 0
11 0 7 5.56 13 0
12 0 5 4.7 12.45 0
13 0 -4 12.42 15.3 0
13 0 2 -8.12 15.49 0
13 0 3 173.57 17.75 0
14 -1 -8 158.94 19.95 0
-8 -10 0 26.66 17.23 0
-8 -10 1 25.2 16.74 0
-8 -9 1 15.75 15.47 0
-8 -9 2 36.04 15.35 0
-8 -8 4 207.5 14.59 0
-8 -8 5 136.75 15.42 0
-8 -8 6 196.95 16.4 0
-7 -10 -4 55.58 19.77 0
-7 -7 -1 990.54 18.71 0
-7 -6 2 8.74 14.05 0
-6 -8 -6 47.26 12.92 0
-6 -7 -5 677.12 14.28 0
-6 -6 -3 99.69 15.27 0
-6 -5 -1 1251.55 16.34 0
-5 -9 -9 2.62 13.96 0
-5 -8 -8 85.49 15.28 0
-5 -6 -6 101.13 15.23 0
-5 -4 -2 1112.04 16.14 0
-4 -8 -10 372.07 16.97 0
-4 -5 -7 433.17 15.26 0
-4 -4 -5 -0.98 13.94 0
-4 -3 -2 171.9 15.64 0
-3 -8 -12 5.42 12.85 0
-3 -7 -11 -2.5 16.46 0
-3 -6 -10 32.17 14.5 0
-3 -5 -9 1118.95 17.72 0
-3 -3 -5 147.93 15.39 0
-3 -3 13 5.15 16.25 0
-2 -5 18 4.6 18.7 0
-2 -4 -9 8.62 13.37 0
-2 -2 12 -1.89 15.71 0
-2 -1 7 362.08 24.87 0
-1 -6 -13 85.95 16.6 0
-1 -5 -12 3.91 15.34 0
-1 -3 -9 6.25 10.56 0
-1 -1 10 6.9 15.26 0
0 -7 -15 194.13 16.76 0
0 -6 -14 53.77 15.65 0
0 -4 -12 945.2 15.51 0
0 0 6 1090.63 20.27 0
1 -7 -16 266.14 14.21 0
1 -6 -15 253.98 15.76 0
1 -1 -7 1080.52 22.82 0
1 0 -3 154 33.87 0
2 -6 -16 274.39 17.53 0
2 -4 -14 301.96 11.99 0
2 -2 16 222.62 15.32 0
2 0 10 29.16 14.09 0
3 -3 18 197.61 18.33 0
3 -1 14 5.91 14.84 0
3 0 11 575.42 16.22 0
3 1 4 398.25 18.44 0
4 -3 -14 24.31 14.09 0
4 -3 18 3.1 16.41 0
4 1 -2 461.52 22.36 0
4 1 6 672.85 15.96 0
5 1 7 120.86 13.72 0
6 1 -4 370.2 18.28 0
6 1 7 405.94 14.74 0
7 -2 16 20.52 17.02 0
7 -1 14 225.71 17.7 0
7 0 11 24.91 10.38 0
7 1 7 10.52 12.81 0
8 0 -9 1.23 27.85 0
8 0 11 -13.97 13.87 0
8 1 6 126.06 10.71 0
9 -1 13 330.97 17.95 0
9 0 10 5.31 14.46 0
9 1 -4 18.39 13.1 0
9 1 5 8.5 13.92 0
10 0 9 12.16 11.71 0
10 1 -3 9.34 13.71 0
10 1 3 16.66 14.18 0
10 1 4 58.08 14.88 0
11 0 -8 -5.35 17.3 0
11 0 8 1.39 17.91 0
12 0 -7 1.71 16.12 0
12 0 6 46.4 12.85 0
13 0 -5 172.89 16.24 0
13 0 4 -10.33 18.03 0
-8 -10 2 63.6 18.18 0
-8 -9 3 71.08 17 0
-8 -9 4 4.78 17.57 0
-8 -9 7 77.5 19.1 0
-8 -9 8 2.39 16.89 0
-7 -10 -3 84.73 18.05 0
-7 -9 -3 14.06 15.45 0
-7 -8 -2 80.64 14.65 0
-7 -8 12 70.45 24.27 0
-7 -7 0 99.86 15.01 0
-7 -6 3 130.9 13.86 0
-7 -6 4 5.13 13.21 0
-7 -6 5 955.89 19.91 0
-7 -6 6 6.05 14.94 0
-7 -6 7 70.65 14.33 0
-6 -9 -6 2.26 18.49 0
-6 -8 -5 35.15 15.76 0
-6 -7 -4 7.6 15.44 0
-6 -5 0 58.53 14.73 0
-5 -7 -7 99.13 11.9 0
-5 -5 -4 1383.93 18.77 0
-4 -7 -9 54.63 15.79 0
-4 -6 -8 57.96 13.69 0
-4 -6 17 32.35 22.3 0
-3 -9 -12 21.35 14.22 0
-3 -5 17 14.55 18.33 0
-3 -4 -7 326.72 14.97 0
-2 -8 -13 -1.69 14 0
-2 -3 -7 954.23 15.18 0
-1 -8 -14 434.08 20.4 0
-1 -5 19 14.51 18.67 0
-1 -3 16 623.15 17.9 0
-1 -1 -3 1455.39 32.17 0
0 -8 -15 26.82 16.59 0
0 -5 -13 233.49 12.84 0
0 -3 -10 3.32 14.81 0
0 -3 17 82.6 16.71 0
0 -2 15 183.42 17.4 0
0 -1 12 91.65 13.74 0
0 0 7 -2.39 15.04 0
1 -5 -14 -3.9 11.42 0
1 -4 19 56.64 18.09 0
1 -1 13 346.4 14.33 0
1 0 9 1141.55 16.42 0
2 -3 18 13.53 17.15 0
2 -1 14 254.64 14.82 0
3 -3 -13 7.03 13.57 0
3 1 0 2608.76 32.21 0
3 1 5 70.23 11.46 0
4 -6 -17 46.31 17.88 0
4 -4 -15 110.15 14.11 0
4 -2 -12 281.38 17 0
4 -1 -10 3.55 12.8 0
4 0 12 59.25 13.64 0
4 1 7 997.82 17.33 0
5 -2 17 343.33 17.38 0
5 0 12 20.75 14.73 0
6 -5 -17 37.51 17.48 0
6 -4 -16 18.82 14.93 0
6 0 12 70.35 14.3 0
6 1 8 132.62 13.55 0
7 -3 -15 12.86 16.07 0
7 0 12 -13.99 14.15 0
7 1 8 464.5 14.8 0
8 -1 14 3.07 16.68 0
8 1 7 139.29 13.54 0
9 0 -9 300.2 25.18 0
9 0 11 113.99 15.32 0
9 1 6 140.33 10.89 0
10 0 10 23.38 17.1 0
10 1 5 43.46 14.91 0
11 0 9 482.9 19.6 0
11 1 -2 4.56 13.66 0
11 1 -1 17.65 14.32 0
11 1 0 139.26 13.72 0
11 1 1 58.37 13.94 0
11 1 2 5.42 15.17 0
11 1 3 -12.97 14.16 0
12 0 7 3.05 13.54 0
13 0 5 207.55 17.86 0
14 0 -3 -2.35 17.86 0
14 0 -2 72.81 17.41 0
14 0 -1 21.15 17.52 0
14 0 0 -3.1 16.31 0
14 0 1 -9.22 18.55 0
14 0 2 70.6 19.76 0
-8 -10 3 41.07 18.61 0
-8 -10 4 2.02 16.86 0
-8 -9 5 8.43 16.23 0
-8 -9 6 5.82 16.28 0
-7 -9 -2 321.02 18.25 0
-7 -8 -1 137.06 15.36 0
-7 -7 1 145.12 13.89 0
-7 -7 10 109.21 20.4 0
-6 -10 -6 -5.26 14.55 0
-6 -6 -2 21.39 15.22 0
-6 -5 1 325.58 15.74 0
-5 -10 -8 126.34 21.4 0
-5 -9 -8 144.06 13.36 0
-5 -8 -7 394.98 16.55 0
-5 -6 -5 15.69 14.42 0
-5 -4 -1 18.67 10.71 0
-4 -9 -10 36.66 13.87 0
-4 -5 -6 19.46 14.06 0
-3 -8 -11 40.43 17.19 0
-3 -2 -1 50.49 15.09 0
-3 -2 10 119.62 19.65 0
-2 -9 -13 94.96 16.14 0
-2 -7 -12 15.94 12.22 0
-2 -6 -11 5.98 15.26 0
-2 -5 -10 -7.82 10.14 0
-2 -4 17 83.79 17.37 0
-2 -3 15 1841.66 23.38 0
-2 -2 -4 5014.55 35.7 0
-2 -1 1 84.44 22.37 0
-1 -7 -13 14.28 16.27 0
-1 -4 -10 738.56 17.01 0
-1 -4 18 61.33 17.53 0
-1 -2 -6 4.34 16.64 0
-1 -2 14 -1.93 14.2 0
1 -2 16 163.05 15.74 0
2 -7 -16 -6.29 16.43 0
2 -3 -12 12.54 14.17 0
2 -1 -8 905.16 21.81 0
2 0 11 -3.55 13.84 0
3 -2 17 213.83 17.34 0
3 -1 -9 83.6 15.56 0
3 0 -6 0 24.31 0
3 0 12 3.78 13.24 0
3 1 6 551.45 13.69 0
4 -5 -16 103.89 14.91 0
4 -2 17 6.74 12.33 0
4 -1 15 60.45 14.18 0
4 0 -7 0.92 23.03 0
4 1 8 69.04 12.84 0
5 -1 15 20.92 11.97 0
5 1 8 494.95 12.32 0
6 -2 -13 2.29 14.86 0
6 -2 17 8.5 13.61 0
6 -1 -11 32.4 16.34 0
6 -1 15 5.64 12.5 0
7 -1 15 -6.74 17.91 0
7 1 -5 95.67 16.27 0
8 -3 -15 13 17.91 0
8 0 12 102.62 15.53 0
8 1 -5 144.24 14.24 0
8 1 8 296.15 15.48 0
9 -1 14 66.99 17.47 0
9 1 -5 477.11 18.26 0
9 1 7 39.45 13.75 0
10 1 -4 192.87 14.23 0
10 1 6 11.27 15.8 0
11 1 -3 158.64 15.08 0
11 1 4 19.64 16.05 0
12 0 8 391.03 19.03 0
13 -1 -10 45.45 20.21 0
13 0 -6 4.13 14.87 0
13 0 6 -13.04 13.31 0
14 -1 -9 -6.61 21.82 0
14 0 -4 360.98 17.45 0
-8 -10 5 148.81 18.49 0
-7 -10 -2 17.41 16.23 0
-7 -9 -1 5.69 15.77 0
-7 -8 0 179.52 15.28 0
-7 -7 2 85.16 13.93 0
-6 -10 -5 2.31 19.73 0
-6 -9 -5 219.64 14.12 0
-6 -8 -4 17.13 16.53 0
-6 -7 -3 24.1 16.17 0
-5 -7 -6 173.68 14.92 0
-5 -5 -3 450.58 16.11 0
-5 -4 0 168.15 15.72 0
-4 -8 -9 439.51 13.86 0
-4 -7 -8 54.58 15.47 0
-4 -6 -7 17.25 14.73 0
-4 -4 -4 1326.92 16.41 0
-4 -4 14 163.58 22.82 0
-4 -3 -1 5264.12 32.2 0
-4 -3 11 104.91 23.69 0
-3 -9 -11 162.56 19.1 0
-3 -7 -10 41.05 15.06 0
-3 -6 -9 433.27 16.47 0
-3 -5 -8 88.51 10.88 0
-3 -3 -4 1635.61 22.24 0
-2 -8 -12 13.2 18.7 0
-2 -4 -8 119.23 14.32 0
-2 -1 8 957.52 26.74 0
-1 -6 -12 10.41 16.05 0
-1 -5 -11 123.47 16.21 0
-1 -3 -8 435.53 16.18 0
-1 -1 11 131.63 15.59 0
0 -7 -14 29.39 16.08 0
0 -4 -11 119.98 15.67 0
0 -4 19 215.71 17.92 0
0 0 8 549.14 19.48 0
1 -7 -15 25.28 15.61 0
1 -3 18 159.74 15.81 0
1 -1 14 7.05 13.53 0
1 0 10 -4.28 10.09 0
2 -6 -15 10.58 15.29 0
2 -2 -10 107.84 15.59 0
2 -2 17 12.27 15.39 0
3 -5 -15 63.75 16.25 0
3 -4 -14 184.72 15.1 0
3 -2 -11 76.69 14.47 0
3 -1 15 118.2 11.3 0
3 1 -1 529.69 25.73 0
3 1 7 83.11 10.16 0
4 0 13 -2.89 13.28 0
5 -6 -17 15.36 16.14 0
5 -3 -14 616.04 17.47 0
5 0 13 1961.5 20.35 0
5 1 9 173.22 13.52 0
6 0 13 0.6 14.63 0
6 1 9 44.45 10.02 0
7 -5 -17 -3.78 17.24 0
7 -4 -16 2.99 14.75 0
7 0 13 401.78 16.7 0
7 1 9 433.07 12.19 0
8 -1 15 461.21 19.04 0
8 1 9 20.76 14.02 0
9 -3 -15 -6.57 18.56 0
9 0 12 -16.22 16.08 0
9 1 8 529.9 16.23 0
10 -3 -15 3.52 20.08 0
10 0 11 -13.67 12.64 0
10 1 7 114.87 16.35 0
11 0 10 2.1 13.87 0
11 1 5 161.01 12.76 0
11 1 6 36.35 15.32 0
12 1 -2 321.62 17.18 0
12 1 -1 191.19 16.58 0
12 1 0 -14.17 14.64 0
12 1 1 23.23 14.82 0
12 1 2 14 16.19 0
12 1 3 19.01 16.51 0
14 0 -5 0.77 17.95 0
-7 -10 -1 27.93 18.45 0
-7 -7 3 96.04 15.29 0
-7 -7 9 68.19 17.46 0
-6 -9 -4 40.45 16.22 0
-6 -6 -1 134.14 11.62 0
-6 -5 2 39.94 12.76 0
-6 -5 9 401.4 23.16 0
-5 -10 -7 148.77 20.43 0
-5 -9 -7 4.44 13.63 0
-5 -6 -4 76.26 14.32 0
-4 -10 -9 24.24 20.01 0
-4 -9 -9 38.94 12.66 0
-4 -5 16 95.28 21.88 0
-3 -8 -10 21.25 15.72 0
-3 -4 -6 83.64 10.7 0
-3 -4 16 28.49 17.68 0
-2 -9 -12 43.95 19.87 0
-2 -7 -11 87.28 16.28 0
-2 -3 -6 302.55 16.44 0
-2 -2 13 1016.14 19.78 0
-1 -8 -13 527.34 19.68 0
0 -8 -14 129.5 17.6 0
0 -6 -13 30.16 12.23 0
0 -5 -12 469.73 17.4 0
0 -1 13 357.75 15.04 0
1 -8 -15 119.82 17.38 0
1 -6 -14 33.58 15.2 0
1 -5 -13 96.27 15.99 0
1 -4 -12 222.9 15.3 0
2 -8 -16 112.55 19.87 0
2 -3 19 -5.58 18.05 0
2 -1 15 232.49 14.82 0
2 0 12 2328.84 22.13 0
2 1 2 41.66 23.68 0
2 1 3 772.46 19.78 0
2 1 4 2785.12 27.63 0
2 1 5 36.76 17.57 0
3 0 13 131.87 13.8 0
3 1 8 17.36 13.03 0
4 -7 -17 42.54 17.51 0
4 -2 18 56.91 18.01 0
4 -1 16 365.87 17.16 0
4 1 9 19.29 9.41 0
5 -5 -16 10.58 16.24 0
5 -4 -15 447.83 16.83 0
5 -1 16 26.96 14.76 0
5 1 -4 22.88 15.69 0
5 1 10 240.83 13.46 0
6 -1 16 479.85 17.56 0
6 1 10 54.19 13.82 0
7 -1 16 75.38 19.03 0
7 1 10 383.56 14.59 0
8 -5 -17 226.73 19.83 0
8 -4 -16 39.87 18.76 0
8 0 13 26.11 11.79 0
9 1 9 204.55 16.18 0
10 0 -9 0.84 19.71 0
10 0 12 153.1 18.28 0
10 1 -5 479.76 16.48 0
10 1 8 559.88 17.75 0
11 1 -4 21.99 14.39 0
11 1 7 -10.55 17.37 0
12 -1 -11 297.15 30.97 0
12 0 -8 225.55 19.13 0
12 1 -3 26.12 16.07 0
12 1 4 202.4 15.84 0
12 1 5 64.87 16.03 0
13 0 -7 11.62 17.93 0
-7 -10 0 0.09 16.6 0
-7 -9 0 10.13 15.33 0
-7 -8 1 57.28 12.05 0
-7 -8 11 326.16 20.97 0
-7 -7 4 7.47 14.1 0
-7 -7 8 6.66 16.54 0
-6 -10 -4 104.08 18.66 0
-6 -8 -3 105.3 16.19 0
-6 -7 -2 199.06 15.6 0
-6 -6 0 -5.29 14.56 0
-6 -6 12 698.5 33.89 0
-6 -5 3 1263.89 19.88 0
-5 -8 -6 159.41 12.75 0
-5 -7 -5 35.25 14.63 0
-5 -5 -2 36.94 15.23 0
-5 -4 1 289.54 16.84 0
-4 -8 -8 264.97 16.07 0
-4 -5 -5 987.73 14.91 0
-4 -4 -3 212.28 14.85 0
-4 -3 0 395.26 18.26 0
-3 -9 -10 75.21 16.18 0
-3 -7 -9 88.94 14.53 0
-3 -5 -7 272.23 15.25 0
-3 -3 14 40.06 16.71 0
-3 -2 0 8.03 13.93 0
-2 -6 -10 480.15 15.69 0
-2 -5 -9 10.26 10.53 0
-2 -5 19 419.69 22.05 0
-1 -9 -13 116.83 19.78 0
-1 -7 -12 -1.24 16.81 0
-1 -3 17 33.21 15.4 0
-1 -2 15 32.54 14.85 0
0 -9 -14 89.45 18.36 0
0 -3 -9 42.58 15.07 0
0 -3 18 -2.29 16 0
0 -2 16 18.71 13.8 0
0 0 9 -3.2 15.62 0
1 -2 17 62.16 15.61 0
1 0 11 649.61 13.6 0
2 1 6 204.01 12.93 0
3 -7 -16 277.58 18.92 0
3 -2 18 42.93 16.63 0
3 -1 16 117.33 14.76 0
3 1 9 511.92 15.41 0
4 -6 -16 385.33 18.97 0
4 -3 -13 470.31 16.44 0
4 0 14 541.05 16.12 0
4 1 -3 1528.66 32.73 0
4 1 10 109.78 13.35 0
5 0 14 -5.81 14.38 0
6 -6 -17 5.83 16.11 0
6 -3 -14 49.72 15.61 0
6 0 14 155.41 15.84 0
6 1 -5 981.92 26.55 0
7 -2 -13 16.52 15.48 0
7 0 14 1.96 17.31 0
8 0 14 15.05 16.42 0
8 1 10 17.67 11.1 0
9 -4 -16 8.35 19.2 0
9 0 13 11.74 12.93 0
9 1 10 -11.26 15.66 0
10 -4 -16 -5.87 21.73 0
10 1 9 18.38 17.11 0
11 1 8 150.31 18.31 0
12 1 6 130.99 18.18 0
13 1 -1 4.74 16.39 0
13 1 0 198.99 17.84 0
13 1 1 142.65 17.6 0
13 1 2 202.81 18.19 0
13 1 3 0 17.59 0
14 0 -6 -1.84 18.43 0
-7 -10 1 190.01 17.16 0
-7 -9 1 14.79 16.29 0
-7 -8 2 133.07 14.76 0
-7 -7 5 1.29 14.64 0
-7 -7 6 0.32 14.36 0
-7 -7 7 8.28 14.51 0
-6 -10 -3 5.65 16.8 0
-6 -9 -3 601.56 18.84 0
-6 -7 -1 754.33 16.74 0
-6 -5 4 1135.48 19.64 0
-6 -5 5 716.41 19.46 0
-6 -5 8 160.61 18.67 0
-5 -10 -6 316.8 21.18 0
-5 -9 -6 12.59 13.23 0
-4 -10 -8 7.75 17.89 0
-4 -9 -8 78.75 16.55 0
-4 -7 -7 66.52 11.37 0
-4 -6 -6 995.8 14.55 0
-3 -10 -10 198.08 19.05 0
-3 -6 -8 48.15 11.11 0
-3 -5 18 28.21 21.23 0
-3 -3 -3 86 16.85 0
-2 -8 -11 25.75 15.56 0
-2 -3 16 1.53 14.9 0
-2 -2 -3 141.01 15.96 0
-2 -1 9 2701.81 32.66 0
-1 -6 -11 -7.13 15.4 0
-1 -5 -10 243.5 15.4 0
-1 -4 -9 243.88 11.41 0
-1 -4 19 27.02 19.71 0
-1 -1 -2 19.45 28.06 0
-1 -1 12 1633.14 21.66 0
0 -7 -13 378.19 18.72 0
0 -2 -7 28.24 11.39 0
0 -1 14 25.48 13.23 0
1 -7 -14 71.25 16.51 0
1 -3 19 17.43 17.58 0
1 -1 -6 1.2 18.11 0
1 -1 15 261.56 14.83 0
2 -7 -15 25.73 16.06 0
2 -2 18 9.53 16.49 0
2 -1 16 61.18 14.34 0
2 0 13 -8.86 14.46 0
2 1 1 125.47 25.63 0
2 1 7 1315.18 17.37 0
3 -3 -12 1162.42 19.4 0
4 -5 -15 420.28 17.21 0
4 -4 -14 162.7 15.72 0
4 -1 17 2.4 15.14 0
5 -2 -12 11.7 13.16 0
5 -1 17 -17.13 18.02 0
5 1 11 390.49 14.81 0
6 -5 -16 72.81 17.25 0
6 -1 17 21.96 17.73 0
6 1 11 416.03 12.04 0
7 -1 -11 390.01 23.9 0
7 1 11 242.7 11.2 0
7 2 2 100.95 15.12 0
7 2 3 145.88 15.52 0
7 2 4 102.49 14.4 0
8 1 -6 250.65 19.1 0
8 1 11 1405.85 19.07 0
8 2 1 938.76 18.07 0
8 2 2 224.1 15.62 0
8 2 3 564.95 16.66 0
8 2 4 -16.26 14.07 0
9 0 14 11.51 18.26 0
9 1 -6 434.46 20.2 0
9 2 2 182.69 14.54 0
10 1 10 125.07 16.84 0
11 0 -9 141.63 22.74 0
11 1 -5 50.98 13.83 0
11 1 9 467.1 18.17 0
12 1 -4 15.92 14.83 0
12 1 7 50.47 16.96 0
13 1 -2 48.61 16.21 0
13 1 4 16.86 16.08 0
13 1 5 136.81 19.66 0
-7 -10 2 12.06 16.52 0
-7 -9 2 1337.95 20.43 0
-7 -8 3 20.8 13.94 0
-7 -8 4 59.47 16.13 0
-7 -8 10 32.91 19.78 0
-6 -8 -2 16.36 11.63 0
-6 -6 1 48.54 13.79 0
-6 -5 6 100.95 15.02 0
-6 -5 7 15.47 17.57 0
-5 -8 -5 -4.76 12.03 0
-5 -7 -4 882.06 18.59 0
-5 -6 -3 407.76 12.67 0
-5 -5 -1 740.81 17.97 0
-5 -4 2 82.94 15.49 0
-4 -8 -7 87.05 16.92 0
-4 -5 -4 592.46 16.38 0
-4 -3 1 1140.27 22.95 0
-3 -8 -9 414.84 16.66 0
-3 -4 -5 14.8 10.35 0
-3 -2 11 75.76 17.89 0
-2 -9 -11 -2.21 17.09 0
-2 -7 -10 63.51 15.52 0
-2 -4 -7 289.02 11.8 0
-2 -4 18 133.21 17.17 0
-2 -3 -5 1527.07 21.62 0
-1 -8 -12 13.57 16.11 0
-1 -3 -7 215.42 15.64 0
-1 -2 -5 717.45 17.62 0
0 -8 -13 62.85 16.74 0
0 -6 -12 435.97 17.61 0
0 -5 -11 7.13 14.63 0
0 -4 -10 458.82 17.13 0
0 0 10 2813.63 26.36 0
1 -6 -13 504.81 17.48 0
1 0 12 3.29 12.99 0
2 -8 -15 266.49 18.04 0
2 -6 -14 34.84 15.85 0
2 -3 -11 161.92 14.26 0
2 1 8 89.21 9.87 0
3 -5 -14 67.49 15.45 0
3 -4 -13 35.27 14.23 0
3 -1 17 703.7 17.67 0
3 0 14 6.72 10.69 0
3 1 10 7.33 13.41 0
4 0 15 17.51 14.37 0
4 1 11 158.41 10.49 0
5 -1 -10 350.86 18.5 0
5 0 15 59.6 15.38 0
5 1 12 12.29 13.25 0
6 -4 -15 73.26 15.22 0
6 0 15 15.33 12.69 0
6 1 12 7.22 14.16 0
6 2 2 100.02 13.9 0
6 2 3 177.97 11.1 0
6 2 4 319.48 11.43 0
6 2 5 28.02 13.09 0
7 -6 -17 152.04 18.77 0
7 0 15 33.45 16.53 0
7 1 12 161.98 15.27 0
7 2 0 158.05 14.43 0
7 2 1 44.34 10.46 0
7 2 5 19.86 10.26 0
7 2 6 899.15 16.67 0
8 -2 -13 16.28 18.3 0
8 0 15 8.44 18.98 0
8 1 12 343.1 15.62 0
8 2 0 86.67 14.64 0
8 2 5 23.69 10.35 0
8 2 6 418.25 15.58 0
9 1 11 4.11 11.77 0
9 2 0 84.63 14.29 0
9 2 1 655.47 16.78 0
9 2 3 38.55 10.5 0
9 2 4 21.79 10.6 0
9 2 5 1042.22 18.15 0
10 1 -6 294.72 17.51 0
10 2 2 227.67 15.8 0
10 2 3 82.69 15.84 0
11 1 10 220.54 17.41 0
12 1 8 24.41 18.18 0
13 0 -8 2.92 19.12 0
13 1 -3 95.6 16.46 0
13 1 6 297.29 18.46 0
14 1 0 48.14 17.08 0
14 1 1 11.79 18.12 0
14 1 2 21.43 19.16 0
-7 -10 3 -1.04 16.19 0
-7 -9 3 43.71 16.29 0
-7 -9 11 27.3 21.11 0
-7 -8 5 15.69 14.79 0
-7 -8 9 866.06 23.14 0
-6 -10 -2 9.42 18.59 0
-6 -9 -2 -1.66 12.25 0
-6 -8 -1 15.07 15.67 0
-6 -7 0 135.47 14.87 0
-6 -6 2 15.99 14.83 0
-5 -10 -5 109.61 17.63 0
-5 -9 -5 27.26 12.71 0
-4 -10 -7 4.06 17.95 0
-4 -9 -7 61.29 17.55 0
-4 -7 -6 166.37 15.38 0
-4 -6 -5 53.09 14.34 0
-4 -4 -2 27.89 10.17 0
-3 -10 -9 59.36 19.47 0
-3 -9 -9 55.34 16.42 0
-3 -7 -8 75.08 15.3 0
-3 -6 -7 2784.83 22.75 0
-3 -5 -6 90.92 15.14 0
-3 -2 1 426.2 21.04 0
-2 -8 -10 665.93 17.66 0
-2 -6 -9 59.73 11.12 0
-2 -5 -8 11.43 10.54 0
-2 -2 14 15.52 14.21 0
-2 -1 2 111.7 30.37 0
-2 -1 10 318.97 20.21 0
-1 -9 -12 431.8 15.74 0
-1 -7 -11 25.37 17.38 0
-1 -3 18 128.7 17.69 0
-1 -2 16 64.98 16.19 0
-1 -1 13 16.4 12.66 0
0 -9 -13 231.96 21.37 0
0 -3 19 752.49 18.65 0
0 -2 17 5.71 14.5 0
1 -9 -14 21.14 18.17 0
1 -8 -14 61.09 13.29 0
1 -5 -12 670.07 17.58 0
1 -4 -11 86.71 14.94 0
1 -2 18 8.27 16.58 0
2 0 14 1350.03 18.93 0
2 1 9 300.91 14.25 0
3 -2 19 253.04 17.8 0
3 1 11 112.91 14.49 0
4 -2 -11 28.11 13.16 0
4 1 12 763.93 17.39 0
5 -6 -16 -5.26 15.5 0
5 -1 18 130.09 17.02 0
5 2 3 29.91 13.99 0
5 2 4 372.13 15.2 0
5 2 5 132.53 14.19 0
5 2 6 730.68 15.68 0
6 2 1 4.77 10.46 0
6 2 6 50.72 10 0
6 2 7 100.38 14 0
7 -5 -16 83.04 17.93 0
7 -3 -14 493.8 18.61 0
7 2 7 39.44 9.94 0
8 2 -1 -6.38 13.55 0
8 2 7 402.73 15.01 0
9 1 12 33.33 17.02 0
9 2 -1 703.71 17.64 0
9 2 6 1.78 10.96 0
9 2 7 119.02 15.73 0
10 1 11 344.75 14.16 0
10 2 0 504.49 16.19 0
10 2 1 110.92 10.52 0
10 2 4 185.63 12.1 0
10 2 5 15.9 15.79 0
10 2 6 369.53 16.12 0
11 -2 -13 30.88 28.58 0
11 1 -6 254.26 17.46 0
11 2 2 643.57 16.64 0
11 2 3 513.55 16.06 0
12 1 -5 -9.3 15.05 0
13 1 -4 684.9 19.03 0
14 0 -7 9 17.61 0
14 1 -2 3.91 16.03 0
14 1 -1 357.29 17.84 0
-7 -10 4 20.86 17.46 0
-7 -9 4 2.67 15.99 0
-7 -9 5 5.53 17.02 0
-7 -9 10 159.58 21.1 0
-7 -8 6 2.84 14.94 0
-7 -8 7 167.27 15.92 0
-7 -8 8 30.86 16.37 0
-6 -9 -1 194.16 16.92 0
-5 -9 -4 25.55 15.38 0
-5 -8 -4 132.27 12.3 0
-5 -7 -3 351.99 17.12 0
-5 -6 -2 177.83 12.11 0
-5 -5 0 23.08 15.25 0
-5 -4 3 7.08 14.44 0
-4 -8 -6 23.29 15.47 0
-4 -6 18 205.7 27.57 0
-3 -8 -8 37.31 15.71 0
-3 -4 17 38.02 19.22 0
-3 -3 -2 383.98 19.16 0
-3 -3 15 15.55 17.17 0
-2 -9 -10 14.34 18.03 0
-1 -6 -10 -3.18 15.29 0
-1 -4 -8 16.07 15.14 0
0 -7 -12 -2.84 16.22 0
0 -3 -8 96.53 14.7 0
0 -1 15 180.48 15.66 0
0 0 11 5.18 13.22 0
1 -7 -13 9.7 15.07 0
1 -1 16 816.7 14.68 0
1 0 13 41.55 13.83 0
2 -7 -14 2.87 16.85 0
2 -2 -9 52.99 15.87 0
2 -2 19 6.56 17.61 0
2 -1 -7 356.14 19.25 0
2 -1 17 30.1 15.9 0
2 1 10 143 14.79 0
3 -7 -15 -5.72 16.09 0
3 -2 -10 107.76 15.12 0
3 0 15 41.49 11.11 0
3 1 -2 3330.57 46.99 0
4 -6 -15 21.98 16.02 0
4 -1 -9 107.17 18.41 0
4 -1 18 29.31 17.61 0
5 -5 -15 -9.73 15.26 0
5 -4 -14 280.09 16.29 0
5 -3 -13 49.4 13.73 0
5 0 16 11.2 15 0
5 1 13 109.73 15.38 0
5 2 2 214.77 11.65 0
5 2 7 1256.12 18.08 0
6 0 16 1.99 12.82 0
6 1 13 14.59 11.52 0
6 2 0 190.88 15.56 0
6 2 8 16.32 13.46 0
7 -4 -15 736.42 18.92 0
7 0 16 6.96 14.12 0
7 1 -6 228.85 18.28 0
7 1 13 411.34 12.84 0
7 2 -1 2066.98 23.87 0
7 2 8 349.53 12.24 0
8 1 13 96.05 15.93 0
8 2 8 12.62 11.01 0
9 -2 -13 5.54 21.02 0
9 1 13 348.8 16.99 0
9 2 8 -3.64 15.6 0
10 1 12 33.37 16.81 0
10 2 -1 78.69 14.26 0
10 2 7 590.03 17.92 0
11 2 0 12.98 14.61 0
11 2 1 97.34 15.26 0
11 2 4 420.15 13.27 0
11 2 5 192.79 16.83 0
14 1 -3 124.84 18.76 0
-7 -10 5 189.95 18.69 0
-7 -10 6 12.15 16.02 0
-7 -10 7 362.36 22.03 0
-7 -9 6 105.22 16.92 0
-7 -9 7 54.07 16.81 0
-7 -9 8 14.1 19.12 0
-7 -9 9 34.21 16.77 0
-6 -10 -1 4.03 13.35 0
-6 -8 0 179.38 14.89 0
-6 -7 1 316.11 12.34 0
-6 -6 3 96.07 13.82 0
-6 -6 11 9.7 21.95 0
-5 -10 -4 17.45 14.08 0
-5 -4 4 75.9 18.52 0
-4 -10 -6 184.13 18.16 0
-4 -9 -6 50.92 17.42 0
-4 -7 -5 250.69 16.5 0
-4 -5 -3 581.25 13.32 0
-4 -4 -1 96.58 14.99 0
-4 -4 15 123.5 21.67 0
-4 -3 2 71.67 16.15 0
-4 -3 12 74.7 23.27 0
-3 -10 -8 17.92 17.61 0
-3 -9 -8 249.94 17.87 0
-3 -4 -4 84.2 10.92 0
-3 -2 12 15.34 17.13 0
-2 -10 -10 397.75 16.06 0
-2 -7 -9 3.58 14.77 0
-2 -4 -6 151.36 15.89 0
-2 -3 17 9.92 15.69 0
-2 -2 -2 13.15 16.54 0
-1 -9 -11 48.4 16.88 0
-1 -8 -11 76.81 12.62 0
-1 -5 -9 6.24 10.44 0
-1 0 6 -1.72 18.58 0
-1 0 7 381.33 19.96 0
0 -8 -12 236.76 17.73 0
0 -6 -11 89.74 16.5 0
0 -2 -6 510.23 20.88 0
1 1 4 32.02 22.75 0
1 1 5 1033.92 19.54 0
1 1 6 62.5 12.93 0
1 1 7 8.02 15.68 0
2 0 15 2.97 13.63 0
2 1 0 26.98 25.51 0
3 -8 -15 77.63 18.85 0
3 -1 -8 952.7 22.49 0
3 -1 18 6.49 15.68 0
3 1 12 7.91 13.53 0
4 -5 -14 364.55 16.26 0
4 -3 -12 94.86 15.74 0
4 0 16 596.5 14.07 0
4 1 13 -28.73 14.34 0
4 2 4 1226.27 19.58 0
4 2 5 185.43 14.69 0
4 2 6 109.87 14.15 0
5 -7 -16 13 17.99 0
5 2 1 607.52 15.1 0
5 2 8 340.92 11.49 0
6 -6 -16 230.05 18.12 0
6 -2 -12 950.49 21.85 0
6 1 14 56.23 16.64 0
6 2 -1 18.75 14.86 0
6 2 9 11.03 13.23 0
7 1 14 221.05 17.42 0
7 2 9 315.11 11.32 0
8 -5 -16 70.69 17.17 0
8 -3 -14 3.28 15.76 0
8 1 14 17.79 16.09 0
8 2 -2 259.89 14.93 0
8 2 9 23.43 10.44 0
9 2 -2 97.43 14.05 0
9 2 9 48.74 15.48 0
10 -2 -13 28.89 24.44 0
10 2 -2 668.58 17.57 0
10 2 8 417.45 17.02 0
11 2 -1 289.15 16.56 0
11 2 6 7.85 12.17 0
11 2 7 34.57 17.99 0
12 0 -9 1.82 19.91 0
12 1 -6 27.96 16.36 0
12 2 1 30.48 16.2 0
12 2 2 483.72 18.41 0
12 2 3 -13.88 17.19 0
12 2 4 465.98 18.26 0
12 2 5 5.93 15.79 0
13 1 -5 53 16.02 0
-7 -10 8 85.04 18.59 0
-6 -11 0 25.09 17.76 0
-6 -10 0 22.69 17.75 0
-6 -9 0 42.55 15.31 0
-6 -8 1 69 15.32 0
-6 -7 2 31 14.5 0
-6 -6 4 1968.54 22.68 0
-5 -11 -3 24.21 18.98 0
-5 -10 -3 49.63 16.89 0
-5 -9 -3 -16.4 18.15 0
-5 -8 -3 26.16 12.05 0
-5 -7 -2 5.02 15.88 0
-5 -6 -1 4.36 10.74 0
-5 -5 1 96.31 15.27 0
-5 -4 10 81.53 29.28 0
-4 -6 -4 3.92 10.9 0
-4 -5 17 2.47 24.4 0
-3 -7 -7 -1.65 10.72 0
-3 -6 -6 43.87 14.91 0
-3 -5 -5 201.38 15.44 0
-2 -8 -9 8.69 15.96 0
-2 -6 -8 20.7 11.13 0
-2 -5 -7 398.77 16.17 0
-2 -4 19 15.34 20.09 0
-2 -3 -4 1.69 16.79 0
-2 -2 15 417 16.69 0
-2 -1 11 24.92 14.68 0
-1 -10 -11 17.94 15 0
-1 -7 -10 357.93 17.16 0
-1 -3 -6 131.88 16.69 0
-1 -2 -4 885.84 24.37 0
-1 -1 14 9.98 13.72 0
-1 0 5 4923.78 49.75 0
-1 0 8 13.1 17.06 0
0 -9 -12 56.46 19.69 0
0 -5 -10 62.57 15.21 0
0 -4 -9 79.93 14.45 0
0 -2 18 27.25 16.48 0
0 0 12 38.78 12.88 0
1 -9 -13 26.95 18.05 0
1 -8 -13 33.33 16.06 0
1 -6 -12 14.8 15 0
1 -2 19 22.94 17.47 0
1 -1 17 81.57 16.22 0
1 0 14 -3.1 14.04 0
1 1 8 137.86 14.6 0
2 -9 -14 -17.36 17.88 0
2 -8 -14 46.41 13.28 0
2 -6 -13 3.89 14.67 0
2 -1 18 46.62 15.14 0
2 1 11 29.61 10.02 0
3 -3 -11 56.18 13.27 0
3 0 16 0.76 13.51 0
3 1 13 52.93 13.87 0
4 -4 -13 16.76 15.5 0
4 2 3 173.05 12.33 0
4 2 7 78.52 10.13 0
4 2 8 296.44 14.73 0
5 0 17 83.48 16.23 0
5 1 14 951.31 15.1 0
5 2 0 195.01 17.87 0
5 2 9 170.95 10.2 0
6 -5 -15 -6.3 17.04 0
6 0 17 7.87 13.66 0
6 2 10 264.66 13.84 0
7 2 -2 170.13 15.49 0
7 2 10 409.73 12 0
8 -4 -15 47.23 18.35 0
8 2 10 14.1 11.06 0
9 -5 -16 -4.98 19.28 0
9 1 14 66.11 17.04 0
9 2 10 27.88 15.43 0
10 2 9 11.6 12.74 0
11 2 -2 289.3 15.97 0
11 2 8 -3.54 16.62 0
12 2 -1 407.55 17.35 0
12 2 0 13.98 14.57 0
12 2 6 179.53 16.78 0
12 2 7 25.88 17.13 0
13 -1 -11 1.79 30.2 0
13 2 3 159.1 16.61 0
14 0 -8 120.16 19.89 0
14 1 -4 4.12 17.46 0
-6 -11 1 -1.62 19.79 0
-6 -10 1 76.02 17.88 0
-6 -9 1 69.47 17.01 0
-6 -8 14 36.22 26.41 0
-6 -7 3 339.85 15.28 0
-6 -7 13 150.1 25.4 0
-6 -6 5 197.97 15.23 0
-5 -8 -2 23.79 15.87 0
-5 -4 5 444.63 18.21 0
-4 -11 -5 347.52 21.71 0
-4 -10 -5 4.96 17.53 0
-4 -9 -5 25.01 16.45 0
-4 -8 -5 59.34 12.04 0
-4 -5 -2 -1.85 14.67 0
-3 -9 -7 58 16.41 0
-3 -8 -7 90.23 14.97 0
-3 -5 19 81 22.53 0
-3 -2 2 259.04 21.2 0
-2 -10 -9 1.84 19.36 0
-2 -9 -9 -7.58 16.63 0
-1 -8 -10 508.29 17.37 0
-1 -6 -9 1137.15 18.06 0
-1 -3 19 8.8 16.92 0
-1 -2 17 3.75 15.55 0
-1 0 9 314.2 17.72 0
0 -7 -11 34.31 16.44 0
0 -3 20 12.04 17.92 0
0 -1 16 62.92 14.33 0
1 -5 -11 556.4 17.09 0
1 -4 -10 304.46 16.45 0
1 1 3 1483.02 27.1 0
1 1 9 1420.88 17.57 0
2 -5 -12 10.95 14.99 0
2 -3 -10 137.22 11.33 0
2 0 16 1007.77 17.15 0
2 1 12 182.33 15.31 0
3 -7 -14 18.78 15.96 0
3 -4 -12 138.07 14.87 0
3 -1 19 72.37 18.32 0
4 0 17 10.32 12.35 0
4 1 14 5.46 10.88 0
4 2 2 1153.52 18.39 0
4 2 9 931.87 16.65 0
5 -6 -15 241.56 17.28 0
5 1 15 -1.01 15.01 0
5 2 10 41.13 9.94 0
6 -7 -16 36.09 19.74 0
6 -4 -14 12.23 16.3 0
6 -3 -13 61.53 15.86 0
6 1 15 -2.8 15.59 0
6 2 11 20.16 14.42 0
7 -6 -16 13.54 17.8 0
7 1 15 -7.78 16.7 0
7 2 11 12.51 10.38 0
8 -1 -11 6.25 21.71 0
8 1 15 428.24 21.2 0
8 2 -3 139.33 14.25 0
8 2 11 23.24 11.42 0
9 -3 -14 16.26 18.51 0
9 1 -7 33.26 17.95 0
9 2 -3 478.2 16.36 0
9 2 11 82.28 16.7 0
10 1 -7 9.58 16.81 0
10 2 -3 14.53 14.37 0
10 2 10 12.97 12.59 0
11 2 9 46.54 14.12 0
12 2 -2 151.54 14.32 0
12 2 8 272.53 20.99 0
13 2 0 9.8 17.02 0
13 2 1 20.14 16.01 0
13 2 2 26.36 12.57 0
13 2 4 95.26 17.19 0
13 2 5 312.97 20.1 0
-6 -11 2 14.92 19.31 0
-6 -9 2 38.2 14.71 0
-6 -8 2 106.92 14.59 0
-6 -6 6 541.54 17.98 0
-6 -6 7 23.51 16.99 0
-6 -6 10 69.52 19.08 0
-5 -11 -2 -3.26 18.05 0
-5 -10 -2 149.55 17.94 0
-5 -9 -2 537.49 18.78 0
-5 -7 -1 463.87 16.92 0
-5 -6 0 8.19 14.48 0
-5 -5 2 1606.34 21.74 0
-5 -4 6 1806.03 29.29 0
-4 -7 -4 968.54 14.97 0
-4 -6 -3 62.4 14.91 0
-4 -4 0 295.43 17.31 0
-4 -3 3 2370.88 30.57 0
-3 -10 -7 16.3 13.19 0
-3 -7 -6 36.52 15.24 0
-3 -4 -3 1210.94 17.15 0
-3 -3 -1 257.6 14.93 0
-2 -7 -8 94.08 11.07 0
-2 -3 18 45.38 19.46 0
-2 -1 12 1204.57 21.33 0
-1 -10 -10 44.86 19.04 0
-1 -9 -10 -4.22 17.81 0
-1 -5 -8 437.36 16.25 0
-1 -4 -7 1793.75 18.72 0
-1 -1 -1 12.73 29.91 0
-1 -1 15 386.1 18.31 0
-1 0 4 2.94 22.68 0
-1 0 10 -3.7 15.63 0
0 -8 -11 -16.27 15.99 0
0 0 13 6.1 9.68 0
1 -7 -12 295.21 16.93 0
1 0 15 92.51 14.33 0
1 1 10 175.85 14.3 0
2 -7 -13 436.21 16.98 0
3 0 17 162.17 15.94 0
3 1 14 -4.22 15.48 0
3 2 5 -2.42 15.17 0
3 2 6 14.7 14.22 0
3 2 7 67.59 14.01 0
4 -8 -15 14.67 16.5 0
4 -6 -14 11.11 14.28 0
4 1 15 41.11 16.58 0
4 2 1 0.86 16.91 0
4 2 10 370.36 14.57 0
5 -2 -11 2.07 15 0
5 0 18 -6.4 19.49 0
5 2 11 644.24 12.81 0
6 2 -2 984.29 21.04 0
6 2 12 22.89 14.66 0
7 1 16 62.68 17.07 0
7 2 12 87.66 13.94 0
8 2 12 14.54 15.02 0
9 -4 -15 45.01 16.98 0
9 2 12 8.04 17.36 0
10 2 11 -2.03 12.81 0
11 1 -7 90.07 16.94 0
11 2 -3 102.3 15.33 0
11 2 10 123.4 14.92 0
12 -3 -14 0.9 24.12 0
13 0 -9 307.81 23 0
13 1 -6 11.88 15.81 0
13 2 -1 212.9 17.79 0
14 1 -5 1.27 16.92 0
-6 -11 3 171.6 19.94 0
-6 -10 2 324.15 14.5 0
-6 -8 3 23.54 15.09 0
-6 -7 4 543 17.15 0
-6 -6 8 671.61 20.85 0
-6 -6 9 9.8 16.59 0
-5 -11 -1 162.67 18.61 0
-5 -8 -1 82.23 15.33 0
-5 -4 7 70.57 17.66 0
-5 -4 9 166.24 25.18 0
-4 -11 -4 14.97 19.93 0
-4 -10 -4 132.06 17.8 0
-4 -9 -4 24.28 15.97 0
-4 -8 -4 167.92 16.4 0
-3 -11 -6 14.13 18.69 0
-3 -8 -6 16.33 15.44 0
-3 -6 -5 232.11 15.41 0
-3 -5 -4 152.42 15.42 0
-3 -4 18 274.24 20.3 0
-3 -3 16 393.46 20.05 0
-3 -2 13 -4.05 17.54 0
-2 -10 -8 104.57 17.22 0
-2 -9 -8 49.99 16.35 0
-2 -8 -8 54.72 15.61 0
-2 -6 -7 137.5 11.46 0
-2 -5 -6 34.08 14.97 0
-2 -4 -5 1610.86 18.6 0
-2 -2 -1 273.45 25.32 0
-2 -2 16 3 16.61 0
-1 -7 -9 449.9 17.64 0
0 -10 -11 46.75 20.35 0
0 -9 -11 170.75 19.08 0
0 -6 -10 738.73 14.79 0
0 -3 -7 592.73 17.82 0
0 -2 19 390.37 18.4 0
0 -1 17 168.96 15.58 0
0 0 14 55.5 13.81 0
1 -10 -12 96.09 19.51 0
1 -9 -12 18.02 17.6 0
1 -8 -12 32.75 16.08 0
1 -6 -11 19.9 14.68 0
1 -2 20 8.42 18.29 0
1 -1 -5 734.94 21.58 0
1 -1 18 -3.85 14.4 0
1 1 11 68.51 14.91 0
2 -9 -13 259.79 17.99 0
2 -8 -13 403.13 18.47 0
2 -1 19 441.61 19.63 0
2 1 13 63.02 10.9 0
3 -9 -14 13.04 19.95 0
3 -8 -14 12.29 13.64 0
3 -6 -13 114.16 15.23 0
3 2 4 81.72 11.56 0
3 2 8 28.74 9.59 0
3 2 9 889.59 16.73 0
4 0 18 67.26 15.75 0
4 2 11 1645.12 18.45 0
5 -7 -15 31.79 18.12 0
5 -5 -14 55.65 14.21 0
5 1 -5 620.35 31.65 0
5 1 16 6.46 17.17 0
5 2 -1 138.8 17.19 0
5 2 12 14.95 13.72 0
6 -6 -15 68.11 18.56 0
6 -1 -10 68.47 18.93 0
6 1 16 478.66 15.36 0
6 2 13 64.57 14.29 0
7 -5 -15 258.75 17.09 0
7 -2 -12 97.39 17.26 0
7 2 -3 12.58 14.5 0
7 2 13 58.75 15.48 0
8 -6 -16 265.16 19.56 0
8 2 13 80.6 16.67 0
8 3 5 173.93 14.69 0
9 2 13 65.4 16.15 0
9 3 4 450.2 16.42 0
9 3 5 18.75 14.56 0
10 -4 -15 0.77 19.65 0
10 -3 -14 18.27 18.6 0
10 2 -4 1444.42 22.57 0
10 2 12 58.45 17.31 0
11 -3 -14 -1.73 20.88 0
12 1 -7 449.88 19.4 0
12 2 -3 77.74 15.98 0
13 2 -2 20.09 16.74 0
14 2 0 83.39 18.68 0
14 2 1 12.95 16.99 0
-6 -10 3 25.57 16.05 0
-6 -9 3 34.16 15.91 0
-6 -8 4 9.47 13.7 0
-6 -7 5 645.52 18.14 0
-6 -7 12 266.48 22.08 0
-5 -10 -1 61.86 17.23 0
-5 -9 -1 116.91 16.44 0
-5 -7 0 119.03 15.72 0
-5 -6 1 41.14 15.86 0
-5 -5 3 868.19 18.62 0
-5 -4 8 11.56 20.07 0
-4 -7 -3 545.37 17.28 0
-4 -5 -1 283.42 16.65 0
-4 -3 13 490.41 27.4 0
-3 -10 -6 -8.33 17.25 0
-3 -9 -6 592.84 18.02 0
-2 -4 20 136.11 21.48 0
-2 -3 -3 117.66 18.56 0
-2 -1 13 390.17 17.71 0
-1 -8 -9 -19.37 15.34 0
-1 -3 -5 177.15 18.21 0
-1 -3 20 53.98 18.75 0
-1 -2 18 109.86 16.5 0
-1 0 11 256.93 16.29 0
0 -7 -10 130.73 15.36 0
0 -5 -9 620.27 14.15 0
0 -4 -8 218.69 15.11 0
1 0 16 5.85 15.02 0
1 1 2 14.48 19.62 0
1 1 12 16.98 14.37 0
2 -6 -12 14.23 11.6 0
2 -2 -8 384.56 18.97 0
2 0 -4 434.84 34.63 0
2 0 17 -9.71 12.16 0
2 1 14 266.39 15.57 0
3 0 18 1.67 17.14 0
3 1 15 106.94 14.55 0
3 2 3 385.67 14.84 0
3 2 10 313.52 14.5 0
4 -5 -13 151.33 16.08 0
4 -2 -10 85.43 14.61 0
4 1 16 310.21 16.85 0
4 2 12 431.88 15.93 0
5 -4 -13 54.34 15.27 0
5 -3 -12 10.03 13.83 0
5 2 13 141.26 16.14 0
6 1 17 28.78 19.02 0
7 -4 -14 84.95 17.47 0
7 2 14 -14.51 15.34 0
7 3 4 296.27 15.32 0
7 3 5 6.99 13.31 0
7 3 6 71.58 13.17 0
7 3 7 107.9 14.28 0
8 1 -7 257.4 22.47 0
8 2 14 39.4 16.4 0
8 3 2 7.59 14.37 0
8 3 3 602.55 16.78 0
8 3 4 -0.13 10.62 0
8 3 6 43.31 10.94 0
8 3 7 738.43 16.07 0
8 3 8 119.05 14.45 0
9 2 -4 51.04 13.65 0
9 3 2 29.65 14.6 0
9 3 3 11.02 10.25 0
9 3 6 379.23 13.08 0
9 3 7 2.48 16.21 0
9 3 8 643.13 16.78 0
10 3 2 9.63 14.39 0
10 3 3 32.75 15.59 0
10 3 4 81.98 14.8 0
10 3 5 594.75 16.94 0
10 3 6 34.35 15.94 0
10 3 7 36.07 16 0
11 2 -4 6.81 14.43 0
11 3 4 103.02 14.98 0
14 1 -6 29.48 18.04 0
14 2 -1 463.84 19.84 0
-6 -10 4 23.72 17.36 0
-6 -9 4 14.91 15.4 0
-6 -8 5 176.59 16.3 0
-6 -8 13 6.88 21.34 0
-6 -7 6 19.72 15.39 0
-5 -11 0 -0.42 18.48 0
-5 -8 0 -8.98 15.73 0
-4 -11 -3 121.84 17.94 0
-4 -10 -3 9.58 16.48 0
-4 -8 -3 266.75 16.57 0
-4 -6 -2 116.43 11.86 0
-4 -4 1 805.61 19.72 0
-4 -4 16 752.21 29.6 0
-4 -3 4 2.54 16.66 0
-3 -11 -5 85.92 18.3 0
-3 -7 -5 -1.08 13.97 0
-3 -4 -2 324.77 16.96 0
-2 -11 -7 19.32 19.95 0
-2 -7 -7 224.73 12.39 0
-1 -10 -9 353.83 15.23 0
-1 -9 -9 125.99 16.35 0
-1 -6 -8 7.58 10.82 0
-1 -1 16 651.46 17.81 0
-1 0 12 2.58 13.94 0
0 -8 -10 122.73 15.97 0
0 -2 -5 87.56 20.58 0
0 0 15 5.38 13.59 0
1 -7 -11 350.72 17.6 0
1 -5 -10 70.57 11.63 0
1 -4 -9 -2.53 15.49 0
1 -1 19 95.11 18.03 0
2 -7 -12 333.28 16.45 0
2 -5 -11 42.69 15.79 0
2 -1 20 125.72 17.17 0
3 -7 -13 152.39 16.94 0
3 -2 -9 186.57 15.6 0
3 1 16 118.87 14.42 0
3 2 2 -2.6 17.67 0
3 2 11 807.06 16.52 0
4 -8 -14 58.9 18.41 0
4 -4 -12 573.76 16.91 0
4 -3 -11 84.75 15.82 0
4 1 -4 66.9 26.4 0
4 2 0 975.22 19.44 0
4 2 13 1.35 13.38 0
5 -6 -14 -5.79 15.07 0
5 1 17 -13.91 15.9 0
5 2 14 42.13 14.8 0
6 -7 -15 -11.57 16.57 0
6 2 14 74.75 12.2 0
6 3 4 -8.35 14.02 0
6 3 5 134.3 14.09 0
6 3 6 14.56 13.33 0
6 3 7 1937.33 19.37 0
6 3 8 16.02 13.02 0
7 -3 -13 26.56 14.06 0
7 3 2 542.52 16.89 0
7 3 3 2.81 10.54 0
7 3 8 1709.08 16.94 0
7 3 9 15.52 14.34 0
8 -5 -15 33.08 16.33 0
8 2 -4 346.13 15.61 0
8 3 1 766.51 17.91 0
8 3 9 176.74 14.88 0
9 3 1 -0.91 14.17 0
9 3 9 59.37 15.75 0
10 3 1 16.17 14.31 0
10 3 8 21.3 16.13 0
10 3 9 21.85 16.72 0
11 3 2 41.17 15.6 0
11 3 3 18.9 10.9 0
11 3 5 50.33 12.01 0
11 3 6 28.16 15.4 0
11 3 7 -0.34 18.21 0
12 2 -4 231.24 15.93 0
12 3 4 -2.38 16.23 0
12 3 5 121.84 16.8 0
13 1 -7 40.23 18.12 0
13 2 -3 158.77 15.45 0
14 2 -2 33.56 17.84 0
-6 -10 5 43.05 17.31 0
-6 -9 5 49.74 15.42 0
-6 -8 6 40 16.38 0
-6 -7 7 4.58 14.26 0
-6 -7 8 3.79 16.88 0
-6 -7 11 10.85 19.32 0
-5 -11 1 20.06 18.82 0
-5 -10 0 153.89 13.56 0
-5 -9 0 485.67 16.76 0
-5 -7 1 358.56 17.06 0
-5 -6 2 102.95 15.63 0
-5 -5 4 12.59 14.55 0
-4 -9 -3 20.69 12.49 0
-4 -7 -2 50.39 14.73 0
-3 -10 -5 42.8 19.12 0
-3 -9 -5 35.73 16.99 0
-3 -8 -5 47.66 15.29 0
-3 -6 -4 244.36 11.82 0
-3 -5 -3 246.06 15.39 0
-3 -3 0 535.29 16.9 0
-3 -3 17 26.03 19.45 0
-3 -2 3 60.67 20.09 0
-3 -2 14 71.45 18.36 0
-2 -10 -7 42.66 13.93 0
-2 -9 -7 451.63 17.48 0
-2 -8 -7 12.7 11.52 0
-2 -6 -6 1672.99 17.81 0
-2 -5 -5 67.96 14.46 0
-2 -4 -4 1531.1 21.98 0
-2 -3 19 159.86 20.44 0
-2 -2 17 21.12 18.08 0
-1 -7 -8 86.54 15.77 0
-1 -5 -7 145.84 11.24 0
-1 -4 -6 33.56 11.2 0
-1 -2 -3 3401.68 33.68 0
0 -10 -10 32.98 14.75 0
0 -9 -10 33 16.93 0
0 -6 -9 2.2 14.38 0
0 -2 20 40.55 17.62 0
0 -1 18 -9.92 15.73 0
0 1 7 1068.77 21.71 0
0 1 8 530.31 19.27 0
0 1 9 1898.68 23.33 0
1 -10 -11 67.3 20.27 0
1 -9 -11 61.55 17.44 0
1 -8 -11 59.14 17.81 0
1 0 17 90.79 16.38 0
1 1 13 346.43 12.06 0
2 -8 -12 52.76 17.74 0
2 -1 -6 61.36 22.43 0
2 0 18 133.52 15.72 0
2 1 15 232.15 14.3 0
2 2 6 588.01 17.93 0
2 2 7 39.84 14.11 0
2 2 8 480.13 15.31 0
2 2 9 -4.3 12.83 0
3 -9 -13 8.75 17.16 0
3 -8 -13 0.02 17.23 0
3 -4 -11 130.6 15.4 0
3 -3 -10 290.69 16.18 0
3 0 19 9.02 17.45 0
3 2 12 2.89 14.46 0
4 1 17 7.62 14.59 0
6 -5 -14 10.49 13.85 0
6 1 -6 32.35 22 0
6 2 -3 76.87 17.86 0
6 2 15 56.64 17.9 0
6 3 3 1337.68 19.1 0
6 3 9 112.74 14.06 0
7 -6 -15 124.54 17.35 0
7 2 15 -4.34 16.61 0
7 3 1 213.04 14.68 0
7 3 10 14.25 13.76 0
8 2 15 44.37 17.59 0
8 3 10 56.46 11.29 0
8 3 11 14.31 14.74 0
9 3 0 303.11 15.24 0
9 3 10 424.18 16.58 0
10 3 0 -2.71 14.5 0
10 3 10 7.16 18.22 0
11 3 0 174.67 15.24 0
11 3 1 -5.33 11.04 0
11 3 8 82.48 13.9 0
11 3 9 21.01 19.58 0
12 3 1 0.02 15.49 0
12 3 2 21.87 17.19 0
12 3 3 448.64 14.68 0
12 3 6 65.07 16.2 0
12 3 7 219.03 19.26 0
14 0 -9 6.01 21.93 0
14 2 -3 100.82 18.91 0
-6 -10 6 176.48 16.74 0
-6 -10 7 13.35 16.01 0
-6 -9 6 1.76 15.22 0
-6 -8 7 14.31 16.77 0
-6 -8 12 32.71 18.64 0
-6 -7 9 503.99 18.47 0
-6 -7 10 456.54 18.54 0
-5 -10 1 8.55 17.03 0
-5 -9 1 7.63 14.36 0
-5 -8 1 181.59 16.04 0
-4 -11 -2 5.08 13.76 0
-4 -10 -2 19.34 17.89 0
-4 -8 -2 24.41 15.12 0
-4 -6 -1 41.56 15.86 0
-4 -5 0 522.87 17.09 0
-4 -5 18 85.44 28.66 0
-3 -11 -4 10.75 18.4 0
-3 -7 -4 254.91 14.76 0
-3 -4 19 55.58 22.38 0
-2 -11 -6 86.38 19.76 0
-2 -7 -6 68.65 14.9 0
-2 -1 14 11.59 14.49 0
-1 -11 -8 209.77 15.6 0
-1 -10 -8 81.67 18.1 0
-1 -9 -8 14.19 15.73 0
-1 -8 -8 26.12 15.76 0
-1 -2 19 12.1 16.58 0
-1 -1 17 61.44 16.7 0
-1 0 13 69.11 14.38 0
0 0 16 84.92 14.44 0
0 1 6 838.51 18.56 0
0 1 10 1087.45 19.59 0
1 -6 -10 86.43 16.53 0
1 1 14 7.02 14.24 0
2 -9 -12 87.86 14.79 0
2 1 -1 91.56 27.38 0
2 2 5 825.99 16.49 0
2 2 10 2288.28 21.45 0
3 -6 -12 90.03 15.32 0
3 1 17 704.03 19.18 0
3 2 13 667.12 17.33 0
4 2 14 144.57 11.37 0
5 -1 -9 87.41 17.24 0
5 1 18 113.95 17.54 0
5 2 -2 92.31 16.91 0
5 2 15 18.48 15.48 0
5 3 4 237.33 14.6 0
5 3 5 14.38 9.81 0
5 3 6 212.72 11.37 0
5 3 7 2.14 9.81 0
5 3 8 291.01 11.29 0
5 3 9 118.22 14.45 0
6 -4 -13 78.76 15.31 0
6 3 2 210.07 15.81 0
6 3 10 18.79 10.3 0
6 3 11 1441.81 17.82 0
7 -7 -15 343.03 20.9 0
7 2 -4 13.81 15.98 0
7 2 16 6.4 19.87 0
7 3 11 51.8 10.77 0
8 -4 -14 494.4 17.95 0
8 -2 -12 113.08 18.68 0
8 3 0 70.2 13.7 0
8 3 12 -1.15 15.27 0
9 -5 -15 147.61 17.63 0
9 -1 -11 6.65 22.96 0
9 3 11 1.18 12.72 0
10 2 -5 21.86 13.69 0
10 3 -1 191.42 14.89 0
10 3 11 15.57 18.12 0
11 2 -5 89.8 16.21 0
12 3 0 2.59 15.05 0
13 2 -4 36.2 15.93 0
13 3 2 9.25 18.07 0
13 3 3 37.53 18 0
13 3 4 15.01 16.6 0
-6 -10 8 65.83 18.09 0
-6 -10 9 38.36 18.61 0
-6 -9 7 8.48 15.59 0
-6 -9 8 1.21 17.28 0
-6 -9 11 46.6 21.01 0
-6 -9 12 5.45 20.22 0
-6 -8 8 75.04 16.26 0
-6 -8 9 226.69 18.13 0
-6 -8 10 90.21 19.32 0
-6 -8 11 135.31 20.04 0
-5 -11 2 327.1 17.78 0
-5 -7 2 1253.35 19.9 0
-5 -6 3 8.23 14.21 0
-5 -5 5 147.03 15.68 0
-4 -11 -1 144.87 19.44 0
-4 -9 -2 109.75 12.44 0
-4 -4 2 108.62 15.41 0
-4 -3 5 1708.96 32.47 0
-3 -10 -4 1.04 17.52 0
-3 -9 -4 383.17 18.06 0
-3 -8 -4 16.8 16.01 0
-2 -10 -6 155 17.98 0
-2 -9 -6 18.43 15.82 0
-2 -8 -6 419.49 17.58 0
-1 -6 -7 380.51 16.37 0
0 -10 -9 -9.56 18.48 0
0 -8 -9 2.8 15.71 0
0 -7 -9 412.02 13.01 0
0 -5 -8 1117.25 15.76 0
0 -4 -7 482.05 17.15 0
0 -3 -6 40.94 12.06 0
0 -1 19 339.8 18.23 0
0 1 5 1298.64 27.81 0
0 1 11 168.11 14.35 0
1 -1 20 59.51 17.01 0
1 0 18 -4.89 16 0
2 -6 -11 7.1 11.25 0
2 0 19 4.08 17.7 0
2 1 16 59.8 11.26 0
2 2 4 4820.71 34.72 0
2 2 11 180.11 14.69 0
3 2 1 59.06 20.52 0
3 2 14 105.27 14.71 0
4 -7 -13 90.94 17.29 0
4 1 18 18.98 16.49 0
4 2 15 14.6 16.22 0
5 -8 -14 169.81 18.55 0
5 -5 -13 58.34 14.75 0
5 2 16 33.86 16.14 0
5 3 3 198.47 14.24 0
5 3 10 143.61 10.58 0
5 3 11 124.35 13.39 0
6 -6 -14 904.87 19.73 0
6 -3 -12 5 13.53 0
6 -2 -11 688.9 18.96 0
6 2 16 366.61 15.59 0
6 3 1 690.71 17.14 0
6 3 12 46.5 14.5 0
7 -5 -14 8.08 14.66 0
7 3 0 56.48 14.58 0
7 3 12 35.21 11.55 0
8 -6 -15 54.28 18.3 0
8 -3 -13 66.31 16.4 0
8 3 13 2.07 15.53 0
9 2 -5 937.95 20.49 0
9 3 -1 221.63 15.23 0
9 3 12 495.33 14.92 0
10 -5 -15 72.52 19.62 0
11 3 -1 9.05 15.4 0
12 2 -5 31.1 15.32 0
13 3 1 23.83 16.51 0
14 1 -7 199.84 22.08 0
14 2 -4 46.52 20.02 0
-6 -9 9 60.35 17.05 0
-6 -9 10 3.54 16.27 0
-5 -11 3 38.02 18.73 0
-5 -10 2 23.72 12.54 0
-5 -9 2 264.46 16.67 0
-5 -8 2 36.85 14.9 0
-4 -10 -1 -0.8 17.18 0
-4 -7 -1 271.97 15.75 0
-4 -3 14 16.84 21.89 0
-3 -11 -3 1.58 19.44 0
-3 -6 -3 117.43 11.34 0
-3 -5 -2 426.55 16.47 0
-3 -4 -1 99.1 11.9 0
-3 -2 15 295.06 19.93 0
-2 -11 -5 13.74 18.27 0
-2 -6 -5 97.92 15.34 0
-2 -3 -2 799.04 18.72 0
-2 -2 0 4487.15 44.32 0
-2 -2 18 -10.76 18.64 0
-2 -1 15 144.37 14.97 0
-1 -11 -7 3.06 17.67 0
-1 -7 -7 242.3 15.55 0
-1 -5 -6 125.45 15.26 0
-1 -3 -4 31.93 18.92 0
-1 0 14 2.33 12.9 0
0 -9 -9 16.13 11.98 0
0 1 12 103.44 13.79 0
1 -10 -10 63.5 19.51 0
1 -9 -10 978.34 19.91 0
1 -8 -10 8.89 17.34 0
1 -7 -10 62.37 11.91 0
1 -5 -9 193.62 15.95 0
1 1 1 8.41 30.05 0
1 1 15 257.25 14.52 0
2 -10 -11 30.12 20.44 0
2 -7 -11 -2.29 16.99 0
2 -5 -10 -6.57 15.13 0
2 1 17 6.48 16.6 0
2 2 12 36.41 10.68 0
3 -8 -12 10.29 15.79 0
3 -7 -12 306.48 16.04 0
3 -1 -7 136.13 18.17 0
3 1 18 16.91 16.52 0
4 -9 -13 254.4 20.47 0
4 -8 -13 12.03 18.32 0
4 -5 -12 1.4 14.81 0
4 -1 -8 1104.06 24.31 0
4 2 -1 1545.56 26.59 0
4 3 5 75.89 14.24 0
4 3 6 2.62 12.92 0
4 3 7 767.57 13.61 0
4 3 8 10.65 9.98 0
4 3 9 379.2 14.76 0
4 3 10 24.22 12.89 0
5 -4 -12 55.47 14.88 0
5 3 12 4.58 14.56 0
6 2 17 7.41 19.61 0
6 3 13 170.85 16.07 0
7 3 13 10.43 11.67 0
8 3 -1 18.46 13.4 0
9 -6 -15 340.57 20.94 0
9 -4 -14 343.95 18.41 0
9 3 13 18.54 13.74 0
10 3 -2 119.02 14.64 0
11 1 -8 437.1 23.64 0
12 3 -1 397.69 16.45 0
13 2 -5 206.56 17.67 0
13 3 0 12.99 16.3 0
-5 -11 4 8.88 19.07 0
-5 -10 3 -7.09 17.19 0
-5 -7 3 10.06 14.34 0
-5 -6 4 6.47 13.6 0
-5 -5 6 688.74 19.49 0
-4 -11 0 69.26 19.03 0
-4 -9 -1 1660.45 18.74 0
-4 -8 -1 -0.64 11.36 0
-4 -6 0 50.88 11.23 0
-4 -5 1 71 11.47 0
-3 -10 -3 82.33 19.06 0
-3 -7 -3 248.87 15.57 0
-3 -3 1 6.76 16.56 0
-2 -10 -5 183.23 16.86 0
-2 -7 -5 22.4 14.53 0
-2 -5 -4 1277.57 20.35 0
-2 -4 -3 73.01 16.58 0
-2 -3 20 12.8 20.37 0
-1 -10 -7 210.74 13.9 0
-1 -9 -7 20.92 16.37 0
-1 -8 -7 240.36 16.35 0
-1 -4 -5 17.85 15.44 0
-1 -2 20 10.84 17.74 0
-1 -1 18 339.2 17.73 0
-1 0 3 141.52 28.73 0
-1 0 15 582.64 16.68 0
0 -11 -8 211.67 20.26 0
0 -6 -8 861.67 15.11 0
0 0 17 6.38 14.05 0
0 1 4 389.8 25.63 0
0 1 13 364.98 15.6 0
1 -4 -8 549.18 17.13 0
1 -3 -7 35.08 15.31 0
1 0 19 226.67 16.58 0
1 1 16 876.89 17.72 0
2 -9 -11 169.65 14.3 0
2 -8 -11 47.66 12.39 0
2 0 20 48.05 19.31 0
2 2 3 142.54 14.42 0
2 2 13 -7.77 13.6 0
3 -9 -12 275.78 15.04 0
3 2 15 48.45 14.59 0
4 2 16 268.79 13.13 0
4 3 4 210.17 15.1 0
4 3 11 441.54 15.6 0
5 -6 -13 308.55 18.09 0
5 -3 -11 10.7 15.65 0
5 -2 -10 30.19 15.94 0
5 2 17 326.63 18.16 0
5 3 2 2073.49 20.13 0
5 3 13 75.37 15.57 0
6 -7 -14 30.07 16.94 0
6 3 14 5.54 17.06 0
7 -4 -13 152.98 16.7 0
7 3 -1 52.53 13.84 0
7 3 14 455.06 13.75 0
8 2 -5 463.55 19.2 0
8 3 14 21.8 13.28 0
9 3 -2 206.82 14.81 0
9 4 6 253.36 15.92 0
10 1 -8 25.8 20.7 0
11 3 -2 16.85 13.92 0
12 1 -8 466.69 22.61 0
12 3 -2 -2.97 16.02 0
13 3 -1 19.69 17.12 0
14 3 0 5.51 19.33 0
-5 -11 5 18.34 18.21 0
-5 -10 4 145.61 16.04 0
-5 -9 3 2.38 15.18 0
-5 -8 3 26.84 13.74 0
-4 -10 0 220.27 17.56 0
-4 -7 0 994.81 19.71 0
-4 -4 3 1068.52 22.16 0
-3 -11 -2 25.2 19.32 0
-3 -9 -3 32.75 16.29 0
-3 -8 -3 1201.45 19.31 0
-3 -3 18 182.26 19.49 0
-2 -9 -5 330.85 16.76 0
-2 -8 -5 238.27 15.49 0
-2 -1 16 151.12 17.91 0
-1 -11 -6 26.14 19.01 0
0 -10 -8 20.55 17.45 0
0 -9 -8 57.08 15.67 0
0 -7 -8 407.32 17.26 0
0 -1 20 654.59 20.46 0
0 1 14 25.48 14.61 0
1 -6 -9 799.22 18.21 0
1 2 7 1667.83 22.16 0
1 2 8 129.15 14 0
1 2 9 271.2 14.35 0
1 2 10 1148.2 19.05 0
2 -2 -7 696.01 21.67 0
2 1 18 34.45 16.76 0
2 2 14 200.81 16.55 0
3 1 19 88.3 18.4 0
3 2 16 306.23 16.68 0
4 -4 -11 82.36 14.74 0
4 2 17 8.79 17.36 0
4 3 12 46.31 13.63 0
5 2 18 9.43 16.54 0
5 3 14 246.32 17.24 0
6 -5 -13 166.23 16.13 0
6 3 0 112.55 11.32 0
6 3 15 645.92 18.64 0
7 -6 -14 15.16 15.26 0
7 3 15 12.9 17.06 0
7 4 7 -1.37 13.95 0
8 -5 -14 12.09 16.35 0
8 3 -2 -3.93 13.49 0
8 4 4 233.8 15.09 0
8 4 5 17.86 14.85 0
8 4 6 82.63 14.07 0
8 4 7 176.27 15.09 0
8 4 8 47.09 15.03 0
8 4 9 1.65 15.93 0
9 -3 -13 88.45 16.92 0
9 4 4 35.17 16.17 0
9 4 5 1149.19 16.33 0
9 4 7 11.14 11.3 0
9 4 8 -9.44 12.35 0
9 4 9 353.99 18.31 0
10 -4 -14 35.08 16.74 0
10 4 3 37.67 14.35 0
10 4 4 36.82 15.72 0
10 4 5 38.33 11.75 0
10 4 6 92.88 12.88 0
10 4 7 419.78 14.05 0
10 4 8 58.6 16.7 0
10 4 9 8.9 18.53 0
11 4 4 132.46 17.19 0
11 4 5 430.28 18.03 0
11 4 6 -3.78 17.56 0
11 4 7 66.86 17.95 0
11 4 8 20.2 19.46 0
13 3 -2 22.73 15.66 0
14 2 -5 2.8 18.1 0
14 3 -1 168.79 18.07 0
-5 -11 6 123.64 18.8 0
-5 -9 4 37.04 16.61 0
-5 -8 4 20.77 14.7 0
-5 -7 4 85.26 14.24 0
-5 -6 5 -6.02 14.37 0
-5 -5 7 1217.72 23.1 0
-4 -11 1 68.96 13.69 0
-4 -9 0 6.09 12.03 0
-4 -8 0 83.11 14.97 0
-4 -6 1 12.78 15.68 0
-4 -5 2 25.92 14.67 0
-3 -10 -2 59.47 18.12 0
-3 -6 -2 30.82 11.19 0
-3 -4 0 127.39 17.55 0
-2 -11 -4 341.46 15.89 0
-2 -6 -4 221.94 15.84 0
-1 -10 -6 48.48 18.21 0
-1 -6 -6 111.08 11.62 0
-1 -2 -2 3569.86 40.36 0
-1 0 16 9.94 15.47 0
0 -11 -7 270.86 18.08 0
0 -8 -8 20.12 11.44 0
0 -5 -7 836.43 15.16 0
0 -2 -4 900.1 21.51 0
0 0 18 38.19 15 0
1 -10 -9 42 16.75 0
1 -9 -9 0.66 16.27 0
1 -8 -9 198.85 17.13 0
1 -7 -9 7.99 16.13 0
1 1 17 107.72 15.89 0
1 2 6 -8.66 16.91 0
1 2 11 92.44 10.91 0
1 2 12 3.94 14.82 0
2 -10 -10 25.32 20.42 0
2 -6 -10 17.21 11.64 0
2 2 15 75.62 15.51 0
3 -10 -11 13.82 19.78 0
3 -6 -11 1318.87 17.05 0
3 -3 -9 13.44 15.48 0
3 -2 -8 58.27 16.5 0
3 2 0 9.1 20.18 0
3 3 6 1355.47 19.41 0
3 3 7 10.72 9.72 0
3 3 8 188.42 10.77 0
3 3 9 43.06 10.02 0
3 3 10 331.91 14.57 0
3 3 11 -5.86 12.98 0
4 -9 -12 6.06 17.23 0
4 -7 -12 177.52 16.27 0
4 -3 -10 42.4 14.58 0
4 -2 -9 224.17 16.34 0
4 3 3 60.42 10.71 0
4 3 13 0.47 11.07 0
5 -9 -13 6.24 14.13 0
5 -8 -13 43.52 16.6 0
5 3 1 1.94 10.84 0
5 3 15 18.85 15.26 0
7 -7 -14 33.71 18.39 0
7 4 5 87.71 14.8 0
7 4 6 111.15 11.09 0
7 4 8 102.54 11.01 0
7 4 9 25.21 13.78 0
7 4 10 206.95 15.41 0
8 4 3 761.7 17.46 0
8 4 10 94.27 12.28 0
8 4 11 -2.63 16.25 0
9 4 2 115.88 14.57 0
9 4 3 4.81 11.81 0
9 4 10 6.58 12.16 0
9 4 11 59.9 17.84 0
10 3 -3 447.74 16.86 0
10 4 2 104.47 15.04 0
10 4 10 0.26 13.95 0
10 4 11 15.47 18.12 0
11 2 -6 4.52 14.21 0
11 3 -3 19.62 15.88 0
11 4 2 391.35 16.75 0
11 4 3 137.38 15.7 0
11 4 9 41.19 15.27 0
12 4 3 53.62 16.48 0
12 4 4 119.24 18.4 0
12 4 5 5.75 17.1 0
12 4 6 497.72 16.33 0
-3 -5 -1 108.11 11.01 0
-2 -10 -4 587.68 15.31 0
-1 -7 -6 -11.72 11.16 0
0 -4 -6 1427.96 18.51 0
2 -7 -10 13.8 12 0
2 2 2 28.02 16.68 0
3 -7 -11 399.84 14.06 0
4 -8 -12 47.28 12.8 0
4 2 18 57.73 13.67 0
4 3 14 40.65 11.16 0
6 3 16 16.33 14.44 0
6 4 7 15.33 9.82 0
6 4 8 145.76 10.75 0
7 4 4 150.26 11.21 0
7 4 11 151.97 11.74 0
